0:0
     RDKit          3D

 39 40  0  0  0  0  0  0  0  0999 V2000
   53.6340   30.8140   51.2670 C   0  0  0  0  0  0  0  0  0  0  0  0
   54.8380   30.5390   52.1620 C   0  0  0  0  0  0  0  0  0  0  0  0
   56.0280   31.2090   51.6420 N   0  0  0  0  0  0  0  0  0  0  0  0
   57.3110   30.5680   51.5810 C   0  0  0  0  0  0  0  0  0  0  0  0
   57.4310   29.3590   51.9210 O   0  0  0  0  0  0  0  0  0  0  0  0
   58.5100   31.3230   51.0650 C   0  0  2  0  0  0  0  0  0  0  0  0
   58.5480   32.7530   51.6500 C   0  0  0  0  0  0  0  0  0  0  0  0
   59.4200   33.7320   50.8350 C   0  0  0  0  0  0  0  0  0  0  0  0
   60.4180   33.0170   49.9190 C   0  0  0  0  0  0  0  0  0  0  0  0
   59.7130   32.0760   49.0350 N   0  0  0  0  0  0  0  0  0  0  0  0
   60.1330   31.8970   47.6680 C   0  0  0  0  0  0  0  0  0  0  0  0
   61.3250   31.5700   47.4180 O   0  0  0  0  0  0  0  0  0  0  0  0
   59.1910   32.0680   46.5460 C   0  0  0  0  0  0  0  0  0  0  0  0
   58.6380   30.9270   45.9410 C   0  0  0  0  0  0  0  0  0  0  0  0
   57.7240   31.0560   44.8900 C   0  0  0  0  0  0  0  0  0  0  0  0
   56.9650   29.4980   44.0880 Br  0  0  0  0  0  0  0  0  0  0  0  0
   57.3670   32.3250   44.4280 C   0  0  0  0  0  0  0  0  0  0  0  0
   57.9270   33.4650   45.0080 C   0  0  0  0  0  0  0  0  0  0  0  0
   58.8420   33.3460   46.0620 C   0  0  0  0  0  0  0  0  0  0  0  0
   59.6500   34.9490   46.7410 Br  0  0  0  0  0  0  0  0  0  0  0  0
   58.5390   31.3400   49.5270 C   0  0  0  0  0  0  0  0  0  0  0  0
   52.7513   31.0156   51.8916 H   0  0  0  0  0  0  0  0  0  0  0  0
   53.8412   31.6880   50.6320 H   0  0  0  0  0  0  0  0  0  0  0  0
   53.4412   29.9368   50.6320 H   0  0  0  0  0  0  0  0  0  0  0  0
   54.6275   30.9107   53.1757 H   0  0  0  0  0  0  0  0  0  0  0  0
   55.0227   29.4549   52.1854 H   0  0  0  0  0  0  0  0  0  0  0  0
   55.9210   32.1730   51.2540 H   0  0  0  0  0  0  0  0  0  0  0  0
   59.4161   30.7979   51.4014 H   0  0  0  0  0  0  0  0  0  0  0  0
   57.5203   33.1442   51.6788 H   0  0  0  0  0  0  0  0  0  0  0  0
   58.9963   32.6795   52.6518 H   0  0  0  0  0  0  0  0  0  0  0  0
   58.7606   34.3578   50.2157 H   0  0  0  0  0  0  0  0  0  0  0  0
   59.9997   34.3335   51.5507 H   0  0  0  0  0  0  0  0  0  0  0  0
   60.9481   33.7621   49.3076 H   0  0  0  0  0  0  0  0  0  0  0  0
   61.1362   32.4587   50.5375 H   0  0  0  0  0  0  0  0  0  0  0  0
   58.9255   29.9263   46.2959 H   0  0  0  0  0  0  0  0  0  0  0  0
   56.6434   32.4264   43.6058 H   0  0  0  0  0  0  0  0  0  0  0  0
   57.6482   34.4617   44.6353 H   0  0  0  0  0  0  0  0  0  0  0  0
   57.6258   31.8271   49.1544 H   0  0  0  0  0  0  0  0  0  0  0  0
   58.5953   30.3032   49.1639 H   0  0  0  0  0  0  0  0  0  0  0  0
  1  2  1  0
  2  3  1  0
  3  4  1  0
  4  5  2  0
  4  6  1  0
  6  7  1  0
  7  8  1  0
  8  9  1  0
  9 10  1  0
 10 11  1  0
 11 12  2  0
 11 13  1  0
 13 14  2  0
 14 15  1  0
 15 16  1  0
 15 17  2  0
 17 18  1  0
 18 19  2  0
 19 20  1  0
 10 21  1  0
 21  6  1  0
 19 13  1  0
  1 22  1  0
  1 23  1  0
  1 24  1  0
  2 25  1  0
  2 26  1  0
  3 27  1  0
  6 28  1  1
  7 29  1  0
  7 30  1  0
  8 31  1  0
  8 32  1  0
  9 33  1  0
  9 34  1  0
 14 35  1  0
 17 36  1  0
 18 37  1  0
 21 38  1  0
 21 39  1  0
M  END
>  <UniqueID>  (1) 
1

>  <SMILES>  (1) 
CCNC(=O)[C@@H]1CCCN(C(=O)c2cc(Br)ccc2Br)C1

>  <Energy>  (1) 
40.93917725182176

>  <Genealogy>  (1) 
CCNC(=O)[C@@H]1CCCN(C(=O)c2cc(Br)ccc2Br)C1 (chirality)
CCNC(=O)[C@@H]1CCCN(C(=O)c2cc(Br)ccc2Br)C1 (3D coordinates assigned)
CCNC(=O)[C@@H]1CCCN(C(=O)c2cc(Br)ccc2Br)C1 (nonaromatic ring conformer: 40.93917725182176 kcal/mol)

>  <smiles>  (1) 
CCNC(=O)C1CCCN(C(=O)c2cc(Br)ccc2Br)C1

>  <score_type>  (1) 
oracle

>  <origin>  (1) 
adg

>  <m_score__min__energy>  (1) 
-8.3100000000000005

>  <m_primary>  (1) 
energy

$$$$
1:0
     RDKit          3D

 39 41  0  0  0  0  0  0  0  0999 V2000
   60.4060   29.5060   48.0950 C   0  0  0  0  0  0  0  0  0  0  0  0
   60.4330   28.6380   46.9660 O   0  0  0  0  0  0  0  0  0  0  0  0
   59.3180   27.9430   46.4770 C   0  0  0  0  0  0  0  0  0  0  0  0
   59.3030   26.5410   46.3370 C   0  0  0  0  0  0  0  0  0  0  0  0
   58.1600   25.8970   45.8550 C   0  0  0  0  0  0  0  0  0  0  0  0
   57.0320   26.6390   45.4990 C   0  0  0  0  0  0  0  0  0  0  0  0
   57.0400   28.0330   45.6090 C   0  0  0  0  0  0  0  0  0  0  0  0
   55.8590   28.7640   45.2450 N   0  0  0  0  0  0  0  0  0  0  0  0
   55.7360   29.6790   44.1470 C   0  0  0  0  0  0  0  0  0  0  0  0
   54.8220   29.4860   43.3020 O   0  0  0  0  0  0  0  0  0  0  0  0
   56.6760   30.8070   43.9510 C   0  0  0  0  0  0  0  0  0  0  0  0
   56.9920   31.2560   42.6600 C   0  0  0  0  0  0  0  0  0  0  0  0
   57.8790   32.3180   42.4980 C   0  0  0  0  0  0  0  0  0  0  0  0
   58.4370   32.9340   43.6160 C   0  0  0  0  0  0  0  0  0  0  0  0
   58.0950   32.4810   44.9010 C   0  0  0  0  0  0  0  0  0  0  0  0
   58.6710   33.1350   46.1040 C   0  0  0  0  0  0  0  0  0  0  0  0
   58.7030   32.4550   47.3350 C   0  0  0  0  0  0  0  0  0  0  0  0
   59.2460   33.0670   48.4680 C   0  0  0  0  0  0  0  0  0  0  0  0
   59.7640   34.3620   48.3860 C   0  0  0  0  0  0  0  0  0  0  0  0
   60.2910   34.9540   49.4860 F   0  0  0  0  0  0  0  0  0  0  0  0
   59.7390   35.0470   47.1680 C   0  0  0  0  0  0  0  0  0  0  0  0
   59.1950   34.4400   46.0320 C   0  0  0  0  0  0  0  0  0  0  0  0
   57.2220   31.4370   45.0340 N   0  0  0  0  0  0  0  0  0  0  0  0
   58.1810   28.6790   46.1190 C   0  0  0  0  0  0  0  0  0  0  0  0
   60.4246   28.9078   49.0179 H   0  0  0  0  0  0  0  0  0  0  0  0
   61.2840   30.1682   48.0695 H   0  0  0  0  0  0  0  0  0  0  0  0
   59.4886   30.1123   48.0695 H   0  0  0  0  0  0  0  0  0  0  0  0
   60.1921   25.9525   46.6074 H   0  0  0  0  0  0  0  0  0  0  0  0
   58.1490   24.8015   45.7557 H   0  0  0  0  0  0  0  0  0  0  0  0
   56.1325   26.1244   45.1301 H   0  0  0  0  0  0  0  0  0  0  0  0
   56.5419   30.7722   41.7806 H   0  0  0  0  0  0  0  0  0  0  0  0
   58.1384   32.6697   41.4886 H   0  0  0  0  0  0  0  0  0  0  0  0
   59.1412   33.7701   43.4933 H   0  0  0  0  0  0  0  0  0  0  0  0
   58.2979   31.4348   47.4063 H   0  0  0  0  0  0  0  0  0  0  0  0
   59.2656   32.5279   49.4266 H   0  0  0  0  0  0  0  0  0  0  0  0
   60.1482   36.0660   47.1030 H   0  0  0  0  0  0  0  0  0  0  0  0
   59.1762   34.9849   45.0767 H   0  0  0  0  0  0  0  0  0  0  0  0
   56.9920   31.0840   45.9900 H   0  0  0  0  0  0  0  0  0  0  0  0
   58.1804   29.7726   46.2378 H   0  0  0  0  0  0  0  0  0  0  0  0
  1  2  1  0
  2  3  1  0
  3  4  2  0
  4  5  1  0
  5  6  2  0
  6  7  1  0
  7  8  1  0
  8  9  1  0
  9 10  2  0
  9 11  1  0
 11 12  2  0
 12 13  1  0
 13 14  2  0
 14 15  1  0
 15 16  1  0
 16 17  2  0
 17 18  1  0
 18 19  2  0
 19 20  1  0
 19 21  1  0
 21 22  2  0
 15 23  2  0
  7 24  2  0
 24  3  1  0
 23 11  1  0
 22 16  1  0
  1 25  1  0
  1 26  1  0
  1 27  1  0
  4 28  1  0
  5 29  1  0
  6 30  1  0
 12 31  1  0
 13 32  1  0
 14 33  1  0
 17 34  1  0
 18 35  1  0
 21 36  1  0
 22 37  1  0
 23 38  1  0
 24 39  1  0
M  CHG  2   8  -1  23   1
M  END
>  <UniqueID>  (2) 
2

>  <SMILES>  (2) 
COc1cccc([N-]C(=O)c2cccc(-c3ccc(F)cc3)[nH+]2)c1

>  <Energy>  (2) 
52.98187296196891

>  <Genealogy>  (2) 
COc1cccc([N-]C(=O)c2cccc(-c3ccc(F)cc3)[nH+]2)c1 (protonated)
COc1cccc([N-]C(=O)c2cccc(-c3ccc(F)cc3)[nH+]2)c1 (3D coordinates assigned)
COc1cccc([N-]C(=O)c2cccc(-c3ccc(F)cc3)[nH+]2)c1 (optimized conformer: 52.98187296196891 kcal/mol)

>  <smiles>  (2) 
COc1cccc(NC(=O)c2cccc(-c3ccc(F)cc3)n2)c1

>  <score_type>  (2) 
oracle

>  <origin>  (2) 
adg

>  <m_score__min__energy>  (2) 
-8.2899999999999991

>  <m_primary>  (2) 
energy

$$$$
2:0
     RDKit          3D

 52 54  0  0  0  0  0  0  0  0999 V2000
   58.1340   26.7760   42.9080 C   0  0  0  0  0  0  0  0  0  0  0  0
   57.9490   26.3700   44.3700 C   0  0  0  0  0  0  0  0  0  0  0  0
   58.6950   27.2760   45.3840 C   0  0  0  0  0  0  0  0  0  0  0  0
   58.0530   28.5850   45.6800 N   0  0  0  0  0  0  0  0  0  0  0  0
   58.1480   29.5580   44.5630 C   0  0  0  0  0  0  0  0  0  0  0  0
   56.7900   29.6940   43.8580 C   0  0  0  0  0  0  0  0  0  0  0  0
   56.7700   30.8420   42.8460 C   0  0  0  0  0  0  0  0  0  0  0  0
   58.4120   29.1390   47.0080 C   0  0  0  0  0  0  0  0  0  0  0  0
   59.5160   30.1620   46.8990 C   0  0  0  0  0  0  0  0  0  0  0  0
   60.5920   29.8510   46.3130 O   0  0  0  0  0  0  0  0  0  0  0  0
   59.3670   31.4870   47.4570 N   0  0  0  0  0  0  0  0  0  0  0  0
   59.0790   32.6290   46.6200 C   0  0  0  0  0  0  0  0  0  0  0  0
   58.0860   32.4890   45.6290 C   0  0  0  0  0  0  0  0  0  0  0  0
   57.7550   33.5470   44.7860 C   0  0  0  0  0  0  0  0  0  0  0  0
   58.3980   34.7730   44.9230 C   0  0  0  0  0  0  0  0  0  0  0  0
   59.3800   34.9420   45.8980 C   0  0  0  0  0  0  0  0  0  0  0  0
   59.7460   33.8880   46.7580 C   0  0  0  0  0  0  0  0  0  0  0  0
   60.8100   34.2280   47.7980 C   0  0  0  0  0  0  0  0  0  0  0  0
   61.4660   33.0580   48.5280 C   0  0  0  0  0  0  0  0  0  0  0  0
   60.4730   32.3970   49.4360 C   0  0  0  0  0  0  0  0  0  0  0  0
   60.5340   32.5440   50.8300 C   0  0  0  0  0  0  0  0  0  0  0  0
   59.5770   31.9240   51.6350 C   0  0  0  0  0  0  0  0  0  0  0  0
   58.5720   31.1580   51.0380 C   0  0  0  0  0  0  0  0  0  0  0  0
   58.5240   31.0350   49.6840 N   0  0  0  0  0  0  0  0  0  0  0  0
   59.4360   31.6470   48.8780 C   0  0  0  0  0  0  0  0  0  0  0  0
   58.5897   27.7760   42.8600 H   0  0  0  0  0  0  0  0  0  0  0  0
   58.7900   26.0497   42.4059 H   0  0  0  0  0  0  0  0  0  0  0  0
   57.1554   26.7945   42.4059 H   0  0  0  0  0  0  0  0  0  0  0  0
   56.8746   26.4038   44.6035 H   0  0  0  0  0  0  0  0  0  0  0  0
   58.3778   25.3623   44.4735 H   0  0  0  0  0  0  0  0  0  0  0  0
   58.7827   26.7219   46.3302 H   0  0  0  0  0  0  0  0  0  0  0  0
   59.6600   27.5170   44.9143 H   0  0  0  0  0  0  0  0  0  0  0  0
   58.4505   30.5382   44.9602 H   0  0  0  0  0  0  0  0  0  0  0  0
   58.8934   29.1991   43.8380 H   0  0  0  0  0  0  0  0  0  0  0  0
   56.5703   28.7542   43.3304 H   0  0  0  0  0  0  0  0  0  0  0  0
   56.0336   29.9113   44.6265 H   0  0  0  0  0  0  0  0  0  0  0  0
   56.7533   31.8027   43.3816 H   0  0  0  0  0  0  0  0  0  0  0  0
   57.6692   30.7899   42.2145 H   0  0  0  0  0  0  0  0  0  0  0  0
   55.8732   30.7586   42.2145 H   0  0  0  0  0  0  0  0  0  0  0  0
   57.5242   29.6164   47.4483 H   0  0  0  0  0  0  0  0  0  0  0  0
   58.7671   28.3135   47.6424 H   0  0  0  0  0  0  0  0  0  0  0  0
   57.5635   31.5272   45.5197 H   0  0  0  0  0  0  0  0  0  0  0  0
   56.9851   33.4132   44.0118 H   0  0  0  0  0  0  0  0  0  0  0  0
   58.1312   35.6101   44.2612 H   0  0  0  0  0  0  0  0  0  0  0  0
   59.8788   35.9173   45.9977 H   0  0  0  0  0  0  0  0  0  0  0  0
   61.6065   34.7884   47.2866 H   0  0  0  0  0  0  0  0  0  0  0  0
   60.2762   34.7886   48.5795 H   0  0  0  0  0  0  0  0  0  0  0  0
   61.8287   32.3264   47.7910 H   0  0  0  0  0  0  0  0  0  0  0  0
   62.3084   33.4337   49.1274 H   0  0  0  0  0  0  0  0  0  0  0  0
   61.3333   33.1458   51.2870 H   0  0  0  0  0  0  0  0  0  0  0  0
   59.6135   32.0372   52.7286 H   0  0  0  0  0  0  0  0  0  0  0  0
   57.8197   30.6545   51.6630 H   0  0  0  0  0  0  0  0  0  0  0  0
  1  2  1  0
  2  3  1  0
  3  4  1  0
  4  5  1  0
  5  6  1  0
  6  7  1  0
  4  8  1  0
  8  9  1  0
  9 10  2  0
  9 11  1  0
 11 12  1  0
 12 13  2  0
 13 14  1  0
 14 15  2  0
 15 16  1  0
 16 17  2  0
 17 18  1  0
 18 19  1  0
 19 20  1  0
 20 21  2  0
 21 22  1  0
 22 23  2  0
 23 24  1  0
 24 25  2  0
 25 11  1  0
 17 12  1  0
 25 20  1  0
  1 26  1  0
  1 27  1  0
  1 28  1  0
  2 29  1  0
  2 30  1  0
  3 31  1  0
  3 32  1  0
  5 33  1  0
  5 34  1  0
  6 35  1  0
  6 36  1  0
  7 37  1  0
  7 38  1  0
  7 39  1  0
  8 40  1  0
  8 41  1  0
 13 42  1  0
 14 43  1  0
 15 44  1  0
 16 45  1  0
 18 46  1  0
 18 47  1  0
 19 48  1  0
 19 49  1  0
 21 50  1  0
 22 51  1  0
 23 52  1  0
M  END
>  <UniqueID>  (3) 
3

>  <SMILES>  (3) 
CCCN(CCC)CC(=O)N1c2ccccc2CCc2cccnc21

>  <Energy>  (3) 
75.54084035251327

>  <Genealogy>  (3) 
CCCN(CCC)CC(=O)N1c2ccccc2CCc2cccnc21 (3D coordinates assigned)
CCCN(CCC)CC(=O)N1c2ccccc2CCc2cccnc21 (nonaromatic ring conformer: 75.54084035251327 kcal/mol)

>  <smiles>  (3) 
CCCN(CCC)CC(=O)N1c2ccccc2CCc2cccnc21

>  <score_type>  (3) 
oracle

>  <origin>  (3) 
adg

>  <m_score__min__energy>  (3) 
-5.9299999999999997

>  <m_primary>  (3) 
energy

$$$$
3:0
     RDKit          3D

 35 36  0  0  0  0  0  0  0  0999 V2000
   57.7540   32.2790   44.3040 C   0  0  0  0  0  0  0  0  0  0  0  0
   57.3510   31.2480   45.1950 O   0  0  0  0  0  0  0  0  0  0  0  0
   57.5710   29.8740   45.0120 C   0  0  0  0  0  0  0  0  0  0  0  0
   58.4140   29.0070   45.7170 C   0  0  0  0  0  0  0  0  0  0  0  0
   59.3960   29.3010   46.8170 C   0  0  0  0  0  0  0  0  0  0  0  0
   58.8860   30.3910   47.6580 N   0  0  0  0  0  0  0  0  0  0  0  0
   59.9360   31.3700   47.9800 C   0  0  0  0  0  0  0  0  0  0  0  0
   59.6790   32.7040   47.3390 C   0  0  0  0  0  0  0  0  0  0  0  0
   58.4860   33.4130   47.3870 C   0  0  0  0  0  0  0  0  0  0  0  0
   58.5260   34.6050   46.6540 C   0  0  0  0  0  0  0  0  0  0  0  0
   59.7430   34.8330   46.0240 C   0  0  0  0  0  0  0  0  0  0  0  0
   60.7700   33.5480   46.3790 S   0  0  0  0  0  0  0  0  0  0  0  0
   58.2760   27.7900   45.0580 C   0  0  0  0  0  0  0  0  0  0  0  0
   59.0140   26.5240   45.3580 C   0  0  0  0  0  0  0  0  0  0  0  0
   57.3950   27.9260   44.0500 N   0  0  0  0  0  0  0  0  0  0  0  0
   56.9630   29.1760   44.0320 N   0  0  0  0  0  0  0  0  0  0  0  0
   56.0630   29.7170   43.0190 C   0  0  0  0  0  0  0  0  0  0  0  0
   58.0947   33.1507   44.8820 H   0  0  0  0  0  0  0  0  0  0  0  0
   58.5761   31.9152   43.6701 H   0  0  0  0  0  0  0  0  0  0  0  0
   56.9031   32.5692   43.6701 H   0  0  0  0  0  0  0  0  0  0  0  0
   59.5366   28.3999   47.4320 H   0  0  0  0  0  0  0  0  0  0  0  0
   60.3579   29.6011   46.3757 H   0  0  0  0  0  0  0  0  0  0  0  0
   58.1070   30.8770   47.1530 H   0  0  0  0  0  0  0  0  0  0  0  0
   59.9753   31.5023   49.0713 H   0  0  0  0  0  0  0  0  0  0  0  0
   60.8899   30.9847   47.5907 H   0  0  0  0  0  0  0  0  0  0  0  0
   57.6004   33.0729   47.9438 H   0  0  0  0  0  0  0  0  0  0  0  0
   57.6734   35.2965   46.5835 H   0  0  0  0  0  0  0  0  0  0  0  0
   59.9925   35.7040   45.4002 H   0  0  0  0  0  0  0  0  0  0  0  0
   59.0902   26.3934   46.4476 H   0  0  0  0  0  0  0  0  0  0  0  0
   58.4714   25.6715   44.9235 H   0  0  0  0  0  0  0  0  0  0  0  0
   60.0232   26.5761   44.9235 H   0  0  0  0  0  0  0  0  0  0  0  0
   57.1100   27.1860   43.3700 H   0  0  0  0  0  0  0  0  0  0  0  0
   55.2197   30.2239   43.5108 H   0  0  0  0  0  0  0  0  0  0  0  0
   56.6081   30.4373   42.3912 H   0  0  0  0  0  0  0  0  0  0  0  0
   55.6827   28.8977   42.3912 H   0  0  0  0  0  0  0  0  0  0  0  0
  1  2  1  0
  2  3  1  0
  3  4  2  0
  4  5  1  0
  5  6  1  0
  6  7  1  0
  7  8  1  0
  8  9  2  0
  9 10  1  0
 10 11  2  0
 11 12  1  0
  4 13  1  0
 13 14  1  0
 13 15  2  0
 15 16  1  0
 16 17  1  0
 16  3  1  0
 12  8  1  0
  1 18  1  0
  1 19  1  0
  1 20  1  0
  5 21  1  0
  5 22  1  0
  6 23  1  0
  7 24  1  0
  7 25  1  0
  9 26  1  0
 10 27  1  0
 11 28  1  0
 14 29  1  0
 14 30  1  0
 14 31  1  0
 15 32  1  0
 17 33  1  0
 17 34  1  0
 17 35  1  0
M  CHG  1  15   1
M  END
>  <UniqueID>  (4) 
4

>  <SMILES>  (4) 
COc1c(CNCc2cccs2)c(C)[nH+]n1C

>  <Energy>  (4) 
88.69388708540596

>  <Genealogy>  (4) 
COc1c(CNCc2cccs2)c(C)[nH+]n1C (protonated)
COc1c(CNCc2cccs2)c(C)[nH+]n1C (3D coordinates assigned)
COc1c(CNCc2cccs2)c(C)[nH+]n1C (optimized conformer: 88.69388708540596 kcal/mol)

>  <smiles>  (4) 
COc1c(CNCc2cccs2)c(C)nn1C

>  <score_type>  (4) 
oracle

>  <origin>  (4) 
adg

>  <m_score__min__energy>  (4) 
-4.96

>  <m_primary>  (4) 
energy

$$$$
4:0
     RDKit          3D

 44 46  0  0  0  0  0  0  0  0999 V2000
   55.9250   31.3080   44.7900 O   0  0  0  0  0  0  0  0  0  0  0  0
   57.0440   31.7030   44.4950 C   0  0  0  0  0  0  0  0  0  0  0  0
   57.9670   30.7620   43.7500 C   0  0  0  0  0  0  0  0  0  0  0  0
   58.3710   29.5890   44.6090 C   0  0  0  0  0  0  0  0  0  0  0  0
   59.7300   29.3680   44.8910 C   0  0  0  0  0  0  0  0  0  0  0  0
   60.1230   28.2800   45.6780 C   0  0  0  0  0  0  0  0  0  0  0  0
   59.1670   27.4010   46.1840 C   0  0  0  0  0  0  0  0  0  0  0  0
   57.8110   27.6070   45.9040 C   0  0  0  0  0  0  0  0  0  0  0  0
   57.4110   28.6930   45.1180 C   0  0  0  0  0  0  0  0  0  0  0  0
   56.0880   28.8730   44.8690 F   0  0  0  0  0  0  0  0  0  0  0  0
   57.4190   33.0740   44.8030 N   0  0  0  0  0  0  0  0  0  0  0  0
   58.8370   33.3270   44.4400 C   0  0  0  0  0  0  0  0  0  0  0  0
   59.4290   34.4660   45.2600 C   0  0  0  0  0  0  0  0  0  0  0  0
   59.4060   34.0650   46.6660 N   0  0  0  0  0  0  0  0  0  0  0  0
   60.6280   33.9460   47.4210 C   0  0  0  0  0  0  0  0  0  0  0  0
   60.6020   34.0090   48.8230 C   0  0  0  0  0  0  0  0  0  0  0  0
   61.7790   33.8520   49.5610 C   0  0  0  0  0  0  0  0  0  0  0  0
   63.0030   33.6200   48.9120 C   0  0  0  0  0  0  0  0  0  0  0  0
   64.2100   33.4340   49.6740 N   0  0  0  0  0  0  0  0  0  0  0  0
   64.4970   34.2070   50.6110 O   0  0  0  0  0  0  0  0  0  0  0  0
   65.1020   32.4390   49.3380 O   0  0  0  0  0  0  0  0  0  0  0  0
   63.0250   33.5550   47.5070 C   0  0  0  0  0  0  0  0  0  0  0  0
   61.8490   33.7110   46.7690 C   0  0  0  0  0  0  0  0  0  0  0  0
   58.1730   33.4900   47.2170 C   0  0  0  0  0  0  0  0  0  0  0  0
   57.0200   33.4690   46.1870 C   0  0  0  0  0  0  0  0  0  0  0  0
   57.4492   30.3878   42.8545 H   0  0  0  0  0  0  0  0  0  0  0  0
   58.8758   31.3167   43.4735 H   0  0  0  0  0  0  0  0  0  0  0  0
   60.4898   30.0551   44.4903 H   0  0  0  0  0  0  0  0  0  0  0  0
   61.1886   28.1180   45.8978 H   0  0  0  0  0  0  0  0  0  0  0  0
   59.4777   26.5463   46.8027 H   0  0  0  0  0  0  0  0  0  0  0  0
   57.0573   26.9125   46.3034 H   0  0  0  0  0  0  0  0  0  0  0  0
   56.8520   33.6880   44.1670 H   0  0  0  0  0  0  0  0  0  0  0  0
   59.4213   32.4133   44.6235 H   0  0  0  0  0  0  0  0  0  0  0  0
   58.8759   33.6102   43.3778 H   0  0  0  0  0  0  0  0  0  0  0  0
   60.4648   34.6565   44.9423 H   0  0  0  0  0  0  0  0  0  0  0  0
   58.8459   35.3873   45.1141 H   0  0  0  0  0  0  0  0  0  0  0  0
   59.6492   34.1830   49.3445 H   0  0  0  0  0  0  0  0  0  0  0  0
   61.7463   33.9106   50.6589 H   0  0  0  0  0  0  0  0  0  0  0  0
   63.9770   33.3797   46.9845 H   0  0  0  0  0  0  0  0  0  0  0  0
   61.8799   33.6494   45.6712 H   0  0  0  0  0  0  0  0  0  0  0  0
   58.3777   32.4583   47.5390 H   0  0  0  0  0  0  0  0  0  0  0  0
   57.8570   34.1209   48.0609 H   0  0  0  0  0  0  0  0  0  0  0  0
   56.2599   32.7564   46.5398 H   0  0  0  0  0  0  0  0  0  0  0  0
   56.6499   34.5026   46.1178 H   0  0  0  0  0  0  0  0  0  0  0  0
  1  2  2  0
  2  3  1  0
  3  4  1  0
  4  5  2  0
  5  6  1  0
  6  7  2  0
  7  8  1  0
  8  9  2  0
  9 10  1  0
  2 11  1  0
 11 12  1  0
 12 13  1  0
 13 14  1  0
 14 15  1  0
 15 16  2  0
 16 17  1  0
 17 18  2  0
 18 19  1  0
 19 20  2  0
 19 21  1  0
 18 22  1  0
 22 23  2  0
 14 24  1  0
 24 25  1  0
  9  4  1  0
 25 11  1  0
 23 15  1  0
  3 26  1  0
  3 27  1  0
  5 28  1  0
  6 29  1  0
  7 30  1  0
  8 31  1  0
 11 32  1  0
 12 33  1  0
 12 34  1  0
 13 35  1  0
 13 36  1  0
 16 37  1  0
 17 38  1  0
 22 39  1  0
 23 40  1  0
 24 41  1  0
 24 42  1  0
 25 43  1  0
 25 44  1  0
M  CHG  3  11   1  19   1  21  -1
M  END
>  <UniqueID>  (5) 
5

>  <SMILES>  (5) 
O=C(Cc1ccccc1F)[NH+]1CCN(c2ccc([N+](=O)[O-])cc2)CC1

>  <Energy>  (5) 
61.71513883209133

>  <Genealogy>  (5) 
O=C(Cc1ccccc1F)[NH+]1CCN(c2ccc([N+](=O)[O-])cc2)CC1 (protonated)
O=C(Cc1ccccc1F)[NH+]1CCN(c2ccc([N+](=O)[O-])cc2)CC1 (3D coordinates assigned)
O=C(Cc1ccccc1F)[NH+]1CCN(c2ccc([N+](=O)[O-])cc2)CC1 (nonaromatic ring conformer: 61.71513883209133 kcal/mol)

>  <smiles>  (5) 
O=C(Cc1ccccc1F)N1CCN(c2ccc([N+](=O)[O-])cc2)CC1

>  <score_type>  (5) 
oracle

>  <origin>  (5) 
adg

>  <m_score__min__energy>  (5) 
-6.8300000000000001

>  <m_primary>  (5) 
energy

$$$$
5:0
     RDKit          3D

 42 44  0  0  0  0  0  0  0  0999 V2000
   56.8450   29.3990   43.6130 C   0  0  0  0  0  0  0  0  0  0  0  0
   56.8070   30.1020   44.8490 O   0  0  0  0  0  0  0  0  0  0  0  0
   57.4410   31.3320   45.0810 C   0  0  0  0  0  0  0  0  0  0  0  0
   57.7130   32.2460   44.0490 C   0  0  0  0  0  0  0  0  0  0  0  0
   58.3580   33.4500   44.3300 C   0  0  0  0  0  0  0  0  0  0  0  0
   58.7320   33.7710   45.6390 C   0  0  0  0  0  0  0  0  0  0  0  0
   59.6490   35.4370   45.9110 Br  0  0  0  0  0  0  0  0  0  0  0  0
   58.4430   32.8720   46.6930 C   0  0  0  0  0  0  0  0  0  0  0  0
   58.8180   33.1720   48.1360 C   0  0  0  0  0  0  0  0  0  0  0  0
   60.2720   33.1060   48.4100 N   0  0  0  0  0  0  0  0  0  0  0  0
   60.8710   34.4060   48.7580 C   0  0  0  0  0  0  0  0  0  0  0  0
   62.2020   34.1580   49.4740 C   0  0  0  0  0  0  0  0  0  0  0  0
   62.9040   33.0010   48.8990 N   0  0  0  0  0  0  0  0  0  0  0  0
   64.0600   32.4800   49.5810 C   0  0  0  0  0  0  0  0  0  0  0  0
   63.9550   31.3840   50.4540 C   0  0  0  0  0  0  0  0  0  0  0  0
   65.0950   30.9170   51.1130 C   0  0  0  0  0  0  0  0  0  0  0  0
   66.3230   31.5480   50.9090 C   0  0  0  0  0  0  0  0  0  0  0  0
   66.3920   32.6450   50.0490 C   0  0  0  0  0  0  0  0  0  0  0  0
   65.2710   33.0840   49.4160 N   0  0  0  0  0  0  0  0  0  0  0  0
   62.5670   32.5680   47.5350 C   0  0  0  0  0  0  0  0  0  0  0  0
   61.0420   32.4030   47.3610 C   0  0  0  0  0  0  0  0  0  0  0  0
   57.8140   31.6500   46.3910 C   0  0  0  0  0  0  0  0  0  0  0  0
   56.9034   28.3179   43.8077 H   0  0  0  0  0  0  0  0  0  0  0  0
   55.9336   29.6192   43.0377 H   0  0  0  0  0  0  0  0  0  0  0  0
   57.7273   29.7162   43.0377 H   0  0  0  0  0  0  0  0  0  0  0  0
   57.4162   32.0110   43.0162 H   0  0  0  0  0  0  0  0  0  0  0  0
   58.5749   34.1547   43.5137 H   0  0  0  0  0  0  0  0  0  0  0  0
   58.4662   34.1851   48.3807 H   0  0  0  0  0  0  0  0  0  0  0  0
   58.3435   32.3960   48.7546 H   0  0  0  0  0  0  0  0  0  0  0  0
   61.0465   34.9896   47.8422 H   0  0  0  0  0  0  0  0  0  0  0  0
   60.1910   34.9678   49.4153 H   0  0  0  0  0  0  0  0  0  0  0  0
   62.8367   35.0506   49.3720 H   0  0  0  0  0  0  0  0  0  0  0  0
   61.9953   33.9501   50.5342 H   0  0  0  0  0  0  0  0  0  0  0  0
   62.9822   30.8972   50.6174 H   0  0  0  0  0  0  0  0  0  0  0  0
   65.0248   30.0538   51.7912 H   0  0  0  0  0  0  0  0  0  0  0  0
   67.2266   31.1847   51.4204 H   0  0  0  0  0  0  0  0  0  0  0  0
   67.3527   33.1545   49.8831 H   0  0  0  0  0  0  0  0  0  0  0  0
   62.9301   33.3208   46.8198 H   0  0  0  0  0  0  0  0  0  0  0  0
   63.0453   31.5947   47.3510 H   0  0  0  0  0  0  0  0  0  0  0  0
   60.7531   32.8085   46.3801 H   0  0  0  0  0  0  0  0  0  0  0  0
   60.8111   31.3304   47.4397 H   0  0  0  0  0  0  0  0  0  0  0  0
   57.6121   30.9321   47.1996 H   0  0  0  0  0  0  0  0  0  0  0  0
  1  2  1  0
  2  3  1  0
  3  4  2  0
  4  5  1  0
  5  6  2  0
  6  7  1  0
  6  8  1  0
  8  9  1  0
  9 10  1  0
 10 11  1  0
 11 12  1  0
 12 13  1  0
 13 14  1  0
 14 15  2  0
 15 16  1  0
 16 17  2  0
 17 18  1  0
 18 19  2  0
 13 20  1  0
 20 21  1  0
  8 22  2  0
 22  3  1  0
 21 10  1  0
 19 14  1  0
  1 23  1  0
  1 24  1  0
  1 25  1  0
  4 26  1  0
  5 27  1  0
  9 28  1  0
  9 29  1  0
 11 30  1  0
 11 31  1  0
 12 32  1  0
 12 33  1  0
 15 34  1  0
 16 35  1  0
 17 36  1  0
 18 37  1  0
 20 38  1  0
 20 39  1  0
 21 40  1  0
 21 41  1  0
 22 42  1  0
M  END
>  <UniqueID>  (6) 
6

>  <SMILES>  (6) 
COc1ccc(Br)c(CN2CCN(c3ccccn3)CC2)c1

>  <Energy>  (6) 
57.087805952055696

>  <Genealogy>  (6) 
COc1ccc(Br)c(CN2CCN(c3ccccn3)CC2)c1 (3D coordinates assigned)
COc1ccc(Br)c(CN2CCN(c3ccccn3)CC2)c1 (nonaromatic ring conformer: 57.087805952055696 kcal/mol)

>  <smiles>  (6) 
COc1ccc(Br)c(CN2CCN(c3ccccn3)CC2)c1

>  <score_type>  (6) 
oracle

>  <origin>  (6) 
adg

>  <m_score__min__energy>  (6) 
-7.4900000000000002

>  <m_primary>  (6) 
energy

$$$$
6:0
     RDKit          3D

 51 53  0  0  0  0  0  0  0  0999 V2000
   65.1660   32.4870   49.9720 C   0  0  0  0  0  0  0  0  0  0  0  0
   63.7720   32.5170   50.6100 C   0  0  0  0  0  0  0  0  0  0  0  0
   62.6810   32.6070   49.6050 N   0  0  0  0  0  0  0  0  0  0  0  0
   61.6520   33.5610   50.0930 C   0  0  0  0  0  0  0  0  0  0  0  0
   60.5710   33.8410   49.0400 C   0  0  0  0  0  0  0  0  0  0  0  0
   63.2020   33.0170   48.2650 C   0  0  0  0  0  0  0  0  0  0  0  0
   62.8150   32.0400   47.1370 C   0  0  0  0  0  0  0  0  0  0  0  0
   62.1840   30.8690   47.6630 O   0  0  0  0  0  0  0  0  0  0  0  0
   60.9400   30.3510   47.2690 C   0  0  0  0  0  0  0  0  0  0  0  0
   60.8350   29.7940   45.9890 C   0  0  0  0  0  0  0  0  0  0  0  0
   59.6080   29.3160   45.5200 C   0  0  0  0  0  0  0  0  0  0  0  0
   58.4670   29.3950   46.3230 C   0  0  0  0  0  0  0  0  0  0  0  0
   57.2120   28.9350   45.8030 N   0  0  0  0  0  0  0  0  0  0  0  0
   56.3720   29.6610   44.8950 C   0  0  0  0  0  0  0  0  0  0  0  0
   55.1470   29.3750   44.8440 O   0  0  0  0  0  0  0  0  0  0  0  0
   56.9220   30.6810   43.9770 C   0  0  0  0  0  0  0  0  0  0  0  0
   56.8500   30.6000   42.2960 S   0  0  0  0  0  0  0  0  0  0  0  0
   57.5820   32.0800   41.9950 C   0  0  0  0  0  0  0  0  0  0  0  0
   57.8870   32.6690   43.2130 C   0  0  0  0  0  0  0  0  0  0  0  0
   57.5340   31.8890   44.3260 C   0  0  0  0  0  0  0  0  0  0  0  0
   57.7610   32.3470   45.7400 C   0  0  0  0  0  0  0  0  0  0  0  0
   57.4110   33.8060   46.0110 C   0  0  0  0  0  0  0  0  0  0  0  0
   58.8660   33.3830   45.9050 C   0  0  0  0  0  0  0  0  0  0  0  0
   58.5820   29.8820   47.6360 C   0  0  0  0  0  0  0  0  0  0  0  0
   59.8090   30.3560   48.1060 C   0  0  0  0  0  0  0  0  0  0  0  0
   65.9308   32.4705   50.7625 H   0  0  0  0  0  0  0  0  0  0  0  0
   65.2643   31.5865   49.3479 H   0  0  0  0  0  0  0  0  0  0  0  0
   65.3030   33.3824   49.3479 H   0  0  0  0  0  0  0  0  0  0  0  0
   63.6342   31.5970   51.1970 H   0  0  0  0  0  0  0  0  0  0  0  0
   63.7158   33.4159   51.2415 H   0  0  0  0  0  0  0  0  0  0  0  0
   62.2340   31.6650   49.5590 H   0  0  0  0  0  0  0  0  0  0  0  0
   61.1728   33.1372   50.9878 H   0  0  0  0  0  0  0  0  0  0  0  0
   62.1556   34.5124   50.3194 H   0  0  0  0  0  0  0  0  0  0  0  0
   59.6240   34.0863   49.5430 H   0  0  0  0  0  0  0  0  0  0  0  0
   60.8823   34.6881   48.4112 H   0  0  0  0  0  0  0  0  0  0  0  0
   60.4319   32.9492   48.4112 H   0  0  0  0  0  0  0  0  0  0  0  0
   62.7967   34.0102   48.0214 H   0  0  0  0  0  0  0  0  0  0  0  0
   64.3001   33.0228   48.3295 H   0  0  0  0  0  0  0  0  0  0  0  0
   62.1206   32.5435   46.4483 H   0  0  0  0  0  0  0  0  0  0  0  0
   63.7309   31.7358   46.6092 H   0  0  0  0  0  0  0  0  0  0  0  0
   61.7258   29.7319   45.3467 H   0  0  0  0  0  0  0  0  0  0  0  0
   59.5403   28.8757   44.5143 H   0  0  0  0  0  0  0  0  0  0  0  0
   57.7849   32.5090   41.0026 H   0  0  0  0  0  0  0  0  0  0  0  0
   58.3622   33.6573   43.2993 H   0  0  0  0  0  0  0  0  0  0  0  0
   57.5122   31.3853   46.2124 H   0  0  0  0  0  0  0  0  0  0  0  0
   56.9575   34.4190   45.2182 H   0  0  0  0  0  0  0  0  0  0  0  0
   56.8078   34.3337   46.7645 H   0  0  0  0  0  0  0  0  0  0  0  0
   59.4657   33.6901   45.0355 H   0  0  0  0  0  0  0  0  0  0  0  0
   59.7518   33.4781   46.5503 H   0  0  0  0  0  0  0  0  0  0  0  0
   57.7023   29.8900   48.2964 H   0  0  0  0  0  0  0  0  0  0  0  0
   59.8915   30.7350   49.1354 H   0  0  0  0  0  0  0  0  0  0  0  0
  1  2  1  0
  2  3  1  0
  3  4  1  0
  4  5  1  0
  3  6  1  0
  6  7  1  0
  7  8  1  0
  8  9  1  0
  9 10  2  0
 10 11  1  0
 11 12  2  0
 12 13  1  0
 13 14  1  0
 14 15  2  0
 14 16  1  0
 16 17  1  0
 17 18  1  0
 18 19  2  0
 19 20  1  0
 20 21  1  0
 21 22  1  0
 22 23  1  0
 12 24  1  0
 24 25  2  0
 25  9  1  0
 20 16  2  0
 23 21  1  0
  1 26  1  0
  1 27  1  0
  1 28  1  0
  2 29  1  0
  2 30  1  0
  3 31  1  0
  4 32  1  0
  4 33  1  0
  5 34  1  0
  5 35  1  0
  5 36  1  0
  6 37  1  0
  6 38  1  0
  7 39  1  0
  7 40  1  0
 10 41  1  0
 11 42  1  0
 18 43  1  0
 19 44  1  0
 21 45  1  0
 22 46  1  0
 22 47  1  0
 23 48  1  0
 23 49  1  0
 24 50  1  0
 25 51  1  0
M  CHG  2   3   1  13  -1
M  END
>  <UniqueID>  (7) 
7

>  <SMILES>  (7) 
CC[NH+](CC)CCOc1ccc([N-]C(=O)c2sccc2C2CC2)cc1

>  <Energy>  (7) 
348.7604582821601

>  <Genealogy>  (7) 
CC[NH+](CC)CCOc1ccc([N-]C(=O)c2sccc2C2CC2)cc1 (protonated)
CC[NH+](CC)CCOc1ccc([N-]C(=O)c2sccc2C2CC2)cc1 (3D coordinates assigned)
CC[NH+](CC)CCOc1ccc([N-]C(=O)c2sccc2C2CC2)cc1 (nonaromatic ring conformer: 348.7604582821601 kcal/mol)

>  <smiles>  (7) 
CCN(CC)CCOc1ccc(NC(=O)c2sccc2C2CC2)cc1

>  <score_type>  (7) 
oracle

>  <origin>  (7) 
adg

>  <m_score__min__energy>  (7) 
-7.2800000000000002

>  <m_primary>  (7) 
energy

$$$$
7:0
     RDKit          3D

 46 49  0  0  0  0  0  0  0  0999 V2000
   62.6880   30.9076   50.0818 H   0  0  0  0  0  0  0  0  0  0  0  0
   61.8670   30.8650   49.3510 C   0  0  0  0  0  0  0  0  0  0  0  0
   61.5000   32.0160   48.6460 C   0  0  0  0  0  0  0  0  0  0  0  0
   62.0337   32.9614   48.8233 H   0  0  0  0  0  0  0  0  0  0  0  0
   60.4560   31.9680   47.7160 C   0  0  0  0  0  0  0  0  0  0  0  0
   60.1693   32.8752   47.1640 H   0  0  0  0  0  0  0  0  0  0  0  0
   59.7740   30.7620   47.4870 C   0  0  0  0  0  0  0  0  0  0  0  0
   60.1490   29.6060   48.2000 C   0  0  0  0  0  0  0  0  0  0  0  0
   59.4900   28.4410   47.9780 N   0  0  0  0  0  0  0  0  0  0  0  0
   58.4690   28.3600   47.0800 C   0  0  0  0  0  0  0  0  0  0  0  0
   57.7990   27.1430   46.8590 C   0  0  0  0  0  0  0  0  0  0  0  0
   58.1420   25.9610   47.5460 C   0  0  0  0  0  0  0  0  0  0  0  0
   58.9578   25.9722   48.2838 H   0  0  0  0  0  0  0  0  0  0  0  0
   57.4480   24.7750   47.2920 C   0  0  0  0  0  0  0  0  0  0  0  0
   57.7206   23.8552   47.8302 H   0  0  0  0  0  0  0  0  0  0  0  0
   56.4100   24.7520   46.3580 C   0  0  0  0  0  0  0  0  0  0  0  0
   55.8680   23.8150   46.1625 H   0  0  0  0  0  0  0  0  0  0  0  0
   56.0590   25.9160   45.6720 C   0  0  0  0  0  0  0  0  0  0  0  0
   55.2407   25.8942   44.9372 H   0  0  0  0  0  0  0  0  0  0  0  0
   56.7460   27.1110   45.9170 C   0  0  0  0  0  0  0  0  0  0  0  0
   56.4000   28.2380   45.2450 N   0  0  0  0  0  0  0  0  0  0  0  0
   57.0330   29.4300   45.4290 C   0  0  0  0  0  0  0  0  0  0  0  0
   56.6680   30.4800   44.7510 N   0  0  0  0  0  0  0  0  0  0  0  0
   57.5210   31.2470   43.8410 C   0  0  0  0  0  0  0  0  0  0  0  0
   57.2186   31.0379   42.8043 H   0  0  0  0  0  0  0  0  0  0  0  0
   58.5661   30.9476   44.0087 H   0  0  0  0  0  0  0  0  0  0  0  0
   57.4000   32.7540   44.1030 C   0  0  0  0  0  0  0  0  0  0  0  0
   56.7026   32.9103   44.9392 H   0  0  0  0  0  0  0  0  0  0  0  0
   57.0382   33.2228   43.1760 H   0  0  0  0  0  0  0  0  0  0  0  0
   58.7450   33.4080   44.4570 C   0  0  0  0  0  0  0  0  0  0  0  0
   58.8402   34.3566   43.9082 H   0  0  0  0  0  0  0  0  0  0  0  0
   59.5560   32.7199   44.1764 H   0  0  0  0  0  0  0  0  0  0  0  0
   58.8330   33.6770   45.9090 N   0  0  0  0  0  0  0  0  0  0  0  0
   59.5490   34.9390   46.1720 C   0  0  0  0  0  0  0  0  0  0  0  0
   59.6358   35.0919   47.2579 H   0  0  0  0  0  0  0  0  0  0  0  0
   60.5539   34.8900   45.7272 H   0  0  0  0  0  0  0  0  0  0  0  0
   58.9915   35.7764   45.7272 H   0  0  0  0  0  0  0  0  0  0  0  0
   57.4820   33.7540   46.4900 C   0  0  0  0  0  0  0  0  0  0  0  0
   57.5541   33.7499   47.5876 H   0  0  0  0  0  0  0  0  0  0  0  0
   56.9925   34.6815   46.1582 H   0  0  0  0  0  0  0  0  0  0  0  0
   56.8903   32.8881   46.1582 H   0  0  0  0  0  0  0  0  0  0  0  0
   58.0890   29.5180   46.3620 C   0  0  0  0  0  0  0  0  0  0  0  0
   58.7540   30.6920   46.5850 N   0  0  0  0  0  0  0  0  0  0  0  0
   58.4850   31.5570   46.0620 H   0  0  0  0  0  0  0  0  0  0  0  0
   61.1930   29.6610   49.1290 C   0  0  0  0  0  0  0  0  0  0  0  0
   61.4835   28.7572   49.6846 H   0  0  0  0  0  0  0  0  0  0  0  0
  1  2  1  0
  2  3  2  0
  3  4  1  0
  3  5  1  0
  5  6  1  0
  5  7  2  0
  7  8  1  0
  8  9  1  0
  9 10  2  0
 10 11  1  0
 11 12  2  0
 12 13  1  0
 12 14  1  0
 14 15  1  0
 14 16  2  0
 16 17  1  0
 16 18  1  0
 18 19  1  0
 18 20  2  0
 20 21  1  0
 21 22  1  0
 22 23  2  0
 23 24  1  0
 24 25  1  0
 24 26  1  0
 24 27  1  0
 27 28  1  0
 27 29  1  0
 27 30  1  0
 30 31  1  0
 30 32  1  0
 30 33  1  0
 33 34  1  0
 34 35  1  0
 34 36  1  0
 34 37  1  0
 33 38  1  0
 38 39  1  0
 38 40  1  0
 38 41  1  0
 22 42  1  0
 42 43  2  0
 43 44  1  0
  8 45  2  0
 45 46  1  0
 45  2  1  0
 43  7  1  0
 42 10  1  0
 20 11  1  0
M  CHG  2  21  -1  43   1
M  END
>  <UniqueID>  (8) 
8

>  <SMILES>  (8) 
CN(C)CCC/N=c1\[n-]c2ccccc2c2nc3ccccc3[nH+]c12

>  <Energy>  (8) 
59.11409507875424

>  <Genealogy>  (8) 
CN(C)CCCN=c1[n-]c2ccccc2c2nc3ccccc3[nH+]c12 (protonated)
CN(C)CCC/N=c1\[n-]c2ccccc2c2nc3ccccc3[nH+]c12 (cis-trans isomerization)
CN(C)CCC/N=c1\[n-]c2ccccc2c2nc3ccccc3[nH+]c12 (3D coordinates assigned)
CN(C)CCC/N=c1\[n-]c2ccccc2c2nc3ccccc3[nH+]c12 (optimized conformer: 59.11409507875424 kcal/mol)

>  <smiles>  (8) 
CN(C)CCCN=c1[nH]c2ccccc2c2nc3ccccc3nc12

>  <score_type>  (8) 
oracle

>  <origin>  (8) 
adg

>  <m_score__min__energy>  (8) 
-7.3799999999999999

>  <m_primary>  (8) 
energy

$$$$
8:0
     RDKit          3D

 54 56  0  0  0  0  0  0  0  0999 V2000
   63.2220   33.4850   46.7550 C   0  0  0  0  0  0  0  0  0  0  0  0
   61.9310   33.6840   47.5480 C   0  0  0  0  0  0  0  0  0  0  0  0
   60.6810   33.3450   46.7250 C   0  0  0  0  0  0  0  0  0  0  0  0
   60.2250   31.9300   46.9490 C   0  0  0  0  0  0  0  0  0  0  0  0
   60.9060   31.0330   47.7040 N   0  0  0  0  0  0  0  0  0  0  0  0
   60.2000   29.8910   47.5540 C   0  0  0  0  0  0  0  0  0  0  0  0
   60.5010   28.6700   48.1450 C   0  0  0  0  0  0  0  0  0  0  0  0
   59.6570   27.5850   47.8690 C   0  0  0  0  0  0  0  0  0  0  0  0
   58.5330   27.7340   47.0170 C   0  0  0  0  0  0  0  0  0  0  0  0
   57.6700   26.6130   46.7230 N   0  0  0  0  0  0  0  0  0  0  0  0
   56.8740   26.6200   45.4900 C   0  0  0  0  0  0  0  0  0  0  0  0
   56.2580   25.2420   45.2530 C   0  0  0  0  0  0  0  0  0  0  0  0
   55.5710   24.8370   46.4140 O   0  0  0  0  0  0  0  0  0  0  0  0
   56.4680   24.5460   47.4780 C   0  0  0  0  0  0  0  0  0  0  0  0
   57.7800   25.3710   47.5010 C   0  0  0  0  0  0  0  0  0  0  0  0
   58.2870   29.0020   46.4470 C   0  0  0  0  0  0  0  0  0  0  0  0
   59.1380   30.0200   46.7420 N   0  0  0  0  0  0  0  0  0  0  0  0
   59.1420   31.3030   46.3540 C   0  0  0  0  0  0  0  0  0  0  0  0
   58.2190   31.8840   45.4210 N   0  0  0  0  0  0  0  0  0  0  0  0
   57.4100   33.0370   45.8300 C   0  0  0  0  0  0  0  0  0  0  0  0
   57.6500   34.2160   44.8940 C   0  0  0  0  0  0  0  0  0  0  0  0
   58.0900   31.3080   44.0770 C   0  0  0  0  0  0  0  0  0  0  0  0
   56.6650   30.7970   43.8500 C   0  0  0  0  0  0  0  0  0  0  0  0
   56.6680   29.3660   43.3230 C   0  0  0  0  0  0  0  0  0  0  0  0
   64.0637   33.3553   47.4512 H   0  0  0  0  0  0  0  0  0  0  0  0
   63.1290   32.5906   46.1215 H   0  0  0  0  0  0  0  0  0  0  0  0
   63.4026   34.3659   46.1215 H   0  0  0  0  0  0  0  0  0  0  0  0
   61.9573   33.0336   48.4347 H   0  0  0  0  0  0  0  0  0  0  0  0
   61.8700   34.7458   47.8287 H   0  0  0  0  0  0  0  0  0  0  0  0
   59.8696   34.0294   47.0136 H   0  0  0  0  0  0  0  0  0  0  0  0
   60.9353   33.4552   45.6605 H   0  0  0  0  0  0  0  0  0  0  0  0
   61.3722   28.5584   48.8072 H   0  0  0  0  0  0  0  0  0  0  0  0
   59.8696   26.6043   48.3196 H   0  0  0  0  0  0  0  0  0  0  0  0
   56.0711   27.3665   45.5798 H   0  0  0  0  0  0  0  0  0  0  0  0
   57.5275   26.8722   44.6418 H   0  0  0  0  0  0  0  0  0  0  0  0
   55.5551   25.2933   44.4084 H   0  0  0  0  0  0  0  0  0  0  0  0
   57.0518   24.5168   45.0209 H   0  0  0  0  0  0  0  0  0  0  0  0
   55.9385   24.7282   48.4248 H   0  0  0  0  0  0  0  0  0  0  0  0
   56.7760   23.5003   47.3306 H   0  0  0  0  0  0  0  0  0  0  0  0
   58.0193   25.6265   48.5438 H   0  0  0  0  0  0  0  0  0  0  0  0
   58.5720   24.7576   47.0466 H   0  0  0  0  0  0  0  0  0  0  0  0
   57.4271   29.1623   45.7800 H   0  0  0  0  0  0  0  0  0  0  0  0
   56.3455   32.7614   45.7996 H   0  0  0  0  0  0  0  0  0  0  0  0
   57.6969   33.3289   46.8510 H   0  0  0  0  0  0  0  0  0  0  0  0
   57.8348   35.1236   45.4874 H   0  0  0  0  0  0  0  0  0  0  0  0
   58.5243   34.0084   44.2596 H   0  0  0  0  0  0  0  0  0  0  0  0
   56.7641   34.3667   44.2596 H   0  0  0  0  0  0  0  0  0  0  0  0
   58.3219   32.0797   43.3282 H   0  0  0  0  0  0  0  0  0  0  0  0
   58.7907   30.4655   43.9811 H   0  0  0  0  0  0  0  0  0  0  0  0
   56.1173   30.8268   44.8035 H   0  0  0  0  0  0  0  0  0  0  0  0
   56.1794   31.4417   43.1026 H   0  0  0  0  0  0  0  0  0  0  0  0
   56.6695   28.6635   44.1695 H   0  0  0  0  0  0  0  0  0  0  0  0
   55.7702   29.1992   42.7097 H   0  0  0  0  0  0  0  0  0  0  0  0
   57.5665   29.2030   42.7097 H   0  0  0  0  0  0  0  0  0  0  0  0
  1  2  1  0
  2  3  1  0
  3  4  1  0
  4  5  1  0
  5  6  2  0
  6  7  1  0
  7  8  2  0
  8  9  1  0
  9 10  1  0
 10 11  1  0
 11 12  1  0
 12 13  1  0
 13 14  1  0
 14 15  1  0
  9 16  2  0
 16 17  1  0
 17 18  1  0
 18 19  1  0
 19 20  1  0
 20 21  1  0
 19 22  1  0
 22 23  1  0
 23 24  1  0
 18  4  2  0
 17  6  1  0
 15 10  1  0
  1 25  1  0
  1 26  1  0
  1 27  1  0
  2 28  1  0
  2 29  1  0
  3 30  1  0
  3 31  1  0
  7 32  1  0
  8 33  1  0
 11 34  1  0
 11 35  1  0
 12 36  1  0
 12 37  1  0
 14 38  1  0
 14 39  1  0
 15 40  1  0
 15 41  1  0
 16 42  1  0
 20 43  1  0
 20 44  1  0
 21 45  1  0
 21 46  1  0
 21 47  1  0
 22 48  1  0
 22 49  1  0
 23 50  1  0
 23 51  1  0
 24 52  1  0
 24 53  1  0
 24 54  1  0
M  END
>  <UniqueID>  (9) 
9

>  <SMILES>  (9) 
CCCc1nc2ccc(N3CCOCC3)cn2c1N(CC)CCC

>  <Energy>  (9) 
88.81559518933035

>  <Genealogy>  (9) 
CCCc1nc2ccc(N3CCOCC3)cn2c1N(CC)CCC (3D coordinates assigned)
CCCc1nc2ccc(N3CCOCC3)cn2c1N(CC)CCC (nonaromatic ring conformer: 88.81559518933035 kcal/mol)

>  <smiles>  (9) 
CCCc1nc2ccc(N3CCOCC3)cn2c1N(CC)CCC

>  <score_type>  (9) 
oracle

>  <origin>  (9) 
adg

>  <m_score__min__energy>  (9) 
-7.0599999999999996

>  <m_primary>  (9) 
energy

$$$$
9:0
     RDKit          3D

 64 67  0  0  0  0  0  0  0  0999 V2000
   63.0240   33.8150   46.6980 C   0  0  0  0  0  0  0  0  0  0  0  0
   63.7330   32.6190   47.3260 C   0  0  0  0  0  0  0  0  0  0  0  0
   63.1470   32.2760   48.5820 O   0  0  0  0  0  0  0  0  0  0  0  0
   62.2370   31.2290   48.8030 C   0  0  0  0  0  0  0  0  0  0  0  0
   62.2450   30.6080   50.0570 C   0  0  0  0  0  0  0  0  0  0  0  0
   61.3800   29.5480   50.3290 C   0  0  0  0  0  0  0  0  0  0  0  0
   60.4930   29.0970   49.3530 C   0  0  0  0  0  0  0  0  0  0  0  0
   60.4620   29.7070   48.0890 C   0  0  0  0  0  0  0  0  0  0  0  0
   59.5440   29.2140   47.0430 C   0  0  0  0  0  0  0  0  0  0  0  0
   58.4790   29.9100   46.5920 N   0  0  0  0  0  0  0  0  0  0  0  0
   57.9260   29.0780   45.6890 C   0  0  0  0  0  0  0  0  0  0  0  0
   56.6770   29.3780   44.9220 C   0  0  0  0  0  0  0  0  0  0  0  0
   56.6440   30.7940   44.5240 N   0  0  0  0  0  0  0  0  0  0  0  0
   57.9700   31.2660   44.1040 C   0  0  0  0  0  0  0  0  0  0  0  0
   57.8820   32.6000   43.3390 C   0  0  0  0  0  0  0  0  0  0  0  0
   57.9970   33.8150   44.1740 N   0  0  0  0  0  0  0  0  0  0  0  0
   56.9780   34.0880   45.1830 C   0  0  0  0  0  0  0  0  0  0  0  0
   57.3430   33.4900   46.5330 C   0  0  0  0  0  0  0  0  0  0  0  0
   58.7580   33.6680   46.9070 N   0  0  0  0  0  0  0  0  0  0  0  0
   59.1490   33.3680   48.2810 C   0  0  0  0  0  0  0  0  0  0  0  0
   58.5140   32.3450   49.0220 C   0  0  0  0  0  0  0  0  0  0  0  0
   58.8870   32.0780   50.3430 C   0  0  0  0  0  0  0  0  0  0  0  0
   59.8940   32.8170   50.9650 C   0  0  0  0  0  0  0  0  0  0  0  0
   60.2150   32.5200   52.2970 O   0  0  0  0  0  0  0  0  0  0  0  0
   61.4950   32.7360   52.8830 C   0  0  0  0  0  0  0  0  0  0  0  0
   60.5420   33.8300   50.2410 C   0  0  0  0  0  0  0  0  0  0  0  0
   60.1780   34.0990   48.9190 C   0  0  0  0  0  0  0  0  0  0  0  0
   59.8170   33.9410   45.9070 C   0  0  0  0  0  0  0  0  0  0  0  0
   59.3260   34.3310   44.5000 C   0  0  0  0  0  0  0  0  0  0  0  0
   58.6660   27.9190   45.6190 C   0  0  0  0  0  0  0  0  0  0  0  0
   59.6600   28.0380   46.4640 O   0  0  0  0  0  0  0  0  0  0  0  0
   61.3350   30.7760   47.8190 C   0  0  0  0  0  0  0  0  0  0  0  0
   62.6359   34.4697   47.4922 H   0  0  0  0  0  0  0  0  0  0  0  0
   63.7350   34.3768   46.0745 H   0  0  0  0  0  0  0  0  0  0  0  0
   62.1899   33.4608   46.0745 H   0  0  0  0  0  0  0  0  0  0  0  0
   63.6555   31.7577   46.6462 H   0  0  0  0  0  0  0  0  0  0  0  0
   64.7870   32.8857   47.4932 H   0  0  0  0  0  0  0  0  0  0  0  0
   62.9393   30.9587   50.8348 H   0  0  0  0  0  0  0  0  0  0  0  0
   61.3980   29.0661   51.3177 H   0  0  0  0  0  0  0  0  0  0  0  0
   59.8146   28.2598   49.5740 H   0  0  0  0  0  0  0  0  0  0  0  0
   56.6455   28.7479   44.0209 H   0  0  0  0  0  0  0  0  0  0  0  0
   55.8075   29.1682   45.5622 H   0  0  0  0  0  0  0  0  0  0  0  0
   56.0050   30.8680   43.6970 H   0  0  0  0  0  0  0  0  0  0  0  0
   58.5976   31.4071   44.9963 H   0  0  0  0  0  0  0  0  0  0  0  0
   58.4059   30.5124   43.4317 H   0  0  0  0  0  0  0  0  0  0  0  0
   58.6929   32.6200   42.5960 H   0  0  0  0  0  0  0  0  0  0  0  0
   56.8765   32.6302   42.8941 H   0  0  0  0  0  0  0  0  0  0  0  0
   56.8699   35.1771   45.2938 H   0  0  0  0  0  0  0  0  0  0  0  0
   56.0359   33.6282   44.8496 H   0  0  0  0  0  0  0  0  0  0  0  0
   56.7194   33.9682   47.3027 H   0  0  0  0  0  0  0  0  0  0  0  0
   57.1684   32.4065   46.4578 H   0  0  0  0  0  0  0  0  0  0  0  0
   57.7157   31.7510   48.5530 H   0  0  0  0  0  0  0  0  0  0  0  0
   58.3802   31.2753   50.8988 H   0  0  0  0  0  0  0  0  0  0  0  0
   61.4038   32.7206   53.9791 H   0  0  0  0  0  0  0  0  0  0  0  0
   62.1844   31.9415   52.5612 H   0  0  0  0  0  0  0  0  0  0  0  0
   61.8855   33.7127   52.5612 H   0  0  0  0  0  0  0  0  0  0  0  0
   61.3417   34.4160   50.7175 H   0  0  0  0  0  0  0  0  0  0  0  0
   60.7006   34.8928   48.3651 H   0  0  0  0  0  0  0  0  0  0  0  0
   60.4371   34.7655   46.2886 H   0  0  0  0  0  0  0  0  0  0  0  0
   60.3609   32.9931   45.7815 H   0  0  0  0  0  0  0  0  0  0  0  0
   59.2974   35.4287   44.4347 H   0  0  0  0  0  0  0  0  0  0  0  0
   60.0282   33.8843   43.7807 H   0  0  0  0  0  0  0  0  0  0  0  0
   58.4605   27.0529   44.9728 H   0  0  0  0  0  0  0  0  0  0  0  0
   61.3138   31.2623   46.8326 H   0  0  0  0  0  0  0  0  0  0  0  0
  1  2  1  0
  2  3  1  0
  3  4  1  0
  4  5  2  0
  5  6  1  0
  6  7  2  0
  7  8  1  0
  8  9  1  0
  9 10  2  0
 10 11  1  0
 11 12  1  0
 12 13  1  0
 13 14  1  0
 14 15  1  0
 15 16  1  0
 16 17  1  0
 17 18  1  0
 18 19  1  0
 19 20  1  0
 20 21  2  0
 21 22  1  0
 22 23  2  0
 23 24  1  0
 24 25  1  0
 23 26  1  0
 26 27  2  0
 19 28  1  0
 28 29  1  0
 11 30  2  0
 30 31  1  0
  8 32  2  0
 32  4  1  0
 31  9  1  0
 29 16  1  0
 27 20  1  0
  1 33  1  0
  1 34  1  0
  1 35  1  0
  2 36  1  0
  2 37  1  0
  5 38  1  0
  6 39  1  0
  7 40  1  0
 12 41  1  0
 12 42  1  0
 13 43  1  0
 14 44  1  0
 14 45  1  0
 15 46  1  0
 15 47  1  0
 17 48  1  0
 17 49  1  0
 18 50  1  0
 18 51  1  0
 21 52  1  0
 22 53  1  0
 25 54  1  0
 25 55  1  0
 25 56  1  0
 26 57  1  0
 27 58  1  0
 28 59  1  0
 28 60  1  0
 29 61  1  0
 29 62  1  0
 30 63  1  0
 32 64  1  0
M  END
>  <UniqueID>  (10) 
10

>  <SMILES>  (10) 
CCOc1cccc(-c2nc(CNCCN3CCN(c4ccc(OC)cc4)CC3)co2)c1

>  <Energy>  (10) 
103.91298351193828

>  <Genealogy>  (10) 
CCOc1cccc(-c2nc(CNCCN3CCN(c4ccc(OC)cc4)CC3)co2)c1 (3D coordinates assigned)
CCOc1cccc(-c2nc(CNCCN3CCN(c4ccc(OC)cc4)CC3)co2)c1 (nonaromatic ring conformer: 103.91298351193828 kcal/mol)

>  <smiles>  (10) 
CCOc1cccc(-c2nc(CNCCN3CCN(c4ccc(OC)cc4)CC3)co2)c1

>  <score_type>  (10) 
oracle

>  <origin>  (10) 
adg

>  <m_score__min__energy>  (10) 
-7.9299999999999997

>  <m_primary>  (10) 
energy

$$$$
10:0
     RDKit          3D

 51 55  0  0  0  0  0  0  0  0999 V2000
   61.8030   30.8710   47.0210 O   0  0  0  0  0  0  0  0  0  0  0  0
   61.1970   30.7120   48.1170 C   0  0  0  0  0  0  0  0  0  0  0  0
   61.8360   31.0640   49.3260 C   0  0  0  0  0  0  0  0  0  0  0  0
   63.2580   31.5950   49.3550 C   0  0  0  0  0  0  0  0  0  0  0  0
   63.3950   33.0690   49.1880 N   0  0  1  0  0  0  0  0  0  0  0  0
   64.0350   33.5060   47.9250 C   0  0  0  0  0  0  0  0  0  0  0  0
   63.0910   33.5810   46.7060 C   0  0  0  0  0  0  0  0  0  0  0  0
   61.6400   33.7900   47.0390 C   0  0  0  0  0  0  0  0  0  0  0  0
   60.7020   33.8410   45.9940 C   0  0  0  0  0  0  0  0  0  0  0  0
   59.3440   34.0140   46.2700 C   0  0  0  0  0  0  0  0  0  0  0  0
   58.9090   34.1430   47.5890 C   0  0  0  0  0  0  0  0  0  0  0  0
   59.8320   34.0950   48.6360 C   0  0  0  0  0  0  0  0  0  0  0  0
   61.1980   33.8960   48.3710 C   0  0  0  0  0  0  0  0  0  0  0  0
   62.1800   33.8490   49.5080 C   0  0  0  0  0  0  0  0  0  0  0  0
   61.1080   30.9680   50.5190 C   0  0  0  0  0  0  0  0  0  0  0  0
   59.8190   30.4450   50.5130 C   0  0  0  0  0  0  0  0  0  0  0  0
   59.2490   30.0410   49.3090 C   0  0  0  0  0  0  0  0  0  0  0  0
   59.9280   30.1840   48.1320 N   0  0  0  0  0  0  0  0  0  0  0  0
   59.2980   29.7500   46.9100 C   0  0  0  0  0  0  0  0  0  0  0  0
   59.8380   28.6760   46.1790 C   0  0  0  0  0  0  0  0  0  0  0  0
   59.2450   28.2670   44.9810 C   0  0  0  0  0  0  0  0  0  0  0  0
   58.1070   28.9240   44.5080 C   0  0  0  0  0  0  0  0  0  0  0  0
   57.5400   29.9690   45.2500 C   0  0  0  0  0  0  0  0  0  0  0  0
   58.1390   30.3910   46.4390 C   0  0  0  0  0  0  0  0  0  0  0  0
   56.3720   30.5790   44.7810 O   0  0  0  0  0  0  0  0  0  0  0  0
   55.6040   29.9920   43.7280 C   0  0  0  0  0  0  0  0  0  0  0  0
   56.5320   29.3800   42.6710 C   0  0  0  0  0  0  0  0  0  0  0  0
   57.5160   28.5530   43.2960 O   0  0  0  0  0  0  0  0  0  0  0  0
   63.7026   31.3207   50.3230 H   0  0  0  0  0  0  0  0  0  0  0  0
   63.7667   31.1442   48.4901 H   0  0  0  0  0  0  0  0  0  0  0  0
   64.0810   33.3350   49.9350 H   0  0  0  0  0  0  0  0  0  0  0  0
   64.4622   34.5065   48.0876 H   0  0  0  0  0  0  0  0  0  0  0  0
   64.7890   32.7426   47.6828 H   0  0  0  0  0  0  0  0  0  0  0  0
   63.4193   34.4169   46.0709 H   0  0  0  0  0  0  0  0  0  0  0  0
   63.1544   32.6028   46.2070 H   0  0  0  0  0  0  0  0  0  0  0  0
   61.0396   33.7440   44.9516 H   0  0  0  0  0  0  0  0  0  0  0  0
   58.6162   34.0486   45.4459 H   0  0  0  0  0  0  0  0  0  0  0  0
   57.8394   34.2825   47.8044 H   0  0  0  0  0  0  0  0  0  0  0  0
   59.4880   34.2136   49.6741 H   0  0  0  0  0  0  0  0  0  0  0  0
   62.4790   34.8781   49.7562 H   0  0  0  0  0  0  0  0  0  0  0  0
   61.6821   33.3518   50.3535 H   0  0  0  0  0  0  0  0  0  0  0  0
   61.5573   31.3074   51.4640 H   0  0  0  0  0  0  0  0  0  0  0  0
   59.2545   30.3514   51.4524 H   0  0  0  0  0  0  0  0  0  0  0  0
   58.2405   29.6017   49.3051 H   0  0  0  0  0  0  0  0  0  0  0  0
   60.7320   28.1551   46.5523 H   0  0  0  0  0  0  0  0  0  0  0  0
   59.6740   27.4291   44.4118 H   0  0  0  0  0  0  0  0  0  0  0  0
   57.7034   31.2259   47.0075 H   0  0  0  0  0  0  0  0  0  0  0  0
   54.9590   29.2043   44.1447 H   0  0  0  0  0  0  0  0  0  0  0  0
   54.9885   30.7719   43.2559 H   0  0  0  0  0  0  0  0  0  0  0  0
   55.9369   28.7724   41.9734 H   0  0  0  0  0  0  0  0  0  0  0  0
   57.0384   30.1904   42.1262 H   0  0  0  0  0  0  0  0  0  0  0  0
  1  2  2  0
  2  3  1  0
  3  4  1  0
  4  5  1  0
  5  6  1  0
  6  7  1  0
  7  8  1  0
  8  9  2  0
  9 10  1  0
 10 11  2  0
 11 12  1  0
 12 13  2  0
 13 14  1  0
  3 15  2  0
 15 16  1  0
 16 17  2  0
 17 18  1  0
 18 19  1  0
 19 20  2  0
 20 21  1  0
 21 22  2  0
 22 23  1  0
 23 24  2  0
 23 25  1  0
 25 26  1  0
 26 27  1  0
 27 28  1  0
 18  2  1  0
 24 19  1  0
 14  5  1  0
 28 22  1  0
 13  8  1  0
  4 29  1  0
  4 30  1  0
  5 31  1  1
  6 32  1  0
  6 33  1  0
  7 34  1  0
  7 35  1  0
  9 36  1  0
 10 37  1  0
 11 38  1  0
 12 39  1  0
 14 40  1  0
 14 41  1  0
 15 42  1  0
 16 43  1  0
 17 44  1  0
 20 45  1  0
 21 46  1  0
 24 47  1  0
 26 48  1  0
 26 49  1  0
 27 50  1  0
 27 51  1  0
M  CHG  1   5   1
M  END
>  <UniqueID>  (11) 
11

>  <SMILES>  (11) 
O=c1c(C[N@H+]2CCc3ccccc3C2)cccn1-c1ccc2c(c1)OCCO2

>  <Energy>  (11) 
76.63233506221884

>  <Genealogy>  (11) 
O=c1c(C[NH+]2CCc3ccccc3C2)cccn1-c1ccc2c(c1)OCCO2 (protonated)
O=c1c(C[N@H+]2CCc3ccccc3C2)cccn1-c1ccc2c(c1)OCCO2 (chirality)
O=c1c(C[N@H+]2CCc3ccccc3C2)cccn1-c1ccc2c(c1)OCCO2 (3D coordinates assigned)
O=c1c(C[N@H+]2CCc3ccccc3C2)cccn1-c1ccc2c(c1)OCCO2 (nonaromatic ring conformer: 76.63233506221884 kcal/mol)

>  <smiles>  (11) 
O=c1c(CN2CCc3ccccc3C2)cccn1-c1ccc2c(c1)OCCO2

>  <score_type>  (11) 
oracle

>  <origin>  (11) 
adg

>  <m_score__min__energy>  (11) 
-6.9900000000000002

>  <m_primary>  (11) 
energy

$$$$
11:0
     RDKit          3D

 47 49  0  0  0  0  0  0  0  0999 V2000
   55.7030   25.1060   45.6510 C   0  0  0  0  0  0  0  0  0  0  0  0
   55.6500   26.4840   46.0000 O   0  0  0  0  0  0  0  0  0  0  0  0
   56.7330   27.3830   46.0180 C   0  0  0  0  0  0  0  0  0  0  0  0
   57.9040   26.9420   46.6480 C   0  0  0  0  0  0  0  0  0  0  0  0
   59.0310   27.7590   46.7240 C   0  0  0  0  0  0  0  0  0  0  0  0
   59.0060   29.0470   46.1770 C   0  0  0  0  0  0  0  0  0  0  0  0
   60.2340   29.9150   46.2270 C   0  0  0  0  0  0  0  0  0  0  0  0
   60.6740   30.0690   47.6190 N   0  0  0  0  0  0  0  0  0  0  0  0
   61.9220   30.8460   47.7260 C   0  0  0  0  0  0  0  0  0  0  0  0
   62.1320   31.4740   49.1200 C   0  0  0  0  0  0  0  0  0  0  0  0
   61.6960   32.9440   49.1780 C   0  0  0  0  0  0  0  0  0  0  0  0
   60.6630   33.1960   48.1770 N   0  0  0  0  0  0  0  0  0  0  0  0
   60.8440   33.9350   47.0860 N   0  0  0  0  0  0  0  0  0  0  0  0
   59.6390   33.9730   46.4770 C   0  0  0  0  0  0  0  0  0  0  0  0
   59.3220   34.6300   45.2930 C   0  0  0  0  0  0  0  0  0  0  0  0
   57.9930   34.5500   44.8420 C   0  0  0  0  0  0  0  0  0  0  0  0
   57.0310   33.8270   45.5790 C   0  0  0  0  0  0  0  0  0  0  0  0
   57.4080   33.1860   46.7690 C   0  0  0  0  0  0  0  0  0  0  0  0
   58.7030   33.2910   47.1600 N   0  0  0  0  0  0  0  0  0  0  0  0
   59.3670   32.8190   48.2230 C   0  0  0  0  0  0  0  0  0  0  0  0
   58.8520   32.1290   49.1430 O   0  0  0  0  0  0  0  0  0  0  0  0
   57.8490   29.4960   45.5270 C   0  0  0  0  0  0  0  0  0  0  0  0
   56.7010   28.6790   45.4400 C   0  0  0  0  0  0  0  0  0  0  0  0
   55.5410   29.1320   44.7910 O   0  0  0  0  0  0  0  0  0  0  0  0
   55.5150   29.7960   43.5320 C   0  0  0  0  0  0  0  0  0  0  0  0
   55.7264   24.4966   46.5664 H   0  0  0  0  0  0  0  0  0  0  0  0
   54.8143   24.8434   45.0583 H   0  0  0  0  0  0  0  0  0  0  0  0
   56.6093   24.9124   45.0583 H   0  0  0  0  0  0  0  0  0  0  0  0
   57.9347   25.9351   47.0897 H   0  0  0  0  0  0  0  0  0  0  0  0
   59.9432   27.3900   47.2157 H   0  0  0  0  0  0  0  0  0  0  0  0
   61.0372   29.4466   45.6392 H   0  0  0  0  0  0  0  0  0  0  0  0
   59.9985   30.9042   45.8076 H   0  0  0  0  0  0  0  0  0  0  0  0
   59.9120   30.5270   48.1700 H   0  0  0  0  0  0  0  0  0  0  0  0
   62.7690   30.1773   47.5130 H   0  0  0  0  0  0  0  0  0  0  0  0
   61.8545   31.6723   47.0030 H   0  0  0  0  0  0  0  0  0  0  0  0
   61.5454   30.9035   49.8552 H   0  0  0  0  0  0  0  0  0  0  0  0
   63.2086   31.4373   49.3426 H   0  0  0  0  0  0  0  0  0  0  0  0
   61.2965   33.1667   50.1784 H   0  0  0  0  0  0  0  0  0  0  0  0
   62.5641   33.5876   48.9725 H   0  0  0  0  0  0  0  0  0  0  0  0
   60.0827   35.1912   44.7305 H   0  0  0  0  0  0  0  0  0  0  0  0
   57.7011   35.0541   43.9089 H   0  0  0  0  0  0  0  0  0  0  0  0
   55.9920   33.7663   45.2229 H   0  0  0  0  0  0  0  0  0  0  0  0
   56.6784   32.6177   47.3646 H   0  0  0  0  0  0  0  0  0  0  0  0
   57.8349   30.5000   45.0778 H   0  0  0  0  0  0  0  0  0  0  0  0
   55.4724   30.8835   43.6918 H   0  0  0  0  0  0  0  0  0  0  0  0
   56.4237   29.5439   42.9657 H   0  0  0  0  0  0  0  0  0  0  0  0
   54.6288   29.4736   42.9657 H   0  0  0  0  0  0  0  0  0  0  0  0
  1  2  1  0
  2  3  1  0
  3  4  2  0
  4  5  1  0
  5  6  2  0
  6  7  1  0
  7  8  1  0
  8  9  1  0
  9 10  1  0
 10 11  1  0
 11 12  1  0
 12 13  1  0
 13 14  2  0
 14 15  1  0
 15 16  2  0
 16 17  1  0
 17 18  2  0
 18 19  1  0
 19 20  1  0
 20 21  2  0
  6 22  1  0
 22 23  2  0
 23 24  1  0
 24 25  1  0
 23  3  1  0
 20 12  1  0
 19 14  1  0
  1 26  1  0
  1 27  1  0
  1 28  1  0
  4 29  1  0
  5 30  1  0
  7 31  1  0
  7 32  1  0
  8 33  1  0
  9 34  1  0
  9 35  1  0
 10 36  1  0
 10 37  1  0
 11 38  1  0
 11 39  1  0
 15 40  1  0
 16 41  1  0
 17 42  1  0
 18 43  1  0
 22 44  1  0
 25 45  1  0
 25 46  1  0
 25 47  1  0
M  END
>  <UniqueID>  (12) 
12

>  <SMILES>  (12) 
COc1ccc(CNCCCn2nc3ccccn3c2=O)cc1OC

>  <Energy>  (12) 
91.27158827123353

>  <Genealogy>  (12) 
COc1ccc(CNCCCn2nc3ccccn3c2=O)cc1OC (3D coordinates assigned)
COc1ccc(CNCCCn2nc3ccccn3c2=O)cc1OC (optimized conformer: 91.27158827123353 kcal/mol)

>  <smiles>  (12) 
COc1ccc(CNCCCn2nc3ccccn3c2=O)cc1OC

>  <score_type>  (12) 
oracle

>  <origin>  (12) 
adg

>  <m_score__min__energy>  (12) 
-7.5300000000000002

>  <m_primary>  (12) 
energy

$$$$
12:0
     RDKit          3D

 60 64  0  0  0  0  0  0  0  0999 V2000
   59.9750   22.2020   44.8730 C   0  0  0  0  0  0  0  0  0  0  0  0
   58.6050   22.3930   44.4030 N   0  0  0  0  0  0  0  0  0  0  0  0
   57.9130   21.5000   43.6680 C   0  0  0  0  0  0  0  0  0  0  0  0
   56.6340   21.9650   43.4390 C   0  0  0  0  0  0  0  0  0  0  0  0
   56.5440   23.1960   44.0560 C   0  0  0  0  0  0  0  0  0  0  0  0
   57.7800   23.4450   44.6250 C   0  0  0  0  0  0  0  0  0  0  0  0
   58.1040   24.6630   45.3960 C   0  0  0  0  0  0  0  0  0  0  0  0
   57.1010   25.5230   45.8680 C   0  0  0  0  0  0  0  0  0  0  0  0
   57.4550   26.6510   46.6100 C   0  0  0  0  0  0  0  0  0  0  0  0
   58.8020   26.9140   46.8930 C   0  0  0  0  0  0  0  0  0  0  0  0
   59.1850   28.1040   47.6760 C   0  0  0  0  0  0  0  0  0  0  0  0
   59.0060   29.3770   47.2620 N   0  0  0  0  0  0  0  0  0  0  0  0
   59.4990   30.0840   48.3030 C   0  0  0  0  0  0  0  0  0  0  0  0
   59.5370   31.5670   48.3410 C   0  0  0  0  0  0  0  0  0  0  0  0
   59.9830   32.2240   49.5020 C   0  0  0  0  0  0  0  0  0  0  0  0
   60.0240   33.6180   49.5580 C   0  0  0  0  0  0  0  0  0  0  0  0
   59.6240   34.3770   48.4580 C   0  0  0  0  0  0  0  0  0  0  0  0
   59.1810   33.7440   47.2880 C   0  0  0  0  0  0  0  0  0  0  0  0
   58.7280   34.5620   46.1050 C   0  0  0  0  0  0  0  0  0  0  0  0
   58.8450   33.7870   44.7810 C   0  0  0  0  0  0  0  0  0  0  0  0
   57.7010   32.7840   44.5540 C   0  0  0  0  0  0  0  0  0  0  0  0
   58.1320   31.6730   43.6720 N   0  0  0  0  0  0  0  0  0  0  0  0
   58.7010   30.5330   44.4300 C   0  0  0  0  0  0  0  0  0  0  0  0
   57.6460   29.4570   44.7630 C   0  0  0  0  0  0  0  0  0  0  0  0
   56.3600   30.0340   44.8390 O   0  0  0  0  0  0  0  0  0  0  0  0
   55.9430   30.4650   43.5550 C   0  0  0  0  0  0  0  0  0  0  0  0
   57.0460   31.2230   42.7790 C   0  0  0  0  0  0  0  0  0  0  0  0
   59.1370   32.3400   47.2350 C   0  0  0  0  0  0  0  0  0  0  0  0
   59.9460   29.2690   49.2790 N   0  0  0  0  0  0  0  0  0  0  0  0
   59.7390   28.0590   48.8650 O   0  0  0  0  0  0  0  0  0  0  0  0
   59.7730   26.0170   46.4230 C   0  0  0  0  0  0  0  0  0  0  0  0
   59.4040   24.9260   45.7010 N   0  0  0  0  0  0  0  0  0  0  0  0
   59.9884   22.2001   45.9729 H   0  0  0  0  0  0  0  0  0  0  0  0
   60.3601   21.2415   44.5000 H   0  0  0  0  0  0  0  0  0  0  0  0
   60.6081   23.0206   44.5000 H   0  0  0  0  0  0  0  0  0  0  0  0
   58.3097   20.5408   43.3039 H   0  0  0  0  0  0  0  0  0  0  0  0
   55.8405   21.4537   42.8743 H   0  0  0  0  0  0  0  0  0  0  0  0
   55.6613   23.8516   44.0889 H   0  0  0  0  0  0  0  0  0  0  0  0
   56.0431   25.3098   45.6548 H   0  0  0  0  0  0  0  0  0  0  0  0
   56.6744   27.3354   46.9736 H   0  0  0  0  0  0  0  0  0  0  0  0
   60.3023   31.6339   50.3736 H   0  0  0  0  0  0  0  0  0  0  0  0
   60.3729   34.1198   50.4726 H   0  0  0  0  0  0  0  0  0  0  0  0
   59.6562   35.4754   48.5087 H   0  0  0  0  0  0  0  0  0  0  0  0
   57.6769   34.8494   46.2551 H   0  0  0  0  0  0  0  0  0  0  0  0
   59.3798   35.4455   46.0369 H   0  0  0  0  0  0  0  0  0  0  0  0
   58.8431   34.5107   43.9526 H   0  0  0  0  0  0  0  0  0  0  0  0
   59.7790   33.2077   44.8266 H   0  0  0  0  0  0  0  0  0  0  0  0
   57.3872   32.3714   45.5242 H   0  0  0  0  0  0  0  0  0  0  0  0
   56.8657   33.3107   44.0694 H   0  0  0  0  0  0  0  0  0  0  0  0
   59.4972   30.0714   43.8274 H   0  0  0  0  0  0  0  0  0  0  0  0
   59.0888   30.9256   45.3816 H   0  0  0  0  0  0  0  0  0  0  0  0
   57.6521   28.6881   43.9764 H   0  0  0  0  0  0  0  0  0  0  0  0
   57.8921   29.0057   45.7355 H   0  0  0  0  0  0  0  0  0  0  0  0
   55.6468   29.5825   42.9690 H   0  0  0  0  0  0  0  0  0  0  0  0
   55.1062   31.1640   43.7004 H   0  0  0  0  0  0  0  0  0  0  0  0
   57.4676   30.5540   42.0144 H   0  0  0  0  0  0  0  0  0  0  0  0
   56.5911   32.1121   42.3180 H   0  0  0  0  0  0  0  0  0  0  0  0
   58.7864   31.8404   46.3198 H   0  0  0  0  0  0  0  0  0  0  0  0
   60.3870   29.5170   50.1920 H   0  0  0  0  0  0  0  0  0  0  0  0
   60.8363   26.1972   46.6395 H   0  0  0  0  0  0  0  0  0  0  0  0
  1  2  1  0
  2  3  1  0
  3  4  2  0
  4  5  1  0
  5  6  2  0
  6  7  1  0
  7  8  2  0
  8  9  1  0
  9 10  2  0
 10 11  1  0
 11 12  2  0
 12 13  1  0
 13 14  1  0
 14 15  2  0
 15 16  1  0
 16 17  2  0
 17 18  1  0
 18 19  1  0
 19 20  1  0
 20 21  1  0
 21 22  1  0
 22 23  1  0
 23 24  1  0
 24 25  1  0
 25 26  1  0
 26 27  1  0
 18 28  2  0
 13 29  2  0
 29 30  1  0
 10 31  1  0
 31 32  2  0
  6  2  1  0
 32  7  1  0
 30 11  1  0
 28 14  1  0
 27 22  1  0
  1 33  1  0
  1 34  1  0
  1 35  1  0
  3 36  1  0
  4 37  1  0
  5 38  1  0
  8 39  1  0
  9 40  1  0
 15 41  1  0
 16 42  1  0
 17 43  1  0
 19 44  1  0
 19 45  1  0
 20 46  1  0
 20 47  1  0
 21 48  1  0
 21 49  1  0
 23 50  1  0
 23 51  1  0
 24 52  1  0
 24 53  1  0
 26 54  1  0
 26 55  1  0
 27 56  1  0
 27 57  1  0
 28 58  1  0
 29 59  1  0
 31 60  1  0
M  CHG  1  29   1
M  END
>  <UniqueID>  (13) 
13

>  <SMILES>  (13) 
Cn1cccc1-c1ccc(-c2nc(-c3cccc(CCCN4CCOCC4)c3)[nH+]o2)cn1

>  <Energy>  (13) 
138.88495991218042

>  <Genealogy>  (13) 
Cn1cccc1-c1ccc(-c2nc(-c3cccc(CCCN4CCOCC4)c3)[nH+]o2)cn1 (protonated)
Cn1cccc1-c1ccc(-c2nc(-c3cccc(CCCN4CCOCC4)c3)[nH+]o2)cn1 (3D coordinates assigned)
Cn1cccc1-c1ccc(-c2nc(-c3cccc(CCCN4CCOCC4)c3)[nH+]o2)cn1 (nonaromatic ring conformer: 138.88495991218042 kcal/mol)

>  <smiles>  (13) 
Cn1cccc1-c1ccc(-c2nc(-c3cccc(CCCN4CCOCC4)c3)no2)cn1

>  <score_type>  (13) 
oracle

>  <origin>  (13) 
adg

>  <m_score__min__energy>  (13) 
-8.1400000000000006

>  <m_primary>  (13) 
energy

$$$$
13:0
     RDKit          3D

 48 50  0  0  0  0  0  0  0  0999 V2000
   52.6900   31.1450   51.2130 C   0  0  0  0  0  0  0  0  0  0  0  0
   53.7420   30.1210   51.6270 C   0  0  0  0  0  0  0  0  0  0  0  0
   55.0190   30.8100   52.1260 C   0  0  0  0  0  0  0  0  0  0  0  0
   56.0160   29.8010   52.7090 C   0  0  0  0  0  0  0  0  0  0  0  0
   57.1090   29.5800   51.8170 O   0  0  0  0  0  0  0  0  0  0  0  0
   57.8440   30.6110   51.2200 C   0  0  0  0  0  0  0  0  0  0  0  0
   58.5930   30.3410   50.0740 C   0  0  0  0  0  0  0  0  0  0  0  0
   59.3240   31.3670   49.4740 C   0  0  0  0  0  0  0  0  0  0  0  0
   59.2930   32.6630   50.0100 C   0  0  0  0  0  0  0  0  0  0  0  0
   60.0430   33.7630   49.3560 C   0  0  0  0  0  0  0  0  0  0  0  0
   59.6210   34.9460   49.4710 O   0  0  0  0  0  0  0  0  0  0  0  0
   61.2670   33.5220   48.5530 C   0  0  0  0  0  0  0  0  0  0  0  0
   62.3970   33.0050   49.2120 C   0  0  0  0  0  0  0  0  0  0  0  0
   63.5950   32.8080   48.5230 C   0  0  0  0  0  0  0  0  0  0  0  0
   63.6820   33.1200   47.1680 C   0  0  0  0  0  0  0  0  0  0  0  0
   62.5660   33.6130   46.4900 C   0  0  0  0  0  0  0  0  0  0  0  0
   61.3430   33.7980   47.1600 C   0  0  0  0  0  0  0  0  0  0  0  0
   60.1810   34.2700   46.3670 C   0  0  0  0  0  0  0  0  0  0  0  0
   59.9870   35.5110   46.2600 O   0  0  0  0  0  0  0  0  0  0  0  0
   59.2530   33.3340   45.6850 C   0  0  0  0  0  0  0  0  0  0  0  0
   58.6430   33.6790   44.4640 C   0  0  0  0  0  0  0  0  0  0  0  0
   57.7920   32.7760   43.8200 C   0  0  0  0  0  0  0  0  0  0  0  0
   57.5330   31.5280   44.3900 C   0  0  0  0  0  0  0  0  0  0  0  0
   58.1220   31.1810   45.6090 C   0  0  0  0  0  0  0  0  0  0  0  0
   58.9720   32.0800   46.2570 C   0  0  0  0  0  0  0  0  0  0  0  0
   58.5360   32.8870   51.1730 C   0  0  0  0  0  0  0  0  0  0  0  0
   57.8350   31.8700   51.7390 N   0  0  0  0  0  0  0  0  0  0  0  0
   52.2354   31.5875   52.1116 H   0  0  0  0  0  0  0  0  0  0  0  0
   53.1644   31.9366   50.6144 H   0  0  0  0  0  0  0  0  0  0  0  0
   51.9115   30.6494   50.6144 H   0  0  0  0  0  0  0  0  0  0  0  0
   53.3343   29.4932   52.4330 H   0  0  0  0  0  0  0  0  0  0  0  0
   53.9963   29.5080   50.7498 H   0  0  0  0  0  0  0  0  0  0  0  0
   55.4937   31.3345   51.2836 H   0  0  0  0  0  0  0  0  0  0  0  0
   54.7396   31.5158   52.9221 H   0  0  0  0  0  0  0  0  0  0  0  0
   56.4038   30.1897   53.6622 H   0  0  0  0  0  0  0  0  0  0  0  0
   55.4939   28.8452   52.8633 H   0  0  0  0  0  0  0  0  0  0  0  0
   58.6070   29.3274   49.6470 H   0  0  0  0  0  0  0  0  0  0  0  0
   59.9266   31.1589   48.5776 H   0  0  0  0  0  0  0  0  0  0  0  0
   62.3361   32.7534   50.2811 H   0  0  0  0  0  0  0  0  0  0  0  0
   64.4721   32.4056   49.0510 H   0  0  0  0  0  0  0  0  0  0  0  0
   64.6317   32.9776   46.6316 H   0  0  0  0  0  0  0  0  0  0  0  0
   62.6436   33.8594   45.4208 H   0  0  0  0  0  0  0  0  0  0  0  0
   58.8370   34.6640   44.0145 H   0  0  0  0  0  0  0  0  0  0  0  0
   57.3254   33.0493   42.8621 H   0  0  0  0  0  0  0  0  0  0  0  0
   56.8655   30.8180   43.8797 H   0  0  0  0  0  0  0  0  0  0  0  0
   57.9158   30.1985   46.0587 H   0  0  0  0  0  0  0  0  0  0  0  0
   59.4248   31.8056   47.2212 H   0  0  0  0  0  0  0  0  0  0  0  0
   58.5110   33.8889   51.6264 H   0  0  0  0  0  0  0  0  0  0  0  0
  1  2  1  0
  2  3  1  0
  3  4  1  0
  4  5  1  0
  5  6  1  0
  6  7  2  0
  7  8  1  0
  8  9  2  0
  9 10  1  0
 10 11  2  0
 10 12  1  0
 12 13  2  0
 13 14  1  0
 14 15  2  0
 15 16  1  0
 16 17  2  0
 17 18  1  0
 18 19  2  0
 18 20  1  0
 20 21  2  0
 21 22  1  0
 22 23  2  0
 23 24  1  0
 24 25  2  0
  9 26  1  0
 26 27  2  0
 27  6  1  0
 17 12  1  0
 25 20  1  0
  1 28  1  0
  1 29  1  0
  1 30  1  0
  2 31  1  0
  2 32  1  0
  3 33  1  0
  3 34  1  0
  4 35  1  0
  4 36  1  0
  7 37  1  0
  8 38  1  0
 13 39  1  0
 14 40  1  0
 15 41  1  0
 16 42  1  0
 21 43  1  0
 22 44  1  0
 23 45  1  0
 24 46  1  0
 25 47  1  0
 26 48  1  0
M  END
>  <UniqueID>  (14) 
14

>  <SMILES>  (14) 
CCCCOc1ccc(C(=O)c2ccccc2C(=O)c2ccccc2)cn1

>  <Energy>  (14) 
56.062060738222186

>  <Genealogy>  (14) 
CCCCOc1ccc(C(=O)c2ccccc2C(=O)c2ccccc2)cn1 (3D coordinates assigned)
CCCCOc1ccc(C(=O)c2ccccc2C(=O)c2ccccc2)cn1 (optimized conformer: 56.062060738222186 kcal/mol)

>  <smiles>  (14) 
CCCCOc1ccc(C(=O)c2ccccc2C(=O)c2ccccc2)cn1

>  <score_type>  (14) 
oracle

>  <origin>  (14) 
adg

>  <m_score__min__energy>  (14) 
-8.4800000000000004

>  <m_primary>  (14) 
energy

$$$$
14:0
     RDKit          3D

 39 41  0  0  0  0  0  0  0  0999 V2000
   55.5250   30.0480   42.2850 H   0  0  0  0  0  0  0  0  0  0  0  0
   55.6280   29.7430   43.2800 N   0  0  0  0  0  0  0  0  0  0  0  0
   56.5160   30.2700   44.0600 C   0  0  0  0  0  0  0  0  0  0  0  0
   56.8240   29.6760   45.2460 N   0  0  0  0  0  0  0  0  0  0  0  0
   57.7530   30.2020   46.0900 C   0  0  0  0  0  0  0  0  0  0  0  0
   57.9794   29.6983   47.0413 H   0  0  0  0  0  0  0  0  0  0  0  0
   58.4200   31.3830   45.7480 C   0  0  0  0  0  0  0  0  0  0  0  0
   59.4070   31.9450   46.6290 C   0  0  0  0  0  0  0  0  0  0  0  0
   60.2290   32.4080   47.3810 C   0  0  0  0  0  0  0  0  0  0  0  0
   61.2030   32.9540   48.2980 C   0  0  0  0  0  0  0  0  0  0  0  0
   61.0360   32.8410   49.6970 C   0  0  0  0  0  0  0  0  0  0  0  0
   59.9040   32.1060   50.3060 C   0  0  0  0  0  0  0  0  0  0  0  0
   58.8970   32.7840   51.0150 C   0  0  0  0  0  0  0  0  0  0  0  0
   58.9484   33.8771   51.1272 H   0  0  0  0  0  0  0  0  0  0  0  0
   57.8310   32.0770   51.5780 C   0  0  0  0  0  0  0  0  0  0  0  0
   57.0557   32.6164   52.1418 H   0  0  0  0  0  0  0  0  0  0  0  0
   57.7420   30.6870   51.4300 C   0  0  0  0  0  0  0  0  0  0  0  0
   56.6530   30.0240   52.0160 O   0  0  0  0  0  0  0  0  0  0  0  0
   55.4110   30.6440   52.3390 C   0  0  0  0  0  0  0  0  0  0  0  0
   55.3018   30.6985   53.4322 H   0  0  0  0  0  0  0  0  0  0  0  0
   55.3875   31.6596   51.9170 H   0  0  0  0  0  0  0  0  0  0  0  0
   54.5852   30.0524   51.9170 H   0  0  0  0  0  0  0  0  0  0  0  0
   58.7360   30.0090   50.7010 C   0  0  0  0  0  0  0  0  0  0  0  0
   58.6732   28.9183   50.5731 H   0  0  0  0  0  0  0  0  0  0  0  0
   59.8040   30.7160   50.1380 C   0  0  0  0  0  0  0  0  0  0  0  0
   60.5704   30.1790   49.5599 H   0  0  0  0  0  0  0  0  0  0  0  0
   61.9320   33.4440   50.5230 N   0  0  0  0  0  0  0  0  0  0  0  0
   62.9950   34.1310   50.0360 C   0  0  0  0  0  0  0  0  0  0  0  0
   63.7069   34.6040   50.7285 H   0  0  0  0  0  0  0  0  0  0  0  0
   63.1820   34.2360   48.6980 N   0  0  0  0  0  0  0  0  0  0  0  0
   62.3180   33.6680   47.8160 C   0  0  0  0  0  0  0  0  0  0  0  0
   62.5710   33.8370   46.3450 C   0  0  0  0  0  0  0  0  0  0  0  0
   63.4773   34.4424   46.1960 H   0  0  0  0  0  0  0  0  0  0  0  0
   62.7094   32.8493   45.8809 H   0  0  0  0  0  0  0  0  0  0  0  0
   61.7116   34.3430   45.8809 H   0  0  0  0  0  0  0  0  0  0  0  0
   58.1200   32.0100   44.5340 C   0  0  0  0  0  0  0  0  0  0  0  0
   58.6362   32.9392   44.2509 H   0  0  0  0  0  0  0  0  0  0  0  0
   57.1630   31.4530   43.6820 C   0  0  0  0  0  0  0  0  0  0  0  0
   56.9205   31.9383   42.7251 H   0  0  0  0  0  0  0  0  0  0  0  0
  1  2  1  0
  2  3  2  0
  3  4  1  0
  4  5  1  0
  5  6  1  0
  5  7  2  0
  7  8  1  0
  8  9  3  0
  9 10  1  0
 10 11  1  0
 11 12  1  0
 12 13  2  0
 13 14  1  0
 13 15  1  0
 15 16  1  0
 15 17  2  0
 17 18  1  0
 18 19  1  0
 19 20  1  0
 19 21  1  0
 19 22  1  0
 17 23  1  0
 23 24  1  0
 23 25  2  0
 25 26  1  0
 11 27  2  0
 27 28  1  0
 28 29  1  0
 28 30  2  0
 30 31  1  0
 31 32  1  0
 32 33  1  0
 32 34  1  0
 32 35  1  0
  7 36  1  0
 36 37  1  0
 36 38  2  0
 38 39  1  0
 38  3  1  0
 31 10  2  0
 25 12  1  0
M  CHG  1   4  -1
M  END
>  <UniqueID>  (15) 
15

>  <SMILES>  (15) 
[H]/N=c1/ccc(C#Cc2c(C)ncnc2-c2ccc(OC)cc2)c[n-]1

>  <Energy>  (15) 
44.763375740333245

>  <Genealogy>  (15) 
COc1ccc(-c2ncnc(C)c2C#Cc2ccc(=N)[n-]c2)cc1 (protonated)
[H]/N=c1/ccc(C#Cc2c(C)ncnc2-c2ccc(OC)cc2)c[n-]1 (cis-trans isomerization)
[H]/N=c1/ccc(C#Cc2c(C)ncnc2-c2ccc(OC)cc2)c[n-]1 (3D coordinates assigned)
[H]/N=c1/ccc(C#Cc2c(C)ncnc2-c2ccc(OC)cc2)c[n-]1 (optimized conformer: 44.763375740333245 kcal/mol)

>  <smiles>  (15) 
COc1ccc(-c2ncnc(C)c2C#Cc2ccc(=N)[nH]c2)cc1

>  <score_type>  (15) 
oracle

>  <origin>  (15) 
adg

>  <m_score__min__energy>  (15) 
-8.7899999999999991

>  <m_primary>  (15) 
energy

$$$$
15:0
     RDKit          3D

 48 50  0  0  0  0  0  0  0  0999 V2000
   65.3900   32.3150   51.2020 C   0  0  0  0  0  0  0  0  0  0  0  0
   64.3630   32.2250   50.1110 C   0  0  0  0  0  0  0  0  0  0  0  0
   64.5020   32.9930   48.9500 C   0  0  0  0  0  0  0  0  0  0  0  0
   63.5280   32.9510   47.9370 C   0  0  0  0  0  0  0  0  0  0  0  0
   63.7320   33.8050   46.7120 C   0  0  0  0  0  0  0  0  0  0  0  0
   62.3750   32.1370   48.1060 C   0  0  0  0  0  0  0  0  0  0  0  0
   62.2630   31.3440   49.2670 C   0  0  0  0  0  0  0  0  0  0  0  0
   63.2350   31.4160   50.2690 C   0  0  0  0  0  0  0  0  0  0  0  0
   61.1730   30.4320   49.4250 N   0  0  0  0  0  0  0  0  0  0  0  0
   59.8030   30.9290   49.4790 C   0  0  0  0  0  0  0  0  0  0  0  0
   59.7230   32.4130   49.1000 C   0  0  0  0  0  0  0  0  0  0  0  0
   59.9480   32.7210   47.6670 N   0  0  2  0  0  0  0  0  0  0  0  0
   58.7820   32.4530   46.8350 C   0  0  0  0  0  0  0  0  0  0  0  0
   57.7490   33.0890   46.9920 O   0  0  0  0  0  0  0  0  0  0  0  0
   58.8200   31.3920   45.7480 C   0  0  0  0  0  0  0  0  0  0  0  0
   58.1270   31.9100   44.4540 C   0  0  0  0  0  0  0  0  0  0  0  0
   56.6520   31.5180   44.3410 C   0  0  0  0  0  0  0  0  0  0  0  0
   56.5180   29.7410   44.2570 S   0  0  0  0  0  0  0  0  0  0  0  0
   55.2090   29.3000   44.8470 O   0  0  0  0  0  0  0  0  0  0  0  0
   56.6110   29.2820   42.8290 O   0  0  0  0  0  0  0  0  0  0  0  0
   57.8740   29.0680   45.1990 C   0  0  0  0  0  0  0  0  0  0  0  0
   58.2560   30.0560   46.3020 C   0  0  0  0  0  0  0  0  0  0  0  0
   61.2120   32.1710   47.1210 C   0  0  0  0  0  0  0  0  0  0  0  0
   64.8900   32.2712   52.1808 H   0  0  0  0  0  0  0  0  0  0  0  0
   66.0947   31.4752   51.1124 H   0  0  0  0  0  0  0  0  0  0  0  0
   65.9379   33.2646   51.1124 H   0  0  0  0  0  0  0  0  0  0  0  0
   65.3847   33.6380   48.8281 H   0  0  0  0  0  0  0  0  0  0  0  0
   63.9775   34.8326   47.0182 H   0  0  0  0  0  0  0  0  0  0  0  0
   64.5573   33.3942   46.1119 H   0  0  0  0  0  0  0  0  0  0  0  0
   62.8101   33.8115   46.1119 H   0  0  0  0  0  0  0  0  0  0  0  0
   63.1105   30.8297   51.1913 H   0  0  0  0  0  0  0  0  0  0  0  0
   61.3200   29.4300   49.1640 H   0  0  0  0  0  0  0  0  0  0  0  0
   59.1851   30.3482   48.7783 H   0  0  0  0  0  0  0  0  0  0  0  0
   59.4383   30.8183   50.5109 H   0  0  0  0  0  0  0  0  0  0  0  0
   58.7215   32.7782   49.3715 H   0  0  0  0  0  0  0  0  0  0  0  0
   60.5398   32.9076   49.6461 H   0  0  0  0  0  0  0  0  0  0  0  0
   60.0980   33.7570   47.6580 H   0  0  0  0  0  0  0  0  0  0  0  0
   59.8569   31.1800   45.4482 H   0  0  0  0  0  0  0  0  0  0  0  0
   58.1957   33.0078   44.4401 H   0  0  0  0  0  0  0  0  0  0  0  0
   58.6473   31.4435   43.6045 H   0  0  0  0  0  0  0  0  0  0  0  0
   56.1055   31.8863   45.2217 H   0  0  0  0  0  0  0  0  0  0  0  0
   56.2214   31.9631   43.4319 H   0  0  0  0  0  0  0  0  0  0  0  0
   57.5704   28.1117   45.6500 H   0  0  0  0  0  0  0  0  0  0  0  0
   58.7367   28.8989   44.5378 H   0  0  0  0  0  0  0  0  0  0  0  0
   57.3607   30.2751   46.9023 H   0  0  0  0  0  0  0  0  0  0  0  0
   59.0485   29.5878   46.9044 H   0  0  0  0  0  0  0  0  0  0  0  0
   61.0195   31.1418   46.7838 H   0  0  0  0  0  0  0  0  0  0  0  0
   61.5162   32.8458   46.3073 H   0  0  0  0  0  0  0  0  0  0  0  0
  1  2  1  0
  2  3  2  0
  3  4  1  0
  4  5  1  0
  4  6  2  0
  6  7  1  0
  7  8  2  0
  7  9  1  0
  9 10  1  0
 10 11  1  0
 11 12  1  0
 12 13  1  0
 13 14  2  0
 13 15  1  0
 15 16  1  0
 16 17  1  0
 17 18  1  0
 18 19  2  0
 18 20  2  0
 18 21  1  0
 21 22  1  0
 12 23  1  0
  8  2  1  0
 22 15  1  0
 23  6  1  0
  1 24  1  0
  1 25  1  0
  1 26  1  0
  3 27  1  0
  5 28  1  0
  5 29  1  0
  5 30  1  0
  8 31  1  0
  9 32  1  0
 10 33  1  0
 10 34  1  0
 11 35  1  0
 11 36  1  0
 12 37  1  1
 15 38  1  0
 16 39  1  0
 16 40  1  0
 17 41  1  0
 17 42  1  0
 21 43  1  0
 21 44  1  0
 22 45  1  0
 22 46  1  0
 23 47  1  0
 23 48  1  0
M  CHG  1  12   1
M  END
>  <UniqueID>  (16) 
16

>  <SMILES>  (16) 
Cc1cc(C)c2c(c1)NCC[N@H+](C(=O)C1CCS(=O)(=O)CC1)C2

>  <Energy>  (16) 
58.10590243803365

>  <Genealogy>  (16) 
Cc1cc(C)c2c(c1)NCC[NH+](C(=O)C1CCS(=O)(=O)CC1)C2 (protonated)
Cc1cc(C)c2c(c1)NCC[N@H+](C(=O)C1CCS(=O)(=O)CC1)C2 (chirality)
Cc1cc(C)c2c(c1)NCC[N@H+](C(=O)C1CCS(=O)(=O)CC1)C2 (3D coordinates assigned)
Cc1cc(C)c2c(c1)NCC[N@H+](C(=O)C1CCS(=O)(=O)CC1)C2 (nonaromatic ring conformer: 58.10590243803365 kcal/mol)

>  <smiles>  (16) 
Cc1cc(C)c2c(c1)NCCN(C(=O)C1CCS(=O)(=O)CC1)C2

>  <score_type>  (16) 
oracle

>  <origin>  (16) 
adg

>  <m_score__min__energy>  (16) 
-5.2999999999999998

>  <m_primary>  (16) 
energy

$$$$
16:0
     RDKit          3D

 58 60  0  0  0  0  0  0  0  0999 V2000
   61.1340   30.3520   46.7690 C   0  0  0  0  0  0  0  0  0  0  0  0
   59.9550   31.1420   46.6480 O   0  0  0  0  0  0  0  0  0  0  0  0
   58.8920   30.8590   45.7740 C   0  0  0  0  0  0  0  0  0  0  0  0
   58.6360   29.5510   45.3180 C   0  0  0  0  0  0  0  0  0  0  0  0
   57.5830   29.3020   44.4340 C   0  0  0  0  0  0  0  0  0  0  0  0
   56.7760   30.3500   43.9960 C   0  0  0  0  0  0  0  0  0  0  0  0
   57.0180   31.6510   44.4400 C   0  0  0  0  0  0  0  0  0  0  0  0
   58.0710   31.9180   45.3320 C   0  0  0  0  0  0  0  0  0  0  0  0
   58.2880   33.2640   45.8000 N   0  0  0  0  0  0  0  0  0  0  0  0
   58.8090   34.2890   44.8870 C   0  0  0  0  0  0  0  0  0  0  0  0
   59.6170   35.3440   45.6650 C   0  0  0  0  0  0  0  0  0  0  0  0
   60.3940   34.7320   46.7650 N   0  0  0  0  0  0  0  0  0  0  0  0
   61.4540   33.8360   46.2550 C   0  0  0  0  0  0  0  0  0  0  0  0
   62.3860   33.4410   47.3630 C   0  0  0  0  0  0  0  0  0  0  0  0
   63.5710   33.8750   47.3560 O   0  0  0  0  0  0  0  0  0  0  0  0
   61.9410   32.5390   48.3920 N   0  0  0  0  0  0  0  0  0  0  0  0
   62.7590   32.1240   49.4990 C   0  0  0  0  0  0  0  0  0  0  0  0
   63.8510   32.7110   49.7400 O   0  0  0  0  0  0  0  0  0  0  0  0
   62.3270   31.0480   50.3570 N   0  0  0  0  0  0  0  0  0  0  0  0
   60.8990   31.1290   50.7380 C   0  0  0  0  0  0  0  0  0  0  0  0
   60.4190   32.5890   50.9630 C   0  0  0  0  0  0  0  0  0  0  0  0
   58.8920   32.7560   50.8230 C   0  0  0  0  0  0  0  0  0  0  0  0
   58.1380   31.4760   51.2010 C   0  0  0  0  0  0  0  0  0  0  0  0
   58.5320   30.2900   50.2950 C   0  0  0  0  0  0  0  0  0  0  0  0
   59.9730   30.3800   49.7530 C   0  0  0  0  0  0  0  0  0  0  0  0
   59.5260   34.0680   47.7780 C   0  0  0  0  0  0  0  0  0  0  0  0
   58.1710   33.5910   47.2230 C   0  0  0  0  0  0  0  0  0  0  0  0
   61.3643   30.1977   47.8335 H   0  0  0  0  0  0  0  0  0  0  0  0
   60.9741   29.3780   46.2835 H   0  0  0  0  0  0  0  0  0  0  0  0
   61.9741   30.8702   46.2835 H   0  0  0  0  0  0  0  0  0  0  0  0
   59.2697   28.7196   45.6604 H   0  0  0  0  0  0  0  0  0  0  0  0
   57.3909   28.2772   44.0834 H   0  0  0  0  0  0  0  0  0  0  0  0
   55.9476   30.1520   43.2999 H   0  0  0  0  0  0  0  0  0  0  0  0
   56.3790   32.4746   44.0887 H   0  0  0  0  0  0  0  0  0  0  0  0
   59.4611   33.8114   44.1409 H   0  0  0  0  0  0  0  0  0  0  0  0
   57.9628   34.7851   44.3891 H   0  0  0  0  0  0  0  0  0  0  0  0
   60.3107   35.8441   44.9731 H   0  0  0  0  0  0  0  0  0  0  0  0
   58.9106   36.0650   46.1022 H   0  0  0  0  0  0  0  0  0  0  0  0
   60.9914   32.9323   45.8315 H   0  0  0  0  0  0  0  0  0  0  0  0
   62.0268   34.3671   45.4805 H   0  0  0  0  0  0  0  0  0  0  0  0
   60.9730   32.1530   48.3260 H   0  0  0  0  0  0  0  0  0  0  0  0
   62.9140   31.0380   51.2250 H   0  0  0  0  0  0  0  0  0  0  0  0
   62.4990   30.1400   49.8640 H   0  0  0  0  0  0  0  0  0  0  0  0
   60.8259   30.6118   51.7061 H   0  0  0  0  0  0  0  0  0  0  0  0
   60.7133   32.9014   51.9758 H   0  0  0  0  0  0  0  0  0  0  0  0
   60.8880   33.2103   50.1858 H   0  0  0  0  0  0  0  0  0  0  0  0
   58.5617   33.5711   51.4837 H   0  0  0  0  0  0  0  0  0  0  0  0
   58.6699   32.9831   49.7699 H   0  0  0  0  0  0  0  0  0  0  0  0
   58.3722   31.2199   52.2448 H   0  0  0  0  0  0  0  0  0  0  0  0
   57.0616   31.6623   51.0716 H   0  0  0  0  0  0  0  0  0  0  0  0
   58.4365   29.3612   50.8766 H   0  0  0  0  0  0  0  0  0  0  0  0
   57.8583   30.3101   49.4257 H   0  0  0  0  0  0  0  0  0  0  0  0
   60.3619   29.3626   49.5991 H   0  0  0  0  0  0  0  0  0  0  0  0
   59.9525   30.9370   48.8047 H   0  0  0  0  0  0  0  0  0  0  0  0
   60.0639   33.1949   48.1759 H   0  0  0  0  0  0  0  0  0  0  0  0
   59.3074   34.8185   48.5519 H   0  0  0  0  0  0  0  0  0  0  0  0
   57.8481   32.6960   47.7751 H   0  0  0  0  0  0  0  0  0  0  0  0
   57.4324   34.3971   47.3441 H   0  0  0  0  0  0  0  0  0  0  0  0
  1  2  1  0
  2  3  1  0
  3  4  2  0
  4  5  1  0
  5  6  2  0
  6  7  1  0
  7  8  2  0
  8  9  1  0
  9 10  1  0
 10 11  1  0
 11 12  1  0
 12 13  1  0
 13 14  1  0
 14 15  2  0
 14 16  1  0
 16 17  1  0
 17 18  2  0
 17 19  1  0
 19 20  1  0
 20 21  1  0
 21 22  1  0
 22 23  1  0
 23 24  1  0
 24 25  1  0
 12 26  1  0
 26 27  1  0
  8  3  1  0
 27  9  1  0
 25 20  1  0
  1 28  1  0
  1 29  1  0
  1 30  1  0
  4 31  1  0
  5 32  1  0
  6 33  1  0
  7 34  1  0
 10 35  1  0
 10 36  1  0
 11 37  1  0
 11 38  1  0
 13 39  1  0
 13 40  1  0
 16 41  1  0
 19 42  1  0
 19 43  1  0
 20 44  1  0
 21 45  1  0
 21 46  1  0
 22 47  1  0
 22 48  1  0
 23 49  1  0
 23 50  1  0
 24 51  1  0
 24 52  1  0
 25 53  1  0
 25 54  1  0
 26 55  1  0
 26 56  1  0
 27 57  1  0
 27 58  1  0
M  CHG  1  19   1
M  END
>  <UniqueID>  (17) 
17

>  <SMILES>  (17) 
COc1ccccc1N1CCN(CC(=O)NC(=O)[NH2+]C2CCCCC2)CC1

>  <Energy>  (17) 
74.21438148971507

>  <Genealogy>  (17) 
COc1ccccc1N1CCN(CC(=O)NC(=O)[NH2+]C2CCCCC2)CC1 (protonated)
COc1ccccc1N1CCN(CC(=O)NC(=O)[NH2+]C2CCCCC2)CC1 (3D coordinates assigned)
COc1ccccc1N1CCN(CC(=O)NC(=O)[NH2+]C2CCCCC2)CC1 (nonaromatic ring conformer: 74.21438148971507 kcal/mol)

>  <smiles>  (17) 
COc1ccccc1N1CCN(CC(=O)NC(=O)NC2CCCCC2)CC1

>  <score_type>  (17) 
oracle

>  <origin>  (17) 
adg

>  <m_score__min__energy>  (17) 
-8.7799999999999994

>  <m_primary>  (17) 
energy

$$$$
17:0
     RDKit          3D

 62 65  0  0  0  0  0  0  0  0999 V2000
   65.7150   32.7160   49.8860 C   0  0  0  0  0  0  0  0  0  0  0  0
   64.4550   33.3640   50.0280 O   0  0  0  0  0  0  0  0  0  0  0  0
   63.4710   33.4340   49.0260 C   0  0  0  0  0  0  0  0  0  0  0  0
   63.8190   33.4340   47.6650 C   0  0  0  0  0  0  0  0  0  0  0  0
   62.8390   33.4880   46.6810 C   0  0  0  0  0  0  0  0  0  0  0  0
   61.4860   33.5250   47.0290 C   0  0  0  0  0  0  0  0  0  0  0  0
   60.5110   33.5700   46.0210 C   0  0  0  0  0  0  0  0  0  0  0  0
   59.1560   33.6080   46.3510 C   0  0  0  0  0  0  0  0  0  0  0  0
   57.8380   33.6820   44.9710 Br  0  0  0  0  0  0  0  0  0  0  0  0
   58.7650   33.5890   47.6880 C   0  0  0  0  0  0  0  0  0  0  0  0
   59.7220   33.5430   48.7040 C   0  0  0  0  0  0  0  0  0  0  0  0
   61.1020   33.5250   48.3970 C   0  0  0  0  0  0  0  0  0  0  0  0
   62.1110   33.5090   49.4050 C   0  0  0  0  0  0  0  0  0  0  0  0
   61.7700   33.5580   50.8850 C   0  0  0  0  0  0  0  0  0  0  0  0
   62.7390   32.7770   51.6730 N   0  0  0  0  0  0  0  0  0  0  0  0
   62.1320   32.1510   52.8650 C   0  0  0  0  0  0  0  0  0  0  0  0
   61.3020   30.8900   52.5300 C   0  0  0  0  0  0  0  0  0  0  0  0
   62.0880   29.9430   51.7260 N   0  0  0  0  0  0  0  0  0  0  0  0
   61.8730   30.1710   50.2900 C   0  0  0  0  0  0  0  0  0  0  0  0
   60.4150   29.8860   49.8870 C   0  0  0  0  0  0  0  0  0  0  0  0
   60.3130   28.6170   49.1580 N   0  0  0  0  0  0  0  0  0  0  0  0
   59.7660   28.4910   47.8340 C   0  0  0  0  0  0  0  0  0  0  0  0
   60.1710   27.4610   46.9670 C   0  0  0  0  0  0  0  0  0  0  0  0
   59.5990   27.3360   45.6980 C   0  0  0  0  0  0  0  0  0  0  0  0
   58.6220   28.2510   45.2630 C   0  0  0  0  0  0  0  0  0  0  0  0
   57.9970   28.1610   43.9980 C   0  0  0  0  0  0  0  0  0  0  0  0
   58.3240   27.0620   43.0210 C   0  0  0  0  0  0  0  0  0  0  0  0
   57.0570   29.1370   43.6420 C   0  0  0  0  0  0  0  0  0  0  0  0
   56.7510   30.1580   44.5450 C   0  0  0  0  0  0  0  0  0  0  0  0
   55.9100   31.0410   44.2330 O   0  0  0  0  0  0  0  0  0  0  0  0
   57.3420   30.2050   45.7330 O   0  0  0  0  0  0  0  0  0  0  0  0
   58.2440   29.3100   46.1220 C   0  0  0  0  0  0  0  0  0  0  0  0
   58.8180   29.4230   47.3920 C   0  0  0  0  0  0  0  0  0  0  0  0
   66.1314   32.5018   50.8814 H   0  0  0  0  0  0  0  0  0  0  0  0
   65.5827   31.7741   49.3335 H   0  0  0  0  0  0  0  0  0  0  0  0
   66.4042   33.3715   49.3335 H   0  0  0  0  0  0  0  0  0  0  0  0
   64.8792   33.3908   47.3748 H   0  0  0  0  0  0  0  0  0  0  0  0
   63.1305   33.5017   45.6204 H   0  0  0  0  0  0  0  0  0  0  0  0
   60.8168   33.5753   44.9644 H   0  0  0  0  0  0  0  0  0  0  0  0
   57.6957   33.6104   47.9450 H   0  0  0  0  0  0  0  0  0  0  0  0
   59.3985   33.5205   49.7551 H   0  0  0  0  0  0  0  0  0  0  0  0
   61.7891   34.6041   51.2247 H   0  0  0  0  0  0  0  0  0  0  0  0
   60.7689   33.1257   51.0299 H   0  0  0  0  0  0  0  0  0  0  0  0
   63.4960   33.4210   52.0050 H   0  0  0  0  0  0  0  0  0  0  0  0
   63.1820   32.0420   51.0740 H   0  0  0  0  0  0  0  0  0  0  0  0
   62.9364   31.8667   53.5594 H   0  0  0  0  0  0  0  0  0  0  0  0
   61.4462   32.8872   53.3095 H   0  0  0  0  0  0  0  0  0  0  0  0
   60.9967   30.4005   53.4666 H   0  0  0  0  0  0  0  0  0  0  0  0
   60.4184   31.1947   51.9499 H   0  0  0  0  0  0  0  0  0  0  0  0
   61.7780   28.9790   51.9670 H   0  0  0  0  0  0  0  0  0  0  0  0
   62.1108   31.2189   50.0547 H   0  0  0  0  0  0  0  0  0  0  0  0
   62.5267   29.4864   49.7296 H   0  0  0  0  0  0  0  0  0  0  0  0
   59.7946   29.8316   50.7937 H   0  0  0  0  0  0  0  0  0  0  0  0
   60.0660   30.6975   49.2315 H   0  0  0  0  0  0  0  0  0  0  0  0
   60.8740   27.8180   49.5320 H   0  0  0  0  0  0  0  0  0  0  0  0
   60.9440   26.7481   47.2899 H   0  0  0  0  0  0  0  0  0  0  0  0
   59.9144   26.5171   45.0348 H   0  0  0  0  0  0  0  0  0  0  0  0
   58.5954   26.1498   43.5726 H   0  0  0  0  0  0  0  0  0  0  0  0
   57.4468   26.8607   42.3885 H   0  0  0  0  0  0  0  0  0  0  0  0
   59.1685   27.3730   42.3885 H   0  0  0  0  0  0  0  0  0  0  0  0
   56.5639   29.0996   42.6594 H   0  0  0  0  0  0  0  0  0  0  0  0
   58.5221   30.2525   48.0511 H   0  0  0  0  0  0  0  0  0  0  0  0
  1  2  1  0
  2  3  1  0
  3  4  2  0
  4  5  1  0
  5  6  2  0
  6  7  1  0
  7  8  2  0
  8  9  1  0
  8 10  1  0
 10 11  2  0
 11 12  1  0
 12 13  2  0
 13 14  1  0
 14 15  1  0
 15 16  1  0
 16 17  1  0
 17 18  1  0
 18 19  1  0
 19 20  1  0
 20 21  1  0
 21 22  1  0
 22 23  2  0
 23 24  1  0
 24 25  2  0
 25 26  1  0
 26 27  1  0
 26 28  2  0
 28 29  1  0
 29 30  2  0
 29 31  1  0
 31 32  1  0
 32 33  2  0
 13  3  1  0
 33 22  1  0
 12  6  1  0
 32 25  1  0
  1 34  1  0
  1 35  1  0
  1 36  1  0
  4 37  1  0
  5 38  1  0
  7 39  1  0
 10 40  1  0
 11 41  1  0
 14 42  1  0
 14 43  1  0
 15 44  1  0
 15 45  1  0
 16 46  1  0
 16 47  1  0
 17 48  1  0
 17 49  1  0
 18 50  1  0
 19 51  1  0
 19 52  1  0
 20 53  1  0
 20 54  1  0
 21 55  1  0
 23 56  1  0
 24 57  1  0
 27 58  1  0
 27 59  1  0
 27 60  1  0
 28 61  1  0
 33 62  1  0
M  CHG  1  15   1
M  END
>  <UniqueID>  (18) 
18

>  <SMILES>  (18) 
COc1ccc2cc(Br)ccc2c1C[NH2+]CCNCCNc1ccc2c(C)cc(=O)oc2c1

>  <Energy>  (18) 
67.89573286957102

>  <Genealogy>  (18) 
COc1ccc2cc(Br)ccc2c1C[NH2+]CCNCCNc1ccc2c(C)cc(=O)oc2c1 (protonated)
COc1ccc2cc(Br)ccc2c1C[NH2+]CCNCCNc1ccc2c(C)cc(=O)oc2c1 (3D coordinates assigned)
COc1ccc2cc(Br)ccc2c1C[NH2+]CCNCCNc1ccc2c(C)cc(=O)oc2c1 (optimized conformer: 67.89573286957102 kcal/mol)

>  <smiles>  (18) 
COc1ccc2cc(Br)ccc2c1CNCCNCCNc1ccc2c(C)cc(=O)oc2c1

>  <score_type>  (18) 
oracle

>  <origin>  (18) 
adg

>  <m_score__min__energy>  (18) 
-7.4299999999999997

>  <m_primary>  (18) 
energy

$$$$
18:0
     RDKit          3D

 56 58  0  0  0  0  0  0  0  0999 V2000
   64.9840   32.1640   50.2280 C   0  0  0  0  0  0  0  0  0  0  0  0
   64.9530   33.0660   49.1250 O   0  0  0  0  0  0  0  0  0  0  0  0
   63.7860   33.4520   48.4490 C   0  0  0  0  0  0  0  0  0  0  0  0
   62.6730   33.8360   49.2070 C   0  0  0  0  0  0  0  0  0  0  0  0
   61.4820   34.2170   48.5810 C   0  0  0  0  0  0  0  0  0  0  0  0
   61.3840   34.2120   47.1790 C   0  0  0  0  0  0  0  0  0  0  0  0
   60.1210   34.6150   46.5200 C   0  0  0  0  0  0  0  0  0  0  0  0
   59.9600   35.8190   46.1820 O   0  0  0  0  0  0  0  0  0  0  0  0
   59.0850   33.6570   46.2380 N   0  0  0  0  0  0  0  0  0  0  0  0
   58.6490   32.7020   47.2680 C   0  0  0  0  0  0  0  0  0  0  0  0
   58.4420   31.2970   46.6750 C   0  0  0  0  0  0  0  0  0  0  0  0
   57.9820   31.3100   45.1950 C   0  0  0  0  0  0  0  0  0  0  0  0
   57.0710   30.1340   44.9140 C   0  0  0  0  0  0  0  0  0  0  0  0
   55.8850   30.3410   44.5430 O   0  0  0  0  0  0  0  0  0  0  0  0
   57.4930   28.7820   45.1230 N   0  0  0  0  0  0  0  0  0  0  0  0
   56.6390   27.7060   45.6150 C   0  0  0  0  0  0  0  0  0  0  0  0
   57.3980   26.8550   46.6330 C   0  0  0  0  0  0  0  0  0  0  0  0
   57.5690   25.4340   46.1460 C   0  0  0  0  0  0  0  0  0  0  0  0
   58.8650   24.9120   45.9960 C   0  0  0  0  0  0  0  0  0  0  0  0
   59.0540   23.5960   45.5720 C   0  0  0  0  0  0  0  0  0  0  0  0
   57.9540   22.7840   45.3000 C   0  0  0  0  0  0  0  0  0  0  0  0
   56.6590   23.2820   45.4590 C   0  0  0  0  0  0  0  0  0  0  0  0
   56.4520   24.6100   45.8890 C   0  0  0  0  0  0  0  0  0  0  0  0
   55.1600   25.1340   46.0710 O   0  0  0  0  0  0  0  0  0  0  0  0
   53.9620   24.5060   45.6300 C   0  0  0  0  0  0  0  0  0  0  0  0
   57.3100   32.6440   44.8220 C   0  0  0  0  0  0  0  0  0  0  0  0
   58.3030   33.8000   45.0010 C   0  0  0  0  0  0  0  0  0  0  0  0
   62.5060   33.8460   46.4180 C   0  0  0  0  0  0  0  0  0  0  0  0
   63.6960   33.4660   47.0450 C   0  0  0  0  0  0  0  0  0  0  0  0
   64.9644   32.7341   51.1685 H   0  0  0  0  0  0  0  0  0  0  0  0
   64.1081   31.5000   50.1834 H   0  0  0  0  0  0  0  0  0  0  0  0
   65.9034   31.5617   50.1834 H   0  0  0  0  0  0  0  0  0  0  0  0
   62.7361   33.8380   50.3052 H   0  0  0  0  0  0  0  0  0  0  0  0
   60.6175   34.5221   49.1889 H   0  0  0  0  0  0  0  0  0  0  0  0
   59.4153   32.6494   48.0554 H   0  0  0  0  0  0  0  0  0  0  0  0
   57.6905   33.0496   47.6808 H   0  0  0  0  0  0  0  0  0  0  0  0
   59.3936   30.7490   46.7386 H   0  0  0  0  0  0  0  0  0  0  0  0
   57.6424   30.8156   47.2572 H   0  0  0  0  0  0  0  0  0  0  0  0
   58.8750   31.2121   44.5602 H   0  0  0  0  0  0  0  0  0  0  0  0
   55.7487   28.1388   46.0947 H   0  0  0  0  0  0  0  0  0  0  0  0
   56.3376   27.0709   44.7690 H   0  0  0  0  0  0  0  0  0  0  0  0
   58.3909   27.2979   46.8003 H   0  0  0  0  0  0  0  0  0  0  0  0
   56.8177   26.8333   47.5673 H   0  0  0  0  0  0  0  0  0  0  0  0
   59.7372   25.5456   46.2145 H   0  0  0  0  0  0  0  0  0  0  0  0
   60.0727   23.1987   45.4522 H   0  0  0  0  0  0  0  0  0  0  0  0
   58.1063   21.7492   44.9595 H   0  0  0  0  0  0  0  0  0  0  0  0
   55.7949   22.6350   45.2477 H   0  0  0  0  0  0  0  0  0  0  0  0
   53.3685   24.1949   46.5024 H   0  0  0  0  0  0  0  0  0  0  0  0
   53.3786   25.2142   45.0233 H   0  0  0  0  0  0  0  0  0  0  0  0
   54.2126   23.6233   45.0233 H   0  0  0  0  0  0  0  0  0  0  0  0
   56.9811   32.6054   43.7730 H   0  0  0  0  0  0  0  0  0  0  0  0
   56.4431   32.8077   45.4790 H   0  0  0  0  0  0  0  0  0  0  0  0
   58.9916   33.8148   44.1433 H   0  0  0  0  0  0  0  0  0  0  0  0
   57.7311   34.7376   45.0627 H   0  0  0  0  0  0  0  0  0  0  0  0
   62.4479   33.8585   45.3196 H   0  0  0  0  0  0  0  0  0  0  0  0
   64.5664   33.1765   46.4378 H   0  0  0  0  0  0  0  0  0  0  0  0
  1  2  1  0
  2  3  1  0
  3  4  2  0
  4  5  1  0
  5  6  2  0
  6  7  1  0
  7  8  2  0
  7  9  1  0
  9 10  1  0
 10 11  1  0
 11 12  1  0
 12 13  1  0
 13 14  2  0
 13 15  1  0
 15 16  1  0
 16 17  1  0
 17 18  1  0
 18 19  2  0
 19 20  1  0
 20 21  2  0
 21 22  1  0
 22 23  2  0
 23 24  1  0
 24 25  1  0
 12 26  1  0
 26 27  1  0
  6 28  1  0
 28 29  2  0
 29  3  1  0
 27  9  1  0
 23 18  1  0
  1 30  1  0
  1 31  1  0
  1 32  1  0
  4 33  1  0
  5 34  1  0
 10 35  1  0
 10 36  1  0
 11 37  1  0
 11 38  1  0
 12 39  1  0
 16 40  1  0
 16 41  1  0
 17 42  1  0
 17 43  1  0
 19 44  1  0
 20 45  1  0
 21 46  1  0
 22 47  1  0
 25 48  1  0
 25 49  1  0
 25 50  1  0
 26 51  1  0
 26 52  1  0
 27 53  1  0
 27 54  1  0
 28 55  1  0
 29 56  1  0
M  CHG  1  15  -1
M  END
>  <UniqueID>  (19) 
19

>  <SMILES>  (19) 
COc1ccc(C(=O)N2CCC(C(=O)[N-]CCc3ccccc3OC)CC2)cc1

>  <Energy>  (19) 
58.12809681392491

>  <Genealogy>  (19) 
COc1ccc(C(=O)N2CCC(C(=O)[N-]CCc3ccccc3OC)CC2)cc1 (protonated)
COc1ccc(C(=O)N2CCC(C(=O)[N-]CCc3ccccc3OC)CC2)cc1 (3D coordinates assigned)
COc1ccc(C(=O)N2CCC(C(=O)[N-]CCc3ccccc3OC)CC2)cc1 (nonaromatic ring conformer: 58.12809681392491 kcal/mol)

>  <smiles>  (19) 
COc1ccc(C(=O)N2CCC(C(=O)NCCc3ccccc3OC)CC2)cc1

>  <score_type>  (19) 
oracle

>  <origin>  (19) 
adg

>  <m_score__min__energy>  (19) 
-10.48

>  <m_primary>  (19) 
energy

$$$$
19:0
     RDKit          3D

 37 38  0  0  0  0  0  0  0  0999 V2000
   57.3800   25.2350   43.3820 C   0  0  0  0  0  0  0  0  0  0  0  0
   56.4860   24.3580   44.1550 N   0  0  0  0  0  0  0  0  0  0  0  0
   56.7350   22.9430   43.8410 C   0  0  0  0  0  0  0  0  0  0  0  0
   56.5410   24.6320   45.6080 C   0  0  0  0  0  0  0  0  0  0  0  0
   55.8290   25.9070   46.0090 C   0  0  0  0  0  0  0  0  0  0  0  0
   54.5750   25.9570   45.9290 O   0  0  0  0  0  0  0  0  0  0  0  0
   56.5440   27.0960   46.3710 N   0  0  0  0  0  0  0  0  0  0  0  0
   57.8710   27.4400   45.9520 C   0  0  0  0  0  0  0  0  0  0  0  0
   58.9890   26.7980   46.5090 C   0  0  0  0  0  0  0  0  0  0  0  0
   60.2800   27.1620   46.1160 C   0  0  0  0  0  0  0  0  0  0  0  0
   60.4650   28.1790   45.1780 C   0  0  0  0  0  0  0  0  0  0  0  0
   59.3610   28.8420   44.6390 C   0  0  0  0  0  0  0  0  0  0  0  0
   58.0630   28.4880   45.0330 C   0  0  0  0  0  0  0  0  0  0  0  0
   56.6630   29.3640   44.3240 S   0  0  0  0  0  0  0  0  0  0  0  0
   57.4050   30.9740   44.5970 C   0  0  0  0  0  0  0  0  0  0  0  0
   57.6020   31.8480   43.5190 C   0  0  0  0  0  0  0  0  0  0  0  0
   58.1840   33.1010   43.7320 C   0  0  0  0  0  0  0  0  0  0  0  0
   58.5650   33.4870   45.0210 C   0  0  0  0  0  0  0  0  0  0  0  0
   58.3630   32.6200   46.0990 C   0  0  0  0  0  0  0  0  0  0  0  0
   57.7810   31.3660   45.8890 C   0  0  0  0  0  0  0  0  0  0  0  0
   57.9916   25.8350   44.0719 H   0  0  0  0  0  0  0  0  0  0  0  0
   58.0373   24.6216   42.7482 H   0  0  0  0  0  0  0  0  0  0  0  0
   56.7794   25.9039   42.7482 H   0  0  0  0  0  0  0  0  0  0  0  0
   56.8355   22.3721   44.7759 H   0  0  0  0  0  0  0  0  0  0  0  0
   55.8933   22.5436   43.2561 H   0  0  0  0  0  0  0  0  0  0  0  0
   57.6624   22.8549   43.2561 H   0  0  0  0  0  0  0  0  0  0  0  0
   56.0732   23.7900   46.1392 H   0  0  0  0  0  0  0  0  0  0  0  0
   57.6011   24.7556   45.8743 H   0  0  0  0  0  0  0  0  0  0  0  0
   58.8480   26.0049   47.2581 H   0  0  0  0  0  0  0  0  0  0  0  0
   61.1512   26.6464   46.5464 H   0  0  0  0  0  0  0  0  0  0  0  0
   61.4814   28.4582   44.8633 H   0  0  0  0  0  0  0  0  0  0  0  0
   59.5101   29.6452   43.9024 H   0  0  0  0  0  0  0  0  0  0  0  0
   57.2986   31.5478   42.5052 H   0  0  0  0  0  0  0  0  0  0  0  0
   58.3425   33.7842   42.8846 H   0  0  0  0  0  0  0  0  0  0  0  0
   59.0237   34.4730   45.1868 H   0  0  0  0  0  0  0  0  0  0  0  0
   58.6620   32.9244   47.1128 H   0  0  0  0  0  0  0  0  0  0  0  0
   57.6181   30.6866   46.7386 H   0  0  0  0  0  0  0  0  0  0  0  0
  1  2  1  0
  2  3  1  0
  2  4  1  0
  4  5  1  0
  5  6  2  0
  5  7  1  0
  7  8  1  0
  8  9  2  0
  9 10  1  0
 10 11  2  0
 11 12  1  0
 12 13  2  0
 13 14  1  0
 14 15  1  0
 15 16  2  0
 16 17  1  0
 17 18  2  0
 18 19  1  0
 19 20  2  0
 13  8  1  0
 20 15  1  0
  1 21  1  0
  1 22  1  0
  1 23  1  0
  3 24  1  0
  3 25  1  0
  3 26  1  0
  4 27  1  0
  4 28  1  0
  9 29  1  0
 10 30  1  0
 11 31  1  0
 12 32  1  0
 16 33  1  0
 17 34  1  0
 18 35  1  0
 19 36  1  0
 20 37  1  0
M  CHG  1   7  -1
M  END
>  <UniqueID>  (20) 
20

>  <SMILES>  (20) 
CN(C)CC(=O)[N-]c1ccccc1Sc1ccccc1

>  <Energy>  (20) 
39.391247926755554

>  <Genealogy>  (20) 
CN(C)CC(=O)[N-]c1ccccc1Sc1ccccc1 (protonated)
CN(C)CC(=O)[N-]c1ccccc1Sc1ccccc1 (3D coordinates assigned)
CN(C)CC(=O)[N-]c1ccccc1Sc1ccccc1 (optimized conformer: 39.391247926755554 kcal/mol)

>  <smiles>  (20) 
CN(C)CC(=O)Nc1ccccc1Sc1ccccc1

>  <score_type>  (20) 
oracle

>  <origin>  (20) 
adg

>  <m_score__min__energy>  (20) 
-9.0500000000000007

>  <m_primary>  (20) 
energy

$$$$
20:0
     RDKit          3D

 39 43  0  0  0  0  0  0  0  0999 V2000
   66.5930   33.4520   51.2610 Cl  0  0  0  0  0  0  0  0  0  0  0  0
   65.0200   33.4570   50.4870 C   0  0  0  0  0  0  0  0  0  0  0  0
   64.8120   32.7180   49.3170 C   0  0  0  0  0  0  0  0  0  0  0  0
   63.5580   32.7200   48.6990 C   0  0  0  0  0  0  0  0  0  0  0  0
   62.5010   33.4720   49.2400 C   0  0  0  0  0  0  0  0  0  0  0  0
   61.1620   33.4680   48.6110 C   0  0  0  0  0  0  0  0  0  0  0  0
   61.0010   34.0180   47.3700 N   0  0  0  0  0  0  0  0  0  0  0  0
   59.7850   34.0480   46.7470 C   0  0  0  0  0  0  0  0  0  0  0  0
   59.6350   34.6180   45.4800 C   0  0  0  0  0  0  0  0  0  0  0  0
   58.3730   34.6260   44.8760 C   0  0  0  0  0  0  0  0  0  0  0  0
   57.2810   34.0630   45.5470 C   0  0  0  0  0  0  0  0  0  0  0  0
   57.4420   33.5100   46.7800 N   0  0  0  0  0  0  0  0  0  0  0  0
   58.6590   33.4940   47.3880 C   0  0  0  0  0  0  0  0  0  0  0  0
   58.8350   32.9390   48.6130 N   0  0  0  0  0  0  0  0  0  0  0  0
   57.9180   32.3330   49.3450 N   0  0  0  0  0  0  0  0  0  0  0  0
   58.5390   31.8910   50.4640 C   0  0  0  0  0  0  0  0  0  0  0  0
   57.8450   31.1450   51.5420 C   0  0  0  0  0  0  0  0  0  0  0  0
   58.4620   30.0230   52.1280 C   0  0  0  0  0  0  0  0  0  0  0  0
   57.8200   29.3090   53.1440 C   0  0  0  0  0  0  0  0  0  0  0  0
   56.5570   29.7050   53.5880 C   0  0  0  0  0  0  0  0  0  0  0  0
   55.9330   30.8150   53.0160 C   0  0  0  0  0  0  0  0  0  0  0  0
   56.5700   31.5330   51.9990 C   0  0  0  0  0  0  0  0  0  0  0  0
   59.8940   32.2300   50.4220 C   0  0  0  0  0  0  0  0  0  0  0  0
   60.0280   32.9070   49.2270 C   0  0  0  0  0  0  0  0  0  0  0  0
   62.7120   34.1950   50.4260 C   0  0  0  0  0  0  0  0  0  0  0  0
   63.9680   34.1910   51.0420 C   0  0  0  0  0  0  0  0  0  0  0  0
   65.6370   32.1343   48.8826 H   0  0  0  0  0  0  0  0  0  0  0  0
   63.3977   32.1300   47.7846 H   0  0  0  0  0  0  0  0  0  0  0  0
   60.5010   35.0563   44.9624 H   0  0  0  0  0  0  0  0  0  0  0  0
   58.2396   35.0722   43.8794 H   0  0  0  0  0  0  0  0  0  0  0  0
   56.2874   34.0676   45.0751 H   0  0  0  0  0  0  0  0  0  0  0  0
   59.4573   29.7058   51.7835 H   0  0  0  0  0  0  0  0  0  0  0  0
   58.3108   28.4336   53.5944 H   0  0  0  0  0  0  0  0  0  0  0  0
   56.0538   29.1425   54.3883 H   0  0  0  0  0  0  0  0  0  0  0  0
   54.9376   31.1257   53.3662 H   0  0  0  0  0  0  0  0  0  0  0  0
   56.0723   32.4066   51.5528 H   0  0  0  0  0  0  0  0  0  0  0  0
   60.6721   32.0088   51.1674 H   0  0  0  0  0  0  0  0  0  0  0  0
   61.8854   34.7671   50.8725 H   0  0  0  0  0  0  0  0  0  0  0  0
   64.1280   34.7669   51.9654 H   0  0  0  0  0  0  0  0  0  0  0  0
  1  2  1  0
  2  3  2  0
  3  4  1  0
  4  5  2  0
  5  6  1  0
  6  7  2  0
  7  8  1  0
  8  9  2  0
  9 10  1  0
 10 11  2  0
 11 12  1  0
 12 13  2  0
 13 14  1  0
 14 15  1  0
 15 16  2  0
 16 17  1  0
 17 18  2  0
 18 19  1  0
 19 20  2  0
 20 21  1  0
 21 22  2  0
 16 23  1  0
 23 24  2  0
  5 25  1  0
 25 26  2  0
 26  2  1  0
 24  6  1  0
 13  8  1  0
 24 14  1  0
 22 17  1  0
  3 27  1  0
  4 28  1  0
  9 29  1  0
 10 30  1  0
 11 31  1  0
 18 32  1  0
 19 33  1  0
 20 34  1  0
 21 35  1  0
 22 36  1  0
 23 37  1  0
 25 38  1  0
 26 39  1  0
M  END
>  <UniqueID>  (21) 
21

>  <SMILES>  (21) 
Clc1ccc(-c2nc3cccnc3n3nc(-c4ccccc4)cc23)cc1

>  <Energy>  (21) 
92.63991154821181

>  <Genealogy>  (21) 
Clc1ccc(-c2nc3cccnc3n3nc(-c4ccccc4)cc23)cc1 (3D coordinates assigned)
Clc1ccc(-c2nc3cccnc3n3nc(-c4ccccc4)cc23)cc1 (optimized conformer: 92.63991154821181 kcal/mol)

>  <smiles>  (21) 
Clc1ccc(-c2nc3cccnc3n3nc(-c4ccccc4)cc23)cc1

>  <score_type>  (21) 
oracle

>  <origin>  (21) 
adg

>  <m_score__min__energy>  (21) 
-7.7699999999999996

>  <m_primary>  (21) 
energy

$$$$
21:0
     RDKit          3D

 67 72  0  0  0  0  0  0  0  0999 V2000
   57.9170   29.1320   54.1320 C   0  0  0  0  0  0  0  0  0  0  0  0
   56.6540   29.6080   53.4640 C   0  0  0  0  0  0  0  0  0  0  0  0
   55.5030   28.8040   53.5330 C   0  0  0  0  0  0  0  0  0  0  0  0
   54.3210   29.1990   52.9010 C   0  0  0  0  0  0  0  0  0  0  0  0
   53.2210   28.4060   52.9670 F   0  0  0  0  0  0  0  0  0  0  0  0
   54.2730   30.4030   52.1980 C   0  0  0  0  0  0  0  0  0  0  0  0
   55.4010   31.2230   52.1360 C   0  0  0  0  0  0  0  0  0  0  0  0
   56.5940   30.8470   52.7750 C   0  0  0  0  0  0  0  0  0  0  0  0
   57.7580   31.7590   52.6990 C   0  0  0  0  0  0  0  0  0  0  0  0
   58.1210   32.5300   53.8120 C   0  0  0  0  0  0  0  0  0  0  0  0
   59.2090   33.4000   53.7380 C   0  0  0  0  0  0  0  0  0  0  0  0
   59.9460   33.5060   52.5570 C   0  0  0  0  0  0  0  0  0  0  0  0
   59.6110   32.7290   51.4340 C   0  0  0  0  0  0  0  0  0  0  0  0
   60.3810   32.8510   50.1730 C   0  0  0  0  0  0  0  0  0  0  0  0
   59.7290   32.8410   48.9650 N   0  0  0  0  0  0  0  0  0  0  0  0
   60.3930   32.9810   47.7800 C   0  0  0  0  0  0  0  0  0  0  0  0
   59.6710   32.9580   46.5410 N   0  0  0  0  0  0  0  0  0  0  0  0
   59.6720   34.0630   45.5970 C   0  0  0  0  0  0  0  0  0  0  0  0
   58.6920   33.6610   44.5020 C   0  0  0  0  0  0  0  0  0  0  0  0
   57.7960   32.5860   45.1290 C   0  0  1  0  0  0  0  0  0  0  0  0
   57.3350   31.5390   44.1020 C   0  0  0  0  0  0  0  0  0  0  0  0
   56.3820   30.6750   44.6690 O   0  0  0  0  0  0  0  0  0  0  0  0
   58.6240   31.9870   46.2700 C   0  0  0  0  0  0  0  0  0  0  0  0
   61.7780   33.1280   47.8360 C   0  0  0  0  0  0  0  0  0  0  0  0
   62.7770   33.2010   46.8880 C   0  0  0  0  0  0  0  0  0  0  0  0
   63.9590   33.2540   47.5460 N   0  0  0  0  0  0  0  0  0  0  0  0
   63.7510   33.2170   48.8590 N   0  0  0  0  0  0  0  0  0  0  0  0
   64.8510   33.1120   49.8370 C   0  0  0  0  0  0  0  0  0  0  0  0
   64.6050   33.9180   51.1360 C   0  0  0  0  0  0  0  0  0  0  0  0
   64.3430   32.9970   52.3390 C   0  0  0  0  0  0  0  0  0  0  0  0
   63.4930   31.9340   51.9690 O   0  0  0  0  0  0  0  0  0  0  0  0
   64.1550   31.0090   51.1170 C   0  0  0  0  0  0  0  0  0  0  0  0
   65.1690   31.6380   50.1340 C   0  0  0  0  0  0  0  0  0  0  0  0
   62.4160   33.1230   49.0390 C   0  0  0  0  0  0  0  0  0  0  0  0
   61.7430   32.9850   50.2070 N   0  0  0  0  0  0  0  0  0  0  0  0
   58.5170   31.8480   51.5200 C   0  0  0  0  0  0  0  0  0  0  0  0
   57.7940   29.1783   55.2241 H   0  0  0  0  0  0  0  0  0  0  0  0
   58.1230   28.0946   53.8299 H   0  0  0  0  0  0  0  0  0  0  0  0
   58.7565   29.7754   53.8299 H   0  0  0  0  0  0  0  0  0  0  0  0
   55.5330   27.8556   54.0894 H   0  0  0  0  0  0  0  0  0  0  0  0
   53.3448   30.7067   51.6917 H   0  0  0  0  0  0  0  0  0  0  0  0
   55.3552   32.1721   51.5818 H   0  0  0  0  0  0  0  0  0  0  0  0
   57.5463   32.4488   54.7464 H   0  0  0  0  0  0  0  0  0  0  0  0
   59.4873   34.0049   54.6136 H   0  0  0  0  0  0  0  0  0  0  0  0
   60.7955   34.2029   52.5046 H   0  0  0  0  0  0  0  0  0  0  0  0
   59.3407   34.9895   46.0888 H   0  0  0  0  0  0  0  0  0  0  0  0
   60.6775   34.2565   45.1950 H   0  0  0  0  0  0  0  0  0  0  0  0
   58.0910   34.5268   44.1871 H   0  0  0  0  0  0  0  0  0  0  0  0
   59.2108   33.2885   43.6064 H   0  0  0  0  0  0  0  0  0  0  0  0
   56.8542   33.0096   45.5080 H   0  0  0  0  0  0  0  0  0  0  0  0
   56.8883   32.0526   43.2379 H   0  0  0  0  0  0  0  0  0  0  0  0
   58.2058   30.9467   43.7846 H   0  0  0  0  0  0  0  0  0  0  0  0
   56.6190   30.5800   45.6290 H   0  0  0  0  0  0  0  0  0  0  0  0
   57.9979   31.8376   47.1620 H   0  0  0  0  0  0  0  0  0  0  0  0
   59.0385   31.0042   46.0012 H   0  0  0  0  0  0  0  0  0  0  0  0
   62.6387   33.2138   45.7968 H   0  0  0  0  0  0  0  0  0  0  0  0
   64.9010   33.2720   47.0930 H   0  0  0  0  0  0  0  0  0  0  0  0
   65.7322   33.5762   49.3702 H   0  0  0  0  0  0  0  0  0  0  0  0
   65.4917   34.5342   51.3459 H   0  0  0  0  0  0  0  0  0  0  0  0
   63.7140   34.5452   50.9854 H   0  0  0  0  0  0  0  0  0  0  0  0
   65.2993   32.5884   52.6976 H   0  0  0  0  0  0  0  0  0  0  0  0
   63.8584   33.5803   53.1358 H   0  0  0  0  0  0  0  0  0  0  0  0
   64.6943   30.2882   51.7491 H   0  0  0  0  0  0  0  0  0  0  0  0
   63.3724   30.5461   50.4979 H   0  0  0  0  0  0  0  0  0  0  0  0
   66.1752   31.5742   50.5738 H   0  0  0  0  0  0  0  0  0  0  0  0
   65.1106   31.0821   49.1866 H   0  0  0  0  0  0  0  0  0  0  0  0
   58.2532   31.2222   50.6547 H   0  0  0  0  0  0  0  0  0  0  0  0
  1  2  1  0
  2  3  2  0
  3  4  1  0
  4  5  1  0
  4  6  2  0
  6  7  1  0
  7  8  2  0
  8  9  1  0
  9 10  2  0
 10 11  1  0
 11 12  2  0
 12 13  1  0
 13 14  1  0
 14 15  2  0
 15 16  1  0
 16 17  1  0
 17 18  1  0
 18 19  1  0
 19 20  1  0
 20 21  1  0
 21 22  1  0
 20 23  1  0
 16 24  2  0
 24 25  1  0
 25 26  2  0
 26 27  1  0
 27 28  1  0
 28 29  1  0
 29 30  1  0
 30 31  1  0
 31 32  1  0
 32 33  1  0
 27 34  1  0
 34 35  2  0
 13 36  2  0
  8  2  1  0
 36  9  1  0
 35 14  1  0
 23 17  1  0
 34 24  1  0
 33 28  1  0
  1 37  1  0
  1 38  1  0
  1 39  1  0
  3 40  1  0
  6 41  1  0
  7 42  1  0
 10 43  1  0
 11 44  1  0
 12 45  1  0
 18 46  1  0
 18 47  1  0
 19 48  1  0
 19 49  1  0
 20 50  1  1
 21 51  1  0
 21 52  1  0
 22 53  1  0
 23 54  1  0
 23 55  1  0
 25 56  1  0
 26 57  1  0
 28 58  1  0
 29 59  1  0
 29 60  1  0
 30 61  1  0
 30 62  1  0
 32 63  1  0
 32 64  1  0
 33 65  1  0
 33 66  1  0
 36 67  1  0
M  CHG  1  26   1
M  END
>  <UniqueID>  (22) 
22

>  <SMILES>  (22) 
Cc1cc(F)ccc1-c1cccc(-c2nc(N3CC[C@@H](CO)C3)c3c[nH+]n(C4CCOCC4)c3n2)c1

>  <Energy>  (22) 
136.02224568631686

>  <Genealogy>  (22) 
Cc1cc(F)ccc1-c1cccc(-c2nc(N3CCC(CO)C3)c3c[nH+]n(C4CCOCC4)c3n2)c1 (protonated)
Cc1cc(F)ccc1-c1cccc(-c2nc(N3CC[C@@H](CO)C3)c3c[nH+]n(C4CCOCC4)c3n2)c1 (chirality)
Cc1cc(F)ccc1-c1cccc(-c2nc(N3CC[C@@H](CO)C3)c3c[nH+]n(C4CCOCC4)c3n2)c1 (3D coordinates assigned)
Cc1cc(F)ccc1-c1cccc(-c2nc(N3CC[C@@H](CO)C3)c3c[nH+]n(C4CCOCC4)c3n2)c1 (nonaromatic ring conformer: 136.02224568631686 kcal/mol)

>  <smiles>  (22) 
Cc1cc(F)ccc1-c1cccc(-c2nc(N3CCC(CO)C3)c3cnn(C4CCOCC4)c3n2)c1

>  <score_type>  (22) 
oracle

>  <origin>  (22) 
adg

>  <m_score__min__energy>  (22) 
-8.2599999999999998

>  <m_primary>  (22) 
energy

$$$$
22:0
     RDKit          3D

 38 39  0  0  0  0  0  0  0  0999 V2000
   64.0970   33.1480   48.5010 C   0  0  0  0  0  0  0  0  0  0  0  0
   63.3100   33.3870   47.2120 C   0  0  0  0  0  0  0  0  0  0  0  0
   61.9110   32.8990   47.2980 N   0  0  0  0  0  0  0  0  0  0  0  0
   61.9240   31.4450   47.5950 C   0  0  0  0  0  0  0  0  0  0  0  0
   60.8490   30.7050   46.8010 C   0  0  0  0  0  0  0  0  0  0  0  0
   61.1340   33.6460   48.3250 C   0  0  0  0  0  0  0  0  0  0  0  0
   60.1860   34.6640   47.6770 C   0  0  0  0  0  0  0  0  0  0  0  0
   58.9070   34.0880   47.4110 O   0  0  0  0  0  0  0  0  0  0  0  0
   58.5130   33.4450   46.2270 C   0  0  0  0  0  0  0  0  0  0  0  0
   58.8720   34.0370   45.0100 C   0  0  0  0  0  0  0  0  0  0  0  0
   58.4950   33.4620   43.7930 C   0  0  0  0  0  0  0  0  0  0  0  0
   57.7520   32.2710   43.7790 C   0  0  0  0  0  0  0  0  0  0  0  0
   57.3440   31.6540   42.5840 C   0  0  0  0  0  0  0  0  0  0  0  0
   57.6310   32.1530   41.4620 O   0  0  0  0  0  0  0  0  0  0  0  0
   56.6070   30.4710   42.6430 C   0  0  0  0  0  0  0  0  0  0  0  0
   56.2950   29.9280   43.8920 C   0  0  0  0  0  0  0  0  0  0  0  0
   56.6920   30.5290   45.0080 O   0  0  0  0  0  0  0  0  0  0  0  0
   57.3950   31.6590   45.0020 C   0  0  0  0  0  0  0  0  0  0  0  0
   57.7800   32.2420   46.2140 C   0  0  0  0  0  0  0  0  0  0  0  0
   63.4492   33.3447   49.3680 H   0  0  0  0  0  0  0  0  0  0  0  0
   64.4430   32.1043   48.5312 H   0  0  0  0  0  0  0  0  0  0  0  0
   64.9650   33.8231   48.5312 H   0  0  0  0  0  0  0  0  0  0  0  0
   63.2941   34.4671   47.0042 H   0  0  0  0  0  0  0  0  0  0  0  0
   63.8094   32.8262   46.4082 H   0  0  0  0  0  0  0  0  0  0  0  0
   62.9099   31.0346   47.3315 H   0  0  0  0  0  0  0  0  0  0  0  0
   61.7186   31.3085   48.6670 H   0  0  0  0  0  0  0  0  0  0  0  0
   60.1470   30.2217   47.4964 H   0  0  0  0  0  0  0  0  0  0  0  0
   60.3037   31.4200   46.1674 H   0  0  0  0  0  0  0  0  0  0  0  0
   61.3222   29.9404   46.1674 H   0  0  0  0  0  0  0  0  0  0  0  0
   60.5424   32.9316   48.9163 H   0  0  0  0  0  0  0  0  0  0  0  0
   61.8418   34.1910   48.9668 H   0  0  0  0  0  0  0  0  0  0  0  0
   60.0591   35.5188   48.3576 H   0  0  0  0  0  0  0  0  0  0  0  0
   60.6256   34.9877   46.7220 H   0  0  0  0  0  0  0  0  0  0  0  0
   59.4588   34.9674   45.0116 H   0  0  0  0  0  0  0  0  0  0  0  0
   58.7806   33.9429   42.8458 H   0  0  0  0  0  0  0  0  0  0  0  0
   56.2763   29.9729   41.7196 H   0  0  0  0  0  0  0  0  0  0  0  0
   55.7156   28.9948   43.9516 H   0  0  0  0  0  0  0  0  0  0  0  0
   57.5085   31.7577   47.1636 H   0  0  0  0  0  0  0  0  0  0  0  0
  1  2  1  0
  2  3  1  0
  3  4  1  0
  4  5  1  0
  3  6  1  0
  6  7  1  0
  7  8  1  0
  8  9  1  0
  9 10  2  0
 10 11  1  0
 11 12  2  0
 12 13  1  0
 13 14  2  0
 13 15  1  0
 15 16  2  0
 16 17  1  0
 17 18  1  0
 18 19  2  0
 19  9  1  0
 18 12  1  0
  1 20  1  0
  1 21  1  0
  1 22  1  0
  2 23  1  0
  2 24  1  0
  4 25  1  0
  4 26  1  0
  5 27  1  0
  5 28  1  0
  5 29  1  0
  6 30  1  0
  6 31  1  0
  7 32  1  0
  7 33  1  0
 10 34  1  0
 11 35  1  0
 15 36  1  0
 16 37  1  0
 19 38  1  0
M  END
>  <UniqueID>  (23) 
23

>  <SMILES>  (23) 
CCN(CC)CCOc1ccc2c(=O)ccoc2c1

>  <Energy>  (23) 
42.05991648471827

>  <Genealogy>  (23) 
CCN(CC)CCOc1ccc2c(=O)ccoc2c1 (3D coordinates assigned)
CCN(CC)CCOc1ccc2c(=O)ccoc2c1 (optimized conformer: 42.05991648471827 kcal/mol)

>  <smiles>  (23) 
CCN(CC)CCOc1ccc2c(=O)ccoc2c1

>  <score_type>  (23) 
oracle

>  <origin>  (23) 
adg

>  <m_score__min__energy>  (23) 
-6.1399999999999997

>  <m_primary>  (23) 
energy

$$$$
23:0
     RDKit          3D

 30 32  0  0  0  0  0  0  0  0999 V2000
   55.9850   24.1540   45.1260 C   0  0  0  0  0  0  0  0  0  0  0  0
   56.0190   24.9560   46.3010 O   0  0  0  0  0  0  0  0  0  0  0  0
   56.6370   26.2100   46.3430 C   0  0  0  0  0  0  0  0  0  0  0  0
   57.7560   26.3950   47.1600 C   0  0  0  0  0  0  0  0  0  0  0  0
   58.3790   27.6450   47.2060 C   0  0  0  0  0  0  0  0  0  0  0  0
   57.8800   28.7000   46.4320 C   0  0  0  0  0  0  0  0  0  0  0  0
   58.4740   29.9670   46.4510 C   0  0  0  0  0  0  0  0  0  0  0  0
   57.9380   30.9980   45.6550 C   0  0  0  0  0  0  0  0  0  0  0  0
   58.5290   32.3600   45.6410 C   0  0  0  0  0  0  0  0  0  0  0  0
   57.9130   33.3820   44.8940 C   0  0  0  0  0  0  0  0  0  0  0  0
   58.4600   34.6690   44.8650 C   0  0  0  0  0  0  0  0  0  0  0  0
   59.6300   34.9490   45.5730 C   0  0  0  0  0  0  0  0  0  0  0  0
   60.2590   33.9420   46.3090 C   0  0  0  0  0  0  0  0  0  0  0  0
   61.4040   34.2120   46.9840 F   0  0  0  0  0  0  0  0  0  0  0  0
   59.7160   32.6540   46.3420 C   0  0  0  0  0  0  0  0  0  0  0  0
   56.8360   30.7420   44.8920 N   0  0  0  0  0  0  0  0  0  0  0  0
   56.2400   29.5210   44.8550 C   0  0  0  0  0  0  0  0  0  0  0  0
   56.7500   28.4740   45.6230 C   0  0  0  0  0  0  0  0  0  0  0  0
   56.1610   27.2470   45.5970 N   0  0  0  0  0  0  0  0  0  0  0  0
   55.9400   23.0918   45.4083 H   0  0  0  0  0  0  0  0  0  0  0  0
   55.0970   24.4132   44.5307 H   0  0  0  0  0  0  0  0  0  0  0  0
   56.8917   24.3371   44.5307 H   0  0  0  0  0  0  0  0  0  0  0  0
   58.1441   25.5612   47.7634 H   0  0  0  0  0  0  0  0  0  0  0  0
   59.2586   27.7998   47.8482 H   0  0  0  0  0  0  0  0  0  0  0  0
   59.3538   30.1565   47.0835 H   0  0  0  0  0  0  0  0  0  0  0  0
   56.9943   33.1667   44.3287 H   0  0  0  0  0  0  0  0  0  0  0  0
   57.9673   35.4619   44.2832 H   0  0  0  0  0  0  0  0  0  0  0  0
   60.0567   35.9626   45.5514 H   0  0  0  0  0  0  0  0  0  0  0  0
   60.2189   31.8642   46.9193 H   0  0  0  0  0  0  0  0  0  0  0  0
   55.3565   29.3586   44.2202 H   0  0  0  0  0  0  0  0  0  0  0  0
  1  2  1  0
  2  3  1  0
  3  4  2  0
  4  5  1  0
  5  6  2  0
  6  7  1  0
  7  8  2  0
  8  9  1  0
  9 10  2  0
 10 11  1  0
 11 12  2  0
 12 13  1  0
 13 14  1  0
 13 15  2  0
  8 16  1  0
 16 17  2  0
 17 18  1  0
 18 19  2  0
 19  3  1  0
 18  6  1  0
 15  9  1  0
  1 20  1  0
  1 21  1  0
  1 22  1  0
  4 23  1  0
  5 24  1  0
  7 25  1  0
 10 26  1  0
 11 27  1  0
 12 28  1  0
 15 29  1  0
 17 30  1  0
M  END
>  <UniqueID>  (24) 
24

>  <SMILES>  (24) 
COc1ccc2cc(-c3cccc(F)c3)ncc2n1

>  <Energy>  (24) 
38.57340084374264

>  <Genealogy>  (24) 
COc1ccc2cc(-c3cccc(F)c3)ncc2n1 (3D coordinates assigned)
COc1ccc2cc(-c3cccc(F)c3)ncc2n1 (optimized conformer: 38.57340084374264 kcal/mol)

>  <smiles>  (24) 
COc1ccc2cc(-c3cccc(F)c3)ncc2n1

>  <score_type>  (24) 
oracle

>  <origin>  (24) 
adg

>  <m_score__min__energy>  (24) 
-6.4400000000000004

>  <m_primary>  (24) 
energy

$$$$
24:0
     RDKit          3D

 48 50  0  0  0  0  0  0  0  0999 V2000
   59.2490   30.5960   48.7660 C   0  0  0  0  0  0  0  0  0  0  0  0
   58.5850   31.9510   48.9940 C   0  0  0  0  0  0  0  0  0  0  0  0
   58.8930   32.9150   47.8500 C   0  0  0  0  0  0  0  0  0  0  0  0
   58.5020   32.5820   46.5140 C   0  0  0  0  0  0  0  0  0  0  0  0
   57.7720   31.4140   46.1900 C   0  0  0  0  0  0  0  0  0  0  0  0
   57.4290   31.1120   44.8590 C   0  0  0  0  0  0  0  0  0  0  0  0
   56.7110   29.9530   44.5170 O   0  0  0  0  0  0  0  0  0  0  0  0
   57.2460   28.8520   43.7910 C   0  0  0  0  0  0  0  0  0  0  0  0
   57.8020   31.9830   43.8300 C   0  0  0  0  0  0  0  0  0  0  0  0
   57.4480   31.6470   42.5130 O   0  0  0  0  0  0  0  0  0  0  0  0
   57.8720   32.3600   41.3550 C   0  0  0  0  0  0  0  0  0  0  0  0
   58.5070   33.1570   44.1370 C   0  0  0  0  0  0  0  0  0  0  0  0
   58.8470   33.4610   45.4630 C   0  0  0  0  0  0  0  0  0  0  0  0
   59.5220   34.6440   45.7430 C   0  0  0  0  0  0  0  0  0  0  0  0
   59.8370   34.9630   47.0540 C   0  0  0  0  0  0  0  0  0  0  0  0
   59.5260   34.1260   48.0900 N   0  0  0  0  0  0  0  0  0  0  0  0
   59.9240   34.5900   49.4380 C   0  0  0  0  0  0  0  0  0  0  0  0
   61.0970   33.7680   50.0000 C   0  0  0  0  0  0  0  0  0  0  0  0
   62.0400   33.3050   48.9220 C   0  0  0  0  0  0  0  0  0  0  0  0
   62.0550   31.9580   48.5240 C   0  0  0  0  0  0  0  0  0  0  0  0
   62.8960   31.5390   47.4890 C   0  0  0  0  0  0  0  0  0  0  0  0
   63.7260   32.4610   46.8430 C   0  0  0  0  0  0  0  0  0  0  0  0
   63.7160   33.8030   47.2330 C   0  0  0  0  0  0  0  0  0  0  0  0
   62.8770   34.2260   48.2680 C   0  0  0  0  0  0  0  0  0  0  0  0
   59.4767   30.1313   49.7367 H   0  0  0  0  0  0  0  0  0  0  0  0
   58.5679   29.9448   48.1985 H   0  0  0  0  0  0  0  0  0  0  0  0
   60.1810   30.7352   48.1985 H   0  0  0  0  0  0  0  0  0  0  0  0
   57.4961   31.8104   49.0617 H   0  0  0  0  0  0  0  0  0  0  0  0
   58.9788   32.3799   49.9273 H   0  0  0  0  0  0  0  0  0  0  0  0
   57.4666   30.7286   46.9943 H   0  0  0  0  0  0  0  0  0  0  0  0
   57.6151   28.0925   44.4960 H   0  0  0  0  0  0  0  0  0  0  0  0
   56.4604   28.4137   43.1580 H   0  0  0  0  0  0  0  0  0  0  0  0
   58.0760   29.1988   43.1580 H   0  0  0  0  0  0  0  0  0  0  0  0
   58.4121   33.2682   41.6609 H   0  0  0  0  0  0  0  0  0  0  0  0
   58.5376   31.7221   40.7549 H   0  0  0  0  0  0  0  0  0  0  0  0
   56.9937   32.6403   40.7549 H   0  0  0  0  0  0  0  0  0  0  0  0
   58.7958   33.8457   43.3293 H   0  0  0  0  0  0  0  0  0  0  0  0
   59.8050   35.3244   44.9263 H   0  0  0  0  0  0  0  0  0  0  0  0
   60.3497   35.9126   47.2668 H   0  0  0  0  0  0  0  0  0  0  0  0
   60.2259   35.6460   49.3767 H   0  0  0  0  0  0  0  0  0  0  0  0
   59.0636   34.4642   50.1116 H   0  0  0  0  0  0  0  0  0  0  0  0
   61.6552   34.3911   50.7142 H   0  0  0  0  0  0  0  0  0  0  0  0
   60.6785   32.8747   50.4867 H   0  0  0  0  0  0  0  0  0  0  0  0
   61.4026   31.2302   49.0286 H   0  0  0  0  0  0  0  0  0  0  0  0
   62.9050   30.4827   47.1822 H   0  0  0  0  0  0  0  0  0  0  0  0
   64.3865   32.1299   46.0281 H   0  0  0  0  0  0  0  0  0  0  0  0
   64.3693   34.5275   46.7248 H   0  0  0  0  0  0  0  0  0  0  0  0
   62.8717   35.2832   48.5718 H   0  0  0  0  0  0  0  0  0  0  0  0
  1  2  1  0
  2  3  1  0
  3  4  2  0
  4  5  1  0
  5  6  2  0
  6  7  1  0
  7  8  1  0
  6  9  1  0
  9 10  1  0
 10 11  1  0
  9 12  2  0
 12 13  1  0
 13 14  2  0
 14 15  1  0
 15 16  2  0
 16 17  1  0
 17 18  1  0
 18 19  1  0
 19 20  2  0
 20 21  1  0
 21 22  2  0
 22 23  1  0
 23 24  2  0
 16  3  1  0
 24 19  1  0
 13  4  1  0
  1 25  1  0
  1 26  1  0
  1 27  1  0
  2 28  1  0
  2 29  1  0
  5 30  1  0
  8 31  1  0
  8 32  1  0
  8 33  1  0
 11 34  1  0
 11 35  1  0
 11 36  1  0
 12 37  1  0
 14 38  1  0
 15 39  1  0
 17 40  1  0
 17 41  1  0
 18 42  1  0
 18 43  1  0
 20 44  1  0
 21 45  1  0
 22 46  1  0
 23 47  1  0
 24 48  1  0
M  CHG  1  16   1
M  END
>  <UniqueID>  (25) 
25

>  <SMILES>  (25) 
CCc1c2cc(OC)c(OC)cc2cc[n+]1CCc1ccccc1

>  <Energy>  (25) 
54.48166144477872

>  <Genealogy>  (25) 
CCc1c2cc(OC)c(OC)cc2cc[n+]1CCc1ccccc1 (3D coordinates assigned)
CCc1c2cc(OC)c(OC)cc2cc[n+]1CCc1ccccc1 (optimized conformer: 54.48166144477872 kcal/mol)

>  <smiles>  (25) 
CCc1c2cc(OC)c(OC)cc2cc[n+]1CCc1ccccc1

>  <score_type>  (25) 
oracle

>  <origin>  (25) 
adg

>  <m_score__min__energy>  (25) 
-5.9100000000000001

>  <m_primary>  (25) 
energy

$$$$
25:0
     RDKit          3D

 46 48  0  0  0  0  0  0  0  0999 V2000
   59.3140   28.3120   44.5270 C   0  0  0  0  0  0  0  0  0  0  0  0
   60.5810   28.9340   45.0990 C   0  0  0  0  0  0  0  0  0  0  0  0
   60.3790   29.3390   46.4520 O   0  0  0  0  0  0  0  0  0  0  0  0
   59.1780   29.8810   46.9230 C   0  0  0  0  0  0  0  0  0  0  0  0
   58.3410   29.1490   47.5180 O   0  0  0  0  0  0  0  0  0  0  0  0
   58.9310   31.3250   46.7650 C   0  0  0  0  0  0  0  0  0  0  0  0
   59.4460   32.2410   47.6100 N   0  0  0  0  0  0  0  0  0  0  0  0
   58.9640   33.4400   47.2330 C   0  0  0  0  0  0  0  0  0  0  0  0
   59.3550   34.7340   47.8710 C   0  0  0  0  0  0  0  0  0  0  0  0
   60.7100   34.6200   48.4250 N   0  0  0  0  0  0  0  0  0  0  0  0
   60.7000   34.0140   49.7660 C   0  0  0  0  0  0  0  0  0  0  0  0
   62.0630   33.3920   50.0730 C   0  0  0  0  0  0  0  0  0  0  0  0
   62.7070   32.9130   48.8520 N   0  0  0  0  0  0  0  0  0  0  0  0
   62.4740   31.7470   48.2190 C   0  0  0  0  0  0  0  0  0  0  0  0
   63.3460   31.6560   47.1540 C   0  0  0  0  0  0  0  0  0  0  0  0
   64.1180   32.7590   47.1360 N   0  0  0  0  0  0  0  0  0  0  0  0
   63.7130   33.5060   48.1800 C   0  0  0  0  0  0  0  0  0  0  0  0
   58.1510   33.3080   46.1250 C   0  0  0  0  0  0  0  0  0  0  0  0
   58.1240   31.9580   45.8190 C   0  0  0  0  0  0  0  0  0  0  0  0
   57.4530   31.3710   44.6390 C   0  0  0  0  0  0  0  0  0  0  0  0
   57.7350   31.8390   43.3480 C   0  0  0  0  0  0  0  0  0  0  0  0
   57.1030   31.2310   42.2630 C   0  0  0  0  0  0  0  0  0  0  0  0
   56.2430   30.2010   42.4690 N   0  0  0  0  0  0  0  0  0  0  0  0
   55.9860   29.7490   43.7240 C   0  0  0  0  0  0  0  0  0  0  0  0
   56.5920   30.3290   44.7920 N   0  0  0  0  0  0  0  0  0  0  0  0
   58.6593   27.9906   45.3504 H   0  0  0  0  0  0  0  0  0  0  0  0
   58.7880   29.0543   43.9087 H   0  0  0  0  0  0  0  0  0  0  0  0
   59.5796   27.4418   43.9087 H   0  0  0  0  0  0  0  0  0  0  0  0
   61.3947   28.1948   45.0613 H   0  0  0  0  0  0  0  0  0  0  0  0
   60.8409   29.8195   44.5004 H   0  0  0  0  0  0  0  0  0  0  0  0
   60.0880   32.0590   48.4130 H   0  0  0  0  0  0  0  0  0  0  0  0
   59.3338   35.5350   47.1173 H   0  0  0  0  0  0  0  0  0  0  0  0
   58.6482   34.9709   48.6799 H   0  0  0  0  0  0  0  0  0  0  0  0
   61.2650   34.0040   47.7840 H   0  0  0  0  0  0  0  0  0  0  0  0
   60.4774   34.7894   50.5138 H   0  0  0  0  0  0  0  0  0  0  0  0
   59.9305   33.2287   49.8000 H   0  0  0  0  0  0  0  0  0  0  0  0
   62.7058   34.1494   50.5454 H   0  0  0  0  0  0  0  0  0  0  0  0
   61.9138   32.5372   50.7490 H   0  0  0  0  0  0  0  0  0  0  0  0
   61.7198   30.9979   48.5020 H   0  0  0  0  0  0  0  0  0  0  0  0
   63.4014   30.8219   46.4391 H   0  0  0  0  0  0  0  0  0  0  0  0
   64.8840   32.9830   46.4630 H   0  0  0  0  0  0  0  0  0  0  0  0
   64.1489   34.4790   48.4507 H   0  0  0  0  0  0  0  0  0  0  0  0
   57.6283   34.1153   45.5912 H   0  0  0  0  0  0  0  0  0  0  0  0
   58.4403   32.6689   43.1936 H   0  0  0  0  0  0  0  0  0  0  0  0
   57.3015   31.5861   41.2410 H   0  0  0  0  0  0  0  0  0  0  0  0
   55.2870   28.9132   43.8752 H   0  0  0  0  0  0  0  0  0  0  0  0
  1  2  1  0
  2  3  1  0
  3  4  1  0
  4  5  2  0
  4  6  1  0
  6  7  1  0
  7  8  1  0
  8  9  1  0
  9 10  1  0
 10 11  1  0
 11 12  1  0
 12 13  1  0
 13 14  1  0
 14 15  2  0
 15 16  1  0
 16 17  2  0
  8 18  2  0
 18 19  1  0
 19 20  1  0
 20 21  2  0
 21 22  1  0
 22 23  2  0
 23 24  1  0
 24 25  2  0
 19  6  2  0
 25 20  1  0
 17 13  1  0
  1 26  1  0
  1 27  1  0
  1 28  1  0
  2 29  1  0
  2 30  1  0
  7 31  1  0
  9 32  1  0
  9 33  1  0
 10 34  1  0
 11 35  1  0
 11 36  1  0
 12 37  1  0
 12 38  1  0
 14 39  1  0
 15 40  1  0
 16 41  1  0
 17 42  1  0
 18 43  1  0
 21 44  1  0
 22 45  1  0
 24 46  1  0
M  CHG  1  16   1
M  END
>  <UniqueID>  (26) 
26

>  <SMILES>  (26) 
CCOC(=O)c1[nH]c(CNCCn2cc[nH+]c2)cc1-c1ccncn1

>  <Energy>  (26) 
99.73241031753797

>  <Genealogy>  (26) 
CCOC(=O)c1[nH]c(CNCCn2cc[nH+]c2)cc1-c1ccncn1 (protonated)
CCOC(=O)c1[nH]c(CNCCn2cc[nH+]c2)cc1-c1ccncn1 (3D coordinates assigned)
CCOC(=O)c1[nH]c(CNCCn2cc[nH+]c2)cc1-c1ccncn1 (optimized conformer: 99.73241031753797 kcal/mol)

>  <smiles>  (26) 
CCOC(=O)c1[nH]c(CNCCn2ccnc2)cc1-c1ccncn1

>  <score_type>  (26) 
oracle

>  <origin>  (26) 
adg

>  <m_score__min__energy>  (26) 
-5.5700000000000003

>  <m_primary>  (26) 
energy

$$$$
26:0
     RDKit          3D

 41 42  0  0  0  0  0  0  0  0999 V2000
   61.7470   32.5240   47.5030 C   0  0  0  0  0  0  0  0  0  0  0  0
   61.1950   31.1590   47.0750 C   0  0  0  0  0  0  0  0  0  0  0  0
   59.9890   30.6860   47.8130 N   0  0  0  0  0  0  0  0  0  0  0  0
   59.8880   31.1200   49.2350 C   0  0  0  0  0  0  0  0  0  0  0  0
   58.5980   31.8580   49.6170 C   0  0  0  0  0  0  0  0  0  0  0  0
   59.5530   29.2920   47.5170 C   0  0  0  0  0  0  0  0  0  0  0  0
   58.2920   29.1340   46.6480 C   0  0  0  0  0  0  0  0  0  0  0  0
   57.7740   30.4120   46.2840 O   0  0  0  0  0  0  0  0  0  0  0  0
   57.5090   30.7560   44.9570 C   0  0  0  0  0  0  0  0  0  0  0  0
   56.8950   29.8070   44.1290 C   0  0  0  0  0  0  0  0  0  0  0  0
   56.6610   30.0890   42.7820 C   0  0  0  0  0  0  0  0  0  0  0  0
   57.0290   31.3270   42.2530 C   0  0  0  0  0  0  0  0  0  0  0  0
   57.6160   32.2920   43.0750 C   0  0  0  0  0  0  0  0  0  0  0  0
   57.8470   32.0290   44.4370 C   0  0  0  0  0  0  0  0  0  0  0  0
   58.3940   33.1020   45.3010 C   0  0  0  0  0  0  0  0  0  0  0  0
   59.2820   34.0880   44.8380 C   0  0  0  0  0  0  0  0  0  0  0  0
   59.6650   34.9970   45.8130 C   0  0  0  0  0  0  0  0  0  0  0  0
   58.8930   34.5820   47.2450 S   0  0  0  0  0  0  0  0  0  0  0  0
   58.0670   33.2470   46.6480 C   0  0  0  0  0  0  0  0  0  0  0  0
   61.7705   32.5820   48.6012 H   0  0  0  0  0  0  0  0  0  0  0  0
   62.7659   32.6479   47.1074 H   0  0  0  0  0  0  0  0  0  0  0  0
   61.1006   33.3213   47.1074 H   0  0  0  0  0  0  0  0  0  0  0  0
   60.9353   31.2196   46.0078 H   0  0  0  0  0  0  0  0  0  0  0  0
   61.9883   30.4316   47.3020 H   0  0  0  0  0  0  0  0  0  0  0  0
   59.2260   31.2500   47.3620 H   0  0  0  0  0  0  0  0  0  0  0  0
   59.9642   30.2235   49.8679 H   0  0  0  0  0  0  0  0  0  0  0  0
   60.7025   31.8438   49.3854 H   0  0  0  0  0  0  0  0  0  0  0  0
   58.5139   31.9061   50.7127 H   0  0  0  0  0  0  0  0  0  0  0  0
   58.6237   32.8780   49.2061 H   0  0  0  0  0  0  0  0  0  0  0  0
   57.7317   31.3189   49.2061 H   0  0  0  0  0  0  0  0  0  0  0  0
   60.3810   28.7863   46.9987 H   0  0  0  0  0  0  0  0  0  0  0  0
   59.2894   28.8573   48.4924 H   0  0  0  0  0  0  0  0  0  0  0  0
   58.5481   28.5740   45.7365 H   0  0  0  0  0  0  0  0  0  0  0  0
   57.5282   28.5910   47.2240 H   0  0  0  0  0  0  0  0  0  0  0  0
   56.5953   28.8330   44.5432 H   0  0  0  0  0  0  0  0  0  0  0  0
   56.1862   29.3349   42.1370 H   0  0  0  0  0  0  0  0  0  0  0  0
   56.8567   31.5430   41.1883 H   0  0  0  0  0  0  0  0  0  0  0  0
   57.9003   33.2671   42.6528 H   0  0  0  0  0  0  0  0  0  0  0  0
   59.6400   34.1345   43.7989 H   0  0  0  0  0  0  0  0  0  0  0  0
   60.3544   35.8425   45.6725 H   0  0  0  0  0  0  0  0  0  0  0  0
   57.3864   32.5997   47.2205 H   0  0  0  0  0  0  0  0  0  0  0  0
  1  2  1  0
  2  3  1  0
  3  4  1  0
  4  5  1  0
  3  6  1  0
  6  7  1  0
  7  8  1  0
  8  9  1  0
  9 10  2  0
 10 11  1  0
 11 12  2  0
 12 13  1  0
 13 14  2  0
 14 15  1  0
 15 16  1  0
 16 17  2  0
 17 18  1  0
 18 19  1  0
 14  9  1  0
 19 15  2  0
  1 20  1  0
  1 21  1  0
  1 22  1  0
  2 23  1  0
  2 24  1  0
  3 25  1  0
  4 26  1  0
  4 27  1  0
  5 28  1  0
  5 29  1  0
  5 30  1  0
  6 31  1  0
  6 32  1  0
  7 33  1  0
  7 34  1  0
 10 35  1  0
 11 36  1  0
 12 37  1  0
 13 38  1  0
 16 39  1  0
 17 40  1  0
 19 41  1  0
M  CHG  1   3   1
M  END
>  <UniqueID>  (27) 
27

>  <SMILES>  (27) 
CC[NH+](CC)CCOc1ccccc1-c1ccsc1

>  <Energy>  (27) 
90.21724816296843

>  <Genealogy>  (27) 
CC[NH+](CC)CCOc1ccccc1-c1ccsc1 (protonated)
CC[NH+](CC)CCOc1ccccc1-c1ccsc1 (3D coordinates assigned)
CC[NH+](CC)CCOc1ccccc1-c1ccsc1 (optimized conformer: 90.21724816296843 kcal/mol)

>  <smiles>  (27) 
CCN(CC)CCOc1ccccc1-c1ccsc1

>  <score_type>  (27) 
oracle

>  <origin>  (27) 
adg

>  <m_score__min__energy>  (27) 
-4.0099999999999998

>  <m_primary>  (27) 
energy

$$$$
27:0
     RDKit          3D

 61 64  0  0  0  0  0  0  0  0999 V2000
   59.1750   22.2170   44.5490 C   0  0  0  0  0  0  0  0  0  0  0  0
   57.9350   21.4840   44.0530 C   0  0  0  0  0  0  0  0  0  0  0  0
   56.5300   22.5820   43.9710 S   0  0  0  0  0  0  0  0  0  0  0  0
   55.8830   22.4930   42.6170 O   0  0  0  0  0  0  0  0  0  0  0  0
   55.5250   22.1880   45.0180 O   0  0  0  0  0  0  0  0  0  0  0  0
   57.0760   24.2330   44.2480 C   0  0  0  0  0  0  0  0  0  0  0  0
   57.2040   24.7370   45.5490 C   0  0  0  0  0  0  0  0  0  0  0  0
   57.6510   26.0450   45.7570 C   0  0  0  0  0  0  0  0  0  0  0  0
   57.9740   26.8690   44.6650 C   0  0  0  0  0  0  0  0  0  0  0  0
   58.4530   28.2110   44.8790 N   0  0  0  0  0  0  0  0  0  0  0  0
   57.5710   29.2240   45.4770 C   0  0  0  0  0  0  0  0  0  0  0  0
   58.3840   30.3490   46.1380 C   0  0  0  0  0  0  0  0  0  0  0  0
   59.6490   29.7560   46.8240 C   0  0  0  0  0  0  0  0  0  0  0  0
   60.3250   30.7640   47.7070 N   0  0  2  0  0  0  0  0  0  0  0  0
   60.8520   30.1990   48.9800 C   0  0  0  0  0  0  0  0  0  0  0  0
   59.7350   29.7490   49.9430 C   0  0  0  0  0  0  0  0  0  0  0  0
   58.5430   30.7280   49.9730 C   0  0  1  0  0  0  0  0  0  0  0  0
   58.0500   30.8560   51.3470 N   0  0  0  0  0  0  0  0  0  0  0  0
   56.8890   30.4480   51.7660 C   0  0  0  0  0  0  0  0  0  0  0  0
   55.8070   31.2590   51.6270 N   0  0  0  0  0  0  0  0  0  0  0  0
   54.5780   30.8690   52.0540 C   0  0  0  0  0  0  0  0  0  0  0  0
   54.4120   29.6190   52.6470 C   0  0  0  0  0  0  0  0  0  0  0  0
   55.5290   28.7980   52.7870 C   0  0  0  0  0  0  0  0  0  0  0  0
   56.7420   29.2240   52.3470 N   0  0  0  0  0  0  0  0  0  0  0  0
   58.9550   32.0980   49.4210 C   0  0  0  0  0  0  0  0  0  0  0  0
   59.4560   31.9620   47.9670 C   0  0  0  0  0  0  0  0  0  0  0  0
   60.5790   29.1950   45.7020 C   0  0  0  0  0  0  0  0  0  0  0  0
   59.8170   28.6000   44.4990 C   0  0  0  0  0  0  0  0  0  0  0  0
   57.8570   26.3520   43.3620 C   0  0  0  0  0  0  0  0  0  0  0  0
   57.4090   25.0450   43.1570 C   0  0  0  0  0  0  0  0  0  0  0  0
   59.1828   22.2216   45.6490 H   0  0  0  0  0  0  0  0  0  0  0  0
   60.0758   21.7062   44.1781 H   0  0  0  0  0  0  0  0  0  0  0  0
   59.1617   23.2525   44.1781 H   0  0  0  0  0  0  0  0  0  0  0  0
   58.1340   21.0795   43.0496 H   0  0  0  0  0  0  0  0  0  0  0  0
   57.7035   20.6720   44.7580 H   0  0  0  0  0  0  0  0  0  0  0  0
   56.9517   24.1008   46.4102 H   0  0  0  0  0  0  0  0  0  0  0  0
   57.7506   26.4320   46.7819 H   0  0  0  0  0  0  0  0  0  0  0  0
   56.9352   29.6557   44.6900 H   0  0  0  0  0  0  0  0  0  0  0  0
   56.9565   28.7384   46.2494 H   0  0  0  0  0  0  0  0  0  0  0  0
   58.6916   31.0755   45.3714 H   0  0  0  0  0  0  0  0  0  0  0  0
   57.7619   30.8483   46.8954 H   0  0  0  0  0  0  0  0  0  0  0  0
   59.3726   28.9341   47.5008 H   0  0  0  0  0  0  0  0  0  0  0  0
   61.1670   31.1030   47.1810 H   0  0  0  0  0  0  0  0  0  0  0  0
   61.4833   29.3298   48.7437 H   0  0  0  0  0  0  0  0  0  0  0  0
   61.4224   30.9936   49.4834 H   0  0  0  0  0  0  0  0  0  0  0  0
   59.3712   28.7616   49.6227 H   0  0  0  0  0  0  0  0  0  0  0  0
   60.1632   29.7165   50.9557 H   0  0  0  0  0  0  0  0  0  0  0  0
   57.7383   30.3327   49.3357 H   0  0  0  0  0  0  0  0  0  0  0  0
   53.7145   31.5393   51.9318 H   0  0  0  0  0  0  0  0  0  0  0  0
   53.4227   29.2883   52.9963 H   0  0  0  0  0  0  0  0  0  0  0  0
   55.4291   27.8066   53.2530 H   0  0  0  0  0  0  0  0  0  0  0  0
   58.0877   32.7742   49.4441 H   0  0  0  0  0  0  0  0  0  0  0  0
   59.7667   32.5044   50.0423 H   0  0  0  0  0  0  0  0  0  0  0  0
   58.5779   31.8968   47.3077 H   0  0  0  0  0  0  0  0  0  0  0  0
   60.0819   32.8454   47.7723 H   0  0  0  0  0  0  0  0  0  0  0  0
   61.2159   30.0146   45.3378 H   0  0  0  0  0  0  0  0  0  0  0  0
   61.1608   28.3755   46.1490 H   0  0  0  0  0  0  0  0  0  0  0  0
   59.7664   29.3521   43.6979 H   0  0  0  0  0  0  0  0  0  0  0  0
   60.3532   27.7038   44.1536 H   0  0  0  0  0  0  0  0  0  0  0  0
   58.1200   26.9811   42.4989 H   0  0  0  0  0  0  0  0  0  0  0  0
   57.3174   24.6518   42.1338 H   0  0  0  0  0  0  0  0  0  0  0  0
  1  2  1  0
  2  3  1  0
  3  4  2  0
  3  5  2  0
  3  6  1  0
  6  7  2  0
  7  8  1  0
  8  9  2  0
  9 10  1  0
 10 11  1  0
 11 12  1  0
 12 13  1  0
 13 14  1  0
 14 15  1  0
 15 16  1  0
 16 17  1  0
 17 18  1  0
 18 19  2  3
 19 20  1  0
 20 21  2  0
 21 22  1  0
 22 23  2  0
 23 24  1  0
 17 25  1  0
 25 26  1  0
 13 27  1  0
 27 28  1  0
  9 29  1  0
 29 30  2  0
 30  6  1  0
 28 10  1  0
 26 14  1  0
 24 19  1  0
  1 31  1  0
  1 32  1  0
  1 33  1  0
  2 34  1  0
  2 35  1  0
  7 36  1  0
  8 37  1  0
 11 38  1  0
 11 39  1  0
 12 40  1  0
 12 41  1  0
 13 42  1  0
 14 43  1  6
 15 44  1  0
 15 45  1  0
 16 46  1  0
 16 47  1  0
 17 48  1  6
 21 49  1  0
 22 50  1  0
 23 51  1  0
 25 52  1  0
 25 53  1  0
 26 54  1  0
 26 55  1  0
 27 56  1  0
 27 57  1  0
 28 58  1  0
 28 59  1  0
 29 60  1  0
 30 61  1  0
M  CHG  2  14   1  24  -1
M  END
>  <UniqueID>  (28) 
28

>  <SMILES>  (28) 
CCS(=O)(=O)c1ccc(N2CCC([NH+]3CCC(N=c4nccc[n-]4)CC3)CC2)cc1

>  <Energy>  (28) 
82.31096606832287

>  <Genealogy>  (28) 
CCS(=O)(=O)c1ccc(N2CCC([NH+]3CCC(N=c4nccc[n-]4)CC3)CC2)cc1 (protonated)
CCS(=O)(=O)c1ccc(N2CCC([NH+]3CCC(N=c4nccc[n-]4)CC3)CC2)cc1 (3D coordinates assigned)
CCS(=O)(=O)c1ccc(N2CCC([NH+]3CCC(N=c4nccc[n-]4)CC3)CC2)cc1 (nonaromatic ring conformer: 82.31096606832287 kcal/mol)

>  <smiles>  (28) 
CCS(=O)(=O)c1ccc(N2CCC(N3CCC(N=c4nccc[nH]4)CC3)CC2)cc1

>  <score_type>  (28) 
oracle

>  <origin>  (28) 
adg

>  <m_score__min__energy>  (28) 
-8.6300000000000008

>  <m_primary>  (28) 
energy

$$$$
28:0
     RDKit          3D

 69 72  0  0  0  0  0  0  0  0999 V2000
   60.5040   27.4690   52.3690 C   0  0  0  0  0  0  0  0  0  0  0  0
   61.2300   27.6790   51.0440 C   0  0  0  0  0  0  0  0  0  0  0  0
   61.6700   29.1360   50.8300 C   0  0  0  0  0  0  0  0  0  0  0  0
   61.1130   30.1300   51.8660 C   0  0  0  0  0  0  0  0  0  0  0  0
   59.8310   30.7380   51.4500 N   0  0  0  0  0  0  0  0  0  0  0  0
   59.2590   30.1670   50.2690 C   0  0  0  0  0  0  0  0  0  0  0  0
   58.4960   29.1670   50.3570 O   0  0  0  0  0  0  0  0  0  0  0  0
   59.5710   30.7860   48.9410 C   0  0  1  0  0  0  0  0  0  0  0  0
   59.0490   29.9610   47.8450 N   0  0  0  0  0  0  0  0  0  0  0  0
   59.6750   28.7330   47.4400 C   0  0  0  0  0  0  0  0  0  0  0  0
   60.8020   28.4190   47.9160 O   0  0  0  0  0  0  0  0  0  0  0  0
   59.0260   27.8340   46.4560 C   0  0  0  0  0  0  0  0  0  0  0  0
   58.9590   28.2040   45.1010 C   0  0  0  0  0  0  0  0  0  0  0  0
   58.3590   27.3590   44.1620 C   0  0  0  0  0  0  0  0  0  0  0  0
   57.8190   26.1290   44.5600 C   0  0  0  0  0  0  0  0  0  0  0  0
   57.2030   25.2190   43.5380 C   0  0  0  0  0  0  0  0  0  0  0  0
   57.9020   25.7440   45.9070 C   0  0  0  0  0  0  0  0  0  0  0  0
   58.4980   26.5890   46.8480 C   0  0  0  0  0  0  0  0  0  0  0  0
   58.9720   32.1520   48.8910 C   0  0  0  0  0  0  0  0  0  0  0  0
   58.0020   32.3790   48.1190 O   0  0  0  0  0  0  0  0  0  0  0  0
   59.4820   33.2050   49.7220 N   0  0  0  0  0  0  0  0  0  0  0  0
   60.3390   34.2280   49.1060 C   0  0  0  0  0  0  0  0  0  0  0  0
   60.6510   33.8700   47.6460 C   0  0  0  0  0  0  0  0  0  0  0  0
   62.0850   33.5610   47.4460 N   0  0  0  0  0  0  0  0  0  0  0  0
   62.2790   32.1320   47.1030 C   0  0  0  0  0  0  0  0  0  0  0  0
   62.6290   31.2930   48.3460 C   0  0  0  0  0  0  0  0  0  0  0  0
   63.8150   31.7100   49.0100 O   0  0  0  0  0  0  0  0  0  0  0  0
   64.1400   33.0760   48.7940 C   0  0  0  0  0  0  0  0  0  0  0  0
   62.9050   33.9750   48.6130 C   0  0  0  0  0  0  0  0  0  0  0  0
   59.2460   33.2010   51.1480 C   0  0  0  0  0  0  0  0  0  0  0  0
   58.8680   34.4190   51.7430 C   0  0  0  0  0  0  0  0  0  0  0  0
   58.5290   34.4910   53.0900 C   0  0  0  0  0  0  0  0  0  0  0  0
   58.5560   33.3450   53.8700 C   0  0  0  0  0  0  0  0  0  0  0  0
   58.9570   32.1310   53.3190 C   0  0  0  0  0  0  0  0  0  0  0  0
   59.3600   32.0240   51.9650 C   0  0  0  0  0  0  0  0  0  0  0  0
   61.1949   27.6688   53.2013 H   0  0  0  0  0  0  0  0  0  0  0  0
   59.6472   28.1561   52.4306 H   0  0  0  0  0  0  0  0  0  0  0  0
   60.1464   26.4306   52.4306 H   0  0  0  0  0  0  0  0  0  0  0  0
   62.1225   27.0362   51.0266 H   0  0  0  0  0  0  0  0  0  0  0  0
   60.5272   27.4235   50.2373 H   0  0  0  0  0  0  0  0  0  0  0  0
   62.7685   29.1732   50.8742 H   0  0  0  0  0  0  0  0  0  0  0  0
   61.2681   29.4439   49.8534 H   0  0  0  0  0  0  0  0  0  0  0  0
   60.9566   29.5966   52.8152 H   0  0  0  0  0  0  0  0  0  0  0  0
   61.8458   30.9439   51.9692 H   0  0  0  0  0  0  0  0  0  0  0  0
   60.6623   30.8538   48.8208 H   0  0  0  0  0  0  0  0  0  0  0  0
   58.2990   30.3660   47.2400 H   0  0  0  0  0  0  0  0  0  0  0  0
   59.3821   29.1663   44.7769 H   0  0  0  0  0  0  0  0  0  0  0  0
   58.3108   27.6616   43.1055 H   0  0  0  0  0  0  0  0  0  0  0  0
   56.6566   24.4118   44.0477 H   0  0  0  0  0  0  0  0  0  0  0  0
   56.5067   25.7926   42.9086 H   0  0  0  0  0  0  0  0  0  0  0  0
   57.9942   24.7856   42.9086 H   0  0  0  0  0  0  0  0  0  0  0  0
   57.4959   24.7721   46.2242 H   0  0  0  0  0  0  0  0  0  0  0  0
   58.5548   26.2790   47.9019 H   0  0  0  0  0  0  0  0  0  0  0  0
   59.8217   35.1983   49.1369 H   0  0  0  0  0  0  0  0  0  0  0  0
   61.2842   34.2804   49.6662 H   0  0  0  0  0  0  0  0  0  0  0  0
   60.0549   32.9907   47.3606 H   0  0  0  0  0  0  0  0  0  0  0  0
   60.4001   34.7400   47.0213 H   0  0  0  0  0  0  0  0  0  0  0  0
   61.3511   31.7423   46.6590 H   0  0  0  0  0  0  0  0  0  0  0  0
   63.1154   32.0593   46.3922 H   0  0  0  0  0  0  0  0  0  0  0  0
   61.7922   31.3620   49.0567 H   0  0  0  0  0  0  0  0  0  0  0  0
   62.8046   30.2648   47.9968 H   0  0  0  0  0  0  0  0  0  0  0  0
   64.7124   33.4397   49.6601 H   0  0  0  0  0  0  0  0  0  0  0  0
   64.7204   33.1288   47.8611 H   0  0  0  0  0  0  0  0  0  0  0  0
   62.2866   33.9167   49.5208 H   0  0  0  0  0  0  0  0  0  0  0  0
   63.2545   35.0030   48.4366 H   0  0  0  0  0  0  0  0  0  0  0  0
   58.8401   35.3323   51.1306 H   0  0  0  0  0  0  0  0  0  0  0  0
   58.2403   35.4545   53.5353 H   0  0  0  0  0  0  0  0  0  0  0  0
   58.2595   33.3952   54.9281 H   0  0  0  0  0  0  0  0  0  0  0  0
   58.9610   31.2311   53.9516 H   0  0  0  0  0  0  0  0  0  0  0  0
  1  2  1  0
  2  3  1  0
  3  4  1  0
  4  5  1  0
  5  6  1  0
  6  7  2  0
  6  8  1  0
  8  9  1  0
  9 10  1  0
 10 11  2  0
 10 12  1  0
 12 13  2  0
 13 14  1  0
 14 15  2  0
 15 16  1  0
 15 17  1  0
 17 18  2  0
  8 19  1  0
 19 20  2  0
 19 21  1  0
 21 22  1  0
 22 23  1  0
 23 24  1  0
 24 25  1  0
 25 26  1  0
 26 27  1  0
 27 28  1  0
 28 29  1  0
 21 30  1  0
 30 31  2  0
 31 32  1  0
 32 33  2  0
 33 34  1  0
 34 35  2  0
 35  5  1  0
 18 12  1  0
 29 24  1  0
 35 30  1  0
  1 36  1  0
  1 37  1  0
  1 38  1  0
  2 39  1  0
  2 40  1  0
  3 41  1  0
  3 42  1  0
  4 43  1  0
  4 44  1  0
  8 45  1  6
  9 46  1  0
 13 47  1  0
 14 48  1  0
 16 49  1  0
 16 50  1  0
 16 51  1  0
 17 52  1  0
 18 53  1  0
 22 54  1  0
 22 55  1  0
 23 56  1  0
 23 57  1  0
 25 58  1  0
 25 59  1  0
 26 60  1  0
 26 61  1  0
 28 62  1  0
 28 63  1  0
 29 64  1  0
 29 65  1  0
 31 66  1  0
 32 67  1  0
 33 68  1  0
 34 69  1  0
M  END
>  <UniqueID>  (29) 
29

>  <SMILES>  (29) 
CCCCN1C(=O)[C@@H](NC(=O)c2ccc(C)cc2)C(=O)N(CCN2CCOCC2)c2ccccc21

>  <Energy>  (29) 
105.47004383509868

>  <Genealogy>  (29) 
CCCCN1C(=O)[C@@H](NC(=O)c2ccc(C)cc2)C(=O)N(CCN2CCOCC2)c2ccccc21 (chirality)
CCCCN1C(=O)[C@@H](NC(=O)c2ccc(C)cc2)C(=O)N(CCN2CCOCC2)c2ccccc21 (3D coordinates assigned)
CCCCN1C(=O)[C@@H](NC(=O)c2ccc(C)cc2)C(=O)N(CCN2CCOCC2)c2ccccc21 (nonaromatic ring conformer: 105.47004383509868 kcal/mol)

>  <smiles>  (29) 
CCCCN1C(=O)C(NC(=O)c2ccc(C)cc2)C(=O)N(CCN2CCOCC2)c2ccccc21

>  <score_type>  (29) 
oracle

>  <origin>  (29) 
adg

>  <m_score__min__energy>  (29) 
-6.5800000000000001

>  <m_primary>  (29) 
energy

$$$$
29:0
     RDKit          3D

 32 32  0  0  0  0  0  0  0  0999 V2000
   59.2540   34.3480   47.7580 C   0  0  0  0  0  0  0  0  0  0  0  0
   59.0650   33.2180   46.7990 C   0  0  0  0  0  0  0  0  0  0  0  0
   59.4150   31.6090   47.1470 S   0  0  0  0  0  0  0  0  0  0  0  0
   58.9410   31.0010   45.6560 C   0  0  0  0  0  0  0  0  0  0  0  0
   58.9470   29.6070   45.3250 N   0  0  0  0  0  0  0  0  0  0  0  0
   57.7730   28.7810   45.3830 C   0  0  0  0  0  0  0  0  0  0  0  0
   56.6330   29.3240   45.3610 O   0  0  0  0  0  0  0  0  0  0  0  0
   57.8940   27.2630   45.3800 C   0  0  0  0  0  0  0  0  0  0  0  0
   56.6060   26.6510   45.9590 C   0  0  0  0  0  0  0  0  0  0  0  0
   58.1070   26.7590   43.9380 C   0  0  0  0  0  0  0  0  0  0  0  0
   59.0960   26.8100   46.2380 C   0  0  0  0  0  0  0  0  0  0  0  0
   58.4560   32.0480   44.8660 C   0  0  0  0  0  0  0  0  0  0  0  0
   57.8680   31.8580   43.5620 C   0  0  0  0  0  0  0  0  0  0  0  0
   57.3960   31.7060   42.5160 N   0  0  0  0  0  0  0  0  0  0  0  0
   58.5140   33.2990   45.5150 C   0  0  0  0  0  0  0  0  0  0  0  0
   58.0890   34.5920   44.8780 C   0  0  0  0  0  0  0  0  0  0  0  0
   59.1906   33.9688   48.7886 H   0  0  0  0  0  0  0  0  0  0  0  0
   60.2411   34.8054   47.5957 H   0  0  0  0  0  0  0  0  0  0  0  0
   58.4695   35.1018   47.5957 H   0  0  0  0  0  0  0  0  0  0  0  0
   59.8160   29.2180   44.8970 H   0  0  0  0  0  0  0  0  0  0  0  0
   56.6515   26.6726   47.0578 H   0  0  0  0  0  0  0  0  0  0  0  0
   55.7375   27.2327   45.6165 H   0  0  0  0  0  0  0  0  0  0  0  0
   56.5084   25.6102   45.6165 H   0  0  0  0  0  0  0  0  0  0  0  0
   58.5351   25.7460   43.9631 H   0  0  0  0  0  0  0  0  0  0  0  0
   57.1416   26.7361   43.4112 H   0  0  0  0  0  0  0  0  0  0  0  0
   58.7962   27.4354   43.4112 H   0  0  0  0  0  0  0  0  0  0  0  0
   58.8423   26.9056   47.3041 H   0  0  0  0  0  0  0  0  0  0  0  0
   59.3341   25.7605   46.0105 H   0  0  0  0  0  0  0  0  0  0  0  0
   59.9676   27.4413   46.0105 H   0  0  0  0  0  0  0  0  0  0  0  0
   57.8480   35.3251   45.6619 H   0  0  0  0  0  0  0  0  0  0  0  0
   58.9072   34.9791   44.2529 H   0  0  0  0  0  0  0  0  0  0  0  0
   57.2007   34.4182   44.2529 H   0  0  0  0  0  0  0  0  0  0  0  0
  1  2  1  0
  2  3  1  0
  3  4  1  0
  4  5  1  0
  5  6  1  0
  6  7  2  0
  6  8  1  0
  8  9  1  0
  8 10  1  0
  8 11  1  0
  4 12  2  0
 12 13  1  0
 13 14  3  0
 12 15  1  0
 15 16  1  0
 15  2  2  0
  1 17  1  0
  1 18  1  0
  1 19  1  0
  5 20  1  0
  9 21  1  0
  9 22  1  0
  9 23  1  0
 10 24  1  0
 10 25  1  0
 10 26  1  0
 11 27  1  0
 11 28  1  0
 11 29  1  0
 16 30  1  0
 16 31  1  0
 16 32  1  0
M  END
>  <UniqueID>  (30) 
30

>  <SMILES>  (30) 
Cc1sc(NC(=O)C(C)(C)C)c(C#N)c1C

>  <Energy>  (30) 
54.52070860774565

>  <Genealogy>  (30) 
Cc1sc(NC(=O)C(C)(C)C)c(C#N)c1C (3D coordinates assigned)
Cc1sc(NC(=O)C(C)(C)C)c(C#N)c1C (optimized conformer: 54.52070860774565 kcal/mol)

>  <smiles>  (30) 
Cc1sc(NC(=O)C(C)(C)C)c(C#N)c1C

>  <score_type>  (30) 
oracle

>  <origin>  (30) 
adg

>  <m_score__min__energy>  (30) 
-5.8499999999999996

>  <m_primary>  (30) 
energy

$$$$
30:0
     RDKit          3D

 32 34  0  0  0  0  0  0  0  0999 V2000
   58.0030   22.0540   45.4360 C   0  0  0  0  0  0  0  0  0  0  0  0
   57.8640   22.9860   46.5040 O   0  0  0  0  0  0  0  0  0  0  0  0
   57.7740   24.3760   46.3350 C   0  0  0  0  0  0  0  0  0  0  0  0
   56.5760   25.0850   46.5370 C   0  0  0  0  0  0  0  0  0  0  0  0
   56.5380   26.4710   46.3560 C   0  0  0  0  0  0  0  0  0  0  0  0
   57.6890   27.1720   45.9600 C   0  0  0  0  0  0  0  0  0  0  0  0
   57.6410   28.6000   45.7870 N   0  0  0  0  0  0  0  0  0  0  0  0
   58.8330   29.6730   46.2210 S   0  0  0  0  0  0  0  0  0  0  0  0
   58.0470   31.0560   45.7130 C   0  0  0  0  0  0  0  0  0  0  0  0
   58.5340   32.4450   45.8400 C   0  0  0  0  0  0  0  0  0  0  0  0
   58.9180   32.9660   47.0970 C   0  0  0  0  0  0  0  0  0  0  0  0
   58.9130   31.9870   48.5610 Cl  0  0  0  0  0  0  0  0  0  0  0  0
   59.3730   34.2870   47.1980 C   0  0  0  0  0  0  0  0  0  0  0  0
   59.4560   35.0930   46.0640 C   0  0  0  0  0  0  0  0  0  0  0  0
   59.0880   34.5880   44.8190 C   0  0  0  0  0  0  0  0  0  0  0  0
   58.6300   33.2710   44.6960 C   0  0  0  0  0  0  0  0  0  0  0  0
   58.1340   32.7160   43.0990 Cl  0  0  0  0  0  0  0  0  0  0  0  0
   56.8350   30.7100   45.2190 N   0  0  0  0  0  0  0  0  0  0  0  0
   56.6310   29.3580   45.2660 C   0  0  0  0  0  0  0  0  0  0  0  0
   55.5450   28.8550   44.8750 O   0  0  0  0  0  0  0  0  0  0  0  0
   58.8860   26.4610   45.7700 C   0  0  0  0  0  0  0  0  0  0  0  0
   58.9240   25.0750   45.9530 C   0  0  0  0  0  0  0  0  0  0  0  0
   58.1535   21.0449   45.8472 H   0  0  0  0  0  0  0  0  0  0  0  0
   57.0931   22.0662   44.8180 H   0  0  0  0  0  0  0  0  0  0  0  0
   58.8697   22.3311   44.8180 H   0  0  0  0  0  0  0  0  0  0  0  0
   55.6653   24.5469   46.8386 H   0  0  0  0  0  0  0  0  0  0  0  0
   55.5983   27.0173   46.5252 H   0  0  0  0  0  0  0  0  0  0  0  0
   59.6666   34.6906   48.1783 H   0  0  0  0  0  0  0  0  0  0  0  0
   59.8128   36.1298   46.1523 H   0  0  0  0  0  0  0  0  0  0  0  0
   59.1577   35.2281   43.9271 H   0  0  0  0  0  0  0  0  0  0  0  0
   59.7995   26.9983   45.4753 H   0  0  0  0  0  0  0  0  0  0  0  0
   59.8663   24.5298   45.7952 H   0  0  0  0  0  0  0  0  0  0  0  0
  1  2  1  0
  2  3  1  0
  3  4  2  0
  4  5  1  0
  5  6  2  0
  6  7  1  0
  7  8  1  0
  8  9  1  0
  9 10  1  0
 10 11  2  0
 11 12  1  0
 11 13  1  0
 13 14  2  0
 14 15  1  0
 15 16  2  0
 16 17  1  0
  9 18  2  0
 18 19  1  0
 19 20  2  0
  6 21  1  0
 21 22  2  0
 22  3  1  0
 19  7  1  0
 16 10  1  0
  1 23  1  0
  1 24  1  0
  1 25  1  0
  4 26  1  0
  5 27  1  0
 13 28  1  0
 14 29  1  0
 15 30  1  0
 21 31  1  0
 22 32  1  0
M  END
>  <UniqueID>  (31) 
31

>  <SMILES>  (31) 
COc1ccc(-n2sc(-c3c(Cl)cccc3Cl)nc2=O)cc1

>  <Energy>  (31) 
85.7293120805546

>  <Genealogy>  (31) 
COc1ccc(-n2sc(-c3c(Cl)cccc3Cl)nc2=O)cc1 (3D coordinates assigned)
COc1ccc(-n2sc(-c3c(Cl)cccc3Cl)nc2=O)cc1 (optimized conformer: 85.7293120805546 kcal/mol)

>  <smiles>  (31) 
COc1ccc(-n2sc(-c3c(Cl)cccc3Cl)nc2=O)cc1

>  <score_type>  (31) 
oracle

>  <origin>  (31) 
adg

>  <m_score__min__energy>  (31) 
-8.1300000000000008

>  <m_primary>  (31) 
energy

$$$$
31:0
     RDKit          3D

 36 38  0  0  0  0  0  0  0  0999 V2000
   64.6750   32.8460   49.5030 C   0  0  0  0  0  0  0  0  0  0  0  0
   63.6570   33.8410   49.5540 O   0  0  0  0  0  0  0  0  0  0  0  0
   62.5840   33.9230   48.6550 C   0  0  0  0  0  0  0  0  0  0  0  0
   62.8370   33.7120   47.2950 C   0  0  0  0  0  0  0  0  0  0  0  0
   61.8010   33.7850   46.3600 C   0  0  0  0  0  0  0  0  0  0  0  0
   60.4910   34.0670   46.7750 C   0  0  0  0  0  0  0  0  0  0  0  0
   59.3840   34.1750   45.7630 C   0  0  0  0  0  0  0  0  0  0  0  0
   57.7570   33.8600   46.5330 S   0  0  0  0  0  0  0  0  0  0  0  0
   57.5620   32.2220   45.8190 C   0  0  0  0  0  0  0  0  0  0  0  0
   56.6480   31.9400   44.8730 N   0  0  0  0  0  0  0  0  0  0  0  0
   56.7100   30.6350   44.6530 N   0  0  0  0  0  0  0  0  0  0  0  0
   57.6560   30.1390   45.4740 C   0  0  0  0  0  0  0  0  0  0  0  0
   58.2180   31.1120   46.2150 N   0  0  0  0  0  0  0  0  0  0  0  0
   59.2260   30.9600   47.2290 C   0  0  0  0  0  0  0  0  0  0  0  0
   58.9080   31.1310   48.5880 C   0  0  0  0  0  0  0  0  0  0  0  0
   59.8950   30.9810   49.5670 C   0  0  0  0  0  0  0  0  0  0  0  0
   61.2050   30.6670   49.1990 C   0  0  0  0  0  0  0  0  0  0  0  0
   61.5330   30.5060   47.8500 C   0  0  0  0  0  0  0  0  0  0  0  0
   60.5490   30.6570   46.8670 C   0  0  0  0  0  0  0  0  0  0  0  0
   60.2340   34.2810   48.1380 C   0  0  0  0  0  0  0  0  0  0  0  0
   61.2700   34.2100   49.0720 C   0  0  0  0  0  0  0  0  0  0  0  0
   64.9636   32.5639   50.5263 H   0  0  0  0  0  0  0  0  0  0  0  0
   64.2960   31.9605   48.9717 H   0  0  0  0  0  0  0  0  0  0  0  0
   65.5516   33.2451   48.9717 H   0  0  0  0  0  0  0  0  0  0  0  0
   63.8600   33.4868   46.9591 H   0  0  0  0  0  0  0  0  0  0  0  0
   62.0138   33.6205   45.2934 H   0  0  0  0  0  0  0  0  0  0  0  0
   59.3880   35.1873   45.3326 H   0  0  0  0  0  0  0  0  0  0  0  0
   59.5518   33.4215   44.9794 H   0  0  0  0  0  0  0  0  0  0  0  0
   57.9333   29.0761   45.5314 H   0  0  0  0  0  0  0  0  0  0  0  0
   57.8786   31.3838   48.8821 H   0  0  0  0  0  0  0  0  0  0  0  0
   59.6391   31.1106   50.6290 H   0  0  0  0  0  0  0  0  0  0  0  0
   61.9791   30.5463   49.9712 H   0  0  0  0  0  0  0  0  0  0  0  0
   62.5655   30.2604   47.5609 H   0  0  0  0  0  0  0  0  0  0  0  0
   60.8126   30.5379   45.8057 H   0  0  0  0  0  0  0  0  0  0  0  0
   59.2106   34.5060   48.4727 H   0  0  0  0  0  0  0  0  0  0  0  0
   61.0585   34.3790   50.1382 H   0  0  0  0  0  0  0  0  0  0  0  0
  1  2  1  0
  2  3  1  0
  3  4  2  0
  4  5  1  0
  5  6  2  0
  6  7  1  0
  7  8  1  0
  8  9  1  0
  9 10  2  0
 10 11  1  0
 11 12  2  0
 12 13  1  0
 13 14  1  0
 14 15  2  0
 15 16  1  0
 16 17  2  0
 17 18  1  0
 18 19  2  0
  6 20  1  0
 20 21  2  0
 21  3  1  0
 13  9  1  0
 19 14  1  0
  1 22  1  0
  1 23  1  0
  1 24  1  0
  4 25  1  0
  5 26  1  0
  7 27  1  0
  7 28  1  0
 12 29  1  0
 15 30  1  0
 16 31  1  0
 17 32  1  0
 18 33  1  0
 19 34  1  0
 20 35  1  0
 21 36  1  0
M  END
>  <UniqueID>  (32) 
32

>  <SMILES>  (32) 
COc1ccc(CSc2nncn2-c2ccccc2)cc1

>  <Energy>  (32) 
72.52919881185512

>  <Genealogy>  (32) 
COc1ccc(CSc2nncn2-c2ccccc2)cc1 (3D coordinates assigned)
COc1ccc(CSc2nncn2-c2ccccc2)cc1 (optimized conformer: 72.52919881185512 kcal/mol)

>  <smiles>  (32) 
COc1ccc(CSc2nncn2-c2ccccc2)cc1

>  <score_type>  (32) 
oracle

>  <origin>  (32) 
adg

>  <m_score__min__energy>  (32) 
-6.9900000000000002

>  <m_primary>  (32) 
energy

$$$$
32:0
     RDKit          3D

 59 63  0  0  0  0  0  0  0  0999 V2000
   59.7220   26.0350   46.5400 C   0  0  0  0  0  0  0  0  0  0  0  0
   58.3320   26.6250   46.8250 C   0  0  0  0  0  0  0  0  0  0  0  0
   57.7860   27.6000   45.7260 C   0  0  1  0  0  0  0  0  0  0  0  0
   58.3160   27.2340   44.4750 O   0  0  0  0  0  0  0  0  0  0  0  0
   56.2670   27.5290   45.6150 C   0  0  0  0  0  0  0  0  0  0  0  0
   55.6140   26.5340   46.0240 O   0  0  0  0  0  0  0  0  0  0  0  0
   55.5690   28.5820   45.0210 O   0  0  0  0  0  0  0  0  0  0  0  0
   56.2440   29.7010   44.4590 C   0  0  0  0  0  0  0  0  0  0  0  0
   57.3990   30.0980   45.3420 C   0  0  0  0  0  0  0  0  0  0  0  0
   58.1490   29.0770   45.9950 C   0  0  0  0  0  0  0  0  0  0  0  0
   59.2600   29.4630   46.7870 C   0  0  0  0  0  0  0  0  0  0  0  0
   59.5580   30.8170   46.9090 C   0  0  0  0  0  0  0  0  0  0  0  0
   58.8330   31.7630   46.2760 N   0  0  0  0  0  0  0  0  0  0  0  0
   57.7710   31.4520   45.4890 C   0  0  0  0  0  0  0  0  0  0  0  0
   57.1320   32.3670   44.8990 O   0  0  0  0  0  0  0  0  0  0  0  0
   59.3680   33.1030   46.5540 C   0  0  0  0  0  0  0  0  0  0  0  0
   60.5280   32.8000   47.4540 C   0  0  0  0  0  0  0  0  0  0  0  0
   61.4340   33.6670   48.0540 C   0  0  0  0  0  0  0  0  0  0  0  0
   62.4460   33.1140   48.8640 C   0  0  0  0  0  0  0  0  0  0  0  0
   63.3890   33.9380   49.4950 C   0  0  0  0  0  0  0  0  0  0  0  0
   64.3970   33.3780   50.3050 C   0  0  0  0  0  0  0  0  0  0  0  0
   65.3790   34.1970   50.9670 N   0  0  0  0  0  0  0  0  0  0  0  0
   66.7880   33.8120   51.1050 C   0  0  0  0  0  0  0  0  0  0  0  0
   67.6410   34.9460   51.7060 C   0  0  0  0  0  0  0  0  0  0  0  0
   66.7990   36.0260   52.2700 N   0  0  0  0  0  0  0  0  0  0  0  0
   66.2490   35.6510   53.5840 C   0  0  0  0  0  0  0  0  0  0  0  0
   67.5960   37.2570   52.4090 C   0  0  0  0  0  0  0  0  0  0  0  0
   64.4490   31.9840   50.4690 C   0  0  0  0  0  0  0  0  0  0  0  0
   63.5150   31.1540   49.8450 C   0  0  0  0  0  0  0  0  0  0  0  0
   62.5090   31.7000   49.0410 C   0  0  0  0  0  0  0  0  0  0  0  0
   61.5910   30.8870   48.4270 N   0  0  0  0  0  0  0  0  0  0  0  0
   60.6260   31.4460   47.6530 C   0  0  0  0  0  0  0  0  0  0  0  0
   60.2307   25.8191   47.4911 H   0  0  0  0  0  0  0  0  0  0  0  0
   59.6142   25.1050   45.9624 H   0  0  0  0  0  0  0  0  0  0  0  0
   60.3161   26.7585   45.9624 H   0  0  0  0  0  0  0  0  0  0  0  0
   57.6216   25.7911   46.9242 H   0  0  0  0  0  0  0  0  0  0  0  0
   58.4353   27.2237   47.7420 H   0  0  0  0  0  0  0  0  0  0  0  0
   57.5550   27.0850   43.8550 H   0  0  0  0  0  0  0  0  0  0  0  0
   56.6222   29.4355   43.4607 H   0  0  0  0  0  0  0  0  0  0  0  0
   55.5427   30.5445   44.3780 H   0  0  0  0  0  0  0  0  0  0  0  0
   59.8751   28.7061   47.2957 H   0  0  0  0  0  0  0  0  0  0  0  0
   59.6991   33.5999   45.6302 H   0  0  0  0  0  0  0  0  0  0  0  0
   58.6318   33.7891   46.9981 H   0  0  0  0  0  0  0  0  0  0  0  0
   61.3630   34.7540   47.9009 H   0  0  0  0  0  0  0  0  0  0  0  0
   63.3416   35.0283   49.3568 H   0  0  0  0  0  0  0  0  0  0  0  0
   65.0630   35.1090   51.3680 H   0  0  0  0  0  0  0  0  0  0  0  0
   66.8529   32.9324   51.7623 H   0  0  0  0  0  0  0  0  0  0  0  0
   67.1787   33.5888   50.1012 H   0  0  0  0  0  0  0  0  0  0  0  0
   68.2720   34.5315   52.5060 H   0  0  0  0  0  0  0  0  0  0  0  0
   68.2556   35.3757   50.9012 H   0  0  0  0  0  0  0  0  0  0  0  0
   66.8765   36.0788   54.3798 H   0  0  0  0  0  0  0  0  0  0  0  0
   65.2239   36.0391   53.6767 H   0  0  0  0  0  0  0  0  0  0  0  0
   66.2359   34.5550   53.6767 H   0  0  0  0  0  0  0  0  0  0  0  0
   67.7412   37.4813   53.4761 H   0  0  0  0  0  0  0  0  0  0  0  0
   68.5749   37.1164   51.9274 H   0  0  0  0  0  0  0  0  0  0  0  0
   67.0671   38.0926   51.9274 H   0  0  0  0  0  0  0  0  0  0  0  0
   65.2355   31.5402   51.0970 H   0  0  0  0  0  0  0  0  0  0  0  0
   63.5708   30.0646   49.9866 H   0  0  0  0  0  0  0  0  0  0  0  0
   61.6280   29.8510   48.5500 H   0  0  0  0  0  0  0  0  0  0  0  0
  1  2  1  0
  2  3  1  0
  3  4  1  6
  3  5  1  0
  5  6  2  0
  5  7  1  0
  7  8  1  0
  8  9  1  0
  9 10  2  0
 10 11  1  0
 11 12  2  0
 12 13  1  0
 13 14  1  0
 14 15  2  0
 13 16  1  0
 16 17  1  0
 17 18  2  0
 18 19  1  0
 19 20  2  0
 20 21  1  0
 21 22  1  0
 22 23  1  0
 23 24  1  0
 24 25  1  0
 25 26  1  0
 25 27  1  0
 21 28  2  0
 28 29  1  0
 29 30  2  0
 30 31  1  0
 31 32  2  0
 10  3  1  0
 32 12  1  0
 14  9  1  0
 32 17  1  0
 30 19  1  0
  1 33  1  0
  1 34  1  0
  1 35  1  0
  2 36  1  0
  2 37  1  0
  4 38  1  0
  8 39  1  0
  8 40  1  0
 11 41  1  0
 16 42  1  0
 16 43  1  0
 18 44  1  0
 20 45  1  0
 22 46  1  0
 23 47  1  0
 23 48  1  0
 24 49  1  0
 24 50  1  0
 26 51  1  0
 26 52  1  0
 26 53  1  0
 27 54  1  0
 27 55  1  0
 27 56  1  0
 28 57  1  0
 29 58  1  0
 31 59  1  0
M  CHG  1  31   1
M  END
>  <UniqueID>  (33) 
33

>  <SMILES>  (33) 
CC[C@@]1(O)C(=O)OCc2c1cc1n(c2=O)Cc2cc3cc(NCCN(C)C)ccc3[nH+]c2-1

>  <Energy>  (33) 
103.7429976463068

>  <Genealogy>  (33) 
CCC1(O)C(=O)OCc2c1cc1n(c2=O)Cc2cc3cc(NCCN(C)C)ccc3[nH+]c2-1 (protonated)
CC[C@@]1(O)C(=O)OCc2c1cc1n(c2=O)Cc2cc3cc(NCCN(C)C)ccc3[nH+]c2-1 (chirality)
CC[C@@]1(O)C(=O)OCc2c1cc1n(c2=O)Cc2cc3cc(NCCN(C)C)ccc3[nH+]c2-1 (3D coordinates assigned)
CC[C@@]1(O)C(=O)OCc2c1cc1n(c2=O)Cc2cc3cc(NCCN(C)C)ccc3[nH+]c2-1 (nonaromatic ring conformer: 103.7429976463068 kcal/mol)

>  <smiles>  (33) 
CCC1(O)C(=O)OCc2c1cc1n(c2=O)Cc2cc3cc(NCCN(C)C)ccc3nc2-1

>  <score_type>  (33) 
oracle

>  <origin>  (33) 
adg

>  <m_score__min__energy>  (33) 
-7.0499999999999998

>  <m_primary>  (33) 
energy

$$$$
33:0
     RDKit          3D

 42 45  0  0  0  0  0  0  0  0999 V2000
   56.4620   29.3880   43.8900 C   0  0  0  0  0  0  0  0  0  0  0  0
   56.3580   29.0190   45.2610 O   0  0  0  0  0  0  0  0  0  0  0  0
   57.0160   27.9250   45.8450 C   0  0  0  0  0  0  0  0  0  0  0  0
   56.4350   26.6420   45.8780 C   0  0  0  0  0  0  0  0  0  0  0  0
   57.0880   25.5840   46.5130 C   0  0  0  0  0  0  0  0  0  0  0  0
   58.3240   25.7930   47.1270 C   0  0  0  0  0  0  0  0  0  0  0  0
   58.9150   27.0560   47.0950 C   0  0  0  0  0  0  0  0  0  0  0  0
   58.2820   28.1230   46.4400 C   0  0  0  0  0  0  0  0  0  0  0  0
   58.9210   29.4110   46.4190 N   0  0  0  0  0  0  0  0  0  0  0  0
   58.4040   30.4810   45.8280 N   0  0  0  0  0  0  0  0  0  0  0  0
   59.2670   31.4890   46.0750 C   0  0  0  0  0  0  0  0  0  0  0  0
   59.1600   32.8170   45.6410 C   0  0  0  0  0  0  0  0  0  0  0  0
   58.0430   33.2720   44.8460 N   0  0  0  0  0  0  0  0  0  0  0  0
   57.8250   32.7050   43.5140 C   0  0  0  0  0  0  0  0  0  0  0  0
   57.0650   34.2190   45.3890 C   0  0  0  0  0  0  0  0  0  0  0  0
   60.1680   33.6800   45.9830 N   0  0  0  0  0  0  0  0  0  0  0  0
   61.2390   33.2770   46.7340 C   0  0  0  0  0  0  0  0  0  0  0  0
   62.2170   34.1630   47.0630 N   0  0  0  0  0  0  0  0  0  0  0  0
   63.2950   33.7970   47.8060 C   0  0  0  0  0  0  0  0  0  0  0  0
   63.4230   32.4790   48.2550 C   0  0  0  0  0  0  0  0  0  0  0  0
   62.4390   31.5410   47.9380 C   0  0  0  0  0  0  0  0  0  0  0  0
   61.3290   31.9340   47.1720 C   0  0  0  0  0  0  0  0  0  0  0  0
   60.3220   31.0890   46.8110 N   0  0  0  0  0  0  0  0  0  0  0  0
   60.0700   29.7820   47.0240 C   0  0  0  0  0  0  0  0  0  0  0  0
   60.7790   29.0170   47.7310 O   0  0  0  0  0  0  0  0  0  0  0  0
   56.7597   30.4444   43.8162 H   0  0  0  0  0  0  0  0  0  0  0  0
   57.2178   28.7587   43.3972 H   0  0  0  0  0  0  0  0  0  0  0  0
   55.4889   29.2460   43.3972 H   0  0  0  0  0  0  0  0  0  0  0  0
   55.4591   26.4725   45.3996 H   0  0  0  0  0  0  0  0  0  0  0  0
   56.6281   24.5849   46.5295 H   0  0  0  0  0  0  0  0  0  0  0  0
   58.8323   24.9611   47.6364 H   0  0  0  0  0  0  0  0  0  0  0  0
   59.8854   27.2168   47.5874 H   0  0  0  0  0  0  0  0  0  0  0  0
   57.4318   31.6823   43.6107 H   0  0  0  0  0  0  0  0  0  0  0  0
   57.1014   33.3257   42.9652 H   0  0  0  0  0  0  0  0  0  0  0  0
   58.7780   32.6810   42.9652 H   0  0  0  0  0  0  0  0  0  0  0  0
   57.0964   34.1886   46.4881 H   0  0  0  0  0  0  0  0  0  0  0  0
   57.3071   35.2348   45.0432 H   0  0  0  0  0  0  0  0  0  0  0  0
   56.0575   33.9443   45.0432 H   0  0  0  0  0  0  0  0  0  0  0  0
   60.1180   34.6800   45.6840 H   0  0  0  0  0  0  0  0  0  0  0  0
   64.0680   34.5391   48.0544 H   0  0  0  0  0  0  0  0  0  0  0  0
   64.2956   32.1825   48.8556 H   0  0  0  0  0  0  0  0  0  0  0  0
   62.5321   30.5015   48.2855 H   0  0  0  0  0  0  0  0  0  0  0  0
  1  2  1  0
  2  3  1  0
  3  4  2  0
  4  5  1  0
  5  6  2  0
  6  7  1  0
  7  8  2  0
  8  9  1  0
  9 10  1  0
 10 11  2  0
 11 12  1  0
 12 13  1  0
 13 14  1  0
 13 15  1  0
 12 16  2  0
 16 17  1  0
 17 18  2  0
 18 19  1  0
 19 20  2  0
 20 21  1  0
 21 22  2  0
 22 23  1  0
 23 24  1  0
 24 25  2  0
  8  3  1  0
 24  9  1  0
 23 11  1  0
 22 17  1  0
  1 26  1  0
  1 27  1  0
  1 28  1  0
  4 29  1  0
  5 30  1  0
  6 31  1  0
  7 32  1  0
 14 33  1  0
 14 34  1  0
 14 35  1  0
 15 36  1  0
 15 37  1  0
 15 38  1  0
 16 39  1  0
 19 40  1  0
 20 41  1  0
 21 42  1  0
M  CHG  1  16   1
M  END
>  <UniqueID>  (34) 
34

>  <SMILES>  (34) 
COc1ccccc1-n1nc2c(N(C)C)[nH+]c3ncccc3n2c1=O

>  <Energy>  (34) 
103.97540632265097

>  <Genealogy>  (34) 
COc1ccccc1-n1nc2c(N(C)C)[nH+]c3ncccc3n2c1=O (protonated)
COc1ccccc1-n1nc2c(N(C)C)[nH+]c3ncccc3n2c1=O (3D coordinates assigned)
COc1ccccc1-n1nc2c(N(C)C)[nH+]c3ncccc3n2c1=O (optimized conformer: 103.97540632265097 kcal/mol)

>  <smiles>  (34) 
COc1ccccc1-n1nc2c(N(C)C)nc3ncccc3n2c1=O

>  <score_type>  (34) 
oracle

>  <origin>  (34) 
adg

>  <m_score__min__energy>  (34) 
-5.5499999999999998

>  <m_primary>  (34) 
energy

$$$$
34:0
     RDKit          3D

 50 52  0  0  0  0  0  0  0  0999 V2000
   64.2500   31.9360   49.5830 C   0  0  0  0  0  0  0  0  0  0  0  0
   63.3470   32.3170   48.4920 N   0  0  0  0  0  0  0  0  0  0  0  0
   62.8310   31.2950   47.5750 C   0  0  0  0  0  0  0  0  0  0  0  0
   62.9620   33.7030   48.3520 C   0  0  0  0  0  0  0  0  0  0  0  0
   63.3340   34.5430   49.2180 O   0  0  0  0  0  0  0  0  0  0  0  0
   62.0670   34.1620   47.2280 C   0  0  0  0  0  0  0  0  0  0  0  0
   60.7430   34.5830   47.7430 N   0  0  0  0  0  0  0  0  0  0  0  0
   60.3360   33.8740   48.9720 C   0  0  0  0  0  0  0  0  0  0  0  0
   58.9610   33.1890   48.8620 C   0  0  0  0  0  0  0  0  0  0  0  0
   59.0370   31.9790   48.1420 O   0  0  0  0  0  0  0  0  0  0  0  0
   59.3960   32.1960   46.7950 C   0  0  0  0  0  0  0  0  0  0  0  0
   58.8750   33.5510   46.2010 C   0  0  2  0  0  0  0  0  0  0  0  0
   57.3640   33.7210   46.4530 C   0  0  0  0  0  0  0  0  0  0  0  0
   56.6760   33.0480   45.2790 C   0  0  0  0  0  0  0  0  0  0  0  0
   57.5990   33.1080   44.1440 N   0  0  0  0  0  0  0  0  0  0  0  0
   57.5820   31.9110   43.2740 C   0  0  0  0  0  0  0  0  0  0  0  0
   57.4940   30.6060   44.0220 C   0  0  0  0  0  0  0  0  0  0  0  0
   58.5180   29.6950   44.1950 C   0  0  0  0  0  0  0  0  0  0  0  0
   57.9820   28.6710   44.9440 C   0  0  0  0  0  0  0  0  0  0  0  0
   56.6700   29.0200   45.1880 C   0  0  0  0  0  0  0  0  0  0  0  0
   56.4100   30.1780   44.6290 O   0  0  0  0  0  0  0  0  0  0  0  0
   58.9230   33.4990   44.6470 C   0  0  0  0  0  0  0  0  0  0  0  0
   59.7190   34.7880   46.6780 C   0  0  0  0  0  0  0  0  0  0  0  0
   63.7649   32.1407   50.5488 H   0  0  0  0  0  0  0  0  0  0  0  0
   64.4820   30.8633   49.5092 H   0  0  0  0  0  0  0  0  0  0  0  0
   65.1803   32.5183   49.5092 H   0  0  0  0  0  0  0  0  0  0  0  0
   62.4098   30.4608   48.1552 H   0  0  0  0  0  0  0  0  0  0  0  0
   62.0464   31.7337   46.9411 H   0  0  0  0  0  0  0  0  0  0  0  0
   63.6499   30.9241   46.9411 H   0  0  0  0  0  0  0  0  0  0  0  0
   62.5406   35.0121   46.7151 H   0  0  0  0  0  0  0  0  0  0  0  0
   61.9219   33.3239   46.5304 H   0  0  0  0  0  0  0  0  0  0  0  0
   61.0904   33.1055   49.1962 H   0  0  0  0  0  0  0  0  0  0  0  0
   60.2577   34.6284   49.7687 H   0  0  0  0  0  0  0  0  0  0  0  0
   58.5857   32.9784   49.8743 H   0  0  0  0  0  0  0  0  0  0  0  0
   58.2826   33.8666   48.3230 H   0  0  0  0  0  0  0  0  0  0  0  0
   60.4937   32.1881   46.7250 H   0  0  0  0  0  0  0  0  0  0  0  0
   58.9257   31.3925   46.2092 H   0  0  0  0  0  0  0  0  0  0  0  0
   57.0752   33.2357   47.3970 H   0  0  0  0  0  0  0  0  0  0  0  0
   57.0821   34.7810   46.5369 H   0  0  0  0  0  0  0  0  0  0  0  0
   56.4491   32.0002   45.5253 H   0  0  0  0  0  0  0  0  0  0  0  0
   55.7289   33.5535   45.0393 H   0  0  0  0  0  0  0  0  0  0  0  0
   56.7129   31.9839   42.6037 H   0  0  0  0  0  0  0  0  0  0  0  0
   58.5387   31.9007   42.7312 H   0  0  0  0  0  0  0  0  0  0  0  0
   59.5470   29.7715   43.8139 H   0  0  0  0  0  0  0  0  0  0  0  0
   58.4965   27.7586   45.2800 H   0  0  0  0  0  0  0  0  0  0  0  0
   55.9510   28.4187   45.7638 H   0  0  0  0  0  0  0  0  0  0  0  0
   59.6731   32.7617   44.3250 H   0  0  0  0  0  0  0  0  0  0  0  0
   59.1966   34.4872   44.2488 H   0  0  0  0  0  0  0  0  0  0  0  0
   60.2431   35.1833   45.7954 H   0  0  0  0  0  0  0  0  0  0  0  0
   58.9786   35.4565   47.1415 H   0  0  0  0  0  0  0  0  0  0  0  0
  1  2  1  0
  2  3  1  0
  2  4  1  0
  4  5  2  0
  4  6  1  0
  6  7  1  0
  7  8  1  0
  8  9  1  0
  9 10  1  0
 10 11  1  0
 12 11  1  1
 12 13  1  0
 13 14  1  0
 14 15  1  0
 15 16  1  0
 16 17  1  0
 17 18  2  0
 18 19  1  0
 19 20  2  0
 20 21  1  0
 15 22  1  0
 12 23  1  0
 23  7  1  0
 22 12  1  0
 21 17  1  0
  1 24  1  0
  1 25  1  0
  1 26  1  0
  3 27  1  0
  3 28  1  0
  3 29  1  0
  6 30  1  0
  6 31  1  0
  8 32  1  0
  8 33  1  0
  9 34  1  0
  9 35  1  0
 11 36  1  0
 11 37  1  0
 13 38  1  0
 13 39  1  0
 14 40  1  0
 14 41  1  0
 16 42  1  0
 16 43  1  0
 18 44  1  0
 19 45  1  0
 20 46  1  0
 22 47  1  0
 22 48  1  0
 23 49  1  0
 23 50  1  0
M  END
>  <UniqueID>  (35) 
35

>  <SMILES>  (35) 
CN(C)C(=O)CN1CCOC[C@@]2(CCN(Cc3ccco3)C2)C1

>  <Energy>  (35) 
108.19558052949127

>  <Genealogy>  (35) 
CN(C)C(=O)CN1CCOC[C@@]2(CCN(Cc3ccco3)C2)C1 (chirality)
CN(C)C(=O)CN1CCOC[C@@]2(CCN(Cc3ccco3)C2)C1 (3D coordinates assigned)
CN(C)C(=O)CN1CCOC[C@@]2(CCN(Cc3ccco3)C2)C1 (nonaromatic ring conformer: 108.19558052949127 kcal/mol)

>  <smiles>  (35) 
CN(C)C(=O)CN1CCOCC2(CCN(Cc3ccco3)C2)C1

>  <score_type>  (35) 
oracle

>  <origin>  (35) 
adg

>  <m_score__min__energy>  (35) 
-5.2999999999999998

>  <m_primary>  (35) 
energy

$$$$
35:0
     RDKit          3D

 53 55  0  0  0  0  0  0  0  0999 V2000
   58.7550   33.8170   47.4080 C   0  0  0  0  0  0  0  0  0  0  0  0
   57.7780   32.7260   46.9840 C   0  0  0  0  0  0  0  0  0  0  0  0
   57.5070   32.8110   45.5400 N   0  0  0  0  0  0  0  0  0  0  0  0
   57.3660   34.1310   44.9140 C   0  0  0  0  0  0  0  0  0  0  0  0
   57.3910   31.5950   44.7620 C   0  0  0  0  0  0  0  0  0  0  0  0
   56.3490   30.8890   44.8630 O   0  0  0  0  0  0  0  0  0  0  0  0
   58.4690   31.1240   43.8180 C   0  0  0  0  0  0  0  0  0  0  0  0
   59.0220   29.7500   44.2190 C   0  0  0  0  0  0  0  0  0  0  0  0
   58.8930   29.5170   45.6610 N   0  0  0  0  0  0  0  0  0  0  0  0
   58.0240   28.6910   46.3110 C   0  0  0  0  0  0  0  0  0  0  0  0
   57.0010   27.8310   45.6170 C   0  0  0  0  0  0  0  0  0  0  0  0
   56.9400   26.5170   46.1750 O   0  0  0  0  0  0  0  0  0  0  0  0
   56.6330   25.3470   45.4620 C   0  0  0  0  0  0  0  0  0  0  0  0
   57.5850   24.8450   44.5670 C   0  0  0  0  0  0  0  0  0  0  0  0
   57.3280   23.6820   43.8350 C   0  0  0  0  0  0  0  0  0  0  0  0
   56.1170   22.9980   43.9880 C   0  0  0  0  0  0  0  0  0  0  0  0
   55.9050   21.8360   43.2320 O   0  0  0  0  0  0  0  0  0  0  0  0
   56.8930   20.8360   43.0020 C   0  0  0  0  0  0  0  0  0  0  0  0
   55.1580   23.4980   44.8900 C   0  0  0  0  0  0  0  0  0  0  0  0
   55.4150   24.6610   45.6190 C   0  0  0  0  0  0  0  0  0  0  0  0
   58.2210   28.6900   47.6550 N   0  0  0  0  0  0  0  0  0  0  0  0
   59.2320   29.5510   47.8460 C   0  0  0  0  0  0  0  0  0  0  0  0
   59.8300   29.9220   49.0480 C   0  0  0  0  0  0  0  0  0  0  0  0
   60.8920   30.8450   48.9910 C   0  0  0  0  0  0  0  0  0  0  0  0
   61.3230   31.3630   47.7480 C   0  0  0  0  0  0  0  0  0  0  0  0
   60.6990   30.9630   46.5520 C   0  0  0  0  0  0  0  0  0  0  0  0
   59.6440   30.0510   46.6450 C   0  0  0  0  0  0  0  0  0  0  0  0
   58.7976   33.8645   48.5061 H   0  0  0  0  0  0  0  0  0  0  0  0
   59.7552   33.5876   47.0119 H   0  0  0  0  0  0  0  0  0  0  0  0
   58.4171   34.7860   47.0119 H   0  0  0  0  0  0  0  0  0  0  0  0
   58.2122   31.7418   47.2137 H   0  0  0  0  0  0  0  0  0  0  0  0
   56.8339   32.8607   47.5321 H   0  0  0  0  0  0  0  0  0  0  0  0
   57.2838   34.9006   45.6956 H   0  0  0  0  0  0  0  0  0  0  0  0
   58.2473   34.3362   44.2886 H   0  0  0  0  0  0  0  0  0  0  0  0
   56.4612   34.1455   44.2886 H   0  0  0  0  0  0  0  0  0  0  0  0
   58.0484   31.0557   42.8039 H   0  0  0  0  0  0  0  0  0  0  0  0
   59.2959   31.8484   43.8570 H   0  0  0  0  0  0  0  0  0  0  0  0
   58.4649   28.9696   43.6799 H   0  0  0  0  0  0  0  0  0  0  0  0
   60.0905   29.7197   43.9594 H   0  0  0  0  0  0  0  0  0  0  0  0
   56.0131   28.3048   45.7151 H   0  0  0  0  0  0  0  0  0  0  0  0
   57.2945   27.7387   44.5609 H   0  0  0  0  0  0  0  0  0  0  0  0
   58.5431   25.3699   44.4386 H   0  0  0  0  0  0  0  0  0  0  0  0
   58.0843   23.3014   43.1327 H   0  0  0  0  0  0  0  0  0  0  0  0
   57.2650   20.4595   43.9663 H   0  0  0  0  0  0  0  0  0  0  0  0
   56.4496   20.0069   42.4311 H   0  0  0  0  0  0  0  0  0  0  0  0
   57.7274   21.2694   42.4311 H   0  0  0  0  0  0  0  0  0  0  0  0
   54.2020   22.9699   45.0209 H   0  0  0  0  0  0  0  0  0  0  0  0
   54.6595   25.0434   46.3211 H   0  0  0  0  0  0  0  0  0  0  0  0
   57.7160   28.1370   48.3840 H   0  0  0  0  0  0  0  0  0  0  0  0
   59.4851   29.5088   50.0073 H   0  0  0  0  0  0  0  0  0  0  0  0
   61.3890   31.1648   49.9187 H   0  0  0  0  0  0  0  0  0  0  0  0
   62.1527   32.0844   47.7157 H   0  0  0  0  0  0  0  0  0  0  0  0
   61.0297   31.3541   45.5785 H   0  0  0  0  0  0  0  0  0  0  0  0
  1  2  1  0
  2  3  1  0
  3  4  1  0
  3  5  1  0
  5  6  2  0
  5  7  1  0
  7  8  1  0
  8  9  1  0
  9 10  1  0
 10 11  1  0
 11 12  1  0
 12 13  1  0
 13 14  2  0
 14 15  1  0
 15 16  2  0
 16 17  1  0
 17 18  1  0
 16 19  1  0
 19 20  2  0
 10 21  2  0
 21 22  1  0
 22 23  2  0
 23 24  1  0
 24 25  2  0
 25 26  1  0
 26 27  2  0
 27  9  1  0
 20 13  1  0
 27 22  1  0
  1 28  1  0
  1 29  1  0
  1 30  1  0
  2 31  1  0
  2 32  1  0
  4 33  1  0
  4 34  1  0
  4 35  1  0
  7 36  1  0
  7 37  1  0
  8 38  1  0
  8 39  1  0
 11 40  1  0
 11 41  1  0
 14 42  1  0
 15 43  1  0
 18 44  1  0
 18 45  1  0
 18 46  1  0
 19 47  1  0
 20 48  1  0
 21 49  1  0
 23 50  1  0
 24 51  1  0
 25 52  1  0
 26 53  1  0
M  CHG  1  21   1
M  END
>  <UniqueID>  (36) 
36

>  <SMILES>  (36) 
CCN(C)C(=O)CCn1c(COc2ccc(OC)cc2)[nH+]c2ccccc21

>  <Energy>  (36) 
82.13410839127161

>  <Genealogy>  (36) 
CCN(C)C(=O)CCn1c(COc2ccc(OC)cc2)[nH+]c2ccccc21 (protonated)
CCN(C)C(=O)CCn1c(COc2ccc(OC)cc2)[nH+]c2ccccc21 (3D coordinates assigned)
CCN(C)C(=O)CCn1c(COc2ccc(OC)cc2)[nH+]c2ccccc21 (optimized conformer: 82.13410839127161 kcal/mol)

>  <smiles>  (36) 
CCN(C)C(=O)CCn1c(COc2ccc(OC)cc2)nc2ccccc21

>  <score_type>  (36) 
oracle

>  <origin>  (36) 
adg

>  <m_score__min__energy>  (36) 
-5.8799999999999999

>  <m_primary>  (36) 
energy

$$$$
36:0
     RDKit          3D

 39 40  0  0  0  0  0  0  0  0999 V2000
   53.8520   24.4010   45.2440 C   0  0  0  0  0  0  0  0  0  0  0  0
   55.2540   24.1250   45.8060 C   0  0  0  0  0  0  0  0  0  0  0  0
   56.2650   25.1470   45.4420 N   0  0  0  0  0  0  0  0  0  0  0  0
   57.0180   24.8770   44.1980 C   0  0  0  0  0  0  0  0  0  0  0  0
   57.0300   23.3870   43.8540 C   0  0  0  0  0  0  0  0  0  0  0  0
   57.1440   25.5160   46.5760 C   0  0  0  0  0  0  0  0  0  0  0  0
   57.2600   27.0400   46.6810 C   0  0  0  0  0  0  0  0  0  0  0  0
   56.5300   27.6930   45.5920 N   0  0  0  0  0  0  0  0  0  0  0  0
   56.8760   28.9950   45.0970 C   0  0  0  0  0  0  0  0  0  0  0  0
   56.6490   29.3170   43.7520 C   0  0  0  0  0  0  0  0  0  0  0  0
   56.9590   30.5970   43.2820 C   0  0  0  0  0  0  0  0  0  0  0  0
   56.7450   30.8790   42.0710 O   0  0  0  0  0  0  0  0  0  0  0  0
   57.4990   31.5520   44.1620 C   0  0  0  0  0  0  0  0  0  0  0  0
   57.8210   32.8570   43.7450 C   0  0  0  0  0  0  0  0  0  0  0  0
   58.3510   33.7750   44.6580 C   0  0  0  0  0  0  0  0  0  0  0  0
   58.5650   33.4020   45.9880 C   0  0  0  0  0  0  0  0  0  0  0  0
   58.2510   32.1100   46.4140 C   0  0  0  0  0  0  0  0  0  0  0  0
   57.7220   31.1820   45.5090 C   0  0  0  0  0  0  0  0  0  0  0  0
   57.4100   29.9290   45.9300 N   0  0  0  0  0  0  0  0  0  0  0  0
   53.1448   24.5402   46.0749 H   0  0  0  0  0  0  0  0  0  0  0  0
   53.8769   25.3115   44.6272 H   0  0  0  0  0  0  0  0  0  0  0  0
   53.5299   23.5490   44.6272 H   0  0  0  0  0  0  0  0  0  0  0  0
   55.1843   24.0836   46.9030 H   0  0  0  0  0  0  0  0  0  0  0  0
   55.5907   23.1751   45.3652 H   0  0  0  0  0  0  0  0  0  0  0  0
   56.5489   25.4297   43.3707 H   0  0  0  0  0  0  0  0  0  0  0  0
   58.0580   25.2013   44.3504 H   0  0  0  0  0  0  0  0  0  0  0  0
   57.0348   22.7965   44.7820 H   0  0  0  0  0  0  0  0  0  0  0  0
   56.1338   23.1392   43.2663 H   0  0  0  0  0  0  0  0  0  0  0  0
   57.9301   23.1536   43.2663 H   0  0  0  0  0  0  0  0  0  0  0  0
   56.7189   25.1187   47.5095 H   0  0  0  0  0  0  0  0  0  0  0  0
   58.1444   25.0905   46.4081 H   0  0  0  0  0  0  0  0  0  0  0  0
   56.8411   27.3682   47.6437 H   0  0  0  0  0  0  0  0  0  0  0  0
   58.3218   27.3186   46.6108 H   0  0  0  0  0  0  0  0  0  0  0  0
   55.7100   27.1920   45.1820 H   0  0  0  0  0  0  0  0  0  0  0  0
   56.2283   28.5651   43.0682 H   0  0  0  0  0  0  0  0  0  0  0  0
   57.6557   33.1557   42.6993 H   0  0  0  0  0  0  0  0  0  0  0  0
   58.6003   34.7943   44.3279 H   0  0  0  0  0  0  0  0  0  0  0  0
   58.9820   34.1284   46.7010 H   0  0  0  0  0  0  0  0  0  0  0  0
   58.4194   31.8209   47.4619 H   0  0  0  0  0  0  0  0  0  0  0  0
  1  2  1  0
  2  3  1  0
  3  4  1  0
  4  5  1  0
  3  6  1  0
  6  7  1  0
  7  8  1  0
  8  9  1  0
  9 10  2  0
 10 11  1  0
 11 12  2  0
 11 13  1  0
 13 14  2  0
 14 15  1  0
 15 16  2  0
 16 17  1  0
 17 18  2  0
 18 19  1  0
 19  9  1  0
 18 13  1  0
  1 20  1  0
  1 21  1  0
  1 22  1  0
  2 23  1  0
  2 24  1  0
  4 25  1  0
  4 26  1  0
  5 27  1  0
  5 28  1  0
  5 29  1  0
  6 30  1  0
  6 31  1  0
  7 32  1  0
  7 33  1  0
  8 34  1  0
 10 35  1  0
 14 36  1  0
 15 37  1  0
 16 38  1  0
 17 39  1  0
M  CHG  1  19  -1
M  END
>  <UniqueID>  (37) 
37

>  <SMILES>  (37) 
CCN(CC)CCNc1cc(=O)c2ccccc2[n-]1

>  <Energy>  (37) 
40.58744181861332

>  <Genealogy>  (37) 
CCN(CC)CCNc1cc(=O)c2ccccc2[n-]1 (protonated)
CCN(CC)CCNc1cc(=O)c2ccccc2[n-]1 (3D coordinates assigned)
CCN(CC)CCNc1cc(=O)c2ccccc2[n-]1 (optimized conformer: 40.58744181861332 kcal/mol)

>  <smiles>  (37) 
CCN(CC)CCNc1cc(=O)c2ccccc2[nH]1

>  <score_type>  (37) 
oracle

>  <origin>  (37) 
adg

>  <m_score__min__energy>  (37) 
-8.6400000000000006

>  <m_primary>  (37) 
energy

$$$$
37:0
     RDKit          3D

 52 55  0  0  0  0  0  0  0  0999 V2000
   57.4030   32.9060   44.5280 C   0  0  0  0  0  0  0  0  0  0  0  0
   57.7470   34.2150   44.8720 C   0  0  0  0  0  0  0  0  0  0  0  0
   58.5580   34.4580   45.9840 C   0  0  0  0  0  0  0  0  0  0  0  0
   59.0350   33.3910   46.7630 C   0  0  0  0  0  0  0  0  0  0  0  0
   59.8700   33.6690   47.9020 N   0  0  0  0  0  0  0  0  0  0  0  0
   61.2950   33.5060   47.8950 C   0  0  0  0  0  0  0  0  0  0  0  0
   62.0010   33.8600   46.7370 C   0  0  0  0  0  0  0  0  0  0  0  0
   63.3920   33.7510   46.6960 C   0  0  0  0  0  0  0  0  0  0  0  0
   64.0890   33.2910   47.8120 C   0  0  0  0  0  0  0  0  0  0  0  0
   63.3960   32.9140   48.9640 C   0  0  0  0  0  0  0  0  0  0  0  0
   61.9900   32.9790   49.0150 C   0  0  0  0  0  0  0  0  0  0  0  0
   61.2610   32.4990   50.2640 C   0  0  0  0  0  0  0  0  0  0  0  0
   60.6710   31.1370   50.1540 N   0  0  0  0  0  0  0  0  0  0  0  0
   59.2220   31.1730   49.8250 C   0  0  0  0  0  0  0  0  0  0  0  0
   58.6990   29.7900   49.4200 C   0  0  0  0  0  0  0  0  0  0  0  0
   59.4460   29.2930   48.2560 N   0  0  0  0  0  0  0  0  0  0  0  0
   58.8510   28.3230   47.3660 C   0  0  0  0  0  0  0  0  0  0  0  0
   57.9820   28.7340   46.3370 C   0  0  0  0  0  0  0  0  0  0  0  0
   57.4090   27.7950   45.4750 C   0  0  0  0  0  0  0  0  0  0  0  0
   57.6940   26.4360   45.6280 C   0  0  0  0  0  0  0  0  0  0  0  0
   58.5560   26.0150   46.6440 C   0  0  0  0  0  0  0  0  0  0  0  0
   59.1310   26.9510   47.5080 C   0  0  0  0  0  0  0  0  0  0  0  0
   60.7790   29.8480   47.9790 C   0  0  0  0  0  0  0  0  0  0  0  0
   61.4740   30.2150   49.2980 C   0  0  0  0  0  0  0  0  0  0  0  0
   58.6790   32.0750   46.4110 C   0  0  0  0  0  0  0  0  0  0  0  0
   57.8670   31.8360   45.2980 C   0  0  0  0  0  0  0  0  0  0  0  0
   56.7667   32.7171   43.6508 H   0  0  0  0  0  0  0  0  0  0  0  0
   57.3790   35.0564   44.2666 H   0  0  0  0  0  0  0  0  0  0  0  0
   58.8244   35.4914   46.2508 H   0  0  0  0  0  0  0  0  0  0  0  0
   59.4120   33.8450   48.8250 H   0  0  0  0  0  0  0  0  0  0  0  0
   61.4553   34.2261   45.8548 H   0  0  0  0  0  0  0  0  0  0  0  0
   63.9384   34.0283   45.7825 H   0  0  0  0  0  0  0  0  0  0  0  0
   65.1867   33.2249   47.7851 H   0  0  0  0  0  0  0  0  0  0  0  0
   63.9554   32.5617   49.8432 H   0  0  0  0  0  0  0  0  0  0  0  0
   61.9771   32.4960   51.0990 H   0  0  0  0  0  0  0  0  0  0  0  0
   60.4198   33.1908   50.4184 H   0  0  0  0  0  0  0  0  0  0  0  0
   60.7260   30.7430   51.1240 H   0  0  0  0  0  0  0  0  0  0  0  0
   58.6645   31.5209   50.7072 H   0  0  0  0  0  0  0  0  0  0  0  0
   59.0798   31.8563   48.9748 H   0  0  0  0  0  0  0  0  0  0  0  0
   58.8264   29.0916   50.2603 H   0  0  0  0  0  0  0  0  0  0  0  0
   57.6332   29.8683   49.1594 H   0  0  0  0  0  0  0  0  0  0  0  0
   57.7524   29.8023   46.2107 H   0  0  0  0  0  0  0  0  0  0  0  0
   56.7319   28.1268   44.6741 H   0  0  0  0  0  0  0  0  0  0  0  0
   57.2405   25.6984   44.9496 H   0  0  0  0  0  0  0  0  0  0  0  0
   58.7824   24.9452   46.7640 H   0  0  0  0  0  0  0  0  0  0  0  0
   59.8083   26.6125   48.3059 H   0  0  0  0  0  0  0  0  0  0  0  0
   61.3823   29.0996   47.4443 H   0  0  0  0  0  0  0  0  0  0  0  0
   60.6748   30.7512   47.3598 H   0  0  0  0  0  0  0  0  0  0  0  0
   61.6617   29.2898   49.8625 H   0  0  0  0  0  0  0  0  0  0  0  0
   62.4053   30.7402   49.0394 H   0  0  0  0  0  0  0  0  0  0  0  0
   59.0417   31.2302   47.0149 H   0  0  0  0  0  0  0  0  0  0  0  0
   57.5933   30.8053   45.0284 H   0  0  0  0  0  0  0  0  0  0  0  0
  1  2  2  0
  2  3  1  0
  3  4  2  0
  4  5  1  0
  5  6  1  0
  6  7  2  0
  7  8  1  0
  8  9  2  0
  9 10  1  0
 10 11  2  0
 11 12  1  0
 12 13  1  0
 13 14  1  0
 14 15  1  0
 15 16  1  0
 16 17  1  0
 17 18  2  0
 18 19  1  0
 19 20  2  0
 20 21  1  0
 21 22  2  0
 16 23  1  0
 23 24  1  0
  4 25  1  0
 25 26  2  0
 26  1  1  0
 11  6  1  0
 24 13  1  0
 22 17  1  0
  1 27  1  0
  2 28  1  0
  3 29  1  0
  5 30  1  0
  7 31  1  0
  8 32  1  0
  9 33  1  0
 10 34  1  0
 12 35  1  0
 12 36  1  0
 13 37  1  0
 14 38  1  0
 14 39  1  0
 15 40  1  0
 15 41  1  0
 18 42  1  0
 19 43  1  0
 20 44  1  0
 21 45  1  0
 22 46  1  0
 23 47  1  0
 23 48  1  0
 24 49  1  0
 24 50  1  0
 25 51  1  0
 26 52  1  0
M  CHG  1  13   1
M  END
>  <UniqueID>  (38) 
38

>  <SMILES>  (38) 
c1ccc(Nc2ccccc2C[NH+]2CCN(c3ccccc3)CC2)cc1

>  <Energy>  (38) 
77.52304010569915

>  <Genealogy>  (38) 
c1ccc(Nc2ccccc2C[NH+]2CCN(c3ccccc3)CC2)cc1 (protonated)
c1ccc(Nc2ccccc2C[NH+]2CCN(c3ccccc3)CC2)cc1 (3D coordinates assigned)
c1ccc(Nc2ccccc2C[NH+]2CCN(c3ccccc3)CC2)cc1 (nonaromatic ring conformer: 77.52304010569915 kcal/mol)

>  <smiles>  (38) 
c1ccc(Nc2ccccc2CN2CCN(c3ccccc3)CC2)cc1

>  <score_type>  (38) 
oracle

>  <origin>  (38) 
adg

>  <m_score__min__energy>  (38) 
-6.3200000000000003

>  <m_primary>  (38) 
energy

$$$$
38:0
     RDKit          3D

 31 32  0  0  0  0  0  0  0  0999 V2000
   56.9880   33.9360   46.0310 C   0  0  0  0  0  0  0  0  0  0  0  0
   58.0210   34.0660   46.9900 O   0  0  0  0  0  0  0  0  0  0  0  0
   59.2940   33.4690   46.9720 C   0  0  0  0  0  0  0  0  0  0  0  0
   60.3660   34.3510   47.1840 C   0  0  0  0  0  0  0  0  0  0  0  0
   61.6790   33.8920   47.2510 C   0  0  0  0  0  0  0  0  0  0  0  0
   61.9480   32.5350   47.1220 C   0  0  0  0  0  0  0  0  0  0  0  0
   60.9050   31.6370   46.9080 C   0  0  0  0  0  0  0  0  0  0  0  0
   59.5740   32.0780   46.7910 C   0  0  0  0  0  0  0  0  0  0  0  0
   58.3480   30.7680   46.5390 S   0  0  0  0  0  0  0  0  0  0  0  0
   57.9210   31.1570   44.8200 C   0  0  0  0  0  0  0  0  0  0  0  0
   58.5100   32.2700   44.1960 C   0  0  0  0  0  0  0  0  0  0  0  0
   58.1780   32.6140   42.8840 C   0  0  0  0  0  0  0  0  0  0  0  0
   57.2800   31.8300   42.1640 C   0  0  0  0  0  0  0  0  0  0  0  0
   56.7390   30.6810   42.7410 C   0  0  0  0  0  0  0  0  0  0  0  0
   57.0640   30.3190   44.0600 C   0  0  0  0  0  0  0  0  0  0  0  0
   56.5990   28.9650   44.5480 C   0  0  0  0  0  0  0  0  0  0  0  0
   55.3800   29.0920   45.2270 O   0  0  0  0  0  0  0  0  0  0  0  0
   56.0233   33.8146   46.5454 H   0  0  0  0  0  0  0  0  0  0  0  0
   56.9568   34.8373   45.4012 H   0  0  0  0  0  0  0  0  0  0  0  0
   57.1811   33.0551   45.4012 H   0  0  0  0  0  0  0  0  0  0  0  0
   60.1645   35.4262   47.2995 H   0  0  0  0  0  0  0  0  0  0  0  0
   62.5032   34.6038   47.4061 H   0  0  0  0  0  0  0  0  0  0  0  0
   62.9836   32.1702   47.1888 H   0  0  0  0  0  0  0  0  0  0  0  0
   61.1261   30.5624   46.8289 H   0  0  0  0  0  0  0  0  0  0  0  0
   59.2418   32.8779   44.7481 H   0  0  0  0  0  0  0  0  0  0  0  0
   58.6259   33.5046   42.4190 H   0  0  0  0  0  0  0  0  0  0  0  0
   56.9973   32.1168   41.1404 H   0  0  0  0  0  0  0  0  0  0  0  0
   56.0508   30.0515   42.1578 H   0  0  0  0  0  0  0  0  0  0  0  0
   56.4679   28.2930   43.6870 H   0  0  0  0  0  0  0  0  0  0  0  0
   57.3525   28.5506   45.2340 H   0  0  0  0  0  0  0  0  0  0  0  0
   55.5480   29.6990   45.9960 H   0  0  0  0  0  0  0  0  0  0  0  0
  1  2  1  0
  2  3  1  0
  3  4  2  0
  4  5  1  0
  5  6  2  0
  6  7  1  0
  7  8  2  0
  8  9  1  0
  9 10  1  0
 10 11  2  0
 11 12  1  0
 12 13  2  0
 13 14  1  0
 14 15  2  0
 15 16  1  0
 16 17  1  0
  8  3  1  0
 15 10  1  0
  1 18  1  0
  1 19  1  0
  1 20  1  0
  4 21  1  0
  5 22  1  0
  6 23  1  0
  7 24  1  0
 11 25  1  0
 12 26  1  0
 13 27  1  0
 14 28  1  0
 16 29  1  0
 16 30  1  0
 17 31  1  0
M  END
>  <UniqueID>  (39) 
39

>  <SMILES>  (39) 
COc1ccccc1Sc1ccccc1CO

>  <Energy>  (39) 
41.9190528340569

>  <Genealogy>  (39) 
COc1ccccc1Sc1ccccc1CO (3D coordinates assigned)
COc1ccccc1Sc1ccccc1CO (optimized conformer: 41.9190528340569 kcal/mol)

>  <smiles>  (39) 
COc1ccccc1Sc1ccccc1CO

>  <score_type>  (39) 
oracle

>  <origin>  (39) 
adg

>  <m_score__min__energy>  (39) 
-7.0800000000000001

>  <m_primary>  (39) 
energy

$$$$
39:0
     RDKit          3D

 27 28  0  0  0  0  0  0  0  0999 V2000
   58.1830   25.8330   47.1130 C   0  0  0  0  0  0  0  0  0  0  0  0
   57.4660   25.4460   45.8850 N   0  0  0  0  0  0  0  0  0  0  0  0
   57.9900   26.1610   44.7040 C   0  0  0  0  0  0  0  0  0  0  0  0
   57.6350   27.5810   44.7300 N   0  0  0  0  0  0  0  0  0  0  0  0
   56.5270   28.0080   45.2560 C   0  0  0  0  0  0  0  0  0  0  0  0
   56.2110   29.4090   45.2590 N   0  0  0  0  0  0  0  0  0  0  0  0
   56.8530   30.3880   44.4240 C   0  0  0  0  0  0  0  0  0  0  0  0
   57.6230   31.4020   45.0110 C   0  0  0  0  0  0  0  0  0  0  0  0
   58.2310   32.3710   44.2120 C   0  0  0  0  0  0  0  0  0  0  0  0
   58.0500   32.3290   42.8290 C   0  0  0  0  0  0  0  0  0  0  0  0
   57.2800   31.3570   42.2720 N   0  0  0  0  0  0  0  0  0  0  0  0
   56.6800   30.3990   43.0290 C   0  0  0  0  0  0  0  0  0  0  0  0
   55.6810   27.0890   45.9570 N   0  0  0  0  0  0  0  0  0  0  0  0
   56.0110   25.6660   46.0160 C   0  0  0  0  0  0  0  0  0  0  0  0
   57.6009   25.5188   47.9919 H   0  0  0  0  0  0  0  0  0  0  0  0
   59.1682   25.3442   47.1318 H   0  0  0  0  0  0  0  0  0  0  0  0
   58.3150   26.9249   47.1318 H   0  0  0  0  0  0  0  0  0  0  0  0
   59.0859   26.0676   44.6878 H   0  0  0  0  0  0  0  0  0  0  0  0
   57.5432   25.7119   43.8047 H   0  0  0  0  0  0  0  0  0  0  0  0
   55.5200   29.7450   45.9670 H   0  0  0  0  0  0  0  0  0  0  0  0
   57.7481   31.4337   46.1034 H   0  0  0  0  0  0  0  0  0  0  0  0
   58.8469   33.1602   44.6678 H   0  0  0  0  0  0  0  0  0  0  0  0
   58.5309   33.0832   42.1888 H   0  0  0  0  0  0  0  0  0  0  0  0
   56.0574   29.6304   42.5478 H   0  0  0  0  0  0  0  0  0  0  0  0
   54.7760   27.4210   46.3580 H   0  0  0  0  0  0  0  0  0  0  0  0
   55.6726   25.2595   46.9805 H   0  0  0  0  0  0  0  0  0  0  0  0
   55.5067   25.1579   45.1808 H   0  0  0  0  0  0  0  0  0  0  0  0
  1  2  1  0
  2  3  1  0
  3  4  1  0
  4  5  2  0
  5  6  1  0
  6  7  1  0
  7  8  2  0
  8  9  1  0
  9 10  2  0
 10 11  1  0
 11 12  2  0
  5 13  1  0
 13 14  1  0
 14  2  1  0
 12  7  1  0
  1 15  1  0
  1 16  1  0
  1 17  1  0
  3 18  1  0
  3 19  1  0
  6 20  1  0
  8 21  1  0
  9 22  1  0
 10 23  1  0
 12 24  1  0
 13 25  1  0
 14 26  1  0
 14 27  1  0
M  END
>  <UniqueID>  (40) 
40

>  <SMILES>  (40) 
CN1CN=C(Nc2cccnc2)NC1

>  <Energy>  (40) 
33.35206746977738

>  <Genealogy>  (40) 
CN1CN=C(Nc2cccnc2)NC1 (3D coordinates assigned)
CN1CN=C(Nc2cccnc2)NC1 (nonaromatic ring conformer: 33.35206746977738 kcal/mol)

>  <smiles>  (40) 
CN1CN=C(Nc2cccnc2)NC1

>  <score_type>  (40) 
oracle

>  <origin>  (40) 
adg

>  <m_score__min__energy>  (40) 
-5.5099999999999998

>  <m_primary>  (40) 
energy

$$$$
40:0
     RDKit          3D

 45 47  0  0  0  0  0  0  0  0999 V2000
   61.1630   29.5790   45.8390 O   0  0  0  0  0  0  0  0  0  0  0  0
   60.6980   29.8060   46.9850 C   0  0  0  0  0  0  0  0  0  0  0  0
   59.9090   28.8030   47.6400 N   0  0  0  0  0  0  0  0  0  0  0  0
   58.9970   27.9450   46.8890 C   0  0  0  0  0  0  0  0  0  0  0  0
   58.4620   28.7080   45.6690 C   0  0  0  0  0  0  0  0  0  0  0  0
   57.0240   28.3180   45.3120 C   0  0  0  0  0  0  0  0  0  0  0  0
   56.2150   29.5110   45.0050 N   0  0  0  0  0  0  0  0  0  0  0  0
   56.8120   30.3540   43.9570 C   0  0  0  0  0  0  0  0  0  0  0  0
   57.4550   31.5810   44.5510 C   0  0  0  0  0  0  0  0  0  0  0  0
   57.8360   32.6480   43.7210 C   0  0  0  0  0  0  0  0  0  0  0  0
   58.4970   33.7560   44.2550 C   0  0  0  0  0  0  0  0  0  0  0  0
   58.7800   33.8080   45.6220 C   0  0  0  0  0  0  0  0  0  0  0  0
   59.6710   35.3280   46.3520 Br  0  0  0  0  0  0  0  0  0  0  0  0
   58.4050   32.7490   46.4550 C   0  0  0  0  0  0  0  0  0  0  0  0
   57.7420   31.6410   45.9250 C   0  0  0  0  0  0  0  0  0  0  0  0
   60.9950   31.0990   47.6440 C   0  0  0  0  0  0  0  0  0  0  0  0
   62.0240   31.9080   47.1280 C   0  0  0  0  0  0  0  0  0  0  0  0
   62.3210   33.1410   47.7090 C   0  0  0  0  0  0  0  0  0  0  0  0
   61.5870   33.6000   48.8050 C   0  0  0  0  0  0  0  0  0  0  0  0
   60.5420   32.8240   49.3240 C   0  0  0  0  0  0  0  0  0  0  0  0
   59.7690   33.2830   50.4010 C   0  0  0  0  0  0  0  0  0  0  0  0
   58.7110   32.5090   50.8770 C   0  0  0  0  0  0  0  0  0  0  0  0
   58.4340   31.2810   50.2720 C   0  0  0  0  0  0  0  0  0  0  0  0
   59.1910   30.8470   49.2300 N   0  0  0  0  0  0  0  0  0  0  0  0
   60.2380   31.5700   48.7430 C   0  0  0  0  0  0  0  0  0  0  0  0
   59.8230   28.8210   48.6810 H   0  0  0  0  0  0  0  0  0  0  0  0
   59.5337   27.0458   46.5523 H   0  0  0  0  0  0  0  0  0  0  0  0
   58.1562   27.6510   47.5344 H   0  0  0  0  0  0  0  0  0  0  0  0
   58.4904   29.7857   45.8876 H   0  0  0  0  0  0  0  0  0  0  0  0
   59.0992   28.4503   44.8102 H   0  0  0  0  0  0  0  0  0  0  0  0
   57.0381   27.6568   44.4330 H   0  0  0  0  0  0  0  0  0  0  0  0
   56.5759   27.8025   46.1743 H   0  0  0  0  0  0  0  0  0  0  0  0
   56.1620   30.0940   45.8740 H   0  0  0  0  0  0  0  0  0  0  0  0
   57.5754   29.7726   43.4192 H   0  0  0  0  0  0  0  0  0  0  0  0
   56.0155   30.6742   43.2691 H   0  0  0  0  0  0  0  0  0  0  0  0
   57.6125   32.6106   42.6446 H   0  0  0  0  0  0  0  0  0  0  0  0
   58.7948   34.5876   43.5995 H   0  0  0  0  0  0  0  0  0  0  0  0
   58.6331   32.7894   47.5303 H   0  0  0  0  0  0  0  0  0  0  0  0
   57.4435   30.8129   46.5846 H   0  0  0  0  0  0  0  0  0  0  0  0
   62.6008   31.5644   46.2566 H   0  0  0  0  0  0  0  0  0  0  0  0
   63.1377   33.7551   47.3017 H   0  0  0  0  0  0  0  0  0  0  0  0
   61.8294   34.5712   49.2611 H   0  0  0  0  0  0  0  0  0  0  0  0
   59.9970   34.2519   50.8693 H   0  0  0  0  0  0  0  0  0  0  0  0
   58.1004   32.8623   51.7210 H   0  0  0  0  0  0  0  0  0  0  0  0
   57.6012   30.6636   50.6397 H   0  0  0  0  0  0  0  0  0  0  0  0
  1  2  2  0
  2  3  1  0
  3  4  1  0
  4  5  1  0
  5  6  1  0
  6  7  1  0
  7  8  1  0
  8  9  1  0
  9 10  2  0
 10 11  1  0
 11 12  2  0
 12 13  1  0
 12 14  1  0
 14 15  2  0
  2 16  1  0
 16 17  2  0
 17 18  1  0
 18 19  2  0
 19 20  1  0
 20 21  2  0
 21 22  1  0
 22 23  2  0
 23 24  1  0
 24 25  2  0
 15  9  1  0
 25 16  1  0
 25 20  1  0
  3 26  1  0
  4 27  1  0
  4 28  1  0
  5 29  1  0
  5 30  1  0
  6 31  1  0
  6 32  1  0
  7 33  1  0
  8 34  1  0
  8 35  1  0
 10 36  1  0
 11 37  1  0
 14 38  1  0
 15 39  1  0
 17 40  1  0
 18 41  1  0
 19 42  1  0
 21 43  1  0
 22 44  1  0
 23 45  1  0
M  END
>  <UniqueID>  (41) 
41

>  <SMILES>  (41) 
O=C(NCCCNCc1ccc(Br)cc1)c1cccc2cccnc12

>  <Energy>  (41) 
45.83746096083646

>  <Genealogy>  (41) 
O=C(NCCCNCc1ccc(Br)cc1)c1cccc2cccnc12 (3D coordinates assigned)
O=C(NCCCNCc1ccc(Br)cc1)c1cccc2cccnc12 (optimized conformer: 45.83746096083646 kcal/mol)

>  <smiles>  (41) 
O=C(NCCCNCc1ccc(Br)cc1)c1cccc2cccnc12

>  <score_type>  (41) 
oracle

>  <origin>  (41) 
adg

>  <m_score__min__energy>  (41) 
-7.8799999999999999

>  <m_primary>  (41) 
energy

$$$$
41:0
     RDKit          3D

 48 51  0  0  0  0  0  0  0  0999 V2000
   59.5880   33.7580   49.8720 C   0  0  0  0  0  0  0  0  0  0  0  0
   60.5990   33.7350   48.7580 C   0  0  0  0  0  0  0  0  0  0  0  0
   61.9620   33.8870   49.0750 C   0  0  0  0  0  0  0  0  0  0  0  0
   62.9340   33.8510   48.0750 C   0  0  0  0  0  0  0  0  0  0  0  0
   62.5620   33.6670   46.7450 C   0  0  0  0  0  0  0  0  0  0  0  0
   61.2150   33.5440   46.4070 C   0  0  0  0  0  0  0  0  0  0  0  0
   60.2170   33.5880   47.3980 C   0  0  0  0  0  0  0  0  0  0  0  0
   58.7730   33.5580   46.9560 C   0  0  0  0  0  0  0  0  0  0  0  0
   58.6280   33.3070   45.1520 S   0  0  0  0  0  0  0  0  0  0  0  0
   57.8840   31.6730   45.2540 C   0  0  0  0  0  0  0  0  0  0  0  0
   56.6560   31.3990   44.7820 N   0  0  0  0  0  0  0  0  0  0  0  0
   56.4860   30.0920   44.8900 N   0  0  0  0  0  0  0  0  0  0  0  0
   57.6170   29.5770   45.4130 C   0  0  0  0  0  0  0  0  0  0  0  0
   57.8120   28.1150   45.5930 C   0  0  0  0  0  0  0  0  0  0  0  0
   57.7670   27.3810   46.7670 C   0  0  0  0  0  0  0  0  0  0  0  0
   57.9580   26.0640   46.4060 C   0  0  0  0  0  0  0  0  0  0  0  0
   58.1090   25.9760   45.1060 O   0  0  0  0  0  0  0  0  0  0  0  0
   58.0250   27.1790   44.5890 C   0  0  0  0  0  0  0  0  0  0  0  0
   58.1450   27.4450   43.1220 C   0  0  0  0  0  0  0  0  0  0  0  0
   58.5240   30.5550   45.6580 N   0  0  0  0  0  0  0  0  0  0  0  0
   59.9340   30.4510   46.0480 C   0  0  0  0  0  0  0  0  0  0  0  0
   60.1010   30.2940   47.5420 C   0  0  0  0  0  0  0  0  0  0  0  0
   58.9600   30.1530   48.3500 C   0  0  0  0  0  0  0  0  0  0  0  0
   59.0760   30.1220   49.7430 C   0  0  0  0  0  0  0  0  0  0  0  0
   60.3300   30.2500   50.3430 C   0  0  0  0  0  0  0  0  0  0  0  0
   61.4720   30.3930   49.5520 C   0  0  0  0  0  0  0  0  0  0  0  0
   61.3620   30.4080   48.1590 C   0  0  0  0  0  0  0  0  0  0  0  0
   60.1093   33.7461   50.8406 H   0  0  0  0  0  0  0  0  0  0  0  0
   58.9782   34.6702   49.7950 H   0  0  0  0  0  0  0  0  0  0  0  0
   58.9373   32.8744   49.7950 H   0  0  0  0  0  0  0  0  0  0  0  0
   62.2639   34.0357   50.1223 H   0  0  0  0  0  0  0  0  0  0  0  0
   63.9959   33.9681   48.3370 H   0  0  0  0  0  0  0  0  0  0  0  0
   63.3319   33.6187   45.9608 H   0  0  0  0  0  0  0  0  0  0  0  0
   60.9290   33.4110   45.3532 H   0  0  0  0  0  0  0  0  0  0  0  0
   58.2581   32.7352   47.4736 H   0  0  0  0  0  0  0  0  0  0  0  0
   58.3158   34.5265   47.2069 H   0  0  0  0  0  0  0  0  0  0  0  0
   57.6103   27.7708   47.7836 H   0  0  0  0  0  0  0  0  0  0  0  0
   57.9804   25.2141   47.1040 H   0  0  0  0  0  0  0  0  0  0  0  0
   58.5927   28.4374   42.9647 H   0  0  0  0  0  0  0  0  0  0  0  0
   58.7840   26.6773   42.6612 H   0  0  0  0  0  0  0  0  0  0  0  0
   57.1466   27.4159   42.6612 H   0  0  0  0  0  0  0  0  0  0  0  0
   60.3767   29.5770   45.5479 H   0  0  0  0  0  0  0  0  0  0  0  0
   60.4381   31.3812   45.7469 H   0  0  0  0  0  0  0  0  0  0  0  0
   57.9679   30.0663   47.8829 H   0  0  0  0  0  0  0  0  0  0  0  0
   58.1786   29.9967   50.3666 H   0  0  0  0  0  0  0  0  0  0  0  0
   60.4186   30.2382   51.4394 H   0  0  0  0  0  0  0  0  0  0  0  0
   62.4594   30.4940   50.0261 H   0  0  0  0  0  0  0  0  0  0  0  0
   62.2659   30.5095   47.5404 H   0  0  0  0  0  0  0  0  0  0  0  0
  1  2  1  0
  2  3  2  0
  3  4  1  0
  4  5  2  0
  5  6  1  0
  6  7  2  0
  7  8  1  0
  8  9  1  0
  9 10  1  0
 10 11  2  0
 11 12  1  0
 12 13  2  0
 13 14  1  0
 14 15  1  0
 15 16  2  0
 16 17  1  0
 17 18  1  0
 18 19  1  0
 13 20  1  0
 20 21  1  0
 21 22  1  0
 22 23  2  0
 23 24  1  0
 24 25  2  0
 25 26  1  0
 26 27  2  0
  7  2  1  0
 20 10  1  0
 27 22  1  0
 18 14  2  0
  1 28  1  0
  1 29  1  0
  1 30  1  0
  3 31  1  0
  4 32  1  0
  5 33  1  0
  6 34  1  0
  8 35  1  0
  8 36  1  0
 15 37  1  0
 16 38  1  0
 19 39  1  0
 19 40  1  0
 19 41  1  0
 21 42  1  0
 21 43  1  0
 23 44  1  0
 24 45  1  0
 25 46  1  0
 26 47  1  0
 27 48  1  0
M  END
>  <UniqueID>  (42) 
42

>  <SMILES>  (42) 
Cc1ccccc1CSc1nnc(-c2ccoc2C)n1Cc1ccccc1

>  <Energy>  (42) 
110.67361376740638

>  <Genealogy>  (42) 
Cc1ccccc1CSc1nnc(-c2ccoc2C)n1Cc1ccccc1 (3D coordinates assigned)
Cc1ccccc1CSc1nnc(-c2ccoc2C)n1Cc1ccccc1 (optimized conformer: 110.67361376740638 kcal/mol)

>  <smiles>  (42) 
Cc1ccccc1CSc1nnc(-c2ccoc2C)n1Cc1ccccc1

>  <score_type>  (42) 
oracle

>  <origin>  (42) 
adg

>  <m_score__min__energy>  (42) 
-8.9700000000000006

>  <m_primary>  (42) 
energy

$$$$
42:0
     RDKit          3D

 41 43  0  0  0  0  0  0  0  0999 V2000
   65.3100   31.9300   50.3450 C   0  0  0  0  0  0  0  0  0  0  0  0
   64.9120   33.0710   49.4050 C   0  0  0  0  0  0  0  0  0  0  0  0
   64.1670   32.5860   48.2250 N   0  0  0  0  0  0  0  0  0  0  0  0
   63.1070   33.5290   47.7810 C   0  0  0  0  0  0  0  0  0  0  0  0
   61.6960   32.9250   47.3730 C   0  0  1  0  0  0  0  0  0  0  0  0
   61.9170   31.4320   47.1190 C   0  0  0  0  0  0  0  0  0  0  0  0
   61.8980   30.8040   48.4060 O   0  0  0  0  0  0  0  0  0  0  0  0
   61.2470   31.7010   49.3070 C   0  0  0  0  0  0  0  0  0  0  0  0
   60.6500   32.7450   48.4150 C   0  0  1  0  0  0  0  0  0  0  0  0
   60.0900   34.1170   48.6530 C   0  0  0  0  0  0  0  0  0  0  0  0
   60.1190   34.7400   47.2990 N   0  0  0  0  0  0  0  0  0  0  0  0
   58.7700   34.9620   46.7480 C   0  0  0  0  0  0  0  0  0  0  0  0
   58.3730   33.8130   45.8750 C   0  0  0  0  0  0  0  0  0  0  0  0
   58.2750   33.8350   44.4900 C   0  0  0  0  0  0  0  0  0  0  0  0
   57.9180   32.5960   43.9450 C   0  0  0  0  0  0  0  0  0  0  0  0
   57.7420   31.5990   44.8960 C   0  0  0  0  0  0  0  0  0  0  0  0
   58.0310   32.2580   46.4150 S   0  0  0  0  0  0  0  0  0  0  0  0
   60.9230   33.8370   46.4200 C   0  0  0  0  0  0  0  0  0  0  0  0
   65.1956   32.2580   51.3887 H   0  0  0  0  0  0  0  0  0  0  0  0
   64.6621   31.0603   50.1608 H   0  0  0  0  0  0  0  0  0  0  0  0
   66.3582   31.6519   50.1608 H   0  0  0  0  0  0  0  0  0  0  0  0
   64.2784   33.7806   49.9572 H   0  0  0  0  0  0  0  0  0  0  0  0
   65.8343   33.5527   49.0482 H   0  0  0  0  0  0  0  0  0  0  0  0
   64.8390   32.3480   47.4690 H   0  0  0  0  0  0  0  0  0  0  0  0
   63.7180   31.6710   48.4690 H   0  0  0  0  0  0  0  0  0  0  0  0
   62.9339   34.2379   48.6041 H   0  0  0  0  0  0  0  0  0  0  0  0
   63.4990   33.9651   46.8503 H   0  0  0  0  0  0  0  0  0  0  0  0
   61.1129   31.0292   46.4856 H   0  0  0  0  0  0  0  0  0  0  0  0
   62.8674   31.2493   46.5962 H   0  0  0  0  0  0  0  0  0  0  0  0
   60.4638   31.1809   49.8780 H   0  0  0  0  0  0  0  0  0  0  0  0
   61.9363   32.1258   50.0516 H   0  0  0  0  0  0  0  0  0  0  0  0
   59.6543   32.2833   48.3416 H   0  0  0  0  0  0  0  0  0  0  0  0
   59.0614   34.0611   49.0389 H   0  0  0  0  0  0  0  0  0  0  0  0
   60.6574   34.6891   49.4019 H   0  0  0  0  0  0  0  0  0  0  0  0
   58.0506   35.0557   47.5749 H   0  0  0  0  0  0  0  0  0  0  0  0
   58.7745   35.8840   46.1480 H   0  0  0  0  0  0  0  0  0  0  0  0
   58.4590   34.7339   43.8833 H   0  0  0  0  0  0  0  0  0  0  0  0
   57.7890   32.4278   42.8656 H   0  0  0  0  0  0  0  0  0  0  0  0
   57.4612   30.5556   44.6900 H   0  0  0  0  0  0  0  0  0  0  0  0
   60.2623   33.2437   45.7708 H   0  0  0  0  0  0  0  0  0  0  0  0
   61.5963   34.4027   45.7592 H   0  0  0  0  0  0  0  0  0  0  0  0
  1  2  1  0
  2  3  1  0
  3  4  1  0
  5  4  1  1
  5  6  1  0
  6  7  1  0
  7  8  1  0
  8  9  1  0
  9 10  1  0
 10 11  1  0
 11 12  1  0
 12 13  1  0
 13 14  2  0
 14 15  1  0
 15 16  2  0
 16 17  1  0
 11 18  1  0
  9  5  1  0
 17 13  1  0
 18  5  1  0
  1 19  1  0
  1 20  1  0
  1 21  1  0
  2 22  1  0
  2 23  1  0
  3 24  1  0
  3 25  1  0
  4 26  1  0
  4 27  1  0
  6 28  1  0
  6 29  1  0
  8 30  1  0
  8 31  1  0
  9 32  1  6
 10 33  1  0
 10 34  1  0
 12 35  1  0
 12 36  1  0
 14 37  1  0
 15 38  1  0
 16 39  1  0
 18 40  1  0
 18 41  1  0
M  CHG  1   3   1
M  END
>  <UniqueID>  (43) 
43

>  <SMILES>  (43) 
CC[NH2+]C[C@@]12COC[C@H]1CN(Cc1cccs1)C2

>  <Energy>  (43) 
119.69233439252555

>  <Genealogy>  (43) 
CC[NH2+]CC12COCC1CN(Cc1cccs1)C2 (protonated)
CC[NH2+]C[C@@]12COC[C@H]1CN(Cc1cccs1)C2 (chirality)
CC[NH2+]C[C@@]12COC[C@H]1CN(Cc1cccs1)C2 (3D coordinates assigned)
CC[NH2+]C[C@@]12COC[C@H]1CN(Cc1cccs1)C2 (nonaromatic ring conformer: 119.69233439252555 kcal/mol)

>  <smiles>  (43) 
CCNCC12COCC1CN(Cc1cccs1)C2

>  <score_type>  (43) 
oracle

>  <origin>  (43) 
adg

>  <m_score__min__energy>  (43) 
-4.8300000000000001

>  <m_primary>  (43) 
energy

$$$$
43:0
     RDKit          3D

 60 62  0  0  0  0  0  0  0  0999 V2000
   55.2900   29.7160   43.8150 C   0  0  0  0  0  0  0  0  0  0  0  0
   56.5060   30.0690   42.9610 C   0  0  0  0  0  0  0  0  0  0  0  0
   57.7110   30.5130   43.8000 C   0  0  0  0  0  0  0  0  0  0  0  0
   57.3340   30.6190   45.2350 N   0  0  0  0  0  0  0  0  0  0  0  0
   57.8510   29.4760   46.0280 C   0  0  0  0  0  0  0  0  0  0  0  0
   58.9970   29.9230   46.9480 C   0  0  0  0  0  0  0  0  0  0  0  0
   60.3660   29.7190   46.2950 C   0  0  0  0  0  0  0  0  0  0  0  0
   57.7490   31.9150   45.8180 C   0  0  0  0  0  0  0  0  0  0  0  0
   57.9510   32.9610   44.7100 C   0  0  0  0  0  0  0  0  0  0  0  0
   57.6370   34.3810   45.2000 C   0  0  0  0  0  0  0  0  0  0  0  0
   58.7830   34.9920   45.7960 O   0  0  0  0  0  0  0  0  0  0  0  0
   59.6800   34.3680   46.6770 C   0  0  0  0  0  0  0  0  0  0  0  0
   60.8000   33.7280   46.1300 C   0  0  0  0  0  0  0  0  0  0  0  0
   61.7330   33.0980   46.9570 C   0  0  0  0  0  0  0  0  0  0  0  0
   61.5550   33.0990   48.3470 C   0  0  0  0  0  0  0  0  0  0  0  0
   62.5210   32.4560   49.1990 N   0  0  0  0  0  0  0  0  0  0  0  0
   62.1590   31.3800   49.9730 C   0  0  0  0  0  0  0  0  0  0  0  0
   60.7480   30.8560   49.9890 C   0  0  0  0  0  0  0  0  0  0  0  0
   63.0830   30.7610   50.7540 N   0  0  0  0  0  0  0  0  0  0  0  0
   64.3710   31.1800   50.7980 C   0  0  0  0  0  0  0  0  0  0  0  0
   65.2990   30.5110   51.6060 C   0  0  0  0  0  0  0  0  0  0  0  0
   66.6280   30.9380   51.6460 C   0  0  0  0  0  0  0  0  0  0  0  0
   67.0340   32.0370   50.8820 C   0  0  0  0  0  0  0  0  0  0  0  0
   66.1130   32.7150   50.0780 C   0  0  0  0  0  0  0  0  0  0  0  0
   64.7730   32.2870   50.0270 C   0  0  0  0  0  0  0  0  0  0  0  0
   63.8110   32.9210   49.2230 C   0  0  0  0  0  0  0  0  0  0  0  0
   64.1380   33.9140   48.5130 O   0  0  0  0  0  0  0  0  0  0  0  0
   60.4390   33.7380   48.9030 C   0  0  0  0  0  0  0  0  0  0  0  0
   59.5050   34.3700   48.0760 C   0  0  0  0  0  0  0  0  0  0  0  0
   55.5550   29.7929   44.8798 H   0  0  0  0  0  0  0  0  0  0  0  0
   54.4692   30.4130   43.5901 H   0  0  0  0  0  0  0  0  0  0  0  0
   54.9700   28.6879   43.5901 H   0  0  0  0  0  0  0  0  0  0  0  0
   56.7928   29.1837   42.3744 H   0  0  0  0  0  0  0  0  0  0  0  0
   56.2234   30.9124   42.3138 H   0  0  0  0  0  0  0  0  0  0  0  0
   58.5196   29.7752   43.6914 H   0  0  0  0  0  0  0  0  0  0  0  0
   58.0479   31.4986   43.4462 H   0  0  0  0  0  0  0  0  0  0  0  0
   57.0358   29.0649   46.6415 H   0  0  0  0  0  0  0  0  0  0  0  0
   58.2331   28.7113   45.3357 H   0  0  0  0  0  0  0  0  0  0  0  0
   58.8699   30.9904   47.1814 H   0  0  0  0  0  0  0  0  0  0  0  0
   58.9601   29.3102   47.8608 H   0  0  0  0  0  0  0  0  0  0  0  0
   61.1317   29.6049   47.0765 H   0  0  0  0  0  0  0  0  0  0  0  0
   60.3428   28.8144   45.6696 H   0  0  0  0  0  0  0  0  0  0  0  0
   60.6075   30.5911   45.6696 H   0  0  0  0  0  0  0  0  0  0  0  0
   56.9703   32.2667   46.5108 H   0  0  0  0  0  0  0  0  0  0  0  0
   58.6988   31.7766   46.3554 H   0  0  0  0  0  0  0  0  0  0  0  0
   58.9974   32.9244   44.3727 H   0  0  0  0  0  0  0  0  0  0  0  0
   57.2608   32.7237   43.8870 H   0  0  0  0  0  0  0  0  0  0  0  0
   57.3104   34.9908   44.3447 H   0  0  0  0  0  0  0  0  0  0  0  0
   56.8439   34.3177   45.9596 H   0  0  0  0  0  0  0  0  0  0  0  0
   60.9459   33.7216   45.0397 H   0  0  0  0  0  0  0  0  0  0  0  0
   62.6092   32.6001   46.5162 H   0  0  0  0  0  0  0  0  0  0  0  0
   60.4146   30.7322   51.0299 H   0  0  0  0  0  0  0  0  0  0  0  0
   60.0864   31.5684   49.4744 H   0  0  0  0  0  0  0  0  0  0  0  0
   60.7118   29.8845   49.4744 H   0  0  0  0  0  0  0  0  0  0  0  0
   64.9807   29.6483   52.2097 H   0  0  0  0  0  0  0  0  0  0  0  0
   67.3562   30.4096   52.2789 H   0  0  0  0  0  0  0  0  0  0  0  0
   68.0822   32.3691   50.9139 H   0  0  0  0  0  0  0  0  0  0  0  0
   66.4356   33.5834   49.4849 H   0  0  0  0  0  0  0  0  0  0  0  0
   60.2970   33.7426   49.9938 H   0  0  0  0  0  0  0  0  0  0  0  0
   58.6310   34.8703   48.5184 H   0  0  0  0  0  0  0  0  0  0  0  0
  1  2  1  0
  2  3  1  0
  3  4  1  0
  4  5  1  0
  5  6  1  0
  6  7  1  0
  4  8  1  0
  8  9  1  0
  9 10  1  0
 10 11  1  0
 11 12  1  0
 12 13  2  0
 13 14  1  0
 14 15  2  0
 15 16  1  0
 16 17  1  0
 17 18  1  0
 17 19  2  0
 19 20  1  0
 20 21  2  0
 21 22  1  0
 22 23  2  0
 23 24  1  0
 24 25  2  0
 25 26  1  0
 26 27  2  0
 15 28  1  0
 28 29  2  0
 29 12  1  0
 26 16  1  0
 25 20  1  0
  1 30  1  0
  1 31  1  0
  1 32  1  0
  2 33  1  0
  2 34  1  0
  3 35  1  0
  3 36  1  0
  5 37  1  0
  5 38  1  0
  6 39  1  0
  6 40  1  0
  7 41  1  0
  7 42  1  0
  7 43  1  0
  8 44  1  0
  8 45  1  0
  9 46  1  0
  9 47  1  0
 10 48  1  0
 10 49  1  0
 13 50  1  0
 14 51  1  0
 18 52  1  0
 18 53  1  0
 18 54  1  0
 21 55  1  0
 22 56  1  0
 23 57  1  0
 24 58  1  0
 28 59  1  0
 29 60  1  0
M  END
>  <UniqueID>  (44) 
44

>  <SMILES>  (44) 
CCCN(CCC)CCCOc1ccc(-n2c(C)nc3ccccc3c2=O)cc1

>  <Energy>  (44) 
67.32504286355305

>  <Genealogy>  (44) 
CCCN(CCC)CCCOc1ccc(-n2c(C)nc3ccccc3c2=O)cc1 (3D coordinates assigned)
CCCN(CCC)CCCOc1ccc(-n2c(C)nc3ccccc3c2=O)cc1 (optimized conformer: 67.32504286355305 kcal/mol)

>  <smiles>  (44) 
CCCN(CCC)CCCOc1ccc(-n2c(C)nc3ccccc3c2=O)cc1

>  <score_type>  (44) 
oracle

>  <origin>  (44) 
adg

>  <m_score__min__energy>  (44) 
-7.7800000000000002

>  <m_primary>  (44) 
energy

$$$$
