0:0
     RDKit          3D

 61 65  0  0  0  0  0  0  0  0999 V2000
   63.3010   33.8240   46.4300 C   0  0  0  0  0  0  0  0  0  0  0  0
   63.3970   32.6930   47.4700 C   0  0  0  0  0  0  0  0  0  0  0  0
   62.1950   32.5100   48.3350 N   0  0  0  0  0  0  0  0  0  0  0  0
   61.8940   33.7060   49.1700 C   0  0  0  0  0  0  0  0  0  0  0  0
   63.0460   34.1860   50.0610 C   0  0  0  0  0  0  0  0  0  0  0  0
   62.1930   31.2180   49.0720 C   0  0  0  0  0  0  0  0  0  0  0  0
   60.9900   30.3220   48.7330 C   0  0  0  0  0  0  0  0  0  0  0  0
   59.8130   31.1420   48.4390 N   0  0  0  0  0  0  0  0  0  0  0  0
   59.1960   31.1260   47.1400 C   0  0  0  0  0  0  0  0  0  0  0  0
   59.0890   32.3130   46.3920 C   0  0  0  0  0  0  0  0  0  0  0  0
   59.5290   33.5450   46.9210 C   0  0  0  0  0  0  0  0  0  0  0  0
   59.4720   34.7090   46.1580 C   0  0  0  0  0  0  0  0  0  0  0  0
   58.9770   34.6660   44.8600 C   0  0  0  0  0  0  0  0  0  0  0  0
   58.4990   33.4670   44.3320 C   0  0  0  0  0  0  0  0  0  0  0  0
   58.5040   32.2740   45.0990 C   0  0  0  0  0  0  0  0  0  0  0  0
   57.9610   31.1000   44.6160 N   0  0  0  0  0  0  0  0  0  0  0  0
   57.0180   31.1550   43.4760 C   0  0  0  0  0  0  0  0  0  0  0  0
   58.2140   29.9000   45.2590 C   0  0  0  0  0  0  0  0  0  0  0  0
   57.9790   28.6280   44.6490 C   0  0  0  0  0  0  0  0  0  0  0  0
   57.6970   28.5310   43.4250 O   0  0  0  0  0  0  0  0  0  0  0  0
   58.1290   27.4930   45.3920 N   0  0  0  0  0  0  0  0  0  0  0  0
   58.5580   27.5100   46.6710 C   0  0  0  0  0  0  0  0  0  0  0  0
   58.8950   28.7010   47.2910 C   0  0  0  0  0  0  0  0  0  0  0  0
   58.7610   29.9110   46.5770 C   0  0  0  0  0  0  0  0  0  0  0  0
   58.6940   26.1400   47.2730 C   0  0  0  0  0  0  0  0  0  0  0  0
   58.2620   25.3120   46.1080 C   0  0  0  0  0  0  0  0  0  0  0  0
   58.1570   23.9240   46.0240 C   0  0  0  0  0  0  0  0  0  0  0  0
   57.7130   23.3600   44.8170 C   0  0  0  0  0  0  0  0  0  0  0  0
   57.3810   24.1870   43.7260 C   0  0  0  0  0  0  0  0  0  0  0  0
   57.4930   25.5820   43.8300 C   0  0  0  0  0  0  0  0  0  0  0  0
   57.9440   26.1250   45.0410 C   0  0  0  0  0  0  0  0  0  0  0  0
   63.2189   34.7915   46.9470 H   0  0  0  0  0  0  0  0  0  0  0  0
   64.2027   33.8203   45.8000 H   0  0  0  0  0  0  0  0  0  0  0  0
   62.4128   33.6684   45.8000 H   0  0  0  0  0  0  0  0  0  0  0  0
   63.5724   31.7507   46.9303 H   0  0  0  0  0  0  0  0  0  0  0  0
   64.2158   32.9757   48.1479 H   0  0  0  0  0  0  0  0  0  0  0  0
   61.3910   32.4530   47.6630 H   0  0  0  0  0  0  0  0  0  0  0  0
   61.6181   34.5308   48.4965 H   0  0  0  0  0  0  0  0  0  0  0  0
   61.0845   33.4067   49.8520 H   0  0  0  0  0  0  0  0  0  0  0  0
   62.7652   34.0690   51.1181 H   0  0  0  0  0  0  0  0  0  0  0  0
   63.9450   33.5876   49.8520 H   0  0  0  0  0  0  0  0  0  0  0  0
   63.2542   35.2457   49.8520 H   0  0  0  0  0  0  0  0  0  0  0  0
   63.1150   30.6727   48.8219 H   0  0  0  0  0  0  0  0  0  0  0  0
   62.1279   31.4563   50.1439 H   0  0  0  0  0  0  0  0  0  0  0  0
   61.2322   29.7064   47.8542 H   0  0  0  0  0  0  0  0  0  0  0  0
   60.7700   29.6764   49.5960 H   0  0  0  0  0  0  0  0  0  0  0  0
   59.2600   31.5060   49.2480 H   0  0  0  0  0  0  0  0  0  0  0  0
   59.9215   33.5866   47.9477 H   0  0  0  0  0  0  0  0  0  0  0  0
   59.8189   35.6625   46.5829 H   0  0  0  0  0  0  0  0  0  0  0  0
   58.9622   35.5798   44.2478 H   0  0  0  0  0  0  0  0  0  0  0  0
   58.1114   33.4462   43.3028 H   0  0  0  0  0  0  0  0  0  0  0  0
   55.9872   31.2151   43.8554 H   0  0  0  0  0  0  0  0  0  0  0  0
   57.2354   32.0420   42.8628 H   0  0  0  0  0  0  0  0  0  0  0  0
   57.1308   30.2488   42.8628 H   0  0  0  0  0  0  0  0  0  0  0  0
   59.2628   28.7042   48.3277 H   0  0  0  0  0  0  0  0  0  0  0  0
   59.7313   25.9230   47.5680 H   0  0  0  0  0  0  0  0  0  0  0  0
   58.1227   25.9777   48.1989 H   0  0  0  0  0  0  0  0  0  0  0  0
   58.4157   23.2864   46.8823 H   0  0  0  0  0  0  0  0  0  0  0  0
   57.6241   22.2676   44.7231 H   0  0  0  0  0  0  0  0  0  0  0  0
   57.0314   23.7360   42.7856 H   0  0  0  0  0  0  0  0  0  0  0  0
   57.2333   26.2331   42.9823 H   0  0  0  0  0  0  0  0  0  0  0  0
  1  2  1  0
  2  3  1  0
  3  4  1  0
  4  5  1  0
  3  6  1  0
  6  7  1  0
  7  8  1  0
  8  9  1  0
  9 10  2  0
 10 11  1  0
 11 12  2  0
 12 13  1  0
 13 14  2  0
 14 15  1  0
 15 16  2  0
 16 17  1  0
 16 18  1  0
 18 19  1  0
 19 20  2  0
 19 21  1  0
 21 22  1  0
 22 23  2  0
 23 24  1  0
 22 25  1  0
 25 26  1  0
 26 27  2  0
 27 28  1  0
 28 29  2  0
 29 30  1  0
 30 31  2  0
 24  9  1  0
 31 26  1  0
 15 10  1  0
 24 18  2  0
 31 21  1  0
  1 32  1  0
  1 33  1  0
  1 34  1  0
  2 35  1  0
  2 36  1  0
  3 37  1  0
  4 38  1  0
  4 39  1  0
  5 40  1  0
  5 41  1  0
  5 42  1  0
  6 43  1  0
  6 44  1  0
  7 45  1  0
  7 46  1  0
  8 47  1  0
 11 48  1  0
 12 49  1  0
 13 50  1  0
 14 51  1  0
 17 52  1  0
 17 53  1  0
 17 54  1  0
 23 55  1  0
 25 56  1  0
 25 57  1  0
 27 58  1  0
 28 59  1  0
 29 60  1  0
 30 61  1  0
M  CHG  2   3   1  16   1
M  END
>  <UniqueID>  (1) 
1

>  <SMILES>  (1) 
CC[NH+](CC)CCNc1c2ccccc2[n+](C)c2c(=O)n3c(cc12)Cc1ccccc1-3

>  <Energy>  (1) 
129.64095480530412

>  <Genealogy>  (1) 
CC[NH+](CC)CCNc1c2ccccc2[n+](C)c2c(=O)n3c(cc12)Cc1ccccc1-3 (protonated)
CC[NH+](CC)CCNc1c2ccccc2[n+](C)c2c(=O)n3c(cc12)Cc1ccccc1-3 (3D coordinates assigned)
CC[NH+](CC)CCNc1c2ccccc2[n+](C)c2c(=O)n3c(cc12)Cc1ccccc1-3 (nonaromatic ring conformer: 129.64095480530412 kcal/mol)

>  <smiles>  (1) 
CCN(CC)CCNc1c2ccccc2[n+](C)c2c(=O)n3c(cc12)Cc1ccccc1-3

>  <score_type>  (1) 
oracle

>  <origin>  (1) 
adg

>  <m_score__min__energy>  (1) 
-6.1100000000000003

>  <m_primary>  (1) 
energy

$$$$
1:0
     RDKit          3D

 32 34  0  0  0  0  0  0  0  0999 V2000
   63.3960   33.8450   46.3660 C   0  0  0  0  0  0  0  0  0  0  0  0
   63.1580   33.0420   47.6390 C   0  0  0  0  0  0  0  0  0  0  0  0
   61.9310   33.8650   48.7140 S   0  0  0  0  0  0  0  0  0  0  0  0
   60.5460   33.5860   47.6120 C   0  0  0  0  0  0  0  0  0  0  0  0
   59.7620   34.6260   47.2300 N   0  0  0  0  0  0  0  0  0  0  0  0
   58.7090   34.4350   46.3930 C   0  0  0  0  0  0  0  0  0  0  0  0
   58.4150   33.1530   45.9200 C   0  0  0  0  0  0  0  0  0  0  0  0
   59.2480   32.0930   46.3110 C   0  0  0  0  0  0  0  0  0  0  0  0
   60.2910   32.3340   47.1500 N   0  0  0  0  0  0  0  0  0  0  0  0
   58.9590   30.7240   45.8370 C   0  0  0  0  0  0  0  0  0  0  0  0
   59.8160   29.6450   46.1150 C   0  0  0  0  0  0  0  0  0  0  0  0
   59.4880   28.3510   45.6820 C   0  0  0  0  0  0  0  0  0  0  0  0
   60.3850   27.1950   46.0130 C   0  0  0  0  0  0  0  0  0  0  0  0
   58.2790   28.1340   45.0040 C   0  0  0  0  0  0  0  0  0  0  0  0
   57.4230   29.2050   44.7300 C   0  0  0  0  0  0  0  0  0  0  0  0
   57.7660   30.4980   45.1330 C   0  0  0  0  0  0  0  0  0  0  0  0
   56.9010   31.5630   44.8590 O   0  0  0  0  0  0  0  0  0  0  0  0
   57.3090   32.9330   44.9190 C   0  0  0  0  0  0  0  0  0  0  0  0
   63.6995   34.8689   46.6297 H   0  0  0  0  0  0  0  0  0  0  0  0
   64.1913   33.3677   45.7747 H   0  0  0  0  0  0  0  0  0  0  0  0
   62.4690   33.8781   45.7747 H   0  0  0  0  0  0  0  0  0  0  0  0
   62.7866   32.0423   47.3693 H   0  0  0  0  0  0  0  0  0  0  0  0
   64.1085   32.9656   48.1875 H   0  0  0  0  0  0  0  0  0  0  0  0
   58.0875   35.2896   46.0874 H   0  0  0  0  0  0  0  0  0  0  0  0
   60.7477   29.8156   46.6743 H   0  0  0  0  0  0  0  0  0  0  0  0
   60.4640   27.0932   47.1054 H   0  0  0  0  0  0  0  0  0  0  0  0
   59.9648   26.2715   45.5881 H   0  0  0  0  0  0  0  0  0  0  0  0
   61.3840   27.3727   45.5881 H   0  0  0  0  0  0  0  0  0  0  0  0
   58.0035   27.1174   44.6868 H   0  0  0  0  0  0  0  0  0  0  0  0
   56.4775   29.0292   44.1960 H   0  0  0  0  0  0  0  0  0  0  0  0
   57.6644   33.2410   43.9246 H   0  0  0  0  0  0  0  0  0  0  0  0
   56.4418   33.5307   45.2361 H   0  0  0  0  0  0  0  0  0  0  0  0
  1  2  1  0
  2  3  1  0
  3  4  1  0
  4  5  2  0
  5  6  1  0
  6  7  2  0
  7  8  1  0
  8  9  2  0
  8 10  1  0
 10 11  2  0
 11 12  1  0
 12 13  1  0
 12 14  2  0
 14 15  1  0
 15 16  2  0
 16 17  1  0
 17 18  1  0
  9  4  1  0
 16 10  1  0
 18  7  1  0
  1 19  1  0
  1 20  1  0
  1 21  1  0
  2 22  1  0
  2 23  1  0
  6 24  1  0
 11 25  1  0
 13 26  1  0
 13 27  1  0
 13 28  1  0
 14 29  1  0
 15 30  1  0
 18 31  1  0
 18 32  1  0
M  END
>  <UniqueID>  (2) 
2

>  <SMILES>  (2) 
CCSc1ncc2c(n1)-c1cc(C)ccc1OC2

>  <Energy>  (2) 
32.58534443901159

>  <Genealogy>  (2) 
CCSc1ncc2c(n1)-c1cc(C)ccc1OC2 (3D coordinates assigned)
CCSc1ncc2c(n1)-c1cc(C)ccc1OC2 (nonaromatic ring conformer: 32.58534443901159 kcal/mol)

>  <smiles>  (2) 
CCSc1ncc2c(n1)-c1cc(C)ccc1OC2

>  <score_type>  (2) 
oracle

>  <origin>  (2) 
adg

>  <m_score__min__energy>  (2) 
-6.7300000000000004

>  <m_primary>  (2) 
energy

$$$$
2:0
     RDKit          3D

 59 63  0  0  0  0  0  0  0  0999 V2000
   58.7430   34.4310   52.7410 C   0  0  0  0  0  0  0  0  0  0  0  0
   59.7480   34.1240   51.7800 O   0  0  0  0  0  0  0  0  0  0  0  0
   59.4910   33.7420   50.4530 C   0  0  0  0  0  0  0  0  0  0  0  0
   59.7810   34.5840   49.3650 C   0  0  0  0  0  0  0  0  0  0  0  0
   59.5030   34.1710   48.0550 C   0  0  0  0  0  0  0  0  0  0  0  0
   59.5860   35.0910   46.9980 C   0  0  0  0  0  0  0  0  0  0  0  0
   59.1310   34.7400   45.7280 C   0  0  0  0  0  0  0  0  0  0  0  0
   58.7240   33.4270   45.4650 C   0  0  0  0  0  0  0  0  0  0  0  0
   58.1680   33.0860   44.2230 C   0  0  0  0  0  0  0  0  0  0  0  0
   57.7790   31.7690   43.9840 C   0  0  0  0  0  0  0  0  0  0  0  0
   58.0660   30.8280   44.9240 N   0  0  0  0  0  0  0  0  0  0  0  0
   58.0290   29.4910   44.7810 C   0  0  0  0  0  0  0  0  0  0  0  0
   57.5670   28.7350   43.6980 C   0  0  0  0  0  0  0  0  0  0  0  0
   57.8010   27.3490   43.7180 C   0  0  0  0  0  0  0  0  0  0  0  0
   58.5200   26.7600   44.7800 C   0  0  0  0  0  0  0  0  0  0  0  0
   59.0030   27.5500   45.8380 C   0  0  0  0  0  0  0  0  0  0  0  0
   58.7070   28.9150   45.8250 C   0  0  0  0  0  0  0  0  0  0  0  0
   59.1490   29.9640   46.6300 C   0  0  0  0  0  0  0  0  0  0  0  0
   60.3740   29.8800   47.3970 N   0  0  0  0  0  0  0  0  0  0  0  0
   61.4310   30.7680   46.8690 C   0  0  0  0  0  0  0  0  0  0  0  0
   62.1790   31.4890   48.0010 C   0  0  0  0  0  0  0  0  0  0  0  0
   63.2000   32.4070   47.4520 N   0  0  0  0  0  0  0  0  0  0  0  0
   62.5720   33.5170   46.7130 C   0  0  0  0  0  0  0  0  0  0  0  0
   64.0310   32.9520   48.5380 C   0  0  0  0  0  0  0  0  0  0  0  0
   58.6700   31.1230   46.0760 N   0  0  0  0  0  0  0  0  0  0  0  0
   58.8550   32.4310   46.4630 C   0  0  0  0  0  0  0  0  0  0  0  0
   59.0590   32.8480   47.8060 C   0  0  0  0  0  0  0  0  0  0  0  0
   58.6790   32.0550   48.9050 C   0  0  0  0  0  0  0  0  0  0  0  0
   58.8900   32.4980   50.2260 C   0  0  0  0  0  0  0  0  0  0  0  0
   58.4940   31.7390   51.3390 O   0  0  0  0  0  0  0  0  0  0  0  0
   57.1450   31.5490   51.7550 C   0  0  0  0  0  0  0  0  0  0  0  0
   59.1536   34.3056   53.7538 H   0  0  0  0  0  0  0  0  0  0  0  0
   58.4119   35.4712   52.6058 H   0  0  0  0  0  0  0  0  0  0  0  0
   57.8872   33.7533   52.6058 H   0  0  0  0  0  0  0  0  0  0  0  0
   60.2288   35.5728   49.5431 H   0  0  0  0  0  0  0  0  0  0  0  0
   60.0108   36.0906   47.1722 H   0  0  0  0  0  0  0  0  0  0  0  0
   59.0917   35.4968   44.9307 H   0  0  0  0  0  0  0  0  0  0  0  0
   58.0400   33.8519   43.4439 H   0  0  0  0  0  0  0  0  0  0  0  0
   57.2524   31.4968   43.0574 H   0  0  0  0  0  0  0  0  0  0  0  0
   57.0380   29.2097   42.8584 H   0  0  0  0  0  0  0  0  0  0  0  0
   57.4210   26.7191   42.9002 H   0  0  0  0  0  0  0  0  0  0  0  0
   58.7038   25.6755   44.7800 H   0  0  0  0  0  0  0  0  0  0  0  0
   59.5961   27.1065   46.6514 H   0  0  0  0  0  0  0  0  0  0  0  0
   60.1390   30.1290   48.3860 H   0  0  0  0  0  0  0  0  0  0  0  0
   60.7310   28.8990   47.4270 H   0  0  0  0  0  0  0  0  0  0  0  0
   62.1491   30.1656   46.2932 H   0  0  0  0  0  0  0  0  0  0  0  0
   60.9562   31.5277   46.2308 H   0  0  0  0  0  0  0  0  0  0  0  0
   61.4587   32.0664   48.5991 H   0  0  0  0  0  0  0  0  0  0  0  0
   62.6805   30.7372   48.6281 H   0  0  0  0  0  0  0  0  0  0  0  0
   62.1597   34.2457   47.4265 H   0  0  0  0  0  0  0  0  0  0  0  0
   63.3255   34.0091   46.0805 H   0  0  0  0  0  0  0  0  0  0  0  0
   61.7621   33.1246   46.0805 H   0  0  0  0  0  0  0  0  0  0  0  0
   63.5982   32.6682   49.5086 H   0  0  0  0  0  0  0  0  0  0  0  0
   65.0504   32.5465   48.4584 H   0  0  0  0  0  0  0  0  0  0  0  0
   64.0653   34.0486   48.4584 H   0  0  0  0  0  0  0  0  0  0  0  0
   58.2105   31.0752   48.7302 H   0  0  0  0  0  0  0  0  0  0  0  0
   57.0977   31.5423   52.8540 H   0  0  0  0  0  0  0  0  0  0  0  0
   56.5225   32.3683   51.3661 H   0  0  0  0  0  0  0  0  0  0  0  0
   56.7730   30.5896   51.3661 H   0  0  0  0  0  0  0  0  0  0  0  0
  1  2  1  0
  2  3  1  0
  3  4  2  0
  4  5  1  0
  5  6  2  0
  6  7  1  0
  7  8  2  0
  8  9  1  0
  9 10  2  0
 10 11  1  0
 11 12  2  0
 12 13  1  0
 13 14  2  0
 14 15  1  0
 15 16  2  0
 16 17  1  0
 17 18  2  0
 18 19  1  0
 19 20  1  0
 20 21  1  0
 21 22  1  0
 22 23  1  0
 22 24  1  0
 18 25  1  0
 25 26  1  0
 26 27  2  0
 27 28  1  0
 28 29  2  0
 29 30  1  0
 30 31  1  0
 29  3  1  0
 27  5  1  0
 26  8  1  0
 25 11  1  0
 17 12  1  0
  1 32  1  0
  1 33  1  0
  1 34  1  0
  4 35  1  0
  6 36  1  0
  7 37  1  0
  9 38  1  0
 10 39  1  0
 13 40  1  0
 14 41  1  0
 15 42  1  0
 16 43  1  0
 19 44  1  0
 19 45  1  0
 20 46  1  0
 20 47  1  0
 21 48  1  0
 21 49  1  0
 23 50  1  0
 23 51  1  0
 23 52  1  0
 24 53  1  0
 24 54  1  0
 24 55  1  0
 28 56  1  0
 31 57  1  0
 31 58  1  0
 31 59  1  0
M  CHG  2  11   1  19   1
M  END
>  <UniqueID>  (3) 
3

>  <SMILES>  (3) 
COc1cc2ccc3cc[n+]4c5ccccc5c([NH2+]CCN(C)C)n4c3c2cc1OC

>  <Energy>  (3) 
140.07324170713935

>  <Genealogy>  (3) 
COc1cc2ccc3cc[n+]4c5ccccc5c([NH2+]CCN(C)C)n4c3c2cc1OC (protonated)
COc1cc2ccc3cc[n+]4c5ccccc5c([NH2+]CCN(C)C)n4c3c2cc1OC (3D coordinates assigned)
COc1cc2ccc3cc[n+]4c5ccccc5c([NH2+]CCN(C)C)n4c3c2cc1OC (optimized conformer: 140.07324170713935 kcal/mol)

>  <smiles>  (3) 
COc1cc2ccc3cc[n+]4c5ccccc5c(NCCN(C)C)n4c3c2cc1OC

>  <score_type>  (3) 
oracle

>  <origin>  (3) 
adg

>  <m_score__min__energy>  (3) 
-5.5999999999999996

>  <m_primary>  (3) 
energy

$$$$
3:0
     RDKit          3D

 58 60  0  0  0  0  0  0  0  0999 V2000
   52.3090   31.5790   51.5210 C   0  0  0  0  0  0  0  0  0  0  0  0
   53.0780   30.6120   50.7210 N   0  0  0  0  0  0  0  0  0  0  0  0
   52.1510   29.8000   49.9120 C   0  0  0  0  0  0  0  0  0  0  0  0
   53.9000   29.7650   51.6140 C   0  0  0  0  0  0  0  0  0  0  0  0
   54.6770   30.6050   52.6430 C   0  0  0  0  0  0  0  0  0  0  0  0
   55.7720   31.3550   52.0250 N   0  0  0  0  0  0  0  0  0  0  0  0
   57.0190   30.7250   51.7030 C   0  0  0  0  0  0  0  0  0  0  0  0
   57.1900   29.4990   51.9440 O   0  0  0  0  0  0  0  0  0  0  0  0
   58.1070   31.5040   51.0920 C   0  0  0  0  0  0  0  0  0  0  0  0
   58.0840   32.0620   49.8140 C   0  0  0  0  0  0  0  0  0  0  0  0
   59.3060   32.6900   49.6900 C   0  0  0  0  0  0  0  0  0  0  0  0
   59.9010   33.4070   48.6420 C   0  0  0  0  0  0  0  0  0  0  0  0
   59.2000   33.6720   47.3640 C   0  0  0  0  0  0  0  0  0  0  0  0
   58.1320   32.8510   46.9600 C   0  0  0  0  0  0  0  0  0  0  0  0
   57.4750   33.0940   45.7500 C   0  0  0  0  0  0  0  0  0  0  0  0
   57.8800   34.1510   44.9320 C   0  0  0  0  0  0  0  0  0  0  0  0
   58.9470   34.9660   45.3200 C   0  0  0  0  0  0  0  0  0  0  0  0
   59.3460   35.9860   44.5210 F   0  0  0  0  0  0  0  0  0  0  0  0
   59.6080   34.7270   46.5300 C   0  0  0  0  0  0  0  0  0  0  0  0
   61.2160   33.8730   48.8600 C   0  0  0  0  0  0  0  0  0  0  0  0
   61.8710   33.6260   50.0920 C   0  0  0  0  0  0  0  0  0  0  0  0
   63.2030   34.1140   50.3050 N   0  0  0  0  0  0  0  0  0  0  0  0
   64.3600   33.4770   49.6760 C   0  0  0  0  0  0  0  0  0  0  0  0
   63.9950   32.0690   49.1660 C   0  0  0  0  0  0  0  0  0  0  0  0
   63.7040   31.9980   47.7160 N   0  0  0  0  0  0  0  0  0  0  0  0
   63.7460   33.3120   47.0570 C   0  0  0  0  0  0  0  0  0  0  0  0
   62.4470   31.2930   47.4170 C   0  0  0  0  0  0  0  0  0  0  0  0
   61.2310   32.9210   51.0750 N   0  0  0  0  0  0  0  0  0  0  0  0
   59.9750   32.4660   50.8600 C   0  0  0  0  0  0  0  0  0  0  0  0
   59.2530   31.7630   51.6950 O   0  0  0  0  0  0  0  0  0  0  0  0
   52.4683   31.3787   52.5908 H   0  0  0  0  0  0  0  0  0  0  0  0
   52.6450   32.5995   51.2850 H   0  0  0  0  0  0  0  0  0  0  0  0
   51.2390   31.4815   51.2850 H   0  0  0  0  0  0  0  0  0  0  0  0
   51.4923   29.2230   50.5777 H   0  0  0  0  0  0  0  0  0  0  0  0
   51.5427   30.4611   49.2773 H   0  0  0  0  0  0  0  0  0  0  0  0
   52.7263   29.1099   49.2773 H   0  0  0  0  0  0  0  0  0  0  0  0
   53.2398   29.0671   52.1498 H   0  0  0  0  0  0  0  0  0  0  0  0
   54.6296   29.2227   50.9946 H   0  0  0  0  0  0  0  0  0  0  0  0
   53.9838   31.3151   53.1177 H   0  0  0  0  0  0  0  0  0  0  0  0
   55.1118   29.9176   53.3835 H   0  0  0  0  0  0  0  0  0  0  0  0
   55.6500   32.3680   51.7990 H   0  0  0  0  0  0  0  0  0  0  0  0
   57.2736   32.0125   49.0718 H   0  0  0  0  0  0  0  0  0  0  0  0
   57.8123   32.0143   47.5985 H   0  0  0  0  0  0  0  0  0  0  0  0
   56.6373   32.4512   45.4416 H   0  0  0  0  0  0  0  0  0  0  0  0
   57.3591   34.3421   43.9822 H   0  0  0  0  0  0  0  0  0  0  0  0
   60.4505   35.3676   46.8296 H   0  0  0  0  0  0  0  0  0  0  0  0
   61.7357   34.4318   48.0677 H   0  0  0  0  0  0  0  0  0  0  0  0
   63.3410   34.9440   50.9270 H   0  0  0  0  0  0  0  0  0  0  0  0
   64.6949   34.0927   48.8283 H   0  0  0  0  0  0  0  0  0  0  0  0
   65.1633   33.3862   50.4220 H   0  0  0  0  0  0  0  0  0  0  0  0
   64.8385   31.3964   49.3806 H   0  0  0  0  0  0  0  0  0  0  0  0
   63.0702   31.7779   49.6855 H   0  0  0  0  0  0  0  0  0  0  0  0
   63.7713   34.1041   47.8198 H   0  0  0  0  0  0  0  0  0  0  0  0
   64.6467   33.3787   46.4291 H   0  0  0  0  0  0  0  0  0  0  0  0
   62.8514   33.4361   46.4291 H   0  0  0  0  0  0  0  0  0  0  0  0
   61.9501   31.0143   48.3580 H   0  0  0  0  0  0  0  0  0  0  0  0
   61.7864   31.9523   46.8348 H   0  0  0  0  0  0  0  0  0  0  0  0
   62.6651   30.3856   46.8348 H   0  0  0  0  0  0  0  0  0  0  0  0
  1  2  1  0
  2  3  1  0
  2  4  1  0
  4  5  1  0
  5  6  1  0
  6  7  1  0
  7  8  2  0
  7  9  1  0
  9 10  2  0
 10 11  1  0
 11 12  2  0
 12 13  1  0
 13 14  2  0
 14 15  1  0
 15 16  2  0
 16 17  1  0
 17 18  1  0
 17 19  2  0
 12 20  1  0
 20 21  2  0
 21 22  1  0
 22 23  1  0
 23 24  1  0
 24 25  1  0
 25 26  1  0
 25 27  1  0
 21 28  1  0
 28 29  2  0
 29 30  1  0
 30  9  1  0
 29 11  1  0
 19 13  1  0
  1 31  1  0
  1 32  1  0
  1 33  1  0
  3 34  1  0
  3 35  1  0
  3 36  1  0
  4 37  1  0
  4 38  1  0
  5 39  1  0
  5 40  1  0
  6 41  1  0
 10 42  1  0
 14 43  1  0
 15 44  1  0
 16 45  1  0
 19 46  1  0
 20 47  1  0
 22 48  1  0
 23 49  1  0
 23 50  1  0
 24 51  1  0
 24 52  1  0
 26 53  1  0
 26 54  1  0
 26 55  1  0
 27 56  1  0
 27 57  1  0
 27 58  1  0
M  END
>  <UniqueID>  (4) 
4

>  <SMILES>  (4) 
CN(C)CCNC(=O)c1cc2c(-c3cccc(F)c3)cc(NCCN(C)C)nc2o1

>  <Energy>  (4) 
96.96195333528132

>  <Genealogy>  (4) 
CN(C)CCNC(=O)c1cc2c(-c3cccc(F)c3)cc(NCCN(C)C)nc2o1 (3D coordinates assigned)
CN(C)CCNC(=O)c1cc2c(-c3cccc(F)c3)cc(NCCN(C)C)nc2o1 (optimized conformer: 96.96195333528132 kcal/mol)

>  <smiles>  (4) 
CN(C)CCNC(=O)c1cc2c(-c3cccc(F)c3)cc(NCCN(C)C)nc2o1

>  <score_type>  (4) 
oracle

>  <origin>  (4) 
adg

>  <m_score__min__energy>  (4) 
-7.96

>  <m_primary>  (4) 
energy

$$$$
4:0
     RDKit          3D

 40 42  0  0  0  0  0  0  0  0999 V2000
   60.7730   27.0810   46.0310 C   0  0  0  0  0  0  0  0  0  0  0  0
   59.5230   27.7850   45.5950 C   0  0  0  0  0  0  0  0  0  0  0  0
   58.3770   27.0490   45.2610 C   0  0  0  0  0  0  0  0  0  0  0  0
   57.2020   27.7060   44.8910 C   0  0  0  0  0  0  0  0  0  0  0  0
   57.1510   29.1030   44.8650 C   0  0  0  0  0  0  0  0  0  0  0  0
   55.6620   29.8840   44.3440 Cl  0  0  0  0  0  0  0  0  0  0  0  0
   58.2900   29.8540   45.2170 C   0  0  0  0  0  0  0  0  0  0  0  0
   58.2570   31.2900   45.2210 N   0  0  0  0  0  0  0  0  0  0  0  0
   58.4770   32.0880   46.2850 C   0  0  0  0  0  0  0  0  0  0  0  0
   58.4310   33.3970   45.8520 C   0  0  0  0  0  0  0  0  0  0  0  0
   58.6290   34.6170   46.6980 C   0  0  0  0  0  0  0  0  0  0  0  0
   60.0070   34.9920   46.7240 O   0  0  0  0  0  0  0  0  0  0  0  0
   61.0510   34.2080   47.2380 C   0  0  0  0  0  0  0  0  0  0  0  0
   62.1170   33.8830   46.3890 C   0  0  0  0  0  0  0  0  0  0  0  0
   63.1850   33.1090   46.8540 C   0  0  0  0  0  0  0  0  0  0  0  0
   63.1950   32.6510   48.1730 C   0  0  0  0  0  0  0  0  0  0  0  0
   62.1360   32.9650   49.0280 C   0  0  0  0  0  0  0  0  0  0  0  0
   61.0660   33.7390   48.5680 C   0  0  0  0  0  0  0  0  0  0  0  0
   58.1780   33.4170   44.5290 N   0  0  0  0  0  0  0  0  0  0  0  0
   58.0740   32.1220   44.1690 C   0  0  0  0  0  0  0  0  0  0  0  0
   57.8270   31.6790   42.7600 C   0  0  0  0  0  0  0  0  0  0  0  0
   59.4680   29.1860   45.5870 C   0  0  0  0  0  0  0  0  0  0  0  0
   60.8159   27.0568   47.1299 H   0  0  0  0  0  0  0  0  0  0  0  0
   60.7693   26.0523   45.6415 H   0  0  0  0  0  0  0  0  0  0  0  0
   61.6508   27.6174   45.6415 H   0  0  0  0  0  0  0  0  0  0  0  0
   58.4040   25.9497   45.2907 H   0  0  0  0  0  0  0  0  0  0  0  0
   56.3112   27.1212   44.6183 H   0  0  0  0  0  0  0  0  0  0  0  0
   58.6608   31.7541   47.3169 H   0  0  0  0  0  0  0  0  0  0  0  0
   58.0366   35.4454   46.2822 H   0  0  0  0  0  0  0  0  0  0  0  0
   58.3026   34.3938   47.7245 H   0  0  0  0  0  0  0  0  0  0  0  0
   62.1139   34.2394   45.3484 H   0  0  0  0  0  0  0  0  0  0  0  0
   64.0180   32.8608   46.1799 H   0  0  0  0  0  0  0  0  0  0  0  0
   64.0361   32.0435   48.5385 H   0  0  0  0  0  0  0  0  0  0  0  0
   62.1437   32.6023   50.0665 H   0  0  0  0  0  0  0  0  0  0  0  0
   60.2340   33.9826   49.2451 H   0  0  0  0  0  0  0  0  0  0  0  0
   58.0910   34.2560   43.9130 H   0  0  0  0  0  0  0  0  0  0  0  0
   57.2913   30.7183   42.7663 H   0  0  0  0  0  0  0  0  0  0  0  0
   57.2197   32.4340   42.2394 H   0  0  0  0  0  0  0  0  0  0  0  0
   58.7886   31.5593   42.2394 H   0  0  0  0  0  0  0  0  0  0  0  0
   60.3567   29.7675   45.8735 H   0  0  0  0  0  0  0  0  0  0  0  0
  1  2  1  0
  2  3  2  0
  3  4  1  0
  4  5  2  0
  5  6  1  0
  5  7  1  0
  7  8  1  0
  8  9  1  0
  9 10  2  0
 10 11  1  0
 11 12  1  0
 12 13  1  0
 13 14  2  0
 14 15  1  0
 15 16  2  0
 16 17  1  0
 17 18  2  0
 10 19  1  0
 19 20  2  0
 20 21  1  0
  7 22  2  0
 22  2  1  0
 20  8  1  0
 18 13  1  0
  1 23  1  0
  1 24  1  0
  1 25  1  0
  3 26  1  0
  4 27  1  0
  9 28  1  0
 11 29  1  0
 11 30  1  0
 14 31  1  0
 15 32  1  0
 16 33  1  0
 17 34  1  0
 18 35  1  0
 19 36  1  0
 21 37  1  0
 21 38  1  0
 21 39  1  0
 22 40  1  0
M  CHG  1  19   1
M  END
>  <UniqueID>  (5) 
5

>  <SMILES>  (5) 
Cc1ccc(Cl)c(-n2cc(COc3ccccc3)[nH+]c2C)c1

>  <Energy>  (5) 
76.4549062552149

>  <Genealogy>  (5) 
Cc1ccc(Cl)c(-n2cc(COc3ccccc3)[nH+]c2C)c1 (protonated)
Cc1ccc(Cl)c(-n2cc(COc3ccccc3)[nH+]c2C)c1 (3D coordinates assigned)
Cc1ccc(Cl)c(-n2cc(COc3ccccc3)[nH+]c2C)c1 (optimized conformer: 76.4549062552149 kcal/mol)

>  <smiles>  (5) 
Cc1ccc(Cl)c(-n2cc(COc3ccccc3)nc2C)c1

>  <score_type>  (5) 
oracle

>  <origin>  (5) 
adg

>  <m_score__min__energy>  (5) 
-5.8300000000000001

>  <m_primary>  (5) 
energy

$$$$
5:0
     RDKit          3D

 47 49  0  0  0  0  0  0  0  0999 V2000
   63.4290   33.5230   49.9620 C   0  0  0  0  0  0  0  0  0  0  0  0
   63.7650   32.3570   49.0270 C   0  0  0  0  0  0  0  0  0  0  0  0
   62.6620   31.8990   48.1380 N   0  0  0  0  0  0  0  0  0  0  0  0
   62.2400   32.8640   47.0830 C   0  0  0  0  0  0  0  0  0  0  0  0
   63.3250   33.8240   46.5790 C   0  0  0  0  0  0  0  0  0  0  0  0
   61.5730   31.1040   48.7760 C   0  0  0  0  0  0  0  0  0  0  0  0
   61.1050   29.8290   48.0350 C   0  0  0  0  0  0  0  0  0  0  0  0
   59.6450   29.7140   47.9840 N   0  0  0  0  0  0  0  0  0  0  0  0
   58.9560   29.6580   46.7240 C   0  0  0  0  0  0  0  0  0  0  0  0
   58.6790   30.8270   45.9820 C   0  0  0  0  0  0  0  0  0  0  0  0
   59.0230   32.0990   46.4830 C   0  0  0  0  0  0  0  0  0  0  0  0
   58.7890   33.2490   45.7300 C   0  0  0  0  0  0  0  0  0  0  0  0
   59.2780   34.9600   46.4230 Br  0  0  0  0  0  0  0  0  0  0  0  0
   58.2130   33.1500   44.4670 C   0  0  0  0  0  0  0  0  0  0  0  0
   57.8380   31.9070   43.9580 C   0  0  0  0  0  0  0  0  0  0  0  0
   58.0280   30.7210   44.7090 C   0  0  0  0  0  0  0  0  0  0  0  0
   57.6130   29.4840   44.2350 N   0  0  0  0  0  0  0  0  0  0  0  0
   56.8160   29.3750   42.9950 C   0  0  0  0  0  0  0  0  0  0  0  0
   57.9620   28.3520   44.9330 C   0  0  0  0  0  0  0  0  0  0  0  0
   57.7650   27.0160   44.5180 C   0  0  0  0  0  0  0  0  0  0  0  0
   58.2370   26.0800   45.4310 C   0  0  0  0  0  0  0  0  0  0  0  0
   58.9150   26.8910   46.7390 S   0  0  0  0  0  0  0  0  0  0  0  0
   58.6030   28.4370   46.1600 C   0  0  0  0  0  0  0  0  0  0  0  0
   63.5239   33.1938   51.0073 H   0  0  0  0  0  0  0  0  0  0  0  0
   64.1240   34.3549   49.7750 H   0  0  0  0  0  0  0  0  0  0  0  0
   62.3979   33.8575   49.7750 H   0  0  0  0  0  0  0  0  0  0  0  0
   64.6054   32.6678   48.3889 H   0  0  0  0  0  0  0  0  0  0  0  0
   63.9923   31.5043   49.6836 H   0  0  0  0  0  0  0  0  0  0  0  0
   63.1480   31.1630   47.5690 H   0  0  0  0  0  0  0  0  0  0  0  0
   61.8769   32.2840   46.2217 H   0  0  0  0  0  0  0  0  0  0  0  0
   61.4744   33.5002   47.5512 H   0  0  0  0  0  0  0  0  0  0  0  0
   63.8396   34.2793   47.4380 H   0  0  0  0  0  0  0  0  0  0  0  0
   64.0519   33.2679   45.9688 H   0  0  0  0  0  0  0  0  0  0  0  0
   62.8616   34.6132   45.9688 H   0  0  0  0  0  0  0  0  0  0  0  0
   61.9259   30.7979   49.7719 H   0  0  0  0  0  0  0  0  0  0  0  0
   60.6976   31.7700   48.7775 H   0  0  0  0  0  0  0  0  0  0  0  0
   61.4929   29.8565   47.0060 H   0  0  0  0  0  0  0  0  0  0  0  0
   61.4897   28.9600   48.5890 H   0  0  0  0  0  0  0  0  0  0  0  0
   59.1160   29.4260   48.8350 H   0  0  0  0  0  0  0  0  0  0  0  0
   59.4812   32.1853   47.4793 H   0  0  0  0  0  0  0  0  0  0  0  0
   58.0526   34.0576   43.8666 H   0  0  0  0  0  0  0  0  0  0  0  0
   57.3871   31.8465   42.9565 H   0  0  0  0  0  0  0  0  0  0  0  0
   55.7563   29.2301   43.2518 H   0  0  0  0  0  0  0  0  0  0  0  0
   56.9276   30.2968   42.4052 H   0  0  0  0  0  0  0  0  0  0  0  0
   57.1710   28.5170   42.4052 H   0  0  0  0  0  0  0  0  0  0  0  0
   57.2854   26.7433   43.5663 H   0  0  0  0  0  0  0  0  0  0  0  0
   58.1769   24.9876   45.3166 H   0  0  0  0  0  0  0  0  0  0  0  0
  1  2  1  0
  2  3  1  0
  3  4  1  0
  4  5  1  0
  3  6  1  0
  6  7  1  0
  7  8  1  0
  8  9  1  0
  9 10  2  0
 10 11  1  0
 11 12  2  0
 12 13  1  0
 12 14  1  0
 14 15  2  0
 15 16  1  0
 16 17  2  0
 17 18  1  0
 17 19  1  0
 19 20  1  0
 20 21  2  0
 21 22  1  0
 22 23  1  0
 23  9  1  0
 16 10  1  0
 23 19  2  0
  1 24  1  0
  1 25  1  0
  1 26  1  0
  2 27  1  0
  2 28  1  0
  3 29  1  0
  4 30  1  0
  4 31  1  0
  5 32  1  0
  5 33  1  0
  5 34  1  0
  6 35  1  0
  6 36  1  0
  7 37  1  0
  7 38  1  0
  8 39  1  0
 11 40  1  0
 14 41  1  0
 15 42  1  0
 18 43  1  0
 18 44  1  0
 18 45  1  0
 20 46  1  0
 21 47  1  0
M  CHG  2   3   1  17   1
M  END
>  <UniqueID>  (6) 
6

>  <SMILES>  (6) 
CC[NH+](CC)CCNc1c2cc(Br)ccc2[n+](C)c2ccsc12

>  <Energy>  (6) 
112.0669588288916

>  <Genealogy>  (6) 
CC[NH+](CC)CCNc1c2cc(Br)ccc2[n+](C)c2ccsc12 (protonated)
CC[NH+](CC)CCNc1c2cc(Br)ccc2[n+](C)c2ccsc12 (3D coordinates assigned)
CC[NH+](CC)CCNc1c2cc(Br)ccc2[n+](C)c2ccsc12 (optimized conformer: 112.0669588288916 kcal/mol)

>  <smiles>  (6) 
CCN(CC)CCNc1c2cc(Br)ccc2[n+](C)c2ccsc12

>  <score_type>  (6) 
oracle

>  <origin>  (6) 
adg

>  <m_score__min__energy>  (6) 
-4.7400000000000002

>  <m_primary>  (6) 
energy

$$$$
6:0
     RDKit          3D

 46 47  0  0  0  0  0  0  0  0999 V2000
   59.0230   22.4980   44.8860 C   0  0  0  0  0  0  0  0  0  0  0  0
   58.8900   23.8250   45.6270 C   0  0  0  0  0  0  0  0  0  0  0  0
   57.9490   24.7230   44.9120 N   0  0  0  0  0  0  0  0  0  0  0  0
   57.3750   24.0180   43.7380 C   0  0  0  0  0  0  0  0  0  0  0  0
   55.8850   23.7410   43.9240 C   0  0  0  0  0  0  0  0  0  0  0  0
   56.8650   25.1780   45.8160 C   0  0  0  0  0  0  0  0  0  0  0  0
   56.6540   26.7090   45.7700 C   0  0  0  0  0  0  0  0  0  0  0  0
   57.5470   27.4350   44.8400 N   0  0  0  0  0  0  0  0  0  0  0  0
   58.0440   28.7210   45.3200 C   0  0  0  0  0  0  0  0  0  0  0  0
   59.0990   28.7840   46.2830 C   0  0  0  0  0  0  0  0  0  0  0  0
   59.6170   27.5500   47.0080 C   0  0  0  0  0  0  0  0  0  0  0  0
   60.7030   27.8420   47.8170 F   0  0  0  0  0  0  0  0  0  0  0  0
   60.0130   26.5930   46.0960 F   0  0  0  0  0  0  0  0  0  0  0  0
   58.6250   27.0310   47.8230 F   0  0  0  0  0  0  0  0  0  0  0  0
   59.6690   30.0290   46.5960 C   0  0  0  0  0  0  0  0  0  0  0  0
   59.1500   31.2170   46.0800 C   0  0  0  0  0  0  0  0  0  0  0  0
   59.7370   32.4450   46.4270 C   0  0  0  0  0  0  0  0  0  0  0  0
   59.1850   33.6420   45.9740 C   0  0  0  0  0  0  0  0  0  0  0  0
   58.0360   33.6250   45.1840 C   0  0  0  0  0  0  0  0  0  0  0  0
   57.4450   32.4100   44.8280 C   0  0  0  0  0  0  0  0  0  0  0  0
   58.0060   31.1850   45.2520 C   0  0  0  0  0  0  0  0  0  0  0  0
   57.4420   29.9380   44.8840 C   0  0  0  0  0  0  0  0  0  0  0  0
   56.2370   29.9070   44.1060 N   0  0  0  0  0  0  0  0  0  0  0  0
   55.1980   30.4540   44.5320 O   0  0  0  0  0  0  0  0  0  0  0  0
   56.2300   29.3120   42.8670 O   0  0  0  0  0  0  0  0  0  0  0  0
   59.1052   21.6779   45.6145 H   0  0  0  0  0  0  0  0  0  0  0  0
   58.1362   22.3401   44.2546 H   0  0  0  0  0  0  0  0  0  0  0  0
   59.9235   22.5192   44.2546 H   0  0  0  0  0  0  0  0  0  0  0  0
   58.5112   23.6370   46.6425 H   0  0  0  0  0  0  0  0  0  0  0  0
   59.8773   24.3076   45.6760 H   0  0  0  0  0  0  0  0  0  0  0  0
   57.5133   24.6428   42.8433 H   0  0  0  0  0  0  0  0  0  0  0  0
   57.8936   23.0543   43.6271 H   0  0  0  0  0  0  0  0  0  0  0  0
   55.6514   23.6976   44.9980 H   0  0  0  0  0  0  0  0  0  0  0  0
   55.3009   24.5460   43.4540 H   0  0  0  0  0  0  0  0  0  0  0  0
   55.6292   22.7799   43.4540 H   0  0  0  0  0  0  0  0  0  0  0  0
   55.9281   24.6844   45.5185 H   0  0  0  0  0  0  0  0  0  0  0  0
   57.1555   24.9130   46.8433 H   0  0  0  0  0  0  0  0  0  0  0  0
   55.6147   26.9013   45.4653 H   0  0  0  0  0  0  0  0  0  0  0  0
   56.8897   27.0825   46.7775 H   0  0  0  0  0  0  0  0  0  0  0  0
   58.3680   26.8260   44.6180 H   0  0  0  0  0  0  0  0  0  0  0  0
   57.0120   27.5310   43.9520 H   0  0  0  0  0  0  0  0  0  0  0  0
   60.5434   30.0683   47.2623 H   0  0  0  0  0  0  0  0  0  0  0  0
   60.6369   32.4621   47.0594 H   0  0  0  0  0  0  0  0  0  0  0  0
   59.6557   34.6001   46.2397 H   0  0  0  0  0  0  0  0  0  0  0  0
   57.5934   34.5714   44.8399 H   0  0  0  0  0  0  0  0  0  0  0  0
   56.5340   32.4074   44.2115 H   0  0  0  0  0  0  0  0  0  0  0  0
  1  2  1  0
  2  3  1  0
  3  4  1  0
  4  5  1  0
  3  6  1  0
  6  7  1  0
  7  8  1  0
  8  9  1  0
  9 10  2  0
 10 11  1  0
 11 12  1  0
 11 13  1  0
 11 14  1  0
 10 15  1  0
 15 16  2  0
 16 17  1  0
 17 18  2  0
 18 19  1  0
 19 20  2  0
 20 21  1  0
 21 22  2  0
 22 23  1  0
 23 24  2  0
 23 25  1  0
 22  9  1  0
 21 16  1  0
  1 26  1  0
  1 27  1  0
  1 28  1  0
  2 29  1  0
  2 30  1  0
  4 31  1  0
  4 32  1  0
  5 33  1  0
  5 34  1  0
  5 35  1  0
  6 36  1  0
  6 37  1  0
  7 38  1  0
  7 39  1  0
  8 40  1  0
  8 41  1  0
 15 42  1  0
 17 43  1  0
 18 44  1  0
 19 45  1  0
 20 46  1  0
M  CHG  3   8   1  23   1  25  -1
M  END
>  <UniqueID>  (7) 
7

>  <SMILES>  (7) 
CCN(CC)CC[NH2+]c1c(C(F)(F)F)cc2ccccc2c1[N+](=O)[O-]

>  <Energy>  (7) 
66.10153041779306

>  <Genealogy>  (7) 
CCN(CC)CC[NH2+]c1c(C(F)(F)F)cc2ccccc2c1[N+](=O)[O-] (protonated)
CCN(CC)CC[NH2+]c1c(C(F)(F)F)cc2ccccc2c1[N+](=O)[O-] (3D coordinates assigned)
CCN(CC)CC[NH2+]c1c(C(F)(F)F)cc2ccccc2c1[N+](=O)[O-] (optimized conformer: 66.10153041779306 kcal/mol)

>  <smiles>  (7) 
CCN(CC)CCNc1c(C(F)(F)F)cc2ccccc2c1[N+](=O)[O-]

>  <score_type>  (7) 
oracle

>  <origin>  (7) 
adg

>  <m_score__min__energy>  (7) 
-4.8600000000000003

>  <m_primary>  (7) 
energy

$$$$
7:0
     RDKit          3D

 54 57  0  0  0  0  0  0  0  0999 V2000
   63.3050   33.4470   46.8760 C   0  0  0  0  0  0  0  0  0  0  0  0
   62.7070   32.5570   47.9640 C   0  0  0  0  0  0  0  0  0  0  0  0
   62.0110   31.3240   47.3760 C   0  0  0  0  0  0  0  0  0  0  0  0
   60.6510   31.1790   47.9130 N   0  0  0  0  0  0  0  0  0  0  0  0
   60.4590   30.6890   49.2840 C   0  0  0  0  0  0  0  0  0  0  0  0
   60.5480   29.1650   49.3270 C   0  0  0  0  0  0  0  0  0  0  0  0
   59.2670   28.6180   49.1860 O   0  0  0  0  0  0  0  0  0  0  0  0
   59.5400   31.1600   47.0000 C   0  0  0  0  0  0  0  0  0  0  0  0
   58.8740   29.9830   46.8040 N   0  0  0  0  0  0  0  0  0  0  0  0
   57.8170   29.9470   45.9590 C   0  0  0  0  0  0  0  0  0  0  0  0
   57.0260   28.8720   45.6260 C   0  0  0  0  0  0  0  0  0  0  0  0
   57.1020   27.4910   46.1420 C   0  0  0  0  0  0  0  0  0  0  0  0
   58.0900   27.1490   46.8420 O   0  0  0  0  0  0  0  0  0  0  0  0
   56.0500   26.5430   45.9220 N   0  0  0  0  0  0  0  0  0  0  0  0
   56.1820   25.2750   45.2650 C   0  0  0  0  0  0  0  0  0  0  0  0
   55.1770   24.2950   45.3450 C   0  0  0  0  0  0  0  0  0  0  0  0
   55.3280   23.0760   44.6770 C   0  0  0  0  0  0  0  0  0  0  0  0
   56.4670   22.8330   43.8970 C   0  0  0  0  0  0  0  0  0  0  0  0
   56.6460   21.5110   43.2110 C   0  0  0  0  0  0  0  0  0  0  0  0
   57.4660   23.8150   43.8110 C   0  0  0  0  0  0  0  0  0  0  0  0
   57.3150   25.0330   44.4800 C   0  0  0  0  0  0  0  0  0  0  0  0
   56.1030   29.4130   44.7320 C   0  0  0  0  0  0  0  0  0  0  0  0
   56.3550   30.7320   44.5470 N   0  0  0  0  0  0  0  0  0  0  0  0
   57.4010   31.0320   45.3010 N   0  0  0  0  0  0  0  0  0  0  0  0
   58.0130   32.2390   45.4300 C   0  0  0  0  0  0  0  0  0  0  0  0
   57.5750   33.3680   44.7210 C   0  0  0  0  0  0  0  0  0  0  0  0
   58.2460   34.5850   44.8660 C   0  0  0  0  0  0  0  0  0  0  0  0
   59.3540   34.6800   45.7120 C   0  0  0  0  0  0  0  0  0  0  0  0
   59.7990   33.5620   46.4240 C   0  0  0  0  0  0  0  0  0  0  0  0
   59.1290   32.3310   46.3020 C   0  0  0  0  0  0  0  0  0  0  0  0
   63.8605   34.2737   47.3428 H   0  0  0  0  0  0  0  0  0  0  0  0
   63.9881   32.8532   46.2509 H   0  0  0  0  0  0  0  0  0  0  0  0
   62.4971   33.8550   46.2509 H   0  0  0  0  0  0  0  0  0  0  0  0
   63.5133   32.2243   48.6342 H   0  0  0  0  0  0  0  0  0  0  0  0
   61.9546   33.1451   48.5099 H   0  0  0  0  0  0  0  0  0  0  0  0
   61.9563   31.4295   46.2824 H   0  0  0  0  0  0  0  0  0  0  0  0
   62.5920   30.4308   47.6492 H   0  0  0  0  0  0  0  0  0  0  0  0
   61.2384   31.1152   49.9328 H   0  0  0  0  0  0  0  0  0  0  0  0
   59.4626   30.9963   49.6344 H   0  0  0  0  0  0  0  0  0  0  0  0
   61.1897   28.8120   48.5063 H   0  0  0  0  0  0  0  0  0  0  0  0
   60.9770   28.8500   50.2897 H   0  0  0  0  0  0  0  0  0  0  0  0
   59.1660   28.4010   48.2230 H   0  0  0  0  0  0  0  0  0  0  0  0
   54.2689   24.4879   45.9351 H   0  0  0  0  0  0  0  0  0  0  0  0
   54.5492   22.3040   44.7640 H   0  0  0  0  0  0  0  0  0  0  0  0
   56.7534   20.7179   43.9656 H   0  0  0  0  0  0  0  0  0  0  0  0
   55.7679   21.3023   42.5822 H   0  0  0  0  0  0  0  0  0  0  0  0
   57.5480   21.5434   42.5822 H   0  0  0  0  0  0  0  0  0  0  0  0
   58.3710   23.6255   43.2151 H   0  0  0  0  0  0  0  0  0  0  0  0
   58.0919   25.8064   44.3888 H   0  0  0  0  0  0  0  0  0  0  0  0
   55.2899   28.8520   44.2480 H   0  0  0  0  0  0  0  0  0  0  0  0
   56.7048   33.2950   44.0521 H   0  0  0  0  0  0  0  0  0  0  0  0
   57.9010   35.4708   44.3126 H   0  0  0  0  0  0  0  0  0  0  0  0
   59.8795   35.6405   45.8185 H   0  0  0  0  0  0  0  0  0  0  0  0
   60.6764   33.6453   47.0822 H   0  0  0  0  0  0  0  0  0  0  0  0
  1  2  1  0
  2  3  1  0
  3  4  1  0
  4  5  1  0
  5  6  1  0
  6  7  1  0
  4  8  1  0
  8  9  2  0
  9 10  1  0
 10 11  2  0
 11 12  1  0
 12 13  2  0
 12 14  1  0
 14 15  1  0
 15 16  2  0
 16 17  1  0
 17 18  2  0
 18 19  1  0
 18 20  1  0
 20 21  2  0
 11 22  1  0
 22 23  2  0
 23 24  1  0
 24 25  1  0
 25 26  2  0
 26 27  1  0
 27 28  2  0
 28 29  1  0
 29 30  2  0
 30  8  1  0
 24 10  1  0
 30 25  1  0
 21 15  1  0
  1 31  1  0
  1 32  1  0
  1 33  1  0
  2 34  1  0
  2 35  1  0
  3 36  1  0
  3 37  1  0
  5 38  1  0
  5 39  1  0
  6 40  1  0
  6 41  1  0
  7 42  1  0
 16 43  1  0
 17 44  1  0
 19 45  1  0
 19 46  1  0
 19 47  1  0
 20 48  1  0
 21 49  1  0
 22 50  1  0
 26 51  1  0
 27 52  1  0
 28 53  1  0
 29 54  1  0
M  CHG  1  14  -1
M  END
>  <UniqueID>  (8) 
8

>  <SMILES>  (8) 
CCCN(CCO)c1nc2c(C(=O)[N-]c3ccc(C)cc3)cnn2c2ccccc12

>  <Energy>  (8) 
99.36394604294209

>  <Genealogy>  (8) 
CCCN(CCO)c1nc2c(C(=O)[N-]c3ccc(C)cc3)cnn2c2ccccc12 (protonated)
CCCN(CCO)c1nc2c(C(=O)[N-]c3ccc(C)cc3)cnn2c2ccccc12 (3D coordinates assigned)
CCCN(CCO)c1nc2c(C(=O)[N-]c3ccc(C)cc3)cnn2c2ccccc12 (optimized conformer: 99.36394604294209 kcal/mol)

>  <smiles>  (8) 
CCCN(CCO)c1nc2c(C(=O)Nc3ccc(C)cc3)cnn2c2ccccc12

>  <score_type>  (8) 
oracle

>  <origin>  (8) 
adg

>  <m_score__min__energy>  (8) 
-9.9299999999999997

>  <m_primary>  (8) 
energy

$$$$
8:0
     RDKit          3D

 47 49  0  0  0  0  0  0  0  0999 V2000
   58.7562   34.9732   44.9213 H   0  0  0  0  0  0  0  0  0  0  0  0
   59.1530   34.2440   45.6430 C   0  0  0  0  0  0  0  0  0  0  0  0
   59.7790   34.6900   46.8110 C   0  0  0  0  0  0  0  0  0  0  0  0
   59.8638   35.7688   47.0086 H   0  0  0  0  0  0  0  0  0  0  0  0
   60.3000   33.7680   47.7330 C   0  0  0  0  0  0  0  0  0  0  0  0
   60.9970   34.2530   48.9790 C   0  0  0  0  0  0  0  0  0  0  0  0
   60.5208   33.7900   49.8559 H   0  0  0  0  0  0  0  0  0  0  0  0
   60.9105   35.3491   49.0132 H   0  0  0  0  0  0  0  0  0  0  0  0
   62.4910   33.8930   48.9770 C   0  0  0  0  0  0  0  0  0  0  0  0
   62.6169   32.9080   49.4502 H   0  0  0  0  0  0  0  0  0  0  0  0
   63.0246   34.6795   49.5308 H   0  0  0  0  0  0  0  0  0  0  0  0
   63.0800   33.8380   47.5650 C   0  0  0  0  0  0  0  0  0  0  0  0
   64.1735   33.7359   47.6276 H   0  0  0  0  0  0  0  0  0  0  0  0
   62.6614   32.9750   47.0264 H   0  0  0  0  0  0  0  0  0  0  0  0
   62.8284   34.7635   47.0264 H   0  0  0  0  0  0  0  0  0  0  0  0
   60.2020   32.3940   47.4610 C   0  0  0  0  0  0  0  0  0  0  0  0
   60.6231   31.6649   48.1689 H   0  0  0  0  0  0  0  0  0  0  0  0
   59.5730   31.9480   46.2970 C   0  0  0  0  0  0  0  0  0  0  0  0
   59.5032   30.8697   46.0910 H   0  0  0  0  0  0  0  0  0  0  0  0
   59.0290   32.8700   45.3880 C   0  0  0  0  0  0  0  0  0  0  0  0
   58.3960   32.4200   44.1800 N   0  0  0  0  0  0  0  0  0  0  0  0
   58.4850   33.0690   43.0220 N   0  0  0  0  0  0  0  0  0  0  0  0
   57.7960   32.3670   42.0920 C   0  0  0  0  0  0  0  0  0  0  0  0
   57.6220   32.8060   40.6740 C   0  0  0  0  0  0  0  0  0  0  0  0
   57.2168   33.8284   40.6538 H   0  0  0  0  0  0  0  0  0  0  0  0
   58.5955   32.7873   40.1623 H   0  0  0  0  0  0  0  0  0  0  0  0
   56.9256   32.1254   40.1623 H   0  0  0  0  0  0  0  0  0  0  0  0
   57.2370   31.2600   42.7000 C   0  0  0  0  0  0  0  0  0  0  0  0
   56.4070   30.2420   42.2470 C   0  0  0  0  0  0  0  0  0  0  0  0
   56.0932   30.1930   41.1938 H   0  0  0  0  0  0  0  0  0  0  0  0
   55.9930   29.3050   43.1480 N   0  0  0  0  0  0  0  0  0  0  0  0
   56.3530   29.3400   44.4720 C   0  0  0  0  0  0  0  0  0  0  0  0
   55.8980   28.4050   45.2590 N   0  0  0  0  0  0  0  0  0  0  0  0
   56.6360   27.2580   45.7940 C   0  0  0  0  0  0  0  0  0  0  0  0
   56.8384   27.4269   46.8619 H   0  0  0  0  0  0  0  0  0  0  0  0
   56.0258   26.3533   45.6557 H   0  0  0  0  0  0  0  0  0  0  0  0
   57.9620   27.0680   45.0580 C   0  0  0  0  0  0  0  0  0  0  0  0
   58.2038   25.9961   45.0081 H   0  0  0  0  0  0  0  0  0  0  0  0
   57.8775   27.4715   44.0382 H   0  0  0  0  0  0  0  0  0  0  0  0
   58.9850   27.7500   45.7520 O   0  0  0  0  0  0  0  0  0  0  0  0
   59.8390   28.3830   44.8230 C   0  0  0  0  0  0  0  0  0  0  0  0
   60.6091   28.9538   45.3626 H   0  0  0  0  0  0  0  0  0  0  0  0
   60.3215   27.6227   44.1913 H   0  0  0  0  0  0  0  0  0  0  0  0
   59.2519   29.0658   44.1913 H   0  0  0  0  0  0  0  0  0  0  0  0
   57.1990   30.3820   44.9390 C   0  0  0  0  0  0  0  0  0  0  0  0
   57.4983   30.4468   45.9955 H   0  0  0  0  0  0  0  0  0  0  0  0
   57.6340   31.3190   44.0020 C   0  0  0  0  0  0  0  0  0  0  0  0
  1  2  1  0
  2  3  2  0
  3  4  1  0
  3  5  1  0
  5  6  1  0
  6  7  1  0
  6  8  1  0
  6  9  1  0
  9 10  1  0
  9 11  1  0
  9 12  1  0
 12 13  1  0
 12 14  1  0
 12 15  1  0
  5 16  2  0
 16 17  1  0
 16 18  1  0
 18 19  1  0
 18 20  2  0
 20 21  1  0
 21 22  1  0
 22 23  2  0
 23 24  1  0
 24 25  1  0
 24 26  1  0
 24 27  1  0
 23 28  1  0
 28 29  2  0
 29 30  1  0
 29 31  1  0
 31 32  1  0
 32 33  2  0
 33 34  1  0
 34 35  1  0
 34 36  1  0
 34 37  1  0
 37 38  1  0
 37 39  1  0
 37 40  1  0
 40 41  1  0
 41 42  1  0
 41 43  1  0
 41 44  1  0
 32 45  1  0
 45 46  1  0
 45 47  2  0
 20  2  1  0
 47 21  1  0
 47 28  1  0
M  CHG  1  31  -1
M  END
>  <UniqueID>  (9) 
9

>  <SMILES>  (9) 
CCCc1ccc(-n2nc(C)c3c[n-]/c(=N/CCOC)cc32)cc1

>  <Energy>  (9) 
89.11132051994717

>  <Genealogy>  (9) 
CCCc1ccc(-n2nc(C)c3c[n-]c(=NCCOC)cc32)cc1 (protonated)
CCCc1ccc(-n2nc(C)c3c[n-]/c(=N/CCOC)cc32)cc1 (cis-trans isomerization)
CCCc1ccc(-n2nc(C)c3c[n-]/c(=N/CCOC)cc32)cc1 (3D coordinates assigned)
CCCc1ccc(-n2nc(C)c3c[n-]/c(=N/CCOC)cc32)cc1 (optimized conformer: 89.11132051994717 kcal/mol)

>  <smiles>  (9) 
CCCc1ccc(-n2nc(C)c3c[nH]c(=NCCOC)cc32)cc1

>  <score_type>  (9) 
oracle

>  <origin>  (9) 
adg

>  <m_score__min__energy>  (9) 
-9.7899999999999991

>  <m_primary>  (9) 
energy

$$$$
9:0
     RDKit          3D

 38 41  0  0  0  0  0  0  0  0999 V2000
   57.3080   25.6260   45.2610 C   0  0  0  0  0  0  0  0  0  0  0  0
   56.5340   26.7700   45.6040 O   0  0  0  0  0  0  0  0  0  0  0  0
   57.0090   28.0890   45.5680 C   0  0  0  0  0  0  0  0  0  0  0  0
   56.7000   28.9730   44.5160 C   0  0  0  0  0  0  0  0  0  0  0  0
   57.1940   30.2800   44.5180 C   0  0  0  0  0  0  0  0  0  0  0  0
   58.0070   30.7280   45.5720 C   0  0  0  0  0  0  0  0  0  0  0  0
   58.5300   32.0320   45.6260 C   0  0  0  0  0  0  0  0  0  0  0  0
   59.3280   32.4480   46.6850 C   0  0  0  0  0  0  0  0  0  0  0  0
   59.6480   31.5810   47.7310 C   0  0  0  0  0  0  0  0  0  0  0  0
   59.1410   30.2740   47.7040 C   0  0  0  0  0  0  0  0  0  0  0  0
   58.3230   29.8410   46.6360 C   0  0  0  0  0  0  0  0  0  0  0  0
   57.8190   28.5310   46.6190 C   0  0  0  0  0  0  0  0  0  0  0  0
   59.7550   33.8110   46.5450 N   0  0  0  0  0  0  0  0  0  0  0  0
   60.2790   34.6790   47.5990 C   0  0  0  0  0  0  0  0  0  0  0  0
   61.5800   34.1360   48.1230 C   0  0  0  0  0  0  0  0  0  0  0  0
   62.5230   33.5770   47.2480 C   0  0  0  0  0  0  0  0  0  0  0  0
   63.7430   33.1100   47.7390 C   0  0  0  0  0  0  0  0  0  0  0  0
   64.0140   33.2110   49.1060 C   0  0  0  0  0  0  0  0  0  0  0  0
   65.5380   32.6350   49.7490 Cl  0  0  0  0  0  0  0  0  0  0  0  0
   63.0940   33.7610   49.9420 N   0  0  0  0  0  0  0  0  0  0  0  0
   61.8990   34.2220   49.4880 C   0  0  0  0  0  0  0  0  0  0  0  0
   59.1560   34.2530   45.3270 C   0  0  0  0  0  0  0  0  0  0  0  0
   59.2690   35.4180   44.8620 O   0  0  0  0  0  0  0  0  0  0  0  0
   58.3980   33.1740   44.7200 C   0  0  0  0  0  0  0  0  0  0  0  0
   57.7550   33.2300   43.6390 O   0  0  0  0  0  0  0  0  0  0  0  0
   57.6475   25.1242   46.1792 H   0  0  0  0  0  0  0  0  0  0  0  0
   56.6935   24.9315   44.6694 H   0  0  0  0  0  0  0  0  0  0  0  0
   58.1813   25.9381   44.6694 H   0  0  0  0  0  0  0  0  0  0  0  0
   56.0643   28.6316   43.6857 H   0  0  0  0  0  0  0  0  0  0  0  0
   56.9451   30.9609   43.6907 H   0  0  0  0  0  0  0  0  0  0  0  0
   60.2863   31.9170   48.5614 H   0  0  0  0  0  0  0  0  0  0  0  0
   59.3822   29.5791   48.5219 H   0  0  0  0  0  0  0  0  0  0  0  0
   58.0641   27.8438   47.4422 H   0  0  0  0  0  0  0  0  0  0  0  0
   60.4446   35.6868   47.1904 H   0  0  0  0  0  0  0  0  0  0  0  0
   59.5511   34.7215   48.4226 H   0  0  0  0  0  0  0  0  0  0  0  0
   62.3006   33.5066   46.1730 H   0  0  0  0  0  0  0  0  0  0  0  0
   64.4836   32.6670   47.0569 H   0  0  0  0  0  0  0  0  0  0  0  0
   61.1789   34.6642   50.1922 H   0  0  0  0  0  0  0  0  0  0  0  0
  1  2  1  0
  2  3  1  0
  3  4  2  0
  4  5  1  0
  5  6  2  0
  6  7  1  0
  7  8  2  0
  8  9  1  0
  9 10  2  0
 10 11  1  0
 11 12  2  0
  8 13  1  0
 13 14  1  0
 14 15  1  0
 15 16  2  0
 16 17  1  0
 17 18  2  0
 18 19  1  0
 18 20  1  0
 20 21  2  0
 13 22  1  0
 22 23  2  0
 22 24  1  0
 24 25  2  0
 12  3  1  0
 21 15  1  0
 11  6  1  0
 24  7  1  0
  1 26  1  0
  1 27  1  0
  1 28  1  0
  4 29  1  0
  5 30  1  0
  9 31  1  0
 10 32  1  0
 12 33  1  0
 14 34  1  0
 14 35  1  0
 16 36  1  0
 17 37  1  0
 21 38  1  0
M  END
>  <UniqueID>  (10) 
10

>  <SMILES>  (10) 
COc1ccc2c3c(ccc2c1)N(Cc1ccc(Cl)nc1)C(=O)C3=O

>  <Energy>  (10) 
76.93987511945053

>  <Genealogy>  (10) 
COc1ccc2c3c(ccc2c1)N(Cc1ccc(Cl)nc1)C(=O)C3=O (3D coordinates assigned)
COc1ccc2c3c(ccc2c1)N(Cc1ccc(Cl)nc1)C(=O)C3=O (nonaromatic ring conformer: 76.93987511945053 kcal/mol)

>  <smiles>  (10) 
COc1ccc2c3c(ccc2c1)N(Cc1ccc(Cl)nc1)C(=O)C3=O

>  <score_type>  (10) 
oracle

>  <origin>  (10) 
adg

>  <m_score__min__energy>  (10) 
-7.9100000000000001

>  <m_primary>  (10) 
energy

$$$$
10:0
     RDKit          3D

 50 53  0  0  0  0  0  0  0  0999 V2000
   56.5800   29.7650   43.5590 C   0  0  0  0  0  0  0  0  0  0  0  0
   57.5830   30.1540   44.6410 C   0  0  0  0  0  0  0  0  0  0  0  0
   57.2950   31.4990   45.1580 N   0  0  0  0  0  0  0  0  0  0  0  0
   57.7340   32.5430   44.2210 C   0  0  0  0  0  0  0  0  0  0  0  0
   57.6160   33.9350   44.8610 C   0  0  0  0  0  0  0  0  0  0  0  0
   58.4170   34.0920   46.1720 C   0  0  0  0  0  0  0  0  0  0  0  0
   58.6920   32.8160   46.8630 N   0  0  0  0  0  0  0  0  0  0  0  0
   59.6200   32.9610   47.9680 C   0  0  0  0  0  0  0  0  0  0  0  0
   60.9980   33.3140   47.8170 C   0  0  0  0  0  0  0  0  0  0  0  0
   61.5850   33.5160   46.5460 C   0  0  0  0  0  0  0  0  0  0  0  0
   62.9440   33.7900   46.4180 C   0  0  0  0  0  0  0  0  0  0  0  0
   63.7550   33.8560   47.5410 C   0  0  0  0  0  0  0  0  0  0  0  0
   63.2140   33.6740   48.8100 C   0  0  0  0  0  0  0  0  0  0  0  0
   61.8290   33.4350   48.9900 C   0  0  0  0  0  0  0  0  0  0  0  0
   61.2860   33.2880   50.2580 N   0  0  0  0  0  0  0  0  0  0  0  0
   62.0290   33.6680   51.4720 C   0  0  0  0  0  0  0  0  0  0  0  0
   59.9990   32.8360   50.3560 C   0  0  0  0  0  0  0  0  0  0  0  0
   59.1750   32.7090   49.2640 C   0  0  0  0  0  0  0  0  0  0  0  0
   57.9720   32.3070   49.6190 O   0  0  0  0  0  0  0  0  0  0  0  0
   57.9940   32.1320   50.9210 C   0  0  0  0  0  0  0  0  0  0  0  0
   56.9480   31.6720   51.7160 C   0  0  0  0  0  0  0  0  0  0  0  0
   57.1950   31.4830   53.0860 C   0  0  0  0  0  0  0  0  0  0  0  0
   58.4740   31.7390   53.6230 C   0  0  0  0  0  0  0  0  0  0  0  0
   59.5150   32.2060   52.8020 C   0  0  0  0  0  0  0  0  0  0  0  0
   59.2360   32.4310   51.4480 C   0  0  0  0  0  0  0  0  0  0  0  0
   55.6533   29.4056   44.0302 H   0  0  0  0  0  0  0  0  0  0  0  0
   56.3570   30.6419   42.9334 H   0  0  0  0  0  0  0  0  0  0  0  0
   57.0066   28.9671   42.9334 H   0  0  0  0  0  0  0  0  0  0  0  0
   57.5226   29.4294   45.4665 H   0  0  0  0  0  0  0  0  0  0  0  0
   58.5925   30.1521   44.2041 H   0  0  0  0  0  0  0  0  0  0  0  0
   56.2570   31.5840   45.2620 H   0  0  0  0  0  0  0  0  0  0  0  0
   58.7829   32.3611   43.9440 H   0  0  0  0  0  0  0  0  0  0  0  0
   57.0912   32.5093   43.3290 H   0  0  0  0  0  0  0  0  0  0  0  0
   57.9832   34.6799   44.1397 H   0  0  0  0  0  0  0  0  0  0  0  0
   56.5558   34.0800   45.1158 H   0  0  0  0  0  0  0  0  0  0  0  0
   59.3782   34.5715   45.9350 H   0  0  0  0  0  0  0  0  0  0  0  0
   57.7993   34.6964   46.8526 H   0  0  0  0  0  0  0  0  0  0  0  0
   59.1340   32.1730   46.1640 H   0  0  0  0  0  0  0  0  0  0  0  0
   57.8020   32.3420   47.1240 H   0  0  0  0  0  0  0  0  0  0  0  0
   60.9578   33.4556   45.6444 H   0  0  0  0  0  0  0  0  0  0  0  0
   63.3770   33.9551   45.4204 H   0  0  0  0  0  0  0  0  0  0  0  0
   64.8313   34.0532   47.4280 H   0  0  0  0  0  0  0  0  0  0  0  0
   63.8735   33.7164   49.6894 H   0  0  0  0  0  0  0  0  0  0  0  0
   61.4530   33.3734   52.3617 H   0  0  0  0  0  0  0  0  0  0  0  0
   63.0033   33.1575   51.4804 H   0  0  0  0  0  0  0  0  0  0  0  0
   62.1854   34.7568   51.4804 H   0  0  0  0  0  0  0  0  0  0  0  0
   55.9580   31.4628   51.2846 H   0  0  0  0  0  0  0  0  0  0  0  0
   56.3859   31.1332   53.7441 H   0  0  0  0  0  0  0  0  0  0  0  0
   58.6585   31.5716   54.6944 H   0  0  0  0  0  0  0  0  0  0  0  0
   60.5195   32.3894   53.2110 H   0  0  0  0  0  0  0  0  0  0  0  0
  1  2  1  0
  2  3  1  0
  3  4  1  0
  4  5  1  0
  5  6  1  0
  6  7  1  0
  7  8  1  0
  8  9  2  0
  9 10  1  0
 10 11  2  0
 11 12  1  0
 12 13  2  0
 13 14  1  0
 14 15  2  0
 15 16  1  0
 15 17  1  0
 17 18  2  0
 18 19  1  0
 19 20  1  0
 20 21  2  0
 21 22  1  0
 22 23  2  0
 23 24  1  0
 24 25  2  0
 18  8  1  0
 25 20  1  0
 14  9  1  0
 25 17  1  0
  1 26  1  0
  1 27  1  0
  1 28  1  0
  2 29  1  0
  2 30  1  0
  3 31  1  0
  4 32  1  0
  4 33  1  0
  5 34  1  0
  5 35  1  0
  6 36  1  0
  6 37  1  0
  7 38  1  0
  7 39  1  0
 10 40  1  0
 11 41  1  0
 12 42  1  0
 13 43  1  0
 16 44  1  0
 16 45  1  0
 16 46  1  0
 21 47  1  0
 22 48  1  0
 23 49  1  0
 24 50  1  0
M  CHG  2   7   1  15   1
M  END
>  <UniqueID>  (11) 
11

>  <SMILES>  (11) 
CCNCCC[NH2+]c1c2ccccc2[n+](C)c2c1oc1ccccc12

>  <Energy>  (11) 
108.01350009381088

>  <Genealogy>  (11) 
CCNCCC[NH2+]c1c2ccccc2[n+](C)c2c1oc1ccccc12 (protonated)
CCNCCC[NH2+]c1c2ccccc2[n+](C)c2c1oc1ccccc12 (3D coordinates assigned)
CCNCCC[NH2+]c1c2ccccc2[n+](C)c2c1oc1ccccc12 (optimized conformer: 108.01350009381088 kcal/mol)

>  <smiles>  (11) 
CCNCCCNc1c2ccccc2[n+](C)c2c1oc1ccccc12

>  <score_type>  (11) 
oracle

>  <origin>  (11) 
adg

>  <m_score__min__energy>  (11) 
-4.25

>  <m_primary>  (11) 
energy

$$$$
11:0
     RDKit          3D

 45 47  0  0  0  0  0  0  0  0999 V2000
   59.9540   29.4840   47.0380 C   0  0  0  0  0  0  0  0  0  0  0  0
   59.8900   29.9590   45.5900 C   0  0  0  0  0  0  0  0  0  0  0  0
   58.5260   30.3630   45.2320 N   0  0  0  0  0  0  0  0  0  0  0  0
   57.5920   29.6060   44.6190 C   0  0  0  0  0  0  0  0  0  0  0  0
   57.7940   27.8840   44.1470 S   0  0  0  0  0  0  0  0  0  0  0  0
   57.4490   27.2150   45.8130 C   0  0  0  0  0  0  0  0  0  0  0  0
   56.2830   26.2640   45.7880 C   0  0  0  0  0  0  0  0  0  0  0  0
   55.1430   26.7110   46.0910 O   0  0  0  0  0  0  0  0  0  0  0  0
   56.4330   24.8630   45.4620 N   0  0  0  0  0  0  0  0  0  0  0  0
   57.6170   24.3480   44.7570 C   0  0  0  0  0  0  0  0  0  0  0  0
   57.2140   23.3040   43.7040 C   0  0  0  0  0  0  0  0  0  0  0  0
   56.1740   22.2670   44.2130 C   0  0  0  0  0  0  0  0  0  0  0  0
   56.6520   20.8300   43.9710 C   0  0  0  0  0  0  0  0  0  0  0  0
   55.8110   22.4670   45.6960 C   0  0  0  0  0  0  0  0  0  0  0  0
   55.4180   23.9230   45.9620 C   0  0  0  0  0  0  0  0  0  0  0  0
   56.4490   30.2860   44.4210 N   0  0  0  0  0  0  0  0  0  0  0  0
   56.6420   31.5050   44.8960 N   0  0  0  0  0  0  0  0  0  0  0  0
   57.8970   31.5560   45.3880 C   0  0  0  0  0  0  0  0  0  0  0  0
   58.4410   32.7880   46.0060 C   0  0  0  0  0  0  0  0  0  0  0  0
   58.8550   33.9090   45.2900 C   0  0  0  0  0  0  0  0  0  0  0  0
   59.3130   34.9590   46.0960 C   0  0  0  0  0  0  0  0  0  0  0  0
   59.2610   34.6800   47.4550 C   0  0  0  0  0  0  0  0  0  0  0  0
   58.6440   33.1300   47.6440 S   0  0  0  0  0  0  0  0  0  0  0  0
   59.8379   30.3456   47.7120 H   0  0  0  0  0  0  0  0  0  0  0  0
   59.1450   28.7620   47.2231 H   0  0  0  0  0  0  0  0  0  0  0  0
   60.9252   29.0019   47.2231 H   0  0  0  0  0  0  0  0  0  0  0  0
   60.5653   30.8179   45.4624 H   0  0  0  0  0  0  0  0  0  0  0  0
   60.1949   29.1302   44.9342 H   0  0  0  0  0  0  0  0  0  0  0  0
   58.3394   26.6812   46.1765 H   0  0  0  0  0  0  0  0  0  0  0  0
   57.1997   28.0536   46.4798 H   0  0  0  0  0  0  0  0  0  0  0  0
   58.1314   25.1829   44.2586 H   0  0  0  0  0  0  0  0  0  0  0  0
   58.2837   23.8702   45.4900 H   0  0  0  0  0  0  0  0  0  0  0  0
   56.7833   23.8315   42.8401 H   0  0  0  0  0  0  0  0  0  0  0  0
   58.1242   22.7434   43.4447 H   0  0  0  0  0  0  0  0  0  0  0  0
   55.2594   22.4388   43.6264 H   0  0  0  0  0  0  0  0  0  0  0  0
   56.8179   20.3312   44.9372 H   0  0  0  0  0  0  0  0  0  0  0  0
   55.8882   20.2806   43.4011 H   0  0  0  0  0  0  0  0  0  0  0  0
   57.5927   20.8476   43.4011 H   0  0  0  0  0  0  0  0  0  0  0  0
   54.9659   21.8115   45.9531 H   0  0  0  0  0  0  0  0  0  0  0  0
   56.6869   22.2173   46.3128 H   0  0  0  0  0  0  0  0  0  0  0  0
   54.4618   24.1311   45.4597 H   0  0  0  0  0  0  0  0  0  0  0  0
   55.3313   24.0604   47.0499 H   0  0  0  0  0  0  0  0  0  0  0  0
   58.8250   33.9645   44.1918 H   0  0  0  0  0  0  0  0  0  0  0  0
   59.6791   35.9139   45.6907 H   0  0  0  0  0  0  0  0  0  0  0  0
   59.5699   35.3560   48.2659 H   0  0  0  0  0  0  0  0  0  0  0  0
  1  2  1  0
  2  3  1  0
  3  4  1  0
  4  5  1  0
  5  6  1  0
  6  7  1  0
  7  8  2  0
  7  9  1  0
  9 10  1  0
 10 11  1  0
 11 12  1  0
 12 13  1  0
 12 14  1  0
 14 15  1  0
  4 16  2  0
 16 17  1  0
 17 18  2  0
 18 19  1  0
 19 20  2  0
 20 21  1  0
 21 22  2  0
 22 23  1  0
 18  3  1  0
 23 19  1  0
 15  9  1  0
  1 24  1  0
  1 25  1  0
  1 26  1  0
  2 27  1  0
  2 28  1  0
  6 29  1  0
  6 30  1  0
 10 31  1  0
 10 32  1  0
 11 33  1  0
 11 34  1  0
 12 35  1  0
 13 36  1  0
 13 37  1  0
 13 38  1  0
 14 39  1  0
 14 40  1  0
 15 41  1  0
 15 42  1  0
 20 43  1  0
 21 44  1  0
 22 45  1  0
M  END
>  <UniqueID>  (12) 
12

>  <SMILES>  (12) 
CCn1c(SCC(=O)N2CCC(C)CC2)nnc1-c1cccs1

>  <Energy>  (12) 
102.64491406081947

>  <Genealogy>  (12) 
CCn1c(SCC(=O)N2CCC(C)CC2)nnc1-c1cccs1 (3D coordinates assigned)
CCn1c(SCC(=O)N2CCC(C)CC2)nnc1-c1cccs1 (nonaromatic ring conformer: 102.64491406081947 kcal/mol)

>  <smiles>  (12) 
CCn1c(SCC(=O)N2CCC(C)CC2)nnc1-c1cccs1

>  <score_type>  (12) 
oracle

>  <origin>  (12) 
adg

>  <m_score__min__energy>  (12) 
-8.7699999999999996

>  <m_primary>  (12) 
energy

$$$$
12:0
     RDKit          3D

 50 52  0  0  0  0  0  0  0  0999 V2000
   59.6570   35.1800   45.6150 C   0  0  0  0  0  0  0  0  0  0  0  0
   58.2910   34.5200   45.7610 C   0  0  0  0  0  0  0  0  0  0  0  0
   58.4380   33.1450   46.2440 N   0  0  0  0  0  0  0  0  0  0  0  0
   58.0590   32.0060   45.6030 C   0  0  0  0  0  0  0  0  0  0  0  0
   57.3450   31.9550   43.9570 S   0  0  0  0  0  0  0  0  0  0  0  0
   57.5410   30.1480   43.7450 C   0  0  0  0  0  0  0  0  0  0  0  0
   56.2500   29.3790   44.0480 C   0  0  0  0  0  0  0  0  0  0  0  0
   56.3030   28.7500   45.3300 O   0  0  0  0  0  0  0  0  0  0  0  0
   57.1310   27.6710   45.6820 C   0  0  0  0  0  0  0  0  0  0  0  0
   58.5370   27.7750   45.7100 C   0  0  0  0  0  0  0  0  0  0  0  0
   59.3180   26.6700   46.0550 C   0  0  0  0  0  0  0  0  0  0  0  0
   58.7110   25.4570   46.3770 C   0  0  0  0  0  0  0  0  0  0  0  0
   57.3190   25.3440   46.3610 C   0  0  0  0  0  0  0  0  0  0  0  0
   56.5200   26.4510   46.0150 C   0  0  0  0  0  0  0  0  0  0  0  0
   55.1180   26.3790   45.9860 O   0  0  0  0  0  0  0  0  0  0  0  0
   54.3780   25.2210   45.6160 C   0  0  0  0  0  0  0  0  0  0  0  0
   58.2190   30.8970   46.3620 N   0  0  0  0  0  0  0  0  0  0  0  0
   58.7110   31.3650   47.5240 C   0  0  0  0  0  0  0  0  0  0  0  0
   58.8370   32.7140   47.4630 C   0  0  0  0  0  0  0  0  0  0  0  0
   59.2790   33.4210   48.5760 C   0  0  0  0  0  0  0  0  0  0  0  0
   59.3750   34.6790   48.5440 O   0  0  0  0  0  0  0  0  0  0  0  0
   59.6030   32.7150   49.7130 N   0  0  0  0  0  0  0  0  0  0  0  0
   60.0480   33.4350   50.9180 C   0  0  0  0  0  0  0  0  0  0  0  0
   59.4370   31.3400   49.7540 C   0  0  0  0  0  0  0  0  0  0  0  0
   59.6810   30.7130   50.8230 O   0  0  0  0  0  0  0  0  0  0  0  0
   59.0000   30.6490   48.6430 N   0  0  0  0  0  0  0  0  0  0  0  0
   58.8120   29.1920   48.6490 C   0  0  0  0  0  0  0  0  0  0  0  0
   60.0751   35.3820   46.6122 H   0  0  0  0  0  0  0  0  0  0  0  0
   60.3316   34.5085   45.0637 H   0  0  0  0  0  0  0  0  0  0  0  0
   59.5502   36.1259   45.0637 H   0  0  0  0  0  0  0  0  0  0  0  0
   57.6860   35.0936   46.4786 H   0  0  0  0  0  0  0  0  0  0  0  0
   57.7960   34.5025   44.7788 H   0  0  0  0  0  0  0  0  0  0  0  0
   57.8372   29.9447   42.7053 H   0  0  0  0  0  0  0  0  0  0  0  0
   58.3077   29.8087   44.4571 H   0  0  0  0  0  0  0  0  0  0  0  0
   55.4032   30.0809   44.0291 H   0  0  0  0  0  0  0  0  0  0  0  0
   56.1275   28.5964   43.2847 H   0  0  0  0  0  0  0  0  0  0  0  0
   59.0206   28.7306   45.4590 H   0  0  0  0  0  0  0  0  0  0  0  0
   60.4144   26.7569   46.0727 H   0  0  0  0  0  0  0  0  0  0  0  0
   59.3294   24.5874   46.6441 H   0  0  0  0  0  0  0  0  0  0  0  0
   56.8445   24.3859   46.6198 H   0  0  0  0  0  0  0  0  0  0  0  0
   54.0422   24.6955   46.5221 H   0  0  0  0  0  0  0  0  0  0  0  0
   53.5031   25.5199   45.0200 H   0  0  0  0  0  0  0  0  0  0  0  0
   55.0168   24.5526   45.0200 H   0  0  0  0  0  0  0  0  0  0  0  0
   57.9830   29.9140   46.1050 H   0  0  0  0  0  0  0  0  0  0  0  0
   59.7126   32.8924   51.8142 H   0  0  0  0  0  0  0  0  0  0  0  0
   61.1459   33.5030   50.9200 H   0  0  0  0  0  0  0  0  0  0  0  0
   59.6179   34.4474   50.9200 H   0  0  0  0  0  0  0  0  0  0  0  0
   58.7656   28.8326   49.6876 H   0  0  0  0  0  0  0  0  0  0  0  0
   57.8740   28.9412   48.1320 H   0  0  0  0  0  0  0  0  0  0  0  0
   59.6556   28.7113   48.1320 H   0  0  0  0  0  0  0  0  0  0  0  0
  1  2  1  0
  2  3  1  0
  3  4  1  0
  4  5  1  0
  5  6  1  0
  6  7  1  0
  7  8  1  0
  8  9  1  0
  9 10  2  0
 10 11  1  0
 11 12  2  0
 12 13  1  0
 13 14  2  0
 14 15  1  0
 15 16  1  0
  4 17  2  0
 17 18  1  0
 18 19  2  0
 19 20  1  0
 20 21  2  0
 20 22  1  0
 22 23  1  0
 22 24  1  0
 24 25  2  0
 24 26  1  0
 26 27  1  0
 19  3  1  0
 14  9  1  0
 26 18  1  0
  1 28  1  0
  1 29  1  0
  1 30  1  0
  2 31  1  0
  2 32  1  0
  6 33  1  0
  6 34  1  0
  7 35  1  0
  7 36  1  0
 10 37  1  0
 11 38  1  0
 12 39  1  0
 13 40  1  0
 16 41  1  0
 16 42  1  0
 16 43  1  0
 17 44  1  0
 23 45  1  0
 23 46  1  0
 23 47  1  0
 27 48  1  0
 27 49  1  0
 27 50  1  0
M  CHG  1  17   1
M  END
>  <UniqueID>  (13) 
13

>  <SMILES>  (13) 
CCn1c(SCCOc2ccccc2OC)[nH+]c2c1c(=O)n(C)c(=O)n2C

>  <Energy>  (13) 
90.83132178731056

>  <Genealogy>  (13) 
CCn1c(SCCOc2ccccc2OC)[nH+]c2c1c(=O)n(C)c(=O)n2C (protonated)
CCn1c(SCCOc2ccccc2OC)[nH+]c2c1c(=O)n(C)c(=O)n2C (3D coordinates assigned)
CCn1c(SCCOc2ccccc2OC)[nH+]c2c1c(=O)n(C)c(=O)n2C (optimized conformer: 90.83132178731056 kcal/mol)

>  <smiles>  (13) 
CCn1c(SCCOc2ccccc2OC)nc2c1c(=O)n(C)c(=O)n2C

>  <score_type>  (13) 
oracle

>  <origin>  (13) 
adg

>  <m_score__min__energy>  (13) 
-6.4800000000000004

>  <m_primary>  (13) 
energy

$$$$
13:0
     RDKit          3D

 33 34  0  0  0  0  0  0  0  0999 V2000
   58.5290   28.0450   46.0130 C   0  0  0  0  0  0  0  0  0  0  0  0
   57.0450   27.6720   45.9960 C   0  0  0  0  0  0  0  0  0  0  0  0
   56.2260   28.6370   45.2450 N   0  0  0  0  0  0  0  0  0  0  0  0
   56.8860   29.0860   44.0130 C   0  0  0  0  0  0  0  0  0  0  0  0
   56.4050   30.4920   43.6530 C   0  0  0  0  0  0  0  0  0  0  0  0
   56.3590   31.3230   44.8140 O   0  0  0  0  0  0  0  0  0  0  0  0
   57.4030   32.1430   45.2750 C   0  0  0  0  0  0  0  0  0  0  0  0
   57.3910   33.5450   45.1330 C   0  0  0  0  0  0  0  0  0  0  0  0
   58.4550   34.3140   45.6090 C   0  0  0  0  0  0  0  0  0  0  0  0
   59.5460   33.7000   46.2400 C   0  0  0  0  0  0  0  0  0  0  0  0
   60.6200   34.4630   46.7220 C   0  0  0  0  0  0  0  0  0  0  0  0
   61.7010   33.8380   47.3480 C   0  0  0  0  0  0  0  0  0  0  0  0
   61.7180   32.4480   47.4990 C   0  0  0  0  0  0  0  0  0  0  0  0
   60.6550   31.6760   47.0220 C   0  0  0  0  0  0  0  0  0  0  0  0
   59.5630   32.2930   46.3910 C   0  0  0  0  0  0  0  0  0  0  0  0
   58.4900   31.5280   45.9080 C   0  0  0  0  0  0  0  0  0  0  0  0
   58.8734   28.1316   47.0541 H   0  0  0  0  0  0  0  0  0  0  0  0
   59.1091   27.2647   45.4986 H   0  0  0  0  0  0  0  0  0  0  0  0
   58.6712   29.0068   45.4986 H   0  0  0  0  0  0  0  0  0  0  0  0
   56.9364   26.6811   45.5310 H   0  0  0  0  0  0  0  0  0  0  0  0
   56.6898   27.6736   47.0371 H   0  0  0  0  0  0  0  0  0  0  0  0
   56.0290   29.4680   45.8510 H   0  0  0  0  0  0  0  0  0  0  0  0
   57.9752   29.1003   44.1661 H   0  0  0  0  0  0  0  0  0  0  0  0
   56.6369   28.3952   43.1940 H   0  0  0  0  0  0  0  0  0  0  0  0
   57.0964   30.9335   42.9202 H   0  0  0  0  0  0  0  0  0  0  0  0
   55.3927   30.4214   43.2285 H   0  0  0  0  0  0  0  0  0  0  0  0
   56.5375   34.0371   44.6438 H   0  0  0  0  0  0  0  0  0  0  0  0
   58.4370   35.4072   45.4882 H   0  0  0  0  0  0  0  0  0  0  0  0
   60.6108   35.5569   46.6066 H   0  0  0  0  0  0  0  0  0  0  0  0
   62.5411   34.4409   47.7232 H   0  0  0  0  0  0  0  0  0  0  0  0
   62.5705   31.9606   47.9947 H   0  0  0  0  0  0  0  0  0  0  0  0
   60.6740   30.5826   47.1412 H   0  0  0  0  0  0  0  0  0  0  0  0
   58.5031   30.4346   46.0279 H   0  0  0  0  0  0  0  0  0  0  0  0
  1  2  1  0
  2  3  1  0
  3  4  1  0
  4  5  1  0
  5  6  1  0
  6  7  1  0
  7  8  2  0
  8  9  1  0
  9 10  2  0
 10 11  1  0
 11 12  2  0
 12 13  1  0
 13 14  2  0
 14 15  1  0
 15 16  2  0
 16  7  1  0
 15 10  1  0
  1 17  1  0
  1 18  1  0
  1 19  1  0
  2 20  1  0
  2 21  1  0
  3 22  1  0
  4 23  1  0
  4 24  1  0
  5 25  1  0
  5 26  1  0
  8 27  1  0
  9 28  1  0
 11 29  1  0
 12 30  1  0
 13 31  1  0
 14 32  1  0
 16 33  1  0
M  END
>  <UniqueID>  (14) 
14

>  <SMILES>  (14) 
CCNCCOc1ccc2ccccc2c1

>  <Energy>  (14) 
32.370294948119415

>  <Genealogy>  (14) 
CCNCCOc1ccc2ccccc2c1 (3D coordinates assigned)
CCNCCOc1ccc2ccccc2c1 (optimized conformer: 32.370294948119415 kcal/mol)

>  <smiles>  (14) 
CCNCCOc1ccc2ccccc2c1

>  <score_type>  (14) 
oracle

>  <origin>  (14) 
adg

>  <m_score__min__energy>  (14) 
-6.4199999999999999

>  <m_primary>  (14) 
energy

$$$$
14:0
     RDKit          3D

 39 41  0  0  0  0  0  0  0  0999 V2000
   58.2460   30.1540   45.8690 C   0  0  0  0  0  0  0  0  0  0  0  0
   57.3910   31.1740   45.2440 N   0  0  0  0  0  0  0  0  0  0  0  0
   56.9920   30.7780   43.8850 C   0  0  0  0  0  0  0  0  0  0  0  0
   57.9640   32.5380   45.3160 C   0  0  0  0  0  0  0  0  0  0  0  0
   57.4880   33.3810   46.5150 C   0  0  0  0  0  0  0  0  0  0  0  0
   58.5650   34.1590   47.0330 O   0  0  0  0  0  0  0  0  0  0  0  0
   59.8930   33.7200   47.1210 C   0  0  0  0  0  0  0  0  0  0  0  0
   60.9300   34.2890   46.3560 C   0  0  0  0  0  0  0  0  0  0  0  0
   62.2430   33.8270   46.4910 C   0  0  0  0  0  0  0  0  0  0  0  0
   62.5390   32.7860   47.3840 C   0  0  0  0  0  0  0  0  0  0  0  0
   61.4940   32.1940   48.1210 C   0  0  0  0  0  0  0  0  0  0  0  0
   60.1870   32.6760   48.0060 C   0  0  0  0  0  0  0  0  0  0  0  0
   61.8750   30.8470   49.2470 S   0  0  0  0  0  0  0  0  0  0  0  0
   63.2930   31.7250   49.9160 C   0  0  0  0  0  0  0  0  0  0  0  0
   63.4880   31.8150   51.2990 C   0  0  0  0  0  0  0  0  0  0  0  0
   64.6010   32.4940   51.8010 C   0  0  0  0  0  0  0  0  0  0  0  0
   65.5130   33.0940   50.9270 C   0  0  0  0  0  0  0  0  0  0  0  0
   65.3070   33.0310   49.5440 C   0  0  0  0  0  0  0  0  0  0  0  0
   64.1880   32.3570   49.0260 C   0  0  0  0  0  0  0  0  0  0  0  0
   63.9060   32.3580   47.6070 N   0  0  0  0  0  0  0  0  0  0  0  0
   58.1760   30.2375   46.9636 H   0  0  0  0  0  0  0  0  0  0  0  0
   57.9125   29.1538   45.5555 H   0  0  0  0  0  0  0  0  0  0  0  0
   59.2891   30.3077   45.5555 H   0  0  0  0  0  0  0  0  0  0  0  0
   56.2123   30.0042   43.9426 H   0  0  0  0  0  0  0  0  0  0  0  0
   56.5999   31.6543   43.3480 H   0  0  0  0  0  0  0  0  0  0  0  0
   57.8653   30.3793   43.3480 H   0  0  0  0  0  0  0  0  0  0  0  0
   59.0585   32.4458   45.3766 H   0  0  0  0  0  0  0  0  0  0  0  0
   57.6198   33.0645   44.4136 H   0  0  0  0  0  0  0  0  0  0  0  0
   56.6800   34.0522   46.1884 H   0  0  0  0  0  0  0  0  0  0  0  0
   57.1228   32.7065   47.3035 H   0  0  0  0  0  0  0  0  0  0  0  0
   60.7058   35.1010   45.6487 H   0  0  0  0  0  0  0  0  0  0  0  0
   63.0475   34.2818   45.8943 H   0  0  0  0  0  0  0  0  0  0  0  0
   59.3850   32.2325   48.6143 H   0  0  0  0  0  0  0  0  0  0  0  0
   62.7669   31.3524   51.9889 H   0  0  0  0  0  0  0  0  0  0  0  0
   64.7605   32.5569   52.8876 H   0  0  0  0  0  0  0  0  0  0  0  0
   66.3942   33.6166   51.3273 H   0  0  0  0  0  0  0  0  0  0  0  0
   66.0232   33.5105   48.8605 H   0  0  0  0  0  0  0  0  0  0  0  0
   64.0220   31.3870   47.2350 H   0  0  0  0  0  0  0  0  0  0  0  0
   64.5740   32.9840   47.0990 H   0  0  0  0  0  0  0  0  0  0  0  0
  1  2  1  0
  2  3  1  0
  2  4  1  0
  4  5  1  0
  5  6  1  0
  6  7  1  0
  7  8  2  0
  8  9  1  0
  9 10  2  0
 10 11  1  0
 11 12  2  0
 11 13  1  0
 13 14  1  0
 14 15  2  0
 15 16  1  0
 16 17  2  0
 17 18  1  0
 18 19  2  0
 19 20  1  0
 12  7  1  0
 19 14  1  0
 20 10  1  0
  1 21  1  0
  1 22  1  0
  1 23  1  0
  3 24  1  0
  3 25  1  0
  3 26  1  0
  4 27  1  0
  4 28  1  0
  5 29  1  0
  5 30  1  0
  8 31  1  0
  9 32  1  0
 12 33  1  0
 15 34  1  0
 16 35  1  0
 17 36  1  0
 18 37  1  0
 20 38  1  0
 20 39  1  0
M  CHG  1  20   1
M  END
>  <UniqueID>  (15) 
15

>  <SMILES>  (15) 
CN(C)CCOc1ccc2c(c1)Sc1ccccc1[NH2+]2

>  <Energy>  (15) 
56.0416216332584

>  <Genealogy>  (15) 
CN(C)CCOc1ccc2c(c1)Sc1ccccc1[NH2+]2 (protonated)
CN(C)CCOc1ccc2c(c1)Sc1ccccc1[NH2+]2 (3D coordinates assigned)
CN(C)CCOc1ccc2c(c1)Sc1ccccc1[NH2+]2 (nonaromatic ring conformer: 56.0416216332584 kcal/mol)

>  <smiles>  (15) 
CN(C)CCOc1ccc2c(c1)Sc1ccccc1N2

>  <score_type>  (15) 
oracle

>  <origin>  (15) 
adg

>  <m_score__min__energy>  (15) 
-5.2300000000000004

>  <m_primary>  (15) 
energy

$$$$
15:0
     RDKit          3D

 52 56  0  0  0  0  0  0  0  0999 V2000
   63.5600   33.8370   47.0440 C   0  0  0  0  0  0  0  0  0  0  0  0
   63.9000   32.4130   47.1430 N   0  0  0  0  0  0  0  0  0  0  0  0
   62.7040   31.5520   47.2170 C   0  0  0  0  0  0  0  0  0  0  0  0
   62.1040   31.4540   48.6310 C   0  0  0  0  0  0  0  0  0  0  0  0
   60.6470   31.5900   48.6040 N   0  0  0  0  0  0  0  0  0  0  0  0
   59.8970   31.4140   47.3940 C   0  0  0  0  0  0  0  0  0  0  0  0
   59.4990   30.1390   46.9950 C   0  0  0  0  0  0  0  0  0  0  0  0
   58.7480   29.9570   45.8490 C   0  0  0  0  0  0  0  0  0  0  0  0
   58.2680   31.0180   45.1200 N   0  0  0  0  0  0  0  0  0  0  0  0
   57.2080   30.8080   44.1180 C   0  0  0  0  0  0  0  0  0  0  0  0
   58.7420   32.2880   45.4100 C   0  0  0  0  0  0  0  0  0  0  0  0
   58.4710   33.3940   44.5670 C   0  0  0  0  0  0  0  0  0  0  0  0
   58.9150   34.6740   44.8990 C   0  0  0  0  0  0  0  0  0  0  0  0
   59.6450   34.8860   46.0640 C   0  0  0  0  0  0  0  0  0  0  0  0
   59.9600   33.8150   46.8970 C   0  0  0  0  0  0  0  0  0  0  0  0
   59.5370   32.5090   46.5800 C   0  0  0  0  0  0  0  0  0  0  0  0
   58.5070   28.5160   45.6970 C   0  0  0  0  0  0  0  0  0  0  0  0
   58.0120   27.7700   44.6180 C   0  0  0  0  0  0  0  0  0  0  0  0
   57.9650   26.3670   44.7270 C   0  0  0  0  0  0  0  0  0  0  0  0
   57.4440   25.5880   43.6810 C   0  0  0  0  0  0  0  0  0  0  0  0
   57.4040   24.1960   43.7950 C   0  0  0  0  0  0  0  0  0  0  0  0
   57.8850   23.5680   44.9460 C   0  0  0  0  0  0  0  0  0  0  0  0
   58.4150   24.3260   45.9930 C   0  0  0  0  0  0  0  0  0  0  0  0
   58.4610   25.7260   45.8970 C   0  0  0  0  0  0  0  0  0  0  0  0
   59.0190   26.4950   46.9340 C   0  0  0  0  0  0  0  0  0  0  0  0
   59.0430   27.8830   46.8060 C   0  0  0  0  0  0  0  0  0  0  0  0
   59.7070   28.8470   47.7320 C   0  0  0  0  0  0  0  0  0  0  0  0
   63.4588   34.2609   48.0540 H   0  0  0  0  0  0  0  0  0  0  0  0
   64.3568   34.3674   46.5019 H   0  0  0  0  0  0  0  0  0  0  0  0
   62.6096   33.9502   46.5019 H   0  0  0  0  0  0  0  0  0  0  0  0
   64.4540   32.2750   48.0220 H   0  0  0  0  0  0  0  0  0  0  0  0
   64.5090   32.1440   46.3390 H   0  0  0  0  0  0  0  0  0  0  0  0
   61.9382   31.9611   46.5415 H   0  0  0  0  0  0  0  0  0  0  0  0
   63.0172   30.5380   46.9276 H   0  0  0  0  0  0  0  0  0  0  0  0
   62.3642   30.4765   49.0631 H   0  0  0  0  0  0  0  0  0  0  0  0
   62.5166   32.2723   49.2394 H   0  0  0  0  0  0  0  0  0  0  0  0
   60.1640   32.0090   49.4300 H   0  0  0  0  0  0  0  0  0  0  0  0
   56.2526   30.6187   44.6292 H   0  0  0  0  0  0  0  0  0  0  0  0
   57.1156   31.7053   43.4885 H   0  0  0  0  0  0  0  0  0  0  0  0
   57.4647   29.9432   43.4885 H   0  0  0  0  0  0  0  0  0  0  0  0
   57.9025   33.2412   43.6378 H   0  0  0  0  0  0  0  0  0  0  0  0
   58.6865   35.5210   44.2354 H   0  0  0  0  0  0  0  0  0  0  0  0
   59.9743   35.9018   46.3280 H   0  0  0  0  0  0  0  0  0  0  0  0
   60.5451   33.9907   47.8118 H   0  0  0  0  0  0  0  0  0  0  0  0
   57.6664   28.2720   43.7023 H   0  0  0  0  0  0  0  0  0  0  0  0
   57.0665   26.0749   42.7697 H   0  0  0  0  0  0  0  0  0  0  0  0
   56.9915   23.5915   42.9738 H   0  0  0  0  0  0  0  0  0  0  0  0
   57.8464   22.4718   45.0285 H   0  0  0  0  0  0  0  0  0  0  0  0
   58.7971   23.8249   46.8946 H   0  0  0  0  0  0  0  0  0  0  0  0
   59.4298   26.0092   47.8314 H   0  0  0  0  0  0  0  0  0  0  0  0
   59.2199   28.8612   48.7182 H   0  0  0  0  0  0  0  0  0  0  0  0
   60.7593   28.6140   47.9521 H   0  0  0  0  0  0  0  0  0  0  0  0
  1  2  1  0
  2  3  1  0
  3  4  1  0
  4  5  1  0
  5  6  1  0
  6  7  2  0
  7  8  1  0
  8  9  2  0
  9 10  1  0
  9 11  1  0
 11 12  2  0
 12 13  1  0
 13 14  2  0
 14 15  1  0
 15 16  2  0
  8 17  1  0
 17 18  2  0
 18 19  1  0
 19 20  2  0
 20 21  1  0
 21 22  2  0
 22 23  1  0
 23 24  2  0
 24 25  1  0
 25 26  2  0
 26 27  1  0
 16  6  1  0
 26 17  1  0
 27  7  1  0
 16 11  1  0
 24 19  1  0
  1 28  1  0
  1 29  1  0
  1 30  1  0
  2 31  1  0
  2 32  1  0
  3 33  1  0
  3 34  1  0
  4 35  1  0
  4 36  1  0
  5 37  1  0
 10 38  1  0
 10 39  1  0
 10 40  1  0
 12 41  1  0
 13 42  1  0
 14 43  1  0
 15 44  1  0
 18 45  1  0
 20 46  1  0
 21 47  1  0
 22 48  1  0
 23 49  1  0
 25 50  1  0
 27 51  1  0
 27 52  1  0
M  CHG  2   2   1   9   1
M  END
>  <UniqueID>  (16) 
16

>  <SMILES>  (16) 
C[NH2+]CCNc1c2c([n+](C)c3ccccc13)-c1cc3ccccc3cc1C2

>  <Energy>  (16) 
101.6878349570327

>  <Genealogy>  (16) 
C[NH2+]CCNc1c2c([n+](C)c3ccccc13)-c1cc3ccccc3cc1C2 (protonated)
C[NH2+]CCNc1c2c([n+](C)c3ccccc13)-c1cc3ccccc3cc1C2 (3D coordinates assigned)
C[NH2+]CCNc1c2c([n+](C)c3ccccc13)-c1cc3ccccc3cc1C2 (nonaromatic ring conformer: 101.6878349570327 kcal/mol)

>  <smiles>  (16) 
CNCCNc1c2c([n+](C)c3ccccc13)-c1cc3ccccc3cc1C2

>  <score_type>  (16) 
oracle

>  <origin>  (16) 
adg

>  <m_score__min__energy>  (16) 
-6.21

>  <m_primary>  (16) 
energy

$$$$
16:0
     RDKit          3D

 57 61  0  0  0  0  0  0  0  0999 V2000
   59.2660   34.8920   47.4850 C   0  0  0  0  0  0  0  0  0  0  0  0
   58.1260   34.1160   47.1330 O   0  0  0  0  0  0  0  0  0  0  0  0
   58.1540   33.0170   46.2600 C   0  0  0  0  0  0  0  0  0  0  0  0
   58.6190   31.7490   46.6600 C   0  0  0  0  0  0  0  0  0  0  0  0
   58.6320   30.6760   45.7550 C   0  0  0  0  0  0  0  0  0  0  0  0
   59.1180   29.3880   46.1680 N   0  0  0  0  0  0  0  0  0  0  0  0
   60.0950   29.0960   47.0680 C   0  0  0  0  0  0  0  0  0  0  0  0
   60.9980   30.0870   47.6990 C   0  0  0  0  0  0  0  0  0  0  0  0
   61.0470   30.1930   49.0990 C   0  0  0  0  0  0  0  0  0  0  0  0
   61.9120   31.1070   49.7090 C   0  0  0  0  0  0  0  0  0  0  0  0
   62.7460   31.9140   48.9280 C   0  0  0  0  0  0  0  0  0  0  0  0
   63.9180   33.1680   49.7630 Br  0  0  0  0  0  0  0  0  0  0  0  0
   62.7130   31.8060   47.5350 C   0  0  0  0  0  0  0  0  0  0  0  0
   61.8490   30.8910   46.9210 C   0  0  0  0  0  0  0  0  0  0  0  0
   60.1940   27.7680   47.3270 N   0  0  0  0  0  0  0  0  0  0  0  0
   59.2500   27.2200   46.5370 C   0  0  0  0  0  0  0  0  0  0  0  0
   58.5840   28.1920   45.8540 C   0  0  0  0  0  0  0  0  0  0  0  0
   57.4300   27.9060   44.9470 C   0  0  0  0  0  0  0  0  0  0  0  0
   56.8850   26.4980   45.2480 C   0  0  0  0  0  0  0  0  0  0  0  0
   57.9930   25.5010   45.3140 N   0  0  0  0  0  0  0  0  0  0  0  0
   57.4400   24.1130   45.2920 C   0  0  0  0  0  0  0  0  0  0  0  0
   58.3210   23.1050   44.5090 C   0  0  0  0  0  0  0  0  0  0  0  0
   57.6010   21.7530   44.3710 C   0  0  0  0  0  0  0  0  0  0  0  0
   56.2580   21.8450   43.7550 N   0  0  0  0  0  0  0  0  0  0  0  0
   55.8070   23.2170   43.4850 C   0  0  0  0  0  0  0  0  0  0  0  0
   55.9930   24.1290   44.7090 C   0  0  0  0  0  0  0  0  0  0  0  0
   58.8530   25.7770   46.4990 C   0  0  0  0  0  0  0  0  0  0  0  0
   58.1790   30.8750   44.4420 C   0  0  0  0  0  0  0  0  0  0  0  0
   57.7130   32.1300   44.0420 C   0  0  0  0  0  0  0  0  0  0  0  0
   57.7000   33.1960   44.9460 C   0  0  0  0  0  0  0  0  0  0  0  0
   57.2480   34.4100   44.5430 F   0  0  0  0  0  0  0  0  0  0  0  0
   59.3477   34.9476   48.5806 H   0  0  0  0  0  0  0  0  0  0  0  0
   60.1711   34.4216   47.0732 H   0  0  0  0  0  0  0  0  0  0  0  0
   59.1603   35.9065   47.0732 H   0  0  0  0  0  0  0  0  0  0  0  0
   58.9748   31.5984   47.6899 H   0  0  0  0  0  0  0  0  0  0  0  0
   60.4014   29.5535   49.7188 H   0  0  0  0  0  0  0  0  0  0  0  0
   61.9366   31.1915   50.8055 H   0  0  0  0  0  0  0  0  0  0  0  0
   63.3672   32.4411   46.9196 H   0  0  0  0  0  0  0  0  0  0  0  0
   61.8362   30.8010   45.8248 H   0  0  0  0  0  0  0  0  0  0  0  0
   56.6377   28.6505   45.1141 H   0  0  0  0  0  0  0  0  0  0  0  0
   57.7622   27.9571   43.8996 H   0  0  0  0  0  0  0  0  0  0  0  0
   56.3576   26.5147   46.2132 H   0  0  0  0  0  0  0  0  0  0  0  0
   56.1980   26.2069   44.4397 H   0  0  0  0  0  0  0  0  0  0  0  0
   57.4272   23.7638   46.3350 H   0  0  0  0  0  0  0  0  0  0  0  0
   58.5288   23.5083   43.5069 H   0  0  0  0  0  0  0  0  0  0  0  0
   59.2612   22.9525   45.0592 H   0  0  0  0  0  0  0  0  0  0  0  0
   58.2223   21.0924   43.7485 H   0  0  0  0  0  0  0  0  0  0  0  0
   57.4573   21.3640   45.3898 H   0  0  0  0  0  0  0  0  0  0  0  0
   55.5610   21.3880   44.3930 H   0  0  0  0  0  0  0  0  0  0  0  0
   56.3889   23.6246   42.6452 H   0  0  0  0  0  0  0  0  0  0  0  0
   54.7346   23.1836   43.2426 H   0  0  0  0  0  0  0  0  0  0  0  0
   55.7496   25.1602   44.4134 H   0  0  0  0  0  0  0  0  0  0  0  0
   55.3260   23.7483   45.4965 H   0  0  0  0  0  0  0  0  0  0  0  0
   58.2960   25.5310   47.4151 H   0  0  0  0  0  0  0  0  0  0  0  0
   59.7616   25.1608   46.4292 H   0  0  0  0  0  0  0  0  0  0  0  0
   58.1908   30.0405   43.7254 H   0  0  0  0  0  0  0  0  0  0  0  0
   57.3553   32.2796   43.0126 H   0  0  0  0  0  0  0  0  0  0  0  0
  1  2  1  0
  2  3  1  0
  3  4  2  0
  4  5  1  0
  5  6  1  0
  6  7  1  0
  7  8  1  0
  8  9  2  0
  9 10  1  0
 10 11  2  0
 11 12  1  0
 11 13  1  0
 13 14  2  0
  7 15  2  0
 15 16  1  0
 16 17  2  0
 17 18  1  0
 18 19  1  0
 19 20  1  0
 20 21  1  0
 21 22  1  0
 22 23  1  0
 23 24  1  0
 24 25  1  0
 25 26  1  0
 20 27  1  0
  5 28  2  0
 28 29  1  0
 29 30  2  0
 30 31  1  0
 30  3  1  0
 17  6  1  0
 26 21  1  0
 14  8  1  0
 27 16  1  0
  1 32  1  0
  1 33  1  0
  1 34  1  0
  4 35  1  0
  9 36  1  0
 10 37  1  0
 13 38  1  0
 14 39  1  0
 18 40  1  0
 18 41  1  0
 19 42  1  0
 19 43  1  0
 21 44  1  0
 22 45  1  0
 22 46  1  0
 23 47  1  0
 23 48  1  0
 24 49  1  0
 25 50  1  0
 25 51  1  0
 26 52  1  0
 26 53  1  0
 27 54  1  0
 27 55  1  0
 28 56  1  0
 29 57  1  0
M  END
>  <UniqueID>  (17) 
17

>  <SMILES>  (17) 
COc1cc(-n2c(-c3ccc(Br)cc3)nc3c2CCN(C2CCNCC2)C3)ccc1F

>  <Energy>  (17) 
117.18370518618319

>  <Genealogy>  (17) 
COc1cc(-n2c(-c3ccc(Br)cc3)nc3c2CCN(C2CCNCC2)C3)ccc1F (3D coordinates assigned)
COc1cc(-n2c(-c3ccc(Br)cc3)nc3c2CCN(C2CCNCC2)C3)ccc1F (nonaromatic ring conformer: 117.18370518618319 kcal/mol)

>  <smiles>  (17) 
COc1cc(-n2c(-c3ccc(Br)cc3)nc3c2CCN(C2CCNCC2)C3)ccc1F

>  <score_type>  (17) 
oracle

>  <origin>  (17) 
adg

>  <m_score__min__energy>  (17) 
-8.6199999999999992

>  <m_primary>  (17) 
energy

$$$$
17:0
     RDKit          3D

 48 48  0  0  0  0  0  0  0  0999 V2000
   63.1220   33.8480   46.3880 C   0  0  0  0  0  0  0  0  0  0  0  0
   63.7300   33.3750   47.7170 C   0  0  0  0  0  0  0  0  0  0  0  0
   62.7450   33.2080   48.8210 N   0  0  0  0  0  0  0  0  0  0  0  0
   61.6540   34.2240   48.8000 C   0  0  0  0  0  0  0  0  0  0  0  0
   60.4650   33.8460   49.6910 C   0  0  0  0  0  0  0  0  0  0  0  0
   63.4270   33.1880   50.1440 C   0  0  0  0  0  0  0  0  0  0  0  0
   63.4360   31.7840   50.7810 C   0  0  0  0  0  0  0  0  0  0  0  0
   63.0240   30.8080   49.8400 O   0  0  0  0  0  0  0  0  0  0  0  0
   61.8000   30.2010   50.2200 C   0  0  0  0  0  0  0  0  0  0  0  0
   60.7380   30.4120   49.1390 C   0  0  0  0  0  0  0  0  0  0  0  0
   61.3600   30.8830   47.8880 N   0  0  0  0  0  0  0  0  0  0  0  0
   60.6620   30.4120   46.6830 C   0  0  0  0  0  0  0  0  0  0  0  0
   59.1660   30.7520   46.7360 C   0  0  0  0  0  0  0  0  0  0  0  0
   58.8940   32.0780   46.0680 C   0  0  0  0  0  0  0  0  0  0  0  0
   59.5420   33.2310   46.5430 C   0  0  0  0  0  0  0  0  0  0  0  0
   59.2820   34.4780   45.9680 C   0  0  0  0  0  0  0  0  0  0  0  0
   58.3700   34.5880   44.9150 C   0  0  0  0  0  0  0  0  0  0  0  0
   57.7120   33.4520   44.4410 C   0  0  0  0  0  0  0  0  0  0  0  0
   57.9620   32.1970   45.0120 C   0  0  0  0  0  0  0  0  0  0  0  0
   57.0840   30.8060   44.3850 Cl  0  0  0  0  0  0  0  0  0  0  0  0
   62.2687   34.5119   46.5908 H   0  0  0  0  0  0  0  0  0  0  0  0
   63.8825   34.3943   45.8107 H   0  0  0  0  0  0  0  0  0  0  0  0
   62.7795   32.9765   45.8107 H   0  0  0  0  0  0  0  0  0  0  0  0
   64.2208   32.4058   47.5448 H   0  0  0  0  0  0  0  0  0  0  0  0
   64.4302   34.1602   48.0381 H   0  0  0  0  0  0  0  0  0  0  0  0
   62.3040   32.2690   48.6720 H   0  0  0  0  0  0  0  0  0  0  0  0
   62.0623   35.1838   49.1492 H   0  0  0  0  0  0  0  0  0  0  0  0
   61.2832   34.2867   47.7663 H   0  0  0  0  0  0  0  0  0  0  0  0
   60.7550   33.9382   50.7481 H   0  0  0  0  0  0  0  0  0  0  0  0
   59.6213   34.5202   49.4821 H   0  0  0  0  0  0  0  0  0  0  0  0
   60.1655   32.8084   49.4821 H   0  0  0  0  0  0  0  0  0  0  0  0
   64.4666   33.5216   50.0103 H   0  0  0  0  0  0  0  0  0  0  0  0
   62.8715   33.8575   50.8172 H   0  0  0  0  0  0  0  0  0  0  0  0
   64.4544   31.5488   51.1237 H   0  0  0  0  0  0  0  0  0  0  0  0
   62.7376   31.7751   51.6308 H   0  0  0  0  0  0  0  0  0  0  0  0
   61.9604   29.1223   50.3640 H   0  0  0  0  0  0  0  0  0  0  0  0
   61.4506   30.6611   51.1561 H   0  0  0  0  0  0  0  0  0  0  0  0
   60.2203   29.4601   48.9497 H   0  0  0  0  0  0  0  0  0  0  0  0
   60.0219   31.1708   49.4875 H   0  0  0  0  0  0  0  0  0  0  0  0
   62.3370   30.5060   47.8480 H   0  0  0  0  0  0  0  0  0  0  0  0
   61.1077   30.8929   45.7998 H   0  0  0  0  0  0  0  0  0  0  0  0
   60.7676   29.3186   46.6257 H   0  0  0  0  0  0  0  0  0  0  0  0
   58.5986   29.9644   46.2186 H   0  0  0  0  0  0  0  0  0  0  0  0
   58.8563   30.8177   47.7895 H   0  0  0  0  0  0  0  0  0  0  0  0
   60.2590   33.1514   47.3734 H   0  0  0  0  0  0  0  0  0  0  0  0
   59.7962   35.3744   46.3450 H   0  0  0  0  0  0  0  0  0  0  0  0
   58.1707   35.5694   44.4599 H   0  0  0  0  0  0  0  0  0  0  0  0
   56.9925   33.5425   43.6139 H   0  0  0  0  0  0  0  0  0  0  0  0
  1  2  1  0
  2  3  1  0
  3  4  1  0
  4  5  1  0
  3  6  1  0
  6  7  1  0
  7  8  1  0
  8  9  1  0
  9 10  1  0
 10 11  1  0
 11 12  1  0
 12 13  1  0
 13 14  1  0
 14 15  2  0
 15 16  1  0
 16 17  2  0
 17 18  1  0
 18 19  2  0
 19 20  1  0
 19 14  1  0
  1 21  1  0
  1 22  1  0
  1 23  1  0
  2 24  1  0
  2 25  1  0
  3 26  1  0
  4 27  1  0
  4 28  1  0
  5 29  1  0
  5 30  1  0
  5 31  1  0
  6 32  1  0
  6 33  1  0
  7 34  1  0
  7 35  1  0
  9 36  1  0
  9 37  1  0
 10 38  1  0
 10 39  1  0
 11 40  1  0
 12 41  1  0
 12 42  1  0
 13 43  1  0
 13 44  1  0
 15 45  1  0
 16 46  1  0
 17 47  1  0
 18 48  1  0
M  CHG  1   3   1
M  END
>  <UniqueID>  (18) 
18

>  <SMILES>  (18) 
CC[NH+](CC)CCOCCNCCc1ccccc1Cl

>  <Energy>  (18) 
47.68716073824304

>  <Genealogy>  (18) 
CC[NH+](CC)CCOCCNCCc1ccccc1Cl (protonated)
CC[NH+](CC)CCOCCNCCc1ccccc1Cl (3D coordinates assigned)
CC[NH+](CC)CCOCCNCCc1ccccc1Cl (optimized conformer: 47.68716073824304 kcal/mol)

>  <smiles>  (18) 
CCN(CC)CCOCCNCCc1ccccc1Cl

>  <score_type>  (18) 
oracle

>  <origin>  (18) 
adg

>  <m_score__min__energy>  (18) 
-3.48

>  <m_primary>  (18) 
energy

$$$$
18:0
     RDKit          3D

 57 60  0  0  0  0  0  0  0  0999 V2000
   62.7950   30.4530   50.8410 C   0  0  0  0  0  0  0  0  0  0  0  0
   61.5600   31.2050   51.3180 C   0  0  0  0  0  0  0  0  0  0  0  0
   60.6050   31.3480   50.1920 N   0  0  0  0  0  0  0  0  0  0  0  0
   59.5660   32.3600   50.4800 C   0  0  0  0  0  0  0  0  0  0  0  0
   58.4780   32.3360   49.4060 C   0  0  0  0  0  0  0  0  0  0  0  0
   60.0110   30.0380   49.8420 C   0  0  0  0  0  0  0  0  0  0  0  0
   60.6330   29.4250   48.5770 C   0  0  0  0  0  0  0  0  0  0  0  0
   61.2770   30.4460   47.7390 N   0  0  0  0  0  0  0  0  0  0  0  0
   60.3520   30.9570   46.7460 C   0  0  0  0  0  0  0  0  0  0  0  0
   59.5920   30.0590   45.9350 C   0  0  0  0  0  0  0  0  0  0  0  0
   59.7850   28.6560   46.0000 C   0  0  0  0  0  0  0  0  0  0  0  0
   59.0210   27.7850   45.2280 C   0  0  0  0  0  0  0  0  0  0  0  0
   58.0490   28.2800   44.3730 C   0  0  0  0  0  0  0  0  0  0  0  0
   57.8410   29.6530   44.2680 C   0  0  0  0  0  0  0  0  0  0  0  0
   58.6060   30.5730   45.0310 C   0  0  0  0  0  0  0  0  0  0  0  0
   58.4090   31.9320   44.9090 N   0  0  0  0  0  0  0  0  0  0  0  0
   57.3940   32.4710   43.9770 C   0  0  0  0  0  0  0  0  0  0  0  0
   59.1930   32.7830   45.6420 C   0  0  0  0  0  0  0  0  0  0  0  0
   59.1580   34.4680   45.6010 S   0  0  0  0  0  0  0  0  0  0  0  0
   60.3800   34.7060   46.7130 C   0  0  0  0  0  0  0  0  0  0  0  0
   60.8450   33.4680   47.1480 C   0  0  0  0  0  0  0  0  0  0  0  0
   61.9690   33.4380   48.1000 C   0  0  0  0  0  0  0  0  0  0  0  0
   63.1650   32.7870   47.7590 C   0  0  0  0  0  0  0  0  0  0  0  0
   64.2500   32.8020   48.6410 C   0  0  0  0  0  0  0  0  0  0  0  0
   64.1540   33.4790   49.8610 C   0  0  0  0  0  0  0  0  0  0  0  0
   65.4990   33.4580   50.9880 Cl  0  0  0  0  0  0  0  0  0  0  0  0
   62.9790   34.1680   50.1840 C   0  0  0  0  0  0  0  0  0  0  0  0
   61.8990   34.1690   49.2970 C   0  0  0  0  0  0  0  0  0  0  0  0
   60.1660   32.3550   46.5480 C   0  0  0  0  0  0  0  0  0  0  0  0
   63.3699   30.1029   51.7110 H   0  0  0  0  0  0  0  0  0  0  0  0
   62.4866   29.5893   50.2337 H   0  0  0  0  0  0  0  0  0  0  0  0
   63.4208   31.1235   50.2337 H   0  0  0  0  0  0  0  0  0  0  0  0
   61.0823   30.6451   52.1355 H   0  0  0  0  0  0  0  0  0  0  0  0
   61.8534   32.2015   51.6798 H   0  0  0  0  0  0  0  0  0  0  0  0
   59.1126   32.1440   51.4586 H   0  0  0  0  0  0  0  0  0  0  0  0
   60.0337   33.3556   50.4883 H   0  0  0  0  0  0  0  0  0  0  0  0
   57.4888   32.3142   49.8866 H   0  0  0  0  0  0  0  0  0  0  0  0
   58.5614   33.2362   48.7794 H   0  0  0  0  0  0  0  0  0  0  0  0
   58.6010   31.4403   48.7794 H   0  0  0  0  0  0  0  0  0  0  0  0
   60.1664   29.3451   50.6821 H   0  0  0  0  0  0  0  0  0  0  0  0
   58.9416   30.2003   49.6419 H   0  0  0  0  0  0  0  0  0  0  0  0
   61.3865   28.6809   48.8748 H   0  0  0  0  0  0  0  0  0  0  0  0
   59.8281   28.9577   47.9907 H   0  0  0  0  0  0  0  0  0  0  0  0
   61.6490   31.2220   48.3280 H   0  0  0  0  0  0  0  0  0  0  0  0
   62.1310   30.0740   47.2910 H   0  0  0  0  0  0  0  0  0  0  0  0
   60.5531   28.2478   46.6733 H   0  0  0  0  0  0  0  0  0  0  0  0
   59.1894   26.7002   45.2969 H   0  0  0  0  0  0  0  0  0  0  0  0
   57.4398   27.5860   43.7753 H   0  0  0  0  0  0  0  0  0  0  0  0
   57.0696   30.0313   43.5811 H   0  0  0  0  0  0  0  0  0  0  0  0
   56.5655   32.9109   44.5516 H   0  0  0  0  0  0  0  0  0  0  0  0
   57.8522   33.2446   43.3433 H   0  0  0  0  0  0  0  0  0  0  0  0
   57.0097   31.6581   43.3433 H   0  0  0  0  0  0  0  0  0  0  0  0
   60.7571   35.6835   47.0481 H   0  0  0  0  0  0  0  0  0  0  0  0
   63.2489   32.2635   46.7952 H   0  0  0  0  0  0  0  0  0  0  0  0
   65.1810   32.2802   48.3747 H   0  0  0  0  0  0  0  0  0  0  0  0
   62.9056   34.7100   51.1384 H   0  0  0  0  0  0  0  0  0  0  0  0
   60.9922   34.7436   49.5370 H   0  0  0  0  0  0  0  0  0  0  0  0
  1  2  1  0
  2  3  1  0
  3  4  1  0
  4  5  1  0
  3  6  1  0
  6  7  1  0
  7  8  1  0
  8  9  1  0
  9 10  2  0
 10 11  1  0
 11 12  2  0
 12 13  1  0
 13 14  2  0
 14 15  1  0
 15 16  2  0
 16 17  1  0
 16 18  1  0
 18 19  1  0
 19 20  1  0
 20 21  2  0
 21 22  1  0
 22 23  2  0
 23 24  1  0
 24 25  2  0
 25 26  1  0
 25 27  1  0
 27 28  2  0
 21 29  1  0
 29  9  1  0
 15 10  1  0
 29 18  2  0
 28 22  1  0
  1 30  1  0
  1 31  1  0
  1 32  1  0
  2 33  1  0
  2 34  1  0
  4 35  1  0
  4 36  1  0
  5 37  1  0
  5 38  1  0
  5 39  1  0
  6 40  1  0
  6 41  1  0
  7 42  1  0
  7 43  1  0
  8 44  1  0
  8 45  1  0
 11 46  1  0
 12 47  1  0
 13 48  1  0
 14 49  1  0
 17 50  1  0
 17 51  1  0
 17 52  1  0
 20 53  1  0
 23 54  1  0
 24 55  1  0
 27 56  1  0
 28 57  1  0
M  CHG  2   8   1  16   1
M  END
>  <UniqueID>  (19) 
19

>  <SMILES>  (19) 
CCN(CC)CC[NH2+]c1c2ccccc2[n+](C)c2scc(-c3ccc(Cl)cc3)c12

>  <Energy>  (19) 
114.88313237439404

>  <Genealogy>  (19) 
CCN(CC)CC[NH2+]c1c2ccccc2[n+](C)c2scc(-c3ccc(Cl)cc3)c12 (protonated)
CCN(CC)CC[NH2+]c1c2ccccc2[n+](C)c2scc(-c3ccc(Cl)cc3)c12 (3D coordinates assigned)
CCN(CC)CC[NH2+]c1c2ccccc2[n+](C)c2scc(-c3ccc(Cl)cc3)c12 (optimized conformer: 114.88313237439404 kcal/mol)

>  <smiles>  (19) 
CCN(CC)CCNc1c2ccccc2[n+](C)c2scc(-c3ccc(Cl)cc3)c12

>  <score_type>  (19) 
oracle

>  <origin>  (19) 
adg

>  <m_score__min__energy>  (19) 
-4.6399999999999997

>  <m_primary>  (19) 
energy

$$$$
19:0
     RDKit          3D

 51 54  0  0  0  0  0  0  0  0999 V2000
   66.3440   32.5290   50.1130 C   0  0  0  0  0  0  0  0  0  0  0  0
   65.0300   31.9880   50.1820 O   0  0  0  0  0  0  0  0  0  0  0  0
   64.0160   32.2470   49.2470 C   0  0  0  0  0  0  0  0  0  0  0  0
   63.9750   33.4480   48.4910 C   0  0  0  0  0  0  0  0  0  0  0  0
   62.9640   33.6600   47.5400 C   0  0  0  0  0  0  0  0  0  0  0  0
   61.9930   32.6760   47.3810 C   0  0  0  0  0  0  0  0  0  0  0  0
   60.9930   32.6790   46.4790 N   0  0  0  0  0  0  0  0  0  0  0  0
   60.3470   31.5080   46.6630 C   0  0  0  0  0  0  0  0  0  0  0  0
   59.2520   31.0370   45.9490 C   0  0  0  0  0  0  0  0  0  0  0  0
   58.6400   31.8560   44.9400 N   0  0  0  0  0  0  0  0  0  0  0  0
   57.3140   32.4350   45.1490 C   0  0  0  0  0  0  0  0  0  0  0  0
   57.4190   33.8920   45.6190 C   0  0  0  0  0  0  0  0  0  0  0  0
   58.8250   34.2880   45.8520 N   0  0  0  0  0  0  0  0  0  0  0  0
   59.2650   35.2910   44.8670 C   0  0  0  0  0  0  0  0  0  0  0  0
   58.9780   34.8350   47.2100 C   0  0  0  0  0  0  0  0  0  0  0  0
   58.7970   29.7300   46.2400 C   0  0  0  0  0  0  0  0  0  0  0  0
   57.7980   29.1240   45.4540 C   0  0  0  0  0  0  0  0  0  0  0  0
   57.3780   27.8230   45.7190 C   0  0  0  0  0  0  0  0  0  0  0  0
   57.9610   27.0950   46.7510 C   0  0  0  0  0  0  0  0  0  0  0  0
   58.9630   27.6630   47.5370 C   0  0  0  0  0  0  0  0  0  0  0  0
   59.3930   28.9940   47.3210 C   0  0  0  0  0  0  0  0  0  0  0  0
   60.3830   29.5770   48.1020 N   0  0  0  0  0  0  0  0  0  0  0  0
   60.8180   28.9770   49.3740 C   0  0  0  0  0  0  0  0  0  0  0  0
   60.9060   30.7760   47.6870 C   0  0  0  0  0  0  0  0  0  0  0  0
   61.9950   31.5200   48.1400 C   0  0  0  0  0  0  0  0  0  0  0  0
   63.0210   31.2680   49.0600 C   0  0  0  0  0  0  0  0  0  0  0  0
   66.7292   32.6876   51.1311 H   0  0  0  0  0  0  0  0  0  0  0  0
   67.0013   31.8283   49.5773 H   0  0  0  0  0  0  0  0  0  0  0  0
   66.3175   33.4894   49.5773 H   0  0  0  0  0  0  0  0  0  0  0  0
   64.7424   34.2196   48.6518 H   0  0  0  0  0  0  0  0  0  0  0  0
   62.9402   34.5795   46.9367 H   0  0  0  0  0  0  0  0  0  0  0  0
   60.7930   33.4180   45.7690 H   0  0  0  0  0  0  0  0  0  0  0  0
   59.2650   32.3300   44.2500 H   0  0  0  0  0  0  0  0  0  0  0  0
   56.7535   32.4015   44.2031 H   0  0  0  0  0  0  0  0  0  0  0  0
   56.7952   31.8527   45.9247 H   0  0  0  0  0  0  0  0  0  0  0  0
   56.9862   34.5477   44.8491 H   0  0  0  0  0  0  0  0  0  0  0  0
   56.8722   33.9879   46.5687 H   0  0  0  0  0  0  0  0  0  0  0  0
   59.6531   36.1757   45.3929 H   0  0  0  0  0  0  0  0  0  0  0  0
   60.0577   34.8623   44.2363 H   0  0  0  0  0  0  0  0  0  0  0  0
   58.4127   35.5839   44.2363 H   0  0  0  0  0  0  0  0  0  0  0  0
   58.7584   34.0498   47.9484 H   0  0  0  0  0  0  0  0  0  0  0  0
   60.0099   35.1900   47.3482 H   0  0  0  0  0  0  0  0  0  0  0  0
   58.2800   35.6739   47.3482 H   0  0  0  0  0  0  0  0  0  0  0  0
   57.3450   29.6838   44.6225 H   0  0  0  0  0  0  0  0  0  0  0  0
   56.5822   27.3693   45.1100 H   0  0  0  0  0  0  0  0  0  0  0  0
   57.6295   26.0648   46.9483 H   0  0  0  0  0  0  0  0  0  0  0  0
   59.4264   27.0674   48.3373 H   0  0  0  0  0  0  0  0  0  0  0  0
   60.4004   29.5530   50.2129 H   0  0  0  0  0  0  0  0  0  0  0  0
   60.4622   27.9376   49.4298 H   0  0  0  0  0  0  0  0  0  0  0  0
   61.9165   28.9920   49.4298 H   0  0  0  0  0  0  0  0  0  0  0  0
   63.0489   30.3245   49.6249 H   0  0  0  0  0  0  0  0  0  0  0  0
  1  2  1  0
  2  3  1  0
  3  4  2  0
  4  5  1  0
  5  6  2  0
  6  7  1  0
  7  8  1  0
  8  9  2  0
  9 10  1  0
 10 11  1  0
 11 12  1  0
 12 13  1  0
 13 14  1  0
 13 15  1  0
  9 16  1  0
 16 17  2  0
 17 18  1  0
 18 19  2  0
 19 20  1  0
 20 21  2  0
 21 22  1  0
 22 23  1  0
 22 24  2  0
 24 25  1  0
 25 26  2  0
 26  3  1  0
 25  6  1  0
 24  8  1  0
 21 16  1  0
  1 27  1  0
  1 28  1  0
  1 29  1  0
  4 30  1  0
  5 31  1  0
  7 32  1  0
 10 33  1  0
 11 34  1  0
 11 35  1  0
 12 36  1  0
 12 37  1  0
 14 38  1  0
 14 39  1  0
 14 40  1  0
 15 41  1  0
 15 42  1  0
 15 43  1  0
 17 44  1  0
 18 45  1  0
 19 46  1  0
 20 47  1  0
 23 48  1  0
 23 49  1  0
 23 50  1  0
 26 51  1  0
M  CHG  1  22   1
M  END
>  <UniqueID>  (20) 
20

>  <SMILES>  (20) 
COc1ccc2[nH]c3c(NCCN(C)C)c4ccccc4[n+](C)c3c2c1

>  <Energy>  (20) 
112.00281530853223

>  <Genealogy>  (20) 
COc1ccc2[nH]c3c(NCCN(C)C)c4ccccc4[n+](C)c3c2c1 (3D coordinates assigned)
COc1ccc2[nH]c3c(NCCN(C)C)c4ccccc4[n+](C)c3c2c1 (optimized conformer: 112.00281530853223 kcal/mol)

>  <smiles>  (20) 
COc1ccc2[nH]c3c(NCCN(C)C)c4ccccc4[n+](C)c3c2c1

>  <score_type>  (20) 
oracle

>  <origin>  (20) 
adg

>  <m_score__min__energy>  (20) 
-4.9900000000000002

>  <m_primary>  (20) 
energy

$$$$
20:0
     RDKit          3D

 57 59  0  0  0  0  0  0  0  0999 V2000
   55.0190   20.0830   45.7880 C   0  0  0  0  0  0  0  0  0  0  0  0
   55.9220   19.4490   44.7430 C   0  0  0  0  0  0  0  0  0  0  0  0
   56.2380   20.4120   43.7410 O   0  0  0  0  0  0  0  0  0  0  0  0
   56.5550   21.7530   44.0020 C   0  0  0  0  0  0  0  0  0  0  0  0
   55.9780   22.7420   43.1970 C   0  0  0  0  0  0  0  0  0  0  0  0
   56.2590   24.0940   43.4190 C   0  0  0  0  0  0  0  0  0  0  0  0
   57.1160   24.4790   44.4660 C   0  0  0  0  0  0  0  0  0  0  0  0
   57.4390   25.8590   44.7020 N   0  0  0  0  0  0  0  0  0  0  0  0
   56.7070   26.7180   45.5920 C   0  0  0  0  0  0  0  0  0  0  0  0
   55.8410   26.2440   46.3750 O   0  0  0  0  0  0  0  0  0  0  0  0
   57.0260   28.1810   45.6430 C   0  0  0  0  0  0  0  0  0  0  0  0
   57.6350   28.6090   44.3650 N   0  0  0  0  0  0  0  0  0  0  0  0
   56.6730   29.3170   43.4970 C   0  0  0  0  0  0  0  0  0  0  0  0
   56.2820   30.7030   44.0580 C   0  0  0  0  0  0  0  0  0  0  0  0
   57.2760   31.2000   45.0290 N   0  0  0  0  0  0  0  0  0  0  0  0
   57.0570   32.6080   45.4290 C   0  0  0  0  0  0  0  0  0  0  0  0
   58.1260   33.1630   46.3480 C   0  0  0  0  0  0  0  0  0  0  0  0
   58.3030   32.6300   47.6350 C   0  0  0  0  0  0  0  0  0  0  0  0
   59.2900   33.1400   48.4830 C   0  0  0  0  0  0  0  0  0  0  0  0
   60.1260   34.1860   48.0510 C   0  0  0  0  0  0  0  0  0  0  0  0
   61.1300   34.7320   48.8650 O   0  0  0  0  0  0  0  0  0  0  0  0
   62.3940   34.1220   49.1020 C   0  0  0  0  0  0  0  0  0  0  0  0
   59.9580   34.7060   46.7630 C   0  0  0  0  0  0  0  0  0  0  0  0
   58.9710   34.1970   45.9140 C   0  0  0  0  0  0  0  0  0  0  0  0
   58.6520   30.9140   44.5950 C   0  0  0  0  0  0  0  0  0  0  0  0
   58.8830   29.3890   44.5560 C   0  0  0  0  0  0  0  0  0  0  0  0
   57.7120   23.4870   45.2580 C   0  0  0  0  0  0  0  0  0  0  0  0
   57.4290   22.1350   45.0370 C   0  0  0  0  0  0  0  0  0  0  0  0
   55.3848   19.8262   46.7931 H   0  0  0  0  0  0  0  0  0  0  0  0
   55.0254   21.1759   45.6637 H   0  0  0  0  0  0  0  0  0  0  0  0
   53.9932   19.7058   45.6637 H   0  0  0  0  0  0  0  0  0  0  0  0
   56.8489   19.1006   45.2221 H   0  0  0  0  0  0  0  0  0  0  0  0
   55.4048   18.5952   44.2809 H   0  0  0  0  0  0  0  0  0  0  0  0
   55.2974   22.4533   42.3824 H   0  0  0  0  0  0  0  0  0  0  0  0
   55.8076   24.8602   42.7716 H   0  0  0  0  0  0  0  0  0  0  0  0
   58.3120   26.2400   44.2710 H   0  0  0  0  0  0  0  0  0  0  0  0
   56.1005   28.7502   45.8145 H   0  0  0  0  0  0  0  0  0  0  0  0
   57.7354   28.3683   46.4625 H   0  0  0  0  0  0  0  0  0  0  0  0
   57.1268   29.4530   42.5042 H   0  0  0  0  0  0  0  0  0  0  0  0
   55.7590   28.7074   43.4425 H   0  0  0  0  0  0  0  0  0  0  0  0
   56.2099   31.4173   43.2246 H   0  0  0  0  0  0  0  0  0  0  0  0
   55.3171   30.6028   44.5765 H   0  0  0  0  0  0  0  0  0  0  0  0
   57.0291   33.2254   44.5190 H   0  0  0  0  0  0  0  0  0  0  0  0
   56.1110   32.6352   45.9897 H   0  0  0  0  0  0  0  0  0  0  0  0
   57.6606   31.8056   47.9780 H   0  0  0  0  0  0  0  0  0  0  0  0
   59.4138   32.7217   49.4928 H   0  0  0  0  0  0  0  0  0  0  0  0
   62.5641   34.0399   50.1857 H   0  0  0  0  0  0  0  0  0  0  0  0
   62.4070   33.1185   48.6517 H   0  0  0  0  0  0  0  0  0  0  0  0
   63.1877   34.7362   48.6517 H   0  0  0  0  0  0  0  0  0  0  0  0
   60.6082   35.5224   46.4155 H   0  0  0  0  0  0  0  0  0  0  0  0
   58.8557   34.6087   44.9005 H   0  0  0  0  0  0  0  0  0  0  0  0
   58.8125   31.3332   43.5907 H   0  0  0  0  0  0  0  0  0  0  0  0
   59.3581   31.3696   45.3048 H   0  0  0  0  0  0  0  0  0  0  0  0
   59.5673   29.1610   43.7255 H   0  0  0  0  0  0  0  0  0  0  0  0
   59.3016   29.0987   45.5309 H   0  0  0  0  0  0  0  0  0  0  0  0
   58.4080   23.7745   46.0599 H   0  0  0  0  0  0  0  0  0  0  0  0
   57.8914   21.3672   45.6747 H   0  0  0  0  0  0  0  0  0  0  0  0
  1  2  1  0
  2  3  1  0
  3  4  1  0
  4  5  2  0
  5  6  1  0
  6  7  2  0
  7  8  1  0
  8  9  1  0
  9 10  2  0
  9 11  1  0
 11 12  1  0
 12 13  1  0
 13 14  1  0
 14 15  1  0
 15 16  1  0
 16 17  1  0
 17 18  2  0
 18 19  1  0
 19 20  2  0
 20 21  1  0
 21 22  1  0
 20 23  1  0
 23 24  2  0
 15 25  1  0
 25 26  1  0
  7 27  1  0
 27 28  2  0
 28  4  1  0
 26 12  1  0
 24 17  1  0
  1 29  1  0
  1 30  1  0
  1 31  1  0
  2 32  1  0
  2 33  1  0
  5 34  1  0
  6 35  1  0
  8 36  1  0
 11 37  1  0
 11 38  1  0
 13 39  1  0
 13 40  1  0
 14 41  1  0
 14 42  1  0
 16 43  1  0
 16 44  1  0
 18 45  1  0
 19 46  1  0
 22 47  1  0
 22 48  1  0
 22 49  1  0
 23 50  1  0
 24 51  1  0
 25 52  1  0
 25 53  1  0
 26 54  1  0
 26 55  1  0
 27 56  1  0
 28 57  1  0
M  END
>  <UniqueID>  (21) 
21

>  <SMILES>  (21) 
CCOc1ccc(NC(=O)CN2CCN(Cc3ccc(OC)cc3)CC2)cc1

>  <Energy>  (21) 
70.00707950138089

>  <Genealogy>  (21) 
CCOc1ccc(NC(=O)CN2CCN(Cc3ccc(OC)cc3)CC2)cc1 (3D coordinates assigned)
CCOc1ccc(NC(=O)CN2CCN(Cc3ccc(OC)cc3)CC2)cc1 (nonaromatic ring conformer: 70.00707950138089 kcal/mol)

>  <smiles>  (21) 
CCOc1ccc(NC(=O)CN2CCN(Cc3ccc(OC)cc3)CC2)cc1

>  <score_type>  (21) 
oracle

>  <origin>  (21) 
adg

>  <m_score__min__energy>  (21) 
-7.9000000000000004

>  <m_primary>  (21) 
energy

$$$$
21:0
     RDKit          3D

110116  0  0  0  0  0  0  0  0999 V2000
   60.9130   29.9710   50.0960 C   0  0  0  0  0  0  0  0  0  0  0  0
   59.5310   29.3770   49.8750 C   0  0  0  0  0  0  0  0  0  0  0  0
   58.5620   30.4230   49.8770 O   0  0  0  0  0  0  0  0  0  0  0  0
   58.5250   31.4790   50.8030 C   0  0  0  0  0  0  0  0  0  0  0  0
   58.9640   32.7770   50.4740 C   0  0  0  0  0  0  0  0  0  0  0  0
   58.8930   33.8070   51.4150 C   0  0  0  0  0  0  0  0  0  0  0  0
   58.3790   33.5600   52.6890 C   0  0  0  0  0  0  0  0  0  0  0  0
   57.9440   32.2780   53.0300 C   0  0  0  0  0  0  0  0  0  0  0  0
   58.0220   31.2300   52.0960 C   0  0  0  0  0  0  0  0  0  0  0  0
   57.5270   29.8540   52.4710 C   0  0  0  0  0  0  0  0  0  0  0  0
   58.2470   29.3380   53.5740 O   0  0  0  0  0  0  0  0  0  0  0  0
   59.6460   29.5130   53.4230 C   0  0  0  0  0  0  0  0  0  0  0  0
   60.1830   30.3510   54.6040 C   0  0  0  0  0  0  0  0  0  0  0  0
   61.5900   30.8440   54.4620 N   0  0  1  0  0  0  0  0  0  0  0  0
   62.5770   29.9140   55.0770 C   0  0  0  0  0  0  0  0  0  0  0  0
   64.0060   30.5040   54.9940 C   0  0  0  0  0  0  0  0  0  0  0  0
   64.0010   31.8070   54.2710 N   0  0  1  0  0  0  0  0  0  0  0  0
   65.3780   32.4110   54.2300 C   0  0  0  0  0  0  0  0  0  0  0  0
   65.5010   33.9330   53.9380 C   0  0  0  0  0  0  0  0  0  0  0  0
   64.4610   34.5420   52.9860 C   0  0  0  0  0  0  0  0  0  0  0  0
   64.6990   34.1950   51.6210 O   0  0  0  0  0  0  0  0  0  0  0  0
   63.7220   33.9090   50.6570 C   0  0  0  0  0  0  0  0  0  0  0  0
   62.4900   34.5780   50.5930 C   0  0  0  0  0  0  0  0  0  0  0  0
   61.5590   34.2550   49.6030 C   0  0  0  0  0  0  0  0  0  0  0  0
   61.8470   33.2750   48.6250 C   0  0  0  0  0  0  0  0  0  0  0  0
   63.0430   32.5310   48.7710 C   0  0  0  0  0  0  0  0  0  0  0  0
   63.2660   31.4100   47.9740 C   0  0  0  0  0  0  0  0  0  0  0  0
   62.2710   30.9490   47.1230 C   0  0  0  0  0  0  0  0  0  0  0  0
   61.0640   31.6620   46.9580 C   0  0  0  0  0  0  0  0  0  0  0  0
   59.9960   31.1450   46.1790 C   0  0  0  0  0  0  0  0  0  0  0  0
   60.0170   29.7660   45.7160 N   0  0  0  0  0  0  0  0  0  0  0  0
   59.3890   28.8750   46.7060 C   0  0  0  0  0  0  0  0  0  0  0  0
   58.1970   28.1280   46.0990 C   0  0  0  0  0  0  0  0  0  0  0  0
   58.0130   28.5370   44.6860 N   0  0  0  0  0  0  0  0  0  0  0  0
   58.3970   27.4410   43.7780 C   0  0  0  0  0  0  0  0  0  0  0  0
   56.6200   28.9500   44.4090 C   0  0  0  0  0  0  0  0  0  0  0  0
   56.4890   29.4870   42.9860 C   0  0  0  0  0  0  0  0  0  0  0  0
   58.8810   31.9830   45.9090 C   0  0  0  0  0  0  0  0  0  0  0  0
   57.7970   31.5520   45.1040 C   0  0  0  0  0  0  0  0  0  0  0  0
   56.7090   32.3860   44.8610 C   0  0  0  0  0  0  0  0  0  0  0  0
   56.6750   33.6660   45.3960 C   0  0  0  0  0  0  0  0  0  0  0  0
   57.7400   34.1280   46.1620 C   0  0  0  0  0  0  0  0  0  0  0  0
   58.8690   33.3100   46.4190 C   0  0  0  0  0  0  0  0  0  0  0  0
   59.9470   33.7940   47.1300 N   0  0  0  0  0  0  0  0  0  0  0  0
   60.1580   35.2580   47.1730 C   0  0  0  0  0  0  0  0  0  0  0  0
   60.9280   32.9310   47.5800 C   0  0  0  0  0  0  0  0  0  0  0  0
   63.9850   32.8840   49.7480 C   0  0  0  0  0  0  0  0  0  0  0  0
   63.4060   31.6090   52.9190 C   0  0  0  0  0  0  0  0  0  0  0  0
   61.9530   31.0680   53.0340 C   0  0  0  0  0  0  0  0  0  0  0  0
   63.1150   32.7380   55.0280 C   0  0  0  0  0  0  0  0  0  0  0  0
   61.6910   32.1510   55.1680 C   0  0  0  0  0  0  0  0  0  0  0  0
   61.1078   30.0547   51.1754 H   0  0  0  0  0  0  0  0  0  0  0  0
   61.6702   29.3189   49.6363 H   0  0  0  0  0  0  0  0  0  0  0  0
   60.9609   30.9692   49.6363 H   0  0  0  0  0  0  0  0  0  0  0  0
   59.5060   28.8550   48.9071 H   0  0  0  0  0  0  0  0  0  0  0  0
   59.3039   28.6632   50.6805 H   0  0  0  0  0  0  0  0  0  0  0  0
   59.3650   32.9804   49.4701 H   0  0  0  0  0  0  0  0  0  0  0  0
   59.2432   34.8158   51.1512 H   0  0  0  0  0  0  0  0  0  0  0  0
   58.3167   34.3756   53.4245 H   0  0  0  0  0  0  0  0  0  0  0  0
   57.5382   32.0869   54.0344 H   0  0  0  0  0  0  0  0  0  0  0  0
   56.4608   29.9150   52.7345 H   0  0  0  0  0  0  0  0  0  0  0  0
   57.6746   29.1829   51.6120 H   0  0  0  0  0  0  0  0  0  0  0  0
   60.1409   28.5306   53.4138 H   0  0  0  0  0  0  0  0  0  0  0  0
   59.8535   30.0330   52.4762 H   0  0  0  0  0  0  0  0  0  0  0  0
   59.5281   31.2268   54.7227 H   0  0  0  0  0  0  0  0  0  0  0  0
   60.1871   29.6770   55.4733 H   0  0  0  0  0  0  0  0  0  0  0  0
   62.3130   29.7530   56.1326 H   0  0  0  0  0  0  0  0  0  0  0  0
   62.5546   28.9601   54.5296 H   0  0  0  0  0  0  0  0  0  0  0  0
   64.3918   30.6585   56.0125 H   0  0  0  0  0  0  0  0  0  0  0  0
   64.6465   29.7988   54.4440 H   0  0  0  0  0  0  0  0  0  0  0  0
   65.8446   32.2274   55.2091 H   0  0  0  0  0  0  0  0  0  0  0  0
   65.8639   31.9270   53.3700 H   0  0  0  0  0  0  0  0  0  0  0  0
   65.4236   34.4634   54.8986 H   0  0  0  0  0  0  0  0  0  0  0  0
   66.4659   34.0501   53.4230 H   0  0  0  0  0  0  0  0  0  0  0  0
   63.4636   34.1780   53.2737 H   0  0  0  0  0  0  0  0  0  0  0  0
   64.5320   35.6365   53.0697 H   0  0  0  0  0  0  0  0  0  0  0  0
   62.2558   35.3624   51.3278 H   0  0  0  0  0  0  0  0  0  0  0  0
   60.5875   34.7705   49.5838 H   0  0  0  0  0  0  0  0  0  0  0  0
   64.2336   30.8887   48.0193 H   0  0  0  0  0  0  0  0  0  0  0  0
   62.4257   30.0121   46.5678 H   0  0  0  0  0  0  0  0  0  0  0  0
   59.5400   29.6690   44.7930 H   0  0  0  0  0  0  0  0  0  0  0  0
   60.9930   29.4610   45.5120 H   0  0  0  0  0  0  0  0  0  0  0  0
   60.1329   28.1427   47.0529 H   0  0  0  0  0  0  0  0  0  0  0  0
   59.0269   29.4863   47.5458 H   0  0  0  0  0  0  0  0  0  0  0  0
   58.3838   27.0449   46.1440 H   0  0  0  0  0  0  0  0  0  0  0  0
   57.2880   28.3721   46.6684 H   0  0  0  0  0  0  0  0  0  0  0  0
   58.7037   26.5655   44.3692 H   0  0  0  0  0  0  0  0  0  0  0  0
   57.5393   27.1728   43.1436 H   0  0  0  0  0  0  0  0  0  0  0  0
   59.2345   27.7668   43.1436 H   0  0  0  0  0  0  0  0  0  0  0  0
   55.9552   28.0820   44.5300 H   0  0  0  0  0  0  0  0  0  0  0  0
   56.3404   29.7463   45.1145 H   0  0  0  0  0  0  0  0  0  0  0  0
   56.2284   30.5552   43.0197 H   0  0  0  0  0  0  0  0  0  0  0  0
   57.4446   29.3593   42.4565 H   0  0  0  0  0  0  0  0  0  0  0  0
   55.6995   28.9335   42.4565 H   0  0  0  0  0  0  0  0  0  0  0  0
   57.8156   30.5437   44.6647 H   0  0  0  0  0  0  0  0  0  0  0  0
   55.8727   32.0288   44.2422 H   0  0  0  0  0  0  0  0  0  0  0  0
   55.8058   34.3152   45.2143 H   0  0  0  0  0  0  0  0  0  0  0  0
   57.7057   35.1466   46.5759 H   0  0  0  0  0  0  0  0  0  0  0  0
   60.2060   35.5909   48.2203 H   0  0  0  0  0  0  0  0  0  0  0  0
   61.1014   35.5076   46.6653 H   0  0  0  0  0  0  0  0  0  0  0  0
   59.3235   35.7638   46.6653 H   0  0  0  0  0  0  0  0  0  0  0  0
   64.9431   32.3460   49.7982 H   0  0  0  0  0  0  0  0  0  0  0  0
   63.3923   32.5710   52.3857 H   0  0  0  0  0  0  0  0  0  0  0  0
   64.0143   30.8767   52.3678 H   0  0  0  0  0  0  0  0  0  0  0  0
   61.2587   31.7994   52.5946 H   0  0  0  0  0  0  0  0  0  0  0  0
   61.8866   30.1108   52.4961 H   0  0  0  0  0  0  0  0  0  0  0  0
   63.5373   32.9022   56.0304 H   0  0  0  0  0  0  0  0  0  0  0  0
   63.0514   33.6886   54.4781 H   0  0  0  0  0  0  0  0  0  0  0  0
   61.4639   32.0042   56.2342 H   0  0  0  0  0  0  0  0  0  0  0  0
   60.9729   32.8527   54.7186 H   0  0  0  0  0  0  0  0  0  0  0  0
  1  2  1  0
  2  3  1  0
  3  4  1  0
  4  5  2  0
  5  6  1  0
  6  7  2  0
  7  8  1  0
  8  9  2  0
  9 10  1  0
 10 11  1  0
 11 12  1  0
 12 13  1  0
 14 13  1  6
 14 15  1  0
 15 16  1  0
 16 17  1  0
 17 18  1  6
 18 19  1  0
 19 20  1  0
 20 21  1  0
 21 22  1  0
 22 23  2  0
 23 24  1  0
 24 25  2  0
 25 26  1  0
 26 27  1  0
 27 28  2  0
 28 29  1  0
 29 30  2  0
 30 31  1  0
 31 32  1  0
 32 33  1  0
 33 34  1  0
 34 35  1  0
 34 36  1  0
 36 37  1  0
 30 38  1  0
 38 39  2  0
 39 40  1  0
 40 41  2  0
 41 42  1  0
 42 43  2  0
 43 44  1  0
 44 45  1  0
 44 46  2  0
 26 47  2  0
 17 48  1  0
 48 49  1  0
 17 50  1  0
 50 51  1  0
  9  4  1  0
 49 14  1  0
 51 14  1  0
 47 22  1  0
 46 25  1  0
 46 29  1  0
 43 38  1  0
  1 52  1  0
  1 53  1  0
  1 54  1  0
  2 55  1  0
  2 56  1  0
  5 57  1  0
  6 58  1  0
  7 59  1  0
  8 60  1  0
 10 61  1  0
 10 62  1  0
 12 63  1  0
 12 64  1  0
 13 65  1  0
 13 66  1  0
 15 67  1  0
 15 68  1  0
 16 69  1  0
 16 70  1  0
 18 71  1  0
 18 72  1  0
 19 73  1  0
 19 74  1  0
 20 75  1  0
 20 76  1  0
 23 77  1  0
 24 78  1  0
 27 79  1  0
 28 80  1  0
 31 81  1  0
 31 82  1  0
 32 83  1  0
 32 84  1  0
 33 85  1  0
 33 86  1  0
 35 87  1  0
 35 88  1  0
 35 89  1  0
 36 90  1  0
 36 91  1  0
 37 92  1  0
 37 93  1  0
 37 94  1  0
 39 95  1  0
 40 96  1  0
 41 97  1  0
 42 98  1  0
 45 99  1  0
 45100  1  0
 45101  1  0
 47102  1  0
 48103  1  0
 48104  1  0
 49105  1  0
 49106  1  0
 50107  1  0
 50108  1  0
 51109  1  0
 51110  1  0
M  CHG  4  14   1  17   1  31   1  44   1
M  END
>  <UniqueID>  (22) 
22

>  <SMILES>  (22) 
CCOc1ccccc1COCC[N+]12CC[N+](CCCOc3ccc4c(ccc5c([NH2+]CCN(C)CC)c6ccccc6[n+](C)c54)c3)(CC1)CC2

>  <Energy>  (22) 
189.861768456165

>  <Genealogy>  (22) 
CCOc1ccccc1COCC[N+]12CC[N+](CCCOc3ccc4c(ccc5c([NH2+]CCN(C)CC)c6ccccc6[n+](C)c54)c3)(CC1)CC2 (protonated)
CCOc1ccccc1COCC[N+]12CC[N+](CCCOc3ccc4c(ccc5c([NH2+]CCN(C)CC)c6ccccc6[n+](C)c54)c3)(CC1)CC2 (3D coordinates assigned)
CCOc1ccccc1COCC[N+]12CC[N+](CCCOc3ccc4c(ccc5c([NH2+]CCN(C)CC)c6ccccc6[n+](C)c54)c3)(CC1)CC2 (nonaromatic ring conformer: 189.861768456165 kcal/mol)

>  <smiles>  (22) 
CCOc1ccccc1COCC[N+]12CC[N+](CCCOc3ccc4c(ccc5c(NCCN(C)CC)c6ccccc6[n+](C)c54)c3)(CC1)CC2

>  <score_type>  (22) 
oracle

>  <origin>  (22) 
adg

>  <m_score__min__energy>  (22) 
-4.5800000000000001

>  <m_primary>  (22) 
energy

$$$$
22:0
     RDKit          3D

 39 41  0  0  0  0  0  0  0  0999 V2000
   55.1300   29.7120   43.6950 C   0  0  0  0  0  0  0  0  0  0  0  0
   55.7060   29.1390   44.8650 O   0  0  0  0  0  0  0  0  0  0  0  0
   57.0650   28.8110   45.0120 C   0  0  0  0  0  0  0  0  0  0  0  0
   57.4820   27.4680   45.1220 C   0  0  0  0  0  0  0  0  0  0  0  0
   58.8340   27.1530   45.2580 C   0  0  0  0  0  0  0  0  0  0  0  0
   59.7880   28.1670   45.2860 C   0  0  0  0  0  0  0  0  0  0  0  0
   59.3950   29.5010   45.1810 C   0  0  0  0  0  0  0  0  0  0  0  0
   58.0350   29.8450   45.0460 C   0  0  0  0  0  0  0  0  0  0  0  0
   57.6550   31.2800   44.9380 C   0  0  0  0  0  0  0  0  0  0  0  0
   57.2590   31.7590   43.8410 O   0  0  0  0  0  0  0  0  0  0  0  0
   57.7010   32.1240   46.0970 N   0  0  0  0  0  0  0  0  0  0  0  0
   58.8880   32.4080   46.8470 C   0  0  0  0  0  0  0  0  0  0  0  0
   59.3190   31.4760   47.7970 C   0  0  0  0  0  0  0  0  0  0  0  0
   60.4700   31.7110   48.5520 C   0  0  0  0  0  0  0  0  0  0  0  0
   61.2250   32.8800   48.3560 C   0  0  0  0  0  0  0  0  0  0  0  0
   62.4490   33.1330   49.1590 C   0  0  0  0  0  0  0  0  0  0  0  0
   63.7140   32.7410   48.6890 C   0  0  0  0  0  0  0  0  0  0  0  0
   64.8540   32.9860   49.4540 C   0  0  0  0  0  0  0  0  0  0  0  0
   64.7260   33.6220   50.6890 C   0  0  0  0  0  0  0  0  0  0  0  0
   63.4990   33.9990   51.1390 N   0  0  0  0  0  0  0  0  0  0  0  0
   62.3720   33.7710   50.4090 C   0  0  0  0  0  0  0  0  0  0  0  0
   60.8100   33.8010   47.3770 C   0  0  0  0  0  0  0  0  0  0  0  0
   59.6570   33.5690   46.6180 C   0  0  0  0  0  0  0  0  0  0  0  0
   59.2670   34.6990   45.3260 Cl  0  0  0  0  0  0  0  0  0  0  0  0
   54.3778   30.4603   43.9854 H   0  0  0  0  0  0  0  0  0  0  0  0
   55.9171   30.1959   43.0981 H   0  0  0  0  0  0  0  0  0  0  0  0
   54.6503   28.9224   43.0981 H   0  0  0  0  0  0  0  0  0  0  0  0
   56.7341   26.6617   45.1003 H   0  0  0  0  0  0  0  0  0  0  0  0
   59.1471   26.1020   45.3433 H   0  0  0  0  0  0  0  0  0  0  0  0
   60.8536   27.9153   45.3911 H   0  0  0  0  0  0  0  0  0  0  0  0
   60.1562   30.2948   45.2038 H   0  0  0  0  0  0  0  0  0  0  0  0
   58.7461   30.5496   47.9507 H   0  0  0  0  0  0  0  0  0  0  0  0
   60.7881   30.9757   49.3057 H   0  0  0  0  0  0  0  0  0  0  0  0
   63.8053   32.2392   47.7144 H   0  0  0  0  0  0  0  0  0  0  0  0
   65.8450   32.6806   49.0870 H   0  0  0  0  0  0  0  0  0  0  0  0
   65.6191   33.8190   51.3001 H   0  0  0  0  0  0  0  0  0  0  0  0
   63.4190   34.4710   52.0670 H   0  0  0  0  0  0  0  0  0  0  0  0
   61.3943   34.0885   50.8006 H   0  0  0  0  0  0  0  0  0  0  0  0
   61.3986   34.7144   47.2059 H   0  0  0  0  0  0  0  0  0  0  0  0
  1  2  1  0
  2  3  1  0
  3  4  2  0
  4  5  1  0
  5  6  2  0
  6  7  1  0
  7  8  2  0
  8  9  1  0
  9 10  2  0
  9 11  1  0
 11 12  1  0
 12 13  2  0
 13 14  1  0
 14 15  2  0
 15 16  1  0
 16 17  2  0
 17 18  1  0
 18 19  2  0
 19 20  1  0
 20 21  2  0
 15 22  1  0
 22 23  2  0
 23 24  1  0
  8  3  1  0
 23 12  1  0
 21 16  1  0
  1 25  1  0
  1 26  1  0
  1 27  1  0
  4 28  1  0
  5 29  1  0
  6 30  1  0
  7 31  1  0
 13 32  1  0
 14 33  1  0
 17 34  1  0
 18 35  1  0
 19 36  1  0
 20 37  1  0
 21 38  1  0
 22 39  1  0
M  CHG  2  11  -1  20   1
M  END
>  <UniqueID>  (23) 
23

>  <SMILES>  (23) 
COc1ccccc1C(=O)[N-]c1ccc(-c2ccc[nH+]c2)cc1Cl

>  <Energy>  (23) 
56.145999603679186

>  <Genealogy>  (23) 
COc1ccccc1C(=O)[N-]c1ccc(-c2ccc[nH+]c2)cc1Cl (protonated)
COc1ccccc1C(=O)[N-]c1ccc(-c2ccc[nH+]c2)cc1Cl (3D coordinates assigned)
COc1ccccc1C(=O)[N-]c1ccc(-c2ccc[nH+]c2)cc1Cl (optimized conformer: 56.145999603679186 kcal/mol)

>  <smiles>  (23) 
COc1ccccc1C(=O)Nc1ccc(-c2cccnc2)cc1Cl

>  <score_type>  (23) 
oracle

>  <origin>  (23) 
adg

>  <m_score__min__energy>  (23) 
-8.6199999999999992

>  <m_primary>  (23) 
energy

$$$$
23:0
     RDKit          3D

 43 44  0  0  0  0  0  0  0  0999 V2000
   63.3450   33.7810   46.4490 C   0  0  0  0  0  0  0  0  0  0  0  0
   63.4020   33.7900   47.9750 C   0  0  0  0  0  0  0  0  0  0  0  0
   62.0080   33.8290   48.6230 C   0  0  0  0  0  0  0  0  0  0  0  0
   61.2450   32.5350   48.4140 C   0  0  0  0  0  0  0  0  0  0  0  0
   61.5950   31.4340   49.2120 C   0  0  0  0  0  0  0  0  0  0  0  0
   60.9070   30.2290   49.0710 C   0  0  0  0  0  0  0  0  0  0  0  0
   61.2250   29.2370   49.7800 O   0  0  0  0  0  0  0  0  0  0  0  0
   59.9150   30.1200   48.1970 O   0  0  0  0  0  0  0  0  0  0  0  0
   59.5270   31.1260   47.4210 C   0  0  0  0  0  0  0  0  0  0  0  0
   58.4600   30.9300   46.5380 C   0  0  0  0  0  0  0  0  0  0  0  0
   58.0080   31.9670   45.7170 C   0  0  0  0  0  0  0  0  0  0  0  0
   56.9150   31.7220   44.8740 O   0  0  0  0  0  0  0  0  0  0  0  0
   56.8590   30.6700   43.9150 C   0  0  0  0  0  0  0  0  0  0  0  0
   56.3660   29.4150   44.5720 C   0  0  0  0  0  0  0  0  0  0  0  0
   55.1440   29.3390   44.8820 O   0  0  0  0  0  0  0  0  0  0  0  0
   57.2480   28.2980   44.8350 N   0  0  0  0  0  0  0  0  0  0  0  0
   57.0250   27.4230   45.9950 C   0  0  0  0  0  0  0  0  0  0  0  0
   58.3910   28.0400   43.9490 C   0  0  0  0  0  0  0  0  0  0  0  0
   59.6900   28.4980   44.6040 C   0  0  0  0  0  0  0  0  0  0  0  0
   58.6560   33.2130   45.7710 C   0  0  0  0  0  0  0  0  0  0  0  0
   59.7270   33.4220   46.6460 C   0  0  0  0  0  0  0  0  0  0  0  0
   60.1770   32.3850   47.4890 C   0  0  0  0  0  0  0  0  0  0  0  0
   62.3077   33.6172   46.1218 H   0  0  0  0  0  0  0  0  0  0  0  0
   63.7030   34.7468   46.0630 H   0  0  0  0  0  0  0  0  0  0  0  0
   63.9833   32.9725   46.0630 H   0  0  0  0  0  0  0  0  0  0  0  0
   63.9213   32.8810   48.3127 H   0  0  0  0  0  0  0  0  0  0  0  0
   63.9353   34.7021   48.2812 H   0  0  0  0  0  0  0  0  0  0  0  0
   62.1237   34.0020   49.7031 H   0  0  0  0  0  0  0  0  0  0  0  0
   61.4363   34.6398   48.1478 H   0  0  0  0  0  0  0  0  0  0  0  0
   62.4094   31.5216   49.9462 H   0  0  0  0  0  0  0  0  0  0  0  0
   57.9700   29.9464   46.4891 H   0  0  0  0  0  0  0  0  0  0  0  0
   56.1729   30.9516   43.1026 H   0  0  0  0  0  0  0  0  0  0  0  0
   57.8647   30.4963   43.5046 H   0  0  0  0  0  0  0  0  0  0  0  0
   57.1715   27.9978   46.9214 H   0  0  0  0  0  0  0  0  0  0  0  0
   55.9980   27.0300   45.9658 H   0  0  0  0  0  0  0  0  0  0  0  0
   57.7386   26.5864   45.9658 H   0  0  0  0  0  0  0  0  0  0  0  0
   58.4513   26.9615   43.7410 H   0  0  0  0  0  0  0  0  0  0  0  0
   58.2484   28.5999   43.0129 H   0  0  0  0  0  0  0  0  0  0  0  0
   59.5822   28.4600   45.6981 H   0  0  0  0  0  0  0  0  0  0  0  0
   60.5110   27.8351   44.2932 H   0  0  0  0  0  0  0  0  0  0  0  0
   59.9137   29.5292   44.2932 H   0  0  0  0  0  0  0  0  0  0  0  0
   58.3176   34.0317   45.1189 H   0  0  0  0  0  0  0  0  0  0  0  0
   60.2225   34.4036   46.6768 H   0  0  0  0  0  0  0  0  0  0  0  0
  1  2  1  0
  2  3  1  0
  3  4  1  0
  4  5  2  0
  5  6  1  0
  6  7  2  0
  6  8  1  0
  8  9  1  0
  9 10  2  0
 10 11  1  0
 11 12  1  0
 12 13  1  0
 13 14  1  0
 14 15  2  0
 14 16  1  0
 16 17  1  0
 16 18  1  0
 18 19  1  0
 11 20  2  0
 20 21  1  0
 21 22  2  0
 22  4  1  0
 22  9  1  0
  1 23  1  0
  1 24  1  0
  1 25  1  0
  2 26  1  0
  2 27  1  0
  3 28  1  0
  3 29  1  0
  5 30  1  0
 10 31  1  0
 13 32  1  0
 13 33  1  0
 17 34  1  0
 17 35  1  0
 17 36  1  0
 18 37  1  0
 18 38  1  0
 19 39  1  0
 19 40  1  0
 19 41  1  0
 20 42  1  0
 21 43  1  0
M  END
>  <UniqueID>  (24) 
24

>  <SMILES>  (24) 
CCCc1cc(=O)oc2cc(OCC(=O)N(C)CC)ccc12

>  <Energy>  (24) 
39.29441565656666

>  <Genealogy>  (24) 
CCCc1cc(=O)oc2cc(OCC(=O)N(C)CC)ccc12 (3D coordinates assigned)
CCCc1cc(=O)oc2cc(OCC(=O)N(C)CC)ccc12 (optimized conformer: 39.29441565656666 kcal/mol)

>  <smiles>  (24) 
CCCc1cc(=O)oc2cc(OCC(=O)N(C)CC)ccc12

>  <score_type>  (24) 
oracle

>  <origin>  (24) 
adg

>  <m_score__min__energy>  (24) 
-7.0099999999999998

>  <m_primary>  (24) 
energy

$$$$
24:0
     RDKit          3D

 61 64  0  0  0  0  0  0  0  0999 V2000
   57.0180   24.0670   48.0510 C   0  0  0  0  0  0  0  0  0  0  0  0
   56.7010   25.1870   47.0630 C   0  0  0  0  0  0  0  0  0  0  0  0
   56.6930   24.6800   45.6350 C   0  0  0  0  0  0  0  0  0  0  0  0
   56.1090   23.4270   45.3740 C   0  0  0  0  0  0  0  0  0  0  0  0
   56.1160   22.8920   44.0850 C   0  0  0  0  0  0  0  0  0  0  0  0
   56.7120   23.5940   43.0390 C   0  0  0  0  0  0  0  0  0  0  0  0
   57.2980   24.8380   43.2760 C   0  0  0  0  0  0  0  0  0  0  0  0
   57.2890   25.3990   44.5650 C   0  0  0  0  0  0  0  0  0  0  0  0
   57.9170   26.7230   44.7590 C   0  0  0  0  0  0  0  0  0  0  0  0
   59.0140   26.8610   45.6110 C   0  0  0  0  0  0  0  0  0  0  0  0
   59.5900   28.1130   45.7770 C   0  0  0  0  0  0  0  0  0  0  0  0
   59.0670   29.2050   45.0870 C   0  0  0  0  0  0  0  0  0  0  0  0
   59.5980   30.3390   45.2380 O   0  0  0  0  0  0  0  0  0  0  0  0
   57.9920   29.0320   44.2520 N   0  0  0  0  0  0  0  0  0  0  0  0
   57.4310   30.1590   43.4880 C   0  0  0  0  0  0  0  0  0  0  0  0
   56.8190   31.2160   44.4190 C   0  0  0  0  0  0  0  0  0  0  0  0
   57.4030   32.6170   44.1740 C   0  0  0  0  0  0  0  0  0  0  0  0
   57.5860   33.3520   45.4470 N   0  0  0  0  0  0  0  0  0  0  0  0
   57.9180   32.4340   46.5730 C   0  0  0  0  0  0  0  0  0  0  0  0
   58.8550   33.0590   47.6150 C   0  0  0  0  0  0  0  0  0  0  0  0
   60.0800   33.5360   46.9590 N   0  0  0  0  0  0  0  0  0  0  0  0
   61.3490   33.5170   47.6510 C   0  0  0  0  0  0  0  0  0  0  0  0
   62.5130   33.0610   47.0010 C   0  0  0  0  0  0  0  0  0  0  0  0
   63.7400   33.0420   47.6710 C   0  0  0  0  0  0  0  0  0  0  0  0
   63.8220   33.4780   48.9960 C   0  0  0  0  0  0  0  0  0  0  0  0
   65.0130   33.4590   49.6440 F   0  0  0  0  0  0  0  0  0  0  0  0
   62.6770   33.9360   49.6520 C   0  0  0  0  0  0  0  0  0  0  0  0
   61.4480   33.9590   48.9860 C   0  0  0  0  0  0  0  0  0  0  0  0
   59.9800   34.0940   45.6020 C   0  0  0  0  0  0  0  0  0  0  0  0
   58.5310   34.4870   45.2880 C   0  0  0  0  0  0  0  0  0  0  0  0
   57.4470   27.8170   44.0940 N   0  0  0  0  0  0  0  0  0  0  0  0
   56.9114   24.4438   49.0789 H   0  0  0  0  0  0  0  0  0  0  0  0
   56.3213   23.2305   47.8929 H   0  0  0  0  0  0  0  0  0  0  0  0
   58.0497   23.7197   47.8929 H   0  0  0  0  0  0  0  0  0  0  0  0
   55.7110   25.6037   47.3002 H   0  0  0  0  0  0  0  0  0  0  0  0
   57.4809   25.9576   47.1520 H   0  0  0  0  0  0  0  0  0  0  0  0
   55.6418   22.8629   46.1947 H   0  0  0  0  0  0  0  0  0  0  0  0
   55.6500   21.9140   43.8942 H   0  0  0  0  0  0  0  0  0  0  0  0
   56.7205   23.1669   42.0253 H   0  0  0  0  0  0  0  0  0  0  0  0
   57.7712   25.3845   42.4469 H   0  0  0  0  0  0  0  0  0  0  0  0
   59.4174   25.9878   46.1447 H   0  0  0  0  0  0  0  0  0  0  0  0
   60.4522   28.2421   46.4477 H   0  0  0  0  0  0  0  0  0  0  0  0
   58.2326   30.6245   42.8957 H   0  0  0  0  0  0  0  0  0  0  0  0
   56.6366   29.7724   42.8327 H   0  0  0  0  0  0  0  0  0  0  0  0
   55.7328   31.2508   44.2491 H   0  0  0  0  0  0  0  0  0  0  0  0
   57.0544   30.9294   45.4546 H   0  0  0  0  0  0  0  0  0  0  0  0
   58.3778   32.5169   43.6743 H   0  0  0  0  0  0  0  0  0  0  0  0
   56.7000   33.1818   43.5440 H   0  0  0  0  0  0  0  0  0  0  0  0
   56.9825   32.1452   47.0745 H   0  0  0  0  0  0  0  0  0  0  0  0
   58.4437   31.5693   46.1418 H   0  0  0  0  0  0  0  0  0  0  0  0
   58.3478   33.9053   48.1014 H   0  0  0  0  0  0  0  0  0  0  0  0
   59.1174   32.3018   48.3686 H   0  0  0  0  0  0  0  0  0  0  0  0
   62.4559   32.7171   45.9577 H   0  0  0  0  0  0  0  0  0  0  0  0
   64.6423   32.6832   47.1542 H   0  0  0  0  0  0  0  0  0  0  0  0
   62.7425   34.2794   50.6950 H   0  0  0  0  0  0  0  0  0  0  0  0
   60.5513   34.3248   49.5077 H   0  0  0  0  0  0  0  0  0  0  0  0
   60.6207   34.9852   45.5290 H   0  0  0  0  0  0  0  0  0  0  0  0
   60.3065   33.3319   44.8791 H   0  0  0  0  0  0  0  0  0  0  0  0
   58.2291   35.2954   45.9701 H   0  0  0  0  0  0  0  0  0  0  0  0
   58.4925   34.8089   44.2369 H   0  0  0  0  0  0  0  0  0  0  0  0
   56.6490   27.6920   43.4320 H   0  0  0  0  0  0  0  0  0  0  0  0
  1  2  1  0
  2  3  1  0
  3  4  2  0
  4  5  1  0
  5  6  2  0
  6  7  1  0
  7  8  2  0
  8  9  1  0
  9 10  1  0
 10 11  2  0
 11 12  1  0
 12 13  2  0
 12 14  1  0
 14 15  1  0
 15 16  1  0
 16 17  1  0
 17 18  1  0
 18 19  1  0
 19 20  1  0
 20 21  1  0
 21 22  1  0
 22 23  2  0
 23 24  1  0
 24 25  2  0
 25 26  1  0
 25 27  1  0
 27 28  2  0
 21 29  1  0
 29 30  1  0
 14 31  1  0
  8  3  1  0
 31  9  2  0
 30 18  1  0
 28 22  1  0
  1 32  1  0
  1 33  1  0
  1 34  1  0
  2 35  1  0
  2 36  1  0
  4 37  1  0
  5 38  1  0
  6 39  1  0
  7 40  1  0
 10 41  1  0
 11 42  1  0
 15 43  1  0
 15 44  1  0
 16 45  1  0
 16 46  1  0
 17 47  1  0
 17 48  1  0
 19 49  1  0
 19 50  1  0
 20 51  1  0
 20 52  1  0
 23 53  1  0
 24 54  1  0
 27 55  1  0
 28 56  1  0
 29 57  1  0
 29 58  1  0
 30 59  1  0
 30 60  1  0
 31 61  1  0
M  CHG  1  31   1
M  END
>  <UniqueID>  (25) 
25

>  <SMILES>  (25) 
CCc1ccccc1-c1ccc(=O)n(CCCN2CCN(c3ccc(F)cc3)CC2)[nH+]1

>  <Energy>  (25) 
78.96661127508817

>  <Genealogy>  (25) 
CCc1ccccc1-c1ccc(=O)n(CCCN2CCN(c3ccc(F)cc3)CC2)[nH+]1 (protonated)
CCc1ccccc1-c1ccc(=O)n(CCCN2CCN(c3ccc(F)cc3)CC2)[nH+]1 (3D coordinates assigned)
CCc1ccccc1-c1ccc(=O)n(CCCN2CCN(c3ccc(F)cc3)CC2)[nH+]1 (nonaromatic ring conformer: 78.96661127508817 kcal/mol)

>  <smiles>  (25) 
CCc1ccccc1-c1ccc(=O)n(CCCN2CCN(c3ccc(F)cc3)CC2)n1

>  <score_type>  (25) 
oracle

>  <origin>  (25) 
adg

>  <m_score__min__energy>  (25) 
-7.7400000000000002

>  <m_primary>  (25) 
energy

$$$$
25:0
     RDKit          3D

 45 46  0  0  0  0  0  0  0  0999 V2000
   59.4530   33.9590   46.6460 C   0  0  0  0  0  0  0  0  0  0  0  0
   60.3620   32.8480   47.1650 C   0  0  0  0  0  0  0  0  0  0  0  0
   59.7910   31.5300   46.8500 N   0  0  0  0  0  0  0  0  0  0  0  0
   58.5640   31.2800   47.6170 C   0  0  0  0  0  0  0  0  0  0  0  0
   58.8640   31.3750   49.1170 C   0  0  0  0  0  0  0  0  0  0  0  0
   59.6470   30.1640   49.6400 C   0  0  0  0  0  0  0  0  0  0  0  0
   59.9500   29.2260   48.5490 N   0  0  0  0  0  0  0  0  0  0  0  0
   60.7650   28.0960   49.0190 C   0  0  0  0  0  0  0  0  0  0  0  0
   60.1020   26.7540   48.6910 C   0  0  0  0  0  0  0  0  0  0  0  0
   59.8550   26.6320   47.2540 N   0  0  0  0  0  0  0  0  0  0  0  0
   58.7700   27.2900   46.5760 C   0  0  0  0  0  0  0  0  0  0  0  0
   57.4740   26.7430   46.6230 C   0  0  0  0  0  0  0  0  0  0  0  0
   56.4210   27.3370   45.9260 C   0  0  0  0  0  0  0  0  0  0  0  0
   55.1520   26.7700   45.9860 O   0  0  0  0  0  0  0  0  0  0  0  0
   56.6420   28.4890   45.1680 C   0  0  0  0  0  0  0  0  0  0  0  0
   55.6140   29.0660   44.4860 N   0  0  0  0  0  0  0  0  0  0  0  0
   55.7880   30.1890   43.7410 C   0  0  0  0  0  0  0  0  0  0  0  0
   57.0450   30.7880   43.6580 C   0  0  0  0  0  0  0  0  0  0  0  0
   58.1220   30.2230   44.3450 C   0  0  0  0  0  0  0  0  0  0  0  0
   57.9350   29.0590   45.1110 C   0  0  0  0  0  0  0  0  0  0  0  0
   58.9990   28.4650   45.8220 C   0  0  0  0  0  0  0  0  0  0  0  0
   60.2620   29.0680   45.7850 O   0  0  0  0  0  0  0  0  0  0  0  0
   59.0114   34.4988   47.4966 H   0  0  0  0  0  0  0  0  0  0  0  0
   60.0414   34.6582   46.0337 H   0  0  0  0  0  0  0  0  0  0  0  0
   58.6512   33.5207   46.0337 H   0  0  0  0  0  0  0  0  0  0  0  0
   61.3506   32.9374   46.6911 H   0  0  0  0  0  0  0  0  0  0  0  0
   60.4562   32.9446   48.2567 H   0  0  0  0  0  0  0  0  0  0  0  0
   60.4920   30.8030   47.1300 H   0  0  0  0  0  0  0  0  0  0  0  0
   57.8053   32.0296   47.3477 H   0  0  0  0  0  0  0  0  0  0  0  0
   58.1875   30.2731   47.3839 H   0  0  0  0  0  0  0  0  0  0  0  0
   59.4562   32.2836   49.3010 H   0  0  0  0  0  0  0  0  0  0  0  0
   57.9011   31.4037   49.6481 H   0  0  0  0  0  0  0  0  0  0  0  0
   60.5893   30.5107   50.0893 H   0  0  0  0  0  0  0  0  0  0  0  0
   59.0326   29.6448   50.3903 H   0  0  0  0  0  0  0  0  0  0  0  0
   60.5200   29.7410   47.8390 H   0  0  0  0  0  0  0  0  0  0  0  0
   61.7498   28.1375   48.5307 H   0  0  0  0  0  0  0  0  0  0  0  0
   60.8674   28.1737   50.1115 H   0  0  0  0  0  0  0  0  0  0  0  0
   60.7639   25.9368   49.0135 H   0  0  0  0  0  0  0  0  0  0  0  0
   59.1388   26.6990   49.2195 H   0  0  0  0  0  0  0  0  0  0  0  0
   60.5020   26.0200   46.7070 H   0  0  0  0  0  0  0  0  0  0  0  0
   57.2888   25.8357   47.2167 H   0  0  0  0  0  0  0  0  0  0  0  0
   54.9351   30.6270   43.2018 H   0  0  0  0  0  0  0  0  0  0  0  0
   57.1870   31.6979   43.0564 H   0  0  0  0  0  0  0  0  0  0  0  0
   59.1167   30.6889   44.2867 H   0  0  0  0  0  0  0  0  0  0  0  0
   60.6630   29.5670   46.5670 H   0  0  0  0  0  0  0  0  0  0  0  0
  1  2  1  0
  2  3  1  0
  3  4  1  0
  4  5  1  0
  5  6  1  0
  6  7  1  0
  7  8  1  0
  8  9  1  0
  9 10  1  0
 10 11  1  0
 11 12  2  0
 12 13  1  0
 13 14  1  0
 13 15  2  0
 15 16  1  0
 16 17  2  0
 17 18  1  0
 18 19  2  0
 19 20  1  0
 20 21  2  0
 21 22  1  0
 21 11  1  0
 20 15  1  0
  1 23  1  0
  1 24  1  0
  1 25  1  0
  2 26  1  0
  2 27  1  0
  3 28  1  0
  4 29  1  0
  4 30  1  0
  5 31  1  0
  5 32  1  0
  6 33  1  0
  6 34  1  0
  7 35  1  0
  8 36  1  0
  8 37  1  0
  9 38  1  0
  9 39  1  0
 10 40  1  0
 12 41  1  0
 17 42  1  0
 18 43  1  0
 19 44  1  0
 22 45  1  0
M  CHG  1  14  -1
M  END
>  <UniqueID>  (26) 
26

>  <SMILES>  (26) 
CCNCCCNCCNc1cc([O-])c2ncccc2c1O

>  <Energy>  (26) 
44.06584103271588

>  <Genealogy>  (26) 
CCNCCCNCCNc1cc([O-])c2ncccc2c1O (protonated)
CCNCCCNCCNc1cc([O-])c2ncccc2c1O (3D coordinates assigned)
CCNCCCNCCNc1cc([O-])c2ncccc2c1O (optimized conformer: 44.06584103271588 kcal/mol)

>  <smiles>  (26) 
CCNCCCNCCNc1cc(O)c2ncccc2c1O

>  <score_type>  (26) 
oracle

>  <origin>  (26) 
adg

>  <m_score__min__energy>  (26) 
-7.9699999999999998

>  <m_primary>  (26) 
energy

$$$$
26:0
     RDKit          3D

 48 50  0  0  0  0  0  0  0  0999 V2000
   63.9510   34.1840   51.2020 C   0  0  0  0  0  0  0  0  0  0  0  0
   64.0920   33.4770   49.8440 C   0  0  0  0  0  0  0  0  0  0  0  0
   62.8200   33.3240   49.0890 N   0  0  0  0  0  0  0  0  0  0  0  0
   63.0250   32.6940   47.7630 C   0  0  0  0  0  0  0  0  0  0  0  0
   63.3410   33.7590   46.7170 C   0  0  0  0  0  0  0  0  0  0  0  0
   61.7260   32.6740   49.8480 C   0  0  0  0  0  0  0  0  0  0  0  0
   60.5150   33.6060   50.0730 C   0  0  0  0  0  0  0  0  0  0  0  0
   60.3400   34.5990   48.9960 N   0  0  0  0  0  0  0  0  0  0  0  0
   59.7930   34.0030   47.8020 C   0  0  0  0  0  0  0  0  0  0  0  0
   59.6290   34.7760   46.6270 C   0  0  0  0  0  0  0  0  0  0  0  0
   59.0720   34.2140   45.4670 C   0  0  0  0  0  0  0  0  0  0  0  0
   58.6800   32.8720   45.4860 C   0  0  0  0  0  0  0  0  0  0  0  0
   58.1070   32.1430   44.4300 C   0  0  0  0  0  0  0  0  0  0  0  0
   57.7890   30.8360   44.8000 C   0  0  0  0  0  0  0  0  0  0  0  0
   58.2670   30.5560   46.3960 S   0  0  0  0  0  0  0  0  0  0  0  0
   58.8400   32.1180   46.6410 C   0  0  0  0  0  0  0  0  0  0  0  0
   59.3930   32.6500   47.8010 C   0  0  0  0  0  0  0  0  0  0  0  0
   57.2220   29.8110   43.8650 C   0  0  0  0  0  0  0  0  0  0  0  0
   56.5710   30.4870   42.6480 C   0  0  0  0  0  0  0  0  0  0  0  0
   57.4870   31.5730   42.0570 C   0  0  0  0  0  0  0  0  0  0  0  0
   57.7570   32.6960   43.0740 C   0  0  0  0  0  0  0  0  0  0  0  0
   64.0965   33.4543   52.0121 H   0  0  0  0  0  0  0  0  0  0  0  0
   64.7086   34.9774   51.2827 H   0  0  0  0  0  0  0  0  0  0  0  0
   62.9470   34.6261   51.2827 H   0  0  0  0  0  0  0  0  0  0  0  0
   64.7901   34.0597   49.2250 H   0  0  0  0  0  0  0  0  0  0  0  0
   64.4506   32.4595   50.0588 H   0  0  0  0  0  0  0  0  0  0  0  0
   63.8632   31.9842   47.8236 H   0  0  0  0  0  0  0  0  0  0  0  0
   62.1057   32.1654   47.4707 H   0  0  0  0  0  0  0  0  0  0  0  0
   63.6192   34.6965   47.2207 H   0  0  0  0  0  0  0  0  0  0  0  0
   64.1769   33.4187   46.0881 H   0  0  0  0  0  0  0  0  0  0  0  0
   62.4548   33.9296   46.0881 H   0  0  0  0  0  0  0  0  0  0  0  0
   61.3886   31.7887   49.2890 H   0  0  0  0  0  0  0  0  0  0  0  0
   62.1246   32.4056   50.8375 H   0  0  0  0  0  0  0  0  0  0  0  0
   59.6056   32.9900   50.1322 H   0  0  0  0  0  0  0  0  0  0  0  0
   60.6979   34.1617   51.0045 H   0  0  0  0  0  0  0  0  0  0  0  0
   59.6800   35.3390   49.3330 H   0  0  0  0  0  0  0  0  0  0  0  0
   61.2500   35.0750   48.7910 H   0  0  0  0  0  0  0  0  0  0  0  0
   59.9420   35.8305   46.6229 H   0  0  0  0  0  0  0  0  0  0  0  0
   58.9460   34.8200   44.5576 H   0  0  0  0  0  0  0  0  0  0  0  0
   59.5161   32.0281   48.7000 H   0  0  0  0  0  0  0  0  0  0  0  0
   58.0307   29.1495   43.5209 H   0  0  0  0  0  0  0  0  0  0  0  0
   56.4554   29.2306   44.3993 H   0  0  0  0  0  0  0  0  0  0  0  0
   56.3737   29.7264   41.8782 H   0  0  0  0  0  0  0  0  0  0  0  0
   55.6339   30.9620   42.9739 H   0  0  0  0  0  0  0  0  0  0  0  0
   58.4442   31.1149   41.7675 H   0  0  0  0  0  0  0  0  0  0  0  0
   56.9835   32.0119   41.1830 H   0  0  0  0  0  0  0  0  0  0  0  0
   58.5940   33.3114   42.7125 H   0  0  0  0  0  0  0  0  0  0  0  0
   56.8415   33.2977   43.1735 H   0  0  0  0  0  0  0  0  0  0  0  0
  1  2  1  0
  2  3  1  0
  3  4  1  0
  4  5  1  0
  3  6  1  0
  6  7  1  0
  7  8  1  0
  8  9  1  0
  9 10  2  0
 10 11  1  0
 11 12  2  0
 12 13  1  0
 13 14  2  0
 14 15  1  0
 15 16  1  0
 16 17  2  0
 14 18  1  0
 18 19  1  0
 19 20  1  0
 20 21  1  0
 17  9  1  0
 16 12  1  0
 21 13  1  0
  1 22  1  0
  1 23  1  0
  1 24  1  0
  2 25  1  0
  2 26  1  0
  4 27  1  0
  4 28  1  0
  5 29  1  0
  5 30  1  0
  5 31  1  0
  6 32  1  0
  6 33  1  0
  7 34  1  0
  7 35  1  0
  8 36  1  0
  8 37  1  0
 10 38  1  0
 11 39  1  0
 17 40  1  0
 18 41  1  0
 18 42  1  0
 19 43  1  0
 19 44  1  0
 20 45  1  0
 20 46  1  0
 21 47  1  0
 21 48  1  0
M  CHG  1   8   1
M  END
>  <UniqueID>  (27) 
27

>  <SMILES>  (27) 
CCN(CC)CC[NH2+]c1ccc2c3c(sc2c1)CCCC3

>  <Energy>  (27) 
80.04135198018903

>  <Genealogy>  (27) 
CCN(CC)CC[NH2+]c1ccc2c3c(sc2c1)CCCC3 (protonated)
CCN(CC)CC[NH2+]c1ccc2c3c(sc2c1)CCCC3 (3D coordinates assigned)
CCN(CC)CC[NH2+]c1ccc2c3c(sc2c1)CCCC3 (nonaromatic ring conformer: 80.04135198018903 kcal/mol)

>  <smiles>  (27) 
CCN(CC)CCNc1ccc2c3c(sc2c1)CCCC3

>  <score_type>  (27) 
oracle

>  <origin>  (27) 
adg

>  <m_score__min__energy>  (27) 
-6

>  <m_primary>  (27) 
energy

$$$$
27:0
     RDKit          3D

 51 53  0  0  0  0  0  0  0  0999 V2000
   57.4430   31.2630   43.7300 C   0  0  0  0  0  0  0  0  0  0  0  0
   58.1370   32.6160   43.5840 C   0  0  0  0  0  0  0  0  0  0  0  0
   58.4900   33.1730   44.9110 N   0  0  0  0  0  0  0  0  0  0  0  0
   58.5800   34.6510   44.8650 C   0  0  0  0  0  0  0  0  0  0  0  0
   59.6360   35.1520   45.8470 C   0  0  0  0  0  0  0  0  0  0  0  0
   57.5420   32.7150   45.9600 C   0  0  0  0  0  0  0  0  0  0  0  0
   58.2660   32.5320   47.2960 C   0  0  0  0  0  0  0  0  0  0  0  0
   59.3700   31.5700   47.1810 N   0  0  0  0  0  0  0  0  0  0  0  0
   60.7090   31.7830   47.3480 C   0  0  0  0  0  0  0  0  0  0  0  0
   61.3160   33.1100   47.7730 C   0  0  0  0  0  0  0  0  0  0  0  0
   61.8840   33.0040   49.1990 C   0  0  0  0  0  0  0  0  0  0  0  0
   63.2350   32.2630   49.2290 C   0  0  0  0  0  0  0  0  0  0  0  0
   64.1650   32.6420   48.1420 N   0  0  0  0  0  0  0  0  0  0  0  0
   63.7570   33.8380   47.3940 C   0  0  0  0  0  0  0  0  0  0  0  0
   62.3660   33.6600   46.7670 C   0  0  0  0  0  0  0  0  0  0  0  0
   61.4290   30.6390   47.1980 N   0  0  0  0  0  0  0  0  0  0  0  0
   60.5160   29.7030   46.8960 C   0  0  0  0  0  0  0  0  0  0  0  0
   60.7270   28.3520   46.6350 C   0  0  0  0  0  0  0  0  0  0  0  0
   59.6020   27.5550   46.3450 C   0  0  0  0  0  0  0  0  0  0  0  0
   59.8410   25.8470   46.0070 Cl  0  0  0  0  0  0  0  0  0  0  0  0
   58.3030   28.1310   46.3300 C   0  0  0  0  0  0  0  0  0  0  0  0
   56.8840   27.1580   45.9730 Cl  0  0  0  0  0  0  0  0  0  0  0  0
   58.1320   29.5030   46.6060 C   0  0  0  0  0  0  0  0  0  0  0  0
   59.2720   30.2590   46.8840 C   0  0  0  0  0  0  0  0  0  0  0  0
   57.3217   31.0264   44.7974 H   0  0  0  0  0  0  0  0  0  0  0  0
   56.4547   31.3041   43.2489 H   0  0  0  0  0  0  0  0  0  0  0  0
   58.0529   30.4842   43.2489 H   0  0  0  0  0  0  0  0  0  0  0  0
   59.0546   32.4884   42.9909 H   0  0  0  0  0  0  0  0  0  0  0  0
   57.4495   33.3121   43.0813 H   0  0  0  0  0  0  0  0  0  0  0  0
   58.8536   34.9657   43.8471 H   0  0  0  0  0  0  0  0  0  0  0  0
   57.6044   35.0762   45.1434 H   0  0  0  0  0  0  0  0  0  0  0  0
   59.2869   34.9864   46.8769 H   0  0  0  0  0  0  0  0  0  0  0  0
   60.5760   34.6039   45.6858 H   0  0  0  0  0  0  0  0  0  0  0  0
   59.8060   36.2268   45.6858 H   0  0  0  0  0  0  0  0  0  0  0  0
   56.7456   33.4642   46.0798 H   0  0  0  0  0  0  0  0  0  0  0  0
   57.1126   31.7497   45.6536 H   0  0  0  0  0  0  0  0  0  0  0  0
   58.6696   33.5026   47.6200 H   0  0  0  0  0  0  0  0  0  0  0  0
   57.5444   32.1441   48.0300 H   0  0  0  0  0  0  0  0  0  0  0  0
   60.5031   33.8511   47.7729 H   0  0  0  0  0  0  0  0  0  0  0  0
   62.0262   34.0180   49.6009 H   0  0  0  0  0  0  0  0  0  0  0  0
   61.1689   32.4313   49.8078 H   0  0  0  0  0  0  0  0  0  0  0  0
   63.7240   32.4781   50.1906 H   0  0  0  0  0  0  0  0  0  0  0  0
   63.0101   31.1951   49.0913 H   0  0  0  0  0  0  0  0  0  0  0  0
   64.2540   31.8450   47.4680 H   0  0  0  0  0  0  0  0  0  0  0  0
   63.7331   34.6979   48.0795 H   0  0  0  0  0  0  0  0  0  0  0  0
   64.4828   34.0041   46.5843 H   0  0  0  0  0  0  0  0  0  0  0  0
   62.0200   34.6364   46.3970 H   0  0  0  0  0  0  0  0  0  0  0  0
   62.4614   32.9252   45.9540 H   0  0  0  0  0  0  0  0  0  0  0  0
   62.4560   30.4960   47.3050 H   0  0  0  0  0  0  0  0  0  0  0  0
   61.7388   27.9209   46.6545 H   0  0  0  0  0  0  0  0  0  0  0  0
   57.1327   29.9627   46.6024 H   0  0  0  0  0  0  0  0  0  0  0  0
  1  2  1  0
  2  3  1  0
  3  4  1  0
  4  5  1  0
  3  6  1  0
  6  7  1  0
  7  8  1  0
  8  9  1  0
  9 10  1  0
 10 11  1  0
 11 12  1  0
 12 13  1  0
 13 14  1  0
 14 15  1  0
  9 16  2  0
 16 17  1  0
 17 18  2  0
 18 19  1  0
 19 20  1  0
 19 21  2  0
 21 22  1  0
 21 23  1  0
 23 24  2  0
 24  8  1  0
 15 10  1  0
 24 17  1  0
  1 25  1  0
  1 26  1  0
  1 27  1  0
  2 28  1  0
  2 29  1  0
  4 30  1  0
  4 31  1  0
  5 32  1  0
  5 33  1  0
  5 34  1  0
  6 35  1  0
  6 36  1  0
  7 37  1  0
  7 38  1  0
 10 39  1  0
 11 40  1  0
 11 41  1  0
 12 42  1  0
 12 43  1  0
 13 44  1  0
 14 45  1  0
 14 46  1  0
 15 47  1  0
 15 48  1  0
 16 49  1  0
 18 50  1  0
 23 51  1  0
M  CHG  1  16   1
M  END
>  <UniqueID>  (28) 
28

>  <SMILES>  (28) 
CCN(CC)CCn1c(C2CCNCC2)[nH+]c2cc(Cl)c(Cl)cc21

>  <Energy>  (28) 
92.79995639076056

>  <Genealogy>  (28) 
CCN(CC)CCn1c(C2CCNCC2)[nH+]c2cc(Cl)c(Cl)cc21 (protonated)
CCN(CC)CCn1c(C2CCNCC2)[nH+]c2cc(Cl)c(Cl)cc21 (3D coordinates assigned)
CCN(CC)CCn1c(C2CCNCC2)[nH+]c2cc(Cl)c(Cl)cc21 (nonaromatic ring conformer: 92.79995639076056 kcal/mol)

>  <smiles>  (28) 
CCN(CC)CCn1c(C2CCNCC2)nc2cc(Cl)c(Cl)cc21

>  <score_type>  (28) 
oracle

>  <origin>  (28) 
adg

>  <m_score__min__energy>  (28) 
-5.9800000000000004

>  <m_primary>  (28) 
energy

$$$$
28:0
     RDKit          3D

 30 29  0  0  0  0  0  0  0  0999 V2000
   58.3350   34.1010   46.4430 C   0  0  0  0  0  0  0  0  0  0  0  0
   57.7380   32.6890   46.5500 C   0  0  0  0  0  0  0  0  0  0  0  0
   57.6710   31.9520   45.2630 N   0  0  0  0  0  0  0  0  0  0  0  0
   57.7720   32.8520   44.0900 C   0  0  0  0  0  0  0  0  0  0  0  0
   57.7830   32.0260   42.8090 C   0  0  0  0  0  0  0  0  0  0  0  0
   58.5850   30.7900   45.1620 C   0  0  0  0  0  0  0  0  0  0  0  0
   58.0640   29.5870   45.9670 C   0  0  0  0  0  0  0  0  0  0  0  0
   56.9190   28.8340   45.2590 C   0  0  0  0  0  0  0  0  0  0  0  0
   55.7760   29.6850   44.8880 N   0  0  0  0  0  0  0  0  0  0  0  0
   55.5390   29.7160   43.4430 C   0  0  0  0  0  0  0  0  0  0  0  0
   58.5056   34.5044   47.4520 H   0  0  0  0  0  0  0  0  0  0  0  0
   59.2906   34.0549   45.9002 H   0  0  0  0  0  0  0  0  0  0  0  0
   57.6361   34.7544   45.9002 H   0  0  0  0  0  0  0  0  0  0  0  0
   58.3564   32.1061   47.2484 H   0  0  0  0  0  0  0  0  0  0  0  0
   56.7009   32.8121   46.8954 H   0  0  0  0  0  0  0  0  0  0  0  0
   56.9097   33.5348   44.0775 H   0  0  0  0  0  0  0  0  0  0  0  0
   58.7029   33.4343   44.1563 H   0  0  0  0  0  0  0  0  0  0  0  0
   57.7973   30.9558   43.0629 H   0  0  0  0  0  0  0  0  0  0  0  0
   56.8818   32.2511   42.2198 H   0  0  0  0  0  0  0  0  0  0  0  0
   58.6779   32.2750   42.2198 H   0  0  0  0  0  0  0  0  0  0  0  0
   58.6770   30.4992   44.1051 H   0  0  0  0  0  0  0  0  0  0  0  0
   59.5611   31.0835   45.5756 H   0  0  0  0  0  0  0  0  0  0  0  0
   58.8967   28.8864   46.1277 H   0  0  0  0  0  0  0  0  0  0  0  0
   57.6635   29.9758   46.9148 H   0  0  0  0  0  0  0  0  0  0  0  0
   57.3211   28.3775   44.3425 H   0  0  0  0  0  0  0  0  0  0  0  0
   56.5399   28.0897   45.9747 H   0  0  0  0  0  0  0  0  0  0  0  0
   55.9190   30.6600   45.2370 H   0  0  0  0  0  0  0  0  0  0  0  0
   54.4651   29.8565   43.2505 H   0  0  0  0  0  0  0  0  0  0  0  0
   56.1034   30.5480   42.9966 H   0  0  0  0  0  0  0  0  0  0  0  0
   55.8705   28.7668   42.9966 H   0  0  0  0  0  0  0  0  0  0  0  0
  1  2  1  0
  2  3  1  0
  3  4  1  0
  4  5  1  0
  3  6  1  0
  6  7  1  0
  7  8  1  0
  8  9  1  0
  9 10  1  0
  1 11  1  0
  1 12  1  0
  1 13  1  0
  2 14  1  0
  2 15  1  0
  4 16  1  0
  4 17  1  0
  5 18  1  0
  5 19  1  0
  5 20  1  0
  6 21  1  0
  6 22  1  0
  7 23  1  0
  7 24  1  0
  8 25  1  0
  8 26  1  0
  9 27  1  0
 10 28  1  0
 10 29  1  0
 10 30  1  0
M  END
>  <UniqueID>  (29) 
29

>  <SMILES>  (29) 
CCN(CC)CCCNC

>  <Energy>  (29) 
25.391531442187688

>  <Genealogy>  (29) 
CCN(CC)CCCNC (3D coordinates assigned)
CCN(CC)CCCNC (optimized conformer: 25.391531442187688 kcal/mol)

>  <smiles>  (29) 
CCN(CC)CCCNC

>  <score_type>  (29) 
oracle

>  <origin>  (29) 
adg

>  <m_score__min__energy>  (29) 
-3.7400000000000002

>  <m_primary>  (29) 
energy

$$$$
29:0
     RDKit          3D

 30 32  0  0  0  0  0  0  0  0999 V2000
   57.9140   28.3250   45.9330 C   0  0  0  0  0  0  0  0  0  0  0  0
   57.5250   29.6190   45.3050 C   0  0  0  0  0  0  0  0  0  0  0  0
   56.2570   29.9580   44.9980 N   0  0  0  0  0  0  0  0  0  0  0  0
   56.3150   31.1790   44.4880 N   0  0  0  0  0  0  0  0  0  0  0  0
   57.6140   31.5350   44.5100 C   0  0  0  0  0  0  0  0  0  0  0  0
   58.1340   32.8500   44.0210 C   0  0  0  0  0  0  0  0  0  0  0  0
   57.8560   33.9090   45.0130 N   0  0  0  0  0  0  0  0  0  0  0  0
   58.9140   34.9550   45.0780 C   0  0  0  0  0  0  0  0  0  0  0  0
   59.8040   34.8300   46.3320 C   0  0  2  0  0  0  0  0  0  0  0  0
   60.5900   33.5190   46.3540 C   0  0  0  0  0  0  0  0  0  0  0  0
   59.6880   32.6010   47.1500 C   0  0  0  0  0  0  0  0  0  0  0  0
   58.4780   33.4870   47.4350 C   0  0  2  0  0  0  0  0  0  0  0  0
   57.3990   33.3850   46.3330 C   0  0  0  0  0  0  0  0  0  0  0  0
   58.9620   34.8020   47.4520 O   0  0  0  0  0  0  0  0  0  0  0  0
   58.3620   30.5850   45.0150 O   0  0  0  0  0  0  0  0  0  0  0  0
   57.8839   28.4252   47.0280 H   0  0  0  0  0  0  0  0  0  0  0  0
   57.2125   27.5387   45.6173 H   0  0  0  0  0  0  0  0  0  0  0  0
   58.9328   28.0558   45.6173 H   0  0  0  0  0  0  0  0  0  0  0  0
   59.2201   32.7755   43.8637 H   0  0  0  0  0  0  0  0  0  0  0  0
   57.6342   33.1043   43.0747 H   0  0  0  0  0  0  0  0  0  0  0  0
   58.4308   35.9432   45.0874 H   0  0  0  0  0  0  0  0  0  0  0  0
   59.5618   34.8251   44.1985 H   0  0  0  0  0  0  0  0  0  0  0  0
   60.5080   35.6752   46.3312 H   0  0  0  0  0  0  0  0  0  0  0  0
   61.5624   33.6483   46.8517 H   0  0  0  0  0  0  0  0  0  0  0  0
   60.8255   33.1354   45.3503 H   0  0  0  0  0  0  0  0  0  0  0  0
   60.1731   32.2793   48.0834 H   0  0  0  0  0  0  0  0  0  0  0  0
   59.4339   31.6709   46.6206 H   0  0  0  0  0  0  0  0  0  0  0  0
   58.0094   33.1760   48.3804 H   0  0  0  0  0  0  0  0  0  0  0  0
   56.5180   33.9612   46.6519 H   0  0  0  0  0  0  0  0  0  0  0  0
   57.1683   32.3178   46.1991 H   0  0  0  0  0  0  0  0  0  0  0  0
  1  2  1  0
  2  3  2  0
  3  4  1  0
  4  5  2  0
  5  6  1  0
  6  7  1  0
  7  8  1  0
  8  9  1  0
  9 10  1  0
 10 11  1  0
 11 12  1  0
 12 13  1  0
 12 14  1  0
  5 15  1  0
 15  2  1  0
 13  7  1  0
 14  9  1  0
  1 16  1  0
  1 17  1  0
  1 18  1  0
  6 19  1  0
  6 20  1  0
  8 21  1  0
  8 22  1  0
  9 23  1  1
 10 24  1  0
 10 25  1  0
 11 26  1  0
 11 27  1  0
 12 28  1  1
 13 29  1  0
 13 30  1  0
M  END
>  <UniqueID>  (30) 
30

>  <SMILES>  (30) 
Cc1nnc(CN2C[C@H]3CC[C@@H](C2)O3)o1

>  <Energy>  (30) 
77.61870171445035

>  <Genealogy>  (30) 
Cc1nnc(CN2C[C@H]3CC[C@@H](C2)O3)o1 (chirality)
Cc1nnc(CN2C[C@H]3CC[C@@H](C2)O3)o1 (3D coordinates assigned)
Cc1nnc(CN2C[C@H]3CC[C@@H](C2)O3)o1 (nonaromatic ring conformer: 77.61870171445035 kcal/mol)

>  <smiles>  (30) 
Cc1nnc(CN2CC3CCC(C2)O3)o1

>  <score_type>  (30) 
oracle

>  <origin>  (30) 
adg

>  <m_score__min__energy>  (30) 
-6.3300000000000001

>  <m_primary>  (30) 
energy

$$$$
30:0
     RDKit          3D

 52 54  0  0  0  0  0  0  0  0999 V2000
   61.0430   28.5950   44.8520 C   0  0  0  0  0  0  0  0  0  0  0  0
   60.3670   29.6640   45.7040 C   0  0  0  0  0  0  0  0  0  0  0  0
   59.3310   30.3170   44.9680 O   0  0  0  0  0  0  0  0  0  0  0  0
   58.8540   31.6180   45.2020 C   0  0  0  0  0  0  0  0  0  0  0  0
   59.2690   32.3890   46.3080 C   0  0  0  0  0  0  0  0  0  0  0  0
   58.7790   33.6880   46.4950 C   0  0  0  0  0  0  0  0  0  0  0  0
   59.3100   34.5570   47.6040 C   0  0  0  0  0  0  0  0  0  0  0  0
   60.0620   33.7420   48.5590 N   0  0  0  0  0  0  0  0  0  0  0  0
   61.4830   33.5260   48.4570 C   0  0  0  0  0  0  0  0  0  0  0  0
   62.1140   33.5030   47.1990 C   0  0  0  0  0  0  0  0  0  0  0  0
   63.4930   33.2960   47.1000 C   0  0  0  0  0  0  0  0  0  0  0  0
   64.2590   33.1140   48.2550 C   0  0  0  0  0  0  0  0  0  0  0  0
   63.6460   33.1350   49.5100 C   0  0  0  0  0  0  0  0  0  0  0  0
   62.2640   33.3370   49.6190 C   0  0  0  0  0  0  0  0  0  0  0  0
   61.5520   33.4120   51.2270 Cl  0  0  0  0  0  0  0  0  0  0  0  0
   57.8530   34.2140   45.5870 C   0  0  0  0  0  0  0  0  0  0  0  0
   57.4290   33.4550   44.4960 C   0  0  0  0  0  0  0  0  0  0  0  0
   57.9400   32.1600   44.2860 C   0  0  0  0  0  0  0  0  0  0  0  0
   57.5760   31.3870   43.1710 O   0  0  0  0  0  0  0  0  0  0  0  0
   56.3800   30.6120   43.0640 C   0  0  0  0  0  0  0  0  0  0  0  0
   56.4590   29.4130   43.9640 C   0  0  0  0  0  0  0  0  0  0  0  0
   55.4870   29.1610   44.7270 O   0  0  0  0  0  0  0  0  0  0  0  0
   57.6490   28.6060   44.0010 N   0  0  0  0  0  0  0  0  0  0  0  0
   57.8230   27.4740   44.8720 C   0  0  0  0  0  0  0  0  0  0  0  0
   57.9750   26.1720   44.3600 C   0  0  0  0  0  0  0  0  0  0  0  0
   58.1620   25.0900   45.2290 C   0  0  0  0  0  0  0  0  0  0  0  0
   58.2120   25.2990   46.6130 C   0  0  0  0  0  0  0  0  0  0  0  0
   58.0830   26.5920   47.1280 C   0  0  0  0  0  0  0  0  0  0  0  0
   57.8960   27.6760   46.2620 C   0  0  0  0  0  0  0  0  0  0  0  0
   61.5152   27.8483   45.5073 H   0  0  0  0  0  0  0  0  0  0  0  0
   60.2916   28.1028   44.2171 H   0  0  0  0  0  0  0  0  0  0  0  0
   61.8098   29.0629   44.2171 H   0  0  0  0  0  0  0  0  0  0  0  0
   59.9325   29.1920   46.5975 H   0  0  0  0  0  0  0  0  0  0  0  0
   61.1193   30.4121   45.9947 H   0  0  0  0  0  0  0  0  0  0  0  0
   59.9835   31.9666   47.0298 H   0  0  0  0  0  0  0  0  0  0  0  0
   59.9724   35.3258   47.1796 H   0  0  0  0  0  0  0  0  0  0  0  0
   58.4673   35.0374   48.1227 H   0  0  0  0  0  0  0  0  0  0  0  0
   59.5620   33.4370   49.4240 H   0  0  0  0  0  0  0  0  0  0  0  0
   61.5173   33.6491   46.2865 H   0  0  0  0  0  0  0  0  0  0  0  0
   63.9759   33.2763   46.1119 H   0  0  0  0  0  0  0  0  0  0  0  0
   65.3444   32.9542   48.1756 H   0  0  0  0  0  0  0  0  0  0  0  0
   64.2514   32.9922   50.4172 H   0  0  0  0  0  0  0  0  0  0  0  0
   57.4579   35.2300   45.7342 H   0  0  0  0  0  0  0  0  0  0  0  0
   56.6904   33.8711   43.7950 H   0  0  0  0  0  0  0  0  0  0  0  0
   55.5186   31.2303   43.3567 H   0  0  0  0  0  0  0  0  0  0  0  0
   56.2624   30.2739   42.0239 H   0  0  0  0  0  0  0  0  0  0  0  0
   58.4850   28.9370   43.4680 H   0  0  0  0  0  0  0  0  0  0  0  0
   57.9468   26.0037   43.2733 H   0  0  0  0  0  0  0  0  0  0  0  0
   58.2699   24.0732   44.8236 H   0  0  0  0  0  0  0  0  0  0  0  0
   58.3526   24.4466   47.2939 H   0  0  0  0  0  0  0  0  0  0  0  0
   58.1284   26.7580   48.2145 H   0  0  0  0  0  0  0  0  0  0  0  0
   57.8055   28.6929   46.6716 H   0  0  0  0  0  0  0  0  0  0  0  0
  1  2  1  0
  2  3  1  0
  3  4  1  0
  4  5  2  0
  5  6  1  0
  6  7  1  0
  7  8  1  0
  8  9  1  0
  9 10  2  0
 10 11  1  0
 11 12  2  0
 12 13  1  0
 13 14  2  0
 14 15  1  0
  6 16  2  0
 16 17  1  0
 17 18  2  0
 18 19  1  0
 19 20  1  0
 20 21  1  0
 21 22  2  0
 21 23  1  0
 23 24  1  0
 24 25  2  0
 25 26  1  0
 26 27  2  0
 27 28  1  0
 28 29  2  0
 18  4  1  0
 29 24  1  0
 14  9  1  0
  1 30  1  0
  1 31  1  0
  1 32  1  0
  2 33  1  0
  2 34  1  0
  5 35  1  0
  7 36  1  0
  7 37  1  0
  8 38  1  0
 10 39  1  0
 11 40  1  0
 12 41  1  0
 13 42  1  0
 16 43  1  0
 17 44  1  0
 20 45  1  0
 20 46  1  0
 23 47  1  0
 25 48  1  0
 26 49  1  0
 27 50  1  0
 28 51  1  0
 29 52  1  0
M  END
>  <UniqueID>  (31) 
31

>  <SMILES>  (31) 
CCOc1cc(CNc2ccccc2Cl)ccc1OCC(=O)Nc1ccccc1

>  <Energy>  (31) 
54.39936185016609

>  <Genealogy>  (31) 
CCOc1cc(CNc2ccccc2Cl)ccc1OCC(=O)Nc1ccccc1 (3D coordinates assigned)
CCOc1cc(CNc2ccccc2Cl)ccc1OCC(=O)Nc1ccccc1 (optimized conformer: 54.39936185016609 kcal/mol)

>  <smiles>  (31) 
CCOc1cc(CNc2ccccc2Cl)ccc1OCC(=O)Nc1ccccc1

>  <score_type>  (31) 
oracle

>  <origin>  (31) 
adg

>  <m_score__min__energy>  (31) 
-7.96

>  <m_primary>  (31) 
energy

$$$$
31:0
     RDKit          3D

 36 36  0  0  0  0  0  0  0  0999 V2000
   63.9650   30.3490   51.4800 C   0  0  0  0  0  0  0  0  0  0  0  0
   63.5780   31.2080   50.2700 C   0  0  0  0  0  0  0  0  0  0  0  0
   64.7230   32.0150   49.7520 N   0  0  0  0  0  0  0  0  0  0  0  0
   65.9950   31.7350   50.4700 C   0  0  0  0  0  0  0  0  0  0  0  0
   66.9510   32.9310   50.4760 C   0  0  0  0  0  0  0  0  0  0  0  0
   64.4180   33.4750   49.7190 C   0  0  0  0  0  0  0  0  0  0  0  0
   63.0360   33.8740   49.1510 C   0  0  0  0  0  0  0  0  0  0  0  0
   62.8500   33.4990   47.4150 S   0  0  0  0  0  0  0  0  0  0  0  0
   63.6860   32.1080   46.9830 O   0  0  0  0  0  0  0  0  0  0  0  0
   61.1670   33.4140   46.9090 C   0  0  0  0  0  0  0  0  0  0  0  0
   60.5740   34.5500   46.3430 C   0  0  0  0  0  0  0  0  0  0  0  0
   59.2370   34.5230   45.9380 C   0  0  0  0  0  0  0  0  0  0  0  0
   58.4850   33.3560   46.0890 C   0  0  0  0  0  0  0  0  0  0  0  0
   59.0690   32.2140   46.6430 C   0  0  0  0  0  0  0  0  0  0  0  0
   60.4090   32.2320   47.0520 C   0  0  0  0  0  0  0  0  0  0  0  0
   61.1010   30.7570   47.7160 Cl  0  0  0  0  0  0  0  0  0  0  0  0
   63.7214   30.8897   52.4065 H   0  0  0  0  0  0  0  0  0  0  0  0
   63.4067   29.4017   51.4507 H   0  0  0  0  0  0  0  0  0  0  0  0
   65.0445   30.1395   51.4507 H   0  0  0  0  0  0  0  0  0  0  0  0
   63.2211   30.5461   49.4672 H   0  0  0  0  0  0  0  0  0  0  0  0
   62.7947   31.9089   50.5944 H   0  0  0  0  0  0  0  0  0  0  0  0
   64.8800   31.7610   48.7460 H   0  0  0  0  0  0  0  0  0  0  0  0
   65.7593   31.4687   51.5109 H   0  0  0  0  0  0  0  0  0  0  0  0
   66.4986   30.9123   49.9412 H   0  0  0  0  0  0  0  0  0  0  0  0
   67.1774   33.2142   51.5145 H   0  0  0  0  0  0  0  0  0  0  0  0
   67.8828   32.6582   49.9589 H   0  0  0  0  0  0  0  0  0  0  0  0
   66.4796   33.7798   49.9589 H   0  0  0  0  0  0  0  0  0  0  0  0
   64.4784   33.8533   50.7501 H   0  0  0  0  0  0  0  0  0  0  0  0
   65.1555   33.9130   49.0304 H   0  0  0  0  0  0  0  0  0  0  0  0
   62.2591   33.3322   49.7103 H   0  0  0  0  0  0  0  0  0  0  0  0
   62.9416   34.9645   49.2604 H   0  0  0  0  0  0  0  0  0  0  0  0
   64.5260   32.4400   46.5780 H   0  0  0  0  0  0  0  0  0  0  0  0
   61.1648   35.4692   46.2166 H   0  0  0  0  0  0  0  0  0  0  0  0
   58.7767   35.4210   45.5002 H   0  0  0  0  0  0  0  0  0  0  0  0
   57.4320   33.3358   45.7715 H   0  0  0  0  0  0  0  0  0  0  0  0
   58.4738   31.2962   46.7587 H   0  0  0  0  0  0  0  0  0  0  0  0
  1  2  1  0
  2  3  1  0
  3  4  1  0
  4  5  1  0
  3  6  1  0
  6  7  1  0
  7  8  1  0
  8  9  1  1
  8 10  1  0
 10 11  2  0
 11 12  1  0
 12 13  2  0
 13 14  1  0
 14 15  2  0
 15 16  1  0
 15 10  1  0
  1 17  1  0
  1 18  1  0
  1 19  1  0
  2 20  1  0
  2 21  1  0
  3 22  1  0
  4 23  1  0
  4 24  1  0
  5 25  1  0
  5 26  1  0
  5 27  1  0
  6 28  1  0
  6 29  1  0
  7 30  1  0
  7 31  1  0
  9 32  1  0
 11 33  1  0
 12 34  1  0
 13 35  1  0
 14 36  1  0
M  CHG  2   3   1   8   1
M  END
>  <UniqueID>  (32) 
32

>  <SMILES>  (32) 
CC[NH+](CC)CC[S@@+](O)c1ccccc1Cl

>  <Energy>  (32) 
36.151883189936314

>  <Genealogy>  (32) 
CC[NH+](CC)CC[S+](O)c1ccccc1Cl (protonated)
CC[NH+](CC)CC[S@@+](O)c1ccccc1Cl (chirality)
CC[NH+](CC)CC[S@@+](O)c1ccccc1Cl (3D coordinates assigned)
CC[NH+](CC)CC[S@@+](O)c1ccccc1Cl (optimized conformer: 36.151883189936314 kcal/mol)

>  <smiles>  (32) 
CCN(CC)CC[S+]([O-])c1ccccc1Cl

>  <score_type>  (32) 
oracle

>  <origin>  (32) 
adg

>  <m_score__min__energy>  (32) 
-2.6699999999999999

>  <m_primary>  (32) 
energy

$$$$
32:0
     RDKit          3D

 40 42  0  0  0  0  0  0  0  0999 V2000
   61.7440   31.5230   47.1360 C   0  0  0  0  0  0  0  0  0  0  0  0
   61.6620   32.7400   48.0130 C   0  0  0  0  0  0  0  0  0  0  0  0
   60.5180   33.3860   48.4770 C   0  0  0  0  0  0  0  0  0  0  0  0
   59.0630   32.9770   48.3200 C   0  0  0  0  0  0  0  0  0  0  0  0
   58.4400   33.2790   47.0000 N   0  0  1  0  0  0  0  0  0  0  0  0
   59.2680   34.1170   46.1070 C   0  0  0  0  0  0  0  0  0  0  0  0
   58.4380   34.5940   44.8810 C   0  0  0  0  0  0  0  0  0  0  0  0
   57.3850   33.7120   44.5030 O   0  0  0  0  0  0  0  0  0  0  0  0
   57.7600   32.3770   44.7570 C   0  0  2  0  0  0  0  0  0  0  0  0
   56.7860   31.3600   44.1170 C   0  0  0  0  0  0  0  0  0  0  0  0
   56.6500   30.1620   44.8790 O   0  0  0  0  0  0  0  0  0  0  0  0
   57.8960   29.7430   45.4160 C   0  0  0  0  0  0  0  0  0  0  0  0
   58.4220   30.7340   46.4860 C   0  0  0  0  0  0  0  0  0  0  0  0
   57.8020   32.1300   46.2780 C   0  0  1  0  0  0  0  0  0  0  0  0
   61.0070   34.3750   49.3200 C   0  0  0  0  0  0  0  0  0  0  0  0
   62.3520   34.3640   49.3050 N   0  0  0  0  0  0  0  0  0  0  0  0
   62.7400   33.3890   48.5000 N   0  0  0  0  0  0  0  0  0  0  0  0
   64.1410   33.0440   48.2810 C   0  0  0  0  0  0  0  0  0  0  0  0
   61.8047   30.6219   47.7640 H   0  0  0  0  0  0  0  0  0  0  0  0
   60.8475   31.4676   46.5009 H   0  0  0  0  0  0  0  0  0  0  0  0
   62.6398   31.5884   46.5009 H   0  0  0  0  0  0  0  0  0  0  0  0
   58.9990   31.8909   48.4822 H   0  0  0  0  0  0  0  0  0  0  0  0
   58.5050   33.5746   49.0559 H   0  0  0  0  0  0  0  0  0  0  0  0
   57.6390   33.9080   47.2560 H   0  0  0  0  0  0  0  0  0  0  0  0
   59.6268   34.9947   46.6645 H   0  0  0  0  0  0  0  0  0  0  0  0
   60.1198   33.5202   45.7488 H   0  0  0  0  0  0  0  0  0  0  0  0
   57.9969   35.5720   45.1239 H   0  0  0  0  0  0  0  0  0  0  0  0
   59.1328   34.6360   44.0292 H   0  0  0  0  0  0  0  0  0  0  0  0
   58.7532   32.2292   44.3078 H   0  0  0  0  0  0  0  0  0  0  0  0
   55.7965   31.8318   44.0263 H   0  0  0  0  0  0  0  0  0  0  0  0
   57.1996   31.0808   43.1367 H   0  0  0  0  0  0  0  0  0  0  0  0
   57.7699   28.7529   45.8785 H   0  0  0  0  0  0  0  0  0  0  0  0
   58.6274   29.7047   44.5953 H   0  0  0  0  0  0  0  0  0  0  0  0
   58.1531   30.3635   47.4862 H   0  0  0  0  0  0  0  0  0  0  0  0
   59.5152   30.8121   46.3926 H   0  0  0  0  0  0  0  0  0  0  0  0
   56.8039   32.1039   46.7397 H   0  0  0  0  0  0  0  0  0  0  0  0
   60.3871   35.0646   49.9118 H   0  0  0  0  0  0  0  0  0  0  0  0
   64.6441   32.9201   49.2513 H   0  0  0  0  0  0  0  0  0  0  0  0
   64.2027   32.1038   47.7133 H   0  0  0  0  0  0  0  0  0  0  0  0
   64.6322   33.8480   47.7133 H   0  0  0  0  0  0  0  0  0  0  0  0
  1  2  1  0
  2  3  2  0
  3  4  1  0
  4  5  1  0
  5  6  1  0
  6  7  1  0
  7  8  1  0
  8  9  1  0
  9 10  1  0
 10 11  1  0
 11 12  1  0
 12 13  1  0
 13 14  1  0
  3 15  1  0
 15 16  2  0
 16 17  1  0
 17 18  1  0
 17  2  1  0
 14  5  1  0
 14  9  1  0
  1 19  1  0
  1 20  1  0
  1 21  1  0
  4 22  1  0
  4 23  1  0
  5 24  1  1
  6 25  1  0
  6 26  1  0
  7 27  1  0
  7 28  1  0
  9 29  1  6
 10 30  1  0
 10 31  1  0
 12 32  1  0
 12 33  1  0
 13 34  1  0
 13 35  1  0
 14 36  1  1
 15 37  1  0
 18 38  1  0
 18 39  1  0
 18 40  1  0
M  CHG  1   5   1
M  END
>  <UniqueID>  (33) 
33

>  <SMILES>  (33) 
Cc1c(C[N@H+]2CCO[C@@H]3COCCC32)cnn1C

>  <Energy>  (33) 
103.97634021209397

>  <Genealogy>  (33) 
Cc1c(C[NH+]2CCOC3COCCC32)cnn1C (protonated)
Cc1c(C[N@H+]2CCO[C@@H]3COCCC32)cnn1C (chirality)
Cc1c(C[N@H+]2CCO[C@@H]3COCCC32)cnn1C (3D coordinates assigned)
Cc1c(C[N@H+]2CCO[C@@H]3COCCC32)cnn1C (nonaromatic ring conformer: 103.97634021209397 kcal/mol)

>  <smiles>  (33) 
Cc1c(CN2CCOC3COCCC32)cnn1C

>  <score_type>  (33) 
oracle

>  <origin>  (33) 
adg

>  <m_score__min__energy>  (33) 
-4.7300000000000004

>  <m_primary>  (33) 
energy

$$$$
33:0
     RDKit          3D

 59 62  0  0  0  0  0  0  0  0999 V2000
   57.1350   32.3270   41.2610 C   0  0  0  0  0  0  0  0  0  0  0  0
   58.4490   32.2420   42.0280 C   0  0  0  0  0  0  0  0  0  0  0  0
   58.2980   32.7970   43.3710 N   0  0  0  0  0  0  0  0  0  0  0  0
   58.9580   33.8760   43.7890 N   0  0  0  0  0  0  0  0  0  0  0  0
   58.7280   33.9920   45.1220 C   0  0  0  0  0  0  0  0  0  0  0  0
   59.5490   34.8380   46.0380 C   0  0  0  0  0  0  0  0  0  0  0  0
   57.9240   32.9270   45.4750 C   0  0  0  0  0  0  0  0  0  0  0  0
   57.9930   32.1420   46.5610 N   0  0  0  0  0  0  0  0  0  0  0  0
   57.7680   30.8950   46.1490 N   0  0  0  0  0  0  0  0  0  0  0  0
   57.5770   30.9590   44.8070 C   0  0  0  0  0  0  0  0  0  0  0  0
   57.4510   29.5080   43.7590 S   0  0  0  0  0  0  0  0  0  0  0  0
   56.3230   28.5980   44.8700 C   0  0  0  0  0  0  0  0  0  0  0  0
   57.0910   27.8690   45.9810 C   0  0  0  0  0  0  0  0  0  0  0  0
   58.3530   27.1770   45.4460 C   0  0  0  0  0  0  0  0  0  0  0  0
   59.5550   27.5450   46.2280 N   0  0  0  0  0  0  0  0  0  0  0  0
   59.1660   28.2780   47.4560 C   0  0  0  0  0  0  0  0  0  0  0  0
   60.3430   29.0400   48.0670 C   0  0  0  0  0  0  0  0  0  0  0  0
   60.8780   29.9990   47.0930 N   0  0  0  0  0  0  0  0  0  0  0  0
   61.4430   31.2540   47.5340 C   0  0  0  0  0  0  0  0  0  0  0  0
   62.7720   31.5720   47.2110 C   0  0  0  0  0  0  0  0  0  0  0  0
   63.3240   32.7970   47.5930 C   0  0  0  0  0  0  0  0  0  0  0  0
   62.5630   33.7180   48.3090 C   0  0  0  0  0  0  0  0  0  0  0  0
   61.2460   33.4140   48.6550 C   0  0  0  0  0  0  0  0  0  0  0  0
   60.6760   32.1760   48.2860 C   0  0  0  0  0  0  0  0  0  0  0  0
   59.3690   31.8260   48.6680 O   0  0  0  0  0  0  0  0  0  0  0  0
   58.8980   31.7960   50.0140 C   0  0  0  0  0  0  0  0  0  0  0  0
   60.6790   29.7370   45.6620 C   0  0  0  0  0  0  0  0  0  0  0  0
   60.5890   28.2270   45.4010 C   0  0  0  0  0  0  0  0  0  0  0  0
   57.6480   32.2400   44.3850 N   0  0  0  0  0  0  0  0  0  0  0  0
   56.2979   32.3811   41.9726 H   0  0  0  0  0  0  0  0  0  0  0  0
   57.1373   33.2269   40.6284 H   0  0  0  0  0  0  0  0  0  0  0  0
   57.0213   31.4343   40.6284 H   0  0  0  0  0  0  0  0  0  0  0  0
   58.7552   31.1883   42.1047 H   0  0  0  0  0  0  0  0  0  0  0  0
   59.2123   32.8220   41.4886 H   0  0  0  0  0  0  0  0  0  0  0  0
   59.3075   34.5891   47.0819 H   0  0  0  0  0  0  0  0  0  0  0  0
   60.6168   34.6486   45.8535 H   0  0  0  0  0  0  0  0  0  0  0  0
   59.3277   35.8996   45.8535 H   0  0  0  0  0  0  0  0  0  0  0  0
   58.3430   32.4010   47.5100 H   0  0  0  0  0  0  0  0  0  0  0  0
   55.6221   29.3108   45.3290 H   0  0  0  0  0  0  0  0  0  0  0  0
   55.7847   27.8466   44.2737 H   0  0  0  0  0  0  0  0  0  0  0  0
   57.3847   28.5999   46.7488 H   0  0  0  0  0  0  0  0  0  0  0  0
   56.4306   27.0960   46.4010 H   0  0  0  0  0  0  0  0  0  0  0  0
   58.2122   26.0874   45.5011 H   0  0  0  0  0  0  0  0  0  0  0  0
   58.5077   27.5035   44.4070 H   0  0  0  0  0  0  0  0  0  0  0  0
   58.3710   28.9954   47.2043 H   0  0  0  0  0  0  0  0  0  0  0  0
   58.8185   27.5412   48.1952 H   0  0  0  0  0  0  0  0  0  0  0  0
   60.0019   29.5811   48.9619 H   0  0  0  0  0  0  0  0  0  0  0  0
   61.1327   28.3255   48.3425 H   0  0  0  0  0  0  0  0  0  0  0  0
   63.3844   30.8494   46.6517 H   0  0  0  0  0  0  0  0  0  0  0  0
   64.3644   33.0354   47.3271 H   0  0  0  0  0  0  0  0  0  0  0  0
   63.0000   34.6842   48.6014 H   0  0  0  0  0  0  0  0  0  0  0  0
   60.6473   34.1441   49.2194 H   0  0  0  0  0  0  0  0  0  0  0  0
   59.7536   31.8505   50.7032 H   0  0  0  0  0  0  0  0  0  0  0  0
   58.2315   32.6535   50.1884 H   0  0  0  0  0  0  0  0  0  0  0  0
   58.3457   30.8609   50.1884 H   0  0  0  0  0  0  0  0  0  0  0  0
   59.7464   30.2179   45.3319 H   0  0  0  0  0  0  0  0  0  0  0  0
   61.5338   30.1451   45.1027 H   0  0  0  0  0  0  0  0  0  0  0  0
   60.3459   28.0704   44.3397 H   0  0  0  0  0  0  0  0  0  0  0  0
   61.5619   27.7916   45.6730 H   0  0  0  0  0  0  0  0  0  0  0  0
  1  2  1  0
  2  3  1  0
  3  4  1  0
  4  5  2  0
  5  6  1  0
  5  7  1  0
  7  8  2  0
  8  9  1  0
  9 10  2  0
 10 11  1  0
 11 12  1  0
 12 13  1  0
 13 14  1  0
 14 15  1  0
 15 16  1  0
 16 17  1  0
 17 18  1  0
 18 19  1  0
 19 20  2  0
 20 21  1  0
 21 22  2  0
 22 23  1  0
 23 24  2  0
 24 25  1  0
 25 26  1  0
 18 27  1  0
 27 28  1  0
 10 29  1  0
 29  3  1  0
 29  7  1  0
 28 15  1  0
 24 19  1  0
  1 30  1  0
  1 31  1  0
  1 32  1  0
  2 33  1  0
  2 34  1  0
  6 35  1  0
  6 36  1  0
  6 37  1  0
  8 38  1  0
 12 39  1  0
 12 40  1  0
 13 41  1  0
 13 42  1  0
 14 43  1  0
 14 44  1  0
 16 45  1  0
 16 46  1  0
 17 47  1  0
 17 48  1  0
 20 49  1  0
 21 50  1  0
 22 51  1  0
 23 52  1  0
 26 53  1  0
 26 54  1  0
 26 55  1  0
 27 56  1  0
 27 57  1  0
 28 58  1  0
 28 59  1  0
M  CHG  1   8   1
M  END
>  <UniqueID>  (34) 
34

>  <SMILES>  (34) 
CCn1nc(C)c2[nH+]nc(SCCCN3CCN(c4ccccc4OC)CC3)n21

>  <Energy>  (34) 
168.25498277071398

>  <Genealogy>  (34) 
CCn1nc(C)c2[nH+]nc(SCCCN3CCN(c4ccccc4OC)CC3)n21 (protonated)
CCn1nc(C)c2[nH+]nc(SCCCN3CCN(c4ccccc4OC)CC3)n21 (3D coordinates assigned)
CCn1nc(C)c2[nH+]nc(SCCCN3CCN(c4ccccc4OC)CC3)n21 (nonaromatic ring conformer: 168.25498277071398 kcal/mol)

>  <smiles>  (34) 
CCn1nc(C)c2nnc(SCCCN3CCN(c4ccccc4OC)CC3)n21

>  <score_type>  (34) 
oracle

>  <origin>  (34) 
adg

>  <m_score__min__energy>  (34) 
-7.3300000000000001

>  <m_primary>  (34) 
energy

$$$$
