0:0
     RDKit          3D

 59 61  0  0  0  0  0  0  0  0999 V2000
   57.2530   33.8350   45.4870 C   0  0  0  0  0  0  0  0  0  0  0  0
   57.5790   33.4410   46.9230 C   0  0  0  0  0  0  0  0  0  0  0  0
   58.8520   34.0640   47.3610 N   0  0  0  0  0  0  0  0  0  0  0  0
   59.2750   33.5600   48.6930 C   0  0  0  0  0  0  0  0  0  0  0  0
   58.5040   32.3230   49.1740 C   0  0  0  0  0  0  0  0  0  0  0  0
   59.8910   33.9360   46.3100 C   0  0  0  0  0  0  0  0  0  0  0  0
   61.3200   33.8160   46.8690 C   0  0  0  0  0  0  0  0  0  0  0  0
   61.8640   32.4540   46.7980 N   0  0  0  0  0  0  0  0  0  0  0  0
   61.9920   31.6000   47.9440 C   0  0  0  0  0  0  0  0  0  0  0  0
   62.9700   31.8710   48.9300 C   0  0  0  0  0  0  0  0  0  0  0  0
   64.0010   32.8020   48.6860 C   0  0  0  0  0  0  0  0  0  0  0  0
   64.9560   33.0800   49.6620 C   0  0  0  0  0  0  0  0  0  0  0  0
   64.9130   32.4260   50.8880 C   0  0  0  0  0  0  0  0  0  0  0  0
   63.9200   31.4810   51.1470 C   0  0  0  0  0  0  0  0  0  0  0  0
   62.9320   31.1770   50.1790 C   0  0  0  0  0  0  0  0  0  0  0  0
   61.9540   30.2300   50.4160 N   0  0  0  0  0  0  0  0  0  0  0  0
   61.8560   29.5510   51.7220 C   0  0  0  0  0  0  0  0  0  0  0  0
   61.1000   29.8990   49.3990 C   0  0  0  0  0  0  0  0  0  0  0  0
   59.9250   28.6920   49.4150 S   0  0  0  0  0  0  0  0  0  0  0  0
   59.4020   28.9380   47.8420 C   0  0  0  0  0  0  0  0  0  0  0  0
   60.1470   29.9650   47.2590 C   0  0  0  0  0  0  0  0  0  0  0  0
   60.0230   30.2080   45.7710 C   0  0  0  0  0  0  0  0  0  0  0  0
   58.6580   30.8120   45.4200 C   0  0  0  0  0  0  0  0  0  0  0  0
   58.1430   30.2520   44.1710 N   0  0  0  0  0  0  0  0  0  0  0  0
   56.7550   29.9590   43.9710 C   0  0  0  0  0  0  0  0  0  0  0  0
   56.2700   29.5620   42.6150 C   0  0  0  0  0  0  0  0  0  0  0  0
   55.9360   30.0590   44.9240 O   0  0  0  0  0  0  0  0  0  0  0  0
   61.1020   30.5300   48.1560 C   0  0  0  0  0  0  0  0  0  0  0  0
   56.5518   34.6825   45.4895 H   0  0  0  0  0  0  0  0  0  0  0  0
   58.1780   34.1260   44.9676 H   0  0  0  0  0  0  0  0  0  0  0  0
   56.7940   32.9808   44.9676 H   0  0  0  0  0  0  0  0  0  0  0  0
   56.7662   33.7777   47.5833 H   0  0  0  0  0  0  0  0  0  0  0  0
   57.6841   32.3473   46.9747 H   0  0  0  0  0  0  0  0  0  0  0  0
   60.3429   33.3015   48.6403 H   0  0  0  0  0  0  0  0  0  0  0  0
   59.0647   34.3628   49.4150 H   0  0  0  0  0  0  0  0  0  0  0  0
   58.4917   32.3033   50.2738 H   0  0  0  0  0  0  0  0  0  0  0  0
   57.4717   32.3647   48.7965 H   0  0  0  0  0  0  0  0  0  0  0  0
   58.9961   31.4145   48.7965 H   0  0  0  0  0  0  0  0  0  0  0  0
   59.6740   33.0374   45.7138 H   0  0  0  0  0  0  0  0  0  0  0  0
   59.8560   34.8557   45.7075 H   0  0  0  0  0  0  0  0  0  0  0  0
   61.9768   34.4838   46.2922 H   0  0  0  0  0  0  0  0  0  0  0  0
   61.2756   34.0917   47.9330 H   0  0  0  0  0  0  0  0  0  0  0  0
   62.5020   32.2580   45.9980 H   0  0  0  0  0  0  0  0  0  0  0  0
   64.0518   33.3146   47.7141 H   0  0  0  0  0  0  0  0  0  0  0  0
   65.7459   33.8189   49.4618 H   0  0  0  0  0  0  0  0  0  0  0  0
   65.6653   32.6547   51.6573 H   0  0  0  0  0  0  0  0  0  0  0  0
   63.9042   30.9641   52.1179 H   0  0  0  0  0  0  0  0  0  0  0  0
   61.9628   30.2909   52.5289 H   0  0  0  0  0  0  0  0  0  0  0  0
   60.8771   29.0562   51.8055 H   0  0  0  0  0  0  0  0  0  0  0  0
   62.6550   28.7996   51.8055 H   0  0  0  0  0  0  0  0  0  0  0  0
   58.5964   28.3771   47.3456 H   0  0  0  0  0  0  0  0  0  0  0  0
   60.8150   30.9023   45.4535 H   0  0  0  0  0  0  0  0  0  0  0  0
   60.1214   29.2437   45.2510 H   0  0  0  0  0  0  0  0  0  0  0  0
   57.9485   30.5936   46.2317 H   0  0  0  0  0  0  0  0  0  0  0  0
   58.7771   31.8983   45.2944 H   0  0  0  0  0  0  0  0  0  0  0  0
   58.8120   30.0990   43.3820 H   0  0  0  0  0  0  0  0  0  0  0  0
   55.4225   28.8683   42.7173 H   0  0  0  0  0  0  0  0  0  0  0  0
   55.9463   30.4577   42.0646 H   0  0  0  0  0  0  0  0  0  0  0  0
   57.0841   29.0677   42.0646 H   0  0  0  0  0  0  0  0  0  0  0  0
  1  2  1  0
  2  3  1  0
  3  4  1  0
  4  5  1  0
  3  6  1  0
  6  7  1  0
  7  8  1  0
  8  9  1  0
  9 10  2  0
 10 11  1  0
 11 12  2  0
 12 13  1  0
 13 14  2  0
 14 15  1  0
 15 16  2  0
 16 17  1  0
 16 18  1  0
 18 19  1  0
 19 20  1  0
 20 21  2  0
 21 22  1  0
 22 23  1  0
 23 24  1  0
 24 25  1  0
 25 26  1  0
 25 27  2  0
 21 28  1  0
 28  9  1  0
 15 10  1  0
 28 18  2  0
  1 29  1  0
  1 30  1  0
  1 31  1  0
  2 32  1  0
  2 33  1  0
  4 34  1  0
  4 35  1  0
  5 36  1  0
  5 37  1  0
  5 38  1  0
  6 39  1  0
  6 40  1  0
  7 41  1  0
  7 42  1  0
  8 43  1  0
 11 44  1  0
 12 45  1  0
 13 46  1  0
 14 47  1  0
 17 48  1  0
 17 49  1  0
 17 50  1  0
 20 51  1  0
 22 52  1  0
 22 53  1  0
 23 54  1  0
 23 55  1  0
 24 56  1  0
 26 57  1  0
 26 58  1  0
 26 59  1  0
M  CHG  1  16   1
M  END
>  <UniqueID>  (1) 
1

>  <SMILES>  (1) 
CCN(CC)CCNc1c2ccccc2[n+](C)c2scc(CCNC(C)=O)c12

>  <Energy>  (1) 
103.10978940107843

>  <Genealogy>  (1) 
CCN(CC)CCNc1c2ccccc2[n+](C)c2scc(CCNC(C)=O)c12 (3D coordinates assigned)
CCN(CC)CCNc1c2ccccc2[n+](C)c2scc(CCNC(C)=O)c12 (optimized conformer: 103.10978940107843 kcal/mol)

>  <smiles>  (1) 
CCN(CC)CCNc1c2ccccc2[n+](C)c2scc(CCNC(C)=O)c12

>  <score_type>  (1) 
oracle

>  <origin>  (1) 
adg

>  <m_score__min__energy>  (1) 
-6.3499999999999996

>  <m_primary>  (1) 
energy

$$$$
1:0
     RDKit          3D

 54 56  0  0  0  0  0  0  0  0999 V2000
   60.6520   29.9980   49.6980 C   0  0  0  0  0  0  0  0  0  0  0  0
   60.4830   29.6480   48.2460 C   0  0  0  0  0  0  0  0  0  0  0  0
   59.7240   28.5880   47.8490 N   0  0  0  0  0  0  0  0  0  0  0  0
   59.7070   28.4240   46.5040 C   0  0  0  0  0  0  0  0  0  0  0  0
   58.9700   27.3470   45.7990 C   0  0  0  0  0  0  0  0  0  0  0  0
   58.6140   27.4790   44.4430 C   0  0  0  0  0  0  0  0  0  0  0  0
   57.9190   26.4580   43.7890 C   0  0  0  0  0  0  0  0  0  0  0  0
   57.5700   25.2940   44.4790 C   0  0  0  0  0  0  0  0  0  0  0  0
   56.6980   24.0150   43.6550 Cl  0  0  0  0  0  0  0  0  0  0  0  0
   57.9140   25.1530   45.8250 C   0  0  0  0  0  0  0  0  0  0  0  0
   58.6070   26.1720   46.4840 C   0  0  0  0  0  0  0  0  0  0  0  0
   60.6420   29.6120   45.7560 S   0  0  0  0  0  0  0  0  0  0  0  0
   61.0610   30.3730   47.2010 C   0  0  0  0  0  0  0  0  0  0  0  0
   62.0110   31.5370   47.3470 C   0  0  0  0  0  0  0  0  0  0  0  0
   61.5090   32.7730   46.7340 N   0  0  0  0  0  0  0  0  0  0  0  0
   61.4020   33.8900   47.6870 C   0  0  0  0  0  0  0  0  0  0  0  0
   59.9930   34.4840   47.6400 C   0  0  0  0  0  0  0  0  0  0  0  0
   59.5070   34.6760   46.1850 C   0  0  0  0  0  0  0  0  0  0  0  0
   58.7680   33.5090   45.6520 N   0  0  0  0  0  0  0  0  0  0  0  0
   58.0330   32.7710   46.7110 C   0  0  0  0  0  0  0  0  0  0  0  0
   58.0140   31.2610   46.4370 C   0  0  0  0  0  0  0  0  0  0  0  0
   57.5630   30.8560   45.0220 C   0  0  0  0  0  0  0  0  0  0  0  0
   58.4380   31.4340   43.8970 C   0  0  0  0  0  0  0  0  0  0  0  0
   57.9230   32.7990   43.4130 C   0  0  0  0  0  0  0  0  0  0  0  0
   57.8920   33.8700   44.5100 C   0  0  0  0  0  0  0  0  0  0  0  0
   60.2576   29.1812   50.3204 H   0  0  0  0  0  0  0  0  0  0  0  0
   61.7198   30.1439   49.9181 H   0  0  0  0  0  0  0  0  0  0  0  0
   60.1022   30.9250   49.9181 H   0  0  0  0  0  0  0  0  0  0  0  0
   59.2040   27.9820   48.5220 H   0  0  0  0  0  0  0  0  0  0  0  0
   58.8851   28.3929   43.8942 H   0  0  0  0  0  0  0  0  0  0  0  0
   57.6462   26.5708   42.7293 H   0  0  0  0  0  0  0  0  0  0  0  0
   57.6386   24.2370   46.3682 H   0  0  0  0  0  0  0  0  0  0  0  0
   58.8707   26.0551   47.5455 H   0  0  0  0  0  0  0  0  0  0  0  0
   62.1770   31.7206   48.4188 H   0  0  0  0  0  0  0  0  0  0  0  0
   62.9412   31.2675   46.8253 H   0  0  0  0  0  0  0  0  0  0  0  0
   60.5820   32.5940   46.2800 H   0  0  0  0  0  0  0  0  0  0  0  0
   61.6091   33.5231   48.7031 H   0  0  0  0  0  0  0  0  0  0  0  0
   62.1312   34.6676   47.4156 H   0  0  0  0  0  0  0  0  0  0  0  0
   59.3016   33.8055   48.1612 H   0  0  0  0  0  0  0  0  0  0  0  0
   60.0175   35.4693   48.1284 H   0  0  0  0  0  0  0  0  0  0  0  0
   58.8440   35.5531   46.1519 H   0  0  0  0  0  0  0  0  0  0  0  0
   60.4019   34.8067   45.5588 H   0  0  0  0  0  0  0  0  0  0  0  0
   58.5237   32.9522   47.6787 H   0  0  0  0  0  0  0  0  0  0  0  0
   56.9939   33.1317   46.7242 H   0  0  0  0  0  0  0  0  0  0  0  0
   59.0318   30.8742   46.5932 H   0  0  0  0  0  0  0  0  0  0  0  0
   57.2707   30.8354   47.1272 H   0  0  0  0  0  0  0  0  0  0  0  0
   57.5893   29.7586   44.9515 H   0  0  0  0  0  0  0  0  0  0  0  0
   56.5519   31.2655   44.8809 H   0  0  0  0  0  0  0  0  0  0  0  0
   59.4652   31.5541   44.2717 H   0  0  0  0  0  0  0  0  0  0  0  0
   58.4045   30.7365   43.0471 H   0  0  0  0  0  0  0  0  0  0  0  0
   58.5790   33.1504   42.6029 H   0  0  0  0  0  0  0  0  0  0  0  0
   56.8856   32.6511   43.0784 H   0  0  0  0  0  0  0  0  0  0  0  0
   58.2344   34.8254   44.0857 H   0  0  0  0  0  0  0  0  0  0  0  0
   56.8598   33.9520   44.8812 H   0  0  0  0  0  0  0  0  0  0  0  0
  1  2  1  0
  2  3  1  0
  3  4  2  0
  4  5  1  0
  5  6  2  0
  6  7  1  0
  7  8  2  0
  8  9  1  0
  8 10  1  0
 10 11  2  0
  4 12  1  0
 12 13  1  0
 13 14  1  0
 14 15  1  0
 15 16  1  0
 16 17  1  0
 17 18  1  0
 18 19  1  0
 19 20  1  0
 20 21  1  0
 21 22  1  0
 22 23  1  0
 23 24  1  0
 24 25  1  0
 13  2  2  0
 25 19  1  0
 11  5  1  0
  1 26  1  0
  1 27  1  0
  1 28  1  0
  3 29  1  0
  6 30  1  0
  7 31  1  0
 10 32  1  0
 11 33  1  0
 14 34  1  0
 14 35  1  0
 15 36  1  0
 16 37  1  0
 16 38  1  0
 17 39  1  0
 17 40  1  0
 18 41  1  0
 18 42  1  0
 20 43  1  0
 20 44  1  0
 21 45  1  0
 21 46  1  0
 22 47  1  0
 22 48  1  0
 23 49  1  0
 23 50  1  0
 24 51  1  0
 24 52  1  0
 25 53  1  0
 25 54  1  0
M  CHG  1   3   1
M  END
>  <UniqueID>  (2) 
2

>  <SMILES>  (2) 
Cc1[nH+]c(-c2ccc(Cl)cc2)sc1CNCCCN1CCCCCC1

>  <Energy>  (2) 
89.92927068421633

>  <Genealogy>  (2) 
Cc1[nH+]c(-c2ccc(Cl)cc2)sc1CNCCCN1CCCCCC1 (protonated)
Cc1[nH+]c(-c2ccc(Cl)cc2)sc1CNCCCN1CCCCCC1 (3D coordinates assigned)
Cc1[nH+]c(-c2ccc(Cl)cc2)sc1CNCCCN1CCCCCC1 (nonaromatic ring conformer: 89.92927068421633 kcal/mol)

>  <smiles>  (2) 
Cc1nc(-c2ccc(Cl)cc2)sc1CNCCCN1CCCCCC1

>  <score_type>  (2) 
oracle

>  <origin>  (2) 
adg

>  <m_score__min__energy>  (2) 
-4.6399999999999997

>  <m_primary>  (2) 
energy

$$$$
2:0
     RDKit          3D

 34 36  0  0  0  0  0  0  0  0999 V2000
   58.1570   23.0860   44.8820 C   0  0  0  0  0  0  0  0  0  0  0  0
   57.2700   24.0610   44.2330 N   0  0  0  0  0  0  0  0  0  0  0  0
   56.2230   23.5720   43.3270 C   0  0  0  0  0  0  0  0  0  0  0  0
   57.4250   25.4820   44.4850 C   0  0  0  0  0  0  0  0  0  0  0  0
   57.0910   26.0360   45.7370 C   0  0  0  0  0  0  0  0  0  0  0  0
   57.2390   27.4050   45.9780 C   0  0  0  0  0  0  0  0  0  0  0  0
   57.7250   28.2580   44.9750 C   0  0  0  0  0  0  0  0  0  0  0  0
   57.8820   29.7070   45.2310 C   0  0  0  0  0  0  0  0  0  0  0  0
   58.9780   30.2360   45.8400 N   0  0  0  0  0  0  0  0  0  0  0  0
   58.6990   31.5460   45.8630 C   0  0  0  0  0  0  0  0  0  0  0  0
   59.4830   32.5750   46.3790 C   0  0  0  0  0  0  0  0  0  0  0  0
   58.9850   33.8990   46.2960 C   0  0  0  0  0  0  0  0  0  0  0  0
   59.7580   34.9960   46.8150 N   0  0  0  0  0  0  0  0  0  0  0  0
   60.2050   34.9650   47.9790 O   0  0  0  0  0  0  0  0  0  0  0  0
   60.0170   36.0990   46.0330 O   0  0  0  0  0  0  0  0  0  0  0  0
   57.7160   34.1290   45.6960 C   0  0  0  0  0  0  0  0  0  0  0  0
   56.9560   33.0590   45.1870 C   0  0  0  0  0  0  0  0  0  0  0  0
   57.4880   31.7790   45.2920 C   0  0  0  0  0  0  0  0  0  0  0  0
   56.9420   30.6260   44.8790 N   0  0  0  0  0  0  0  0  0  0  0  0
   58.0590   27.7140   43.7250 C   0  0  0  0  0  0  0  0  0  0  0  0
   57.9110   26.3460   43.4820 C   0  0  0  0  0  0  0  0  0  0  0  0
   58.0701   23.1815   45.9744 H   0  0  0  0  0  0  0  0  0  0  0  0
   57.8682   22.0688   44.5788 H   0  0  0  0  0  0  0  0  0  0  0  0
   59.1969   23.2776   44.5788 H   0  0  0  0  0  0  0  0  0  0  0  0
   55.3818   23.1791   43.9169 H   0  0  0  0  0  0  0  0  0  0  0  0
   55.8714   24.3990   42.6927 H   0  0  0  0  0  0  0  0  0  0  0  0
   56.6315   22.7715   42.6927 H   0  0  0  0  0  0  0  0  0  0  0  0
   56.7088   25.3826   46.5351 H   0  0  0  0  0  0  0  0  0  0  0  0
   56.9722   27.8173   46.9623 H   0  0  0  0  0  0  0  0  0  0  0  0
   60.4607   32.3659   46.8378 H   0  0  0  0  0  0  0  0  0  0  0  0
   57.3241   35.1546   45.6290 H   0  0  0  0  0  0  0  0  0  0  0  0
   55.9740   33.2300   44.7217 H   0  0  0  0  0  0  0  0  0  0  0  0
   58.4408   28.3706   42.9293 H   0  0  0  0  0  0  0  0  0  0  0  0
   58.1770   25.9378   42.4958 H   0  0  0  0  0  0  0  0  0  0  0  0
  1  2  1  0
  2  3  1  0
  2  4  1  0
  4  5  2  0
  5  6  1  0
  6  7  2  0
  7  8  1  0
  8  9  2  0
  9 10  1  0
 10 11  2  0
 11 12  1  0
 12 13  1  0
 13 14  2  0
 13 15  1  0
 12 16  2  0
 16 17  1  0
 17 18  2  0
 18 19  1  0
  7 20  1  0
 20 21  2  0
 21  4  1  0
 19  8  1  0
 18 10  1  0
  1 22  1  0
  1 23  1  0
  1 24  1  0
  3 25  1  0
  3 26  1  0
  3 27  1  0
  5 28  1  0
  6 29  1  0
 11 30  1  0
 16 31  1  0
 17 32  1  0
 20 33  1  0
 21 34  1  0
M  CHG  3  13   1  15  -1  19  -1
M  END
>  <UniqueID>  (3) 
3

>  <SMILES>  (3) 
CN(C)c1ccc(-c2nc3cc([N+](=O)[O-])ccc3[n-]2)cc1

>  <Energy>  (3) 
74.3830334735089

>  <Genealogy>  (3) 
CN(C)c1ccc(-c2nc3cc([N+](=O)[O-])ccc3[n-]2)cc1 (protonated)
CN(C)c1ccc(-c2nc3cc([N+](=O)[O-])ccc3[n-]2)cc1 (3D coordinates assigned)
CN(C)c1ccc(-c2nc3cc([N+](=O)[O-])ccc3[n-]2)cc1 (optimized conformer: 74.3830334735089 kcal/mol)

>  <smiles>  (3) 
CN(C)c1ccc(-c2nc3cc([N+](=O)[O-])ccc3[nH]2)cc1

>  <score_type>  (3) 
oracle

>  <origin>  (3) 
adg

>  <m_score__min__energy>  (3) 
-7.9500000000000002

>  <m_primary>  (3) 
energy

$$$$
3:0
     RDKit          3D

 51 51  0  0  0  0  0  0  0  0999 V2000
   57.8270   32.0550   42.5540 C   0  0  0  0  0  0  0  0  0  0  0  0
   57.7370   32.5290   44.0070 C   0  0  0  0  0  0  0  0  0  0  0  0
   57.0190   31.5760   44.8690 N   0  0  0  0  0  0  0  0  0  0  0  0
   56.5380   30.4050   44.1220 C   0  0  0  0  0  0  0  0  0  0  0  0
   57.3830   29.1650   44.4540 C   0  0  0  0  0  0  0  0  0  0  0  0
   58.7240   29.4990   45.1290 C   0  0  0  0  0  0  0  0  0  0  0  0
   58.6170   29.5430   46.6060 N   0  0  0  0  0  0  0  0  0  0  0  0
   58.4260   28.2040   47.2010 C   0  0  0  0  0  0  0  0  0  0  0  0
   59.6250   27.3180   46.8810 C   0  0  0  0  0  0  0  0  0  0  0  0
   59.6280   30.3800   47.3040 C   0  0  0  0  0  0  0  0  0  0  0  0
   59.1120   31.2380   48.4850 C   0  0  0  0  0  0  0  0  0  0  0  0
   58.2100   32.4150   48.0850 C   0  0  0  0  0  0  0  0  0  0  0  0
   58.5320   32.9150   46.7390 N   0  0  0  0  0  0  0  0  0  0  0  0
   59.3870   34.1150   46.7570 C   0  0  0  0  0  0  0  0  0  0  0  0
   60.7030   33.8680   47.4550 C   0  0  0  0  0  0  0  0  0  0  0  0
   60.8620   34.2110   48.8080 C   0  0  0  0  0  0  0  0  0  0  0  0
   62.0760   33.9730   49.4590 C   0  0  0  0  0  0  0  0  0  0  0  0
   63.1410   33.3900   48.7650 C   0  0  0  0  0  0  0  0  0  0  0  0
   64.7990   33.0640   49.6560 Br  0  0  0  0  0  0  0  0  0  0  0  0
   62.9910   33.0460   47.4170 C   0  0  0  0  0  0  0  0  0  0  0  0
   61.7780   33.2830   46.7640 C   0  0  0  0  0  0  0  0  0  0  0  0
   58.0322   30.9745   42.5328 H   0  0  0  0  0  0  0  0  0  0  0  0
   56.8744   32.2574   42.0426 H   0  0  0  0  0  0  0  0  0  0  0  0
   58.6391   32.5925   42.0426 H   0  0  0  0  0  0  0  0  0  0  0  0
   58.7565   32.6598   44.3989 H   0  0  0  0  0  0  0  0  0  0  0  0
   57.1753   33.4747   44.0151 H   0  0  0  0  0  0  0  0  0  0  0  0
   57.6670   31.2580   45.6260 H   0  0  0  0  0  0  0  0  0  0  0  0
   55.4895   30.2103   44.3916 H   0  0  0  0  0  0  0  0  0  0  0  0
   56.6226   30.6130   43.0452 H   0  0  0  0  0  0  0  0  0  0  0  0
   56.8036   28.5199   45.1309 H   0  0  0  0  0  0  0  0  0  0  0  0
   57.6157   28.6675   43.5009 H   0  0  0  0  0  0  0  0  0  0  0  0
   59.4606   28.7308   44.8509 H   0  0  0  0  0  0  0  0  0  0  0  0
   59.0333   30.4970   44.7851 H   0  0  0  0  0  0  0  0  0  0  0  0
   58.3249   28.3008   48.2921 H   0  0  0  0  0  0  0  0  0  0  0  0
   57.5168   27.7480   46.7823 H   0  0  0  0  0  0  0  0  0  0  0  0
   60.0884   26.9756   47.8180 H   0  0  0  0  0  0  0  0  0  0  0  0
   59.2920   26.4473   46.2971 H   0  0  0  0  0  0  0  0  0  0  0  0
   60.3596   27.8919   46.2971 H   0  0  0  0  0  0  0  0  0  0  0  0
   60.4077   29.7087   47.6932 H   0  0  0  0  0  0  0  0  0  0  0  0
   59.9822   31.1000   46.5516 H   0  0  0  0  0  0  0  0  0  0  0  0
   58.5400   30.5830   49.1587 H   0  0  0  0  0  0  0  0  0  0  0  0
   60.0022   31.6788   48.9575 H   0  0  0  0  0  0  0  0  0  0  0  0
   57.1618   32.0819   48.1001 H   0  0  0  0  0  0  0  0  0  0  0  0
   58.3745   33.2322   48.8027 H   0  0  0  0  0  0  0  0  0  0  0  0
   57.6390   33.1350   46.2380 H   0  0  0  0  0  0  0  0  0  0  0  0
   59.5883   34.4220   45.7201 H   0  0  0  0  0  0  0  0  0  0  0  0
   58.8534   34.9012   47.3112 H   0  0  0  0  0  0  0  0  0  0  0  0
   60.0269   34.6692   49.3580 H   0  0  0  0  0  0  0  0  0  0  0  0
   62.1937   34.2446   50.5184 H   0  0  0  0  0  0  0  0  0  0  0  0
   63.8288   32.5884   46.8704 H   0  0  0  0  0  0  0  0  0  0  0  0
   61.6643   33.0104   45.7044 H   0  0  0  0  0  0  0  0  0  0  0  0
  1  2  1  0
  2  3  1  0
  3  4  1  0
  4  5  1  0
  5  6  1  0
  6  7  1  0
  7  8  1  0
  8  9  1  0
  7 10  1  0
 10 11  1  0
 11 12  1  0
 12 13  1  0
 13 14  1  0
 14 15  1  0
 15 16  2  0
 16 17  1  0
 17 18  2  0
 18 19  1  0
 18 20  1  0
 20 21  2  0
 21 15  1  0
  1 22  1  0
  1 23  1  0
  1 24  1  0
  2 25  1  0
  2 26  1  0
  3 27  1  0
  4 28  1  0
  4 29  1  0
  5 30  1  0
  5 31  1  0
  6 32  1  0
  6 33  1  0
  8 34  1  0
  8 35  1  0
  9 36  1  0
  9 37  1  0
  9 38  1  0
 10 39  1  0
 10 40  1  0
 11 41  1  0
 11 42  1  0
 12 43  1  0
 12 44  1  0
 13 45  1  0
 14 46  1  0
 14 47  1  0
 16 48  1  0
 17 49  1  0
 20 50  1  0
 21 51  1  0
M  END
>  <UniqueID>  (4) 
4

>  <SMILES>  (4) 
CCNCCCN(CC)CCCNCc1ccc(Br)cc1

>  <Energy>  (4) 
46.597576885429454

>  <Genealogy>  (4) 
CCNCCCN(CC)CCCNCc1ccc(Br)cc1 (3D coordinates assigned)
CCNCCCN(CC)CCCNCc1ccc(Br)cc1 (optimized conformer: 46.597576885429454 kcal/mol)

>  <smiles>  (4) 
CCNCCCN(CC)CCCNCc1ccc(Br)cc1

>  <score_type>  (4) 
oracle

>  <origin>  (4) 
adg

>  <m_score__min__energy>  (4) 
-6.75

>  <m_primary>  (4) 
energy

$$$$
4:0
     RDKit          3D

 41 43  0  0  0  0  0  0  0  0999 V2000
   59.6320   28.5880   48.8730 C   0  0  0  0  0  0  0  0  0  0  0  0
   58.9860   28.6400   47.5140 C   0  0  0  0  0  0  0  0  0  0  0  0
   58.4370   27.4600   46.9950 C   0  0  0  0  0  0  0  0  0  0  0  0
   57.8190   27.4490   45.7500 C   0  0  0  0  0  0  0  0  0  0  0  0
   57.7140   28.6230   44.9970 C   0  0  0  0  0  0  0  0  0  0  0  0
   57.0880   28.5890   43.7740 N   0  0  0  0  0  0  0  0  0  0  0  0
   56.9550   29.7030   43.0010 C   0  0  0  0  0  0  0  0  0  0  0  0
   57.4590   30.9040   43.4750 C   0  0  0  0  0  0  0  0  0  0  0  0
   57.3940   32.0990   42.8680 N   0  0  0  0  0  0  0  0  0  0  0  0
   57.9840   32.9710   43.7090 C   0  0  0  0  0  0  0  0  0  0  0  0
   58.4240   32.3240   44.8540 C   0  0  0  0  0  0  0  0  0  0  0  0
   58.0890   30.9850   44.6930 C   0  0  0  0  0  0  0  0  0  0  0  0
   58.2620   29.8400   45.5040 C   0  0  0  0  0  0  0  0  0  0  0  0
   58.9520   29.8290   46.7450 C   0  0  0  0  0  0  0  0  0  0  0  0
   59.6340   30.9990   47.2180 N   0  0  0  0  0  0  0  0  0  0  0  0
   59.1250   31.8100   48.3290 C   0  0  0  0  0  0  0  0  0  0  0  0
   59.5150   33.2900   48.1910 C   0  0  0  0  0  0  0  0  0  0  0  0
   60.3380   33.5410   46.9870 N   0  0  0  0  0  0  0  0  0  0  0  0
   61.7770   33.5100   47.3010 C   0  0  0  0  0  0  0  0  0  0  0  0
   59.9930   34.8460   46.4020 C   0  0  0  0  0  0  0  0  0  0  0  0
   58.8562   28.6504   49.6504 H   0  0  0  0  0  0  0  0  0  0  0  0
   60.1838   27.6425   48.9808 H   0  0  0  0  0  0  0  0  0  0  0  0
   60.3279   29.4330   48.9808 H   0  0  0  0  0  0  0  0  0  0  0  0
   58.4958   26.5305   47.5803 H   0  0  0  0  0  0  0  0  0  0  0  0
   57.4088   26.5085   45.3534 H   0  0  0  0  0  0  0  0  0  0  0  0
   56.6960   27.6910   43.4110 H   0  0  0  0  0  0  0  0  0  0  0  0
   56.4580   29.6504   42.0211 H   0  0  0  0  0  0  0  0  0  0  0  0
   56.9650   32.3150   41.9410 H   0  0  0  0  0  0  0  0  0  0  0  0
   58.1005   34.0473   43.5142 H   0  0  0  0  0  0  0  0  0  0  0  0
   58.9349   32.7788   45.7155 H   0  0  0  0  0  0  0  0  0  0  0  0
   60.4240   31.3720   46.6460 H   0  0  0  0  0  0  0  0  0  0  0  0
   58.0279   31.7329   48.3508 H   0  0  0  0  0  0  0  0  0  0  0  0
   59.5707   31.4277   49.2592 H   0  0  0  0  0  0  0  0  0  0  0  0
   58.5977   33.8935   48.1252 H   0  0  0  0  0  0  0  0  0  0  0  0
   60.1129   33.5654   49.0723 H   0  0  0  0  0  0  0  0  0  0  0  0
   61.9142   33.5070   48.3924 H   0  0  0  0  0  0  0  0  0  0  0  0
   62.2263   32.6020   46.8725 H   0  0  0  0  0  0  0  0  0  0  0  0
   62.2650   34.3978   46.8725 H   0  0  0  0  0  0  0  0  0  0  0  0
   59.8016   35.5700   47.2078 H   0  0  0  0  0  0  0  0  0  0  0  0
   60.8280   35.2015   45.7804 H   0  0  0  0  0  0  0  0  0  0  0  0
   59.0914   34.7424   45.7804 H   0  0  0  0  0  0  0  0  0  0  0  0
  1  2  1  0
  2  3  2  0
  3  4  1  0
  4  5  2  0
  5  6  1  0
  6  7  2  0
  7  8  1  0
  8  9  1  0
  9 10  1  0
 10 11  2  0
 11 12  1  0
 12 13  1  0
 13 14  2  0
 14 15  1  0
 15 16  1  0
 16 17  1  0
 17 18  1  0
 18 19  1  0
 18 20  1  0
 14  2  1  0
 13  5  1  0
 12  8  2  0
  1 21  1  0
  1 22  1  0
  1 23  1  0
  3 24  1  0
  4 25  1  0
  6 26  1  0
  7 27  1  0
  9 28  1  0
 10 29  1  0
 11 30  1  0
 15 31  1  0
 16 32  1  0
 16 33  1  0
 17 34  1  0
 17 35  1  0
 19 36  1  0
 19 37  1  0
 19 38  1  0
 20 39  1  0
 20 40  1  0
 20 41  1  0
M  CHG  1   6   1
M  END
>  <UniqueID>  (5) 
5

>  <SMILES>  (5) 
Cc1ccc2[nH+]cc3[nH]ccc3c2c1NCCN(C)C

>  <Energy>  (5) 
84.33303812127308

>  <Genealogy>  (5) 
Cc1ccc2[nH+]cc3[nH]ccc3c2c1NCCN(C)C (protonated)
Cc1ccc2[nH+]cc3[nH]ccc3c2c1NCCN(C)C (3D coordinates assigned)
Cc1ccc2[nH+]cc3[nH]ccc3c2c1NCCN(C)C (optimized conformer: 84.33303812127308 kcal/mol)

>  <smiles>  (5) 
Cc1ccc2ncc3[nH]ccc3c2c1NCCN(C)C

>  <score_type>  (5) 
oracle

>  <origin>  (5) 
adg

>  <m_score__min__energy>  (5) 
-4.8600000000000003

>  <m_primary>  (5) 
energy

$$$$
5:0
     RDKit          3D

 67 69  0  0  0  0  0  0  0  0999 V2000
   58.3340   30.7060   51.1630 C   0  0  0  0  0  0  0  0  0  0  0  0
   58.1130   31.9120   50.2470 C   0  0  0  0  0  0  0  0  0  0  0  0
   59.3640   32.3600   49.6080 N   0  0  0  0  0  0  0  0  0  0  0  0
   60.5540   32.5790   50.4420 C   0  0  0  0  0  0  0  0  0  0  0  0
   60.2390   33.4570   51.6540 C   0  0  0  0  0  0  0  0  0  0  0  0
   59.3060   32.9890   48.3160 C   0  0  0  0  0  0  0  0  0  0  0  0
   59.5010   34.3760   48.2780 C   0  0  0  0  0  0  0  0  0  0  0  0
   59.3180   35.0890   47.1080 C   0  0  0  0  0  0  0  0  0  0  0  0
   58.9330   34.4370   45.9460 C   0  0  0  0  0  0  0  0  0  0  0  0
   58.7550   33.0310   45.9120 C   0  0  0  0  0  0  0  0  0  0  0  0
   58.9400   32.2840   47.1200 C   0  0  0  0  0  0  0  0  0  0  0  0
   58.7270   30.8790   47.0700 C   0  0  0  0  0  0  0  0  0  0  0  0
   59.2040   29.9940   48.1020 N   0  0  0  0  0  0  0  0  0  0  0  0
   60.6150   29.6020   48.1600 C   0  0  0  0  0  0  0  0  0  0  0  0
   61.5330   30.6590   47.5170 C   0  0  0  0  0  0  0  0  0  0  0  0
   62.6110   31.2140   48.4830 C   0  0  0  0  0  0  0  0  0  0  0  0
   63.4630   32.2620   47.8600 N   0  0  0  0  0  0  0  0  0  0  0  0
   63.9980   33.2140   48.8730 C   0  0  0  0  0  0  0  0  0  0  0  0
   65.1380   32.6610   49.7480 C   0  0  0  0  0  0  0  0  0  0  0  0
   62.7490   32.9420   46.7440 C   0  0  0  0  0  0  0  0  0  0  0  0
   63.4220   34.2560   46.3200 C   0  0  0  0  0  0  0  0  0  0  0  0
   58.0940   30.3190   45.9410 C   0  0  0  0  0  0  0  0  0  0  0  0
   57.6220   28.9890   45.9630 C   0  0  0  0  0  0  0  0  0  0  0  0
   56.9910   28.4340   44.8520 C   0  0  0  0  0  0  0  0  0  0  0  0
   56.7990   29.2000   43.7090 C   0  0  0  0  0  0  0  0  0  0  0  0
   57.2430   30.5200   43.6680 C   0  0  0  0  0  0  0  0  0  0  0  0
   57.9190   31.1030   44.7740 C   0  0  0  0  0  0  0  0  0  0  0  0
   58.3950   32.3960   44.7370 N   0  0  0  0  0  0  0  0  0  0  0  0
   58.5180   33.1000   43.4400 C   0  0  0  0  0  0  0  0  0  0  0  0
   58.2751   31.0276   52.2133 H   0  0  0  0  0  0  0  0  0  0  0  0
   57.5595   29.9499   50.9670 H   0  0  0  0  0  0  0  0  0  0  0  0
   59.3263   30.2737   50.9670 H   0  0  0  0  0  0  0  0  0  0  0  0
   57.3937   31.6344   49.4625 H   0  0  0  0  0  0  0  0  0  0  0  0
   57.7321   32.7399   50.8631 H   0  0  0  0  0  0  0  0  0  0  0  0
   60.9273   31.6059   50.7937 H   0  0  0  0  0  0  0  0  0  0  0  0
   61.3112   33.0936   49.8322 H   0  0  0  0  0  0  0  0  0  0  0  0
   60.4410   32.8939   52.5771 H   0  0  0  0  0  0  0  0  0  0  0  0
   60.8701   34.3576   51.6283 H   0  0  0  0  0  0  0  0  0  0  0  0
   59.1793   33.7510   51.6283 H   0  0  0  0  0  0  0  0  0  0  0  0
   59.8043   34.9056   49.1932 H   0  0  0  0  0  0  0  0  0  0  0  0
   59.4783   36.1772   47.0985 H   0  0  0  0  0  0  0  0  0  0  0  0
   58.7621   35.0234   45.0312 H   0  0  0  0  0  0  0  0  0  0  0  0
   58.5820   29.7330   48.8880 H   0  0  0  0  0  0  0  0  0  0  0  0
   60.9050   29.4728   49.2132 H   0  0  0  0  0  0  0  0  0  0  0  0
   60.7309   28.6634   47.5982 H   0  0  0  0  0  0  0  0  0  0  0  0
   62.0407   30.2010   46.6553 H   0  0  0  0  0  0  0  0  0  0  0  0
   60.8948   31.5059   47.2245 H   0  0  0  0  0  0  0  0  0  0  0  0
   62.1071   31.6469   49.3597 H   0  0  0  0  0  0  0  0  0  0  0  0
   63.2681   30.3765   48.7602 H   0  0  0  0  0  0  0  0  0  0  0  0
   64.3030   31.7870   47.4500 H   0  0  0  0  0  0  0  0  0  0  0  0
   64.3747   34.1008   48.3423 H   0  0  0  0  0  0  0  0  0  0  0  0
   63.1653   33.4350   49.5569 H   0  0  0  0  0  0  0  0  0  0  0  0
   64.8792   32.7865   50.8097 H   0  0  0  0  0  0  0  0  0  0  0  0
   65.2826   31.5926   49.5297 H   0  0  0  0  0  0  0  0  0  0  0  0
   66.0666   33.2088   49.5297 H   0  0  0  0  0  0  0  0  0  0  0  0
   62.7243   32.2643   45.8779 H   0  0  0  0  0  0  0  0  0  0  0  0
   61.7372   33.1875   47.0989 H   0  0  0  0  0  0  0  0  0  0  0  0
   63.7132   34.8245   47.2156 H   0  0  0  0  0  0  0  0  0  0  0  0
   64.3168   34.0328   45.7204 H   0  0  0  0  0  0  0  0  0  0  0  0
   62.7180   34.8517   45.7204 H   0  0  0  0  0  0  0  0  0  0  0  0
   57.7544   28.3819   46.8707 H   0  0  0  0  0  0  0  0  0  0  0  0
   56.6451   27.3902   44.8797 H   0  0  0  0  0  0  0  0  0  0  0  0
   56.2952   28.7632   42.8341 H   0  0  0  0  0  0  0  0  0  0  0  0
   57.0673   31.1214   42.7639 H   0  0  0  0  0  0  0  0  0  0  0  0
   58.7048   34.1691   43.6194 H   0  0  0  0  0  0  0  0  0  0  0  0
   59.3550   32.6723   42.8686 H   0  0  0  0  0  0  0  0  0  0  0  0
   57.5855   32.9815   42.8686 H   0  0  0  0  0  0  0  0  0  0  0  0
  1  2  1  0
  2  3  1  0
  3  4  1  0
  4  5  1  0
  3  6  1  0
  6  7  2  0
  7  8  1  0
  8  9  2  0
  9 10  1  0
 10 11  2  0
 11 12  1  0
 12 13  1  0
 13 14  1  0
 14 15  1  0
 15 16  1  0
 16 17  1  0
 17 18  1  0
 18 19  1  0
 17 20  1  0
 20 21  1  0
 12 22  2  0
 22 23  1  0
 23 24  2  0
 24 25  1  0
 25 26  2  0
 26 27  1  0
 27 28  2  0
 28 29  1  0
 11  6  1  0
 27 22  1  0
 28 10  1  0
  1 30  1  0
  1 31  1  0
  1 32  1  0
  2 33  1  0
  2 34  1  0
  4 35  1  0
  4 36  1  0
  5 37  1  0
  5 38  1  0
  5 39  1  0
  7 40  1  0
  8 41  1  0
  9 42  1  0
 13 43  1  0
 14 44  1  0
 14 45  1  0
 15 46  1  0
 15 47  1  0
 16 48  1  0
 16 49  1  0
 17 50  1  0
 18 51  1  0
 18 52  1  0
 19 53  1  0
 19 54  1  0
 19 55  1  0
 20 56  1  0
 20 57  1  0
 21 58  1  0
 21 59  1  0
 21 60  1  0
 23 61  1  0
 24 62  1  0
 25 63  1  0
 26 64  1  0
 29 65  1  0
 29 66  1  0
 29 67  1  0
M  CHG  2  17   1  28   1
M  END
>  <UniqueID>  (6) 
6

>  <SMILES>  (6) 
CCN(CC)c1cccc2c1c(NCCC[NH+](CC)CC)c1ccccc1[n+]2C

>  <Energy>  (6) 
102.94336010293166

>  <Genealogy>  (6) 
CCN(CC)c1cccc2c1c(NCCC[NH+](CC)CC)c1ccccc1[n+]2C (protonated)
CCN(CC)c1cccc2c1c(NCCC[NH+](CC)CC)c1ccccc1[n+]2C (3D coordinates assigned)
CCN(CC)c1cccc2c1c(NCCC[NH+](CC)CC)c1ccccc1[n+]2C (optimized conformer: 102.94336010293166 kcal/mol)

>  <smiles>  (6) 
CCN(CC)CCCNc1c2ccccc2[n+](C)c2cccc(N(CC)CC)c12

>  <score_type>  (6) 
oracle

>  <origin>  (6) 
adg

>  <m_score__min__energy>  (6) 
-4.6500000000000004

>  <m_primary>  (6) 
energy

$$$$
6:0
     RDKit          3D

 57 60  0  0  0  0  0  0  0  0999 V2000
   56.1480   23.2010   43.1430 C   0  0  0  0  0  0  0  0  0  0  0  0
   56.4140   23.9230   44.2340 C   0  0  0  0  0  0  0  0  0  0  0  0
   55.3530   24.2150   45.2620 C   0  0  0  0  0  0  0  0  0  0  0  0
   55.8880   25.0470   46.3620 N   0  0  0  0  0  0  0  0  0  0  0  0
   57.2130   24.5550   46.8190 C   0  0  0  0  0  0  0  0  0  0  0  0
   58.0150   25.6620   47.5140 C   0  0  0  0  0  0  0  0  0  0  0  0
   58.2970   26.8040   46.6060 N   0  0  0  0  0  0  0  0  0  0  0  0
   59.6710   26.7410   46.0600 C   0  0  0  0  0  0  0  0  0  0  0  0
   60.3800   28.1110   46.0710 C   0  0  0  0  0  0  0  0  0  0  0  0
   59.8780   29.0380   47.1080 N   0  0  0  0  0  0  0  0  0  0  0  0
   59.7970   30.4220   46.6540 C   0  0  0  0  0  0  0  0  0  0  0  0
   60.7350   31.3850   47.1230 C   0  0  0  0  0  0  0  0  0  0  0  0
   61.7710   31.0390   48.0300 C   0  0  0  0  0  0  0  0  0  0  0  0
   62.7310   31.9690   48.4180 C   0  0  0  0  0  0  0  0  0  0  0  0
   62.6940   33.2590   47.9150 C   0  0  0  0  0  0  0  0  0  0  0  0
   61.6720   33.6400   47.0500 C   0  0  0  0  0  0  0  0  0  0  0  0
   60.6500   32.7310   46.6710 C   0  0  0  0  0  0  0  0  0  0  0  0
   59.6000   33.1340   45.8750 N   0  0  0  0  0  0  0  0  0  0  0  0
   59.3290   34.5780   45.6850 C   0  0  0  0  0  0  0  0  0  0  0  0
   58.7810   32.1970   45.2810 C   0  0  0  0  0  0  0  0  0  0  0  0
   57.8940   32.5630   44.2340 C   0  0  0  0  0  0  0  0  0  0  0  0
   57.0190   31.6420   43.6720 C   0  0  0  0  0  0  0  0  0  0  0  0
   57.0090   30.3320   44.1220 C   0  0  0  0  0  0  0  0  0  0  0  0
   57.8980   29.9260   45.1120 C   0  0  0  0  0  0  0  0  0  0  0  0
   58.8230   30.8330   45.6950 C   0  0  0  0  0  0  0  0  0  0  0  0
   57.2780   26.9620   45.5370 C   0  0  0  0  0  0  0  0  0  0  0  0
   55.8930   26.4870   46.0000 C   0  0  0  0  0  0  0  0  0  0  0  0
   56.9418   23.0025   42.4078 H   0  0  0  0  0  0  0  0  0  0  0  0
   55.1351   22.8046   42.9793 H   0  0  0  0  0  0  0  0  0  0  0  0
   57.4312   24.3134   44.3854 H   0  0  0  0  0  0  0  0  0  0  0  0
   54.5226   24.7504   44.7784 H   0  0  0  0  0  0  0  0  0  0  0  0
   55.0056   23.2607   45.6846 H   0  0  0  0  0  0  0  0  0  0  0  0
   57.0619   23.7257   47.5257 H   0  0  0  0  0  0  0  0  0  0  0  0
   57.7794   24.2203   45.9375 H   0  0  0  0  0  0  0  0  0  0  0  0
   57.4391   26.0288   48.3765 H   0  0  0  0  0  0  0  0  0  0  0  0
   58.9784   25.2346   47.8291 H   0  0  0  0  0  0  0  0  0  0  0  0
   60.2585   26.0359   46.6664 H   0  0  0  0  0  0  0  0  0  0  0  0
   59.5973   26.4137   45.0124 H   0  0  0  0  0  0  0  0  0  0  0  0
   61.4531   27.9441   46.2460 H   0  0  0  0  0  0  0  0  0  0  0  0
   60.1787   28.5821   45.0976 H   0  0  0  0  0  0  0  0  0  0  0  0
   60.5100   28.9890   47.9380 H   0  0  0  0  0  0  0  0  0  0  0  0
   58.9860   28.6790   47.5060 H   0  0  0  0  0  0  0  0  0  0  0  0
   61.8158   30.0167   48.4336 H   0  0  0  0  0  0  0  0  0  0  0  0
   63.5212   31.6788   49.1260 H   0  0  0  0  0  0  0  0  0  0  0  0
   63.4723   33.9825   48.1991 H   0  0  0  0  0  0  0  0  0  0  0  0
   61.6562   34.6655   46.6525 H   0  0  0  0  0  0  0  0  0  0  0  0
   59.2374   35.0661   46.6665 H   0  0  0  0  0  0  0  0  0  0  0  0
   60.1569   35.0357   45.1237 H   0  0  0  0  0  0  0  0  0  0  0  0
   58.3915   34.7044   45.1237 H   0  0  0  0  0  0  0  0  0  0  0  0
   57.9000   33.5975   43.8602 H   0  0  0  0  0  0  0  0  0  0  0  0
   56.3340   31.9530   42.8695 H   0  0  0  0  0  0  0  0  0  0  0  0
   56.2963   29.6109   43.6954 H   0  0  0  0  0  0  0  0  0  0  0  0
   57.8844   28.8796   45.4509 H   0  0  0  0  0  0  0  0  0  0  0  0
   57.2159   28.0241   45.2575 H   0  0  0  0  0  0  0  0  0  0  0  0
   57.5829   26.3463   44.6780 H   0  0  0  0  0  0  0  0  0  0  0  0
   55.5923   27.0748   46.8798 H   0  0  0  0  0  0  0  0  0  0  0  0
   55.1902   26.6288   45.1658 H   0  0  0  0  0  0  0  0  0  0  0  0
  1  2  2  0
  2  3  1  0
  3  4  1  0
  4  5  1  0
  5  6  1  0
  6  7  1  0
  7  8  1  0
  8  9  1  0
  9 10  1  0
 10 11  1  0
 11 12  1  0
 12 13  2  0
 13 14  1  0
 14 15  2  0
 15 16  1  0
 16 17  2  0
 17 18  1  0
 18 19  1  0
 18 20  2  0
 20 21  1  0
 21 22  2  0
 22 23  1  0
 23 24  2  0
 24 25  1  0
  7 26  1  0
 26 27  1  0
 27  4  1  0
 25 11  2  0
 17 12  1  0
 25 20  1  0
  1 28  1  0
  1 29  1  0
  2 30  1  0
  3 31  1  0
  3 32  1  0
  5 33  1  0
  5 34  1  0
  6 35  1  0
  6 36  1  0
  8 37  1  0
  8 38  1  0
  9 39  1  0
  9 40  1  0
 10 41  1  0
 10 42  1  0
 13 43  1  0
 14 44  1  0
 15 45  1  0
 16 46  1  0
 19 47  1  0
 19 48  1  0
 19 49  1  0
 21 50  1  0
 22 51  1  0
 23 52  1  0
 24 53  1  0
 26 54  1  0
 26 55  1  0
 27 56  1  0
 27 57  1  0
M  CHG  2  10   1  18   1
M  END
>  <UniqueID>  (7) 
7

>  <SMILES>  (7) 
C=CCN1CCN(CC[NH2+]c2c3ccccc3[n+](C)c3ccccc23)CC1

>  <Energy>  (7) 
97.85240344218099

>  <Genealogy>  (7) 
C=CCN1CCN(CC[NH2+]c2c3ccccc3[n+](C)c3ccccc23)CC1 (protonated)
C=CCN1CCN(CC[NH2+]c2c3ccccc3[n+](C)c3ccccc23)CC1 (3D coordinates assigned)
C=CCN1CCN(CC[NH2+]c2c3ccccc3[n+](C)c3ccccc23)CC1 (nonaromatic ring conformer: 97.85240344218099 kcal/mol)

>  <smiles>  (7) 
C=CCN1CCN(CCNc2c3ccccc3[n+](C)c3ccccc23)CC1

>  <score_type>  (7) 
oracle

>  <origin>  (7) 
adg

>  <m_score__min__energy>  (7) 
-5.1699999999999999

>  <m_primary>  (7) 
energy

$$$$
7:0
     RDKit          3D

 43 44  0  0  0  0  0  0  0  0999 V2000
   58.7054   28.6412   44.9911 H   0  0  0  0  0  0  0  0  0  0  0  0
   58.0220   28.4860   45.8390 C   0  0  0  0  0  0  0  0  0  0  0  0
   56.6320   28.0860   45.5660 C   0  0  0  0  0  0  0  0  0  0  0  0
   56.3210   26.8660   45.6430 O   0  0  0  0  0  0  0  0  0  0  0  0
   55.6380   29.0600   45.2180 N   0  0  0  0  0  0  0  0  0  0  0  0
   55.5960   29.7390   43.9280 C   0  0  0  0  0  0  0  0  0  0  0  0
   54.9624   29.1604   43.2397 H   0  0  0  0  0  0  0  0  0  0  0  0
   55.1862   30.7482   44.0818 H   0  0  0  0  0  0  0  0  0  0  0  0
   57.0020   29.8760   43.3180 C   0  0  0  0  0  0  0  0  0  0  0  0
   57.5821   28.9775   43.5754 H   0  0  0  0  0  0  0  0  0  0  0  0
   56.8730   29.9929   42.2319 H   0  0  0  0  0  0  0  0  0  0  0  0
   57.7720   31.1130   43.8180 C   0  0  0  0  0  0  0  0  0  0  0  0
   58.7137   30.7716   44.2727 H   0  0  0  0  0  0  0  0  0  0  0  0
   57.9288   31.7605   42.9427 H   0  0  0  0  0  0  0  0  0  0  0  0
   57.0130   31.9560   44.8580 C   0  0  0  0  0  0  0  0  0  0  0  0
   56.1708   32.4556   44.3568 H   0  0  0  0  0  0  0  0  0  0  0  0
   56.6732   31.2726   45.6502 H   0  0  0  0  0  0  0  0  0  0  0  0
   57.8770   33.0080   45.5100 C   0  0  0  0  0  0  0  0  0  0  0  0
   58.5550   33.9530   44.7260 C   0  0  0  0  0  0  0  0  0  0  0  0
   58.4593   33.9324   43.6304 H   0  0  0  0  0  0  0  0  0  0  0  0
   59.3520   34.9200   45.3420 C   0  0  0  0  0  0  0  0  0  0  0  0
   59.8972   35.6536   44.7300 H   0  0  0  0  0  0  0  0  0  0  0  0
   59.4550   34.9560   46.6970 N   0  0  0  0  0  0  0  0  0  0  0  0
   58.7920   34.0690   47.4860 C   0  0  0  0  0  0  0  0  0  0  0  0
   58.8916   34.1258   48.5800 H   0  0  0  0  0  0  0  0  0  0  0  0
   57.9840   33.0850   46.9090 C   0  0  0  0  0  0  0  0  0  0  0  0
   57.4355   32.3755   47.5460 H   0  0  0  0  0  0  0  0  0  0  0  0
   58.4850   28.6680   47.0840 C   0  0  0  0  0  0  0  0  0  0  0  0
   58.1288   27.9918   47.8751 H   0  0  0  0  0  0  0  0  0  0  0  0
   59.4510   29.7310   47.4530 C   0  0  0  0  0  0  0  0  0  0  0  0
   59.6540   30.1380   48.7870 C   0  0  0  0  0  0  0  0  0  0  0  0
   59.0798   29.6645   49.5970 H   0  0  0  0  0  0  0  0  0  0  0  0
   60.5820   31.1410   49.0860 C   0  0  0  0  0  0  0  0  0  0  0  0
   60.7362   31.4493   50.1306 H   0  0  0  0  0  0  0  0  0  0  0  0
   61.3170   31.7560   48.0620 C   0  0  0  0  0  0  0  0  0  0  0  0
   62.3390   32.8040   48.3900 C   0  0  0  0  0  0  0  0  0  0  0  0
   62.4305   32.8978   49.4822 H   0  0  0  0  0  0  0  0  0  0  0  0
   63.3110   32.5143   47.9642 H   0  0  0  0  0  0  0  0  0  0  0  0
   62.0250   33.7684   47.9642 H   0  0  0  0  0  0  0  0  0  0  0  0
   61.1420   31.3290   46.7390 C   0  0  0  0  0  0  0  0  0  0  0  0
   61.7363   31.7853   45.9337 H   0  0  0  0  0  0  0  0  0  0  0  0
   60.2160   30.3260   46.4370 C   0  0  0  0  0  0  0  0  0  0  0  0
   60.0856   30.0002   45.3945 H   0  0  0  0  0  0  0  0  0  0  0  0
  1  2  1  0
  2  3  1  0
  3  4  2  0
  3  5  1  0
  5  6  1  0
  6  7  1  0
  6  8  1  0
  6  9  1  0
  9 10  1  0
  9 11  1  0
  9 12  1  0
 12 13  1  0
 12 14  1  0
 12 15  1  0
 15 16  1  0
 15 17  1  0
 15 18  1  0
 18 19  2  0
 19 20  1  0
 19 21  1  0
 21 22  1  0
 21 23  2  0
 23 24  1  0
 24 25  1  0
 24 26  2  0
 26 27  1  0
  2 28  2  0
 28 29  1  0
 28 30  1  0
 30 31  2  0
 31 32  1  0
 31 33  1  0
 33 34  1  0
 33 35  2  0
 35 36  1  0
 36 37  1  0
 36 38  1  0
 36 39  1  0
 35 40  1  0
 40 41  1  0
 40 42  2  0
 42 43  1  0
 26 18  1  0
 42 30  1  0
M  CHG  1   5  -1
M  END
>  <UniqueID>  (8) 
8

>  <SMILES>  (8) 
Cc1ccc(/C=C/C(=O)[N-]CCCCc2ccncc2)cc1

>  <Energy>  (8) 
37.29332507218376

>  <Genealogy>  (8) 
Cc1ccc(C=CC(=O)[N-]CCCCc2ccncc2)cc1 (protonated)
Cc1ccc(/C=C/C(=O)[N-]CCCCc2ccncc2)cc1 (cis-trans isomerization)
Cc1ccc(/C=C/C(=O)[N-]CCCCc2ccncc2)cc1 (3D coordinates assigned)
Cc1ccc(/C=C/C(=O)[N-]CCCCc2ccncc2)cc1 (optimized conformer: 37.29332507218376 kcal/mol)

>  <smiles>  (8) 
Cc1ccc(C=CC(=O)NCCCCc2ccncc2)cc1

>  <score_type>  (8) 
oracle

>  <origin>  (8) 
adg

>  <m_score__min__energy>  (8) 
-9.3900000000000006

>  <m_primary>  (8) 
energy

$$$$
8:0
     RDKit          3D

 46 49  0  0  0  0  0  0  0  0999 V2000
   56.6640   33.4680   46.3370 F   0  0  0  0  0  0  0  0  0  0  0  0
   57.0030   34.2550   45.2510 C   0  0  0  0  0  0  0  0  0  0  0  0
   58.5100   34.2130   45.0160 C   0  0  0  0  0  0  0  0  0  0  0  0
   59.0720   32.9460   45.4920 N   0  0  0  0  0  0  0  0  0  0  0  0
   60.0740   32.7840   46.3970 C   0  0  0  0  0  0  0  0  0  0  0  0
   60.2560   31.4430   46.6900 C   0  0  0  0  0  0  0  0  0  0  0  0
   59.3530   30.7550   45.9090 C   0  0  0  0  0  0  0  0  0  0  0  0
   59.1080   29.3890   45.7870 C   0  0  0  0  0  0  0  0  0  0  0  0
   58.0840   28.9690   44.9070 C   0  0  0  0  0  0  0  0  0  0  0  0
   57.7830   27.5250   44.7420 C   0  0  0  0  0  0  0  0  0  0  0  0
   57.2300   26.7840   45.8030 C   0  0  0  0  0  0  0  0  0  0  0  0
   56.9470   25.4240   45.6470 C   0  0  0  0  0  0  0  0  0  0  0  0
   57.2070   24.7880   44.4290 C   0  0  0  0  0  0  0  0  0  0  0  0
   56.8540   23.0380   44.2350 S   0  0  0  0  0  0  0  0  0  0  0  0
   58.4710   22.4780   44.8680 C   0  0  0  0  0  0  0  0  0  0  0  0
   59.1460   21.8220   43.8560 F   0  0  0  0  0  0  0  0  0  0  0  0
   59.2220   23.5620   45.2810 F   0  0  0  0  0  0  0  0  0  0  0  0
   58.2910   21.6070   45.9270 F   0  0  0  0  0  0  0  0  0  0  0  0
   57.7660   25.5120   43.3720 C   0  0  0  0  0  0  0  0  0  0  0  0
   58.0500   26.8730   43.5240 C   0  0  0  0  0  0  0  0  0  0  0  0
   57.3430   29.9440   44.1850 C   0  0  0  0  0  0  0  0  0  0  0  0
   57.6170   31.3140   44.3310 C   0  0  0  0  0  0  0  0  0  0  0  0
   58.6420   31.6950   45.2020 C   0  0  0  0  0  0  0  0  0  0  0  0
   61.3010   30.9100   47.6230 C   0  0  0  0  0  0  0  0  0  0  0  0
   61.7910   32.0230   48.5660 C   0  0  0  0  0  0  0  0  0  0  0  0
   62.0790   33.3300   47.8000 C   0  0  0  0  0  0  0  0  0  0  0  0
   60.8140   33.8810   47.1130 C   0  0  0  0  0  0  0  0  0  0  0  0
   56.4856   33.8801   44.3556 H   0  0  0  0  0  0  0  0  0  0  0  0
   56.7014   35.2933   45.4537 H   0  0  0  0  0  0  0  0  0  0  0  0
   58.7108   34.3156   43.9394 H   0  0  0  0  0  0  0  0  0  0  0  0
   58.9783   35.0391   45.5713 H   0  0  0  0  0  0  0  0  0  0  0  0
   59.6956   28.6566   46.3600 H   0  0  0  0  0  0  0  0  0  0  0  0
   57.0188   27.2788   46.7625 H   0  0  0  0  0  0  0  0  0  0  0  0
   56.5189   24.8529   46.4840 H   0  0  0  0  0  0  0  0  0  0  0  0
   57.9832   25.0098   42.4177 H   0  0  0  0  0  0  0  0  0  0  0  0
   58.4849   27.4374   42.6859 H   0  0  0  0  0  0  0  0  0  0  0  0
   56.5435   29.6209   43.5021 H   0  0  0  0  0  0  0  0  0  0  0  0
   57.0401   32.0673   43.7745 H   0  0  0  0  0  0  0  0  0  0  0  0
   60.8717   30.0915   48.2195 H   0  0  0  0  0  0  0  0  0  0  0  0
   62.1524   30.5393   47.0333 H   0  0  0  0  0  0  0  0  0  0  0  0
   61.0166   32.2161   49.3230 H   0  0  0  0  0  0  0  0  0  0  0  0
   62.7264   31.6873   49.0376 H   0  0  0  0  0  0  0  0  0  0  0  0
   62.4559   34.0824   48.5085 H   0  0  0  0  0  0  0  0  0  0  0  0
   62.8243   33.1127   47.0208 H   0  0  0  0  0  0  0  0  0  0  0  0
   60.1544   34.3240   47.8737 H   0  0  0  0  0  0  0  0  0  0  0  0
   61.1151   34.6415   46.3775 H   0  0  0  0  0  0  0  0  0  0  0  0
  1  2  1  0
  2  3  1  0
  3  4  1  0
  4  5  1  0
  5  6  2  0
  6  7  1  0
  7  8  2  0
  8  9  1  0
  9 10  1  0
 10 11  2  0
 11 12  1  0
 12 13  2  0
 13 14  1  0
 14 15  1  0
 15 16  1  0
 15 17  1  0
 15 18  1  0
 13 19  1  0
 19 20  2  0
  9 21  2  0
 21 22  1  0
 22 23  2  0
  6 24  1  0
 24 25  1  0
 25 26  1  0
 26 27  1  0
 23  4  1  0
 27  5  1  0
 23  7  1  0
 20 10  1  0
  2 28  1  0
  2 29  1  0
  3 30  1  0
  3 31  1  0
  8 32  1  0
 11 33  1  0
 12 34  1  0
 19 35  1  0
 20 36  1  0
 21 37  1  0
 22 38  1  0
 24 39  1  0
 24 40  1  0
 25 41  1  0
 25 42  1  0
 26 43  1  0
 26 44  1  0
 27 45  1  0
 27 46  1  0
M  END
>  <UniqueID>  (9) 
9

>  <SMILES>  (9) 
FCCn1c2c(c3cc(-c4ccc(SC(F)(F)F)cc4)ccc31)CCCC2

>  <Energy>  (9) 
80.9644724430236

>  <Genealogy>  (9) 
FCCn1c2c(c3cc(-c4ccc(SC(F)(F)F)cc4)ccc31)CCCC2 (3D coordinates assigned)
FCCn1c2c(c3cc(-c4ccc(SC(F)(F)F)cc4)ccc31)CCCC2 (nonaromatic ring conformer: 80.9644724430236 kcal/mol)

>  <smiles>  (9) 
FCCn1c2c(c3cc(-c4ccc(SC(F)(F)F)cc4)ccc31)CCCC2

>  <score_type>  (9) 
oracle

>  <origin>  (9) 
adg

>  <m_score__min__energy>  (9) 
-7.3499999999999996

>  <m_primary>  (9) 
energy

$$$$
9:0
     RDKit          3D

 84 87  0  0  0  0  0  0  0  0999 V2000
   64.9760   32.8330   49.7370 C   0  0  0  0  0  0  0  0  0  0  0  0
   63.8260   31.9300   49.2640 C   0  0  0  0  0  0  0  0  0  0  0  0
   62.7980   32.6320   48.4590 N   0  0  0  0  0  0  0  0  0  0  0  0
   63.2790   32.9490   47.0990 C   0  0  0  0  0  0  0  0  0  0  0  0
   62.2540   33.8190   49.1520 C   0  0  0  0  0  0  0  0  0  0  0  0
   61.0580   33.4340   50.0400 C   0  0  0  0  0  0  0  0  0  0  0  0
   60.9100   31.9750   50.1870 N   0  0  0  0  0  0  0  0  0  0  0  0
   59.5220   31.4780   50.1350 C   0  0  0  0  0  0  0  0  0  0  0  0
   59.2110   30.6680   48.8610 C   0  0  0  0  0  0  0  0  0  0  0  0
   60.1870   30.9300   47.7840 N   0  0  0  0  0  0  0  0  0  0  0  0
   59.5330   31.2720   46.5260 C   0  0  0  0  0  0  0  0  0  0  0  0
   59.4850   32.6330   46.1020 C   0  0  0  0  0  0  0  0  0  0  0  0
   60.0890   33.6710   46.8580 C   0  0  0  0  0  0  0  0  0  0  0  0
   59.9840   35.0040   46.4700 C   0  0  0  0  0  0  0  0  0  0  0  0
   59.2660   35.3420   45.3340 C   0  0  0  0  0  0  0  0  0  0  0  0
   58.6820   34.3460   44.5560 C   0  0  0  0  0  0  0  0  0  0  0  0
   58.8190   32.9710   44.8920 C   0  0  0  0  0  0  0  0  0  0  0  0
   58.3090   31.9830   44.0780 N   0  0  0  0  0  0  0  0  0  0  0  0
   57.9010   32.3070   42.6890 C   0  0  0  0  0  0  0  0  0  0  0  0
   58.2120   30.6850   44.5360 C   0  0  0  0  0  0  0  0  0  0  0  0
   57.4420   29.7230   43.8380 C   0  0  0  0  0  0  0  0  0  0  0  0
   57.4020   28.3940   44.2390 C   0  0  0  0  0  0  0  0  0  0  0  0
   58.1240   27.9730   45.3580 C   0  0  0  0  0  0  0  0  0  0  0  0
   58.1400   26.6340   45.7870 O   0  0  0  0  0  0  0  0  0  0  0  0
   57.5710   26.1530   47.0070 C   0  0  0  0  0  0  0  0  0  0  0  0
   57.7320   24.6200   47.1000 C   0  0  0  0  0  0  0  0  0  0  0  0
   56.7240   23.7930   46.3520 N   0  0  0  0  0  0  0  0  0  0  0  0
   55.6020   23.5770   47.3130 C   0  0  0  0  0  0  0  0  0  0  0  0
   56.1680   24.5400   45.1710 C   0  0  0  0  0  0  0  0  0  0  0  0
   56.9930   24.4740   43.8620 C   0  0  0  0  0  0  0  0  0  0  0  0
   56.6010   23.2870   42.9720 C   0  0  0  0  0  0  0  0  0  0  0  0
   57.0910   21.9460   43.5200 C   0  0  0  0  0  0  0  0  0  0  0  0
   56.5680   21.6480   44.9310 C   0  0  0  0  0  0  0  0  0  0  0  0
   57.3150   22.4530   46.0230 C   0  0  0  0  0  0  0  0  0  0  0  0
   58.8440   28.9140   46.0960 C   0  0  0  0  0  0  0  0  0  0  0  0
   58.8740   30.2870   45.7320 C   0  0  0  0  0  0  0  0  0  0  0  0
   64.9993   32.8513   50.8366 H   0  0  0  0  0  0  0  0  0  0  0  0
   65.9306   32.4406   49.3565 H   0  0  0  0  0  0  0  0  0  0  0  0
   64.8212   33.8534   49.3565 H   0  0  0  0  0  0  0  0  0  0  0  0
   64.2512   31.1210   48.6519 H   0  0  0  0  0  0  0  0  0  0  0  0
   63.3219   31.5581   50.1682 H   0  0  0  0  0  0  0  0  0  0  0  0
   64.1958   33.5532   47.1659 H   0  0  0  0  0  0  0  0  0  0  0  0
   63.4940   32.0150   46.5591 H   0  0  0  0  0  0  0  0  0  0  0  0
   62.5055   33.5149   46.5591 H   0  0  0  0  0  0  0  0  0  0  0  0
   63.0411   34.2622   49.7797 H   0  0  0  0  0  0  0  0  0  0  0  0
   61.9133   34.5425   48.3967 H   0  0  0  0  0  0  0  0  0  0  0  0
   61.2022   33.8760   51.0369 H   0  0  0  0  0  0  0  0  0  0  0  0
   60.1465   33.8151   49.5563 H   0  0  0  0  0  0  0  0  0  0  0  0
   61.4510   31.5190   49.4160 H   0  0  0  0  0  0  0  0  0  0  0  0
   59.3492   30.8333   51.0093 H   0  0  0  0  0  0  0  0  0  0  0  0
   58.8613   32.3575   50.1309 H   0  0  0  0  0  0  0  0  0  0  0  0
   59.2341   29.5963   49.1076 H   0  0  0  0  0  0  0  0  0  0  0  0
   58.2178   30.9730   48.4997 H   0  0  0  0  0  0  0  0  0  0  0  0
   60.7810   30.0830   47.6410 H   0  0  0  0  0  0  0  0  0  0  0  0
   60.8970   31.6250   48.0920 H   0  0  0  0  0  0  0  0  0  0  0  0
   60.6514   33.4174   47.7687 H   0  0  0  0  0  0  0  0  0  0  0  0
   60.4715   35.7897   47.0658 H   0  0  0  0  0  0  0  0  0  0  0  0
   59.1574   36.3982   45.0467 H   0  0  0  0  0  0  0  0  0  0  0  0
   58.1034   34.6282   43.6641 H   0  0  0  0  0  0  0  0  0  0  0  0
   57.0397   32.9909   42.7099 H   0  0  0  0  0  0  0  0  0  0  0  0
   58.7389   32.7885   42.1636 H   0  0  0  0  0  0  0  0  0  0  0  0
   57.6218   31.3818   42.1636 H   0  0  0  0  0  0  0  0  0  0  0  0
   56.8618   30.0359   42.9574 H   0  0  0  0  0  0  0  0  0  0  0  0
   56.7987   27.6693   43.6725 H   0  0  0  0  0  0  0  0  0  0  0  0
   58.0835   26.6249   47.8583 H   0  0  0  0  0  0  0  0  0  0  0  0
   56.5003   26.4043   47.0284 H   0  0  0  0  0  0  0  0  0  0  0  0
   58.7287   24.3645   46.7110 H   0  0  0  0  0  0  0  0  0  0  0  0
   57.5792   24.3752   48.1615 H   0  0  0  0  0  0  0  0  0  0  0  0
   55.9820   23.6501   48.3427 H   0  0  0  0  0  0  0  0  0  0  0  0
   54.8289   24.3428   47.1522 H   0  0  0  0  0  0  0  0  0  0  0  0
   55.1685   22.5789   47.1522 H   0  0  0  0  0  0  0  0  0  0  0  0
   55.1690   24.1321   44.9575 H   0  0  0  0  0  0  0  0  0  0  0  0
   56.1748   25.5995   45.4667 H   0  0  0  0  0  0  0  0  0  0  0  0
   56.8323   25.4046   43.2979 H   0  0  0  0  0  0  0  0  0  0  0  0
   58.0488   24.3440   44.1418 H   0  0  0  0  0  0  0  0  0  0  0  0
   55.5043   23.2544   42.8930 H   0  0  0  0  0  0  0  0  0  0  0  0
   57.0773   23.4374   41.9919 H   0  0  0  0  0  0  0  0  0  0  0  0
   56.7524   21.1465   42.8446 H   0  0  0  0  0  0  0  0  0  0  0  0
   58.1882   21.9960   43.5795 H   0  0  0  0  0  0  0  0  0  0  0  0
   55.4992   21.9049   44.9726 H   0  0  0  0  0  0  0  0  0  0  0  0
   56.7353   20.5793   45.1305 H   0  0  0  0  0  0  0  0  0  0  0  0
   57.3230   21.8504   46.9432 H   0  0  0  0  0  0  0  0  0  0  0  0
   58.3177   22.6549   45.6183 H   0  0  0  0  0  0  0  0  0  0  0  0
   59.4034   28.5835   46.9836 H   0  0  0  0  0  0  0  0  0  0  0  0
  1  2  1  0
  2  3  1  0
  3  4  1  0
  3  5  1  0
  5  6  1  0
  6  7  1  0
  7  8  1  0
  8  9  1  0
  9 10  1  0
 10 11  1  0
 11 12  2  0
 12 13  1  0
 13 14  2  0
 14 15  1  0
 15 16  2  0
 16 17  1  0
 17 18  2  0
 18 19  1  0
 18 20  1  0
 20 21  2  0
 21 22  1  0
 22 23  2  0
 23 24  1  0
 24 25  1  0
 25 26  1  0
 26 27  1  0
 27 28  1  0
 27 29  1  0
 29 30  1  0
 30 31  1  0
 31 32  1  0
 32 33  1  0
 33 34  1  0
 23 35  1  0
 35 36  2  0
 36 11  1  0
 17 12  1  0
 36 20  1  0
 34 27  1  0
  1 37  1  0
  1 38  1  0
  1 39  1  0
  2 40  1  0
  2 41  1  0
  4 42  1  0
  4 43  1  0
  4 44  1  0
  5 45  1  0
  5 46  1  0
  6 47  1  0
  6 48  1  0
  7 49  1  0
  8 50  1  0
  8 51  1  0
  9 52  1  0
  9 53  1  0
 10 54  1  0
 10 55  1  0
 13 56  1  0
 14 57  1  0
 15 58  1  0
 16 59  1  0
 19 60  1  0
 19 61  1  0
 19 62  1  0
 21 63  1  0
 22 64  1  0
 25 65  1  0
 25 66  1  0
 26 67  1  0
 26 68  1  0
 28 69  1  0
 28 70  1  0
 28 71  1  0
 29 72  1  0
 29 73  1  0
 30 74  1  0
 30 75  1  0
 31 76  1  0
 31 77  1  0
 32 78  1  0
 32 79  1  0
 33 80  1  0
 33 81  1  0
 34 82  1  0
 34 83  1  0
 35 84  1  0
M  CHG  3  10   1  18   1  27   1
M  END
>  <UniqueID>  (10) 
10

>  <SMILES>  (10) 
CCN(C)CCNCC[NH2+]c1c2ccccc2[n+](C)c2ccc(OCC[N+]3(C)CCCCCC3)cc12

>  <Energy>  (10) 
137.04399549439003

>  <Genealogy>  (10) 
CCN(C)CCNCC[NH2+]c1c2ccccc2[n+](C)c2ccc(OCC[N+]3(C)CCCCCC3)cc12 (protonated)
CCN(C)CCNCC[NH2+]c1c2ccccc2[n+](C)c2ccc(OCC[N+]3(C)CCCCCC3)cc12 (3D coordinates assigned)
CCN(C)CCNCC[NH2+]c1c2ccccc2[n+](C)c2ccc(OCC[N+]3(C)CCCCCC3)cc12 (nonaromatic ring conformer: 137.04399549439003 kcal/mol)

>  <smiles>  (10) 
CCN(C)CCNCCNc1c2ccccc2[n+](C)c2ccc(OCC[N+]3(C)CCCCCC3)cc12

>  <score_type>  (10) 
oracle

>  <origin>  (10) 
adg

>  <m_score__min__energy>  (10) 
-1.8

>  <m_primary>  (10) 
energy

$$$$
10:0
     RDKit          3D

 51 53  0  0  0  0  0  0  0  0999 V2000
   59.8070   34.9840   46.2050 C   0  0  0  0  0  0  0  0  0  0  0  0
   58.9000   33.8880   45.8320 N   0  0  0  0  0  0  0  0  0  0  0  0
   57.5510   34.1120   46.3750 C   0  0  0  0  0  0  0  0  0  0  0  0
   58.8910   33.6220   44.3740 C   0  0  0  0  0  0  0  0  0  0  0  0
   58.0920   32.3980   43.9790 C   0  0  0  0  0  0  0  0  0  0  0  0
   57.7570   32.1710   42.6350 C   0  0  0  0  0  0  0  0  0  0  0  0
   57.0160   31.0440   42.2730 C   0  0  0  0  0  0  0  0  0  0  0  0
   56.5980   30.1360   43.2480 C   0  0  0  0  0  0  0  0  0  0  0  0
   56.9140   30.3570   44.5970 C   0  0  0  0  0  0  0  0  0  0  0  0
   56.5270   29.4270   45.6160 N   0  0  0  0  0  0  0  0  0  0  0  0
   57.0610   28.1100   45.8010 C   0  0  0  0  0  0  0  0  0  0  0  0
   56.2900   27.1210   45.6700 O   0  0  0  0  0  0  0  0  0  0  0  0
   58.5350   27.8760   46.0230 C   0  0  1  0  0  0  0  0  0  0  0  0
   59.2350   27.6370   44.7290 C   0  0  0  0  0  0  0  0  0  0  0  0
   60.1560   28.5680   44.5040 C   0  0  0  0  0  0  0  0  0  0  0  0
   60.2020   29.5580   45.6140 C   0  0  0  0  0  0  0  0  0  0  0  0
   59.1730   29.0860   46.5330 N   0  0  0  0  0  0  0  0  0  0  0  0
   58.8870   29.6610   47.8230 C   0  0  0  0  0  0  0  0  0  0  0  0
   58.5400   28.9100   48.7740 O   0  0  0  0  0  0  0  0  0  0  0  0
   59.0050   31.1390   48.0730 C   0  0  0  0  0  0  0  0  0  0  0  0
   60.4220   31.5140   48.4190 C   0  0  0  0  0  0  0  0  0  0  0  0
   61.0180   31.0410   49.5980 C   0  0  0  0  0  0  0  0  0  0  0  0
   62.3340   31.3900   49.9110 C   0  0  0  0  0  0  0  0  0  0  0  0
   63.0700   32.2140   49.0510 C   0  0  0  0  0  0  0  0  0  0  0  0
   64.7260   32.6230   49.4730 Cl  0  0  0  0  0  0  0  0  0  0  0  0
   62.4810   32.6900   47.8670 C   0  0  0  0  0  0  0  0  0  0  0  0
   63.3760   33.7090   46.7480 Cl  0  0  0  0  0  0  0  0  0  0  0  0
   61.1610   32.3420   47.5580 C   0  0  0  0  0  0  0  0  0  0  0  0
   57.6820   31.4720   44.9540 C   0  0  0  0  0  0  0  0  0  0  0  0
   59.8654   35.0546   47.3012 H   0  0  0  0  0  0  0  0  0  0  0  0
   60.8089   34.7860   45.7964 H   0  0  0  0  0  0  0  0  0  0  0  0
   59.4250   35.9312   45.7964 H   0  0  0  0  0  0  0  0  0  0  0  0
   57.5924   34.1051   47.4742 H   0  0  0  0  0  0  0  0  0  0  0  0
   57.1732   35.0852   46.0284 H   0  0  0  0  0  0  0  0  0  0  0  0
   56.8789   33.3132   46.0284 H   0  0  0  0  0  0  0  0  0  0  0  0
   58.4595   34.4965   43.8650 H   0  0  0  0  0  0  0  0  0  0  0  0
   59.9332   33.4326   44.0774 H   0  0  0  0  0  0  0  0  0  0  0  0
   58.0799   32.8847   41.8627 H   0  0  0  0  0  0  0  0  0  0  0  0
   56.7609   30.8711   41.2170 H   0  0  0  0  0  0  0  0  0  0  0  0
   56.0201   29.2461   42.9580 H   0  0  0  0  0  0  0  0  0  0  0  0
   58.6078   27.0225   46.7131 H   0  0  0  0  0  0  0  0  0  0  0  0
   59.0177   26.7998   44.0494 H   0  0  0  0  0  0  0  0  0  0  0  0
   60.8005   28.6024   43.6132 H   0  0  0  0  0  0  0  0  0  0  0  0
   61.1899   29.5610   46.0977 H   0  0  0  0  0  0  0  0  0  0  0  0
   60.0329   30.5906   45.2748 H   0  0  0  0  0  0  0  0  0  0  0  0
   58.6994   31.6830   47.1671 H   0  0  0  0  0  0  0  0  0  0  0  0
   58.3543   31.4054   48.9190 H   0  0  0  0  0  0  0  0  0  0  0  0
   60.4466   30.3927   50.2786 H   0  0  0  0  0  0  0  0  0  0  0  0
   62.7941   31.0157   50.8374 H   0  0  0  0  0  0  0  0  0  0  0  0
   60.6989   32.7197   46.6340 H   0  0  0  0  0  0  0  0  0  0  0  0
   57.9667   31.6246   46.0055 H   0  0  0  0  0  0  0  0  0  0  0  0
  1  2  1  0
  2  3  1  0
  2  4  1  0
  4  5  1  0
  5  6  2  0
  6  7  1  0
  7  8  2  0
  8  9  1  0
  9 10  1  0
 10 11  1  0
 11 12  2  0
 11 13  1  0
 13 14  1  0
 14 15  2  0
 15 16  1  0
 16 17  1  0
 17 18  1  0
 18 19  2  0
 18 20  1  0
 20 21  1  0
 21 22  2  0
 22 23  1  0
 23 24  2  0
 24 25  1  0
 24 26  1  0
 26 27  1  0
 26 28  2  0
  9 29  2  0
 29  5  1  0
 17 13  1  0
 28 21  1  0
  1 30  1  0
  1 31  1  0
  1 32  1  0
  3 33  1  0
  3 34  1  0
  3 35  1  0
  4 36  1  0
  4 37  1  0
  6 38  1  0
  7 39  1  0
  8 40  1  0
 13 41  1  1
 14 42  1  0
 15 43  1  0
 16 44  1  0
 16 45  1  0
 20 46  1  0
 20 47  1  0
 22 48  1  0
 23 49  1  0
 28 50  1  0
 29 51  1  0
M  CHG  1  10  -1
M  END
>  <UniqueID>  (11) 
11

>  <SMILES>  (11) 
CN(C)Cc1cccc([N-]C(=O)[C@H]2C=CCN2C(=O)Cc2ccc(Cl)c(Cl)c2)c1

>  <Energy>  (11) 
63.4375141013174

>  <Genealogy>  (11) 
CN(C)Cc1cccc([N-]C(=O)C2C=CCN2C(=O)Cc2ccc(Cl)c(Cl)c2)c1 (protonated)
CN(C)Cc1cccc([N-]C(=O)[C@H]2C=CCN2C(=O)Cc2ccc(Cl)c(Cl)c2)c1 (chirality)
CN(C)Cc1cccc([N-]C(=O)[C@H]2C=CCN2C(=O)Cc2ccc(Cl)c(Cl)c2)c1 (3D coordinates assigned)
CN(C)Cc1cccc([N-]C(=O)[C@H]2C=CCN2C(=O)Cc2ccc(Cl)c(Cl)c2)c1 (nonaromatic ring conformer: 63.4375141013174 kcal/mol)

>  <smiles>  (11) 
CN(C)Cc1cccc(NC(=O)C2C=CCN2C(=O)Cc2ccc(Cl)c(Cl)c2)c1

>  <score_type>  (11) 
oracle

>  <origin>  (11) 
adg

>  <m_score__min__energy>  (11) 
-11.06

>  <m_primary>  (11) 
energy

$$$$
11:0
     RDKit          3D

 57 59  0  0  0  0  0  0  0  0999 V2000
   64.5920   33.2040   50.1130 C   0  0  0  0  0  0  0  0  0  0  0  0
   63.1270   33.3590   49.6810 C   0  0  0  0  0  0  0  0  0  0  0  0
   62.5680   32.1960   48.9380 N   0  0  0  0  0  0  0  0  0  0  0  0
   63.1750   31.9990   47.5960 C   0  0  0  0  0  0  0  0  0  0  0  0
   63.3220   33.3050   46.8050 C   0  0  0  0  0  0  0  0  0  0  0  0
   62.6510   30.9560   49.7580 C   0  0  0  0  0  0  0  0  0  0  0  0
   61.4730   29.9650   49.5810 C   0  0  0  0  0  0  0  0  0  0  0  0
   60.7600   29.9720   48.2170 C   0  0  0  0  0  0  0  0  0  0  0  0
   59.8310   31.0980   48.0730 N   0  0  0  0  0  0  0  0  0  0  0  0
   59.1870   31.4210   46.8270 C   0  0  0  0  0  0  0  0  0  0  0  0
   58.4740   30.4260   46.1320 C   0  0  0  0  0  0  0  0  0  0  0  0
   58.1890   29.1810   46.7350 C   0  0  0  0  0  0  0  0  0  0  0  0
   57.4820   28.2000   46.0440 C   0  0  0  0  0  0  0  0  0  0  0  0
   57.0230   28.4490   44.7570 C   0  0  0  0  0  0  0  0  0  0  0  0
   57.2730   29.6790   44.1490 C   0  0  0  0  0  0  0  0  0  0  0  0
   58.0150   30.6870   44.8170 C   0  0  0  0  0  0  0  0  0  0  0  0
   58.2780   31.9050   44.2260 N   0  0  0  0  0  0  0  0  0  0  0  0
   58.1030   32.0680   42.7650 C   0  0  0  0  0  0  0  0  0  0  0  0
   58.7210   32.9640   44.9940 C   0  0  0  0  0  0  0  0  0  0  0  0
   58.6930   34.2890   44.4970 C   0  0  0  0  0  0  0  0  0  0  0  0
   59.2000   35.3460   45.2390 C   0  0  0  0  0  0  0  0  0  0  0  0
   59.7410   35.1240   46.4950 C   0  0  0  0  0  0  0  0  0  0  0  0
   59.7570   33.8340   47.0530 C   0  0  0  0  0  0  0  0  0  0  0  0
   60.2960   33.6260   48.3350 O   0  0  0  0  0  0  0  0  0  0  0  0
   59.8120   34.2150   49.5370 C   0  0  0  0  0  0  0  0  0  0  0  0
   59.2200   32.7400   46.3110 C   0  0  0  0  0  0  0  0  0  0  0  0
   64.6517   33.1977   51.2114 H   0  0  0  0  0  0  0  0  0  0  0  0
   64.9925   32.2585   49.7186 H   0  0  0  0  0  0  0  0  0  0  0  0
   65.1815   34.0448   49.7186 H   0  0  0  0  0  0  0  0  0  0  0  0
   62.5184   33.5123   50.5844 H   0  0  0  0  0  0  0  0  0  0  0  0
   63.0976   34.2123   48.9874 H   0  0  0  0  0  0  0  0  0  0  0  0
   61.5610   32.4280   48.7950 H   0  0  0  0  0  0  0  0  0  0  0  0
   64.1724   31.5535   47.7248 H   0  0  0  0  0  0  0  0  0  0  0  0
   62.5019   31.3431   47.0244 H   0  0  0  0  0  0  0  0  0  0  0  0
   63.4170   34.1486   47.5045 H   0  0  0  0  0  0  0  0  0  0  0  0
   64.2197   33.2510   46.1716 H   0  0  0  0  0  0  0  0  0  0  0  0
   62.4347   33.4519   46.1716 H   0  0  0  0  0  0  0  0  0  0  0  0
   63.5796   30.4317   49.4882 H   0  0  0  0  0  0  0  0  0  0  0  0
   62.6184   31.2828   50.8078 H   0  0  0  0  0  0  0  0  0  0  0  0
   61.8638   28.9503   49.7471 H   0  0  0  0  0  0  0  0  0  0  0  0
   60.7118   30.2899   50.3056 H   0  0  0  0  0  0  0  0  0  0  0  0
   61.5186   30.0371   47.4231 H   0  0  0  0  0  0  0  0  0  0  0  0
   60.1738   29.0442   48.1422 H   0  0  0  0  0  0  0  0  0  0  0  0
   59.4870   31.5700   48.9390 H   0  0  0  0  0  0  0  0  0  0  0  0
   58.5294   28.9839   47.7623 H   0  0  0  0  0  0  0  0  0  0  0  0
   57.2869   27.2268   46.5181 H   0  0  0  0  0  0  0  0  0  0  0  0
   56.4607   27.6739   44.2157 H   0  0  0  0  0  0  0  0  0  0  0  0
   56.8890   29.8705   43.1361 H   0  0  0  0  0  0  0  0  0  0  0  0
   57.3107   32.8059   42.5707 H   0  0  0  0  0  0  0  0  0  0  0  0
   59.0463   32.4168   42.3194 H   0  0  0  0  0  0  0  0  0  0  0  0
   57.8220   31.1024   42.3194 H   0  0  0  0  0  0  0  0  0  0  0  0
   58.2613   34.4843   43.5043 H   0  0  0  0  0  0  0  0  0  0  0  0
   59.1723   36.3659   44.8278 H   0  0  0  0  0  0  0  0  0  0  0  0
   60.1628   35.9669   47.0620 H   0  0  0  0  0  0  0  0  0  0  0  0
   60.2433   33.6901   50.4021 H   0  0  0  0  0  0  0  0  0  0  0  0
   60.1032   35.2753   49.5689 H   0  0  0  0  0  0  0  0  0  0  0  0
   58.7154   34.1348   49.5689 H   0  0  0  0  0  0  0  0  0  0  0  0
  1  2  1  0
  2  3  1  0
  3  4  1  0
  4  5  1  0
  3  6  1  0
  6  7  1  0
  7  8  1  0
  8  9  1  0
  9 10  1  0
 10 11  2  0
 11 12  1  0
 12 13  2  0
 13 14  1  0
 14 15  2  0
 15 16  1  0
 16 17  2  0
 17 18  1  0
 17 19  1  0
 19 20  2  0
 20 21  1  0
 21 22  2  0
 22 23  1  0
 23 24  1  0
 24 25  1  0
 23 26  2  0
 26 10  1  0
 16 11  1  0
 26 19  1  0
  1 27  1  0
  1 28  1  0
  1 29  1  0
  2 30  1  0
  2 31  1  0
  3 32  1  0
  4 33  1  0
  4 34  1  0
  5 35  1  0
  5 36  1  0
  5 37  1  0
  6 38  1  0
  6 39  1  0
  7 40  1  0
  7 41  1  0
  8 42  1  0
  8 43  1  0
  9 44  1  0
 12 45  1  0
 13 46  1  0
 14 47  1  0
 15 48  1  0
 18 49  1  0
 18 50  1  0
 18 51  1  0
 20 52  1  0
 21 53  1  0
 22 54  1  0
 25 55  1  0
 25 56  1  0
 25 57  1  0
M  CHG  2   3   1  17   1
M  END
>  <UniqueID>  (12) 
12

>  <SMILES>  (12) 
CC[NH+](CC)CCCNc1c2ccccc2[n+](C)c2cccc(OC)c12

>  <Energy>  (12) 
86.97882697645981

>  <Genealogy>  (12) 
CC[NH+](CC)CCCNc1c2ccccc2[n+](C)c2cccc(OC)c12 (protonated)
CC[NH+](CC)CCCNc1c2ccccc2[n+](C)c2cccc(OC)c12 (3D coordinates assigned)
CC[NH+](CC)CCCNc1c2ccccc2[n+](C)c2cccc(OC)c12 (optimized conformer: 86.97882697645981 kcal/mol)

>  <smiles>  (12) 
CCN(CC)CCCNc1c2ccccc2[n+](C)c2cccc(OC)c12

>  <score_type>  (12) 
oracle

>  <origin>  (12) 
adg

>  <m_score__min__energy>  (12) 
-4.5

>  <m_primary>  (12) 
energy

$$$$
12:0
     RDKit          3D

 51 53  0  0  0  0  0  0  0  0999 V2000
   59.5830   29.3970   48.0190 C   0  0  0  0  0  0  0  0  0  0  0  0
   58.9730   29.2950   46.6520 C   0  0  0  0  0  0  0  0  0  0  0  0
   58.7280   28.0380   46.0800 C   0  0  0  0  0  0  0  0  0  0  0  0
   58.1230   27.9370   44.8180 C   0  0  0  0  0  0  0  0  0  0  0  0
   57.8260   26.5890   44.2310 C   0  0  0  0  0  0  0  0  0  0  0  0
   57.7250   29.1020   44.1470 C   0  0  0  0  0  0  0  0  0  0  0  0
   57.9640   30.3650   44.7100 C   0  0  0  0  0  0  0  0  0  0  0  0
   57.4950   31.6090   44.0060 C   0  0  0  0  0  0  0  0  0  0  0  0
   58.5230   32.6520   44.1150 N   0  0  0  0  0  0  0  0  0  0  0  0
   57.9570   33.9610   44.5060 C   0  0  0  0  0  0  0  0  0  0  0  0
   59.1000   34.9310   44.8870 C   0  0  0  0  0  0  0  0  0  0  0  0
   59.4330   34.9260   46.3910 C   0  0  0  0  0  0  0  0  0  0  0  0
   59.0540   33.6370   46.9930 N   0  0  0  0  0  0  0  0  0  0  0  0
   59.6870   33.3880   48.3080 C   0  0  0  0  0  0  0  0  0  0  0  0
   61.2010   33.3300   48.2620 C   0  0  0  0  0  0  0  0  0  0  0  0
   61.8560   32.7450   47.1640 C   0  0  0  0  0  0  0  0  0  0  0  0
   63.2530   32.6930   47.1210 C   0  0  0  0  0  0  0  0  0  0  0  0
   64.0060   33.2320   48.1670 C   0  0  0  0  0  0  0  0  0  0  0  0
   63.3640   33.8260   49.2560 C   0  0  0  0  0  0  0  0  0  0  0  0
   61.9680   33.8800   49.3030 C   0  0  0  0  0  0  0  0  0  0  0  0
   57.5870   33.4500   47.0080 C   0  0  0  0  0  0  0  0  0  0  0  0
   56.9360   33.8380   45.6610 C   0  0  0  0  0  0  0  0  0  0  0  0
   58.5710   30.4550   45.9710 C   0  0  0  0  0  0  0  0  0  0  0  0
   58.8001   29.2661   48.7806 H   0  0  0  0  0  0  0  0  0  0  0  0
   60.3462   28.6140   48.1393 H   0  0  0  0  0  0  0  0  0  0  0  0
   60.0499   30.3857   48.1393 H   0  0  0  0  0  0  0  0  0  0  0  0
   59.0120   27.1253   46.6244 H   0  0  0  0  0  0  0  0  0  0  0  0
   57.6661   25.8631   45.0419 H   0  0  0  0  0  0  0  0  0  0  0  0
   56.9200   26.6509   43.6103 H   0  0  0  0  0  0  0  0  0  0  0  0
   58.6742   26.2644   43.6103 H   0  0  0  0  0  0  0  0  0  0  0  0
   57.2216   29.0254   43.1719 H   0  0  0  0  0  0  0  0  0  0  0  0
   57.3133   31.3831   42.9449 H   0  0  0  0  0  0  0  0  0  0  0  0
   56.5632   31.9634   44.4709 H   0  0  0  0  0  0  0  0  0  0  0  0
   59.2440   32.3410   44.8070 H   0  0  0  0  0  0  0  0  0  0  0  0
   57.4090   34.3619   43.6406 H   0  0  0  0  0  0  0  0  0  0  0  0
   60.0029   34.6416   44.3293 H   0  0  0  0  0  0  0  0  0  0  0  0
   58.7613   35.9464   44.6335 H   0  0  0  0  0  0  0  0  0  0  0  0
   60.5132   35.0853   46.5242 H   0  0  0  0  0  0  0  0  0  0  0  0
   58.8701   35.7315   46.8852 H   0  0  0  0  0  0  0  0  0  0  0  0
   59.3924   34.1971   48.9925 H   0  0  0  0  0  0  0  0  0  0  0  0
   59.3407   32.4002   48.6461 H   0  0  0  0  0  0  0  0  0  0  0  0
   61.2669   32.3262   46.3348 H   0  0  0  0  0  0  0  0  0  0  0  0
   63.7593   32.2272   46.2627 H   0  0  0  0  0  0  0  0  0  0  0  0
   65.1046   33.1886   48.1330 H   0  0  0  0  0  0  0  0  0  0  0  0
   63.9580   34.2520   50.0780 H   0  0  0  0  0  0  0  0  0  0  0  0
   61.4673   34.3555   50.1593 H   0  0  0  0  0  0  0  0  0  0  0  0
   57.3666   32.3927   47.2166 H   0  0  0  0  0  0  0  0  0  0  0  0
   57.1705   34.1064   47.7862 H   0  0  0  0  0  0  0  0  0  0  0  0
   56.1974   33.0677   45.3946 H   0  0  0  0  0  0  0  0  0  0  0  0
   56.4714   34.8261   45.7942 H   0  0  0  0  0  0  0  0  0  0  0  0
   58.7333   31.4415   46.4298 H   0  0  0  0  0  0  0  0  0  0  0  0
  1  2  1  0
  2  3  2  0
  3  4  1  0
  4  5  1  0
  4  6  2  0
  6  7  1  0
  7  8  1  0
  8  9  1  0
  9 10  1  0
 10 11  1  0
 11 12  1  0
 12 13  1  0
 13 14  1  0
 14 15  1  0
 15 16  2  0
 16 17  1  0
 17 18  2  0
 18 19  1  0
 19 20  2  0
 13 21  1  0
 21 22  1  0
  7 23  2  0
 23  2  1  0
 22 10  1  0
 20 15  1  0
  1 24  1  0
  1 25  1  0
  1 26  1  0
  3 27  1  0
  5 28  1  0
  5 29  1  0
  5 30  1  0
  6 31  1  0
  8 32  1  0
  8 33  1  0
  9 34  1  0
 10 35  1  0
 11 36  1  0
 11 37  1  0
 12 38  1  0
 12 39  1  0
 14 40  1  0
 14 41  1  0
 16 42  1  0
 17 43  1  0
 18 44  1  0
 19 45  1  0
 20 46  1  0
 21 47  1  0
 21 48  1  0
 22 49  1  0
 22 50  1  0
 23 51  1  0
M  END
>  <UniqueID>  (13) 
13

>  <SMILES>  (13) 
Cc1cc(C)cc(CNC2CCN(Cc3ccccc3)CC2)c1

>  <Energy>  (13) 
59.60205151056412

>  <Genealogy>  (13) 
Cc1cc(C)cc(CNC2CCN(Cc3ccccc3)CC2)c1 (3D coordinates assigned)
Cc1cc(C)cc(CNC2CCN(Cc3ccccc3)CC2)c1 (nonaromatic ring conformer: 59.60205151056412 kcal/mol)

>  <smiles>  (13) 
Cc1cc(C)cc(CNC2CCN(Cc3ccccc3)CC2)c1

>  <score_type>  (13) 
oracle

>  <origin>  (13) 
adg

>  <m_score__min__energy>  (13) 
-8.0099999999999998

>  <m_primary>  (13) 
energy

$$$$
13:0
     RDKit          3D

 59 60  0  0  0  0  0  0  0  0999 V2000
   57.3280   33.3450   45.9590 C   0  0  0  0  0  0  0  0  0  0  0  0
   57.7890   32.2000   45.0680 C   0  0  0  0  0  0  0  0  0  0  0  0
   56.6930   31.2420   44.8640 N   0  0  0  0  0  0  0  0  0  0  0  0
   56.7900   30.5080   43.5890 C   0  0  0  0  0  0  0  0  0  0  0  0
   56.9530   28.9900   43.7730 C   0  0  0  0  0  0  0  0  0  0  0  0
   56.5740   28.6240   45.0820 O   0  0  0  0  0  0  0  0  0  0  0  0
   57.4280   27.6160   45.5990 C   0  0  0  0  0  0  0  0  0  0  0  0
   58.5820   28.1880   46.4660 C   0  0  0  0  0  0  0  0  0  0  0  0
   59.9560   28.1670   45.7350 C   0  0  0  0  0  0  0  0  0  0  0  0
   60.6100   29.5490   45.6170 C   0  0  0  0  0  0  0  0  0  0  0  0
   60.6230   30.2330   46.9190 N   0  0  0  0  0  0  0  0  0  0  0  0
   61.7400   31.0770   47.2640 C   0  0  0  0  0  0  0  0  0  0  0  0
   62.8830   30.8420   46.7870 O   0  0  0  0  0  0  0  0  0  0  0  0
   61.5720   32.2530   48.1340 C   0  0  0  0  0  0  0  0  0  0  0  0
   61.2910   32.1790   49.4090 C   0  0  0  0  0  0  0  0  0  0  0  0
   61.1830   33.5410   50.0040 C   0  0  0  0  0  0  0  0  0  0  0  0
   62.1810   33.6920   51.1580 C   0  0  0  0  0  0  0  0  0  0  0  0
   59.7430   33.7760   50.4990 C   0  0  0  0  0  0  0  0  0  0  0  0
   61.5480   34.4810   48.9220 N   0  0  0  0  0  0  0  0  0  0  0  0
   61.7460   33.6740   47.7000 C   0  0  0  0  0  0  0  0  0  0  0  0
   63.1680   33.9060   47.1730 C   0  0  0  0  0  0  0  0  0  0  0  0
   60.7120   34.0330   46.6130 C   0  0  0  0  0  0  0  0  0  0  0  0
   59.4360   30.1780   47.7880 C   0  0  0  0  0  0  0  0  0  0  0  0
   58.2340   29.5690   47.0590 C   0  0  0  0  0  0  0  0  0  0  0  0
   57.4437   33.0577   47.0145 H   0  0  0  0  0  0  0  0  0  0  0  0
   57.9368   34.2378   45.7532 H   0  0  0  0  0  0  0  0  0  0  0  0
   56.2705   33.5669   45.7532 H   0  0  0  0  0  0  0  0  0  0  0  0
   58.1059   32.6022   44.0944 H   0  0  0  0  0  0  0  0  0  0  0  0
   58.6306   31.6842   45.5534 H   0  0  0  0  0  0  0  0  0  0  0  0
   56.6590   30.5720   45.6670 H   0  0  0  0  0  0  0  0  0  0  0  0
   55.8740   30.6932   43.0088 H   0  0  0  0  0  0  0  0  0  0  0  0
   57.6892   30.8722   43.0705 H   0  0  0  0  0  0  0  0  0  0  0  0
   56.3154   28.4636   43.0475 H   0  0  0  0  0  0  0  0  0  0  0  0
   58.0054   28.7151   43.6092 H   0  0  0  0  0  0  0  0  0  0  0  0
   56.8291   26.9324   46.2187 H   0  0  0  0  0  0  0  0  0  0  0  0
   57.8841   27.0984   44.7422 H   0  0  0  0  0  0  0  0  0  0  0  0
   58.6964   27.5059   47.3214 H   0  0  0  0  0  0  0  0  0  0  0  0
   60.6365   27.5068   46.2927 H   0  0  0  0  0  0  0  0  0  0  0  0
   59.7713   27.8092   44.7114 H   0  0  0  0  0  0  0  0  0  0  0  0
   61.6442   29.4295   45.2620 H   0  0  0  0  0  0  0  0  0  0  0  0
   60.0289   30.1547   44.9060 H   0  0  0  0  0  0  0  0  0  0  0  0
   61.1533   31.2404   49.9658 H   0  0  0  0  0  0  0  0  0  0  0  0
   61.6478   33.6113   52.1168 H   0  0  0  0  0  0  0  0  0  0  0  0
   62.9400   32.8985   51.0926 H   0  0  0  0  0  0  0  0  0  0  0  0
   62.6712   34.6745   51.0926 H   0  0  0  0  0  0  0  0  0  0  0  0
   59.7292   33.7783   51.5989 H   0  0  0  0  0  0  0  0  0  0  0  0
   59.3805   34.7452   50.1257 H   0  0  0  0  0  0  0  0  0  0  0  0
   59.0912   32.9723   50.1257 H   0  0  0  0  0  0  0  0  0  0  0  0
   60.8200   35.2250   48.7860 H   0  0  0  0  0  0  0  0  0  0  0  0
   63.8595   34.0188   48.0210 H   0  0  0  0  0  0  0  0  0  0  0  0
   63.4767   33.0463   46.5601 H   0  0  0  0  0  0  0  0  0  0  0  0
   63.1874   34.8192   46.5601 H   0  0  0  0  0  0  0  0  0  0  0  0
   59.7759   34.3580   47.0905 H   0  0  0  0  0  0  0  0  0  0  0  0
   61.1060   34.8469   45.9867 H   0  0  0  0  0  0  0  0  0  0  0  0
   60.5168   33.1500   45.9867 H   0  0  0  0  0  0  0  0  0  0  0  0
   59.6674   29.5637   48.6707 H   0  0  0  0  0  0  0  0  0  0  0  0
   59.1764   31.2054   48.0829 H   0  0  0  0  0  0  0  0  0  0  0  0
   57.4030   29.4548   47.7706 H   0  0  0  0  0  0  0  0  0  0  0  0
   57.9498   30.2402   46.2351 H   0  0  0  0  0  0  0  0  0  0  0  0
  1  2  1  0
  2  3  1  0
  3  4  1  0
  4  5  1  0
  5  6  1  0
  6  7  1  0
  7  8  1  0
  8  9  1  0
  9 10  1  0
 10 11  1  0
 11 12  1  0
 12 13  2  0
 12 14  1  0
 14 15  2  0
 15 16  1  0
 16 17  1  0
 16 18  1  0
 16 19  1  0
 19 20  1  0
 20 21  1  0
 20 22  1  0
 11 23  1  0
 23 24  1  0
 24  8  1  0
 20 14  1  0
  1 25  1  0
  1 26  1  0
  1 27  1  0
  2 28  1  0
  2 29  1  0
  3 30  1  0
  4 31  1  0
  4 32  1  0
  5 33  1  0
  5 34  1  0
  7 35  1  0
  7 36  1  0
  8 37  1  0
  9 38  1  0
  9 39  1  0
 10 40  1  0
 10 41  1  0
 15 42  1  0
 17 43  1  0
 17 44  1  0
 17 45  1  0
 18 46  1  0
 18 47  1  0
 18 48  1  0
 19 49  1  0
 21 50  1  0
 21 51  1  0
 21 52  1  0
 22 53  1  0
 22 54  1  0
 22 55  1  0
 23 56  1  0
 23 57  1  0
 24 58  1  0
 24 59  1  0
M  END
>  <UniqueID>  (14) 
14

>  <SMILES>  (14) 
CCNCCOCC1CCN(C(=O)C2=CC(C)(C)NC2(C)C)CC1

>  <Energy>  (14) 
64.85998733540328

>  <Genealogy>  (14) 
CCNCCOCC1CCN(C(=O)C2=CC(C)(C)NC2(C)C)CC1 (3D coordinates assigned)
CCNCCOCC1CCN(C(=O)C2=CC(C)(C)NC2(C)C)CC1 (nonaromatic ring conformer: 64.85998733540328 kcal/mol)

>  <smiles>  (14) 
CCNCCOCC1CCN(C(=O)C2=CC(C)(C)NC2(C)C)CC1

>  <score_type>  (14) 
oracle

>  <origin>  (14) 
adg

>  <m_score__min__energy>  (14) 
-8.0700000000000003

>  <m_primary>  (14) 
energy

$$$$
14:0
     RDKit          3D

 48 50  0  0  0  0  0  0  0  0999 V2000
   59.7600   34.9590   47.4610 C   0  0  0  0  0  0  0  0  0  0  0  0
   59.6320   35.3320   45.6840 S   0  0  0  0  0  0  0  0  0  0  0  0
   59.0310   33.6950   45.2610 C   0  0  0  0  0  0  0  0  0  0  0  0
   58.2610   33.5110   44.1170 C   0  0  0  0  0  0  0  0  0  0  0  0
   57.7780   32.2440   43.7910 C   0  0  0  0  0  0  0  0  0  0  0  0
   58.0430   31.1240   44.6200 C   0  0  0  0  0  0  0  0  0  0  0  0
   58.8800   31.3100   45.7530 C   0  0  0  0  0  0  0  0  0  0  0  0
   59.3410   32.6060   46.0730 C   0  0  0  0  0  0  0  0  0  0  0  0
   59.2280   30.2020   46.5450 C   0  0  0  0  0  0  0  0  0  0  0  0
   60.0240   30.3760   47.7310 N   0  0  0  0  0  0  0  0  0  0  0  0
   61.4760   30.5260   47.6490 C   0  0  0  0  0  0  0  0  0  0  0  0
   61.8920   31.9230   48.1400 C   0  0  0  0  0  0  0  0  0  0  0  0
   63.2380   32.3170   47.6590 N   0  0  0  0  0  0  0  0  0  0  0  0
   63.1750   33.4750   46.7470 C   0  0  0  0  0  0  0  0  0  0  0  0
   64.1020   32.6420   48.8070 C   0  0  0  0  0  0  0  0  0  0  0  0
   58.8440   28.9130   46.1360 C   0  0  0  0  0  0  0  0  0  0  0  0
   59.3120   27.7690   46.8180 C   0  0  0  0  0  0  0  0  0  0  0  0
   58.9680   26.4910   46.3860 C   0  0  0  0  0  0  0  0  0  0  0  0
   58.1730   26.3270   45.2550 C   0  0  0  0  0  0  0  0  0  0  0  0
   57.7810   24.7130   44.6900 Cl  0  0  0  0  0  0  0  0  0  0  0  0
   57.7030   27.4440   44.5630 C   0  0  0  0  0  0  0  0  0  0  0  0
   58.0030   28.7600   45.0010 C   0  0  0  0  0  0  0  0  0  0  0  0
   57.5200   29.8740   44.3420 N   0  0  0  0  0  0  0  0  0  0  0  0
   56.4240   29.7340   43.3570 C   0  0  0  0  0  0  0  0  0  0  0  0
   59.4572   35.8415   48.0436 H   0  0  0  0  0  0  0  0  0  0  0  0
   59.1006   34.1135   47.7066 H   0  0  0  0  0  0  0  0  0  0  0  0
   60.7996   34.6966   47.7066 H   0  0  0  0  0  0  0  0  0  0  0  0
   58.0322   34.3684   43.4670 H   0  0  0  0  0  0  0  0  0  0  0  0
   57.1819   32.1111   42.8762 H   0  0  0  0  0  0  0  0  0  0  0  0
   59.9525   32.7576   46.9747 H   0  0  0  0  0  0  0  0  0  0  0  0
   59.6070   30.1350   48.6580 H   0  0  0  0  0  0  0  0  0  0  0  0
   61.9567   29.7616   48.2772 H   0  0  0  0  0  0  0  0  0  0  0  0
   61.7919   30.4035   46.6025 H   0  0  0  0  0  0  0  0  0  0  0  0
   61.1585   32.6576   47.7762 H   0  0  0  0  0  0  0  0  0  0  0  0
   61.9252   31.8945   49.2391 H   0  0  0  0  0  0  0  0  0  0  0  0
   63.6760   31.5120   47.1490 H   0  0  0  0  0  0  0  0  0  0  0  0
   63.1245   34.4029   47.3356 H   0  0  0  0  0  0  0  0  0  0  0  0
   64.0736   33.4915   46.1127 H   0  0  0  0  0  0  0  0  0  0  0  0
   62.2799   33.3939   46.1127 H   0  0  0  0  0  0  0  0  0  0  0  0
   63.5606   32.4383   49.7426 H   0  0  0  0  0  0  0  0  0  0  0  0
   65.0115   32.0245   48.7678 H   0  0  0  0  0  0  0  0  0  0  0  0
   64.3791   33.7058   48.7678 H   0  0  0  0  0  0  0  0  0  0  0  0
   59.9563   27.8888   47.7015 H   0  0  0  0  0  0  0  0  0  0  0  0
   59.3248   25.6096   46.9391 H   0  0  0  0  0  0  0  0  0  0  0  0
   57.0888   27.3018   43.6616 H   0  0  0  0  0  0  0  0  0  0  0  0
   55.4679   29.6119   43.8871 H   0  0  0  0  0  0  0  0  0  0  0  0
   56.3810   30.6339   42.7259 H   0  0  0  0  0  0  0  0  0  0  0  0
   56.6086   28.8521   42.7259 H   0  0  0  0  0  0  0  0  0  0  0  0
  1  2  1  0
  2  3  1  0
  3  4  2  0
  4  5  1  0
  5  6  2  0
  6  7  1  0
  7  8  2  0
  7  9  1  0
  9 10  1  0
 10 11  1  0
 11 12  1  0
 12 13  1  0
 13 14  1  0
 13 15  1  0
  9 16  2  0
 16 17  1  0
 17 18  2  0
 18 19  1  0
 19 20  1  0
 19 21  2  0
 21 22  1  0
 22 23  2  0
 23 24  1  0
  8  3  1  0
 22 16  1  0
 23  6  1  0
  1 25  1  0
  1 26  1  0
  1 27  1  0
  4 28  1  0
  5 29  1  0
  8 30  1  0
 10 31  1  0
 11 32  1  0
 11 33  1  0
 12 34  1  0
 12 35  1  0
 13 36  1  0
 14 37  1  0
 14 38  1  0
 14 39  1  0
 15 40  1  0
 15 41  1  0
 15 42  1  0
 17 43  1  0
 18 44  1  0
 21 45  1  0
 24 46  1  0
 24 47  1  0
 24 48  1  0
M  CHG  2  13   1  23   1
M  END
>  <UniqueID>  (15) 
15

>  <SMILES>  (15) 
CSc1ccc2c(c1)c(NCC[NH+](C)C)c1ccc(Cl)cc1[n+]2C

>  <Energy>  (15) 
69.95940759951205

>  <Genealogy>  (15) 
CSc1ccc2c(c1)c(NCC[NH+](C)C)c1ccc(Cl)cc1[n+]2C (protonated)
CSc1ccc2c(c1)c(NCC[NH+](C)C)c1ccc(Cl)cc1[n+]2C (3D coordinates assigned)
CSc1ccc2c(c1)c(NCC[NH+](C)C)c1ccc(Cl)cc1[n+]2C (optimized conformer: 69.95940759951205 kcal/mol)

>  <smiles>  (15) 
CSc1ccc2c(c1)c(NCCN(C)C)c1ccc(Cl)cc1[n+]2C

>  <score_type>  (15) 
oracle

>  <origin>  (15) 
adg

>  <m_score__min__energy>  (15) 
-4.7000000000000002

>  <m_primary>  (15) 
energy

$$$$
15:0
     RDKit          3D

 24 25  0  0  0  0  0  0  0  0999 V2000
   57.4810   31.7260   43.7800 C   0  0  0  0  0  0  0  0  0  0  0  0
   57.0760   30.8740   44.8480 O   0  0  0  0  0  0  0  0  0  0  0  0
   57.5770   29.5820   45.0680 C   0  0  0  0  0  0  0  0  0  0  0  0
   58.9570   29.4080   45.1130 C   0  0  0  0  0  0  0  0  0  0  0  0
   59.5030   28.1470   45.3310 C   0  0  0  0  0  0  0  0  0  0  0  0
   58.6900   27.0210   45.5130 C   0  0  0  0  0  0  0  0  0  0  0  0
   57.2690   27.1730   45.4630 C   0  0  0  0  0  0  0  0  0  0  0  0
   56.7410   28.4660   45.2440 C   0  0  0  0  0  0  0  0  0  0  0  0
   56.2770   26.0700   45.6390 C   0  0  0  0  0  0  0  0  0  0  0  0
   55.1330   26.3450   46.0900 O   0  0  0  0  0  0  0  0  0  0  0  0
   56.5280   24.7110   45.2720 N   0  0  0  0  0  0  0  0  0  0  0  0
   57.8230   24.1750   44.9110 C   0  0  0  0  0  0  0  0  0  0  0  0
   58.8220   24.5380   45.9920 C   0  0  0  0  0  0  0  0  0  0  0  0
   59.3790   25.8180   45.7350 O   0  0  0  0  0  0  0  0  0  0  0  0
   57.9189   32.6472   44.1918 H   0  0  0  0  0  0  0  0  0  0  0  0
   58.2295   31.2086   43.1619 H   0  0  0  0  0  0  0  0  0  0  0  0
   56.6072   31.9798   43.1619 H   0  0  0  0  0  0  0  0  0  0  0  0
   59.6211   30.2740   44.9752 H   0  0  0  0  0  0  0  0  0  0  0  0
   60.5965   28.0318   45.3611 H   0  0  0  0  0  0  0  0  0  0  0  0
   55.6499   28.6019   45.2105 H   0  0  0  0  0  0  0  0  0  0  0  0
   57.7578   23.0807   44.8206 H   0  0  0  0  0  0  0  0  0  0  0  0
   58.1460   24.5964   43.9476 H   0  0  0  0  0  0  0  0  0  0  0  0
   58.3130   24.5523   46.9671 H   0  0  0  0  0  0  0  0  0  0  0  0
   59.6290   23.7906   46.0005 H   0  0  0  0  0  0  0  0  0  0  0  0
  1  2  1  0
  2  3  1  0
  3  4  2  0
  4  5  1  0
  5  6  2  0
  6  7  1  0
  7  8  2  0
  7  9  1  0
  9 10  2  0
  9 11  1  0
 11 12  1  0
 12 13  1  0
 13 14  1  0
  8  3  1  0
 14  6  1  0
  1 15  1  0
  1 16  1  0
  1 17  1  0
  4 18  1  0
  5 19  1  0
  8 20  1  0
 12 21  1  0
 12 22  1  0
 13 23  1  0
 13 24  1  0
M  CHG  1  11  -1
M  END
>  <UniqueID>  (16) 
16

>  <SMILES>  (16) 
COc1ccc2c(c1)C(=O)[N-]CCO2

>  <Energy>  (16) 
32.56227840725843

>  <Genealogy>  (16) 
COc1ccc2c(c1)C(=O)[N-]CCO2 (protonated)
COc1ccc2c(c1)C(=O)[N-]CCO2 (3D coordinates assigned)
COc1ccc2c(c1)C(=O)[N-]CCO2 (nonaromatic ring conformer: 32.56227840725843 kcal/mol)

>  <smiles>  (16) 
COc1ccc2c(c1)C(=O)NCCO2

>  <score_type>  (16) 
oracle

>  <origin>  (16) 
adg

>  <m_score__min__energy>  (16) 
-5.1699999999999999

>  <m_primary>  (16) 
energy

$$$$
16:0
     RDKit          3D

 49 50  0  0  0  0  0  0  0  0999 V2000
   56.2680   29.7340   42.6820 C   0  0  0  0  0  0  0  0  0  0  0  0
   55.8760   29.9680   44.1430 C   0  0  0  0  0  0  0  0  0  0  0  0
   56.9470   30.6580   44.8970 N   0  0  0  0  0  0  0  0  0  0  0  0
   57.7730   29.7190   45.6910 C   0  0  0  0  0  0  0  0  0  0  0  0
   59.1210   30.3580   46.0000 C   0  0  0  0  0  0  0  0  0  0  0  0
   57.7680   31.6070   44.1010 C   0  0  0  0  0  0  0  0  0  0  0  0
   57.4320   33.0910   44.3350 C   0  0  0  0  0  0  0  0  0  0  0  0
   57.5480   33.3700   45.7140 O   0  0  0  0  0  0  0  0  0  0  0  0
   58.3760   34.4990   45.9040 C   0  0  0  0  0  0  0  0  0  0  0  0
   58.8340   34.5550   47.3610 C   0  0  0  0  0  0  0  0  0  0  0  0
   60.2370   34.1260   47.4790 N   0  0  0  0  0  0  0  0  0  0  0  0
   60.9690   33.9270   46.3290 C   0  0  0  0  0  0  0  0  0  0  0  0
   62.2860   33.5670   46.3880 N   0  0  0  0  0  0  0  0  0  0  0  0
   62.8630   33.4170   47.6010 C   0  0  0  0  0  0  0  0  0  0  0  0
   64.1610   33.0760   47.9070 C   0  0  0  0  0  0  0  0  0  0  0  0
   64.2030   33.0820   49.3000 C   0  0  0  0  0  0  0  0  0  0  0  0
   65.4270   32.7740   50.1080 C   0  0  0  0  0  0  0  0  0  0  0  0
   62.9880   33.4120   49.8230 N   0  0  0  0  0  0  0  0  0  0  0  0
   62.6300   33.5300   51.2370 C   0  0  0  0  0  0  0  0  0  0  0  0
   62.1790   33.6130   48.7600 C   0  0  0  0  0  0  0  0  0  0  0  0
   60.8330   33.9780   48.7140 C   0  0  0  0  0  0  0  0  0  0  0  0
   60.1820   34.1720   49.7770 O   0  0  0  0  0  0  0  0  0  0  0  0
   57.2119   29.1706   42.6413 H   0  0  0  0  0  0  0  0  0  0  0  0
   55.4766   29.1604   42.1774 H   0  0  0  0  0  0  0  0  0  0  0  0
   56.3973   30.7028   42.1774 H   0  0  0  0  0  0  0  0  0  0  0  0
   54.9657   30.5849   44.1728 H   0  0  0  0  0  0  0  0  0  0  0  0
   55.7055   28.9877   44.6120 H   0  0  0  0  0  0  0  0  0  0  0  0
   57.2556   29.4829   46.6326 H   0  0  0  0  0  0  0  0  0  0  0  0
   57.9306   28.7952   45.1151 H   0  0  0  0  0  0  0  0  0  0  0  0
   59.2554   30.4217   47.0899 H   0  0  0  0  0  0  0  0  0  0  0  0
   59.9252   29.7453   45.5666 H   0  0  0  0  0  0  0  0  0  0  0  0
   59.1558   31.3684   45.5666 H   0  0  0  0  0  0  0  0  0  0  0  0
   58.8251   31.4487   44.3606 H   0  0  0  0  0  0  0  0  0  0  0  0
   57.5500   31.3992   43.0430 H   0  0  0  0  0  0  0  0  0  0  0  0
   58.1328   33.7227   43.7694 H   0  0  0  0  0  0  0  0  0  0  0  0
   56.4070   33.3010   43.9953 H   0  0  0  0  0  0  0  0  0  0  0  0
   59.2544   34.4245   45.2461 H   0  0  0  0  0  0  0  0  0  0  0  0
   57.8127   35.4121   45.6612 H   0  0  0  0  0  0  0  0  0  0  0  0
   58.7390   35.5867   47.7306 H   0  0  0  0  0  0  0  0  0  0  0  0
   58.2045   33.8781   47.9573 H   0  0  0  0  0  0  0  0  0  0  0  0
   60.4866   34.0598   45.3494 H   0  0  0  0  0  0  0  0  0  0  0  0
   62.8340   33.4180   45.5120 H   0  0  0  0  0  0  0  0  0  0  0  0
   64.9806   32.8497   47.2091 H   0  0  0  0  0  0  0  0  0  0  0  0
   65.1842   32.8351   51.1791 H   0  0  0  0  0  0  0  0  0  0  0  0
   65.7784   31.7594   49.8690 H   0  0  0  0  0  0  0  0  0  0  0  0
   66.2168   33.5014   49.8690 H   0  0  0  0  0  0  0  0  0  0  0  0
   63.4920   33.2459   51.8584 H   0  0  0  0  0  0  0  0  0  0  0  0
   62.3456   34.5694   51.4577 H   0  0  0  0  0  0  0  0  0  0  0  0
   61.7833   32.8634   51.4577 H   0  0  0  0  0  0  0  0  0  0  0  0
  1  2  1  0
  2  3  1  0
  3  4  1  0
  4  5  1  0
  3  6  1  0
  6  7  1  0
  7  8  1  0
  8  9  1  0
  9 10  1  0
 10 11  1  0
 11 12  1  0
 12 13  2  0
 13 14  1  0
 14 15  1  0
 15 16  2  0
 16 17  1  0
 16 18  1  0
 18 19  1  0
 18 20  1  0
 20 21  1  0
 21 22  2  0
 21 11  1  0
 20 14  2  0
  1 23  1  0
  1 24  1  0
  1 25  1  0
  2 26  1  0
  2 27  1  0
  4 28  1  0
  4 29  1  0
  5 30  1  0
  5 31  1  0
  5 32  1  0
  6 33  1  0
  6 34  1  0
  7 35  1  0
  7 36  1  0
  9 37  1  0
  9 38  1  0
 10 39  1  0
 10 40  1  0
 12 41  1  0
 13 42  1  0
 15 43  1  0
 17 44  1  0
 17 45  1  0
 17 46  1  0
 19 47  1  0
 19 48  1  0
 19 49  1  0
M  CHG  1  13   1
M  END
>  <UniqueID>  (17) 
17

>  <SMILES>  (17) 
CCN(CC)CCOCCn1c[nH+]c2cc(C)n(C)c2c1=O

>  <Energy>  (17) 
84.99793905197028

>  <Genealogy>  (17) 
CCN(CC)CCOCCn1c[nH+]c2cc(C)n(C)c2c1=O (protonated)
CCN(CC)CCOCCn1c[nH+]c2cc(C)n(C)c2c1=O (3D coordinates assigned)
CCN(CC)CCOCCn1c[nH+]c2cc(C)n(C)c2c1=O (optimized conformer: 84.99793905197028 kcal/mol)

>  <smiles>  (17) 
CCN(CC)CCOCCn1cnc2cc(C)n(C)c2c1=O

>  <score_type>  (17) 
oracle

>  <origin>  (17) 
adg

>  <m_score__min__energy>  (17) 
-5.0800000000000001

>  <m_primary>  (17) 
energy

$$$$
17:0
     RDKit          3D

 44 45  0  0  0  0  0  0  0  0999 V2000
   59.5250   34.8890   45.6670 C   0  0  0  0  0  0  0  0  0  0  0  0
   59.9120   33.8100   46.6670 C   0  0  0  0  0  0  0  0  0  0  0  0
   58.9120   32.7180   46.6230 N   0  0  0  0  0  0  0  0  0  0  0  0
   58.6380   32.1270   47.9530 C   0  0  0  0  0  0  0  0  0  0  0  0
   59.2550   32.9110   49.1200 C   0  0  0  0  0  0  0  0  0  0  0  0
   57.6850   33.0690   45.8760 C   0  0  0  0  0  0  0  0  0  0  0  0
   57.3600   31.9970   44.8360 C   0  0  0  0  0  0  0  0  0  0  0  0
   58.3860   31.0100   44.8350 O   0  0  0  0  0  0  0  0  0  0  0  0
   58.3200   29.7310   45.4160 C   0  0  0  0  0  0  0  0  0  0  0  0
   59.5430   29.1790   45.8760 C   0  0  0  0  0  0  0  0  0  0  0  0
   60.7080   29.9470   45.7280 O   0  0  0  0  0  0  0  0  0  0  0  0
   61.3870   30.5950   46.7980 C   0  0  0  0  0  0  0  0  0  0  0  0
   59.5720   27.8900   46.4570 C   0  0  0  0  0  0  0  0  0  0  0  0
   58.3830   27.1830   46.5480 C   0  0  0  0  0  0  0  0  0  0  0  0
   58.2250   25.9610   47.0050 O   0  0  0  0  0  0  0  0  0  0  0  0
   56.9520   25.6420   46.8760 C   0  0  0  0  0  0  0  0  0  0  0  0
   56.2680   26.7040   46.3130 C   0  0  0  0  0  0  0  0  0  0  0  0
   54.9210   26.7150   45.9720 O   0  0  0  0  0  0  0  0  0  0  0  0
   57.1930   27.7090   46.1190 C   0  0  0  0  0  0  0  0  0  0  0  0
   57.1060   28.9960   45.5630 C   0  0  0  0  0  0  0  0  0  0  0  0
   55.8800   29.5350   45.1570 O   0  0  0  0  0  0  0  0  0  0  0  0
   55.5230   29.7340   43.7930 C   0  0  0  0  0  0  0  0  0  0  0  0
   59.2016   35.7908   46.2075 H   0  0  0  0  0  0  0  0  0  0  0  0
   60.3922   35.1314   45.0352 H   0  0  0  0  0  0  0  0  0  0  0  0
   58.7014   34.5250   45.0352 H   0  0  0  0  0  0  0  0  0  0  0  0
   60.9040   33.4100   46.4100 H   0  0  0  0  0  0  0  0  0  0  0  0
   59.9424   34.2403   47.6789 H   0  0  0  0  0  0  0  0  0  0  0  0
   57.5482   32.0902   48.0980 H   0  0  0  0  0  0  0  0  0  0  0  0
   59.0984   31.1280   47.9600 H   0  0  0  0  0  0  0  0  0  0  0  0
   58.9148   32.4788   50.0726 H   0  0  0  0  0  0  0  0  0  0  0  0
   60.3519   32.8525   49.0617 H   0  0  0  0  0  0  0  0  0  0  0  0
   58.9403   33.9634   49.0617 H   0  0  0  0  0  0  0  0  0  0  0  0
   56.8450   33.1544   46.5811 H   0  0  0  0  0  0  0  0  0  0  0  0
   57.8478   34.0259   45.3584 H   0  0  0  0  0  0  0  0  0  0  0  0
   56.3977   31.5253   45.0841 H   0  0  0  0  0  0  0  0  0  0  0  0
   57.2956   32.4599   43.8402 H   0  0  0  0  0  0  0  0  0  0  0  0
   60.9979   30.2237   47.7575 H   0  0  0  0  0  0  0  0  0  0  0  0
   62.4640   30.3813   46.7317 H   0  0  0  0  0  0  0  0  0  0  0  0
   61.2239   31.6808   46.7317 H   0  0  0  0  0  0  0  0  0  0  0  0
   60.5140   27.4593   46.8273 H   0  0  0  0  0  0  0  0  0  0  0  0
   56.5041   24.6813   47.1702 H   0  0  0  0  0  0  0  0  0  0  0  0
   54.5633   30.2689   43.7395 H   0  0  0  0  0  0  0  0  0  0  0  0
   56.3022   30.3279   43.2929 H   0  0  0  0  0  0  0  0  0  0  0  0
   55.4276   28.7589   43.2929 H   0  0  0  0  0  0  0  0  0  0  0  0
  1  2  1  0
  2  3  1  0
  3  4  1  0
  4  5  1  0
  3  6  1  0
  6  7  1  0
  7  8  1  0
  8  9  1  0
  9 10  2  0
 10 11  1  0
 11 12  1  0
 10 13  1  0
 13 14  2  0
 14 15  1  0
 15 16  1  0
 16 17  2  0
 17 18  1  0
 17 19  1  0
 19 20  2  0
 20 21  1  0
 21 22  1  0
 20  9  1  0
 19 14  1  0
  1 23  1  0
  1 24  1  0
  1 25  1  0
  2 26  1  0
  2 27  1  0
  4 28  1  0
  4 29  1  0
  5 30  1  0
  5 31  1  0
  5 32  1  0
  6 33  1  0
  6 34  1  0
  7 35  1  0
  7 36  1  0
 12 37  1  0
 12 38  1  0
 12 39  1  0
 13 40  1  0
 16 41  1  0
 22 42  1  0
 22 43  1  0
 22 44  1  0
M  CHG  1  18  -1
M  END
>  <UniqueID>  (18) 
18

>  <SMILES>  (18) 
CCN(CC)CCOc1c(OC)cc2occ([O-])c2c1OC

>  <Energy>  (18) 
87.54059412847795

>  <Genealogy>  (18) 
CCN(CC)CCOc1c(OC)cc2occ([O-])c2c1OC (protonated)
CCN(CC)CCOc1c(OC)cc2occ([O-])c2c1OC (3D coordinates assigned)
CCN(CC)CCOc1c(OC)cc2occ([O-])c2c1OC (optimized conformer: 87.54059412847795 kcal/mol)

>  <smiles>  (18) 
CCN(CC)CCOc1c(OC)cc2occ(O)c2c1OC

>  <score_type>  (18) 
oracle

>  <origin>  (18) 
adg

>  <m_score__min__energy>  (18) 
-9.6600000000000001

>  <m_primary>  (18) 
energy

$$$$
18:0
     RDKit          3D

 80 83  0  0  0  0  0  0  0  0999 V2000
   63.3950   33.8520   46.3380 C   0  0  0  0  0  0  0  0  0  0  0  0
   62.3030   33.3120   47.0490 O   0  0  0  0  0  0  0  0  0  0  0  0
   62.4080   33.6700   48.4110 C   0  0  0  0  0  0  0  0  0  0  0  0
   61.2220   34.5560   48.7930 C   0  0  0  0  0  0  0  0  0  0  0  0
   59.9610   33.7790   48.7590 N   0  0  0  0  0  0  0  0  0  0  0  0
   58.9550   34.3690   47.8450 C   0  0  0  0  0  0  0  0  0  0  0  0
   58.9120   33.5640   46.5380 C   0  0  0  0  0  0  0  0  0  0  0  0
   60.0370   32.6160   46.4190 N   0  0  0  0  0  0  0  0  0  0  0  0
   59.5870   31.2270   46.4310 C   0  0  0  0  0  0  0  0  0  0  0  0
   58.7170   30.7510   45.4100 C   0  0  0  0  0  0  0  0  0  0  0  0
   58.2760   31.5880   44.3520 C   0  0  0  0  0  0  0  0  0  0  0  0
   57.3680   31.1330   43.4000 C   0  0  0  0  0  0  0  0  0  0  0  0
   56.8680   29.8430   43.4780 C   0  0  0  0  0  0  0  0  0  0  0  0
   57.3030   28.9860   44.4840 C   0  0  0  0  0  0  0  0  0  0  0  0
   58.2670   29.4010   45.4400 C   0  0  0  0  0  0  0  0  0  0  0  0
   58.7520   28.5260   46.3880 N   0  0  0  0  0  0  0  0  0  0  0  0
   58.5390   27.0680   46.2230 C   0  0  0  0  0  0  0  0  0  0  0  0
   59.4700   28.9980   47.4670 C   0  0  0  0  0  0  0  0  0  0  0  0
   59.7280   28.1700   48.5880 C   0  0  0  0  0  0  0  0  0  0  0  0
   60.5290   28.6030   49.6370 C   0  0  0  0  0  0  0  0  0  0  0  0
   61.0970   29.8690   49.6180 C   0  0  0  0  0  0  0  0  0  0  0  0
   61.9250   30.2310   50.6950 O   0  0  0  0  0  0  0  0  0  0  0  0
   62.6440   29.3310   51.5400 C   0  0  0  0  0  0  0  0  0  0  0  0
   64.1730   29.5790   51.5310 C   0  0  0  0  0  0  0  0  0  0  0  0
   64.6560   30.9920   51.3450 N   0  0  0  0  0  0  0  0  0  0  0  0
   64.0910   31.8100   52.4560 C   0  0  0  0  0  0  0  0  0  0  0  0
   64.2930   31.6210   50.0540 C   0  0  0  0  0  0  0  0  0  0  0  0
   65.3070   32.7280   49.7990 C   0  0  0  0  0  0  0  0  0  0  0  0
   66.5480   32.3100   50.5720 C   0  0  0  0  0  0  0  0  0  0  0  0
   66.1340   31.0920   51.3980 C   0  0  0  0  0  0  0  0  0  0  0  0
   60.8090   30.7300   48.5480 C   0  0  0  0  0  0  0  0  0  0  0  0
   59.9590   30.3350   47.4810 C   0  0  0  0  0  0  0  0  0  0  0  0
   59.3900   33.4680   50.0980 C   0  0  0  0  0  0  0  0  0  0  0  0
   60.4560   33.1880   51.1780 C   0  0  0  0  0  0  0  0  0  0  0  0
   58.3890   32.3110   49.9970 C   0  0  0  0  0  0  0  0  0  0  0  0
   64.1475   34.2241   47.0489 H   0  0  0  0  0  0  0  0  0  0  0  0
   63.8427   33.0714   45.7053 H   0  0  0  0  0  0  0  0  0  0  0  0
   63.0464   34.6816   45.7053 H   0  0  0  0  0  0  0  0  0  0  0  0
   62.4029   32.7616   49.0312 H   0  0  0  0  0  0  0  0  0  0  0  0
   63.3467   34.2190   48.5766 H   0  0  0  0  0  0  0  0  0  0  0  0
   61.3769   34.9502   49.8082 H   0  0  0  0  0  0  0  0  0  0  0  0
   61.1494   35.3833   48.0717 H   0  0  0  0  0  0  0  0  0  0  0  0
   57.9651   34.3426   48.3240 H   0  0  0  0  0  0  0  0  0  0  0  0
   59.2291   35.4110   47.6235 H   0  0  0  0  0  0  0  0  0  0  0  0
   57.9692   32.9983   46.5033 H   0  0  0  0  0  0  0  0  0  0  0  0
   58.9874   34.2775   45.7042 H   0  0  0  0  0  0  0  0  0  0  0  0
   60.6300   32.8590   45.6000 H   0  0  0  0  0  0  0  0  0  0  0  0
   60.7040   32.7760   47.2060 H   0  0  0  0  0  0  0  0  0  0  0  0
   58.6594   32.6167   44.2829 H   0  0  0  0  0  0  0  0  0  0  0  0
   57.0470   31.7982   42.5849 H   0  0  0  0  0  0  0  0  0  0  0  0
   56.1262   29.4961   42.7436 H   0  0  0  0  0  0  0  0  0  0  0  0
   56.8920   27.9672   44.5397 H   0  0  0  0  0  0  0  0  0  0  0  0
   58.4696   26.5932   47.2128 H   0  0  0  0  0  0  0  0  0  0  0  0
   57.6060   26.8944   45.6669 H   0  0  0  0  0  0  0  0  0  0  0  0
   59.3834   26.6347   45.6669 H   0  0  0  0  0  0  0  0  0  0  0  0
   59.2849   27.1640   48.6281 H   0  0  0  0  0  0  0  0  0  0  0  0
   60.7150   27.9356   50.4914 H   0  0  0  0  0  0  0  0  0  0  0  0
   62.2764   29.4488   52.5700 H   0  0  0  0  0  0  0  0  0  0  0  0
   62.4745   28.3143   51.1557 H   0  0  0  0  0  0  0  0  0  0  0  0
   64.5685   29.2216   52.4932 H   0  0  0  0  0  0  0  0  0  0  0  0
   64.5339   29.0446   50.6399 H   0  0  0  0  0  0  0  0  0  0  0  0
   64.3913   31.3753   53.4208 H   0  0  0  0  0  0  0  0  0  0  0  0
   64.4714   32.8396   52.3835 H   0  0  0  0  0  0  0  0  0  0  0  0
   62.9934   31.8187   52.3835 H   0  0  0  0  0  0  0  0  0  0  0  0
   64.3351   30.8762   49.2456 H   0  0  0  0  0  0  0  0  0  0  0  0
   63.2703   32.0247   50.0872 H   0  0  0  0  0  0  0  0  0  0  0  0
   65.5295   32.8087   48.7248 H   0  0  0  0  0  0  0  0  0  0  0  0
   64.9334   33.7123   50.1178 H   0  0  0  0  0  0  0  0  0  0  0  0
   67.3597   32.0446   49.8787 H   0  0  0  0  0  0  0  0  0  0  0  0
   66.9205   33.1245   51.2106 H   0  0  0  0  0  0  0  0  0  0  0  0
   66.5863   30.1822   50.9764 H   0  0  0  0  0  0  0  0  0  0  0  0
   66.4757   31.1980   52.4382 H   0  0  0  0  0  0  0  0  0  0  0  0
   61.2528   31.7364   48.5353 H   0  0  0  0  0  0  0  0  0  0  0  0
   58.8639   34.3754   50.4294 H   0  0  0  0  0  0  0  0  0  0  0  0
   60.0073   33.3059   52.1754 H   0  0  0  0  0  0  0  0  0  0  0  0
   60.8322   32.1606   51.0643 H   0  0  0  0  0  0  0  0  0  0  0  0
   61.2885   33.8979   51.0643 H   0  0  0  0  0  0  0  0  0  0  0  0
   58.1049   31.9827   51.0077 H   0  0  0  0  0  0  0  0  0  0  0  0
   57.4927   32.6478   49.4554 H   0  0  0  0  0  0  0  0  0  0  0  0
   58.8512   31.4725   49.4554 H   0  0  0  0  0  0  0  0  0  0  0  0
  1  2  1  0
  2  3  1  0
  3  4  1  0
  4  5  1  0
  5  6  1  0
  6  7  1  0
  7  8  1  0
  8  9  1  0
  9 10  2  0
 10 11  1  0
 11 12  2  0
 12 13  1  0
 13 14  2  0
 14 15  1  0
 15 16  2  0
 16 17  1  0
 16 18  1  0
 18 19  2  0
 19 20  1  0
 20 21  2  0
 21 22  1  0
 22 23  1  0
 23 24  1  0
 24 25  1  0
 25 26  1  0
 25 27  1  0
 27 28  1  0
 28 29  1  0
 29 30  1  0
 21 31  1  0
 31 32  2  0
  5 33  1  0
 33 34  1  0
 33 35  1  0
 32  9  1  0
 15 10  1  0
 32 18  1  0
 30 25  1  0
  1 36  1  0
  1 37  1  0
  1 38  1  0
  3 39  1  0
  3 40  1  0
  4 41  1  0
  4 42  1  0
  6 43  1  0
  6 44  1  0
  7 45  1  0
  7 46  1  0
  8 47  1  0
  8 48  1  0
 11 49  1  0
 12 50  1  0
 13 51  1  0
 14 52  1  0
 17 53  1  0
 17 54  1  0
 17 55  1  0
 19 56  1  0
 20 57  1  0
 23 58  1  0
 23 59  1  0
 24 60  1  0
 24 61  1  0
 26 62  1  0
 26 63  1  0
 26 64  1  0
 27 65  1  0
 27 66  1  0
 28 67  1  0
 28 68  1  0
 29 69  1  0
 29 70  1  0
 30 71  1  0
 30 72  1  0
 31 73  1  0
 33 74  1  0
 34 75  1  0
 34 76  1  0
 34 77  1  0
 35 78  1  0
 35 79  1  0
 35 80  1  0
M  CHG  3   8   1  16   1  25   1
M  END
>  <UniqueID>  (19) 
19

>  <SMILES>  (19) 
COCCN(CC[NH2+]c1c2ccccc2[n+](C)c2ccc(OCC[N+]3(C)CCCC3)cc12)C(C)C

>  <Energy>  (19) 
127.14553097824972

>  <Genealogy>  (19) 
COCCN(CC[NH2+]c1c2ccccc2[n+](C)c2ccc(OCC[N+]3(C)CCCC3)cc12)C(C)C (protonated)
COCCN(CC[NH2+]c1c2ccccc2[n+](C)c2ccc(OCC[N+]3(C)CCCC3)cc12)C(C)C (3D coordinates assigned)
COCCN(CC[NH2+]c1c2ccccc2[n+](C)c2ccc(OCC[N+]3(C)CCCC3)cc12)C(C)C (nonaromatic ring conformer: 127.14553097824972 kcal/mol)

>  <smiles>  (19) 
COCCN(CCNc1c2ccccc2[n+](C)c2ccc(OCC[N+]3(C)CCCC3)cc12)C(C)C

>  <score_type>  (19) 
oracle

>  <origin>  (19) 
adg

>  <m_score__min__energy>  (19) 
-3.9199999999999999

>  <m_primary>  (19) 
energy

$$$$
19:0
     RDKit          3D

 32 34  0  0  0  0  0  0  0  0999 V2000
   56.4530   29.3490   43.8170 C   0  0  0  0  0  0  0  0  0  0  0  0
   57.5500   29.9410   44.5930 N   0  0  0  0  0  0  0  0  0  0  0  0
   58.6870   29.2170   44.8220 C   0  0  0  0  0  0  0  0  0  0  0  0
   59.7130   29.7480   45.5340 N   0  0  0  0  0  0  0  0  0  0  0  0
   59.6420   31.0050   46.0360 C   0  0  0  0  0  0  0  0  0  0  0  0
   60.6830   31.5110   46.7470 N   0  0  0  0  0  0  0  0  0  0  0  0
   60.6630   32.7660   47.2770 C   0  0  0  0  0  0  0  0  0  0  0  0
   61.8050   33.2310   48.0230 N   0  0  0  0  0  0  0  0  0  0  0  0
   61.6540   34.1060   49.1920 C   0  0  0  0  0  0  0  0  0  0  0  0
   62.7590   33.8060   50.2090 C   0  0  0  0  0  0  0  0  0  0  0  0
   64.0330   33.8490   49.5970 O   0  0  0  0  0  0  0  0  0  0  0  0
   64.1410   32.8090   48.6450 C   0  0  0  0  0  0  0  0  0  0  0  0
   63.1570   33.0220   47.4920 C   0  0  0  0  0  0  0  0  0  0  0  0
   59.5300   33.5790   47.0730 C   0  0  0  0  0  0  0  0  0  0  0  0
   59.4850   34.8550   47.5310 F   0  0  0  0  0  0  0  0  0  0  0  0
   58.4460   33.0800   46.3460 C   0  0  0  0  0  0  0  0  0  0  0  0
   58.4910   31.7800   45.8210 C   0  0  0  0  0  0  0  0  0  0  0  0
   57.4380   31.2180   45.0810 C   0  0  0  0  0  0  0  0  0  0  0  0
   56.3890   31.8890   44.8670 O   0  0  0  0  0  0  0  0  0  0  0  0
   55.6967   28.9409   44.5037 H   0  0  0  0  0  0  0  0  0  0  0  0
   55.9937   30.1217   43.1830 H   0  0  0  0  0  0  0  0  0  0  0  0
   56.8468   28.5409   43.1830 H   0  0  0  0  0  0  0  0  0  0  0  0
   58.7709   28.1944   44.4254 H   0  0  0  0  0  0  0  0  0  0  0  0
   61.7256   35.1565   48.8738 H   0  0  0  0  0  0  0  0  0  0  0  0
   60.6733   33.9262   49.6567 H   0  0  0  0  0  0  0  0  0  0  0  0
   62.7206   34.5547   51.0139 H   0  0  0  0  0  0  0  0  0  0  0  0
   62.5981   32.7966   50.6154 H   0  0  0  0  0  0  0  0  0  0  0  0
   65.1658   32.7909   48.2456 H   0  0  0  0  0  0  0  0  0  0  0  0
   63.9047   31.8544   49.1379 H   0  0  0  0  0  0  0  0  0  0  0  0
   63.4614   33.9049   46.9108 H   0  0  0  0  0  0  0  0  0  0  0  0
   63.1589   32.1327   46.8446 H   0  0  0  0  0  0  0  0  0  0  0  0
   57.5567   33.7071   46.1853 H   0  0  0  0  0  0  0  0  0  0  0  0
  1  2  1  0
  2  3  1  0
  3  4  2  0
  4  5  1  0
  5  6  2  0
  6  7  1  0
  7  8  1  0
  8  9  1  0
  9 10  1  0
 10 11  1  0
 11 12  1  0
 12 13  1  0
  7 14  2  0
 14 15  1  0
 14 16  1  0
 16 17  2  0
 17 18  1  0
 18 19  2  0
 18  2  1  0
 17  5  1  0
 13  8  1  0
  1 20  1  0
  1 21  1  0
  1 22  1  0
  3 23  1  0
  9 24  1  0
  9 25  1  0
 10 26  1  0
 10 27  1  0
 12 28  1  0
 12 29  1  0
 13 30  1  0
 13 31  1  0
 16 32  1  0
M  END
>  <UniqueID>  (20) 
20

>  <SMILES>  (20) 
Cn1cnc2nc(N3CCOCC3)c(F)cc2c1=O

>  <Energy>  (20) 
45.52425502350839

>  <Genealogy>  (20) 
Cn1cnc2nc(N3CCOCC3)c(F)cc2c1=O (3D coordinates assigned)
Cn1cnc2nc(N3CCOCC3)c(F)cc2c1=O (nonaromatic ring conformer: 45.52425502350839 kcal/mol)

>  <smiles>  (20) 
Cn1cnc2nc(N3CCOCC3)c(F)cc2c1=O

>  <score_type>  (20) 
oracle

>  <origin>  (20) 
adg

>  <m_score__min__energy>  (20) 
-5.46

>  <m_primary>  (20) 
energy

$$$$
20:0
     RDKit          3D

 66 69  0  0  0  0  0  0  0  0999 V2000
   57.4650   26.1810   45.2070 C   0  0  0  0  0  0  0  0  0  0  0  0
   57.2430   27.4570   45.8000 O   0  0  0  0  0  0  0  0  0  0  0  0
   57.2120   28.6700   45.0910 C   0  0  0  0  0  0  0  0  0  0  0  0
   56.0000   29.3230   44.7910 C   0  0  0  0  0  0  0  0  0  0  0  0
   56.0020   30.5360   44.0970 C   0  0  0  0  0  0  0  0  0  0  0  0
   57.2070   31.1120   43.6980 C   0  0  0  0  0  0  0  0  0  0  0  0
   58.4170   30.4780   43.9860 C   0  0  0  0  0  0  0  0  0  0  0  0
   58.4310   29.2500   44.6730 C   0  0  0  0  0  0  0  0  0  0  0  0
   59.7510   28.6030   45.0110 C   0  0  0  0  0  0  0  0  0  0  0  0
   60.2170   29.0270   46.4090 C   0  0  0  0  0  0  0  0  0  0  0  0
   60.1950   30.5550   46.5600 C   0  0  0  0  0  0  0  0  0  0  0  0
   61.5210   31.1310   47.1160 C   0  0  0  0  0  0  0  0  0  0  0  0
   61.3900   31.7960   48.4370 N   0  0  1  0  0  0  0  0  0  0  0  0
   62.7010   31.7450   49.1810 C   0  0  0  0  0  0  0  0  0  0  0  0
   62.9400   32.8980   50.2070 C   0  0  0  0  0  0  0  0  0  0  0  0
   61.6390   33.3810   50.7870 C   0  0  0  0  0  0  0  0  0  0  0  0
   61.4860   33.5520   52.1690 C   0  0  0  0  0  0  0  0  0  0  0  0
   60.2010   33.6420   52.7280 C   0  0  0  0  0  0  0  0  0  0  0  0
   59.9960   33.8540   54.1000 O   0  0  0  0  0  0  0  0  0  0  0  0
   59.2940   34.9660   54.6480 C   0  0  0  0  0  0  0  0  0  0  0  0
   59.0810   33.4630   51.9040 C   0  0  0  0  0  0  0  0  0  0  0  0
   57.8100   33.4310   52.5000 O   0  0  0  0  0  0  0  0  0  0  0  0
   56.8830   32.3580   52.3690 C   0  0  0  0  0  0  0  0  0  0  0  0
   59.2610   33.2980   50.5170 C   0  0  0  0  0  0  0  0  0  0  0  0
   60.5320   33.4650   49.9300 C   0  0  0  0  0  0  0  0  0  0  0  0
   60.8480   33.2000   48.4510 C   0  0  2  0  0  0  0  0  0  0  0  0
   59.7670   33.6190   47.4080 C   0  0  0  0  0  0  0  0  0  0  0  0
   58.4590   33.0790   47.4770 C   0  0  0  0  0  0  0  0  0  0  0  0
   57.4770   33.4050   46.5380 C   0  0  0  0  0  0  0  0  0  0  0  0
   57.8020   34.1800   45.4310 C   0  0  0  0  0  0  0  0  0  0  0  0
   56.8550   34.4810   44.5080 F   0  0  0  0  0  0  0  0  0  0  0  0
   59.1240   34.5610   45.2280 C   0  0  0  0  0  0  0  0  0  0  0  0
   60.1020   34.2350   46.1720 C   0  0  0  0  0  0  0  0  0  0  0  0
   57.5961   25.4272   45.9973 H   0  0  0  0  0  0  0  0  0  0  0  0
   56.6003   25.9113   44.5829 H   0  0  0  0  0  0  0  0  0  0  0  0
   58.3700   26.2192   44.5829 H   0  0  0  0  0  0  0  0  0  0  0  0
   55.0458   28.8750   45.1052 H   0  0  0  0  0  0  0  0  0  0  0  0
   55.0507   31.0373   43.8651 H   0  0  0  0  0  0  0  0  0  0  0  0
   57.2045   32.0685   43.1548 H   0  0  0  0  0  0  0  0  0  0  0  0
   59.3648   30.9410   43.6741 H   0  0  0  0  0  0  0  0  0  0  0  0
   59.6349   27.5095   44.9847 H   0  0  0  0  0  0  0  0  0  0  0  0
   60.5022   28.9235   44.2742 H   0  0  0  0  0  0  0  0  0  0  0  0
   59.5484   28.5822   47.1607 H   0  0  0  0  0  0  0  0  0  0  0  0
   61.2496   28.6767   46.5539 H   0  0  0  0  0  0  0  0  0  0  0  0
   60.0064   31.0015   45.5725 H   0  0  0  0  0  0  0  0  0  0  0  0
   59.4027   30.8013   47.2822 H   0  0  0  0  0  0  0  0  0  0  0  0
   62.2408   30.3052   47.2155 H   0  0  0  0  0  0  0  0  0  0  0  0
   61.8526   31.9026   46.4056 H   0  0  0  0  0  0  0  0  0  0  0  0
   60.7010   31.2140   48.9730 H   0  0  0  0  0  0  0  0  0  0  0  0
   62.7430   30.7914   49.7277 H   0  0  0  0  0  0  0  0  0  0  0  0
   63.4849   31.8547   48.4172 H   0  0  0  0  0  0  0  0  0  0  0  0
   63.5815   32.5284   51.0206 H   0  0  0  0  0  0  0  0  0  0  0  0
   63.4243   33.7367   49.6854 H   0  0  0  0  0  0  0  0  0  0  0  0
   62.3729   33.6158   52.8166 H   0  0  0  0  0  0  0  0  0  0  0  0
   59.3263   34.9149   55.7463 H   0  0  0  0  0  0  0  0  0  0  0  0
   59.7663   35.9003   54.3104 H   0  0  0  0  0  0  0  0  0  0  0  0
   58.2474   34.9414   54.3104 H   0  0  0  0  0  0  0  0  0  0  0  0
   56.5819   32.0095   53.3680 H   0  0  0  0  0  0  0  0  0  0  0  0
   55.9959   32.7050   51.8189 H   0  0  0  0  0  0  0  0  0  0  0  0
   57.3551   31.5307   51.8189 H   0  0  0  0  0  0  0  0  0  0  0  0
   58.4001   33.0358   49.8844 H   0  0  0  0  0  0  0  0  0  0  0  0
   61.6049   33.8905   48.0505 H   0  0  0  0  0  0  0  0  0  0  0  0
   58.2097   32.3839   48.2923 H   0  0  0  0  0  0  0  0  0  0  0  0
   56.4456   33.0479   46.6750 H   0  0  0  0  0  0  0  0  0  0  0  0
   59.4008   35.1204   44.3222 H   0  0  0  0  0  0  0  0  0  0  0  0
   61.1561   34.4607   45.9529 H   0  0  0  0  0  0  0  0  0  0  0  0
  1  2  1  0
  2  3  1  0
  3  4  2  0
  4  5  1  0
  5  6  2  0
  6  7  1  0
  7  8  2  0
  8  9  1  0
  9 10  1  0
 10 11  1  0
 11 12  1  0
 12 13  1  0
 13 14  1  0
 14 15  1  0
 15 16  1  0
 16 17  2  0
 17 18  1  0
 18 19  1  0
 19 20  1  0
 18 21  2  0
 21 22  1  0
 22 23  1  0
 21 24  1  0
 24 25  2  0
 25 26  1  0
 26 27  1  0
 27 28  2  0
 28 29  1  0
 29 30  2  0
 30 31  1  0
 30 32  1  0
 32 33  2  0
  8  3  1  0
 26 13  1  0
 33 27  1  0
 25 16  1  0
  1 34  1  0
  1 35  1  0
  1 36  1  0
  4 37  1  0
  5 38  1  0
  6 39  1  0
  7 40  1  0
  9 41  1  0
  9 42  1  0
 10 43  1  0
 10 44  1  0
 11 45  1  0
 11 46  1  0
 12 47  1  0
 12 48  1  0
 13 49  1  1
 14 50  1  0
 14 51  1  0
 15 52  1  0
 15 53  1  0
 17 54  1  0
 20 55  1  0
 20 56  1  0
 20 57  1  0
 23 58  1  0
 23 59  1  0
 23 60  1  0
 24 61  1  0
 26 62  1  6
 28 63  1  0
 29 64  1  0
 32 65  1  0
 33 66  1  0
M  CHG  1  13   1
M  END
>  <UniqueID>  (21) 
21

>  <SMILES>  (21) 
COc1ccccc1CCCC[N@H+]1CCc2cc(OC)c(OC)cc2[C@@H]1c1ccc(F)cc1

>  <Energy>  (21) 
114.9618054854306

>  <Genealogy>  (21) 
COc1ccccc1CCCC[NH+]1CCc2cc(OC)c(OC)cc2C1c1ccc(F)cc1 (protonated)
COc1ccccc1CCCC[N@H+]1CCc2cc(OC)c(OC)cc2[C@@H]1c1ccc(F)cc1 (chirality)
COc1ccccc1CCCC[N@H+]1CCc2cc(OC)c(OC)cc2[C@@H]1c1ccc(F)cc1 (3D coordinates assigned)
COc1ccccc1CCCC[N@H+]1CCc2cc(OC)c(OC)cc2[C@@H]1c1ccc(F)cc1 (nonaromatic ring conformer: 114.9618054854306 kcal/mol)

>  <smiles>  (21) 
COc1ccccc1CCCCN1CCc2cc(OC)c(OC)cc2C1c1ccc(F)cc1

>  <score_type>  (21) 
oracle

>  <origin>  (21) 
adg

>  <m_score__min__energy>  (21) 
-7.25

>  <m_primary>  (21) 
energy

$$$$
21:0
     RDKit          3D

 54 55  0  0  0  0  0  0  0  0999 V2000
   63.5790   33.1990   47.0700 C   0  0  0  0  0  0  0  0  0  0  0  0
   62.8820   31.9100   47.4860 C   0  0  0  0  0  0  0  0  0  0  0  0
   61.4340   31.9990   47.1650 N   0  0  0  0  0  0  0  0  0  0  0  0
   60.8340   30.6660   46.9360 C   0  0  0  0  0  0  0  0  0  0  0  0
   59.3590   30.6510   47.3400 C   0  0  0  0  0  0  0  0  0  0  0  0
   60.6840   32.7410   48.2040 C   0  0  0  0  0  0  0  0  0  0  0  0
   60.1850   34.0830   47.6600 C   0  0  0  0  0  0  0  0  0  0  0  0
   59.8150   33.9160   46.3080 O   0  0  0  0  0  0  0  0  0  0  0  0
   58.5940   34.5730   46.0550 C   0  0  0  0  0  0  0  0  0  0  0  0
   57.4980   33.5240   45.9240 C   0  0  0  0  0  0  0  0  0  0  0  0
   57.9660   32.4610   45.1100 O   0  0  0  0  0  0  0  0  0  0  0  0
   58.0760   32.8500   43.7550 C   0  0  0  0  0  0  0  0  0  0  0  0
   57.5230   31.7500   42.8420 C   0  0  0  0  0  0  0  0  0  0  0  0
   56.8820   30.6870   43.6210 N   0  0  0  0  0  0  0  0  0  0  0  0
   57.5540   29.5760   44.2470 C   0  0  0  0  0  0  0  0  0  0  0  0
   58.9050   29.5130   44.1510 N   0  0  0  0  0  0  0  0  0  0  0  0
   59.6220   28.5350   44.7060 N   0  0  0  0  0  0  0  0  0  0  0  0
   60.9920   28.5950   44.5300 O   0  0  0  0  0  0  0  0  0  0  0  0
   58.9940   27.5380   45.4140 C   0  0  0  0  0  0  0  0  0  0  0  0
   59.6940   26.4730   46.0260 C   0  0  0  0  0  0  0  0  0  0  0  0
   59.0100   25.4960   46.7520 C   0  0  0  0  0  0  0  0  0  0  0  0
   57.6230   25.5550   46.8780 C   0  0  0  0  0  0  0  0  0  0  0  0
   56.7740   24.3260   47.7940 Cl  0  0  0  0  0  0  0  0  0  0  0  0
   56.9110   26.5930   46.2760 C   0  0  0  0  0  0  0  0  0  0  0  0
   57.5830   27.5910   45.5420 C   0  0  0  0  0  0  0  0  0  0  0  0
   56.8890   28.6180   44.9610 N   0  0  0  0  0  0  0  0  0  0  0  0
   55.5280   28.7060   45.1520 O   0  0  0  0  0  0  0  0  0  0  0  0
   63.8815   33.7584   47.9675 H   0  0  0  0  0  0  0  0  0  0  0  0
   64.4695   32.9575   46.4710 H   0  0  0  0  0  0  0  0  0  0  0  0
   62.8894   33.8119   46.4710 H   0  0  0  0  0  0  0  0  0  0  0  0
   63.3257   31.0625   46.9430 H   0  0  0  0  0  0  0  0  0  0  0  0
   63.0072   31.7606   48.5686 H   0  0  0  0  0  0  0  0  0  0  0  0
   60.9170   30.4129   45.8687 H   0  0  0  0  0  0  0  0  0  0  0  0
   61.3727   29.9295   47.5503 H   0  0  0  0  0  0  0  0  0  0  0  0
   59.2793   30.6502   48.4371 H   0  0  0  0  0  0  0  0  0  0  0  0
   58.8593   31.5441   46.9367 H   0  0  0  0  0  0  0  0  0  0  0  0
   58.8775   29.7479   46.9367 H   0  0  0  0  0  0  0  0  0  0  0  0
   59.8214   32.1389   48.5254 H   0  0  0  0  0  0  0  0  0  0  0  0
   61.3551   32.9326   49.0543 H   0  0  0  0  0  0  0  0  0  0  0  0
   59.3143   34.4177   48.2430 H   0  0  0  0  0  0  0  0  0  0  0  0
   60.9811   34.8380   47.7393 H   0  0  0  0  0  0  0  0  0  0  0  0
   58.3592   35.2528   46.8873 H   0  0  0  0  0  0  0  0  0  0  0  0
   58.6670   35.1592   45.1271 H   0  0  0  0  0  0  0  0  0  0  0  0
   57.2375   33.1375   46.9203 H   0  0  0  0  0  0  0  0  0  0  0  0
   56.6061   33.9760   45.4655 H   0  0  0  0  0  0  0  0  0  0  0  0
   57.5045   33.7762   43.5953 H   0  0  0  0  0  0  0  0  0  0  0  0
   59.1363   33.0168   43.5144 H   0  0  0  0  0  0  0  0  0  0  0  0
   56.7823   32.1901   42.1581 H   0  0  0  0  0  0  0  0  0  0  0  0
   58.3598   31.3122   42.2780 H   0  0  0  0  0  0  0  0  0  0  0  0
   55.8790   30.8360   43.8740 H   0  0  0  0  0  0  0  0  0  0  0  0
   61.4800   28.2310   43.7250 H   0  0  0  0  0  0  0  0  0  0  0  0
   60.7881   26.4135   45.9293 H   0  0  0  0  0  0  0  0  0  0  0  0
   59.5683   24.6758   47.2268 H   0  0  0  0  0  0  0  0  0  0  0  0
   55.8162   26.6327   46.3751 H   0  0  0  0  0  0  0  0  0  0  0  0
  1  2  1  0
  2  3  1  0
  3  4  1  0
  4  5  1  0
  3  6  1  0
  6  7  1  0
  7  8  1  0
  8  9  1  0
  9 10  1  0
 10 11  1  0
 11 12  1  0
 12 13  1  0
 13 14  1  0
 14 15  1  0
 15 16  2  0
 16 17  1  0
 17 18  1  0
 17 19  2  0
 19 20  1  0
 20 21  2  0
 21 22  1  0
 22 23  1  0
 22 24  2  0
 24 25  1  0
 25 26  2  0
 26 27  1  0
 26 15  1  0
 25 19  1  0
  1 28  1  0
  1 29  1  0
  1 30  1  0
  2 31  1  0
  2 32  1  0
  4 33  1  0
  4 34  1  0
  5 35  1  0
  5 36  1  0
  5 37  1  0
  6 38  1  0
  6 39  1  0
  7 40  1  0
  7 41  1  0
  9 42  1  0
  9 43  1  0
 10 44  1  0
 10 45  1  0
 12 46  1  0
 12 47  1  0
 13 48  1  0
 13 49  1  0
 14 50  1  0
 18 51  1  0
 20 52  1  0
 21 53  1  0
 24 54  1  0
M  CHG  3  17   1  26   1  27  -1
M  END
>  <UniqueID>  (22) 
22

>  <SMILES>  (22) 
CCN(CC)CCOCCOCCNc1n[n+](O)c2ccc(Cl)cc2[n+]1[O-]

>  <Energy>  (22) 
61.12986725252047

>  <Genealogy>  (22) 
CCN(CC)CCOCCOCCNc1n[n+](O)c2ccc(Cl)cc2[n+]1[O-] (protonated)
CCN(CC)CCOCCOCCNc1n[n+](O)c2ccc(Cl)cc2[n+]1[O-] (3D coordinates assigned)
CCN(CC)CCOCCOCCNc1n[n+](O)c2ccc(Cl)cc2[n+]1[O-] (optimized conformer: 61.12986725252047 kcal/mol)

>  <smiles>  (22) 
CCN(CC)CCOCCOCCNc1n[n+]([O-])c2ccc(Cl)cc2[n+]1[O-]

>  <score_type>  (22) 
oracle

>  <origin>  (22) 
adg

>  <m_score__min__energy>  (22) 
-6.75

>  <m_primary>  (22) 
energy

$$$$
22:0
     RDKit          3D

 39 39  0  0  0  0  0  0  0  0999 V2000
   58.1680   32.6830   47.7020 C   0  0  0  0  0  0  0  0  0  0  0  0
   58.5440   31.9330   46.4180 C   0  0  0  0  0  0  0  0  0  0  0  0
   57.5040   32.0750   45.3550 N   0  0  0  0  0  0  0  0  0  0  0  0
   57.0410   33.4820   45.2240 C   0  0  0  0  0  0  0  0  0  0  0  0
   58.1600   34.4860   44.9020 C   0  0  0  0  0  0  0  0  0  0  0  0
   57.9520   31.5380   44.0430 C   0  0  0  0  0  0  0  0  0  0  0  0
   56.8730   30.6880   43.3550 C   0  0  0  0  0  0  0  0  0  0  0  0
   55.9350   29.6990   44.5740 S   0  0  0  0  0  0  0  0  0  0  0  0
   57.3560   28.7550   45.1540 C   0  0  0  0  0  0  0  0  0  0  0  0
   57.7570   28.9030   46.4870 C   0  0  0  0  0  0  0  0  0  0  0  0
   58.8510   28.1910   46.9820 C   0  0  0  0  0  0  0  0  0  0  0  0
   59.5750   27.3370   46.1410 C   0  0  0  0  0  0  0  0  0  0  0  0
   60.7260   26.5410   46.6830 C   0  0  0  0  0  0  0  0  0  0  0  0
   59.1760   27.1820   44.8060 C   0  0  0  0  0  0  0  0  0  0  0  0
   58.0760   27.8920   44.2980 C   0  0  0  0  0  0  0  0  0  0  0  0
   57.7060   27.7180   42.9250 N   0  0  0  0  0  0  0  0  0  0  0  0
   58.4672   32.0862   48.5762 H   0  0  0  0  0  0  0  0  0  0  0  0
   58.6865   33.6529   47.7253 H   0  0  0  0  0  0  0  0  0  0  0  0
   57.0807   32.8478   47.7253 H   0  0  0  0  0  0  0  0  0  0  0  0
   59.4951   32.3351   46.0388 H   0  0  0  0  0  0  0  0  0  0  0  0
   58.6303   30.8645   46.6646 H   0  0  0  0  0  0  0  0  0  0  0  0
   56.6470   31.5360   45.6330 H   0  0  0  0  0  0  0  0  0  0  0  0
   56.2951   33.5260   44.4167 H   0  0  0  0  0  0  0  0  0  0  0  0
   56.6282   33.7714   46.2017 H   0  0  0  0  0  0  0  0  0  0  0  0
   58.5885   34.8705   45.8393 H   0  0  0  0  0  0  0  0  0  0  0  0
   58.9458   33.9844   44.3182 H   0  0  0  0  0  0  0  0  0  0  0  0
   57.7462   35.3214   44.3182 H   0  0  0  0  0  0  0  0  0  0  0  0
   58.2085   32.3818   43.3856 H   0  0  0  0  0  0  0  0  0  0  0  0
   58.8212   30.8894   44.2269 H   0  0  0  0  0  0  0  0  0  0  0  0
   56.1781   31.3532   42.8214 H   0  0  0  0  0  0  0  0  0  0  0  0
   57.3663   29.9997   42.6530 H   0  0  0  0  0  0  0  0  0  0  0  0
   57.2055   29.5860   47.1499 H   0  0  0  0  0  0  0  0  0  0  0  0
   59.1453   28.3012   48.0362 H   0  0  0  0  0  0  0  0  0  0  0  0
   60.6992   26.5596   47.7825 H   0  0  0  0  0  0  0  0  0  0  0  0
   60.6504   25.5013   46.3319 H   0  0  0  0  0  0  0  0  0  0  0  0
   61.6721   26.9787   46.3319 H   0  0  0  0  0  0  0  0  0  0  0  0
   59.7310   26.4963   44.1488 H   0  0  0  0  0  0  0  0  0  0  0  0
   56.8450   27.1990   42.6440 H   0  0  0  0  0  0  0  0  0  0  0  0
   58.2980   28.1150   42.1620 H   0  0  0  0  0  0  0  0  0  0  0  0
  1  2  1  0
  2  3  1  0
  3  4  1  0
  4  5  1  0
  3  6  1  0
  6  7  1  0
  7  8  1  0
  8  9  1  0
  9 10  2  0
 10 11  1  0
 11 12  2  0
 12 13  1  0
 12 14  1  0
 14 15  2  0
 15 16  1  0
 15  9  1  0
  1 17  1  0
  1 18  1  0
  1 19  1  0
  2 20  1  0
  2 21  1  0
  3 22  1  0
  4 23  1  0
  4 24  1  0
  5 25  1  0
  5 26  1  0
  5 27  1  0
  6 28  1  0
  6 29  1  0
  7 30  1  0
  7 31  1  0
 10 32  1  0
 11 33  1  0
 13 34  1  0
 13 35  1  0
 13 36  1  0
 14 37  1  0
 16 38  1  0
 16 39  1  0
M  CHG  1   3   1
M  END
>  <UniqueID>  (23) 
23

>  <SMILES>  (23) 
CC[NH+](CC)CCSc1ccc(C)cc1N

>  <Energy>  (23) 
34.64678178037865

>  <Genealogy>  (23) 
CC[NH+](CC)CCSc1ccc(C)cc1N (protonated)
CC[NH+](CC)CCSc1ccc(C)cc1N (3D coordinates assigned)
CC[NH+](CC)CCSc1ccc(C)cc1N (optimized conformer: 34.64678178037865 kcal/mol)

>  <smiles>  (23) 
CCN(CC)CCSc1ccc(C)cc1N

>  <score_type>  (23) 
oracle

>  <origin>  (23) 
adg

>  <m_score__min__energy>  (23) 
-4.3300000000000001

>  <m_primary>  (23) 
energy

$$$$
23:0
     RDKit          3D

 90 93  0  0  0  0  0  0  0  0999 V2000
   58.1040   28.9870   45.9590 C   0  0  0  0  0  0  0  0  0  0  0  0
   58.3160   30.3470   45.2810 C   0  0  0  0  0  0  0  0  0  0  0  0
   57.0670   31.0870   45.0060 N   0  0  0  0  0  0  0  0  0  0  0  0
   56.0730   30.4340   44.1300 C   0  0  0  0  0  0  0  0  0  0  0  0
   56.6300   30.0010   42.7700 C   0  0  0  0  0  0  0  0  0  0  0  0
   57.1830   32.5540   44.8900 C   0  0  0  0  0  0  0  0  0  0  0  0
   57.9820   33.0930   46.0700 C   0  0  0  0  0  0  0  0  0  0  0  0
   58.2580   34.4610   45.8470 O   0  0  0  0  0  0  0  0  0  0  0  0
   59.3100   34.9050   46.6760 C   0  0  0  0  0  0  0  0  0  0  0  0
   60.6230   34.1980   46.3180 C   0  0  0  0  0  0  0  0  0  0  0  0
   61.1180   33.5050   47.4440 O   0  0  0  0  0  0  0  0  0  0  0  0
   62.2250   34.1940   47.9810 C   0  0  0  0  0  0  0  0  0  0  0  0
   63.4860   33.8140   47.2060 C   0  0  0  0  0  0  0  0  0  0  0  0
   63.9990   32.5120   47.6340 N   0  0  0  0  0  0  0  0  0  0  0  0
   63.7340   32.0010   48.9500 C   0  0  0  0  0  0  0  0  0  0  0  0
   62.5100   31.3610   49.2230 C   0  0  0  0  0  0  0  0  0  0  0  0
   62.2000   31.0010   50.5470 C   0  0  0  0  0  0  0  0  0  0  0  0
   63.2170   30.9400   51.4810 N   0  0  0  0  0  0  0  0  0  0  0  0
   63.1420   29.9880   52.6080 C   0  0  0  0  0  0  0  0  0  0  0  0
   64.4010   31.6130   51.2580 C   0  0  0  0  0  0  0  0  0  0  0  0
   65.3650   31.7750   52.2840 C   0  0  0  0  0  0  0  0  0  0  0  0
   66.5740   32.4260   52.0370 C   0  0  0  0  0  0  0  0  0  0  0  0
   66.8610   32.9080   50.7650 C   0  0  0  0  0  0  0  0  0  0  0  0
   65.9280   32.7690   49.7380 C   0  0  0  0  0  0  0  0  0  0  0  0
   64.6790   32.1560   49.9780 C   0  0  0  0  0  0  0  0  0  0  0  0
   60.7610   30.7030   50.8750 C   0  0  0  0  0  0  0  0  0  0  0  0
   60.2640   30.7850   52.1920 C   0  0  0  0  0  0  0  0  0  0  0  0
   58.9420   30.4460   52.4870 C   0  0  0  0  0  0  0  0  0  0  0  0
   58.0530   30.1010   51.4580 C   0  0  0  0  0  0  0  0  0  0  0  0
   56.7190   29.7240   51.6960 O   0  0  0  0  0  0  0  0  0  0  0  0
   55.7400   30.5130   52.3720 C   0  0  0  0  0  0  0  0  0  0  0  0
   55.6920   30.1320   53.8670 C   0  0  0  0  0  0  0  0  0  0  0  0
   55.3200   28.7110   54.1510 N   0  0  0  0  0  0  0  0  0  0  0  0
   54.3750   28.1840   53.1370 C   0  0  0  0  0  0  0  0  0  0  0  0
   56.5590   27.8990   54.0980 C   0  0  0  0  0  0  0  0  0  0  0  0
   54.7350   28.5690   55.5040 C   0  0  0  0  0  0  0  0  0  0  0  0
   58.4990   30.1500   50.1380 C   0  0  0  0  0  0  0  0  0  0  0  0
   59.8310   30.4790   49.8330 C   0  0  0  0  0  0  0  0  0  0  0  0
   60.1620   30.8050   48.4030 C   0  0  0  0  0  0  0  0  0  0  0  0
   61.6570   30.8210   48.0960 C   0  0  0  0  0  0  0  0  0  0  0  0
   58.1239   29.1148   47.0514 H   0  0  0  0  0  0  0  0  0  0  0  0
   57.1306   28.5739   45.6559 H   0  0  0  0  0  0  0  0  0  0  0  0
   58.9055   28.2973   45.6559 H   0  0  0  0  0  0  0  0  0  0  0  0
   58.9461   30.9653   45.9372 H   0  0  0  0  0  0  0  0  0  0  0  0
   58.7853   30.1452   44.3068 H   0  0  0  0  0  0  0  0  0  0  0  0
   55.6897   29.5418   44.6468 H   0  0  0  0  0  0  0  0  0  0  0  0
   55.2876   31.1778   43.9301 H   0  0  0  0  0  0  0  0  0  0  0  0
   57.4901   29.3324   42.9221 H   0  0  0  0  0  0  0  0  0  0  0  0
   55.8487   29.4708   42.2057 H   0  0  0  0  0  0  0  0  0  0  0  0
   56.9511   30.8890   42.2057 H   0  0  0  0  0  0  0  0  0  0  0  0
   57.6974   32.8085   43.9516 H   0  0  0  0  0  0  0  0  0  0  0  0
   56.1789   33.0033   44.8901 H   0  0  0  0  0  0  0  0  0  0  0  0
   57.3973   32.9799   46.9948 H   0  0  0  0  0  0  0  0  0  0  0  0
   58.9237   32.5335   46.1702 H   0  0  0  0  0  0  0  0  0  0  0  0
   59.4378   35.9898   46.5462 H   0  0  0  0  0  0  0  0  0  0  0  0
   59.0577   34.6708   47.7207 H   0  0  0  0  0  0  0  0  0  0  0  0
   60.4419   33.4841   45.5009 H   0  0  0  0  0  0  0  0  0  0  0  0
   61.3628   34.9473   45.9998 H   0  0  0  0  0  0  0  0  0  0  0  0
   62.0571   35.2780   47.8993 H   0  0  0  0  0  0  0  0  0  0  0  0
   62.3487   33.9210   49.0394 H   0  0  0  0  0  0  0  0  0  0  0  0
   63.2480   33.7706   46.1329 H   0  0  0  0  0  0  0  0  0  0  0  0
   64.2572   34.5735   47.4023 H   0  0  0  0  0  0  0  0  0  0  0  0
   64.3740   31.8610   46.9060 H   0  0  0  0  0  0  0  0  0  0  0  0
   63.1855   30.5405   53.5582 H   0  0  0  0  0  0  0  0  0  0  0  0
   62.1969   29.4278   52.5525 H   0  0  0  0  0  0  0  0  0  0  0  0
   63.9877   29.2868   52.5525 H   0  0  0  0  0  0  0  0  0  0  0  0
   65.1570   31.3817   53.2900 H   0  0  0  0  0  0  0  0  0  0  0  0
   67.3021   32.5582   52.8509 H   0  0  0  0  0  0  0  0  0  0  0  0
   67.8252   33.3996   50.5684 H   0  0  0  0  0  0  0  0  0  0  0  0
   66.1675   33.1407   48.7308 H   0  0  0  0  0  0  0  0  0  0  0  0
   60.9291   31.1218   53.0008 H   0  0  0  0  0  0  0  0  0  0  0  0
   58.5959   30.4495   53.5311 H   0  0  0  0  0  0  0  0  0  0  0  0
   56.0009   31.5773   52.2760 H   0  0  0  0  0  0  0  0  0  0  0  0
   54.7540   30.3272   51.9212 H   0  0  0  0  0  0  0  0  0  0  0  0
   56.6877   30.3155   54.2970 H   0  0  0  0  0  0  0  0  0  0  0  0
   54.8994   30.7500   54.3140 H   0  0  0  0  0  0  0  0  0  0  0  0
   53.5220   27.7083   53.6430 H   0  0  0  0  0  0  0  0  0  0  0  0
   54.0136   29.0108   52.5079 H   0  0  0  0  0  0  0  0  0  0  0  0
   54.8885   27.4420   52.5079 H   0  0  0  0  0  0  0  0  0  0  0  0
   56.8965   27.6778   55.1213 H   0  0  0  0  0  0  0  0  0  0  0  0
   56.3577   26.9571   53.5667 H   0  0  0  0  0  0  0  0  0  0  0  0
   57.3423   28.4595   53.5667 H   0  0  0  0  0  0  0  0  0  0  0  0
   55.5110   28.7574   56.2606 H   0  0  0  0  0  0  0  0  0  0  0  0
   53.9179   29.2949   55.6282 H   0  0  0  0  0  0  0  0  0  0  0  0
   54.3416   27.5493   55.6282 H   0  0  0  0  0  0  0  0  0  0  0  0
   57.7965   29.9274   49.3213 H   0  0  0  0  0  0  0  0  0  0  0  0
   59.6852   30.0522   47.7581 H   0  0  0  0  0  0  0  0  0  0  0  0
   59.7895   31.8230   48.2160 H   0  0  0  0  0  0  0  0  0  0  0  0
   61.9775   29.7906   47.8825 H   0  0  0  0  0  0  0  0  0  0  0  0
   61.7989   31.4946   47.2380 H   0  0  0  0  0  0  0  0  0  0  0  0
  1  2  1  0
  2  3  1  0
  3  4  1  0
  4  5  1  0
  3  6  1  0
  6  7  1  0
  7  8  1  0
  8  9  1  0
  9 10  1  0
 10 11  1  0
 11 12  1  0
 12 13  1  0
 13 14  1  0
 14 15  1  0
 15 16  2  0
 16 17  1  0
 17 18  2  0
 18 19  1  0
 18 20  1  0
 20 21  2  0
 21 22  1  0
 22 23  2  0
 23 24  1  0
 24 25  2  0
 17 26  1  0
 26 27  2  0
 27 28  1  0
 28 29  2  0
 29 30  1  0
 30 31  1  0
 31 32  1  0
 32 33  1  0
 33 34  1  0
 33 35  1  0
 33 36  1  0
 29 37  1  0
 37 38  2  0
 38 39  1  0
 39 40  1  0
 25 15  1  0
 38 26  1  0
 40 16  1  0
 25 20  1  0
  1 41  1  0
  1 42  1  0
  1 43  1  0
  2 44  1  0
  2 45  1  0
  4 46  1  0
  4 47  1  0
  5 48  1  0
  5 49  1  0
  5 50  1  0
  6 51  1  0
  6 52  1  0
  7 53  1  0
  7 54  1  0
  9 55  1  0
  9 56  1  0
 10 57  1  0
 10 58  1  0
 12 59  1  0
 12 60  1  0
 13 61  1  0
 13 62  1  0
 14 63  1  0
 19 64  1  0
 19 65  1  0
 19 66  1  0
 21 67  1  0
 22 68  1  0
 23 69  1  0
 24 70  1  0
 27 71  1  0
 28 72  1  0
 31 73  1  0
 31 74  1  0
 32 75  1  0
 32 76  1  0
 34 77  1  0
 34 78  1  0
 34 79  1  0
 35 80  1  0
 35 81  1  0
 35 82  1  0
 36 83  1  0
 36 84  1  0
 36 85  1  0
 37 86  1  0
 39 87  1  0
 39 88  1  0
 40 89  1  0
 40 90  1  0
M  CHG  2  18   1  33   1
M  END
>  <UniqueID>  (24) 
24

>  <SMILES>  (24) 
CCN(CC)CCOCCOCCNc1c2c([n+](C)c3ccccc13)-c1ccc(OCC[N+](C)(C)C)cc1CC2

>  <Energy>  (24) 
134.01403117070987

>  <Genealogy>  (24) 
CCN(CC)CCOCCOCCNc1c2c([n+](C)c3ccccc13)-c1ccc(OCC[N+](C)(C)C)cc1CC2 (3D coordinates assigned)
CCN(CC)CCOCCOCCNc1c2c([n+](C)c3ccccc13)-c1ccc(OCC[N+](C)(C)C)cc1CC2 (nonaromatic ring conformer: 134.01403117070987 kcal/mol)

>  <smiles>  (24) 
CCN(CC)CCOCCOCCNc1c2c([n+](C)c3ccccc13)-c1ccc(OCC[N+](C)(C)C)cc1CC2

>  <score_type>  (24) 
oracle

>  <origin>  (24) 
adg

>  <m_score__min__energy>  (24) 
-6.3799999999999999

>  <m_primary>  (24) 
energy

$$$$
24:0
     RDKit          3D

 37 38  0  0  0  0  0  0  0  0999 V2000
   55.3500   23.8050   44.6590 C   0  0  0  0  0  0  0  0  0  0  0  0
   54.6530   24.7680   45.6180 C   0  0  0  0  0  0  0  0  0  0  0  0
   55.5350   25.8800   46.0020 N   0  0  0  0  0  0  0  0  0  0  0  0
   56.9230   25.4770   46.2890 C   0  0  0  0  0  0  0  0  0  0  0  0
   57.9770   26.3950   45.6340 C   0  0  0  0  0  0  0  0  0  0  0  0
   57.3590   27.6020   45.0800 N   0  0  0  0  0  0  0  0  0  0  0  0
   57.8310   28.9330   45.3700 C   0  0  0  0  0  0  0  0  0  0  0  0
   58.5960   29.1480   46.5280 C   0  0  0  0  0  0  0  0  0  0  0  0
   58.9960   30.4270   46.8770 C   0  0  0  0  0  0  0  0  0  0  0  0
   58.6060   31.5130   46.0970 C   0  0  0  0  0  0  0  0  0  0  0  0
   58.9740   32.8140   46.4760 C   0  0  0  0  0  0  0  0  0  0  0  0
   58.5600   33.9080   45.7190 C   0  0  0  0  0  0  0  0  0  0  0  0
   57.7710   33.7150   44.5860 C   0  0  0  0  0  0  0  0  0  0  0  0
   57.4010   32.4260   44.1960 C   0  0  0  0  0  0  0  0  0  0  0  0
   57.8250   31.2920   44.9340 C   0  0  0  0  0  0  0  0  0  0  0  0
   57.4930   30.0000   44.5600 N   0  0  0  0  0  0  0  0  0  0  0  0
   56.7840   29.7600   43.2860 C   0  0  0  0  0  0  0  0  0  0  0  0
   55.8991   23.0463   45.2360 H   0  0  0  0  0  0  0  0  0  0  0  0
   54.5989   23.3110   44.0252 H   0  0  0  0  0  0  0  0  0  0  0  0
   56.0540   24.3642   44.0252 H   0  0  0  0  0  0  0  0  0  0  0  0
   53.7573   25.1757   45.1266 H   0  0  0  0  0  0  0  0  0  0  0  0
   54.3823   24.2126   46.5281 H   0  0  0  0  0  0  0  0  0  0  0  0
   55.1350   26.3440   46.8510 H   0  0  0  0  0  0  0  0  0  0  0  0
   57.0732   25.4960   47.3785 H   0  0  0  0  0  0  0  0  0  0  0  0
   57.0623   24.4708   45.8670 H   0  0  0  0  0  0  0  0  0  0  0  0
   58.7185   26.6874   46.3920 H   0  0  0  0  0  0  0  0  0  0  0  0
   58.4577   25.8423   44.8133 H   0  0  0  0  0  0  0  0  0  0  0  0
   56.4190   27.5040   44.6320 H   0  0  0  0  0  0  0  0  0  0  0  0
   58.8793   28.2948   47.1619 H   0  0  0  0  0  0  0  0  0  0  0  0
   59.6206   30.5850   47.7686 H   0  0  0  0  0  0  0  0  0  0  0  0
   59.5910   32.9699   47.3732 H   0  0  0  0  0  0  0  0  0  0  0  0
   58.8560   34.9250   46.0157 H   0  0  0  0  0  0  0  0  0  0  0  0
   57.4383   34.5820   43.9964 H   0  0  0  0  0  0  0  0  0  0  0  0
   56.7720   32.2886   43.3041 H   0  0  0  0  0  0  0  0  0  0  0  0
   55.7611   29.4137   43.4952 H   0  0  0  0  0  0  0  0  0  0  0  0
   56.7436   30.6945   42.7072 H   0  0  0  0  0  0  0  0  0  0  0  0
   57.3195   28.9931   42.7072 H   0  0  0  0  0  0  0  0  0  0  0  0
  1  2  1  0
  2  3  1  0
  3  4  1  0
  4  5  1  0
  5  6  1  0
  6  7  1  0
  7  8  2  0
  8  9  1  0
  9 10  2  0
 10 11  1  0
 11 12  2  0
 12 13  1  0
 13 14  2  0
 14 15  1  0
 15 16  2  0
 16 17  1  0
 16  7  1  0
 15 10  1  0
  1 18  1  0
  1 19  1  0
  1 20  1  0
  2 21  1  0
  2 22  1  0
  3 23  1  0
  4 24  1  0
  4 25  1  0
  5 26  1  0
  5 27  1  0
  6 28  1  0
  8 29  1  0
  9 30  1  0
 11 31  1  0
 12 32  1  0
 13 33  1  0
 14 34  1  0
 17 35  1  0
 17 36  1  0
 17 37  1  0
M  CHG  1  16   1
M  END
>  <UniqueID>  (25) 
25

>  <SMILES>  (25) 
CCNCCNc1ccc2ccccc2[n+]1C

>  <Energy>  (25) 
48.32962513513025

>  <Genealogy>  (25) 
CCNCCNc1ccc2ccccc2[n+]1C (3D coordinates assigned)
CCNCCNc1ccc2ccccc2[n+]1C (optimized conformer: 48.32962513513025 kcal/mol)

>  <smiles>  (25) 
CCNCCNc1ccc2ccccc2[n+]1C

>  <score_type>  (25) 
oracle

>  <origin>  (25) 
adg

>  <m_score__min__energy>  (25) 
-4.8700000000000001

>  <m_primary>  (25) 
energy

$$$$
25:0
     RDKit          3D

 64 66  0  0  0  0  0  0  0  0999 V2000
   55.1950   30.2510   52.4640 C   0  0  0  0  0  0  0  0  0  0  0  0
   56.7040   29.9570   52.4360 C   0  0  0  0  0  0  0  0  0  0  0  0
   57.3980   30.4750   51.2330 N   0  0  0  0  0  0  0  0  0  0  0  0
   57.5630   31.9410   51.2820 C   0  0  0  0  0  0  0  0  0  0  0  0
   58.6800   29.7820   50.9800 C   0  0  0  0  0  0  0  0  0  0  0  0
   59.5570   30.5960   50.0150 C   0  0  0  0  0  0  0  0  0  0  0  0
   59.9850   29.7860   48.7800 C   0  0  0  0  0  0  0  0  0  0  0  0
   60.2540   30.6530   47.6270 N   0  0  0  0  0  0  0  0  0  0  0  0
   59.3160   30.8010   46.5490 C   0  0  0  0  0  0  0  0  0  0  0  0
   58.8660   29.6610   45.8630 C   0  0  0  0  0  0  0  0  0  0  0  0
   59.1340   28.3660   46.3570 C   0  0  0  0  0  0  0  0  0  0  0  0
   58.6590   27.2390   45.6930 C   0  0  0  0  0  0  0  0  0  0  0  0
   57.8970   27.3800   44.5400 C   0  0  0  0  0  0  0  0  0  0  0  0
   57.6190   28.6490   44.0340 C   0  0  0  0  0  0  0  0  0  0  0  0
   58.1160   29.8150   44.6700 C   0  0  0  0  0  0  0  0  0  0  0  0
   57.8800   31.0760   44.1630 N   0  0  0  0  0  0  0  0  0  0  0  0
   57.4010   31.2340   42.7710 C   0  0  0  0  0  0  0  0  0  0  0  0
   58.1080   32.1920   44.9480 C   0  0  0  0  0  0  0  0  0  0  0  0
   57.6100   33.4630   44.5740 C   0  0  0  0  0  0  0  0  0  0  0  0
   57.8920   34.5950   45.3260 C   0  0  0  0  0  0  0  0  0  0  0  0
   58.6440   34.4950   46.4860 C   0  0  0  0  0  0  0  0  0  0  0  0
   59.1040   33.2490   46.9390 C   0  0  0  0  0  0  0  0  0  0  0  0
   59.8110   33.1460   48.1500 O   0  0  0  0  0  0  0  0  0  0  0  0
   60.5830   34.1730   48.7760 C   0  0  0  0  0  0  0  0  0  0  0  0
   62.0780   33.8420   48.7140 C   0  0  0  0  0  0  0  0  0  0  0  0
   62.3890   33.0220   47.5230 N   0  0  0  0  0  0  0  0  0  0  0  0
   62.8840   33.8660   46.4250 C   0  0  0  0  0  0  0  0  0  0  0  0
   63.3860   31.9860   47.8400 C   0  0  0  0  0  0  0  0  0  0  0  0
   58.8500   32.0810   46.1610 C   0  0  0  0  0  0  0  0  0  0  0  0
   54.8537   30.3175   53.5076 H   0  0  0  0  0  0  0  0  0  0  0  0
   54.9976   31.2045   51.9522 H   0  0  0  0  0  0  0  0  0  0  0  0
   54.6541   29.4413   51.9522 H   0  0  0  0  0  0  0  0  0  0  0  0
   57.1623   30.4165   53.3242 H   0  0  0  0  0  0  0  0  0  0  0  0
   56.8143   28.8627   52.4200 H   0  0  0  0  0  0  0  0  0  0  0  0
   57.6001   32.2709   52.3307 H   0  0  0  0  0  0  0  0  0  0  0  0
   58.4984   32.2218   50.7759 H   0  0  0  0  0  0  0  0  0  0  0  0
   56.7134   32.4227   50.7759 H   0  0  0  0  0  0  0  0  0  0  0  0
   59.2149   29.6532   51.9325 H   0  0  0  0  0  0  0  0  0  0  0  0
   58.4688   28.8029   50.5252 H   0  0  0  0  0  0  0  0  0  0  0  0
   58.9888   31.4762   49.6796 H   0  0  0  0  0  0  0  0  0  0  0  0
   60.4696   30.8850   50.5569 H   0  0  0  0  0  0  0  0  0  0  0  0
   60.8980   29.2224   49.0225 H   0  0  0  0  0  0  0  0  0  0  0  0
   59.1612   29.1076   48.5133 H   0  0  0  0  0  0  0  0  0  0  0  0
   61.0780   31.2940   47.6590 H   0  0  0  0  0  0  0  0  0  0  0  0
   59.7249   28.2464   47.2771 H   0  0  0  0  0  0  0  0  0  0  0  0
   58.8871   26.2355   46.0815 H   0  0  0  0  0  0  0  0  0  0  0  0
   57.5118   26.4877   44.0247 H   0  0  0  0  0  0  0  0  0  0  0  0
   57.0044   28.7474   43.1270 H   0  0  0  0  0  0  0  0  0  0  0  0
   56.3564   31.5786   42.7796 H   0  0  0  0  0  0  0  0  0  0  0  0
   58.0267   31.9734   42.2496 H   0  0  0  0  0  0  0  0  0  0  0  0
   57.4640   30.2675   42.2496 H   0  0  0  0  0  0  0  0  0  0  0  0
   56.9884   33.5553   43.6712 H   0  0  0  0  0  0  0  0  0  0  0  0
   57.5169   35.5763   44.9998 H   0  0  0  0  0  0  0  0  0  0  0  0
   58.8831   35.4033   47.0585 H   0  0  0  0  0  0  0  0  0  0  0  0
   60.4027   35.1265   48.2581 H   0  0  0  0  0  0  0  0  0  0  0  0
   60.2813   34.2483   49.8311 H   0  0  0  0  0  0  0  0  0  0  0  0
   62.6524   34.7789   48.6660 H   0  0  0  0  0  0  0  0  0  0  0  0
   62.3486   33.2705   49.6141 H   0  0  0  0  0  0  0  0  0  0  0  0
   63.3991   34.7443   46.8412 H   0  0  0  0  0  0  0  0  0  0  0  0
   63.5863   33.2881   45.8063 H   0  0  0  0  0  0  0  0  0  0  0  0
   62.0368   34.1969   45.8063 H   0  0  0  0  0  0  0  0  0  0  0  0
   63.4795   31.8889   48.9317 H   0  0  0  0  0  0  0  0  0  0  0  0
   63.0646   31.0248   47.4126 H   0  0  0  0  0  0  0  0  0  0  0  0
   64.3589   32.2703   47.4126 H   0  0  0  0  0  0  0  0  0  0  0  0
  1  2  1  0
  2  3  1  0
  3  4  1  0
  3  5  1  0
  5  6  1  0
  6  7  1  0
  7  8  1  0
  8  9  1  0
  9 10  2  0
 10 11  1  0
 11 12  2  0
 12 13  1  0
 13 14  2  0
 14 15  1  0
 15 16  2  0
 16 17  1  0
 16 18  1  0
 18 19  2  0
 19 20  1  0
 20 21  2  0
 21 22  1  0
 22 23  1  0
 23 24  1  0
 24 25  1  0
 25 26  1  0
 26 27  1  0
 26 28  1  0
 22 29  2  0
 29  9  1  0
 15 10  1  0
 29 18  1  0
  1 30  1  0
  1 31  1  0
  1 32  1  0
  2 33  1  0
  2 34  1  0
  4 35  1  0
  4 36  1  0
  4 37  1  0
  5 38  1  0
  5 39  1  0
  6 40  1  0
  6 41  1  0
  7 42  1  0
  7 43  1  0
  8 44  1  0
 11 45  1  0
 12 46  1  0
 13 47  1  0
 14 48  1  0
 17 49  1  0
 17 50  1  0
 17 51  1  0
 19 52  1  0
 20 53  1  0
 21 54  1  0
 24 55  1  0
 24 56  1  0
 25 57  1  0
 25 58  1  0
 27 59  1  0
 27 60  1  0
 27 61  1  0
 28 62  1  0
 28 63  1  0
 28 64  1  0
M  CHG  1  16   1
M  END
>  <UniqueID>  (26) 
26

>  <SMILES>  (26) 
CCN(C)CCCNc1c2ccccc2[n+](C)c2cccc(OCCN(C)C)c12

>  <Energy>  (26) 
90.85656740636571

>  <Genealogy>  (26) 
CCN(C)CCCNc1c2ccccc2[n+](C)c2cccc(OCCN(C)C)c12 (3D coordinates assigned)
CCN(C)CCCNc1c2ccccc2[n+](C)c2cccc(OCCN(C)C)c12 (optimized conformer: 90.85656740636571 kcal/mol)

>  <smiles>  (26) 
CCN(C)CCCNc1c2ccccc2[n+](C)c2cccc(OCCN(C)C)c12

>  <score_type>  (26) 
oracle

>  <origin>  (26) 
adg

>  <m_score__min__energy>  (26) 
-5.8799999999999999

>  <m_primary>  (26) 
energy

$$$$
26:0
     RDKit          3D

 35 37  0  0  0  0  0  0  0  0999 V2000
   56.4340   29.3460   42.6210 C   0  0  0  0  0  0  0  0  0  0  0  0
   55.5310   29.7850   43.7760 C   0  0  0  0  0  0  0  0  0  0  0  0
   56.1320   30.8560   44.5880 N   0  0  0  0  0  0  0  0  0  0  0  0
   57.4820   31.2340   44.1420 C   0  0  0  0  0  0  0  0  0  0  0  0
   58.4620   31.2510   45.3120 C   0  0  0  0  0  0  0  0  0  0  0  0
   58.9580   32.5040   45.7930 C   0  0  0  0  0  0  0  0  0  0  0  0
   58.5110   33.7450   45.2730 C   0  0  0  0  0  0  0  0  0  0  0  0
   59.0210   34.9520   45.7540 C   0  0  0  0  0  0  0  0  0  0  0  0
   59.9830   34.9560   46.7610 C   0  0  0  0  0  0  0  0  0  0  0  0
   60.4350   33.7530   47.2960 C   0  0  0  0  0  0  0  0  0  0  0  0
   59.9300   32.5290   46.8260 C   0  0  0  0  0  0  0  0  0  0  0  0
   60.3920   31.3390   47.3860 C   0  0  0  0  0  0  0  0  0  0  0  0
   59.8920   30.1080   46.9630 C   0  0  0  0  0  0  0  0  0  0  0  0
   60.3660   28.9330   47.5710 C   0  0  0  0  0  0  0  0  0  0  0  0
   59.8700   27.6910   47.1880 C   0  0  0  0  0  0  0  0  0  0  0  0
   58.8930   27.6070   46.2020 C   0  0  0  0  0  0  0  0  0  0  0  0
   58.4140   28.7620   45.5830 C   0  0  0  0  0  0  0  0  0  0  0  0
   58.9110   30.0430   45.9350 C   0  0  0  0  0  0  0  0  0  0  0  0
   57.3543   28.8986   43.0247 H   0  0  0  0  0  0  0  0  0  0  0  0
   55.9057   28.6042   42.0041 H   0  0  0  0  0  0  0  0  0  0  0  0
   56.6911   30.2197   42.0041 H   0  0  0  0  0  0  0  0  0  0  0  0
   54.5797   30.1491   43.3608 H   0  0  0  0  0  0  0  0  0  0  0  0
   55.3805   28.9143   44.4312 H   0  0  0  0  0  0  0  0  0  0  0  0
   55.5170   31.7010   44.5630 H   0  0  0  0  0  0  0  0  0  0  0  0
   57.8295   30.5075   43.3927 H   0  0  0  0  0  0  0  0  0  0  0  0
   57.4371   32.2442   43.7089 H   0  0  0  0  0  0  0  0  0  0  0  0
   57.7506   33.7568   44.4783 H   0  0  0  0  0  0  0  0  0  0  0  0
   58.6616   35.9039   45.3360 H   0  0  0  0  0  0  0  0  0  0  0  0
   60.3855   35.9095   47.1335 H   0  0  0  0  0  0  0  0  0  0  0  0
   61.1933   33.7607   48.0928 H   0  0  0  0  0  0  0  0  0  0  0  0
   61.1610   31.3715   48.1718 H   0  0  0  0  0  0  0  0  0  0  0  0
   61.1347   28.9958   48.3553 H   0  0  0  0  0  0  0  0  0  0  0  0
   60.2505   26.7757   47.6649 H   0  0  0  0  0  0  0  0  0  0  0  0
   58.4955   26.6243   45.9084 H   0  0  0  0  0  0  0  0  0  0  0  0
   57.6374   28.6777   44.8085 H   0  0  0  0  0  0  0  0  0  0  0  0
  1  2  1  0
  2  3  1  0
  3  4  1  0
  4  5  1  0
  5  6  2  0
  6  7  1  0
  7  8  2  0
  8  9  1  0
  9 10  2  0
 10 11  1  0
 11 12  2  0
 12 13  1  0
 13 14  2  0
 14 15  1  0
 15 16  2  0
 16 17  1  0
 17 18  2  0
 18  5  1  0
 11  6  1  0
 18 13  1  0
  1 19  1  0
  1 20  1  0
  1 21  1  0
  2 22  1  0
  2 23  1  0
  3 24  1  0
  4 25  1  0
  4 26  1  0
  7 27  1  0
  8 28  1  0
  9 29  1  0
 10 30  1  0
 12 31  1  0
 14 32  1  0
 15 33  1  0
 16 34  1  0
 17 35  1  0
M  END
>  <UniqueID>  (27) 
27

>  <SMILES>  (27) 
CCNCc1c2ccccc2cc2ccccc12

>  <Energy>  (27) 
50.521819643675315

>  <Genealogy>  (27) 
CCNCc1c2ccccc2cc2ccccc12 (3D coordinates assigned)
CCNCc1c2ccccc2cc2ccccc12 (optimized conformer: 50.521819643675315 kcal/mol)

>  <smiles>  (27) 
CCNCc1c2ccccc2cc2ccccc12

>  <score_type>  (27) 
oracle

>  <origin>  (27) 
adg

>  <m_score__min__energy>  (27) 
-7.1600000000000001

>  <m_primary>  (27) 
energy

$$$$
27:0
     RDKit          3D

 38 39  0  0  0  0  0  0  0  0999 V2000
   58.8000   28.6300   48.0120 C   0  0  0  0  0  0  0  0  0  0  0  0
   59.3310   27.4960   47.0950 C   0  0  0  0  0  0  0  0  0  0  0  0
   60.3860   26.6820   47.8820 C   0  0  0  0  0  0  0  0  0  0  0  0
   58.1820   26.5470   46.6750 C   0  0  0  0  0  0  0  0  0  0  0  0
   57.1820   27.2510   45.7940 C   0  0  0  0  0  0  0  0  0  0  0  0
   55.9890   27.0650   45.9830 O   0  0  0  0  0  0  0  0  0  0  0  0
   57.6510   28.0630   44.6030 C   0  0  0  0  0  0  0  0  0  0  0  0
   56.5980   29.0950   44.2200 C   0  0  0  0  0  0  0  0  0  0  0  0
   55.5210   29.1240   44.8800 O   0  0  0  0  0  0  0  0  0  0  0  0
   56.6380   29.8980   42.9670 C   0  0  0  0  0  0  0  0  0  0  0  0
   57.0250   31.1780   42.8130 C   0  0  0  0  0  0  0  0  0  0  0  0
   57.6290   32.0180   43.8550 C   0  0  0  0  0  0  0  0  0  0  0  0
   57.3600   31.7520   45.2050 C   0  0  0  0  0  0  0  0  0  0  0  0
   57.9160   32.5560   46.2060 C   0  0  0  0  0  0  0  0  0  0  0  0
   58.7670   33.6150   45.8640 C   0  0  0  0  0  0  0  0  0  0  0  0
   59.5340   34.7090   47.2340 Br  0  0  0  0  0  0  0  0  0  0  0  0
   59.0460   33.8820   44.5190 C   0  0  0  0  0  0  0  0  0  0  0  0
   58.4810   33.0850   43.5150 C   0  0  0  0  0  0  0  0  0  0  0  0
   59.0040   28.7110   44.8680 C   0  0  0  0  0  0  0  0  0  0  0  0
   59.3680   29.6620   44.1830 O   0  0  0  0  0  0  0  0  0  0  0  0
   59.9960   28.0960   45.8290 C   0  0  0  0  0  0  0  0  0  0  0  0
   58.9344   28.3430   49.0654 H   0  0  0  0  0  0  0  0  0  0  0  0
   59.3580   29.5562   47.8103 H   0  0  0  0  0  0  0  0  0  0  0  0
   57.7312   28.7945   47.8103 H   0  0  0  0  0  0  0  0  0  0  0  0
   60.2184   26.8113   48.9614 H   0  0  0  0  0  0  0  0  0  0  0  0
   60.2961   25.6170   47.6220 H   0  0  0  0  0  0  0  0  0  0  0  0
   61.3934   27.0391   47.6220 H   0  0  0  0  0  0  0  0  0  0  0  0
   58.6055   25.6937   46.1249 H   0  0  0  0  0  0  0  0  0  0  0  0
   57.6639   26.2070   47.5838 H   0  0  0  0  0  0  0  0  0  0  0  0
   57.7864   27.3806   43.7509 H   0  0  0  0  0  0  0  0  0  0  0  0
   56.3105   29.3808   42.0531 H   0  0  0  0  0  0  0  0  0  0  0  0
   56.8762   31.6333   41.8228 H   0  0  0  0  0  0  0  0  0  0  0  0
   56.7094   30.9081   45.4782 H   0  0  0  0  0  0  0  0  0  0  0  0
   57.6847   32.3564   47.2627 H   0  0  0  0  0  0  0  0  0  0  0  0
   59.7089   34.7176   44.2501 H   0  0  0  0  0  0  0  0  0  0  0  0
   58.7039   33.2938   42.4583 H   0  0  0  0  0  0  0  0  0  0  0  0
   60.5381   27.2944   45.3060 H   0  0  0  0  0  0  0  0  0  0  0  0
   60.6678   28.9003   46.1634 H   0  0  0  0  0  0  0  0  0  0  0  0
  1  2  1  0
  2  3  1  0
  2  4  1  0
  4  5  1  0
  5  6  2  0
  5  7  1  0
  7  8  1  0
  8  9  2  0
  8 10  1  0
 10 11  2  3
 11 12  1  0
 12 13  2  0
 13 14  1  0
 14 15  2  0
 15 16  1  0
 15 17  1  0
 17 18  2  0
  7 19  1  0
 19 20  2  0
 19 21  1  0
 21  2  1  0
 18 12  1  0
  1 22  1  0
  1 23  1  0
  1 24  1  0
  3 25  1  0
  3 26  1  0
  3 27  1  0
  4 28  1  0
  4 29  1  0
  7 30  1  0
 10 31  1  0
 11 32  1  0
 13 33  1  0
 14 34  1  0
 17 35  1  0
 18 36  1  0
 21 37  1  0
 21 38  1  0
M  END
>  <UniqueID>  (28) 
28

>  <SMILES>  (28) 
CC1(C)CC(=O)C(C(=O)C=Cc2ccc(Br)cc2)C(=O)C1

>  <Energy>  (28) 
49.47366451626715

>  <Genealogy>  (28) 
CC1(C)CC(=O)C(C(=O)C=Cc2ccc(Br)cc2)C(=O)C1 (3D coordinates assigned)
CC1(C)CC(=O)C(C(=O)C=Cc2ccc(Br)cc2)C(=O)C1 (nonaromatic ring conformer: 49.47366451626715 kcal/mol)

>  <smiles>  (28) 
CC1(C)CC(=O)C(C(=O)C=Cc2ccc(Br)cc2)C(=O)C1

>  <score_type>  (28) 
oracle

>  <origin>  (28) 
adg

>  <m_score__min__energy>  (28) 
-9.2200000000000006

>  <m_primary>  (28) 
energy

$$$$
28:0
     RDKit          3D

 61 63  0  0  0  0  0  0  0  0999 V2000
   62.9010   32.9990   53.1120 C   0  0  0  0  0  0  0  0  0  0  0  0
   62.9350   33.8160   51.8250 C   0  0  0  0  0  0  0  0  0  0  0  0
   62.1350   33.1660   50.7860 N   0  0  0  0  0  0  0  0  0  0  0  0
   62.5750   32.9880   49.4230 C   0  0  0  0  0  0  0  0  0  0  0  0
   63.2900   34.0090   48.7630 C   0  0  0  0  0  0  0  0  0  0  0  0
   63.7280   33.8420   47.4510 C   0  0  0  0  0  0  0  0  0  0  0  0
   63.4660   32.6540   46.7730 C   0  0  0  0  0  0  0  0  0  0  0  0
   62.7560   31.6310   47.4020 C   0  0  0  0  0  0  0  0  0  0  0  0
   62.2940   31.7840   48.7210 C   0  0  0  0  0  0  0  0  0  0  0  0
   61.5690   30.6280   49.3750 C   0  0  0  0  0  0  0  0  0  0  0  0
   60.3710   31.1290   50.0600 N   0  0  0  0  0  0  0  0  0  0  0  0
   59.1000   31.0030   49.3100 C   0  0  0  0  0  0  0  0  0  0  0  0
   59.2180   30.2440   47.9650 C   0  0  0  0  0  0  0  0  0  0  0  0
   59.4030   31.1670   46.7570 C   0  0  0  0  0  0  0  0  0  0  0  0
   58.3510   32.2020   46.7390 N   0  0  0  0  0  0  0  0  0  0  0  0
   58.3900   32.9730   45.4750 C   0  0  0  0  0  0  0  0  0  0  0  0
   57.6020   32.2610   44.3650 C   0  0  0  0  0  0  0  0  0  0  0  0
   56.7710   31.1750   44.9110 N   0  0  0  0  0  0  0  0  0  0  0  0
   56.9230   29.9080   44.1770 C   0  0  0  0  0  0  0  0  0  0  0  0
   57.8670   28.9540   44.8730 C   0  0  0  0  0  0  0  0  0  0  0  0
   57.3920   28.0670   45.8530 C   0  0  0  0  0  0  0  0  0  0  0  0
   58.2690   27.1800   46.4840 C   0  0  0  0  0  0  0  0  0  0  0  0
   59.6230   27.1700   46.1420 C   0  0  0  0  0  0  0  0  0  0  0  0
   60.1020   28.0470   45.1680 C   0  0  0  0  0  0  0  0  0  0  0  0
   59.2290   28.9360   44.5340 C   0  0  0  0  0  0  0  0  0  0  0  0
   58.5310   33.0990   47.8950 C   0  0  0  0  0  0  0  0  0  0  0  0
   58.3250   32.3380   49.2120 C   0  0  0  0  0  0  0  0  0  0  0  0
   62.9292   33.6771   53.9776 H   0  0  0  0  0  0  0  0  0  0  0  0
   61.9773   32.4026   53.1434 H   0  0  0  0  0  0  0  0  0  0  0  0
   63.7720   32.3279   53.1434 H   0  0  0  0  0  0  0  0  0  0  0  0
   62.5278   34.8188   52.0216 H   0  0  0  0  0  0  0  0  0  0  0  0
   63.9761   33.8917   51.4782 H   0  0  0  0  0  0  0  0  0  0  0  0
   61.1830   32.8540   51.0730 H   0  0  0  0  0  0  0  0  0  0  0  0
   63.5047   34.9497   49.2912 H   0  0  0  0  0  0  0  0  0  0  0  0
   64.2816   34.6497   46.9499 H   0  0  0  0  0  0  0  0  0  0  0  0
   63.8195   32.5221   45.7397 H   0  0  0  0  0  0  0  0  0  0  0  0
   62.5555   30.6949   46.8603 H   0  0  0  0  0  0  0  0  0  0  0  0
   61.2743   29.8978   48.6069 H   0  0  0  0  0  0  0  0  0  0  0  0
   62.2338   30.1428   50.1048 H   0  0  0  0  0  0  0  0  0  0  0  0
   60.2710   30.5950   50.9580 H   0  0  0  0  0  0  0  0  0  0  0  0
   58.4734   30.3404   49.9252 H   0  0  0  0  0  0  0  0  0  0  0  0
   60.0833   29.5672   48.0219 H   0  0  0  0  0  0  0  0  0  0  0  0
   58.2730   29.7012   47.8158 H   0  0  0  0  0  0  0  0  0  0  0  0
   60.3885   31.6519   46.8181 H   0  0  0  0  0  0  0  0  0  0  0  0
   59.3340   30.5698   45.8358 H   0  0  0  0  0  0  0  0  0  0  0  0
   57.9497   33.9663   45.6469 H   0  0  0  0  0  0  0  0  0  0  0  0
   59.4384   33.0635   45.1546 H   0  0  0  0  0  0  0  0  0  0  0  0
   56.9515   32.9918   43.8622 H   0  0  0  0  0  0  0  0  0  0  0  0
   58.3198   31.8252   43.6545 H   0  0  0  0  0  0  0  0  0  0  0  0
   57.0240   31.0270   45.9160 H   0  0  0  0  0  0  0  0  0  0  0  0
   55.9366   29.4291   44.0891 H   0  0  0  0  0  0  0  0  0  0  0  0
   57.3455   30.1394   43.1881 H   0  0  0  0  0  0  0  0  0  0  0  0
   56.3261   28.0703   46.1249 H   0  0  0  0  0  0  0  0  0  0  0  0
   57.8918   26.4883   47.2517 H   0  0  0  0  0  0  0  0  0  0  0  0
   60.3114   26.4713   46.6400 H   0  0  0  0  0  0  0  0  0  0  0  0
   61.1685   28.0388   44.8986 H   0  0  0  0  0  0  0  0  0  0  0  0
   59.6112   29.6245   43.7660 H   0  0  0  0  0  0  0  0  0  0  0  0
   59.5492   33.5146   47.8740 H   0  0  0  0  0  0  0  0  0  0  0  0
   57.7867   33.9067   47.8341 H   0  0  0  0  0  0  0  0  0  0  0  0
   58.6521   32.9865   50.0382 H   0  0  0  0  0  0  0  0  0  0  0  0
   57.2561   32.0833   49.2620 H   0  0  0  0  0  0  0  0  0  0  0  0
  1  2  1  0
  2  3  1  0
  3  4  1  0
  4  5  2  0
  5  6  1  0
  6  7  2  0
  7  8  1  0
  8  9  2  0
  9 10  1  0
 10 11  1  0
 11 12  1  0
 12 13  1  0
 13 14  1  0
 14 15  1  0
 15 16  1  0
 16 17  1  0
 17 18  1  0
 18 19  1  0
 19 20  1  0
 20 21  2  0
 21 22  1  0
 22 23  2  0
 23 24  1  0
 24 25  2  0
 15 26  1  0
 26 27  1  0
  9  4  1  0
 27 12  1  0
 25 20  1  0
  1 28  1  0
  1 29  1  0
  1 30  1  0
  2 31  1  0
  2 32  1  0
  3 33  1  0
  5 34  1  0
  6 35  1  0
  7 36  1  0
  8 37  1  0
 10 38  1  0
 10 39  1  0
 11 40  1  0
 12 41  1  0
 13 42  1  0
 13 43  1  0
 14 44  1  0
 14 45  1  0
 16 46  1  0
 16 47  1  0
 17 48  1  0
 17 49  1  0
 18 50  1  0
 19 51  1  0
 19 52  1  0
 21 53  1  0
 22 54  1  0
 23 55  1  0
 24 56  1  0
 25 57  1  0
 26 58  1  0
 26 59  1  0
 27 60  1  0
 27 61  1  0
M  END
>  <UniqueID>  (29) 
29

>  <SMILES>  (29) 
CCNc1ccccc1CNC1CCN(CCNCc2ccccc2)CC1

>  <Energy>  (29) 
67.86957917530884

>  <Genealogy>  (29) 
CCNc1ccccc1CNC1CCN(CCNCc2ccccc2)CC1 (3D coordinates assigned)
CCNc1ccccc1CNC1CCN(CCNCc2ccccc2)CC1 (nonaromatic ring conformer: 67.86957917530884 kcal/mol)

>  <smiles>  (29) 
CCNc1ccccc1CNC1CCN(CCNCc2ccccc2)CC1

>  <score_type>  (29) 
oracle

>  <origin>  (29) 
adg

>  <m_score__min__energy>  (29) 
-8.1600000000000001

>  <m_primary>  (29) 
energy

$$$$
