0:0
     RDKit          3D

 58 61  0  0  0  0  0  0  0  0999 V2000
   64.1920   30.2890   52.0830 C   0  0  0  0  0  0  0  0  0  0  0  0
   63.9990   31.6800   51.8450 O   0  0  0  0  0  0  0  0  0  0  0  0
   63.6960   32.2400   50.5930 C   0  0  0  0  0  0  0  0  0  0  0  0
   64.7110   32.3280   49.6460 C   0  0  0  0  0  0  0  0  0  0  0  0
   64.4610   32.8260   48.4090 N   0  0  0  0  0  0  0  0  0  0  0  0
   63.2200   33.2640   48.0480 C   0  0  0  0  0  0  0  0  0  0  0  0
   63.0080   33.7550   46.7610 C   0  0  0  0  0  0  0  0  0  0  0  0
   61.7550   34.2110   46.3930 C   0  0  0  0  0  0  0  0  0  0  0  0
   60.7080   34.1910   47.3120 C   0  0  0  0  0  0  0  0  0  0  0  0
   59.5850   34.6370   46.9460 O   0  0  0  0  0  0  0  0  0  0  0  0
   60.8930   33.7070   48.5910 N   0  0  0  0  0  0  0  0  0  0  0  0
   59.7520   33.8080   49.5350 C   0  0  0  0  0  0  0  0  0  0  0  0
   58.9060   32.5270   49.5120 C   0  0  0  0  0  0  0  0  0  0  0  0
   59.3890   31.6100   48.4570 N   0  0  0  0  0  0  0  0  0  0  0  0
   58.5660   31.6870   47.2350 C   0  0  0  0  0  0  0  0  0  0  0  0
   59.2740   30.9790   46.0610 C   0  0  0  0  0  0  0  0  0  0  0  0
   60.2990   29.9340   46.5520 C   0  0  0  0  0  0  0  0  0  0  0  0
   60.7590   29.0450   45.4580 N   0  0  0  0  0  0  0  0  0  0  0  0
   59.7350   28.5130   44.5380 C   0  0  0  0  0  0  0  0  0  0  0  0
   58.8000   27.5490   45.2240 C   0  0  0  0  0  0  0  0  0  0  0  0
   59.3190   26.3790   45.8100 C   0  0  0  0  0  0  0  0  0  0  0  0
   58.4750   25.4830   46.4710 C   0  0  0  0  0  0  0  0  0  0  0  0
   57.1050   25.7390   46.5480 C   0  0  0  0  0  0  0  0  0  0  0  0
   56.5750   26.8880   45.9580 C   0  0  0  0  0  0  0  0  0  0  0  0
   57.4110   27.7940   45.2940 C   0  0  0  0  0  0  0  0  0  0  0  0
   56.6070   29.3470   44.5030 Br  0  0  0  0  0  0  0  0  0  0  0  0
   59.7840   29.2090   47.8130 C   0  0  0  0  0  0  0  0  0  0  0  0
   59.4850   30.2160   48.9470 C   0  0  0  0  0  0  0  0  0  0  0  0
   62.1420   33.2320   48.9720 C   0  0  0  0  0  0  0  0  0  0  0  0
   62.4140   32.7080   50.2600 C   0  0  0  0  0  0  0  0  0  0  0  0
   64.2179   30.1026   53.1668 H   0  0  0  0  0  0  0  0  0  0  0  0
   63.3640   29.7217   51.6330 H   0  0  0  0  0  0  0  0  0  0  0  0
   65.1432   29.9685   51.6330 H   0  0  0  0  0  0  0  0  0  0  0  0
   65.7261   31.9906   49.9025 H   0  0  0  0  0  0  0  0  0  0  0  0
   65.2500   32.8620   47.7240 H   0  0  0  0  0  0  0  0  0  0  0  0
   63.8368   33.7799   46.0381 H   0  0  0  0  0  0  0  0  0  0  0  0
   61.5851   34.5896   45.3743 H   0  0  0  0  0  0  0  0  0  0  0  0
   60.1393   33.9654   50.5524 H   0  0  0  0  0  0  0  0  0  0  0  0
   59.1176   34.6533   49.2300 H   0  0  0  0  0  0  0  0  0  0  0  0
   58.9792   32.0265   50.4888 H   0  0  0  0  0  0  0  0  0  0  0  0
   57.8597   32.7937   49.3019 H   0  0  0  0  0  0  0  0  0  0  0  0
   57.5970   31.2003   47.4199 H   0  0  0  0  0  0  0  0  0  0  0  0
   58.4153   32.7448   46.9737 H   0  0  0  0  0  0  0  0  0  0  0  0
   58.5179   30.4724   45.4433 H   0  0  0  0  0  0  0  0  0  0  0  0
   59.8153   31.7405   45.4804 H   0  0  0  0  0  0  0  0  0  0  0  0
   61.2136   30.4563   46.8694 H   0  0  0  0  0  0  0  0  0  0  0  0
   61.2310   28.2190   45.8980 H   0  0  0  0  0  0  0  0  0  0  0  0
   59.1475   29.3525   44.1379 H   0  0  0  0  0  0  0  0  0  0  0  0
   60.2525   27.9683   43.7346 H   0  0  0  0  0  0  0  0  0  0  0  0
   60.3969   26.1687   45.7470 H   0  0  0  0  0  0  0  0  0  0  0  0
   58.8907   24.5746   46.9314 H   0  0  0  0  0  0  0  0  0  0  0  0
   56.4428   25.0353   47.0736 H   0  0  0  0  0  0  0  0  0  0  0  0
   55.4939   27.0828   46.0151 H   0  0  0  0  0  0  0  0  0  0  0  0
   58.8617   28.6640   47.5633 H   0  0  0  0  0  0  0  0  0  0  0  0
   60.5615   28.5120   48.1589 H   0  0  0  0  0  0  0  0  0  0  0  0
   58.5303   29.9417   49.4196 H   0  0  0  0  0  0  0  0  0  0  0  0
   60.3188   30.1702   49.6630 H   0  0  0  0  0  0  0  0  0  0  0  0
   61.6101   32.6671   51.0097 H   0  0  0  0  0  0  0  0  0  0  0  0
  1  2  1  0
  2  3  1  0
  3  4  2  0
  4  5  1  0
  5  6  2  0
  6  7  1  0
  7  8  2  0
  8  9  1  0
  9 10  2  0
  9 11  1  0
 11 12  1  0
 12 13  1  0
 13 14  1  0
 14 15  1  0
 15 16  1  0
 16 17  1  0
 17 18  1  0
 18 19  1  0
 19 20  1  0
 20 21  2  0
 21 22  1  0
 22 23  2  0
 23 24  1  0
 24 25  2  0
 25 26  1  0
 17 27  1  0
 27 28  1  0
 11 29  1  0
 29 30  2  0
 30  3  1  0
 29  6  1  0
 28 14  1  0
 25 20  1  0
  1 31  1  0
  1 32  1  0
  1 33  1  0
  4 34  1  0
  5 35  1  0
  7 36  1  0
  8 37  1  0
 12 38  1  0
 12 39  1  0
 13 40  1  0
 13 41  1  0
 15 42  1  0
 15 43  1  0
 16 44  1  0
 16 45  1  0
 17 46  1  0
 18 47  1  0
 19 48  1  0
 19 49  1  0
 21 50  1  0
 22 51  1  0
 23 52  1  0
 24 53  1  0
 27 54  1  0
 27 55  1  0
 28 56  1  0
 28 57  1  0
 30 58  1  0
M  CHG  1   5   1
M  END
>  <UniqueID>  (1) 
1

>  <SMILES>  (1) 
COc1c[nH+]c2ccc(=O)n(CCN3CCC(NCc4ccccc4Br)CC3)c2c1

>  <Energy>  (1) 
81.3839718531736

>  <Genealogy>  (1) 
COc1c[nH+]c2ccc(=O)n(CCN3CCC(NCc4ccccc4Br)CC3)c2c1 (protonated)
COc1c[nH+]c2ccc(=O)n(CCN3CCC(NCc4ccccc4Br)CC3)c2c1 (3D coordinates assigned)
COc1c[nH+]c2ccc(=O)n(CCN3CCC(NCc4ccccc4Br)CC3)c2c1 (nonaromatic ring conformer: 81.3839718531736 kcal/mol)

>  <smiles>  (1) 
COc1cnc2ccc(=O)n(CCN3CCC(NCc4ccccc4Br)CC3)c2c1

>  <score_type>  (1) 
oracle

>  <origin>  (1) 
adg

>  <m_score__min__energy>  (1) 
-7.3399999999999999

>  <m_primary>  (1) 
energy

$$$$
1:0
     RDKit          3D

 35 37  0  0  0  0  0  0  0  0999 V2000
   60.6980   29.3830   47.0260 O   0  0  0  0  0  0  0  0  0  0  0  0
   59.6570   29.3420   46.3150 C   0  0  0  0  0  0  0  0  0  0  0  0
   58.9870   30.6150   45.9540 C   0  0  0  0  0  0  0  0  0  0  0  0
   58.5040   30.8360   44.6510 C   0  0  0  0  0  0  0  0  0  0  0  0
   57.8900   32.0480   44.3200 C   0  0  0  0  0  0  0  0  0  0  0  0
   57.7630   33.0560   45.2790 C   0  0  0  0  0  0  0  0  0  0  0  0
   56.9940   34.5760   44.8610 Cl  0  0  0  0  0  0  0  0  0  0  0  0
   58.2540   32.8530   46.5730 C   0  0  0  0  0  0  0  0  0  0  0  0
   58.8690   31.6430   46.9080 C   0  0  0  0  0  0  0  0  0  0  0  0
   59.1460   28.0230   45.8700 C   0  0  0  0  0  0  0  0  0  0  0  0
   58.7310   27.8180   44.5440 C   0  0  0  0  0  0  0  0  0  0  0  0
   58.2360   26.5750   44.1390 C   0  0  0  0  0  0  0  0  0  0  0  0
   58.1350   25.5130   45.0560 C   0  0  0  0  0  0  0  0  0  0  0  0
   57.6090   24.1920   44.6260 C   0  0  0  0  0  0  0  0  0  0  0  0
   56.9560   24.0520   43.3880 C   0  0  0  0  0  0  0  0  0  0  0  0
   56.4630   22.8080   42.9840 C   0  0  0  0  0  0  0  0  0  0  0  0
   56.6150   21.6860   43.8080 C   0  0  0  0  0  0  0  0  0  0  0  0
   56.1230   20.4450   43.4060 O   0  0  0  0  0  0  0  0  0  0  0  0
   57.2630   21.8160   45.0430 C   0  0  0  0  0  0  0  0  0  0  0  0
   57.4590   20.4240   46.0980 Cl  0  0  0  0  0  0  0  0  0  0  0  0
   57.7580   23.0610   45.4490 C   0  0  0  0  0  0  0  0  0  0  0  0
   58.5340   25.7260   46.3870 C   0  0  0  0  0  0  0  0  0  0  0  0
   59.0300   26.9690   46.7910 C   0  0  0  0  0  0  0  0  0  0  0  0
   58.6100   30.0506   43.8881 H   0  0  0  0  0  0  0  0  0  0  0  0
   57.5059   32.2082   43.3017 H   0  0  0  0  0  0  0  0  0  0  0  0
   58.1561   33.6467   47.3282 H   0  0  0  0  0  0  0  0  0  0  0  0
   59.2633   31.4934   47.9240 H   0  0  0  0  0  0  0  0  0  0  0  0
   58.7960   28.6421   43.8184 H   0  0  0  0  0  0  0  0  0  0  0  0
   57.9230   26.4261   43.0950 H   0  0  0  0  0  0  0  0  0  0  0  0
   56.8325   24.9274   42.7334 H   0  0  0  0  0  0  0  0  0  0  0  0
   55.9532   22.7099   42.0142 H   0  0  0  0  0  0  0  0  0  0  0  0
   56.7030   19.6150   43.4220 H   0  0  0  0  0  0  0  0  0  0  0  0
   58.2675   23.1556   46.4193 H   0  0  0  0  0  0  0  0  0  0  0  0
   58.4552   24.9072   47.1173 H   0  0  0  0  0  0  0  0  0  0  0  0
   59.3316   27.1227   47.8376 H   0  0  0  0  0  0  0  0  0  0  0  0
  1  2  2  0
  2  3  1  0
  3  4  2  0
  4  5  1  0
  5  6  2  0
  6  7  1  0
  6  8  1  0
  8  9  2  0
  2 10  1  0
 10 11  2  0
 11 12  1  0
 12 13  2  0
 13 14  1  0
 14 15  2  0
 15 16  1  0
 16 17  2  0
 17 18  1  0
 17 19  1  0
 19 20  1  0
 19 21  2  0
 13 22  1  0
 22 23  2  0
  9  3  1  0
 23 10  1  0
 21 14  1  0
  4 24  1  0
  5 25  1  0
  8 26  1  0
  9 27  1  0
 11 28  1  0
 12 29  1  0
 15 30  1  0
 16 31  1  0
 18 32  1  0
 21 33  1  0
 22 34  1  0
 23 35  1  0
M  END
>  <UniqueID>  (2) 
2

>  <SMILES>  (2) 
O=C(c1ccc(Cl)cc1)c1ccc(-c2ccc(O)c(Cl)c2)cc1

>  <Energy>  (2) 
49.46074636126643

>  <Genealogy>  (2) 
O=C(c1ccc(Cl)cc1)c1ccc(-c2ccc(O)c(Cl)c2)cc1 (3D coordinates assigned)
O=C(c1ccc(Cl)cc1)c1ccc(-c2ccc(O)c(Cl)c2)cc1 (optimized conformer: 49.46074636126643 kcal/mol)

>  <smiles>  (2) 
O=C(c1ccc(Cl)cc1)c1ccc(-c2ccc(O)c(Cl)c2)cc1

>  <score_type>  (2) 
oracle

>  <origin>  (2) 
adg

>  <m_score__min__energy>  (2) 
-7.9100000000000001

>  <m_primary>  (2) 
energy

$$$$
2:0
     RDKit          3D

 42 44  0  0  0  0  0  0  0  0999 V2000
   55.3630   25.0300   45.6450 C   0  0  0  0  0  0  0  0  0  0  0  0
   55.6610   26.3750   46.0020 O   0  0  0  0  0  0  0  0  0  0  0  0
   56.9310   26.9620   45.8900 C   0  0  0  0  0  0  0  0  0  0  0  0
   58.1090   26.1970   45.7850 C   0  0  0  0  0  0  0  0  0  0  0  0
   59.3510   26.8290   45.6860 C   0  0  0  0  0  0  0  0  0  0  0  0
   59.4310   28.2240   45.6830 C   0  0  0  0  0  0  0  0  0  0  0  0
   58.2650   28.9980   45.7650 C   0  0  0  0  0  0  0  0  0  0  0  0
   58.3660   30.4740   45.7920 C   0  0  0  0  0  0  0  0  0  0  0  0
   57.5370   31.2970   45.0400 C   0  0  0  0  0  0  0  0  0  0  0  0
   56.5340   30.7700   44.0820 C   0  0  0  0  0  0  0  0  0  0  0  0
   56.8390   30.6610   42.6220 C   0  0  0  0  0  0  0  0  0  0  0  0
   55.4200   30.3560   44.5010 O   0  0  0  0  0  0  0  0  0  0  0  0
   57.7790   32.7830   45.1420 C   0  0  0  0  0  0  0  0  0  0  0  0
   57.0340   33.6560   44.6230 O   0  0  0  0  0  0  0  0  0  0  0  0
   59.0180   33.1240   45.7650 N   0  0  1  0  0  0  0  0  0  0  0  0
   59.5280   34.3080   46.4150 C   0  0  0  0  0  0  0  0  0  0  0  0
   59.7920   35.7090   45.9780 C   0  0  0  0  0  0  0  0  0  0  0  0
   60.0090   33.4850   47.4760 C   0  0  0  0  0  0  0  0  0  0  0  0
   60.8780   33.6720   48.6710 C   0  0  0  0  0  0  0  0  0  0  0  0
   59.0440   32.4730   47.0020 C   0  0  1  0  0  0  0  0  0  0  0  0
   57.8380   32.5640   47.7580 O   0  0  0  0  0  0  0  0  0  0  0  0
   59.3250   31.0740   46.7190 N   0  0  0  0  0  0  0  0  0  0  0  0
   57.0200   28.3580   45.8860 C   0  0  0  0  0  0  0  0  0  0  0  0
   55.2299   24.4295   46.5570 H   0  0  0  0  0  0  0  0  0  0  0  0
   54.4375   25.0047   45.0511 H   0  0  0  0  0  0  0  0  0  0  0  0
   56.1912   24.6162   45.0511 H   0  0  0  0  0  0  0  0  0  0  0  0
   58.0509   25.0985   45.7809 H   0  0  0  0  0  0  0  0  0  0  0  0
   60.2684   26.2268   45.6102 H   0  0  0  0  0  0  0  0  0  0  0  0
   60.4123   28.7166   45.6161 H   0  0  0  0  0  0  0  0  0  0  0  0
   57.8672   30.2935   42.4887 H   0  0  0  0  0  0  0  0  0  0  0  0
   56.1348   29.9589   42.1517 H   0  0  0  0  0  0  0  0  0  0  0  0
   56.7393   31.6504   42.1517 H   0  0  0  0  0  0  0  0  0  0  0  0
   59.7820   32.7950   45.1160 H   0  0  0  0  0  0  0  0  0  0  0  0
   59.9132   36.3522   46.8621 H   0  0  0  0  0  0  0  0  0  0  0  0
   60.7114   35.7378   45.3748 H   0  0  0  0  0  0  0  0  0  0  0  0
   58.9462   36.0705   45.3748 H   0  0  0  0  0  0  0  0  0  0  0  0
   60.2784   33.5430   49.5842 H   0  0  0  0  0  0  0  0  0  0  0  0
   61.6876   32.9275   48.6557 H   0  0  0  0  0  0  0  0  0  0  0  0
   61.3097   34.6836   48.6557 H   0  0  0  0  0  0  0  0  0  0  0  0
   57.2370   33.2510   47.3660 H   0  0  0  0  0  0  0  0  0  0  0  0
   59.9850   30.5130   47.3000 H   0  0  0  0  0  0  0  0  0  0  0  0
   56.1050   28.9615   45.9786 H   0  0  0  0  0  0  0  0  0  0  0  0
  1  2  1  0
  2  3  1  0
  3  4  2  0
  4  5  1  0
  5  6  2  0
  6  7  1  0
  7  8  1  0
  8  9  2  0
  9 10  1  0
 10 11  1  0
 10 12  2  0
  9 13  1  0
 13 14  2  0
 13 15  1  0
 15 16  1  0
 16 17  1  0
 16 18  2  0
 18 19  1  0
 18 20  1  0
 20 21  1  1
 20 22  1  0
  7 23  2  0
 23  3  1  0
 22  8  1  0
 20 15  1  0
  1 24  1  0
  1 25  1  0
  1 26  1  0
  4 27  1  0
  5 28  1  0
  6 29  1  0
 11 30  1  0
 11 31  1  0
 11 32  1  0
 15 33  1  6
 17 34  1  0
 17 35  1  0
 17 36  1  0
 19 37  1  0
 19 38  1  0
 19 39  1  0
 21 40  1  0
 22 41  1  0
 23 42  1  0
M  CHG  1  15   1
M  END
>  <UniqueID>  (3) 
3

>  <SMILES>  (3) 
COc1cccc(C2=C(C(C)=O)C(=O)[N@H+]3C(C)=C(C)[C@]3(O)N2)c1

>  <Energy>  (3) 
149.36031729066306

>  <Genealogy>  (3) 
COc1cccc(C2=C(C(C)=O)C(=O)[NH+]3C(C)=C(C)C3(O)N2)c1 (protonated)
COc1cccc(C2=C(C(C)=O)C(=O)[N@H+]3C(C)=C(C)[C@]3(O)N2)c1 (chirality)
COc1cccc(C2=C(C(C)=O)C(=O)[N@H+]3C(C)=C(C)[C@]3(O)N2)c1 (3D coordinates assigned)
COc1cccc(C2=C(C(C)=O)C(=O)[N@H+]3C(C)=C(C)[C@]3(O)N2)c1 (nonaromatic ring conformer: 149.36031729066306 kcal/mol)

>  <smiles>  (3) 
COc1cccc(C2=C(C(C)=O)C(=O)N3C(C)=C(C)C3(O)N2)c1

>  <score_type>  (3) 
oracle

>  <origin>  (3) 
adg

>  <m_score__min__energy>  (3) 
-6.8499999999999996

>  <m_primary>  (3) 
energy

$$$$
3:0
     RDKit          3D

 35 37  0  0  0  0  0  0  0  0999 V2000
   58.5430   32.2390   49.4930 C   0  0  0  0  0  0  0  0  0  0  0  0
   59.2750   33.3670   50.2020 C   0  0  0  0  0  0  0  0  0  0  0  0
   59.9490   34.1720   49.2400 O   0  0  0  0  0  0  0  0  0  0  0  0
   61.2060   33.8780   48.6900 C   0  0  0  0  0  0  0  0  0  0  0  0
   62.3570   33.7490   49.4940 C   0  0  0  0  0  0  0  0  0  0  0  0
   63.5980   33.4730   48.9130 C   0  0  0  0  0  0  0  0  0  0  0  0
   63.7040   33.3190   47.5300 C   0  0  0  0  0  0  0  0  0  0  0  0
   62.5710   33.4400   46.7240 C   0  0  0  0  0  0  0  0  0  0  0  0
   61.3190   33.7230   47.2940 C   0  0  0  0  0  0  0  0  0  0  0  0
   60.1570   33.8250   46.4520 N   0  0  0  0  0  0  0  0  0  0  0  0
   59.5960   34.9650   45.9740 C   0  0  0  0  0  0  0  0  0  0  0  0
   58.4890   34.7240   45.2320 N   0  0  0  0  0  0  0  0  0  0  0  0
   58.3590   33.3860   45.2480 C   0  0  0  0  0  0  0  0  0  0  0  0
   57.3900   32.6100   44.6200 C   0  0  0  0  0  0  0  0  0  0  0  0
   57.4720   31.2040   44.7550 C   0  0  0  0  0  0  0  0  0  0  0  0
   56.4930   30.3590   44.1240 N   0  0  0  0  0  0  0  0  0  0  0  0
   56.5150   30.1680   42.8900 O   0  0  0  0  0  0  0  0  0  0  0  0
   55.5160   29.7430   44.8740 O   0  0  0  0  0  0  0  0  0  0  0  0
   58.5350   30.6370   45.5140 C   0  0  0  0  0  0  0  0  0  0  0  0
   59.4970   31.4550   46.1320 C   0  0  0  0  0  0  0  0  0  0  0  0
   59.3660   32.8370   45.9860 C   0  0  0  0  0  0  0  0  0  0  0  0
   58.1031   31.5612   50.2394 H   0  0  0  0  0  0  0  0  0  0  0  0
   57.7447   32.6587   48.8633 H   0  0  0  0  0  0  0  0  0  0  0  0
   59.2515   31.6809   48.8633 H   0  0  0  0  0  0  0  0  0  0  0  0
   58.5511   33.9841   50.7544 H   0  0  0  0  0  0  0  0  0  0  0  0
   60.0076   32.9445   50.9054 H   0  0  0  0  0  0  0  0  0  0  0  0
   62.2779   33.8662   50.5849 H   0  0  0  0  0  0  0  0  0  0  0  0
   64.4921   33.3771   49.5466 H   0  0  0  0  0  0  0  0  0  0  0  0
   64.6815   33.1020   47.0747 H   0  0  0  0  0  0  0  0  0  0  0  0
   62.6592   33.3128   45.6349 H   0  0  0  0  0  0  0  0  0  0  0  0
   59.9956   35.9714   46.1676 H   0  0  0  0  0  0  0  0  0  0  0  0
   57.8770   35.4220   44.7540 H   0  0  0  0  0  0  0  0  0  0  0  0
   56.5833   33.0762   44.0353 H   0  0  0  0  0  0  0  0  0  0  0  0
   58.6044   29.5441   45.6182 H   0  0  0  0  0  0  0  0  0  0  0  0
   60.3251   31.0205   46.7112 H   0  0  0  0  0  0  0  0  0  0  0  0
  1  2  1  0
  2  3  1  0
  3  4  1  0
  4  5  2  0
  5  6  1  0
  6  7  2  0
  7  8  1  0
  8  9  2  0
  9 10  1  0
 10 11  1  0
 11 12  2  0
 12 13  1  0
 13 14  2  0
 14 15  1  0
 15 16  1  0
 16 17  2  0
 16 18  1  0
 15 19  2  0
 19 20  1  0
 20 21  2  0
  9  4  1  0
 21 10  1  0
 21 13  1  0
  1 22  1  0
  1 23  1  0
  1 24  1  0
  2 25  1  0
  2 26  1  0
  5 27  1  0
  6 28  1  0
  7 29  1  0
  8 30  1  0
 11 31  1  0
 12 32  1  0
 14 33  1  0
 19 34  1  0
 20 35  1  0
M  CHG  3  12   1  16   1  18  -1
M  END
>  <UniqueID>  (4) 
4

>  <SMILES>  (4) 
CCOc1ccccc1-n1c[nH+]c2cc([N+](=O)[O-])ccc21

>  <Energy>  (4) 
79.61463419237445

>  <Genealogy>  (4) 
CCOc1ccccc1-n1c[nH+]c2cc([N+](=O)[O-])ccc21 (protonated)
CCOc1ccccc1-n1c[nH+]c2cc([N+](=O)[O-])ccc21 (3D coordinates assigned)
CCOc1ccccc1-n1c[nH+]c2cc([N+](=O)[O-])ccc21 (optimized conformer: 79.61463419237445 kcal/mol)

>  <smiles>  (4) 
CCOc1ccccc1-n1cnc2cc([N+](=O)[O-])ccc21

>  <score_type>  (4) 
oracle

>  <origin>  (4) 
adg

>  <m_score__min__energy>  (4) 
-5.79

>  <m_primary>  (4) 
energy

$$$$
4:0
     RDKit          3D

 18 19  0  0  0  0  0  0  0  0999 V2000
   55.1450   29.3450   44.8790 N   0  0  0  0  0  0  0  0  0  0  0  0
   56.7420   29.4120   44.2230 S   0  0  0  0  0  0  0  0  0  0  0  0
   57.5510   28.2780   44.7890 O   0  0  0  0  0  0  0  0  0  0  0  0
   56.6790   29.2830   42.7290 O   0  0  0  0  0  0  0  0  0  0  0  0
   57.4920   30.9380   44.6500 C   0  0  0  0  0  0  0  0  0  0  0  0
   57.9440   31.2790   45.9240 C   0  0  0  0  0  0  0  0  0  0  0  0
   58.4860   32.5670   45.9560 C   0  0  0  0  0  0  0  0  0  0  0  0
   59.0270   33.2220   47.0620 C   0  0  0  0  0  0  0  0  0  0  0  0
   59.5230   34.5240   46.8870 C   0  0  0  0  0  0  0  0  0  0  0  0
   59.4630   35.1320   45.6170 C   0  0  0  0  0  0  0  0  0  0  0  0
   58.9260   34.4640   44.5540 N   0  0  0  0  0  0  0  0  0  0  0  0
   58.4500   33.2060   44.7300 C   0  0  0  0  0  0  0  0  0  0  0  0
   57.7540   32.2160   43.5690 S   0  0  0  0  0  0  0  0  0  0  0  0
   55.1510   28.6140   45.6260 H   0  0  0  0  0  0  0  0  0  0  0  0
   57.8816   30.6146   46.7985 H   0  0  0  0  0  0  0  0  0  0  0  0
   59.0642   32.7315   48.0459 H   0  0  0  0  0  0  0  0  0  0  0  0
   59.9572   35.0679   47.7389 H   0  0  0  0  0  0  0  0  0  0  0  0
   59.8516   36.1521   45.4811 H   0  0  0  0  0  0  0  0  0  0  0  0
  1  2  1  0
  2  3  2  0
  2  4  2  0
  2  5  1  0
  5  6  2  0
  6  7  1  0
  7  8  2  0
  8  9  1  0
  9 10  2  0
 10 11  1  0
 11 12  2  0
 12 13  1  0
 13  5  1  0
 12  7  1  0
  1 14  1  0
  6 15  1  0
  8 16  1  0
  9 17  1  0
 10 18  1  0
M  CHG  1   1  -1
M  END
>  <UniqueID>  (5) 
5

>  <SMILES>  (5) 
[NH-]S(=O)(=O)c1cc2cccnc2s1

>  <Energy>  (5) 
50.99058777995923

>  <Genealogy>  (5) 
[NH-]S(=O)(=O)c1cc2cccnc2s1 (protonated)
[NH-]S(=O)(=O)c1cc2cccnc2s1 (3D coordinates assigned)
[NH-]S(=O)(=O)c1cc2cccnc2s1 (optimized conformer: 50.99058777995923 kcal/mol)

>  <smiles>  (5) 
NS(=O)(=O)c1cc2cccnc2s1

>  <score_type>  (5) 
oracle

>  <origin>  (5) 
adg

>  <m_score__min__energy>  (5) 
-9.0600000000000005

>  <m_primary>  (5) 
energy

$$$$
5:0
     RDKit          3D

 32 34  0  0  0  0  0  0  0  0999 V2000
   58.1110   34.2270   45.7210 O   0  0  0  0  0  0  0  0  0  0  0  0
   58.0120   32.9790   45.1200 C   0  0  0  0  0  0  0  0  0  0  0  0
   57.7680   32.8820   43.7480 C   0  0  0  0  0  0  0  0  0  0  0  0
   57.6570   31.6280   43.1450 C   0  0  0  0  0  0  0  0  0  0  0  0
   57.7950   30.4670   43.9100 C   0  0  0  0  0  0  0  0  0  0  0  0
   58.0530   30.5470   45.2910 C   0  0  0  0  0  0  0  0  0  0  0  0
   58.1890   29.3020   46.0900 C   0  0  0  0  0  0  0  0  0  0  0  0
   58.9160   29.2670   47.2930 C   0  0  0  0  0  0  0  0  0  0  0  0
   59.0260   28.0680   47.9950 C   0  0  0  0  0  0  0  0  0  0  0  0
   58.4180   26.9120   47.5050 C   0  0  0  0  0  0  0  0  0  0  0  0
   57.6910   26.9710   46.3060 C   0  0  0  0  0  0  0  0  0  0  0  0
   57.0500   25.7660   45.7290 C   0  0  0  0  0  0  0  0  0  0  0  0
   57.8620   24.7300   45.2340 C   0  0  0  0  0  0  0  0  0  0  0  0
   57.2910   23.5780   44.6860 C   0  0  0  0  0  0  0  0  0  0  0  0
   55.9020   23.4480   44.6160 C   0  0  0  0  0  0  0  0  0  0  0  0
   55.3470   22.2930   44.0710 O   0  0  0  0  0  0  0  0  0  0  0  0
   55.0830   24.4800   45.0890 C   0  0  0  0  0  0  0  0  0  0  0  0
   55.6470   25.6390   45.6340 C   0  0  0  0  0  0  0  0  0  0  0  0
   54.8050   26.6660   46.0480 O   0  0  0  0  0  0  0  0  0  0  0  0
   57.6120   28.1530   45.6350 N   0  0  0  0  0  0  0  0  0  0  0  0
   58.1520   31.8190   45.8900 C   0  0  0  0  0  0  0  0  0  0  0  0
   57.6633   33.7943   43.1425 H   0  0  0  0  0  0  0  0  0  0  0  0
   57.4605   31.5537   42.0653 H   0  0  0  0  0  0  0  0  0  0  0  0
   57.7012   29.4823   43.4288 H   0  0  0  0  0  0  0  0  0  0  0  0
   59.3947   30.1797   47.6775 H   0  0  0  0  0  0  0  0  0  0  0  0
   59.5931   28.0332   48.9369 H   0  0  0  0  0  0  0  0  0  0  0  0
   58.5076   25.9627   48.0535 H   0  0  0  0  0  0  0  0  0  0  0  0
   58.9568   24.8272   45.2785 H   0  0  0  0  0  0  0  0  0  0  0  0
   57.9371   22.7716   44.3088 H   0  0  0  0  0  0  0  0  0  0  0  0
   55.1400   22.2200   43.0810 H   0  0  0  0  0  0  0  0  0  0  0  0
   53.9891   24.3793   45.0319 H   0  0  0  0  0  0  0  0  0  0  0  0
   58.3407   31.9004   46.9706 H   0  0  0  0  0  0  0  0  0  0  0  0
  1  2  1  0
  2  3  2  0
  3  4  1  0
  4  5  2  0
  5  6  1  0
  6  7  1  0
  7  8  2  0
  8  9  1  0
  9 10  2  0
 10 11  1  0
 11 12  1  0
 12 13  2  0
 13 14  1  0
 14 15  2  0
 15 16  1  0
 15 17  1  0
 17 18  2  0
 18 19  1  0
 11 20  2  0
  6 21  2  0
 21  2  1  0
 20  7  1  0
 18 12  1  0
  3 22  1  0
  4 23  1  0
  5 24  1  0
  8 25  1  0
  9 26  1  0
 10 27  1  0
 13 28  1  0
 14 29  1  0
 16 30  1  0
 17 31  1  0
 21 32  1  0
M  CHG  2   1  -1  19  -1
M  END
>  <UniqueID>  (6) 
6

>  <SMILES>  (6) 
[O-]c1cccc(-c2cccc(-c3ccc(O)cc3[O-])n2)c1

>  <Energy>  (6) 
45.09621600047307

>  <Genealogy>  (6) 
[O-]c1cccc(-c2cccc(-c3ccc(O)cc3[O-])n2)c1 (protonated)
[O-]c1cccc(-c2cccc(-c3ccc(O)cc3[O-])n2)c1 (3D coordinates assigned)
[O-]c1cccc(-c2cccc(-c3ccc(O)cc3[O-])n2)c1 (optimized conformer: 45.09621600047307 kcal/mol)

>  <smiles>  (6) 
Oc1cccc(-c2cccc(-c3ccc(O)cc3O)n2)c1

>  <score_type>  (6) 
oracle

>  <origin>  (6) 
adg

>  <m_score__min__energy>  (6) 
-11.800000000000001

>  <m_primary>  (6) 
energy

$$$$
6:0
     RDKit          3D

 33 35  0  0  1  0  0  0  0  0999 V2000
   57.8830   32.3640   41.5830 C   0  0  0  0  0  0  0  0  0  0  0  0
   57.0070   31.3180   41.5840 N   0  0  0  0  0  0  0  0  0  0  0  0
   56.6580   30.7380   42.7350 C   0  0  0  0  0  0  0  0  0  0  0  0
   55.8310   29.7120   43.0120 N   0  0  0  0  0  0  0  0  0  0  0  0
   55.8200   29.5110   44.3380 C   0  0  0  0  0  0  0  0  0  0  0  0
   56.6420   30.4030   44.9550 N   0  0  0  0  0  0  0  0  0  0  0  0
   57.1520   31.1550   43.9500 C   0  0  0  0  0  0  0  0  0  0  0  0
   58.0450   32.2280   43.9070 C   0  0  0  0  0  0  0  0  0  0  0  0
   58.5100   32.6210   45.0530 N   0  0  0  0  0  0  0  0  0  0  0  0
   58.2270   33.9380   45.5850 C   0  0  0  0  0  0  0  0  0  0  0  0
   59.5440   34.4360   46.1880 C   0  0  0  0  0  0  0  0  0  0  0  0
   60.5480   33.3090   46.3460 C   0  0  0  0  0  0  0  0  0  0  0  0
   61.6560   33.8630   47.2410 C   0  0  0  0  0  0  0  0  0  0  0  0
   61.1800   33.8610   48.6180 N   0  0  0  0  0  0  0  0  0  0  0  0
   59.7220   33.9690   48.6570 C   0  0  0  0  0  0  0  0  0  0  0  0
   59.2970   34.9740   47.5870 C   0  0  0  0  0  0  0  0  0  0  0  0
   58.3880   32.8030   42.7460 N   0  0  0  0  0  0  0  0  0  0  0  0
   58.1729   32.8435   40.6364 H   0  0  0  0  0  0  0  0  0  0  0  0
   55.2650   29.1290   42.3570 H   0  0  0  0  0  0  0  0  0  0  0  0
   55.2316   28.7370   44.8525 H   0  0  0  0  0  0  0  0  0  0  0  0
   57.8942   34.6121   44.7820 H   0  0  0  0  0  0  0  0  0  0  0  0
   57.4238   33.9074   46.3359 H   0  0  0  0  0  0  0  0  0  0  0  0
   59.9336   35.2064   45.5063 H   0  0  0  0  0  0  0  0  0  0  0  0
   60.0736   32.4365   46.8189 H   0  0  0  0  0  0  0  0  0  0  0  0
   60.9404   32.9763   45.3737 H   0  0  0  0  0  0  0  0  0  0  0  0
   62.5522   33.2308   47.1570 H   0  0  0  0  0  0  0  0  0  0  0  0
   61.9144   34.8867   46.9323 H   0  0  0  0  0  0  0  0  0  0  0  0
   61.5690   34.6170   49.1970 H   0  0  0  0  0  0  0  0  0  0  0  0
   59.2689   32.9883   48.4498 H   0  0  0  0  0  0  0  0  0  0  0  0
   59.3888   34.3031   49.6507 H   0  0  0  0  0  0  0  0  0  0  0  0
   58.2243   35.1878   47.7035 H   0  0  0  0  0  0  0  0  0  0  0  0
   59.8949   35.8883   47.7156 H   0  0  0  0  0  0  0  0  0  0  0  0
   59.0590   33.6070   42.7320 H   0  0  0  0  0  0  0  0  0  0  0  0
  1  2  2  0
  2  3  1  0
  3  4  1  0
  4  5  1  0
  5  6  2  0
  6  7  1  0
  7  8  1  0
  8  9  2  0
  9 10  1  0
 10 11  1  0
 11 12  1  0
 12 13  1  0
 13 14  1  0
 14 15  1  0
 15 16  1  0
  8 17  1  0
 17  1  1  0
  7  3  2  0
 16 11  1  0
  1 18  1  0
  4 19  1  0
  5 20  1  0
 10 21  1  0
 10 22  1  0
 11 23  1  0
 12 24  1  0
 12 25  1  0
 13 26  1  0
 13 27  1  0
 14 28  1  0
 15 29  1  0
 15 30  1  0
 16 31  1  0
 16 32  1  0
 17 33  1  0
M  END
>  <smiles>  (7) 
c1nc2[nH]cnc2c(=NCC2CCNCC2)[nH]1

>  <score_type>  (7) 
oracle

>  <origin>  (7) 
adg

>  <m_score__min__energy>  (7) 
-6.2000000000000002

>  <m_primary>  (7) 
energy

$$$$
7:0
     RDKit          3D

 29 30  0  0  0  0  0  0  0  0999 V2000
   58.1390   32.3870   42.3200 C   0  0  0  0  0  0  0  0  0  0  0  0
   58.1390   32.8920   43.7250 C   0  0  0  0  0  0  0  0  0  0  0  0
   59.0020   33.8340   44.1600 N   0  0  0  0  0  0  0  0  0  0  0  0
   58.8160   33.9810   45.4630 N   0  0  0  0  0  0  0  0  0  0  0  0
   59.5240   34.9580   46.2780 C   0  0  0  0  0  0  0  0  0  0  0  0
   57.8410   33.1590   45.8910 C   0  0  0  0  0  0  0  0  0  0  0  0
   57.3810   32.4500   44.8060 C   0  0  0  0  0  0  0  0  0  0  0  0
   56.3460   31.4600   44.8660 N   0  0  0  0  0  0  0  0  0  0  0  0
   56.4860   29.7990   44.3900 S   0  0  0  0  0  0  0  0  0  0  0  0
   56.9330   29.7480   42.9570 O   0  0  0  0  0  0  0  0  0  0  0  0
   55.1470   29.1270   44.5060 O   0  0  0  0  0  0  0  0  0  0  0  0
   57.6920   28.9710   45.3720 C   0  0  0  0  0  0  0  0  0  0  0  0
   57.7090   27.5720   45.4330 C   0  0  0  0  0  0  0  0  0  0  0  0
   58.6600   26.9150   46.2190 C   0  0  0  0  0  0  0  0  0  0  0  0
   59.6040   27.6510   46.9450 C   0  0  0  0  0  0  0  0  0  0  0  0
   60.7820   26.7900   47.9280 Cl  0  0  0  0  0  0  0  0  0  0  0  0
   59.5970   29.0540   46.8780 C   0  0  0  0  0  0  0  0  0  0  0  0
   60.7660   30.0160   47.7720 Cl  0  0  0  0  0  0  0  0  0  0  0  0
   58.6450   29.7080   46.0880 C   0  0  0  0  0  0  0  0  0  0  0  0
   59.1761   32.2630   41.9749 H   0  0  0  0  0  0  0  0  0  0  0  0
   57.6205   31.4178   42.2787 H   0  0  0  0  0  0  0  0  0  0  0  0
   57.6205   33.1082   41.6712 H   0  0  0  0  0  0  0  0  0  0  0  0
   59.3617   34.7340   47.3426 H   0  0  0  0  0  0  0  0  0  0  0  0
   60.5999   34.9120   46.0535 H   0  0  0  0  0  0  0  0  0  0  0  0
   59.1453   35.9661   46.0535 H   0  0  0  0  0  0  0  0  0  0  0  0
   57.4764   33.0698   46.9250 H   0  0  0  0  0  0  0  0  0  0  0  0
   56.9723   26.9888   44.8611 H   0  0  0  0  0  0  0  0  0  0  0  0
   58.6667   25.8161   46.2673 H   0  0  0  0  0  0  0  0  0  0  0  0
   58.6447   30.8064   46.0287 H   0  0  0  0  0  0  0  0  0  0  0  0
  1  2  1  0
  2  3  2  0
  3  4  1  0
  4  5  1  0
  4  6  1  0
  6  7  2  0
  7  8  1  0
  8  9  1  0
  9 10  2  0
  9 11  2  0
  9 12  1  0
 12 13  2  0
 13 14  1  0
 14 15  2  0
 15 16  1  0
 15 17  1  0
 17 18  1  0
 17 19  2  0
  7  2  1  0
 19 12  1  0
  1 20  1  0
  1 21  1  0
  1 22  1  0
  5 23  1  0
  5 24  1  0
  5 25  1  0
  6 26  1  0
 13 27  1  0
 14 28  1  0
 19 29  1  0
M  CHG  1   8  -1
M  END
>  <UniqueID>  (8) 
7

>  <SMILES>  (8) 
Cc1nn(C)cc1[N-]S(=O)(=O)c1ccc(Cl)c(Cl)c1

>  <Energy>  (8) 
64.71255062842175

>  <Genealogy>  (8) 
Cc1nn(C)cc1[N-]S(=O)(=O)c1ccc(Cl)c(Cl)c1 (protonated)
Cc1nn(C)cc1[N-]S(=O)(=O)c1ccc(Cl)c(Cl)c1 (3D coordinates assigned)
Cc1nn(C)cc1[N-]S(=O)(=O)c1ccc(Cl)c(Cl)c1 (optimized conformer: 64.71255062842175 kcal/mol)

>  <smiles>  (8) 
Cc1nn(C)cc1NS(=O)(=O)c1ccc(Cl)c(Cl)c1

>  <score_type>  (8) 
oracle

>  <origin>  (8) 
adg

>  <m_score__min__energy>  (8) 
-9.0800000000000001

>  <m_primary>  (8) 
energy

$$$$
8:0
     RDKit          3D

 49 50  0  0  0  0  0  0  0  0999 V2000
   59.6560   33.2490   50.3170 C   0  0  0  0  0  0  0  0  0  0  0  0
   60.6170   34.2030   49.8770 O   0  0  0  0  0  0  0  0  0  0  0  0
   61.5240   34.0010   48.8230 C   0  0  0  0  0  0  0  0  0  0  0  0
   62.8900   33.7550   49.0760 C   0  0  0  0  0  0  0  0  0  0  0  0
   63.7790   33.5340   48.0240 C   0  0  0  0  0  0  0  0  0  0  0  0
   63.3250   33.5580   46.7090 C   0  0  0  0  0  0  0  0  0  0  0  0
   61.9780   33.8040   46.4370 C   0  0  0  0  0  0  0  0  0  0  0  0
   61.0600   34.0320   47.4810 C   0  0  0  0  0  0  0  0  0  0  0  0
   59.6330   34.2890   47.1450 C   0  0  0  0  0  0  0  0  0  0  0  0
   59.2380   35.4740   46.9700 O   0  0  0  0  0  0  0  0  0  0  0  0
   58.6890   33.2120   47.0810 N   0  0  0  0  0  0  0  0  0  0  0  0
   58.9620   31.8600   46.6820 C   0  0  0  0  0  0  0  0  0  0  0  0
   60.0030   31.1180   47.2570 C   0  0  0  0  0  0  0  0  0  0  0  0
   60.2210   29.8030   46.8560 C   0  0  0  0  0  0  0  0  0  0  0  0
   59.3900   29.2290   45.8960 C   0  0  0  0  0  0  0  0  0  0  0  0
   58.3520   29.9380   45.3570 N   0  0  0  0  0  0  0  0  0  0  0  0
   57.5070   29.3020   44.3320 C   0  0  0  0  0  0  0  0  0  0  0  0
   56.1520   28.9650   44.9020 C   0  0  0  0  0  0  0  0  0  0  0  0
   55.2000   29.7720   44.7270 O   0  0  0  0  0  0  0  0  0  0  0  0
   55.8900   27.7400   45.6000 N   0  0  0  0  0  0  0  0  0  0  0  0
   56.8880   26.7870   46.0790 C   0  0  0  0  0  0  0  0  0  0  0  0
   56.5460   25.3660   45.6150 C   0  0  0  0  0  0  0  0  0  0  0  0
   55.3920   24.8230   46.3650 N   0  0  0  0  0  0  0  0  0  0  0  0
   54.4160   24.2400   45.4290 C   0  0  0  0  0  0  0  0  0  0  0  0
   55.8210   23.7910   47.3270 C   0  0  0  0  0  0  0  0  0  0  0  0
   58.1290   31.2400   45.7350 C   0  0  0  0  0  0  0  0  0  0  0  0
   57.1780   31.8980   45.2280 O   0  0  0  0  0  0  0  0  0  0  0  0
   59.6360   33.2291   51.4166 H   0  0  0  0  0  0  0  0  0  0  0  0
   58.6620   33.5278   49.9371 H   0  0  0  0  0  0  0  0  0  0  0  0
   59.9275   32.2530   49.9371 H   0  0  0  0  0  0  0  0  0  0  0  0
   63.2575   33.7373   50.1126 H   0  0  0  0  0  0  0  0  0  0  0  0
   64.8412   33.3404   48.2345 H   0  0  0  0  0  0  0  0  0  0  0  0
   64.0289   33.3828   45.8820 H   0  0  0  0  0  0  0  0  0  0  0  0
   61.6289   33.8200   45.3940 H   0  0  0  0  0  0  0  0  0  0  0  0
   60.6465   31.5741   48.0238 H   0  0  0  0  0  0  0  0  0  0  0  0
   61.0446   29.2203   47.2944 H   0  0  0  0  0  0  0  0  0  0  0  0
   59.5707   28.1947   45.5682 H   0  0  0  0  0  0  0  0  0  0  0  0
   57.3823   29.9931   43.4854 H   0  0  0  0  0  0  0  0  0  0  0  0
   57.9927   28.3745   43.9947 H   0  0  0  0  0  0  0  0  0  0  0  0
   57.8752   27.0684   45.6836 H   0  0  0  0  0  0  0  0  0  0  0  0
   56.8978   26.8075   47.1788 H   0  0  0  0  0  0  0  0  0  0  0  0
   56.2995   25.3878   44.5432 H   0  0  0  0  0  0  0  0  0  0  0  0
   57.4170   24.7198   45.7989 H   0  0  0  0  0  0  0  0  0  0  0  0
   53.6071   23.7568   45.9966 H   0  0  0  0  0  0  0  0  0  0  0  0
   53.9954   25.0349   44.7956 H   0  0  0  0  0  0  0  0  0  0  0  0
   54.9165   23.4928   44.7956 H   0  0  0  0  0  0  0  0  0  0  0  0
   55.6680   24.1591   48.3522 H   0  0  0  0  0  0  0  0  0  0  0  0
   55.2282   22.8773   47.1732 H   0  0  0  0  0  0  0  0  0  0  0  0
   56.8869   23.5668   47.1732 H   0  0  0  0  0  0  0  0  0  0  0  0
  1  2  1  0
  2  3  1  0
  3  4  2  0
  4  5  1  0
  5  6  2  0
  6  7  1  0
  7  8  2  0
  8  9  1  0
  9 10  2  0
  9 11  1  0
 11 12  1  0
 12 13  2  0
 13 14  1  0
 14 15  2  0
 15 16  1  0
 16 17  1  0
 17 18  1  0
 18 19  2  0
 18 20  1  0
 20 21  1  0
 21 22  1  0
 22 23  1  0
 23 24  1  0
 23 25  1  0
 16 26  1  0
 26 27  2  0
  8  3  1  0
 26 12  1  0
  1 28  1  0
  1 29  1  0
  1 30  1  0
  4 31  1  0
  5 32  1  0
  6 33  1  0
  7 34  1  0
 13 35  1  0
 14 36  1  0
 15 37  1  0
 17 38  1  0
 17 39  1  0
 21 40  1  0
 21 41  1  0
 22 42  1  0
 22 43  1  0
 24 44  1  0
 24 45  1  0
 24 46  1  0
 25 47  1  0
 25 48  1  0
 25 49  1  0
M  CHG  2  11  -1  20  -1
M  END
>  <UniqueID>  (9) 
8

>  <SMILES>  (9) 
COc1ccccc1C(=O)[N-]c1cccn(CC(=O)[N-]CCN(C)C)c1=O

>  <Energy>  (9) 
54.95660169244153

>  <Genealogy>  (9) 
COc1ccccc1C(=O)[N-]c1cccn(CC(=O)[N-]CCN(C)C)c1=O (protonated)
COc1ccccc1C(=O)[N-]c1cccn(CC(=O)[N-]CCN(C)C)c1=O (3D coordinates assigned)
COc1ccccc1C(=O)[N-]c1cccn(CC(=O)[N-]CCN(C)C)c1=O (optimized conformer: 54.95660169244153 kcal/mol)

>  <smiles>  (9) 
COc1ccccc1C(=O)Nc1cccn(CC(=O)NCCN(C)C)c1=O

>  <score_type>  (9) 
oracle

>  <origin>  (9) 
adg

>  <m_score__min__energy>  (9) 
-11.4

>  <m_primary>  (9) 
energy

$$$$
9:0
     RDKit          3D

 38 39  0  0  0  0  0  0  0  0999 V2000
   57.7820   22.7380   44.1240 C   0  0  0  0  0  0  0  0  0  0  0  0
   57.5640   24.4590   44.5270 S   0  0  0  0  0  0  0  0  0  0  0  0
   57.4300   25.2530   43.2580 O   0  0  0  0  0  0  0  0  0  0  0  0
   58.7720   24.9400   45.2800 O   0  0  0  0  0  0  0  0  0  0  0  0
   56.1140   24.6970   45.5520 C   0  0  0  0  0  0  0  0  0  0  0  0
   56.1870   25.9900   46.3650 C   0  0  0  0  0  0  0  0  0  0  0  0
   55.5910   27.0920   45.6190 N   0  0  0  0  0  0  0  0  0  0  0  0
   56.2600   28.3140   45.2870 C   0  0  0  0  0  0  0  0  0  0  0  0
   55.5860   29.2640   44.8080 O   0  0  0  0  0  0  0  0  0  0  0  0
   57.7040   28.5090   45.5310 C   0  0  0  0  0  0  0  0  0  0  0  0
   58.1390   29.6070   46.2880 C   0  0  0  0  0  0  0  0  0  0  0  0
   59.5020   29.7870   46.5330 C   0  0  0  0  0  0  0  0  0  0  0  0
   59.9120   30.8930   47.2920 O   0  0  0  0  0  0  0  0  0  0  0  0
   59.8110   32.2350   46.8950 C   0  0  0  0  0  0  0  0  0  0  0  0
   60.9770   33.0080   46.8340 C   0  0  0  0  0  0  0  0  0  0  0  0
   60.9190   34.3450   46.4280 C   0  0  0  0  0  0  0  0  0  0  0  0
   59.6950   34.9150   46.0670 C   0  0  0  0  0  0  0  0  0  0  0  0
   59.6390   36.2100   45.6710 F   0  0  0  0  0  0  0  0  0  0  0  0
   58.5290   34.1450   46.1050 C   0  0  0  0  0  0  0  0  0  0  0  0
   58.5840   32.8080   46.5110 C   0  0  0  0  0  0  0  0  0  0  0  0
   60.4210   28.8860   45.9760 C   0  0  0  0  0  0  0  0  0  0  0  0
   59.9570   27.8170   45.2080 C   0  0  0  0  0  0  0  0  0  0  0  0
   58.6220   27.6510   45.0000 N   0  0  0  0  0  0  0  0  0  0  0  0
   57.8564   22.1509   45.0512 H   0  0  0  0  0  0  0  0  0  0  0  0
   56.9211   22.3872   43.5359 H   0  0  0  0  0  0  0  0  0  0  0  0
   58.7032   22.6130   43.5359 H   0  0  0  0  0  0  0  0  0  0  0  0
   55.2252   24.7351   44.9050 H   0  0  0  0  0  0  0  0  0  0  0  0
   56.0588   23.8562   46.2592 H   0  0  0  0  0  0  0  0  0  0  0  0
   55.6415   25.8552   47.3107 H   0  0  0  0  0  0  0  0  0  0  0  0
   57.2421   26.2253   46.5684 H   0  0  0  0  0  0  0  0  0  0  0  0
   57.4078   30.3249   46.6879 H   0  0  0  0  0  0  0  0  0  0  0  0
   61.9443   32.5610   47.1070 H   0  0  0  0  0  0  0  0  0  0  0  0
   61.8378   34.9488   46.3927 H   0  0  0  0  0  0  0  0  0  0  0  0
   57.5665   34.5916   45.8150 H   0  0  0  0  0  0  0  0  0  0  0  0
   57.6659   32.2024   46.5303 H   0  0  0  0  0  0  0  0  0  0  0  0
   61.4998   29.0208   46.1432 H   0  0  0  0  0  0  0  0  0  0  0  0
   60.6726   27.1061   44.7692 H   0  0  0  0  0  0  0  0  0  0  0  0
   58.3120   26.8650   44.3870 H   0  0  0  0  0  0  0  0  0  0  0  0
  1  2  1  0
  2  3  2  0
  2  4  2  0
  2  5  1  0
  5  6  1  0
  6  7  1  0
  7  8  1  0
  8  9  2  0
  8 10  1  0
 10 11  2  0
 11 12  1  0
 12 13  1  0
 13 14  1  0
 14 15  2  0
 15 16  1  0
 16 17  2  0
 17 18  1  0
 17 19  1  0
 19 20  2  0
 12 21  2  0
 21 22  1  0
 22 23  2  0
 23 10  1  0
 20 14  1  0
  1 24  1  0
  1 25  1  0
  1 26  1  0
  5 27  1  0
  5 28  1  0
  6 29  1  0
  6 30  1  0
 11 31  1  0
 15 32  1  0
 16 33  1  0
 19 34  1  0
 20 35  1  0
 21 36  1  0
 22 37  1  0
 23 38  1  0
M  CHG  2   7  -1  23   1
M  END
>  <UniqueID>  (10) 
9

>  <SMILES>  (10) 
CS(=O)(=O)CC[N-]C(=O)c1cc(Oc2ccc(F)cc2)cc[nH+]1

>  <Energy>  (10) 
39.10033101488112

>  <Genealogy>  (10) 
CS(=O)(=O)CC[N-]C(=O)c1cc(Oc2ccc(F)cc2)cc[nH+]1 (protonated)
CS(=O)(=O)CC[N-]C(=O)c1cc(Oc2ccc(F)cc2)cc[nH+]1 (3D coordinates assigned)
CS(=O)(=O)CC[N-]C(=O)c1cc(Oc2ccc(F)cc2)cc[nH+]1 (optimized conformer: 39.10033101488112 kcal/mol)

>  <smiles>  (10) 
CS(=O)(=O)CCNC(=O)c1cc(Oc2ccc(F)cc2)ccn1

>  <score_type>  (10) 
oracle

>  <origin>  (10) 
adg

>  <m_score__min__energy>  (10) 
-7.8799999999999999

>  <m_primary>  (10) 
energy

$$$$
10:0
     RDKit          3D

 55 59  0  0  0  0  0  0  0  0999 V2000
   60.4480   27.4880   46.0150 C   0  0  0  0  0  0  0  0  0  0  0  0
   59.0640   26.8980   46.1040 C   0  0  0  0  0  0  0  0  0  0  0  0
   58.9280   25.5740   46.5480 C   0  0  0  0  0  0  0  0  0  0  0  0
   57.6620   25.0000   46.6880 C   0  0  0  0  0  0  0  0  0  0  0  0
   56.5180   25.7420   46.3890 C   0  0  0  0  0  0  0  0  0  0  0  0
   56.6380   27.0510   45.9210 C   0  0  0  0  0  0  0  0  0  0  0  0
   57.9040   27.6300   45.7490 C   0  0  0  0  0  0  0  0  0  0  0  0
   57.9830   28.9820   45.1670 C   0  0  0  0  0  0  0  0  0  0  0  0
   57.9150   29.2540   43.8400 N   0  0  0  0  0  0  0  0  0  0  0  0
   58.0900   30.5690   43.7100 N   0  0  0  0  0  0  0  0  0  0  0  0
   58.2790   31.0760   44.9440 C   0  0  0  0  0  0  0  0  0  0  0  0
   58.5570   32.3920   45.3160 C   0  0  0  0  0  0  0  0  0  0  0  0
   58.8190   32.6280   46.6950 C   0  0  0  0  0  0  0  0  0  0  0  0
   58.7530   31.5360   47.6080 C   0  0  0  0  0  0  0  0  0  0  0  0
   58.9800   31.7460   49.3800 S   0  0  0  0  0  0  0  0  0  0  0  0
   60.4980   30.7300   49.4370 C   0  0  0  0  0  0  0  0  0  0  0  0
   61.3070   30.9000   48.1860 C   0  0  0  0  0  0  0  0  0  0  0  0
   61.1380   30.0980   47.2300 O   0  0  0  0  0  0  0  0  0  0  0  0
   62.2020   32.0130   48.0270 N   0  0  0  0  0  0  0  0  0  0  0  0
   63.1550   32.4500   49.0370 C   0  0  0  0  0  0  0  0  0  0  0  0
   64.0000   33.5240   48.3610 C   0  0  0  0  0  0  0  0  0  0  0  0
   63.2430   33.9180   47.0940 C   0  0  0  0  0  0  0  0  0  0  0  0
   62.3150   32.7520   46.7850 C   0  0  0  0  0  0  0  0  0  0  0  0
   58.4750   30.2840   47.1470 N   0  0  0  0  0  0  0  0  0  0  0  0
   58.2240   30.1080   45.8560 N   0  0  0  0  0  0  0  0  0  0  0  0
   59.1050   34.0290   47.1960 C   0  0  0  0  0  0  0  0  0  0  0  0
   59.6000   34.9590   46.0840 C   0  0  0  0  0  0  0  0  0  0  0  0
   58.6720   34.8850   44.8730 C   0  0  0  0  0  0  0  0  0  0  0  0
   58.6900   33.4780   44.2700 C   0  0  0  0  0  0  0  0  0  0  0  0
   60.8410   27.6556   47.0286 H   0  0  0  0  0  0  0  0  0  0  0  0
   61.1088   26.7933   45.4757 H   0  0  0  0  0  0  0  0  0  0  0  0
   60.4043   28.4457   45.4757 H   0  0  0  0  0  0  0  0  0  0  0  0
   59.8247   24.9836   46.7876 H   0  0  0  0  0  0  0  0  0  0  0  0
   57.5664   23.9605   47.0348 H   0  0  0  0  0  0  0  0  0  0  0  0
   55.5219   25.2947   46.5223 H   0  0  0  0  0  0  0  0  0  0  0  0
   55.7344   27.6324   45.6855 H   0  0  0  0  0  0  0  0  0  0  0  0
   58.1010   31.0810   42.8010 H   0  0  0  0  0  0  0  0  0  0  0  0
   61.1042   31.0376   50.3018 H   0  0  0  0  0  0  0  0  0  0  0  0
   60.2083   29.6725   49.5254 H   0  0  0  0  0  0  0  0  0  0  0  0
   62.6282   32.8668   49.9080 H   0  0  0  0  0  0  0  0  0  0  0  0
   63.7716   31.6165   49.4045 H   0  0  0  0  0  0  0  0  0  0  0  0
   64.1146   34.3941   49.0242 H   0  0  0  0  0  0  0  0  0  0  0  0
   65.0104   33.1559   48.1293 H   0  0  0  0  0  0  0  0  0  0  0  0
   62.6610   34.8356   47.2654 H   0  0  0  0  0  0  0  0  0  0  0  0
   63.9298   34.1207   46.2590 H   0  0  0  0  0  0  0  0  0  0  0  0
   61.3290   33.1190   46.4640 H   0  0  0  0  0  0  0  0  0  0  0  0
   62.7025   32.1248   45.9686 H   0  0  0  0  0  0  0  0  0  0  0  0
   58.1806   34.4475   47.6207 H   0  0  0  0  0  0  0  0  0  0  0  0
   59.9009   33.9581   47.9520 H   0  0  0  0  0  0  0  0  0  0  0  0
   59.6231   35.9925   46.4599 H   0  0  0  0  0  0  0  0  0  0  0  0
   60.6089   34.6440   45.7792 H   0  0  0  0  0  0  0  0  0  0  0  0
   57.6469   35.1315   45.1867 H   0  0  0  0  0  0  0  0  0  0  0  0
   59.0187   35.6021   44.1143 H   0  0  0  0  0  0  0  0  0  0  0  0
   57.8535   33.3882   43.5613 H   0  0  0  0  0  0  0  0  0  0  0  0
   59.6615   33.3424   43.7722 H   0  0  0  0  0  0  0  0  0  0  0  0
  1  2  1  0
  2  3  2  0
  3  4  1  0
  4  5  2  0
  5  6  1  0
  6  7  2  0
  7  8  1  0
  8  9  2  0
  9 10  1  0
 10 11  2  0
 11 12  1  0
 12 13  2  0
 13 14  1  0
 14 15  1  0
 15 16  1  0
 16 17  1  0
 17 18  2  0
 17 19  1  0
 19 20  1  0
 20 21  1  0
 21 22  1  0
 22 23  1  0
 14 24  2  0
 24 25  1  0
 13 26  1  0
 26 27  1  0
 27 28  1  0
 28 29  1  0
  7  2  1  0
 25  8  1  0
 25 11  1  0
 29 12  1  0
 23 19  1  0
  1 30  1  0
  1 31  1  0
  1 32  1  0
  3 33  1  0
  4 34  1  0
  5 35  1  0
  6 36  1  0
 10 37  1  0
 16 38  1  0
 16 39  1  0
 20 40  1  0
 20 41  1  0
 21 42  1  0
 21 43  1  0
 22 44  1  0
 22 45  1  0
 23 46  1  0
 23 47  1  0
 26 48  1  0
 26 49  1  0
 27 50  1  0
 27 51  1  0
 28 52  1  0
 28 53  1  0
 29 54  1  0
 29 55  1  0
M  CHG  1  10   1
M  END
>  <UniqueID>  (11) 
10

>  <SMILES>  (11) 
Cc1ccccc1-c1n[nH+]c2c3c(c(SCC(=O)N4CCCC4)nn12)CCCC3

>  <Energy>  (11) 
105.59589992544971

>  <Genealogy>  (11) 
Cc1ccccc1-c1n[nH+]c2c3c(c(SCC(=O)N4CCCC4)nn12)CCCC3 (protonated)
Cc1ccccc1-c1n[nH+]c2c3c(c(SCC(=O)N4CCCC4)nn12)CCCC3 (3D coordinates assigned)
Cc1ccccc1-c1n[nH+]c2c3c(c(SCC(=O)N4CCCC4)nn12)CCCC3 (nonaromatic ring conformer: 105.59589992544971 kcal/mol)

>  <smiles>  (11) 
Cc1ccccc1-c1nnc2c3c(c(SCC(=O)N4CCCC4)nn12)CCCC3

>  <score_type>  (11) 
oracle

>  <origin>  (11) 
adg

>  <m_score__min__energy>  (11) 
-7.9500000000000002

>  <m_primary>  (11) 
energy

$$$$
11:0
     RDKit          3D

 40 42  0  0  0  0  0  0  0  0999 V2000
   64.8210   32.3190   51.8760 C   0  0  0  0  0  0  0  0  0  0  0  0
   64.1580   32.7270   50.5990 C   0  0  0  0  0  0  0  0  0  0  0  0
   64.7700   32.4820   49.3650 C   0  0  0  0  0  0  0  0  0  0  0  0
   64.1390   32.8440   48.2160 N   0  0  0  0  0  0  0  0  0  0  0  0
   62.9150   33.4480   48.2420 C   0  0  0  0  0  0  0  0  0  0  0  0
   62.2370   33.8280   46.9850 C   0  0  0  0  0  0  0  0  0  0  0  0
   62.9290   34.1940   45.9950 O   0  0  0  0  0  0  0  0  0  0  0  0
   60.8040   33.7770   46.8660 N   0  0  0  0  0  0  0  0  0  0  0  0
   60.0910   34.8090   46.1010 C   0  0  0  0  0  0  0  0  0  0  0  0
   59.2800   34.1620   44.9730 C   0  0  0  0  0  0  0  0  0  0  0  0
   58.5790   32.9530   45.4380 N   0  0  0  0  0  0  0  0  0  0  0  0
   57.9200   32.1010   44.4820 C   0  0  0  0  0  0  0  0  0  0  0  0
   57.2880   30.9160   44.9000 C   0  0  0  0  0  0  0  0  0  0  0  0
   56.6600   30.0840   43.9690 C   0  0  0  0  0  0  0  0  0  0  0  0
   56.6600   30.4240   42.6130 C   0  0  0  0  0  0  0  0  0  0  0  0
   57.2910   31.5950   42.1860 C   0  0  0  0  0  0  0  0  0  0  0  0
   57.9210   32.4290   43.1140 C   0  0  0  0  0  0  0  0  0  0  0  0
   58.6250   32.5870   46.8600 C   0  0  0  0  0  0  0  0  0  0  0  0
   60.0780   32.5880   47.3460 C   0  0  0  0  0  0  0  0  0  0  0  0
   62.2930   33.6670   49.4790 C   0  0  0  0  0  0  0  0  0  0  0  0
   62.9280   33.3060   50.6230 N   0  0  0  0  0  0  0  0  0  0  0  0
   64.2294   32.6831   52.7289 H   0  0  0  0  0  0  0  0  0  0  0  0
   64.8899   31.2220   51.9192 H   0  0  0  0  0  0  0  0  0  0  0  0
   65.8313   32.7518   51.9192 H   0  0  0  0  0  0  0  0  0  0  0  0
   65.7573   31.9987   49.3243 H   0  0  0  0  0  0  0  0  0  0  0  0
   64.5990   32.6220   47.3050 H   0  0  0  0  0  0  0  0  0  0  0  0
   59.4107   35.3542   46.7718 H   0  0  0  0  0  0  0  0  0  0  0  0
   60.8233   35.5044   45.6649 H   0  0  0  0  0  0  0  0  0  0  0  0
   58.5382   34.8862   44.6051 H   0  0  0  0  0  0  0  0  0  0  0  0
   59.9745   33.8716   44.1709 H   0  0  0  0  0  0  0  0  0  0  0  0
   57.2880   30.6426   45.9655 H   0  0  0  0  0  0  0  0  0  0  0  0
   56.1651   29.1604   44.3037 H   0  0  0  0  0  0  0  0  0  0  0  0
   56.1630   29.7693   41.8820 H   0  0  0  0  0  0  0  0  0  0  0  0
   57.2920   31.8609   41.1186 H   0  0  0  0  0  0  0  0  0  0  0  0
   58.4207   33.3475   42.7725 H   0  0  0  0  0  0  0  0  0  0  0  0
   58.0434   33.3154   47.4442 H   0  0  0  0  0  0  0  0  0  0  0  0
   58.1971   31.5822   46.9919 H   0  0  0  0  0  0  0  0  0  0  0  0
   60.0876   32.5825   48.4459 H   0  0  0  0  0  0  0  0  0  0  0  0
   60.5774   31.6927   46.9471 H   0  0  0  0  0  0  0  0  0  0  0  0
   61.2956   34.1289   49.5223 H   0  0  0  0  0  0  0  0  0  0  0  0
  1  2  1  0
  2  3  2  0
  3  4  1  0
  4  5  2  0
  5  6  1  0
  6  7  2  0
  6  8  1  0
  8  9  1  0
  9 10  1  0
 10 11  1  0
 11 12  1  0
 12 13  2  0
 13 14  1  0
 14 15  2  0
 15 16  1  0
 16 17  2  0
 11 18  1  0
 18 19  1  0
  5 20  1  0
 20 21  2  0
 21  2  1  0
 19  8  1  0
 17 12  1  0
  1 22  1  0
  1 23  1  0
  1 24  1  0
  3 25  1  0
  4 26  1  0
  9 27  1  0
  9 28  1  0
 10 29  1  0
 10 30  1  0
 13 31  1  0
 14 32  1  0
 15 33  1  0
 16 34  1  0
 17 35  1  0
 18 36  1  0
 18 37  1  0
 19 38  1  0
 19 39  1  0
 20 40  1  0
M  CHG  1   4   1
M  END
>  <UniqueID>  (12) 
11

>  <SMILES>  (12) 
Cc1c[nH+]c(C(=O)N2CCN(c3ccccc3)CC2)cn1

>  <Energy>  (12) 
51.47003559452142

>  <Genealogy>  (12) 
Cc1c[nH+]c(C(=O)N2CCN(c3ccccc3)CC2)cn1 (protonated)
Cc1c[nH+]c(C(=O)N2CCN(c3ccccc3)CC2)cn1 (3D coordinates assigned)
Cc1c[nH+]c(C(=O)N2CCN(c3ccccc3)CC2)cn1 (nonaromatic ring conformer: 51.47003559452142 kcal/mol)

>  <smiles>  (12) 
Cc1cnc(C(=O)N2CCN(c3ccccc3)CC2)cn1

>  <score_type>  (12) 
oracle

>  <origin>  (12) 
adg

>  <m_score__min__energy>  (12) 
-6.21

>  <m_primary>  (12) 
energy

$$$$
12:0
     RDKit          3D

 41 42  0  0  0  0  0  0  0  0999 V2000
   56.6240   30.3600   42.6870 C   0  0  0  0  0  0  0  0  0  0  0  0
   55.6710   29.7450   43.7060 C   0  0  0  0  0  0  0  0  0  0  0  0
   56.4110   28.9730   44.7010 N   0  0  0  0  0  0  0  0  0  0  0  0
   57.3450   29.5790   45.6090 C   0  0  0  0  0  0  0  0  0  0  0  0
   57.4490   30.8350   45.6500 O   0  0  0  0  0  0  0  0  0  0  0  0
   58.1890   28.7410   46.4970 C   0  0  0  0  0  0  0  0  0  0  0  0
   58.9800   29.3570   47.4850 C   0  0  0  0  0  0  0  0  0  0  0  0
   59.7710   28.5900   48.3430 C   0  0  0  0  0  0  0  0  0  0  0  0
   59.7910   27.2010   48.2230 C   0  0  0  0  0  0  0  0  0  0  0  0
   59.0120   26.5740   47.2500 C   0  0  0  0  0  0  0  0  0  0  0  0
   58.1890   27.3290   46.3960 C   0  0  0  0  0  0  0  0  0  0  0  0
   57.4390   26.6810   45.3570 N   0  0  0  0  0  0  0  0  0  0  0  0
   56.2800   25.8560   45.5350 C   0  0  0  0  0  0  0  0  0  0  0  0
   55.2360   26.3760   46.0110 O   0  0  0  0  0  0  0  0  0  0  0  0
   56.3180   24.3640   45.2850 C   0  0  0  0  0  0  0  0  0  0  0  0
   57.6710   23.7660   45.7120 C   0  0  0  0  0  0  0  0  0  0  0  0
   57.6740   22.2280   45.5820 C   0  0  0  0  0  0  0  0  0  0  0  0
   56.7370   21.7020   44.4760 C   0  0  0  0  0  0  0  0  0  0  0  0
   56.6010   22.7040   43.3250 C   0  0  0  0  0  0  0  0  0  0  0  0
   56.0190   24.0550   43.7970 C   0  0  0  0  0  0  0  0  0  0  0  0
   57.4355   30.8837   43.2134 H   0  0  0  0  0  0  0  0  0  0  0  0
   57.0490   29.5653   42.0562 H   0  0  0  0  0  0  0  0  0  0  0  0
   56.0750   31.0746   42.0562 H   0  0  0  0  0  0  0  0  0  0  0  0
   55.1151   30.5482   44.2118 H   0  0  0  0  0  0  0  0  0  0  0  0
   54.9757   29.0733   43.1812 H   0  0  0  0  0  0  0  0  0  0  0  0
   56.1850   27.9580   44.8000 H   0  0  0  0  0  0  0  0  0  0  0  0
   58.9750   30.4527   47.5822 H   0  0  0  0  0  0  0  0  0  0  0  0
   60.3798   29.0828   49.1154 H   0  0  0  0  0  0  0  0  0  0  0  0
   60.4207   26.5997   48.8952 H   0  0  0  0  0  0  0  0  0  0  0  0
   59.0420   25.4790   47.1501 H   0  0  0  0  0  0  0  0  0  0  0  0
   55.5359   23.8928   45.8984 H   0  0  0  0  0  0  0  0  0  0  0  0
   58.4635   24.1807   45.0717 H   0  0  0  0  0  0  0  0  0  0  0  0
   57.8458   24.0243   46.7669 H   0  0  0  0  0  0  0  0  0  0  0  0
   58.6991   21.8998   45.3550 H   0  0  0  0  0  0  0  0  0  0  0  0
   57.3075   21.8221   46.5364 H   0  0  0  0  0  0  0  0  0  0  0  0
   57.1446   20.7594   44.0818 H   0  0  0  0  0  0  0  0  0  0  0  0
   55.7406   21.5472   44.9155 H   0  0  0  0  0  0  0  0  0  0  0  0
   57.5951   22.8793   42.8879 H   0  0  0  0  0  0  0  0  0  0  0  0
   55.9091   22.2772   42.5840 H   0  0  0  0  0  0  0  0  0  0  0  0
   56.4518   24.8563   43.1801 H   0  0  0  0  0  0  0  0  0  0  0  0
   54.9259   23.9943   43.6899 H   0  0  0  0  0  0  0  0  0  0  0  0
  1  2  1  0
  2  3  1  0
  3  4  1  0
  4  5  2  0
  4  6  1  0
  6  7  2  0
  7  8  1  0
  8  9  2  0
  9 10  1  0
 10 11  2  0
 11 12  1  0
 12 13  1  0
 13 14  2  0
 13 15  1  0
 15 16  1  0
 16 17  1  0
 17 18  1  0
 18 19  1  0
 19 20  1  0
 11  6  1  0
 20 15  1  0
  1 21  1  0
  1 22  1  0
  1 23  1  0
  2 24  1  0
  2 25  1  0
  3 26  1  0
  7 27  1  0
  8 28  1  0
  9 29  1  0
 10 30  1  0
 15 31  1  0
 16 32  1  0
 16 33  1  0
 17 34  1  0
 17 35  1  0
 18 36  1  0
 18 37  1  0
 19 38  1  0
 19 39  1  0
 20 40  1  0
 20 41  1  0
M  CHG  1  12  -1
M  END
>  <UniqueID>  (13) 
12

>  <SMILES>  (13) 
CCNC(=O)c1ccccc1[N-]C(=O)C1CCCCC1

>  <Energy>  (13) 
45.5873574386553

>  <Genealogy>  (13) 
CCNC(=O)c1ccccc1[N-]C(=O)C1CCCCC1 (protonated)
CCNC(=O)c1ccccc1[N-]C(=O)C1CCCCC1 (3D coordinates assigned)
CCNC(=O)c1ccccc1[N-]C(=O)C1CCCCC1 (nonaromatic ring conformer: 45.5873574386553 kcal/mol)

>  <smiles>  (13) 
CCNC(=O)c1ccccc1NC(=O)C1CCCCC1

>  <score_type>  (13) 
oracle

>  <origin>  (13) 
adg

>  <m_score__min__energy>  (13) 
-9.2200000000000006

>  <m_primary>  (13) 
energy

$$$$
13:0
     RDKit          3D

 46 48  0  0  0  0  0  0  0  0999 V2000
   58.8472   35.6147   47.6195 H   0  0  0  0  0  0  0  0  0  0  0  0
   59.2390   34.5870   47.6030 C   0  0  0  0  0  0  0  0  0  0  0  0
   60.2060   34.2780   48.4810 C   0  0  0  0  0  0  0  0  0  0  0  0
   59.9662   34.3508   49.5521 H   0  0  0  0  0  0  0  0  0  0  0  0
   61.5760   33.8450   48.1090 C   0  0  0  0  0  0  0  0  0  0  0  0
   61.9620   33.8690   46.7600 C   0  0  0  0  0  0  0  0  0  0  0  0
   61.2433   34.1831   45.9888 H   0  0  0  0  0  0  0  0  0  0  0  0
   63.2530   33.4960   46.3960 C   0  0  0  0  0  0  0  0  0  0  0  0
   63.5455   33.5050   45.3356 H   0  0  0  0  0  0  0  0  0  0  0  0
   64.1540   33.1210   47.3410 N   0  0  0  0  0  0  0  0  0  0  0  0
   65.1140   32.8490   47.0290 H   0  0  0  0  0  0  0  0  0  0  0  0
   63.8300   33.0970   48.6660 C   0  0  0  0  0  0  0  0  0  0  0  0
   64.7870   32.7060   49.6160 C   0  0  0  0  0  0  0  0  0  0  0  0
   65.7995   32.4259   49.2897 H   0  0  0  0  0  0  0  0  0  0  0  0
   64.4600   32.6710   50.9720 C   0  0  0  0  0  0  0  0  0  0  0  0
   65.2159   32.3666   51.7109 H   0  0  0  0  0  0  0  0  0  0  0  0
   63.1770   33.0210   51.3930 C   0  0  0  0  0  0  0  0  0  0  0  0
   62.9239   32.9891   52.4630 H   0  0  0  0  0  0  0  0  0  0  0  0
   62.2120   33.4120   50.4610 C   0  0  0  0  0  0  0  0  0  0  0  0
   61.2010   33.6803   50.8015 H   0  0  0  0  0  0  0  0  0  0  0  0
   62.5250   33.4650   49.0880 C   0  0  0  0  0  0  0  0  0  0  0  0
   58.6600   33.6510   46.6150 C   0  0  0  0  0  0  0  0  0  0  0  0
   57.5680   34.0150   45.8080 C   0  0  0  0  0  0  0  0  0  0  0  0
   57.1207   35.0147   45.9107 H   0  0  0  0  0  0  0  0  0  0  0  0
   57.0480   33.1130   44.8760 C   0  0  0  0  0  0  0  0  0  0  0  0
   56.1857   33.4045   44.2584 H   0  0  0  0  0  0  0  0  0  0  0  0
   57.6160   31.8370   44.7200 C   0  0  0  0  0  0  0  0  0  0  0  0
   57.0620   30.8980   43.7680 N   0  0  0  0  0  0  0  0  0  0  0  0
   57.0220   31.2210   42.3320 C   0  0  0  0  0  0  0  0  0  0  0  0
   56.0260   31.6132   42.0786 H   0  0  0  0  0  0  0  0  0  0  0  0
   57.2312   30.3052   41.7597 H   0  0  0  0  0  0  0  0  0  0  0  0
   58.0750   32.2670   41.9800 C   0  0  0  0  0  0  0  0  0  0  0  0
   58.4979   32.6871   42.9045 H   0  0  0  0  0  0  0  0  0  0  0  0
   58.8762   31.7969   41.3908 H   0  0  0  0  0  0  0  0  0  0  0  0
   57.6103   33.0713   41.3908 H   0  0  0  0  0  0  0  0  0  0  0  0
   56.5360   29.6030   44.2250 C   0  0  0  0  0  0  0  0  0  0  0  0
   56.2027   29.6986   45.2689 H   0  0  0  0  0  0  0  0  0  0  0  0
   55.6949   29.3182   43.5758 H   0  0  0  0  0  0  0  0  0  0  0  0
   57.6050   28.5160   44.1400 C   0  0  0  0  0  0  0  0  0  0  0  0
   57.9022   28.2138   45.1551 H   0  0  0  0  0  0  0  0  0  0  0  0
   57.2011   27.6458   43.6018 H   0  0  0  0  0  0  0  0  0  0  0  0
   58.4818   28.9053   43.6018 H   0  0  0  0  0  0  0  0  0  0  0  0
   58.7310   31.4920   45.5040 C   0  0  0  0  0  0  0  0  0  0  0  0
   59.1973   30.5030   45.3836 H   0  0  0  0  0  0  0  0  0  0  0  0
   59.2520   32.3950   46.4350 C   0  0  0  0  0  0  0  0  0  0  0  0
   60.1338   32.1168   47.0308 H   0  0  0  0  0  0  0  0  0  0  0  0
  1  2  1  0
  2  3  2  0
  3  4  1  0
  3  5  1  0
  5  6  2  0
  6  7  1  0
  6  8  1  0
  8  9  1  0
  8 10  2  0
 10 11  1  0
 10 12  1  0
 12 13  2  0
 13 14  1  0
 13 15  1  0
 15 16  1  0
 15 17  2  0
 17 18  1  0
 17 19  1  0
 19 20  1  0
 19 21  2  0
  2 22  1  0
 22 23  2  0
 23 24  1  0
 23 25  1  0
 25 26  1  0
 25 27  2  0
 27 28  1  0
 28 29  1  0
 29 30  1  0
 29 31  1  0
 29 32  1  0
 32 33  1  0
 32 34  1  0
 32 35  1  0
 28 36  1  0
 36 37  1  0
 36 38  1  0
 36 39  1  0
 39 40  1  0
 39 41  1  0
 39 42  1  0
 27 43  1  0
 43 44  1  0
 43 45  2  0
 45 46  1  0
 21  5  1  0
 45 22  1  0
 21 12  1  0
M  CHG  1  10   1
M  END
>  <UniqueID>  (14) 
13

>  <SMILES>  (14) 
CCN(CC)c1ccc(/C=C\c2cc[nH+]c3ccccc23)cc1

>  <Energy>  (14) 
60.13903182826606

>  <Genealogy>  (14) 
CCN(CC)c1ccc(C=Cc2cc[nH+]c3ccccc23)cc1 (protonated)
CCN(CC)c1ccc(/C=C\c2cc[nH+]c3ccccc23)cc1 (cis-trans isomerization)
CCN(CC)c1ccc(/C=C\c2cc[nH+]c3ccccc23)cc1 (3D coordinates assigned)
CCN(CC)c1ccc(/C=C\c2cc[nH+]c3ccccc23)cc1 (optimized conformer: 60.13903182826606 kcal/mol)

>  <smiles>  (14) 
CCN(CC)c1ccc(C=Cc2ccnc3ccccc23)cc1

>  <score_type>  (14) 
oracle

>  <origin>  (14) 
adg

>  <m_score__min__energy>  (14) 
-7.2000000000000002

>  <m_primary>  (14) 
energy

$$$$
14:0
     RDKit          3D

 29 30  0  0  0  0  0  0  0  0999 V2000
   58.1690   26.9700   42.8730 C   0  0  0  0  0  0  0  0  0  0  0  0
   58.6550   27.8030   44.0150 C   0  0  0  0  0  0  0  0  0  0  0  0
   59.9270   28.2310   44.1320 N   0  0  0  0  0  0  0  0  0  0  0  0
   60.0000   28.9210   45.2320 O   0  0  0  0  0  0  0  0  0  0  0  0
   58.8400   28.9680   45.8460 C   0  0  0  0  0  0  0  0  0  0  0  0
   58.6140   29.6840   47.1360 C   0  0  0  0  0  0  0  0  0  0  0  0
   57.9140   28.2550   45.0980 C   0  0  0  0  0  0  0  0  0  0  0  0
   56.4840   28.0230   45.3850 C   0  0  0  0  0  0  0  0  0  0  0  0
   56.1260   26.9900   46.0130 O   0  0  0  0  0  0  0  0  0  0  0  0
   55.5000   28.9680   44.9500 N   0  0  0  0  0  0  0  0  0  0  0  0
   55.5640   29.6720   43.6750 C   0  0  0  0  0  0  0  0  0  0  0  0
   56.5240   30.8190   43.7610 C   0  0  0  0  0  0  0  0  0  0  0  0
   57.2250   31.2500   42.6250 C   0  0  0  0  0  0  0  0  0  0  0  0
   58.1330   32.3040   42.7400 C   0  0  0  0  0  0  0  0  0  0  0  0
   58.3370   32.9150   43.9790 C   0  0  0  0  0  0  0  0  0  0  0  0
   57.6260   32.4560   45.0910 C   0  0  0  0  0  0  0  0  0  0  0  0
   56.7460   31.4270   44.9600 N   0  0  0  0  0  0  0  0  0  0  0  0
   57.6505   26.0813   43.2620 H   0  0  0  0  0  0  0  0  0  0  0  0
   57.4737   27.5605   42.2583 H   0  0  0  0  0  0  0  0  0  0  0  0
   59.0252   26.6552   42.2583 H   0  0  0  0  0  0  0  0  0  0  0  0
   58.8283   29.0051   47.9746 H   0  0  0  0  0  0  0  0  0  0  0  0
   59.2801   30.5576   47.1921 H   0  0  0  0  0  0  0  0  0  0  0  0
   57.5671   30.0169   47.1921 H   0  0  0  0  0  0  0  0  0  0  0  0
   55.9001   28.9756   42.8926 H   0  0  0  0  0  0  0  0  0  0  0  0
   54.5642   30.0602   43.4305 H   0  0  0  0  0  0  0  0  0  0  0  0
   57.0608   30.7621   41.6529 H   0  0  0  0  0  0  0  0  0  0  0  0
   58.6870   32.6527   41.8560 H   0  0  0  0  0  0  0  0  0  0  0  0
   59.0489   33.7477   44.0785 H   0  0  0  0  0  0  0  0  0  0  0  0
   57.7781   32.9273   46.0732 H   0  0  0  0  0  0  0  0  0  0  0  0
  1  2  1  0
  2  3  2  0
  3  4  1  0
  4  5  1  0
  5  6  1  0
  5  7  2  0
  7  8  1  0
  8  9  2  0
  8 10  1  0
 10 11  1  0
 11 12  1  0
 12 13  2  0
 13 14  1  0
 14 15  2  0
 15 16  1  0
 16 17  2  0
  7  2  1  0
 17 12  1  0
  1 18  1  0
  1 19  1  0
  1 20  1  0
  6 21  1  0
  6 22  1  0
  6 23  1  0
 11 24  1  0
 11 25  1  0
 13 26  1  0
 14 27  1  0
 15 28  1  0
 16 29  1  0
M  CHG  1  10  -1
M  END
>  <UniqueID>  (15) 
14

>  <SMILES>  (15) 
Cc1noc(C)c1C(=O)[N-]Cc1ccccn1

>  <Energy>  (15) 
56.23388022590735

>  <Genealogy>  (15) 
Cc1noc(C)c1C(=O)[N-]Cc1ccccn1 (protonated)
Cc1noc(C)c1C(=O)[N-]Cc1ccccn1 (3D coordinates assigned)
Cc1noc(C)c1C(=O)[N-]Cc1ccccn1 (optimized conformer: 56.23388022590735 kcal/mol)

>  <smiles>  (15) 
Cc1noc(C)c1C(=O)NCc1ccccn1

>  <score_type>  (15) 
oracle

>  <origin>  (15) 
adg

>  <m_score__min__energy>  (15) 
-8.7599999999999998

>  <m_primary>  (15) 
energy

$$$$
15:0
     RDKit          3D

 62 66  0  0  0  0  0  0  0  0999 V2000
   58.8710   34.6670   44.5790 O   0  0  0  0  0  0  0  0  0  0  0  0
   58.9020   34.1980   45.8930 C   0  0  0  0  0  0  0  0  0  0  0  0
   58.2490   33.0070   46.2170 C   0  0  0  0  0  0  0  0  0  0  0  0
   58.2790   32.5180   47.5250 C   0  0  0  0  0  0  0  0  0  0  0  0
   58.9480   33.2290   48.5350 C   0  0  0  0  0  0  0  0  0  0  0  0
   58.9760   32.7290   49.8880 N   0  0  0  0  0  0  0  0  0  0  0  0
   57.8470   31.9680   50.4380 C   0  0  0  0  0  0  0  0  0  0  0  0
   58.3770   30.8970   51.4040 C   0  0  0  0  0  0  0  0  0  0  0  0
   59.2060   31.4520   52.5090 N   0  0  0  0  0  0  0  0  0  0  0  0
   60.2460   30.4780   52.9160 C   0  0  0  0  0  0  0  0  0  0  0  0
   59.8430   29.0320   52.6030 C   0  0  0  0  0  0  0  0  0  0  0  0
   60.6360   28.5070   51.4900 N   0  0  0  0  0  0  0  0  0  0  0  0
   60.5870   28.9600   50.2720 C   0  0  0  0  0  0  0  0  0  0  0  0
   59.7870   28.3460   49.3640 N   0  0  0  0  0  0  0  0  0  0  0  0
   59.7070   28.7770   48.0750 C   0  0  0  0  0  0  0  0  0  0  0  0
   58.7730   28.0980   47.1380 C   0  0  0  0  0  0  0  0  0  0  0  0
   58.1220   28.8440   46.1330 C   0  0  0  0  0  0  0  0  0  0  0  0
   57.2720   28.2120   45.2160 C   0  0  0  0  0  0  0  0  0  0  0  0
   57.0640   26.8320   45.2890 C   0  0  0  0  0  0  0  0  0  0  0  0
   57.7030   26.0810   46.2790 C   0  0  0  0  0  0  0  0  0  0  0  0
   58.5560   26.7040   47.1960 C   0  0  0  0  0  0  0  0  0  0  0  0
   60.5020   29.8630   47.6710 C   0  0  0  0  0  0  0  0  0  0  0  0
   61.3120   30.5060   48.6170 C   0  0  0  0  0  0  0  0  0  0  0  0
   62.1670   31.6630   48.2530 C   0  0  0  0  0  0  0  0  0  0  0  0
   63.2130   32.0640   49.1080 C   0  0  0  0  0  0  0  0  0  0  0  0
   64.0240   33.1530   48.7750 C   0  0  0  0  0  0  0  0  0  0  0  0
   63.7950   33.8630   47.5950 C   0  0  0  0  0  0  0  0  0  0  0  0
   62.7520   33.4870   46.7480 C   0  0  0  0  0  0  0  0  0  0  0  0
   61.9400   32.3940   47.0710 C   0  0  0  0  0  0  0  0  0  0  0  0
   61.3290   30.0360   49.8930 N   0  0  0  0  0  0  0  0  0  0  0  0
   59.7620   32.8060   52.2290 C   0  0  0  0  0  0  0  0  0  0  0  0
   60.1320   33.0050   50.7520 C   0  0  0  0  0  0  0  0  0  0  0  0
   59.5940   34.4350   48.2040 C   0  0  0  0  0  0  0  0  0  0  0  0
   59.5780   34.9110   46.8900 C   0  0  0  0  0  0  0  0  0  0  0  0
   59.3230   34.1630   43.8260 H   0  0  0  0  0  0  0  0  0  0  0  0
   57.7078   32.4506   45.4375 H   0  0  0  0  0  0  0  0  0  0  0  0
   57.7755   31.5701   47.7657 H   0  0  0  0  0  0  0  0  0  0  0  0
   57.1736   32.6493   50.9787 H   0  0  0  0  0  0  0  0  0  0  0  0
   57.2957   31.4838   49.6185 H   0  0  0  0  0  0  0  0  0  0  0  0
   57.5180   30.3695   51.8443 H   0  0  0  0  0  0  0  0  0  0  0  0
   59.0239   30.2260   50.8198 H   0  0  0  0  0  0  0  0  0  0  0  0
   61.1775   30.7099   52.3788 H   0  0  0  0  0  0  0  0  0  0  0  0
   60.3786   30.5624   54.0047 H   0  0  0  0  0  0  0  0  0  0  0  0
   60.0120   28.4085   53.4934 H   0  0  0  0  0  0  0  0  0  0  0  0
   58.7797   29.0125   52.3219 H   0  0  0  0  0  0  0  0  0  0  0  0
   58.2830   29.9303   46.0689 H   0  0  0  0  0  0  0  0  0  0  0  0
   56.7676   28.8029   44.4373 H   0  0  0  0  0  0  0  0  0  0  0  0
   56.3974   26.3371   44.5673 H   0  0  0  0  0  0  0  0  0  0  0  0
   57.5346   24.9955   46.3375 H   0  0  0  0  0  0  0  0  0  0  0  0
   59.0610   26.1040   47.9673 H   0  0  0  0  0  0  0  0  0  0  0  0
   60.4888   30.2042   46.6253 H   0  0  0  0  0  0  0  0  0  0  0  0
   63.3928   31.5159   50.0446 H   0  0  0  0  0  0  0  0  0  0  0  0
   64.8445   33.4511   49.4443 H   0  0  0  0  0  0  0  0  0  0  0  0
   64.4360   34.7178   47.3334 H   0  0  0  0  0  0  0  0  0  0  0  0
   62.5672   34.0521   45.8225 H   0  0  0  0  0  0  0  0  0  0  0  0
   61.1198   32.1042   46.3978 H   0  0  0  0  0  0  0  0  0  0  0  0
   59.0099   33.5589   52.5072 H   0  0  0  0  0  0  0  0  0  0  0  0
   60.6847   32.9129   52.8183 H   0  0  0  0  0  0  0  0  0  0  0  0
   60.4587   34.0440   50.5979 H   0  0  0  0  0  0  0  0  0  0  0  0
   60.9432   32.3088   50.4925 H   0  0  0  0  0  0  0  0  0  0  0  0
   60.1154   35.0072   48.9855 H   0  0  0  0  0  0  0  0  0  0  0  0
   60.0975   35.8475   46.6389 H   0  0  0  0  0  0  0  0  0  0  0  0
  1  2  1  0
  2  3  2  0
  3  4  1  0
  4  5  2  0
  5  6  1  0
  6  7  1  0
  7  8  1  0
  8  9  1  0
  9 10  1  0
 10 11  1  0
 11 12  1  0
 12 13  2  3
 13 14  1  0
 14 15  2  0
 15 16  1  0
 16 17  2  0
 17 18  1  0
 18 19  2  0
 19 20  1  0
 20 21  2  0
 15 22  1  0
 22 23  2  0
 23 24  1  0
 24 25  2  0
 25 26  1  0
 26 27  2  0
 27 28  1  0
 28 29  2  0
 23 30  1  0
  9 31  1  0
 31 32  1  0
  5 33  1  0
 33 34  2  0
 34  2  1  0
 32  6  1  0
 30 13  1  0
 21 16  1  0
 29 24  1  0
  1 35  1  0
  3 36  1  0
  4 37  1  0
  7 38  1  0
  7 39  1  0
  8 40  1  0
  8 41  1  0
 10 42  1  0
 10 43  1  0
 11 44  1  0
 11 45  1  0
 17 46  1  0
 18 47  1  0
 19 48  1  0
 20 49  1  0
 21 50  1  0
 22 51  1  0
 25 52  1  0
 26 53  1  0
 27 54  1  0
 28 55  1  0
 29 56  1  0
 31 57  1  0
 31 58  1  0
 32 59  1  0
 32 60  1  0
 33 61  1  0
 34 62  1  0
M  CHG  1  30  -1
M  END
>  <UniqueID>  (16) 
15

>  <SMILES>  (16) 
Oc1ccc(N2CCN(CCN=c3nc(-c4ccccc4)cc(-c4ccccc4)[n-]3)CC2)cc1

>  <Energy>  (16) 
87.59128378136445

>  <Genealogy>  (16) 
Oc1ccc(N2CCN(CCN=c3nc(-c4ccccc4)cc(-c4ccccc4)[n-]3)CC2)cc1 (protonated)
Oc1ccc(N2CCN(CCN=c3nc(-c4ccccc4)cc(-c4ccccc4)[n-]3)CC2)cc1 (3D coordinates assigned)
Oc1ccc(N2CCN(CCN=c3nc(-c4ccccc4)cc(-c4ccccc4)[n-]3)CC2)cc1 (nonaromatic ring conformer: 87.59128378136445 kcal/mol)

>  <smiles>  (16) 
Oc1ccc(N2CCN(CCN=c3nc(-c4ccccc4)cc(-c4ccccc4)[nH]3)CC2)cc1

>  <score_type>  (16) 
oracle

>  <origin>  (16) 
adg

>  <m_score__min__energy>  (16) 
-10.800000000000001

>  <m_primary>  (16) 
energy

$$$$
16:0
     RDKit          3D

 33 35  0  0  0  0  0  0  0  0999 V2000
   65.9410   32.4040   50.1330 C   0  0  0  0  0  0  0  0  0  0  0  0
   64.9310   33.4060   50.1730 O   0  0  0  0  0  0  0  0  0  0  0  0
   63.8480   33.4730   49.2820 C   0  0  0  0  0  0  0  0  0  0  0  0
   63.9590   33.1050   47.9290 C   0  0  0  0  0  0  0  0  0  0  0  0
   62.8510   33.1920   47.0810 C   0  0  0  0  0  0  0  0  0  0  0  0
   61.6110   33.6430   47.5680 C   0  0  0  0  0  0  0  0  0  0  0  0
   60.4320   33.7340   46.6700 C   0  0  0  0  0  0  0  0  0  0  0  0
   59.7680   34.9320   46.3970 C   0  0  0  0  0  0  0  0  0  0  0  0
   58.5010   34.5920   45.3470 S   0  0  0  0  0  0  0  0  0  0  0  0
   58.8350   32.9440   45.2650 C   0  0  0  0  0  0  0  0  0  0  0  0
   58.0620   31.9450   44.4880 C   0  0  0  0  0  0  0  0  0  0  0  0
   57.7630   32.1890   43.1340 C   0  0  0  0  0  0  0  0  0  0  0  0
   57.0410   31.2540   42.3860 C   0  0  0  0  0  0  0  0  0  0  0  0
   56.6100   30.0650   42.9780 C   0  0  0  0  0  0  0  0  0  0  0  0
   55.9100   29.1600   42.2500 F   0  0  0  0  0  0  0  0  0  0  0  0
   56.8990   29.8100   44.3200 C   0  0  0  0  0  0  0  0  0  0  0  0
   57.6210   30.7390   45.0760 C   0  0  0  0  0  0  0  0  0  0  0  0
   57.8560   30.4690   46.3840 F   0  0  0  0  0  0  0  0  0  0  0  0
   59.9050   32.6440   46.0400 N   0  0  0  0  0  0  0  0  0  0  0  0
   61.5070   34.0100   48.9210 C   0  0  0  0  0  0  0  0  0  0  0  0
   62.6170   33.9250   49.7660 C   0  0  0  0  0  0  0  0  0  0  0  0
   66.2219   32.1253   51.1594 H   0  0  0  0  0  0  0  0  0  0  0  0
   65.5583   31.5185   49.6044 H   0  0  0  0  0  0  0  0  0  0  0  0
   66.8234   32.7937   49.6044 H   0  0  0  0  0  0  0  0  0  0  0  0
   64.9221   32.7471   47.5363 H   0  0  0  0  0  0  0  0  0  0  0  0
   62.9498   32.9052   46.0236 H   0  0  0  0  0  0  0  0  0  0  0  0
   60.0283   35.9226   46.7983 H   0  0  0  0  0  0  0  0  0  0  0  0
   58.1002   33.1229   42.6607 H   0  0  0  0  0  0  0  0  0  0  0  0
   56.8121   31.4554   41.3291 H   0  0  0  0  0  0  0  0  0  0  0  0
   56.5570   28.8736   44.7850 H   0  0  0  0  0  0  0  0  0  0  0  0
   60.3130   31.6860   46.1070 H   0  0  0  0  0  0  0  0  0  0  0  0
   60.5450   34.3667   49.3176 H   0  0  0  0  0  0  0  0  0  0  0  0
   62.5210   34.2167   50.8223 H   0  0  0  0  0  0  0  0  0  0  0  0
  1  2  1  0
  2  3  1  0
  3  4  2  0
  4  5  1  0
  5  6  2  0
  6  7  1  0
  7  8  2  0
  8  9  1  0
  9 10  1  0
 10 11  1  0
 11 12  2  0
 12 13  1  0
 13 14  2  0
 14 15  1  0
 14 16  1  0
 16 17  2  0
 17 18  1  0
 10 19  2  0
  6 20  1  0
 20 21  2  0
 21  3  1  0
 19  7  1  0
 17 11  1  0
  1 22  1  0
  1 23  1  0
  1 24  1  0
  4 25  1  0
  5 26  1  0
  8 27  1  0
 12 28  1  0
 13 29  1  0
 16 30  1  0
 19 31  1  0
 20 32  1  0
 21 33  1  0
M  CHG  1  19   1
M  END
>  <UniqueID>  (17) 
16

>  <SMILES>  (17) 
COc1ccc(-c2csc(-c3ccc(F)cc3F)[nH+]2)cc1

>  <Energy>  (17) 
71.52193608106585

>  <Genealogy>  (17) 
COc1ccc(-c2csc(-c3ccc(F)cc3F)[nH+]2)cc1 (protonated)
COc1ccc(-c2csc(-c3ccc(F)cc3F)[nH+]2)cc1 (3D coordinates assigned)
COc1ccc(-c2csc(-c3ccc(F)cc3F)[nH+]2)cc1 (optimized conformer: 71.52193608106585 kcal/mol)

>  <smiles>  (17) 
COc1ccc(-c2csc(-c3ccc(F)cc3F)n2)cc1

>  <score_type>  (17) 
oracle

>  <origin>  (17) 
adg

>  <m_score__min__energy>  (17) 
-5.4699999999999998

>  <m_primary>  (17) 
energy

$$$$
17:0
     RDKit          3D

 42 44  0  0  0  0  0  0  0  0999 V2000
   63.7550   33.6120   48.1640 C   0  0  0  0  0  0  0  0  0  0  0  0
   63.4270   32.9940   46.8100 C   0  0  0  0  0  0  0  0  0  0  0  0
   62.9180   31.6810   46.9710 O   0  0  0  0  0  0  0  0  0  0  0  0
   62.1290   31.5860   48.1400 C   0  0  0  0  0  0  0  0  0  0  0  0
   60.6270   31.5410   47.7690 C   0  0  2  0  0  0  0  0  0  0  0  0
   60.4240   30.6230   46.5260 C   0  0  0  0  0  0  0  0  0  0  0  0
   59.0790   30.7900   45.9130 N   0  0  2  0  0  0  0  0  0  0  0  0
   58.8560   29.7940   44.8370 C   0  0  0  0  0  0  0  0  0  0  0  0
   57.3950   29.6340   44.5150 C   0  0  0  0  0  0  0  0  0  0  0  0
   56.7320   30.1450   43.4210 C   0  0  0  0  0  0  0  0  0  0  0  0
   55.4280   29.7100   43.5460 C   0  0  0  0  0  0  0  0  0  0  0  0
   55.3030   28.9820   44.6330 O   0  0  0  0  0  0  0  0  0  0  0  0
   56.4670   28.9150   45.2380 C   0  0  0  0  0  0  0  0  0  0  0  0
   58.9290   32.1570   45.3570 C   0  0  0  0  0  0  0  0  0  0  0  0
   59.2520   33.1740   46.4020 C   0  0  0  0  0  0  0  0  0  0  0  0
   58.7670   34.4290   46.4560 N   0  0  0  0  0  0  0  0  0  0  0  0
   59.2680   34.9070   47.6170 C   0  0  0  0  0  0  0  0  0  0  0  0
   60.0230   34.0020   48.2780 N   0  0  0  0  0  0  0  0  0  0  0  0
   60.6270   34.1930   49.5900 C   0  0  0  0  0  0  0  0  0  0  0  0
   60.0490   32.9130   47.4830 C   0  0  0  0  0  0  0  0  0  0  0  0
   63.4020   32.9468   48.9658 H   0  0  0  0  0  0  0  0  0  0  0  0
   64.8432   33.7465   48.2517 H   0  0  0  0  0  0  0  0  0  0  0  0
   63.2566   34.5887   48.2517 H   0  0  0  0  0  0  0  0  0  0  0  0
   62.6734   33.6142   46.3026 H   0  0  0  0  0  0  0  0  0  0  0  0
   64.3475   32.9463   46.2096 H   0  0  0  0  0  0  0  0  0  0  0  0
   62.3962   30.6687   48.6852 H   0  0  0  0  0  0  0  0  0  0  0  0
   62.3164   32.4666   48.7720 H   0  0  0  0  0  0  0  0  0  0  0  0
   60.0910   31.1380   48.6409 H   0  0  0  0  0  0  0  0  0  0  0  0
   61.1882   30.8711   45.7747 H   0  0  0  0  0  0  0  0  0  0  0  0
   60.5132   29.5791   46.8611 H   0  0  0  0  0  0  0  0  0  0  0  0
   58.3460   30.6550   46.6520 H   0  0  0  0  0  0  0  0  0  0  0  0
   59.3857   30.1242   43.9313 H   0  0  0  0  0  0  0  0  0  0  0  0
   59.2364   28.8230   45.1869 H   0  0  0  0  0  0  0  0  0  0  0  0
   57.1527   30.7678   42.6178 H   0  0  0  0  0  0  0  0  0  0  0  0
   54.6150   29.9385   42.8412 H   0  0  0  0  0  0  0  0  0  0  0  0
   56.6692   28.3717   46.1728 H   0  0  0  0  0  0  0  0  0  0  0  0
   59.6138   32.2805   44.5051 H   0  0  0  0  0  0  0  0  0  0  0  0
   57.8898   32.2989   45.0253 H   0  0  0  0  0  0  0  0  0  0  0  0
   59.0806   35.9264   47.9853 H   0  0  0  0  0  0  0  0  0  0  0  0
   59.8885   33.9595   50.3711 H   0  0  0  0  0  0  0  0  0  0  0  0
   61.4950   33.5255   49.6947 H   0  0  0  0  0  0  0  0  0  0  0  0
   60.9534   35.2382   49.6947 H   0  0  0  0  0  0  0  0  0  0  0  0
  1  2  1  0
  2  3  1  0
  3  4  1  0
  4  5  1  0
  5  6  1  0
  6  7  1  0
  7  8  1  0
  8  9  1  0
  9 10  1  0
 10 11  2  0
 11 12  1  0
 12 13  1  0
  7 14  1  0
 14 15  1  0
 15 16  1  0
 16 17  2  0
 17 18  1  0
 18 19  1  0
 18 20  1  0
 20  5  1  0
 13  9  2  0
 20 15  2  0
  1 21  1  0
  1 22  1  0
  1 23  1  0
  2 24  1  0
  2 25  1  0
  4 26  1  0
  4 27  1  0
  5 28  1  1
  6 29  1  0
  6 30  1  0
  7 31  1  1
  8 32  1  0
  8 33  1  0
 10 34  1  0
 11 35  1  0
 13 36  1  0
 14 37  1  0
 14 38  1  0
 17 39  1  0
 19 40  1  0
 19 41  1  0
 19 42  1  0
M  CHG  1   7   1
M  END
>  <UniqueID>  (18) 
17

>  <SMILES>  (18) 
CCOC[C@@H]1C[N@H+](Cc2ccoc2)Cc2ncn(C)c21

>  <Energy>  (18) 
105.37641451307199

>  <Genealogy>  (18) 
CCOCC1C[NH+](Cc2ccoc2)Cc2ncn(C)c21 (protonated)
CCOC[C@@H]1C[N@H+](Cc2ccoc2)Cc2ncn(C)c21 (chirality)
CCOC[C@@H]1C[N@H+](Cc2ccoc2)Cc2ncn(C)c21 (3D coordinates assigned)
CCOC[C@@H]1C[N@H+](Cc2ccoc2)Cc2ncn(C)c21 (nonaromatic ring conformer: 105.37641451307199 kcal/mol)

>  <smiles>  (18) 
CCOCC1CN(Cc2ccoc2)Cc2ncn(C)c21

>  <score_type>  (18) 
oracle

>  <origin>  (18) 
adg

>  <m_score__min__energy>  (18) 
-4.5599999999999996

>  <m_primary>  (18) 
energy

$$$$
18:0
     RDKit          3D

 45 47  0  0  0  0  0  0  0  0999 V2000
   58.8680   27.7550   44.1610 C   0  0  0  0  0  0  0  0  0  0  0  0
   59.4490   27.7010   45.5690 C   0  0  0  0  0  0  0  0  0  0  0  0
   60.0200   28.9510   45.9130 O   0  0  0  0  0  0  0  0  0  0  0  0
   59.7690   29.2790   47.2680 C   0  0  0  0  0  0  0  0  0  0  0  0
   59.0490   30.6370   47.3810 C   0  0  1  0  0  0  0  0  0  0  0  0
   60.0810   31.7950   47.4930 C   0  0  0  0  0  0  0  0  0  0  0  0
   59.4340   33.1240   47.3160 N   0  0  1  0  0  0  0  0  0  0  0  0
   60.3320   34.2440   47.6920 C   0  0  0  0  0  0  0  0  0  0  0  0
   61.7820   33.8450   47.8410 C   0  0  0  0  0  0  0  0  0  0  0  0
   62.6010   33.4950   46.7560 C   0  0  0  0  0  0  0  0  0  0  0  0
   63.8960   33.1580   47.1230 C   0  0  0  0  0  0  0  0  0  0  0  0
   64.0140   33.2890   48.7940 S   0  0  0  0  0  0  0  0  0  0  0  0
   62.4300   33.7720   49.0700 C   0  0  0  0  0  0  0  0  0  0  0  0
   58.8810   33.2890   45.9470 C   0  0  0  0  0  0  0  0  0  0  0  0
   58.0240   32.1130   45.6040 C   0  0  0  0  0  0  0  0  0  0  0  0
   57.0830   31.9500   44.6150 C   0  0  0  0  0  0  0  0  0  0  0  0
   56.6450   30.6730   44.6840 N   0  0  0  0  0  0  0  0  0  0  0  0
   55.6760   30.0540   43.7870 C   0  0  0  0  0  0  0  0  0  0  0  0
   56.3590   29.6050   42.5020 C   0  0  0  0  0  0  0  0  0  0  0  0
   57.2840   30.0170   45.6440 N   0  0  0  0  0  0  0  0  0  0  0  0
   58.1490   30.8870   46.2020 C   0  0  0  0  0  0  0  0  0  0  0  0
   57.7743   27.8567   44.2193 H   0  0  0  0  0  0  0  0  0  0  0  0
   59.2883   28.6179   43.6237 H   0  0  0  0  0  0  0  0  0  0  0  0
   59.1221   26.8294   43.6237 H   0  0  0  0  0  0  0  0  0  0  0  0
   58.6481   27.4590   46.2831 H   0  0  0  0  0  0  0  0  0  0  0  0
   60.2311   26.9283   45.6042 H   0  0  0  0  0  0  0  0  0  0  0  0
   59.1373   28.4981   47.7165 H   0  0  0  0  0  0  0  0  0  0  0  0
   60.7310   29.3462   47.7973 H   0  0  0  0  0  0  0  0  0  0  0  0
   58.4319   30.6026   48.2910 H   0  0  0  0  0  0  0  0  0  0  0  0
   60.5536   31.7573   48.4856 H   0  0  0  0  0  0  0  0  0  0  0  0
   60.8292   31.6676   46.6968 H   0  0  0  0  0  0  0  0  0  0  0  0
   58.6260   33.1700   47.9850 H   0  0  0  0  0  0  0  0  0  0  0  0
   60.2644   35.0181   46.9134 H   0  0  0  0  0  0  0  0  0  0  0  0
   59.9978   34.6035   48.6764 H   0  0  0  0  0  0  0  0  0  0  0  0
   62.2495   33.4885   45.7137 H   0  0  0  0  0  0  0  0  0  0  0  0
   64.7040   32.8577   46.4396 H   0  0  0  0  0  0  0  0  0  0  0  0
   61.9829   33.9922   50.0506 H   0  0  0  0  0  0  0  0  0  0  0  0
   58.2760   34.2067   45.9053 H   0  0  0  0  0  0  0  0  0  0  0  0
   59.7088   33.3588   45.2260 H   0  0  0  0  0  0  0  0  0  0  0  0
   56.7486   32.7164   43.9003 H   0  0  0  0  0  0  0  0  0  0  0  0
   55.2272   29.1812   44.2838 H   0  0  0  0  0  0  0  0  0  0  0  0
   54.8956   30.7889   43.5402 H   0  0  0  0  0  0  0  0  0  0  0  0
   57.2547   29.0162   42.7492 H   0  0  0  0  0  0  0  0  0  0  0  0
   55.6645   28.9867   41.9143 H   0  0  0  0  0  0  0  0  0  0  0  0
   56.6512   30.4877   41.9143 H   0  0  0  0  0  0  0  0  0  0  0  0
  1  2  1  0
  2  3  1  0
  3  4  1  0
  4  5  1  0
  5  6  1  0
  6  7  1  0
  7  8  1  0
  8  9  1  0
  9 10  1  0
 10 11  2  0
 11 12  1  0
 12 13  1  0
  7 14  1  0
 14 15  1  0
 15 16  2  0
 16 17  1  0
 17 18  1  0
 18 19  1  0
 17 20  1  0
 20 21  2  0
 21  5  1  0
 13  9  2  0
 21 15  1  0
  1 22  1  0
  1 23  1  0
  1 24  1  0
  2 25  1  0
  2 26  1  0
  4 27  1  0
  4 28  1  0
  5 29  1  1
  6 30  1  0
  6 31  1  0
  7 32  1  1
  8 33  1  0
  8 34  1  0
 10 35  1  0
 11 36  1  0
 13 37  1  0
 14 38  1  0
 14 39  1  0
 16 40  1  0
 18 41  1  0
 18 42  1  0
 19 43  1  0
 19 44  1  0
 19 45  1  0
M  CHG  1   7   1
M  END
>  <UniqueID>  (19) 
18

>  <SMILES>  (19) 
CCOC[C@H]1C[N@@H+](Cc2ccsc2)Cc2cn(CC)nc21

>  <Energy>  (19) 
104.38185301353728

>  <Genealogy>  (19) 
CCOCC1C[NH+](Cc2ccsc2)Cc2cn(CC)nc21 (protonated)
CCOC[C@H]1C[N@@H+](Cc2ccsc2)Cc2cn(CC)nc21 (chirality)
CCOC[C@H]1C[N@@H+](Cc2ccsc2)Cc2cn(CC)nc21 (3D coordinates assigned)
CCOC[C@H]1C[N@@H+](Cc2ccsc2)Cc2cn(CC)nc21 (nonaromatic ring conformer: 104.38185301353728 kcal/mol)

>  <smiles>  (19) 
CCOCC1CN(Cc2ccsc2)Cc2cn(CC)nc21

>  <score_type>  (19) 
oracle

>  <origin>  (19) 
adg

>  <m_score__min__energy>  (19) 
-5.0599999999999996

>  <m_primary>  (19) 
energy

$$$$
19:0
     RDKit          3D

 50 51  0  0  0  0  0  0  0  0999 V2000
   56.6056   31.0864   42.5534 H   0  0  0  0  0  0  0  0  0  0  0  0
   56.6880   30.8260   43.6190 C   0  0  0  0  0  0  0  0  0  0  0  0
   56.6480   29.3920   43.9660 C   0  0  0  0  0  0  0  0  0  0  0  0
   55.7770   28.9370   44.7570 O   0  0  0  0  0  0  0  0  0  0  0  0
   57.6370   28.5510   43.4430 O   0  0  0  0  0  0  0  0  0  0  0  0
   58.8350   28.2110   44.1400 C   0  0  0  0  0  0  0  0  0  0  0  0
   59.0496   28.9908   44.8856 H   0  0  0  0  0  0  0  0  0  0  0  0
   59.6535   28.1367   43.4089 H   0  0  0  0  0  0  0  0  0  0  0  0
   58.6980   26.8550   44.8570 C   0  0  0  0  0  0  0  0  0  0  0  0
   58.8936   27.0018   45.9295 H   0  0  0  0  0  0  0  0  0  0  0  0
   59.4234   26.1631   44.4043 H   0  0  0  0  0  0  0  0  0  0  0  0
   57.3420   26.2580   44.6960 N   0  0  0  0  0  0  0  0  0  0  0  0
   56.6870   26.9890   44.3260 H   0  0  0  0  0  0  0  0  0  0  0  0
   57.3850   25.1310   43.7260 C   0  0  0  0  0  0  0  0  0  0  0  0
   58.3810   24.6660   43.7669 H   0  0  0  0  0  0  0  0  0  0  0  0
   57.1743   25.5375   42.7258 H   0  0  0  0  0  0  0  0  0  0  0  0
   56.3280   24.0630   44.0330 C   0  0  0  0  0  0  0  0  0  0  0  0
   56.2213   23.9552   45.1225 H   0  0  0  0  0  0  0  0  0  0  0  0
   55.3639   24.3657   43.5983 H   0  0  0  0  0  0  0  0  0  0  0  0
   56.6406   23.1021   43.5983 H   0  0  0  0  0  0  0  0  0  0  0  0
   56.8280   25.7920   46.0130 C   0  0  0  0  0  0  0  0  0  0  0  0
   55.8882   26.3198   46.2324 H   0  0  0  0  0  0  0  0  0  0  0  0
   56.6735   24.7049   45.9475 H   0  0  0  0  0  0  0  0  0  0  0  0
   57.8190   26.0560   47.1530 C   0  0  0  0  0  0  0  0  0  0  0  0
   57.3109   25.9207   48.1192 H   0  0  0  0  0  0  0  0  0  0  0  0
   58.6597   25.3505   47.0788 H   0  0  0  0  0  0  0  0  0  0  0  0
   58.1973   27.0862   47.0788 H   0  0  0  0  0  0  0  0  0  0  0  0
   56.8160   31.8400   44.4880 C   0  0  0  0  0  0  0  0  0  0  0  0
   55.9408   32.4892   44.6381 H   0  0  0  0  0  0  0  0  0  0  0  0
   58.0350   32.1570   45.2600 C   0  0  0  0  0  0  0  0  0  0  0  0
   58.4220   33.4940   45.4150 C   0  0  0  0  0  0  0  0  0  0  0  0
   57.8356   34.2918   44.9358 H   0  0  0  0  0  0  0  0  0  0  0  0
   59.5490   33.8210   46.1750 C   0  0  0  0  0  0  0  0  0  0  0  0
   59.8527   34.8734   46.2759 H   0  0  0  0  0  0  0  0  0  0  0  0
   60.2980   32.8140   46.8120 C   0  0  0  0  0  0  0  0  0  0  0  0
   61.5000   33.1590   47.6140 C   0  0  0  0  0  0  0  0  0  0  0  0
   62.7840   32.7900   47.1710 C   0  0  0  0  0  0  0  0  0  0  0  0
   62.8988   32.2403   46.2252 H   0  0  0  0  0  0  0  0  0  0  0  0
   63.9150   33.1180   47.9260 C   0  0  0  0  0  0  0  0  0  0  0  0
   64.9149   32.8266   47.5719 H   0  0  0  0  0  0  0  0  0  0  0  0
   63.7770   33.8150   49.1290 C   0  0  0  0  0  0  0  0  0  0  0  0
   64.6678   34.0723   49.7209 H   0  0  0  0  0  0  0  0  0  0  0  0
   62.5080   34.1850   49.5800 C   0  0  0  0  0  0  0  0  0  0  0  0
   62.4001   34.7327   50.5278 H   0  0  0  0  0  0  0  0  0  0  0  0
   61.3740   33.8600   48.8280 C   0  0  0  0  0  0  0  0  0  0  0  0
   60.3771   34.1543   49.1879 H   0  0  0  0  0  0  0  0  0  0  0  0
   59.8850   31.4760   46.6820 C   0  0  0  0  0  0  0  0  0  0  0  0
   60.4539   30.6785   47.1823 H   0  0  0  0  0  0  0  0  0  0  0  0
   58.7570   31.1510   45.9220 C   0  0  0  0  0  0  0  0  0  0  0  0
   58.4339   30.1025   45.8424 H   0  0  0  0  0  0  0  0  0  0  0  0
  1  2  1  0
  2  3  1  0
  3  4  2  0
  3  5  1  0
  5  6  1  0
  6  7  1  0
  6  8  1  0
  6  9  1  0
  9 10  1  0
  9 11  1  0
  9 12  1  0
 12 13  1  0
 12 14  1  0
 14 15  1  0
 14 16  1  0
 14 17  1  0
 17 18  1  0
 17 19  1  0
 17 20  1  0
 12 21  1  0
 21 22  1  0
 21 23  1  0
 21 24  1  0
 24 25  1  0
 24 26  1  0
 24 27  1  0
  2 28  2  0
 28 29  1  0
 28 30  1  0
 30 31  2  0
 31 32  1  0
 31 33  1  0
 33 34  1  0
 33 35  2  0
 35 36  1  0
 36 37  2  0
 37 38  1  0
 37 39  1  0
 39 40  1  0
 39 41  2  0
 41 42  1  0
 41 43  1  0
 43 44  1  0
 43 45  2  0
 45 46  1  0
 35 47  1  0
 47 48  1  0
 47 49  2  0
 49 50  1  0
 49 30  1  0
 45 36  1  0
M  CHG  1  12   1
M  END
>  <UniqueID>  (20) 
19

>  <SMILES>  (20) 
CC[NH+](CC)CCOC(=O)/C=C\c1ccc(-c2ccccc2)cc1

>  <Energy>  (20) 
61.49967471982306

>  <Genealogy>  (20) 
CC[NH+](CC)CCOC(=O)C=Cc1ccc(-c2ccccc2)cc1 (protonated)
CC[NH+](CC)CCOC(=O)/C=C\c1ccc(-c2ccccc2)cc1 (cis-trans isomerization)
CC[NH+](CC)CCOC(=O)/C=C\c1ccc(-c2ccccc2)cc1 (3D coordinates assigned)
CC[NH+](CC)CCOC(=O)/C=C\c1ccc(-c2ccccc2)cc1 (optimized conformer: 61.49967471982306 kcal/mol)

>  <smiles>  (20) 
CCN(CC)CCOC(=O)C=Cc1ccc(-c2ccccc2)cc1

>  <score_type>  (20) 
oracle

>  <origin>  (20) 
adg

>  <m_score__min__energy>  (20) 
-5.3099999999999996

>  <m_primary>  (20) 
energy

$$$$
20:0
     RDKit          3D

 59 62  0  0  0  0  0  0  0  0999 V2000
   57.4470   20.8910   45.4030 C   0  0  0  0  0  0  0  0  0  0  0  0
   58.1260   21.9520   46.0640 O   0  0  0  0  0  0  0  0  0  0  0  0
   57.7290   23.2970   46.0150 C   0  0  0  0  0  0  0  0  0  0  0  0
   56.8160   23.7600   46.9870 C   0  0  0  0  0  0  0  0  0  0  0  0
   56.3820   25.0970   46.9910 C   0  0  0  0  0  0  0  0  0  0  0  0
   56.8710   25.9630   46.0150 C   0  0  0  0  0  0  0  0  0  0  0  0
   56.5330   27.2750   45.9160 N   0  0  0  0  0  0  0  0  0  0  0  0
   57.1670   27.8660   44.8720 C   0  0  0  0  0  0  0  0  0  0  0  0
   56.9910   29.2890   44.5360 C   0  0  0  0  0  0  0  0  0  0  0  0
   55.9620   29.8920   44.9480 O   0  0  0  0  0  0  0  0  0  0  0  0
   57.9680   29.9920   43.7550 N   0  0  0  0  0  0  0  0  0  0  0  0
   57.8230   31.4200   43.4650 C   0  0  0  0  0  0  0  0  0  0  0  0
   58.4750   32.2930   44.5560 C   0  0  0  0  0  0  0  0  0  0  0  0
   57.7740   32.1150   45.9260 C   0  0  0  0  0  0  0  0  0  0  0  0
   58.0080   33.3130   46.8670 C   0  0  0  0  0  0  0  0  0  0  0  0
   59.2670   34.0000   46.5170 N   0  0  0  0  0  0  0  0  0  0  0  0
   59.6700   34.9650   47.5620 C   0  0  0  0  0  0  0  0  0  0  0  0
   60.1690   34.2360   48.8170 C   0  0  0  0  0  0  0  0  0  0  0  0
   61.3010   33.2530   48.4900 C   0  0  0  0  0  0  0  0  0  0  0  0
   60.7380   31.9110   48.1040 C   0  0  0  0  0  0  0  0  0  0  0  0
   61.1490   31.2870   46.9130 C   0  0  0  0  0  0  0  0  0  0  0  0
   60.6010   30.0560   46.5390 C   0  0  0  0  0  0  0  0  0  0  0  0
   59.6350   29.4460   47.3440 C   0  0  0  0  0  0  0  0  0  0  0  0
   59.2120   30.0670   48.5220 C   0  0  0  0  0  0  0  0  0  0  0  0
   59.7580   31.2970   48.9010 C   0  0  0  0  0  0  0  0  0  0  0  0
   59.1430   34.6690   45.2020 C   0  0  0  0  0  0  0  0  0  0  0  0
   58.4620   33.7740   44.1410 C   0  0  0  0  0  0  0  0  0  0  0  0
   58.1680   26.7770   44.0400 S   0  0  0  0  0  0  0  0  0  0  0  0
   57.7670   25.5100   45.0620 C   0  0  0  0  0  0  0  0  0  0  0  0
   58.2140   24.1910   45.0320 C   0  0  0  0  0  0  0  0  0  0  0  0
   57.0122   20.2116   46.1510 H   0  0  0  0  0  0  0  0  0  0  0  0
   56.6454   21.3046   44.7735 H   0  0  0  0  0  0  0  0  0  0  0  0
   58.1584   20.3363   44.7735 H   0  0  0  0  0  0  0  0  0  0  0  0
   56.4390   23.0650   47.7518 H   0  0  0  0  0  0  0  0  0  0  0  0
   55.6699   25.4528   47.7502 H   0  0  0  0  0  0  0  0  0  0  0  0
   58.7880   29.4680   43.3750 H   0  0  0  0  0  0  0  0  0  0  0  0
   58.3032   31.6382   42.4997 H   0  0  0  0  0  0  0  0  0  0  0  0
   56.7491   31.6560   43.4336 H   0  0  0  0  0  0  0  0  0  0  0  0
   59.5178   31.9605   44.6658 H   0  0  0  0  0  0  0  0  0  0  0  0
   56.6926   32.0043   45.7575 H   0  0  0  0  0  0  0  0  0  0  0  0
   58.2009   31.2227   46.4072 H   0  0  0  0  0  0  0  0  0  0  0  0
   57.1702   34.0193   46.7708 H   0  0  0  0  0  0  0  0  0  0  0  0
   58.0752   32.9475   47.9023 H   0  0  0  0  0  0  0  0  0  0  0  0
   60.4765   35.6030   47.1714 H   0  0  0  0  0  0  0  0  0  0  0  0
   58.7956   35.5746   47.8338 H   0  0  0  0  0  0  0  0  0  0  0  0
   60.5398   34.9798   49.5376 H   0  0  0  0  0  0  0  0  0  0  0  0
   59.3291   33.6639   49.2380 H   0  0  0  0  0  0  0  0  0  0  0  0
   61.8954   33.6503   47.6541 H   0  0  0  0  0  0  0  0  0  0  0  0
   61.9346   33.1304   49.3808 H   0  0  0  0  0  0  0  0  0  0  0  0
   61.9036   31.7684   46.2737 H   0  0  0  0  0  0  0  0  0  0  0  0
   60.9306   29.5673   45.6103 H   0  0  0  0  0  0  0  0  0  0  0  0
   59.2073   28.4761   47.0499 H   0  0  0  0  0  0  0  0  0  0  0  0
   58.4484   29.5875   49.1521 H   0  0  0  0  0  0  0  0  0  0  0  0
   59.4189   31.7855   49.8264 H   0  0  0  0  0  0  0  0  0  0  0  0
   58.5452   35.5839   45.3272 H   0  0  0  0  0  0  0  0  0  0  0  0
   60.1591   34.8936   44.8456 H   0  0  0  0  0  0  0  0  0  0  0  0
   57.4190   34.1002   44.0152 H   0  0  0  0  0  0  0  0  0  0  0  0
   59.0209   33.8719   43.1987 H   0  0  0  0  0  0  0  0  0  0  0  0
   58.9255   23.8535   44.2640 H   0  0  0  0  0  0  0  0  0  0  0  0
  1  2  1  0
  2  3  1  0
  3  4  2  0
  4  5  1  0
  5  6  2  0
  6  7  1  0
  7  8  2  0
  8  9  1  0
  9 10  2  0
  9 11  1  0
 11 12  1  0
 12 13  1  0
 13 14  1  0
 14 15  1  0
 15 16  1  0
 16 17  1  0
 17 18  1  0
 18 19  1  0
 19 20  1  0
 20 21  2  0
 21 22  1  0
 22 23  2  0
 23 24  1  0
 24 25  2  0
 16 26  1  0
 26 27  1  0
  8 28  1  0
 28 29  1  0
 29 30  2  0
 30  3  1  0
 29  6  1  0
 27 13  1  0
 25 20  1  0
  1 31  1  0
  1 32  1  0
  1 33  1  0
  4 34  1  0
  5 35  1  0
 11 36  1  0
 12 37  1  0
 12 38  1  0
 13 39  1  0
 14 40  1  0
 14 41  1  0
 15 42  1  0
 15 43  1  0
 17 44  1  0
 17 45  1  0
 18 46  1  0
 18 47  1  0
 19 48  1  0
 19 49  1  0
 21 50  1  0
 22 51  1  0
 23 52  1  0
 24 53  1  0
 25 54  1  0
 26 55  1  0
 26 56  1  0
 27 57  1  0
 27 58  1  0
 30 59  1  0
M  END
>  <UniqueID>  (21) 
20

>  <SMILES>  (21) 
COc1ccc2nc(C(=O)NCC3CCN(CCCc4ccccc4)CC3)sc2c1

>  <Energy>  (21) 
92.96487219820187

>  <Genealogy>  (21) 
COc1ccc2nc(C(=O)NCC3CCN(CCCc4ccccc4)CC3)sc2c1 (3D coordinates assigned)
COc1ccc2nc(C(=O)NCC3CCN(CCCc4ccccc4)CC3)sc2c1 (nonaromatic ring conformer: 92.96487219820187 kcal/mol)

>  <smiles>  (21) 
COc1ccc2nc(C(=O)NCC3CCN(CCCc4ccccc4)CC3)sc2c1

>  <score_type>  (21) 
oracle

>  <origin>  (21) 
adg

>  <m_score__min__energy>  (21) 
-9.4299999999999997

>  <m_primary>  (21) 
energy

$$$$
21:0
     RDKit          3D

 40 41  0  0  0  0  0  0  0  0999 V2000
   59.8838   31.3732   47.8601 H   0  0  0  0  0  0  0  0  0  0  0  0
   59.2440   32.0250   47.2470 C   0  0  0  0  0  0  0  0  0  0  0  0
   58.3270   31.4790   46.4030 N   0  0  0  0  0  0  0  0  0  0  0  0
   57.5160   32.2400   45.6190 C   0  0  0  0  0  0  0  0  0  0  0  0
   56.6490   31.6380   44.8530 N   0  0  0  0  0  0  0  0  0  0  0  0
   56.7690   30.3260   44.2830 C   0  0  0  0  0  0  0  0  0  0  0  0
   55.5090   29.7120   43.4250 S   0  0  0  0  0  0  0  0  0  0  0  0
   58.0810   29.7560   44.1050 N   0  0  0  0  0  0  0  0  0  0  0  0
   58.5180   30.1060   43.2190 H   0  0  0  0  0  0  0  0  0  0  0  0
   58.6790   30.0570   44.9080 H   0  0  0  0  0  0  0  0  0  0  0  0
   58.0340   28.2850   44.0700 C   0  0  0  0  0  0  0  0  0  0  0  0
   58.7575   27.9245   43.3239 H   0  0  0  0  0  0  0  0  0  0  0  0
   57.0086   27.9847   43.8086 H   0  0  0  0  0  0  0  0  0  0  0  0
   58.3770   27.6630   45.4350 C   0  0  0  0  0  0  0  0  0  0  0  0
   58.7619   28.4491   46.1013 H   0  0  0  0  0  0  0  0  0  0  0  0
   59.1347   26.8805   45.2813 H   0  0  0  0  0  0  0  0  0  0  0  0
   57.1420   27.0240   46.0770 C   0  0  0  0  0  0  0  0  0  0  0  0
   56.2937   27.7202   46.0018 H   0  0  0  0  0  0  0  0  0  0  0  0
   57.3619   26.8069   47.1327 H   0  0  0  0  0  0  0  0  0  0  0  0
   56.7910   25.7390   45.3790 C   0  0  0  0  0  0  0  0  0  0  0  0
   55.5770   25.0890   45.6530 C   0  0  0  0  0  0  0  0  0  0  0  0
   54.8637   25.5375   46.3601 H   0  0  0  0  0  0  0  0  0  0  0  0
   55.2700   23.8750   45.0320 C   0  0  0  0  0  0  0  0  0  0  0  0
   54.3125   23.3774   45.2457 H   0  0  0  0  0  0  0  0  0  0  0  0
   56.1810   23.2860   44.1340 C   0  0  0  0  0  0  0  0  0  0  0  0
   55.9190   22.0700   43.4850 O   0  0  0  0  0  0  0  0  0  0  0  0
   56.9240   21.1770   43.0170 C   0  0  0  0  0  0  0  0  0  0  0  0
   57.4377   20.7205   43.8759 H   0  0  0  0  0  0  0  0  0  0  0  0
   56.4589   20.3888   42.4067 H   0  0  0  0  0  0  0  0  0  0  0  0
   57.6520   21.7316   42.4067 H   0  0  0  0  0  0  0  0  0  0  0  0
   57.3970   23.9290   43.8740 C   0  0  0  0  0  0  0  0  0  0  0  0
   58.1164   23.4749   43.1767 H   0  0  0  0  0  0  0  0  0  0  0  0
   57.7040   25.1440   44.4940 C   0  0  0  0  0  0  0  0  0  0  0  0
   58.6658   25.6362   44.2873 H   0  0  0  0  0  0  0  0  0  0  0  0
   57.6150   33.6460   45.6940 C   0  0  0  0  0  0  0  0  0  0  0  0
   56.9600   34.2814   45.0798 H   0  0  0  0  0  0  0  0  0  0  0  0
   58.5510   34.2240   46.5540 C   0  0  0  0  0  0  0  0  0  0  0  0
   58.6397   35.3187   46.6152 H   0  0  0  0  0  0  0  0  0  0  0  0
   59.3730   33.4130   47.3350 C   0  0  0  0  0  0  0  0  0  0  0  0
   60.6520   34.1900   48.5210 Br  0  0  0  0  0  0  0  0  0  0  0  0
  1  2  1  0
  2  3  1  0
  3  4  1  0
  4  5  2  0
  5  6  1  0
  6  7  2  0
  6  8  1  0
  8  9  1  0
  8 10  1  0
  8 11  1  0
 11 12  1  0
 11 13  1  0
 11 14  1  0
 14 15  1  0
 14 16  1  0
 14 17  1  0
 17 18  1  0
 17 19  1  0
 17 20  1  0
 20 21  2  0
 21 22  1  0
 21 23  1  0
 23 24  1  0
 23 25  2  0
 25 26  1  0
 26 27  1  0
 27 28  1  0
 27 29  1  0
 27 30  1  0
 25 31  1  0
 31 32  1  0
 31 33  2  0
 33 34  1  0
  4 35  1  0
 35 36  1  0
 35 37  2  0
 37 38  1  0
 37 39  1  0
 39 40  1  0
 39  2  2  0
 33 20  1  0
M  CHG  2   3  -1   8   1
M  END
>  <UniqueID>  (22) 
21

>  <SMILES>  (22) 
COc1ccc(CCC[NH2+]C(=S)/N=c2\ccc(Br)c[n-]2)cc1

>  <Energy>  (22) 
44.403724512553694

>  <Genealogy>  (22) 
COc1ccc(CCC[NH2+]C(=S)N=c2ccc(Br)c[n-]2)cc1 (protonated)
COc1ccc(CCC[NH2+]C(=S)/N=c2\ccc(Br)c[n-]2)cc1 (cis-trans isomerization)
COc1ccc(CCC[NH2+]C(=S)/N=c2\ccc(Br)c[n-]2)cc1 (3D coordinates assigned)
COc1ccc(CCC[NH2+]C(=S)/N=c2\ccc(Br)c[n-]2)cc1 (optimized conformer: 44.403724512553694 kcal/mol)

>  <smiles>  (22) 
COc1ccc(CCCNC(=S)N=c2ccc(Br)c[nH]2)cc1

>  <score_type>  (22) 
oracle

>  <origin>  (22) 
adg

>  <m_score__min__energy>  (22) 
-7.9500000000000002

>  <m_primary>  (22) 
energy

$$$$
22:0
     RDKit          3D

 46 48  0  0  0  0  0  0  0  0999 V2000
   59.1267   24.2241   45.2563 H   0  0  0  0  0  0  0  0  0  0  0  0
   58.0310   24.1610   45.1820 C   0  0  0  0  0  0  0  0  0  0  0  0
   57.2480   25.2240   45.6390 C   0  0  0  0  0  0  0  0  0  0  0  0
   57.9240   26.4350   46.1810 C   0  0  0  0  0  0  0  0  0  0  0  0
   57.4800   26.9600   47.2380 O   0  0  0  0  0  0  0  0  0  0  0  0
   59.1470   27.0440   45.5450 C   0  0  0  0  0  0  0  0  0  0  0  0
   59.4424   27.9327   46.1220 H   0  0  0  0  0  0  0  0  0  0  0  0
   59.9444   26.2863   45.5465 H   0  0  0  0  0  0  0  0  0  0  0  0
   58.8410   27.5400   43.8110 S   0  0  0  0  0  0  0  0  0  0  0  0
   57.8590   28.9760   44.2360 C   0  0  0  0  0  0  0  0  0  0  0  0
   56.5570   28.9120   44.5870 N   0  0  0  0  0  0  0  0  0  0  0  0
   56.0280   30.1050   44.8510 N   0  0  0  0  0  0  0  0  0  0  0  0
   56.9150   31.1160   44.7110 C   0  0  0  0  0  0  0  0  0  0  0  0
   56.6370   32.3700   44.9130 N   0  0  0  0  0  0  0  0  0  0  0  0
   57.4050   33.3220   45.7250 C   0  0  0  0  0  0  0  0  0  0  0  0
   56.6810   33.9708   46.2396 H   0  0  0  0  0  0  0  0  0  0  0  0
   58.2850   34.2510   44.8480 C   0  0  0  0  0  0  0  0  0  0  0  0
   58.5949   33.6954   43.9507 H   0  0  0  0  0  0  0  0  0  0  0  0
   57.6803   35.1346   44.5960 H   0  0  0  0  0  0  0  0  0  0  0  0
   59.5480   34.7500   45.5770 C   0  0  0  0  0  0  0  0  0  0  0  0
   60.3528   34.0123   45.4424 H   0  0  0  0  0  0  0  0  0  0  0  0
   59.8311   35.7227   45.1484 H   0  0  0  0  0  0  0  0  0  0  0  0
   59.2950   34.9420   47.0760 C   0  0  0  0  0  0  0  0  0  0  0  0
   60.2137   35.3239   47.5452 H   0  0  0  0  0  0  0  0  0  0  0  0
   58.4638   35.6531   47.1919 H   0  0  0  0  0  0  0  0  0  0  0  0
   58.8930   33.6210   47.7690 C   0  0  0  0  0  0  0  0  0  0  0  0
   59.7990   33.1574   48.1864 H   0  0  0  0  0  0  0  0  0  0  0  0
   58.1573   33.8751   48.5463 H   0  0  0  0  0  0  0  0  0  0  0  0
   58.2190   32.6080   46.8220 C   0  0  0  0  0  0  0  0  0  0  0  0
   58.9954   31.9901   46.3471 H   0  0  0  0  0  0  0  0  0  0  0  0
   57.5323   31.9842   47.4131 H   0  0  0  0  0  0  0  0  0  0  0  0
   58.4320   30.5610   44.2430 S   0  0  0  0  0  0  0  0  0  0  0  0
   55.8500   25.0940   45.5540 C   0  0  0  0  0  0  0  0  0  0  0  0
   55.1080   26.0210   45.9800 O   0  0  0  0  0  0  0  0  0  0  0  0
   55.2920   23.9580   45.0250 N   0  0  0  0  0  0  0  0  0  0  0  0
   53.8270   23.8470   44.9000 C   0  0  0  0  0  0  0  0  0  0  0  0
   53.3750   23.8128   45.9023 H   0  0  0  0  0  0  0  0  0  0  0  0
   53.4387   24.7183   44.3522 H   0  0  0  0  0  0  0  0  0  0  0  0
   53.5744   22.9271   44.3522 H   0  0  0  0  0  0  0  0  0  0  0  0
   56.0960   22.9570   44.5430 C   0  0  0  0  0  0  0  0  0  0  0  0
   55.5790   21.9400   43.9960 O   0  0  0  0  0  0  0  0  0  0  0  0
   57.4580   23.0480   44.6460 N   0  0  0  0  0  0  0  0  0  0  0  0
   58.3140   21.9730   44.1260 C   0  0  0  0  0  0  0  0  0  0  0  0
   58.7563   21.4176   44.9662 H   0  0  0  0  0  0  0  0  0  0  0  0
   57.7107   21.2888   43.5112 H   0  0  0  0  0  0  0  0  0  0  0  0
   59.1159   22.4078   43.5112 H   0  0  0  0  0  0  0  0  0  0  0  0
  1  2  1  0
  2  3  2  0
  3  4  1  0
  4  5  2  0
  4  6  1  0
  6  7  1  0
  6  8  1  0
  6  9  1  0
  9 10  1  0
 10 11  2  0
 11 12  1  0
 12 13  1  0
 13 14  2  0
 14 15  1  0
 15 16  1  0
 15 17  1  0
 17 18  1  0
 17 19  1  0
 17 20  1  0
 20 21  1  0
 20 22  1  0
 20 23  1  0
 23 24  1  0
 23 25  1  0
 23 26  1  0
 26 27  1  0
 26 28  1  0
 26 29  1  0
 29 30  1  0
 29 31  1  0
 13 32  1  0
  3 33  1  0
 33 34  2  0
 33 35  1  0
 35 36  1  0
 36 37  1  0
 36 38  1  0
 36 39  1  0
 35 40  1  0
 40 41  2  0
 40 42  1  0
 42 43  1  0
 43 44  1  0
 43 45  1  0
 43 46  1  0
 42  2  1  0
 32 10  1  0
 29 15  1  0
M  CHG  1  12  -1
M  END
>  <UniqueID>  (23) 
22

>  <SMILES>  (23) 
Cn1cc(C(=O)CSc2n[n-]/c(=N\C3CCCCC3)s2)c(=O)n(C)c1=O

>  <Energy>  (23) 
90.63842812506302

>  <Genealogy>  (23) 
Cn1cc(C(=O)CSc2n[n-]c(=NC3CCCCC3)s2)c(=O)n(C)c1=O (protonated)
Cn1cc(C(=O)CSc2n[n-]/c(=N\C3CCCCC3)s2)c(=O)n(C)c1=O (cis-trans isomerization)
Cn1cc(C(=O)CSc2n[n-]/c(=N\C3CCCCC3)s2)c(=O)n(C)c1=O (3D coordinates assigned)
Cn1cc(C(=O)CSc2n[n-]/c(=N\C3CCCCC3)s2)c(=O)n(C)c1=O (nonaromatic ring conformer: 90.63842812506302 kcal/mol)

>  <smiles>  (23) 
Cn1cc(C(=O)CSc2n[nH]c(=NC3CCCCC3)s2)c(=O)n(C)c1=O

>  <score_type>  (23) 
oracle

>  <origin>  (23) 
adg

>  <m_score__min__energy>  (23) 
-11.07

>  <m_primary>  (23) 
energy

$$$$
23:0
     RDKit          3D

 50 54  0  0  0  0  0  0  0  0999 V2000
   56.7960   25.9190   45.2570 O   0  0  0  0  0  0  0  0  0  0  0  0
   57.6730   25.0250   45.1050 C   0  0  0  0  0  0  0  0  0  0  0  0
   58.9950   25.2160   45.6450 N   0  0  0  0  0  0  0  0  0  0  0  0
   59.4340   26.4330   46.2710 C   0  0  0  0  0  0  0  0  0  0  0  0
   60.2700   26.3630   47.3980 C   0  0  0  0  0  0  0  0  0  0  0  0
   60.7350   27.5300   48.0140 C   0  0  0  0  0  0  0  0  0  0  0  0
   60.3780   28.7780   47.4980 C   0  0  0  0  0  0  0  0  0  0  0  0
   60.8330   29.9200   48.0730 N   0  0  0  0  0  0  0  0  0  0  0  0
   60.5150   31.1490   47.5800 C   0  0  0  0  0  0  0  0  0  0  0  0
   61.1200   32.3360   48.2260 C   0  0  0  0  0  0  0  0  0  0  0  0
   60.3630   33.1010   49.1310 C   0  0  0  0  0  0  0  0  0  0  0  0
   60.9280   34.2150   49.7570 C   0  0  0  0  0  0  0  0  0  0  0  0
   62.2550   34.5680   49.4970 C   0  0  0  0  0  0  0  0  0  0  0  0
   63.0230   33.8010   48.6150 C   0  0  0  0  0  0  0  0  0  0  0  0
   62.4610   32.6850   47.9880 C   0  0  0  0  0  0  0  0  0  0  0  0
   59.6620   31.2330   46.4480 C   0  0  0  0  0  0  0  0  0  0  0  0
   59.1790   32.5180   45.8940 C   0  0  0  0  0  0  0  0  0  0  0  0
   57.8270   32.6610   45.5400 C   0  0  0  0  0  0  0  0  0  0  0  0
   57.3570   33.8740   45.0280 C   0  0  0  0  0  0  0  0  0  0  0  0
   58.2270   34.9560   44.8790 C   0  0  0  0  0  0  0  0  0  0  0  0
   59.5690   34.8300   45.2480 C   0  0  0  0  0  0  0  0  0  0  0  0
   60.0430   33.6190   45.7610 C   0  0  0  0  0  0  0  0  0  0  0  0
   59.2280   30.0810   45.8670 N   0  0  0  0  0  0  0  0  0  0  0  0
   59.5630   28.8600   46.3560 C   0  0  0  0  0  0  0  0  0  0  0  0
   59.0990   27.6930   45.7400 C   0  0  0  0  0  0  0  0  0  0  0  0
   57.3110   23.7870   44.3740 C   0  0  0  0  0  0  0  0  0  0  0  0
   56.2640   23.7680   43.4310 C   0  0  0  0  0  0  0  0  0  0  0  0
   55.9460   22.5880   42.7510 C   0  0  0  0  0  0  0  0  0  0  0  0
   56.6690   21.4190   42.9960 C   0  0  0  0  0  0  0  0  0  0  0  0
   57.7170   21.4280   43.9180 C   0  0  0  0  0  0  0  0  0  0  0  0
   58.0400   22.6040   44.6010 C   0  0  0  0  0  0  0  0  0  0  0  0
   59.6700   24.4210   45.6360 H   0  0  0  0  0  0  0  0  0  0  0  0
   60.5617   25.3815   47.7999 H   0  0  0  0  0  0  0  0  0  0  0  0
   61.3802   27.4649   48.9025 H   0  0  0  0  0  0  0  0  0  0  0  0
   59.3214   32.8211   49.3471 H   0  0  0  0  0  0  0  0  0  0  0  0
   60.3271   34.8154   50.4559 H   0  0  0  0  0  0  0  0  0  0  0  0
   62.6955   35.4493   49.9862 H   0  0  0  0  0  0  0  0  0  0  0  0
   64.0691   34.0758   48.4147 H   0  0  0  0  0  0  0  0  0  0  0  0
   63.0714   32.0765   47.3046 H   0  0  0  0  0  0  0  0  0  0  0  0
   57.1353   31.8150   45.6662 H   0  0  0  0  0  0  0  0  0  0  0  0
   56.2998   33.9763   44.7420 H   0  0  0  0  0  0  0  0  0  0  0  0
   57.8559   35.9078   44.4711 H   0  0  0  0  0  0  0  0  0  0  0  0
   60.2528   35.6842   45.1347 H   0  0  0  0  0  0  0  0  0  0  0  0
   61.0970   33.5272   46.0620 H   0  0  0  0  0  0  0  0  0  0  0  0
   58.4713   27.7599   44.8392 H   0  0  0  0  0  0  0  0  0  0  0  0
   55.6936   24.6865   43.2286 H   0  0  0  0  0  0  0  0  0  0  0  0
   55.1235   22.5809   42.0207 H   0  0  0  0  0  0  0  0  0  0  0  0
   56.4129   20.4915   42.4628 H   0  0  0  0  0  0  0  0  0  0  0  0
   58.2896   20.5081   44.1074 H   0  0  0  0  0  0  0  0  0  0  0  0
   58.8708   22.6053   45.3220 H   0  0  0  0  0  0  0  0  0  0  0  0
  1  2  2  0
  2  3  1  0
  3  4  1  0
  4  5  2  0
  5  6  1  0
  6  7  2  0
  7  8  1  0
  8  9  2  0
  9 10  1  0
 10 11  2  0
 11 12  1  0
 12 13  2  0
 13 14  1  0
 14 15  2  0
  9 16  1  0
 16 17  1  0
 17 18  2  0
 18 19  1  0
 19 20  2  0
 20 21  1  0
 21 22  2  0
 16 23  2  0
 23 24  1  0
 24 25  2  0
  2 26  1  0
 26 27  2  0
 27 28  1  0
 28 29  2  0
 29 30  1  0
 30 31  2  0
 25  4  1  0
 31 26  1  0
 24  7  1  0
 15 10  1  0
 22 17  1  0
  3 32  1  0
  5 33  1  0
  6 34  1  0
 11 35  1  0
 12 36  1  0
 13 37  1  0
 14 38  1  0
 15 39  1  0
 18 40  1  0
 19 41  1  0
 20 42  1  0
 21 43  1  0
 22 44  1  0
 25 45  1  0
 27 46  1  0
 28 47  1  0
 29 48  1  0
 30 49  1  0
 31 50  1  0
M  END
>  <UniqueID>  (24) 
23

>  <SMILES>  (24) 
O=C(Nc1ccc2nc(-c3ccccc3)c(-c3ccccc3)nc2c1)c1ccccc1

>  <Energy>  (24) 
79.21429222743437

>  <Genealogy>  (24) 
O=C(Nc1ccc2nc(-c3ccccc3)c(-c3ccccc3)nc2c1)c1ccccc1 (3D coordinates assigned)
O=C(Nc1ccc2nc(-c3ccccc3)c(-c3ccccc3)nc2c1)c1ccccc1 (optimized conformer: 79.21429222743437 kcal/mol)

>  <smiles>  (24) 
O=C(Nc1ccc2nc(-c3ccccc3)c(-c3ccccc3)nc2c1)c1ccccc1

>  <score_type>  (24) 
oracle

>  <origin>  (24) 
adg

>  <m_score__min__energy>  (24) 
-8.7200000000000006

>  <m_primary>  (24) 
energy

$$$$
24:0
     RDKit          3D

 78 81  0  0  0  0  0  0  0  0999 V2000
   60.4524   30.3333   47.7501 H   0  0  0  0  0  0  0  0  0  0  0  0
   60.9220   31.3270   47.7050 C   0  0  0  0  0  0  0  0  0  0  0  0
   62.2520   31.4610   47.9530 N   0  0  0  0  0  0  0  0  0  0  0  0
   58.1650   31.6580   46.1320 C   0  0  0  0  0  0  0  0  0  0  0  0
   58.7530   32.3020   47.1110 N   0  0  0  0  0  0  0  0  0  0  0  0
   64.6740   33.3340   49.4280 C   0  0  0  0  0  0  0  0  0  0  0  0
   65.7595   33.4806   49.3266 H   0  0  0  0  0  0  0  0  0  0  0  0
   64.1753   34.2932   49.6314 H   0  0  0  0  0  0  0  0  0  0  0  0
   64.4020   32.3790   50.6010 C   0  0  0  0  0  0  0  0  0  0  0  0
   65.3616   32.0100   50.9923 H   0  0  0  0  0  0  0  0  0  0  0  0
   63.8511   32.9309   51.3768 H   0  0  0  0  0  0  0  0  0  0  0  0
   63.5820   31.2290   50.1780 N   0  0  0  0  0  0  0  0  0  0  0  0
   63.9160   30.8980   49.2390 H   0  0  0  0  0  0  0  0  0  0  0  0
   62.5780   31.5240   50.0970 H   0  0  0  0  0  0  0  0  0  0  0  0
   63.6860   30.1410   51.1660 C   0  0  0  0  0  0  0  0  0  0  0  0
   64.4657   29.4372   50.8392 H   0  0  0  0  0  0  0  0  0  0  0  0
   63.9374   30.5874   52.1394 H   0  0  0  0  0  0  0  0  0  0  0  0
   62.3870   29.3930   51.3170 C   0  0  0  0  0  0  0  0  0  0  0  0
   61.3840   29.7790   50.6610 O   0  0  0  0  0  0  0  0  0  0  0  0
   62.2830   28.2390   52.1710 N   0  0  0  0  0  0  0  0  0  0  0  0
   61.5020   27.0800   51.7130 C   0  0  0  0  0  0  0  0  0  0  0  0
   61.1268   26.5232   52.5843 H   0  0  0  0  0  0  0  0  0  0  0  0
   60.6527   27.4269   51.1061 H   0  0  0  0  0  0  0  0  0  0  0  0
   62.1423   26.4231   51.1061 H   0  0  0  0  0  0  0  0  0  0  0  0
   62.9470   28.2140   53.4800 C   0  0  0  0  0  0  0  0  0  0  0  0
   62.1887   28.2425   54.2764 H   0  0  0  0  0  0  0  0  0  0  0  0
   63.5411   27.2929   53.5722 H   0  0  0  0  0  0  0  0  0  0  0  0
   63.6087   29.0879   53.5722 H   0  0  0  0  0  0  0  0  0  0  0  0
   57.5680   32.3020   45.0070 C   0  0  0  0  0  0  0  0  0  0  0  0
   62.6512   34.7847   47.4271 H   0  0  0  0  0  0  0  0  0  0  0  0
   60.7830   33.6930   47.2600 C   0  0  0  0  0  0  0  0  0  0  0  0
   60.2027   34.5761   46.9546 H   0  0  0  0  0  0  0  0  0  0  0  0
   60.1510   32.4490   47.3930 C   0  0  0  0  0  0  0  0  0  0  0  0
   64.1450   32.7860   48.1780 N   0  0  0  0  0  0  0  0  0  0  0  0
   62.8810   32.6720   47.8870 C   0  0  0  0  0  0  0  0  0  0  0  0
   62.1510   33.8090   47.5160 C   0  0  0  0  0  0  0  0  0  0  0  0
   57.3760   33.7320   44.9040 C   0  0  0  0  0  0  0  0  0  0  0  0
   57.2260   34.8770   44.8360 N   0  0  0  0  0  0  0  0  0  0  0  0
   57.0290   31.5230   43.9790 C   0  0  0  0  0  0  0  0  0  0  0  0
   56.6036   32.0130   43.0908 H   0  0  0  0  0  0  0  0  0  0  0  0
   57.0250   30.1720   44.0650 N   0  0  0  0  0  0  0  0  0  0  0  0
   57.5320   29.5170   45.1370 C   0  0  0  0  0  0  0  0  0  0  0  0
   57.4760   28.1210   45.1760 C   0  0  0  0  0  0  0  0  0  0  0  0
   57.0322   27.5703   44.3335 H   0  0  0  0  0  0  0  0  0  0  0  0
   57.9820   27.4120   46.2830 C   0  0  0  0  0  0  0  0  0  0  0  0
   57.9400   26.0090   46.3730 O   0  0  0  0  0  0  0  0  0  0  0  0
   57.0190   25.2300   47.1370 C   0  0  0  0  0  0  0  0  0  0  0  0
   57.0264   25.5857   48.1779 H   0  0  0  0  0  0  0  0  0  0  0  0
   56.0186   25.3426   46.6937 H   0  0  0  0  0  0  0  0  0  0  0  0
   57.3930   23.7420   47.1150 C   0  0  0  0  0  0  0  0  0  0  0  0
   58.0061   23.5220   48.0014 H   0  0  0  0  0  0  0  0  0  0  0  0
   56.4547   23.1680   47.1104 H   0  0  0  0  0  0  0  0  0  0  0  0
   58.1830   23.3380   45.8620 C   0  0  0  0  0  0  0  0  0  0  0  0
   58.6223   24.2390   45.4090 H   0  0  0  0  0  0  0  0  0  0  0  0
   58.9704   22.6301   46.1602 H   0  0  0  0  0  0  0  0  0  0  0  0
   57.3090   22.6750   44.8680 N   0  0  0  0  0  0  0  0  0  0  0  0
   56.8420   23.6510   43.8650 C   0  0  0  0  0  0  0  0  0  0  0  0
   56.2942   24.4583   44.3731 H   0  0  0  0  0  0  0  0  0  0  0  0
   57.7140   24.0604   43.3339 H   0  0  0  0  0  0  0  0  0  0  0  0
   55.9080   22.9690   42.8410 C   0  0  0  0  0  0  0  0  0  0  0  0
   54.8847   23.3428   42.9934 H   0  0  0  0  0  0  0  0  0  0  0  0
   56.2816   23.2111   41.8351 H   0  0  0  0  0  0  0  0  0  0  0  0
   55.9000   21.5580   42.9690 O   0  0  0  0  0  0  0  0  0  0  0  0
   57.2260   21.0750   42.9460 C   0  0  0  0  0  0  0  0  0  0  0  0
   57.2099   19.9754   42.9198 H   0  0  0  0  0  0  0  0  0  0  0  0
   57.7317   21.4694   42.0523 H   0  0  0  0  0  0  0  0  0  0  0  0
   57.9950   21.5410   44.1990 C   0  0  0  0  0  0  0  0  0  0  0  0
   58.0694   20.7012   44.9056 H   0  0  0  0  0  0  0  0  0  0  0  0
   58.9938   21.8785   43.8853 H   0  0  0  0  0  0  0  0  0  0  0  0
   58.5590   28.1200   47.3490 C   0  0  0  0  0  0  0  0  0  0  0  0
   59.0580   27.3820   48.4340 O   0  0  0  0  0  0  0  0  0  0  0  0
   60.4310   27.0590   48.6300 C   0  0  0  0  0  0  0  0  0  0  0  0
   60.6456   27.0085   49.7077 H   0  0  0  0  0  0  0  0  0  0  0  0
   60.6483   26.0852   48.1669 H   0  0  0  0  0  0  0  0  0  0  0  0
   61.0597   27.8338   48.1669 H   0  0  0  0  0  0  0  0  0  0  0  0
   58.6170   29.5260   47.3080 C   0  0  0  0  0  0  0  0  0  0  0  0
   59.0664   30.0749   48.1487 H   0  0  0  0  0  0  0  0  0  0  0  0
   58.1070   30.2410   46.2040 C   0  0  0  0  0  0  0  0  0  0  0  0
  1  2  1  0
  2  3  1  0
  3  4  1  0
  4  5  2  0
  5  6  1  0
  6  7  1  0
  6  8  1  0
  6  9  1  0
  9 10  1  0
  9 11  1  0
  9 12  1  0
 12 13  1  0
 12 14  1  0
 12 15  1  0
 15 16  1  0
 15 17  1  0
 15 18  1  0
 18 19  2  0
 18 20  1  0
 20 21  1  0
 21 22  1  0
 21 23  1  0
 21 24  1  0
 20 25  1  0
 25 26  1  0
 25 27  1  0
 25 28  1  0
  4 29  1  0
 29 30  1  0
 29 31  2  0
 31 32  1  0
 31 33  1  0
 33 34  1  0
 34 35  2  0
 35 36  1  0
 36 37  1  0
 37 38  3  0
 36 39  2  0
 39 40  1  0
 39 41  1  0
 41 42  1  0
 42 43  2  0
 43 44  1  0
 43 45  1  0
 45 46  1  0
 46 47  1  0
 47 48  1  0
 47 49  1  0
 47 50  1  0
 50 51  1  0
 50 52  1  0
 50 53  1  0
 53 54  1  0
 53 55  1  0
 53 56  1  0
 56 57  1  0
 57 58  1  0
 57 59  1  0
 57 60  1  0
 60 61  1  0
 60 62  1  0
 60 63  1  0
 63 64  1  0
 64 65  1  0
 64 66  1  0
 64 67  1  0
 67 68  1  0
 67 69  1  0
 45 70  2  0
 70 71  1  0
 71 72  1  0
 72 73  1  0
 72 74  1  0
 72 75  1  0
 70 76  1  0
 76 77  1  0
 76 78  2  0
 33  2  2  0
 78 35  1  0
 78 42  1  0
 67 56  1  0
M  CHG  3   3  -1  12   1  41  -1
M  END
>  <UniqueID>  (25) 
24

>  <SMILES>  (25) 
COc1cc2/c(=N/c3cc/c(=N/CC[NH2+]CC(=O)N(C)C)[n-]c3)c(C#N)c[n-]c2cc1OCCCN1CCOCC1

>  <Energy>  (25) 
107.44495388198675

>  <Genealogy>  (25) 
COc1cc2c(=Nc3ccc(=NCC[NH2+]CC(=O)N(C)C)[n-]c3)c(C#N)c[n-]c2cc1OCCCN1CCOCC1 (protonated)
COc1cc2/c(=N/c3cc/c(=N/CC[NH2+]CC(=O)N(C)C)[n-]c3)c(C#N)c[n-]c2cc1OCCCN1CCOCC1 (cis-trans isomerization)
COc1cc2/c(=N/c3cc/c(=N/CC[NH2+]CC(=O)N(C)C)[n-]c3)c(C#N)c[n-]c2cc1OCCCN1CCOCC1 (3D coordinates assigned)
COc1cc2/c(=N/c3cc/c(=N/CC[NH2+]CC(=O)N(C)C)[n-]c3)c(C#N)c[n-]c2cc1OCCCN1CCOCC1 (nonaromatic ring conformer: 107.44495388198675 kcal/mol)

>  <smiles>  (25) 
COc1cc2c(=Nc3ccc(=NCCNCC(=O)N(C)C)[nH]c3)c(C#N)c[nH]c2cc1OCCCN1CCOCC1

>  <score_type>  (25) 
oracle

>  <origin>  (25) 
adg

>  <m_score__min__energy>  (25) 
-9.1799999999999997

>  <m_primary>  (25) 
energy

$$$$
25:0
     RDKit          3D

 52 53  0  0  0  0  0  0  0  0999 V2000
   59.0130   27.4120   47.8070 C   0  0  0  0  0  0  0  0  0  0  0  0
   58.3560   26.5000   46.7580 C   0  0  0  0  0  0  0  0  0  0  0  0
   59.3420   26.1930   45.6220 C   0  0  0  0  0  0  0  0  0  0  0  0
   57.0130   27.0610   46.2180 C   0  0  1  0  0  0  0  0  0  0  0  0
   57.1690   27.4220   44.8020 N   0  0  0  0  0  0  0  0  0  0  0  0
   56.9950   29.1370   44.5590 S   0  0  0  0  0  0  0  0  0  0  0  0
   57.0110   29.4370   43.0850 O   0  0  0  0  0  0  0  0  0  0  0  0
   55.6760   29.5820   45.1220 O   0  0  0  0  0  0  0  0  0  0  0  0
   58.2870   30.0140   45.3760 C   0  0  0  0  0  0  0  0  0  0  0  0
   58.0140   31.2480   45.9760 C   0  0  0  0  0  0  0  0  0  0  0  0
   59.0200   31.9430   46.6520 C   0  0  0  0  0  0  0  0  0  0  0  0
   60.3240   31.4200   46.7220 C   0  0  0  0  0  0  0  0  0  0  0  0
   61.3920   32.1650   47.4290 C   0  0  0  0  0  0  0  0  0  0  0  0
   61.2710   33.4190   48.0260 C   0  0  0  0  0  0  0  0  0  0  0  0
   62.4520   33.8680   48.6300 C   0  0  0  0  0  0  0  0  0  0  0  0
   63.5100   32.9750   48.5030 C   0  0  0  0  0  0  0  0  0  0  0  0
   64.9000   33.1690   49.0410 C   0  0  0  0  0  0  0  0  0  0  0  0
   65.1120   32.6040   50.4750 C   0  0  0  0  0  0  0  0  0  0  0  0
   64.0900   31.4910   50.7850 C   0  0  0  0  0  0  0  0  0  0  0  0
   66.5310   32.0040   50.5560 C   0  0  0  0  0  0  0  0  0  0  0  0
   64.9890   33.7220   51.5320 C   0  0  0  0  0  0  0  0  0  0  0  0
   62.9730   31.6250   47.6590 S   0  0  0  0  0  0  0  0  0  0  0  0
   60.5920   30.1790   46.1150 C   0  0  0  0  0  0  0  0  0  0  0  0
   59.5800   29.4790   45.4510 C   0  0  0  0  0  0  0  0  0  0  0  0
   55.8780   26.0830   46.3820 C   0  0  0  0  0  0  0  0  0  0  0  0
   54.7380   26.3370   45.9070 O   0  0  0  0  0  0  0  0  0  0  0  0
   56.0890   24.8810   47.0460 O   0  0  0  0  0  0  0  0  0  0  0  0
   58.7561   27.0554   48.8154 H   0  0  0  0  0  0  0  0  0  0  0  0
   60.1052   27.3916   47.6781 H   0  0  0  0  0  0  0  0  0  0  0  0
   58.6478   28.4415   47.6781 H   0  0  0  0  0  0  0  0  0  0  0  0
   58.1006   25.5575   47.2645 H   0  0  0  0  0  0  0  0  0  0  0  0
   60.3102   25.8915   46.0483 H   0  0  0  0  0  0  0  0  0  0  0  0
   58.9441   25.3762   45.0019 H   0  0  0  0  0  0  0  0  0  0  0  0
   59.4781   27.0913   45.0019 H   0  0  0  0  0  0  0  0  0  0  0  0
   56.7585   27.9530   46.8093 H   0  0  0  0  0  0  0  0  0  0  0  0
   57.0015   31.6735   45.9152 H   0  0  0  0  0  0  0  0  0  0  0  0
   58.7908   32.9055   47.1327 H   0  0  0  0  0  0  0  0  0  0  0  0
   60.3371   34.0002   48.0229 H   0  0  0  0  0  0  0  0  0  0  0  0
   62.5344   34.8321   49.1533 H   0  0  0  0  0  0  0  0  0  0  0  0
   65.6057   32.6656   48.3638 H   0  0  0  0  0  0  0  0  0  0  0  0
   65.0680   34.2545   49.1003 H   0  0  0  0  0  0  0  0  0  0  0  0
   63.9880   31.3800   51.8746 H   0  0  0  0  0  0  0  0  0  0  0  0
   63.1150   31.7571   50.3507 H   0  0  0  0  0  0  0  0  0  0  0  0
   64.4381   30.5422   50.3507 H   0  0  0  0  0  0  0  0  0  0  0  0
   66.8181   31.8826   51.6109 H   0  0  0  0  0  0  0  0  0  0  0  0
   66.5435   31.0236   50.0574 H   0  0  0  0  0  0  0  0  0  0  0  0
   67.2431   32.6780   50.0574 H   0  0  0  0  0  0  0  0  0  0  0  0
   65.0374   33.2816   52.5388 H   0  0  0  0  0  0  0  0  0  0  0  0
   65.8137   34.4388   51.4052 H   0  0  0  0  0  0  0  0  0  0  0  0
   64.0282   34.2424   51.4052 H   0  0  0  0  0  0  0  0  0  0  0  0
   61.6063   29.7560   46.1633 H   0  0  0  0  0  0  0  0  0  0  0  0
   59.7993   28.5063   44.9865 H   0  0  0  0  0  0  0  0  0  0  0  0
  1  2  1  0
  2  3  1  0
  2  4  1  0
  4  5  1  0
  5  6  1  0
  6  7  2  0
  6  8  2  0
  6  9  1  0
  9 10  2  0
 10 11  1  0
 11 12  2  0
 12 13  1  0
 13 14  2  0
 14 15  1  0
 15 16  2  0
 16 17  1  0
 17 18  1  0
 18 19  1  0
 18 20  1  0
 18 21  1  0
 16 22  1  0
 12 23  1  0
 23 24  2  0
  4 25  1  0
 25 26  2  0
 25 27  1  0
 24  9  1  0
 22 13  1  0
  1 28  1  0
  1 29  1  0
  1 30  1  0
  2 31  1  0
  3 32  1  0
  3 33  1  0
  3 34  1  0
  4 35  1  1
 10 36  1  0
 11 37  1  0
 14 38  1  0
 15 39  1  0
 17 40  1  0
 17 41  1  0
 19 42  1  0
 19 43  1  0
 19 44  1  0
 20 45  1  0
 20 46  1  0
 20 47  1  0
 21 48  1  0
 21 49  1  0
 21 50  1  0
 23 51  1  0
 24 52  1  0
M  CHG  2   5  -1  27  -1
M  END
>  <UniqueID>  (26) 
25

>  <SMILES>  (26) 
CC(C)[C@@H]([N-]S(=O)(=O)c1ccc(-c2ccc(CC(C)(C)C)s2)cc1)C(=O)[O-]

>  <Energy>  (26) 
69.09249120727905

>  <Genealogy>  (26) 
CC(C)C([N-]S(=O)(=O)c1ccc(-c2ccc(CC(C)(C)C)s2)cc1)C(=O)[O-] (protonated)
CC(C)[C@@H]([N-]S(=O)(=O)c1ccc(-c2ccc(CC(C)(C)C)s2)cc1)C(=O)[O-] (chirality)
CC(C)[C@@H]([N-]S(=O)(=O)c1ccc(-c2ccc(CC(C)(C)C)s2)cc1)C(=O)[O-] (3D coordinates assigned)
CC(C)[C@@H]([N-]S(=O)(=O)c1ccc(-c2ccc(CC(C)(C)C)s2)cc1)C(=O)[O-] (optimized conformer: 69.09249120727905 kcal/mol)

>  <smiles>  (26) 
CC(C)C(NS(=O)(=O)c1ccc(-c2ccc(CC(C)(C)C)s2)cc1)C(=O)O

>  <score_type>  (26) 
oracle

>  <origin>  (26) 
adg

>  <m_score__min__energy>  (26) 
-13.02

>  <m_primary>  (26) 
energy

$$$$
26:0
     RDKit          3D

 37 38  0  0  0  0  0  0  0  0999 V2000
   60.5347   26.8741   45.0582 H   0  0  0  0  0  0  0  0  0  0  0  0
   60.1360   27.7630   45.5690 C   0  0  0  0  0  0  0  0  0  0  0  0
   60.7350   28.9710   45.3960 N   0  0  0  0  0  0  0  0  0  0  0  0
   60.2650   30.0950   46.0000 C   0  0  0  0  0  0  0  0  0  0  0  0
   60.7805   31.0547   45.8478 H   0  0  0  0  0  0  0  0  0  0  0  0
   59.1220   30.0360   46.8190 C   0  0  0  0  0  0  0  0  0  0  0  0
   58.5860   31.2500   47.5460 C   0  0  0  0  0  0  0  0  0  0  0  0
   59.2177   31.4395   48.4264 H   0  0  0  0  0  0  0  0  0  0  0  0
   57.5453   31.0334   47.8289 H   0  0  0  0  0  0  0  0  0  0  0  0
   58.5740   32.4650   46.7030 N   0  0  0  0  0  0  0  0  0  0  0  0
   59.3960   33.4840   47.1260 C   0  0  0  0  0  0  0  0  0  0  0  0
   59.9592   33.3634   48.0632 H   0  0  0  0  0  0  0  0  0  0  0  0
   59.5340   34.6630   46.4000 C   0  0  0  0  0  0  0  0  0  0  0  0
   60.1970   35.4625   46.7623 H   0  0  0  0  0  0  0  0  0  0  0  0
   58.8310   34.8220   45.2190 C   0  0  0  0  0  0  0  0  0  0  0  0
   58.9346   35.7473   44.6333 H   0  0  0  0  0  0  0  0  0  0  0  0
   57.9940   33.8060   44.7780 C   0  0  0  0  0  0  0  0  0  0  0  0
   57.4373   33.9289   43.8373 H   0  0  0  0  0  0  0  0  0  0  0  0
   57.8510   32.6230   45.5210 C   0  0  0  0  0  0  0  0  0  0  0  0
   57.0140   31.7490   45.0190 N   0  0  0  0  0  0  0  0  0  0  0  0
   57.1710   30.5240   44.2410 C   0  0  0  0  0  0  0  0  0  0  0  0
   56.4651   29.7628   44.6047 H   0  0  0  0  0  0  0  0  0  0  0  0
   58.1976   30.1439   44.3484 H   0  0  0  0  0  0  0  0  0  0  0  0
   56.8830   30.8300   42.7680 C   0  0  0  0  0  0  0  0  0  0  0  0
   55.8281   31.1258   42.6696 H   0  0  0  0  0  0  0  0  0  0  0  0
   57.1059   29.9212   42.1897 H   0  0  0  0  0  0  0  0  0  0  0  0
   57.7640   31.9600   42.2150 C   0  0  0  0  0  0  0  0  0  0  0  0
   58.8077   31.6133   42.1928 H   0  0  0  0  0  0  0  0  0  0  0  0
   57.6378   32.8315   42.8742 H   0  0  0  0  0  0  0  0  0  0  0  0
   57.3610   32.3880   40.8030 C   0  0  0  0  0  0  0  0  0  0  0  0
   56.6081   33.1877   40.8631 H   0  0  0  0  0  0  0  0  0  0  0  0
   58.2465   32.7578   40.2652 H   0  0  0  0  0  0  0  0  0  0  0  0
   56.9387   31.5264   40.2652 H   0  0  0  0  0  0  0  0  0  0  0  0
   58.5160   28.7880   47.0260 C   0  0  0  0  0  0  0  0  0  0  0  0
   57.6426   28.7064   47.6897 H   0  0  0  0  0  0  0  0  0  0  0  0
   59.0170   27.6490   46.3930 C   0  0  0  0  0  0  0  0  0  0  0  0
   58.5341   26.6721   46.5427 H   0  0  0  0  0  0  0  0  0  0  0  0
  1  2  1  0
  2  3  2  0
  3  4  1  0
  4  5  1  0
  4  6  2  0
  6  7  1  0
  7  8  1  0
  7  9  1  0
  7 10  1  0
 10 11  1  0
 11 12  1  0
 11 13  2  0
 13 14  1  0
 13 15  1  0
 15 16  1  0
 15 17  2  0
 17 18  1  0
 17 19  1  0
 19 20  2  0
 20 21  1  0
 21 22  1  0
 21 23  1  0
 21 24  1  0
 24 25  1  0
 24 26  1  0
 24 27  1  0
 27 28  1  0
 27 29  1  0
 27 30  1  0
 30 31  1  0
 30 32  1  0
 30 33  1  0
  6 34  1  0
 34 35  1  0
 34 36  2  0
 36 37  1  0
 36  2  1  0
 19 10  1  0
M  END
>  <UniqueID>  (27) 
26

>  <SMILES>  (27) 
CCCC/N=c1/ccccn1Cc1cccnc1

>  <Energy>  (27) 
48.14929377425471

>  <Genealogy>  (27) 
CCCC/N=c1/ccccn1Cc1cccnc1 (cis-trans isomerization)
CCCC/N=c1/ccccn1Cc1cccnc1 (3D coordinates assigned)
CCCC/N=c1/ccccn1Cc1cccnc1 (optimized conformer: 48.14929377425471 kcal/mol)

>  <smiles>  (27) 
CCCCN=c1ccccn1Cc1cccnc1

>  <score_type>  (27) 
oracle

>  <origin>  (27) 
adg

>  <m_score__min__energy>  (27) 
-6.1900000000000004

>  <m_primary>  (27) 
energy

$$$$
27:0
     RDKit          3D

 47 48  0  0  0  0  0  0  0  0999 V2000
   58.0770   21.6570   43.9230 C   0  0  0  0  0  0  0  0  0  0  0  0
   56.6410   22.0490   43.8340 C   0  0  0  0  0  0  0  0  0  0  0  0
   55.9230   21.5670   42.9180 O   0  0  0  0  0  0  0  0  0  0  0  0
   56.1260   23.0480   44.7220 N   0  0  0  0  0  0  0  0  0  0  0  0
   56.5620   24.4130   44.8190 C   0  0  0  0  0  0  0  0  0  0  0  0
   57.3850   25.0070   43.8460 C   0  0  0  0  0  0  0  0  0  0  0  0
   57.7700   26.3450   43.9690 C   0  0  0  0  0  0  0  0  0  0  0  0
   57.3160   27.1200   45.0510 C   0  0  0  0  0  0  0  0  0  0  0  0
   57.7170   28.4920   45.2150 N   0  0  0  0  0  0  0  0  0  0  0  0
   56.8200   29.6100   45.1460 C   0  0  0  0  0  0  0  0  0  0  0  0
   55.5720   29.4310   45.1800 O   0  0  0  0  0  0  0  0  0  0  0  0
   57.3610   30.9360   45.1310 N   0  0  0  0  0  0  0  0  0  0  0  0
   58.1180   31.5570   46.1800 C   0  0  0  0  0  0  0  0  0  0  0  0
   59.1280   30.8220   46.8060 C   0  0  0  0  0  0  0  0  0  0  0  0
   59.9030   31.3970   47.8170 C   0  0  0  0  0  0  0  0  0  0  0  0
   59.6900   32.7280   48.2160 C   0  0  0  0  0  0  0  0  0  0  0  0
   60.4880   33.3160   49.2720 N   0  0  0  0  0  0  0  0  0  0  0  0
   60.2920   32.8870   50.6680 C   0  0  0  0  0  0  0  0  0  0  0  0
   58.9290   33.3170   51.2280 C   0  0  0  0  0  0  0  0  0  0  0  0
   57.7530   31.9780   51.2340 Cl  0  0  0  0  0  0  0  0  0  0  0  0
   61.6080   34.2180   48.9460 C   0  0  0  0  0  0  0  0  0  0  0  0
   62.8250   33.4180   48.4860 C   0  0  0  0  0  0  0  0  0  0  0  0
   63.0920   33.6570   46.7410 Cl  0  0  0  0  0  0  0  0  0  0  0  0
   58.6930   33.4750   47.5590 C   0  0  0  0  0  0  0  0  0  0  0  0
   57.9190   32.8980   46.5490 C   0  0  0  0  0  0  0  0  0  0  0  0
   56.4960   26.5240   46.0180 C   0  0  0  0  0  0  0  0  0  0  0  0
   56.1100   25.1860   45.8950 C   0  0  0  0  0  0  0  0  0  0  0  0
   58.3704   21.5769   44.9801 H   0  0  0  0  0  0  0  0  0  0  0  0
   58.2234   20.6860   43.4273 H   0  0  0  0  0  0  0  0  0  0  0  0
   58.6965   22.4189   43.4273 H   0  0  0  0  0  0  0  0  0  0  0  0
   57.7275   24.4159   42.9839 H   0  0  0  0  0  0  0  0  0  0  0  0
   58.4324   26.7946   43.2146 H   0  0  0  0  0  0  0  0  0  0  0  0
   58.7080   28.6880   45.4790 H   0  0  0  0  0  0  0  0  0  0  0  0
   59.3148   29.7819   46.5005 H   0  0  0  0  0  0  0  0  0  0  0  0
   60.6882   30.8016   48.3058 H   0  0  0  0  0  0  0  0  0  0  0  0
   60.3621   31.7902   50.7134 H   0  0  0  0  0  0  0  0  0  0  0  0
   61.0712   33.3671   51.2783 H   0  0  0  0  0  0  0  0  0  0  0  0
   59.0660   33.6732   52.2597 H   0  0  0  0  0  0  0  0  0  0  0  0
   58.5326   34.1126   50.5800 H   0  0  0  0  0  0  0  0  0  0  0  0
   61.2994   34.9016   48.1414 H   0  0  0  0  0  0  0  0  0  0  0  0
   61.8781   34.7886   49.8468 H   0  0  0  0  0  0  0  0  0  0  0  0
   63.7132   33.7566   49.0395 H   0  0  0  0  0  0  0  0  0  0  0  0
   62.6475   32.3498   48.6797 H   0  0  0  0  0  0  0  0  0  0  0  0
   58.5219   34.5236   47.8440 H   0  0  0  0  0  0  0  0  0  0  0  0
   57.1495   33.4969   46.0399 H   0  0  0  0  0  0  0  0  0  0  0  0
   56.1531   27.1136   46.8810 H   0  0  0  0  0  0  0  0  0  0  0  0
   55.4465   24.7375   46.6490 H   0  0  0  0  0  0  0  0  0  0  0  0
  1  2  1  0
  2  3  2  0
  2  4  1  0
  4  5  1  0
  5  6  2  0
  6  7  1  0
  7  8  2  0
  8  9  1  0
  9 10  1  0
 10 11  2  0
 10 12  1  0
 12 13  1  0
 13 14  2  0
 14 15  1  0
 15 16  2  0
 16 17  1  0
 17 18  1  0
 18 19  1  0
 19 20  1  0
 17 21  1  0
 21 22  1  0
 22 23  1  0
 16 24  1  0
 24 25  2  0
  8 26  1  0
 26 27  2  0
 27  5  1  0
 25 13  1  0
  1 28  1  0
  1 29  1  0
  1 30  1  0
  6 31  1  0
  7 32  1  0
  9 33  1  0
 14 34  1  0
 15 35  1  0
 18 36  1  0
 18 37  1  0
 19 38  1  0
 19 39  1  0
 21 40  1  0
 21 41  1  0
 22 42  1  0
 22 43  1  0
 24 44  1  0
 25 45  1  0
 26 46  1  0
 27 47  1  0
M  CHG  2   4  -1  12  -1
M  END
>  <UniqueID>  (28) 
27

>  <SMILES>  (28) 
CC(=O)[N-]c1ccc(NC(=O)[N-]c2ccc(N(CCCl)CCCl)cc2)cc1

>  <Energy>  (28) 
53.952644857487876

>  <Genealogy>  (28) 
CC(=O)[N-]c1ccc(NC(=O)[N-]c2ccc(N(CCCl)CCCl)cc2)cc1 (protonated)
CC(=O)[N-]c1ccc(NC(=O)[N-]c2ccc(N(CCCl)CCCl)cc2)cc1 (3D coordinates assigned)
CC(=O)[N-]c1ccc(NC(=O)[N-]c2ccc(N(CCCl)CCCl)cc2)cc1 (optimized conformer: 53.952644857487876 kcal/mol)

>  <smiles>  (28) 
CC(=O)Nc1ccc(NC(=O)Nc2ccc(N(CCCl)CCCl)cc2)cc1

>  <score_type>  (28) 
oracle

>  <origin>  (28) 
adg

>  <m_score__min__energy>  (28) 
-10.98

>  <m_primary>  (28) 
energy

$$$$
28:0
     RDKit          3D

 48 51  0  0  0  0  0  0  0  0999 V2000
   55.8950   22.9860   42.9820 C   0  0  0  0  0  0  0  0  0  0  0  0
   56.9660   23.9630   43.4680 C   0  0  0  0  0  0  0  0  0  0  0  0
   58.0000   23.2900   44.2830 N   0  0  0  0  0  0  0  0  0  0  0  0
   57.9430   21.8310   44.0940 C   0  0  0  0  0  0  0  0  0  0  0  0
   58.0060   23.6650   45.7190 C   0  0  0  0  0  0  0  0  0  0  0  0
   58.8660   24.9000   46.0560 C   0  0  0  0  0  0  0  0  0  0  0  0
   58.0560   26.1510   45.9080 C   0  0  0  0  0  0  0  0  0  0  0  0
   56.6790   26.2540   45.8760 C   0  0  0  0  0  0  0  0  0  0  0  0
   56.3390   27.5380   45.6430 N   0  0  0  0  0  0  0  0  0  0  0  0
   57.4600   28.2350   45.5200 N   0  0  0  0  0  0  0  0  0  0  0  0
   57.4960   29.6420   45.2550 C   0  0  0  0  0  0  0  0  0  0  0  0
   56.9640   30.1390   44.1050 N   0  0  0  0  0  0  0  0  0  0  0  0
   56.9890   31.4690   43.8380 C   0  0  0  0  0  0  0  0  0  0  0  0
   57.5800   32.3540   44.7450 C   0  0  0  0  0  0  0  0  0  0  0  0
   58.1110   31.8300   45.9340 C   0  0  0  0  0  0  0  0  0  0  0  0
   58.0600   30.4890   46.1570 N   0  0  0  0  0  0  0  0  0  0  0  0
   58.7350   32.7380   46.9230 C   0  0  0  0  0  0  0  0  0  0  0  0
   59.0460   32.2990   48.2210 C   0  0  0  0  0  0  0  0  0  0  0  0
   59.6240   33.1760   49.1430 C   0  0  0  0  0  0  0  0  0  0  0  0
   59.9040   34.4940   48.7760 C   0  0  0  0  0  0  0  0  0  0  0  0
   59.6060   34.9420   47.4870 C   0  0  0  0  0  0  0  0  0  0  0  0
   59.0070   34.0760   46.5590 C   0  0  0  0  0  0  0  0  0  0  0  0
   58.7660   34.5360   45.1400 C   0  0  0  0  0  0  0  0  0  0  0  0
   57.5450   33.8440   44.5170 C   0  0  0  0  0  0  0  0  0  0  0  0
   58.5260   27.4230   45.6660 C   0  0  0  0  0  0  0  0  0  0  0  0
   55.3946   22.5295   43.8488 H   0  0  0  0  0  0  0  0  0  0  0  0
   55.1546   23.5263   42.3738 H   0  0  0  0  0  0  0  0  0  0  0  0
   56.3652   22.1992   42.3738 H   0  0  0  0  0  0  0  0  0  0  0  0
   57.4479   24.4255   42.5940 H   0  0  0  0  0  0  0  0  0  0  0  0
   56.4754   24.7195   44.0982 H   0  0  0  0  0  0  0  0  0  0  0  0
   57.9236   21.3346   45.0754 H   0  0  0  0  0  0  0  0  0  0  0  0
   57.0339   21.5692   43.5327 H   0  0  0  0  0  0  0  0  0  0  0  0
   58.8289   21.4991   43.5327 H   0  0  0  0  0  0  0  0  0  0  0  0
   56.9700   23.8749   46.0232 H   0  0  0  0  0  0  0  0  0  0  0  0
   58.4513   22.8176   46.2608 H   0  0  0  0  0  0  0  0  0  0  0  0
   59.2254   24.8205   47.0926 H   0  0  0  0  0  0  0  0  0  0  0  0
   59.7202   24.9418   45.3642 H   0  0  0  0  0  0  0  0  0  0  0  0
   55.9731   25.4223   46.0178 H   0  0  0  0  0  0  0  0  0  0  0  0
   56.5441   31.8513   42.9075 H   0  0  0  0  0  0  0  0  0  0  0  0
   58.8335   31.2600   48.5129 H   0  0  0  0  0  0  0  0  0  0  0  0
   59.8588   32.8275   50.1596 H   0  0  0  0  0  0  0  0  0  0  0  0
   60.3603   35.1810   49.5038 H   0  0  0  0  0  0  0  0  0  0  0  0
   59.8416   35.9770   47.1982 H   0  0  0  0  0  0  0  0  0  0  0  0
   58.5971   35.6230   45.1417 H   0  0  0  0  0  0  0  0  0  0  0  0
   59.6505   34.2748   44.5405 H   0  0  0  0  0  0  0  0  0  0  0  0
   56.6310   34.2540   44.9713 H   0  0  0  0  0  0  0  0  0  0  0  0
   57.5590   34.0283   43.4326 H   0  0  0  0  0  0  0  0  0  0  0  0
   59.5825   27.7226   45.6031 H   0  0  0  0  0  0  0  0  0  0  0  0
  1  2  1  0
  2  3  1  0
  3  4  1  0
  3  5  1  0
  5  6  1  0
  6  7  1  0
  7  8  1  0
  8  9  2  0
  9 10  1  0
 10 11  1  0
 11 12  2  0
 12 13  1  0
 13 14  2  0
 14 15  1  0
 15 16  2  0
 15 17  1  0
 17 18  2  0
 18 19  1  0
 19 20  2  0
 20 21  1  0
 21 22  2  0
 22 23  1  0
 23 24  1  0
 10 25  1  0
 25  7  2  0
 16 11  1  0
 22 17  1  0
 24 14  1  0
  1 26  1  0
  1 27  1  0
  1 28  1  0
  2 29  1  0
  2 30  1  0
  4 31  1  0
  4 32  1  0
  4 33  1  0
  5 34  1  0
  5 35  1  0
  6 36  1  0
  6 37  1  0
  8 38  1  0
 13 39  1  0
 18 40  1  0
 19 41  1  0
 20 42  1  0
 21 43  1  0
 23 44  1  0
 23 45  1  0
 24 46  1  0
 24 47  1  0
 25 48  1  0
M  END
>  <UniqueID>  (29) 
28

>  <SMILES>  (29) 
CCN(C)CCc1cnn(-c2ncc3c(n2)-c2ccccc2CC3)c1

>  <Energy>  (29) 
85.56421622464684

>  <Genealogy>  (29) 
CCN(C)CCc1cnn(-c2ncc3c(n2)-c2ccccc2CC3)c1 (3D coordinates assigned)
CCN(C)CCc1cnn(-c2ncc3c(n2)-c2ccccc2CC3)c1 (nonaromatic ring conformer: 85.56421622464684 kcal/mol)

>  <smiles>  (29) 
CCN(C)CCc1cnn(-c2ncc3c(n2)-c2ccccc2CC3)c1

>  <score_type>  (29) 
oracle

>  <origin>  (29) 
adg

>  <m_score__min__energy>  (29) 
-8.1300000000000008

>  <m_primary>  (29) 
energy

$$$$
29:0
     RDKit          3D

 43 44  0  0  0  0  0  0  0  0999 V2000
   59.2920   22.3770   44.8830 C   0  0  0  0  0  0  0  0  0  0  0  0
   57.8820   22.0350   44.4090 C   0  0  0  0  0  0  0  0  0  0  0  0
   56.9360   23.1080   44.7940 N   0  0  0  0  0  0  0  0  0  0  0  0
   56.4610   23.8530   43.6050 C   0  0  0  0  0  0  0  0  0  0  0  0
   57.3900   25.0280   43.3100 C   0  0  0  0  0  0  0  0  0  0  0  0
   55.8010   22.5640   45.5750 C   0  0  0  0  0  0  0  0  0  0  0  0
   55.1610   23.6700   46.4150 C   0  0  0  0  0  0  0  0  0  0  0  0
   56.1900   24.4100   47.1420 N   0  0  0  0  0  0  0  0  0  0  0  0
   56.8980   25.5300   46.5910 C   0  0  0  0  0  0  0  0  0  0  0  0
   58.2640   25.4910   46.5470 N   0  0  0  0  0  0  0  0  0  0  0  0
   58.9890   26.4970   46.0430 N   0  0  0  0  0  0  0  0  0  0  0  0
   60.3630   26.3960   46.0330 O   0  0  0  0  0  0  0  0  0  0  0  0
   58.3540   27.5950   45.5470 C   0  0  0  0  0  0  0  0  0  0  0  0
   58.9360   28.7460   44.9710 C   0  0  0  0  0  0  0  0  0  0  0  0
   60.4160   28.9660   44.8150 C   0  0  0  0  0  0  0  0  0  0  0  0
   57.9600   29.6640   44.5470 C   0  0  0  0  0  0  0  0  0  0  0  0
   58.2070   30.9840   43.8890 C   0  0  0  0  0  0  0  0  0  0  0  0
   56.4150   29.0560   44.8830 S   0  0  0  0  0  0  0  0  0  0  0  0
   56.9760   27.6330   45.5710 C   0  0  0  0  0  0  0  0  0  0  0  0
   56.2400   26.6150   46.0750 N   0  0  0  0  0  0  0  0  0  0  0  0
   54.8660   26.6580   45.9970 O   0  0  0  0  0  0  0  0  0  0  0  0
   59.3177   22.3832   45.9827 H   0  0  0  0  0  0  0  0  0  0  0  0
   59.9989   21.6243   44.5040 H   0  0  0  0  0  0  0  0  0  0  0  0
   59.5755   23.3700   44.5040 H   0  0  0  0  0  0  0  0  0  0  0  0
   57.8832   21.9278   43.3142 H   0  0  0  0  0  0  0  0  0  0  0  0
   57.5650   21.0926   44.8795 H   0  0  0  0  0  0  0  0  0  0  0  0
   56.4432   23.1777   42.7369 H   0  0  0  0  0  0  0  0  0  0  0  0
   55.4498   24.2376   43.8041 H   0  0  0  0  0  0  0  0  0  0  0  0
   57.7374   25.4674   44.2567 H   0  0  0  0  0  0  0  0  0  0  0  0
   58.2555   24.6746   42.7304 H   0  0  0  0  0  0  0  0  0  0  0  0
   56.8464   25.7886   42.7304 H   0  0  0  0  0  0  0  0  0  0  0  0
   55.0502   22.1506   44.8855 H   0  0  0  0  0  0  0  0  0  0  0  0
   56.1714   21.7733   46.2441 H   0  0  0  0  0  0  0  0  0  0  0  0
   54.6162   24.3597   45.7535 H   0  0  0  0  0  0  0  0  0  0  0  0
   54.4668   23.2162   47.1376 H   0  0  0  0  0  0  0  0  0  0  0  0
   56.2560   24.2520   48.1740 H   0  0  0  0  0  0  0  0  0  0  0  0
   60.8260   25.5730   46.4010 H   0  0  0  0  0  0  0  0  0  0  0  0
   60.8831   29.0354   45.8085 H   0  0  0  0  0  0  0  0  0  0  0  0
   60.8556   28.1233   44.2612 H   0  0  0  0  0  0  0  0  0  0  0  0
   60.5915   29.9001   44.2612 H   0  0  0  0  0  0  0  0  0  0  0  0
   58.3515   31.7562   44.6590 H   0  0  0  0  0  0  0  0  0  0  0  0
   59.1084   30.9182   43.2620 H   0  0  0  0  0  0  0  0  0  0  0  0
   57.3428   31.2486   43.2620 H   0  0  0  0  0  0  0  0  0  0  0  0
  1  2  1  0
  2  3  1  0
  3  4  1  0
  4  5  1  0
  3  6  1  0
  6  7  1  0
  7  8  1  0
  8  9  1  0
  9 10  2  0
 10 11  1  0
 11 12  1  0
 11 13  2  0
 13 14  1  0
 14 15  1  0
 14 16  2  0
 16 17  1  0
 16 18  1  0
 18 19  1  0
 19 20  2  0
 20 21  1  0
 20  9  1  0
 19 13  1  0
  1 22  1  0
  1 23  1  0
  1 24  1  0
  2 25  1  0
  2 26  1  0
  4 27  1  0
  4 28  1  0
  5 29  1  0
  5 30  1  0
  5 31  1  0
  6 32  1  0
  6 33  1  0
  7 34  1  0
  7 35  1  0
  8 36  1  0
 12 37  1  0
 15 38  1  0
 15 39  1  0
 15 40  1  0
 17 41  1  0
 17 42  1  0
 17 43  1  0
M  CHG  3  11   1  20   1  21  -1
M  END
>  <UniqueID>  (30) 
29

>  <SMILES>  (30) 
CCN(CC)CCNc1n[n+](O)c2c(C)c(C)sc2[n+]1[O-]

>  <Energy>  (30) 
76.17665065708341

>  <Genealogy>  (30) 
CCN(CC)CCNc1n[n+](O)c2c(C)c(C)sc2[n+]1[O-] (protonated)
CCN(CC)CCNc1n[n+](O)c2c(C)c(C)sc2[n+]1[O-] (3D coordinates assigned)
CCN(CC)CCNc1n[n+](O)c2c(C)c(C)sc2[n+]1[O-] (optimized conformer: 76.17665065708341 kcal/mol)

>  <smiles>  (30) 
CCN(CC)CCNc1n[n+]([O-])c2c(C)c(C)sc2[n+]1[O-]

>  <score_type>  (30) 
oracle

>  <origin>  (30) 
adg

>  <m_score__min__energy>  (30) 
-6.3899999999999997

>  <m_primary>  (30) 
energy

$$$$
30:0
     RDKit          3D

 24 24  0  0  0  0  0  0  0  0999 V2000
   59.6620   34.5230   48.0880 C   0  0  0  0  0  0  0  0  0  0  0  0
   58.8520   34.7320   46.9370 O   0  0  0  0  0  0  0  0  0  0  0  0
   58.4360   33.7150   46.0650 C   0  0  0  0  0  0  0  0  0  0  0  0
   58.2040   33.9430   44.6940 C   0  0  0  0  0  0  0  0  0  0  0  0
   57.7900   32.8960   43.8670 C   0  0  0  0  0  0  0  0  0  0  0  0
   57.6060   31.6070   44.3900 C   0  0  0  0  0  0  0  0  0  0  0  0
   57.1360   30.4820   43.5040 C   0  0  0  0  0  0  0  0  0  0  0  0
   56.8460   29.2020   44.3060 C   0  0  0  0  0  0  0  0  0  0  0  0
   55.4960   29.1960   44.8710 N   0  0  0  0  0  0  0  0  0  0  0  0
   57.8310   31.3830   45.7570 C   0  0  0  0  0  0  0  0  0  0  0  0
   58.2450   32.4290   46.5850 C   0  0  0  0  0  0  0  0  0  0  0  0
   59.0584   34.6787   48.9943 H   0  0  0  0  0  0  0  0  0  0  0  0
   60.0525   33.4947   48.0797 H   0  0  0  0  0  0  0  0  0  0  0  0
   60.5013   35.2340   48.0797 H   0  0  0  0  0  0  0  0  0  0  0  0
   58.3494   34.9490   44.2734 H   0  0  0  0  0  0  0  0  0  0  0  0
   57.6070   33.0833   42.7986 H   0  0  0  0  0  0  0  0  0  0  0  0
   56.2156   30.7954   42.9897 H   0  0  0  0  0  0  0  0  0  0  0  0
   57.9368   30.2585   42.7838 H   0  0  0  0  0  0  0  0  0  0  0  0
   56.9544   28.3341   43.6389 H   0  0  0  0  0  0  0  0  0  0  0  0
   57.5610   29.1580   45.1408 H   0  0  0  0  0  0  0  0  0  0  0  0
   55.1500   28.2110   44.9210 H   0  0  0  0  0  0  0  0  0  0  0  0
   55.5300   29.5770   45.8450 H   0  0  0  0  0  0  0  0  0  0  0  0
   57.6805   30.3783   46.1787 H   0  0  0  0  0  0  0  0  0  0  0  0
   58.4224   32.2410   47.6542 H   0  0  0  0  0  0  0  0  0  0  0  0
  1  2  1  0
  2  3  1  0
  3  4  2  0
  4  5  1  0
  5  6  2  0
  6  7  1  0
  7  8  1  0
  8  9  1  0
  6 10  1  0
 10 11  2  0
 11  3  1  0
  1 12  1  0
  1 13  1  0
  1 14  1  0
  4 15  1  0
  5 16  1  0
  7 17  1  0
  7 18  1  0
  8 19  1  0
  8 20  1  0
  9 21  1  0
  9 22  1  0
 10 23  1  0
 11 24  1  0
M  END
>  <UniqueID>  (31) 
30

>  <SMILES>  (31) 
COc1ccc(CCN)cc1

>  <Energy>  (31) 
18.323771245399552

>  <Genealogy>  (31) 
COc1ccc(CCN)cc1 (3D coordinates assigned)
COc1ccc(CCN)cc1 (optimized conformer: 18.323771245399552 kcal/mol)

>  <smiles>  (31) 
COc1ccc(CCN)cc1

>  <score_type>  (31) 
oracle

>  <origin>  (31) 
adg

>  <m_score__min__energy>  (31) 
-5.2300000000000004

>  <m_primary>  (31) 
energy

$$$$
31:0
     RDKit          3D

 36 38  0  0  0  0  0  0  0  0999 V2000
   60.0590   33.1240   49.6550 C   0  0  0  0  0  0  0  0  0  0  0  0
   61.1300   34.2080   49.6390 C   0  0  0  0  0  0  0  0  0  0  0  0
   62.4360   33.6270   49.3280 N   0  0  0  0  0  0  0  0  0  0  0  0
   63.3790   33.2750   50.2230 C   0  0  0  0  0  0  0  0  0  0  0  0
   64.4430   32.7240   49.5400 C   0  0  0  0  0  0  0  0  0  0  0  0
   64.1560   32.7220   48.2250 N   0  0  0  0  0  0  0  0  0  0  0  0
   62.9260   33.2630   48.1220 C   0  0  0  0  0  0  0  0  0  0  0  0
   62.2420   33.5070   46.8070 C   0  0  0  0  0  0  0  0  0  0  0  0
   61.0660   32.6460   46.6790 N   0  0  0  0  0  0  0  0  0  0  0  0
   59.8640   33.0620   46.0060 C   0  0  0  0  0  0  0  0  0  0  0  0
   59.6720   34.4210   45.6980 C   0  0  0  0  0  0  0  0  0  0  0  0
   58.5290   34.8460   45.0190 C   0  0  0  0  0  0  0  0  0  0  0  0
   57.5570   33.9240   44.6340 C   0  0  0  0  0  0  0  0  0  0  0  0
   57.7170   32.5660   44.9360 C   0  0  0  0  0  0  0  0  0  0  0  0
   56.7360   31.6360   44.5650 C   0  0  0  0  0  0  0  0  0  0  0  0
   56.8830   30.3230   44.8840 N   0  0  0  0  0  0  0  0  0  0  0  0
   57.9680   29.8710   45.5630 C   0  0  0  0  0  0  0  0  0  0  0  0
   58.9760   30.7540   45.9530 C   0  0  0  0  0  0  0  0  0  0  0  0
   58.8710   32.1210   45.6300 C   0  0  0  0  0  0  0  0  0  0  0  0
   59.8090   32.8709   50.6959 H   0  0  0  0  0  0  0  0  0  0  0  0
   59.1586   33.4906   49.1403 H   0  0  0  0  0  0  0  0  0  0  0  0
   60.4364   32.2281   49.1403 H   0  0  0  0  0  0  0  0  0  0  0  0
   60.8756   34.9582   48.8758 H   0  0  0  0  0  0  0  0  0  0  0  0
   61.1757   34.6804   50.6313 H   0  0  0  0  0  0  0  0  0  0  0  0
   63.3119   33.4049   51.3132 H   0  0  0  0  0  0  0  0  0  0  0  0
   65.3718   32.3486   49.9944 H   0  0  0  0  0  0  0  0  0  0  0  0
   64.7670   32.3790   47.4510 H   0  0  0  0  0  0  0  0  0  0  0  0
   61.9287   34.5599   46.7508 H   0  0  0  0  0  0  0  0  0  0  0  0
   62.9434   33.2785   45.9910 H   0  0  0  0  0  0  0  0  0  0  0  0
   61.0970   31.7120   47.1440 H   0  0  0  0  0  0  0  0  0  0  0  0
   60.4322   35.1581   45.9960 H   0  0  0  0  0  0  0  0  0  0  0  0
   58.3947   35.9128   44.7868 H   0  0  0  0  0  0  0  0  0  0  0  0
   56.6623   34.2639   44.0918 H   0  0  0  0  0  0  0  0  0  0  0  0
   55.8444   31.9699   44.0140 H   0  0  0  0  0  0  0  0  0  0  0  0
   58.0533   28.8019   45.8074 H   0  0  0  0  0  0  0  0  0  0  0  0
   59.8491   30.3838   46.5104 H   0  0  0  0  0  0  0  0  0  0  0  0
  1  2  1  0
  2  3  1  0
  3  4  1  0
  4  5  2  0
  5  6  1  0
  6  7  2  0
  7  8  1  0
  8  9  1  0
  9 10  1  0
 10 11  2  0
 11 12  1  0
 12 13  2  0
 13 14  1  0
 14 15  2  0
 15 16  1  0
 16 17  2  0
 17 18  1  0
 18 19  2  0
  7  3  1  0
 19 10  1  0
 19 14  1  0
  1 20  1  0
  1 21  1  0
  1 22  1  0
  2 23  1  0
  2 24  1  0
  4 25  1  0
  5 26  1  0
  6 27  1  0
  8 28  1  0
  8 29  1  0
  9 30  1  0
 11 31  1  0
 12 32  1  0
 13 33  1  0
 15 34  1  0
 17 35  1  0
 18 36  1  0
M  CHG  1   6   1
M  END
>  <UniqueID>  (32) 
31

>  <SMILES>  (32) 
CCn1cc[nH+]c1CNc1cccc2cnccc12

>  <Energy>  (32) 
70.34915603628222

>  <Genealogy>  (32) 
CCn1cc[nH+]c1CNc1cccc2cnccc12 (protonated)
CCn1cc[nH+]c1CNc1cccc2cnccc12 (3D coordinates assigned)
CCn1cc[nH+]c1CNc1cccc2cnccc12 (optimized conformer: 70.34915603628222 kcal/mol)

>  <smiles>  (32) 
CCn1ccnc1CNc1cccc2cnccc12

>  <score_type>  (32) 
oracle

>  <origin>  (32) 
adg

>  <m_score__min__energy>  (32) 
-5.21

>  <m_primary>  (32) 
energy

$$$$
32:0
     RDKit          3D

 27 29  0  0  0  0  0  0  0  0999 V2000
   60.0010   34.7220   46.7410 C   0  0  0  0  0  0  0  0  0  0  0  0
   58.9350   33.9840   46.0780 N   0  0  0  0  0  0  0  0  0  0  0  0
   57.7920   34.5210   45.6580 N   0  0  0  0  0  0  0  0  0  0  0  0
   57.0140   33.5240   45.1620 C   0  0  0  0  0  0  0  0  0  0  0  0
   57.7010   32.3350   45.2970 C   0  0  0  0  0  0  0  0  0  0  0  0
   57.4150   31.0130   45.0090 C   0  0  0  0  0  0  0  0  0  0  0  0
   56.3050   30.6920   44.5010 O   0  0  0  0  0  0  0  0  0  0  0  0
   58.3700   30.0700   45.3190 N   0  0  0  0  0  0  0  0  0  0  0  0
   58.1450   28.6730   45.0420 C   0  0  0  0  0  0  0  0  0  0  0  0
   57.6720   27.8100   46.0450 C   0  0  0  0  0  0  0  0  0  0  0  0
   57.4430   26.4600   45.7640 C   0  0  0  0  0  0  0  0  0  0  0  0
   57.6790   25.9610   44.4790 C   0  0  0  0  0  0  0  0  0  0  0  0
   57.3890   24.2670   44.1280 Cl  0  0  0  0  0  0  0  0  0  0  0  0
   58.1410   26.8150   43.4720 C   0  0  0  0  0  0  0  0  0  0  0  0
   58.3700   28.1660   43.7510 C   0  0  0  0  0  0  0  0  0  0  0  0
   59.5280   30.4440   45.9030 N   0  0  0  0  0  0  0  0  0  0  0  0
   59.7950   31.7260   46.1850 N   0  0  0  0  0  0  0  0  0  0  0  0
   58.8740   32.6600   45.8700 C   0  0  0  0  0  0  0  0  0  0  0  0
   59.8812   34.6391   47.8313 H   0  0  0  0  0  0  0  0  0  0  0  0
   60.9748   34.3038   46.4463 H   0  0  0  0  0  0  0  0  0  0  0  0
   59.9523   35.7807   46.4463 H   0  0  0  0  0  0  0  0  0  0  0  0
   56.0104   33.6438   44.7280 H   0  0  0  0  0  0  0  0  0  0  0  0
   57.4810   28.1987   47.0562 H   0  0  0  0  0  0  0  0  0  0  0  0
   57.0766   25.7890   46.5549 H   0  0  0  0  0  0  0  0  0  0  0  0
   58.3242   26.4237   42.4604 H   0  0  0  0  0  0  0  0  0  0  0  0
   58.7283   28.8356   42.9553 H   0  0  0  0  0  0  0  0  0  0  0  0
   60.2540   29.7290   46.1370 H   0  0  0  0  0  0  0  0  0  0  0  0
  1  2  1  0
  2  3  1  0
  3  4  2  0
  4  5  1  0
  5  6  1  0
  6  7  2  0
  6  8  1  0
  8  9  1  0
  9 10  2  0
 10 11  1  0
 11 12  2  0
 12 13  1  0
 12 14  1  0
 14 15  2  0
  8 16  1  0
 16 17  2  0
 17 18  1  0
 18  2  1  0
 18  5  2  0
 15  9  1  0
  1 19  1  0
  1 20  1  0
  1 21  1  0
  4 22  1  0
 10 23  1  0
 11 24  1  0
 14 25  1  0
 15 26  1  0
 16 27  1  0
M  CHG  1  16   1
M  END
>  <UniqueID>  (33) 
32

>  <SMILES>  (33) 
Cn1ncc2c(=O)n(-c3ccc(Cl)cc3)[nH+]nc21

>  <Energy>  (33) 
78.8186245388599

>  <Genealogy>  (33) 
Cn1ncc2c(=O)n(-c3ccc(Cl)cc3)[nH+]nc21 (protonated)
Cn1ncc2c(=O)n(-c3ccc(Cl)cc3)[nH+]nc21 (3D coordinates assigned)
Cn1ncc2c(=O)n(-c3ccc(Cl)cc3)[nH+]nc21 (optimized conformer: 78.8186245388599 kcal/mol)

>  <smiles>  (33) 
Cn1ncc2c(=O)n(-c3ccc(Cl)cc3)nnc21

>  <score_type>  (33) 
oracle

>  <origin>  (33) 
adg

>  <m_score__min__energy>  (33) 
-5.4900000000000002

>  <m_primary>  (33) 
energy

$$$$
33:0
     RDKit          3D

 53 55  0  0  0  0  0  0  0  0999 V2000
   62.2390   30.3420   51.1080 H   0  0  0  0  0  0  0  0  0  0  0  0
   62.0250   29.6000   50.4090 N   0  0  0  0  0  0  0  0  0  0  0  0
   61.1730   29.7250   49.4400 C   0  0  0  0  0  0  0  0  0  0  0  0
   59.7380   28.8380   49.3840 S   0  0  0  0  0  0  0  0  0  0  0  0
   59.2940   29.5110   47.9140 C   0  0  0  0  0  0  0  0  0  0  0  0
   58.1490   29.2490   47.1690 C   0  0  0  0  0  0  0  0  0  0  0  0
   57.3972   28.5328   47.5321 H   0  0  0  0  0  0  0  0  0  0  0  0
   57.9690   29.9140   45.9460 C   0  0  0  0  0  0  0  0  0  0  0  0
   56.8070   29.6340   45.2090 O   0  0  0  0  0  0  0  0  0  0  0  0
   56.7600   29.3440   43.8120 C   0  0  0  0  0  0  0  0  0  0  0  0
   57.6664   28.7892   43.5279 H   0  0  0  0  0  0  0  0  0  0  0  0
   55.8629   28.7416   43.6064 H   0  0  0  0  0  0  0  0  0  0  0  0
   56.6840   30.6290   42.9960 C   0  0  0  0  0  0  0  0  0  0  0  0
   56.6329   31.4924   43.6756 H   0  0  0  0  0  0  0  0  0  0  0  0
   57.5787   30.7140   42.3617 H   0  0  0  0  0  0  0  0  0  0  0  0
   55.7855   30.6080   42.3617 H   0  0  0  0  0  0  0  0  0  0  0  0
   58.9520   30.8380   45.5080 C   0  0  0  0  0  0  0  0  0  0  0  0
   58.8137   31.3666   44.5533 H   0  0  0  0  0  0  0  0  0  0  0  0
   60.0990   31.0860   46.2780 C   0  0  0  0  0  0  0  0  0  0  0  0
   60.8580   31.8022   45.9302 H   0  0  0  0  0  0  0  0  0  0  0  0
   60.2670   30.4100   47.4970 C   0  0  0  0  0  0  0  0  0  0  0  0
   61.3300   30.5440   48.3540 N   0  0  0  0  0  0  0  0  0  0  0  0
   62.4760   31.4380   48.1110 C   0  0  0  0  0  0  0  0  0  0  0  0
   63.3877   30.8304   48.0130 H   0  0  0  0  0  0  0  0  0  0  0  0
   62.2794   32.0050   47.1891 H   0  0  0  0  0  0  0  0  0  0  0  0
   62.6670   32.4410   49.2590 C   0  0  0  0  0  0  0  0  0  0  0  0
   62.3638   31.9608   50.2010 H   0  0  0  0  0  0  0  0  0  0  0  0
   63.7279   32.7313   49.2760 H   0  0  0  0  0  0  0  0  0  0  0  0
   61.8360   33.7200   49.0680 C   0  0  0  0  0  0  0  0  0  0  0  0
   61.9982   34.3814   49.9318 H   0  0  0  0  0  0  0  0  0  0  0  0
   62.1608   34.2003   48.1332 H   0  0  0  0  0  0  0  0  0  0  0  0
   60.3880   33.4280   48.9540 N   0  0  0  0  0  0  0  0  0  0  0  0
   59.6450   34.6000   48.4380 C   0  0  0  0  0  0  0  0  0  0  0  0
   58.8578   34.8725   49.1564 H   0  0  0  0  0  0  0  0  0  0  0  0
   60.3502   35.4340   48.3070 H   0  0  0  0  0  0  0  0  0  0  0  0
   59.0120   34.2900   47.1060 C   0  0  0  0  0  0  0  0  0  0  0  0
   57.7280   33.7240   47.0550 C   0  0  0  0  0  0  0  0  0  0  0  0
   57.1910   33.4979   47.9880 H   0  0  0  0  0  0  0  0  0  0  0  0
   57.1300   33.4470   45.8220 C   0  0  0  0  0  0  0  0  0  0  0  0
   56.1248   33.0016   45.7870 H   0  0  0  0  0  0  0  0  0  0  0  0
   57.8070   33.7350   44.6340 C   0  0  0  0  0  0  0  0  0  0  0  0
   57.3346   33.5173   43.6647 H   0  0  0  0  0  0  0  0  0  0  0  0
   59.0850   34.3000   44.6780 C   0  0  0  0  0  0  0  0  0  0  0  0
   59.6178   34.5262   43.7426 H   0  0  0  0  0  0  0  0  0  0  0  0
   59.6870   34.5780   45.9090 C   0  0  0  0  0  0  0  0  0  0  0  0
   60.6922   35.0236   45.9397 H   0  0  0  0  0  0  0  0  0  0  0  0
   59.7720   32.8520   50.1800 C   0  0  0  0  0  0  0  0  0  0  0  0
   60.4819   32.1321   50.6134 H   0  0  0  0  0  0  0  0  0  0  0  0
   59.5537   33.7013   50.8441 H   0  0  0  0  0  0  0  0  0  0  0  0
   58.4370   32.1280   49.9530 C   0  0  0  0  0  0  0  0  0  0  0  0
   57.9835   31.8820   50.9245 H   0  0  0  0  0  0  0  0  0  0  0  0
   57.7574   32.7812   49.3859 H   0  0  0  0  0  0  0  0  0  0  0  0
   58.6138   31.2021   49.3859 H   0  0  0  0  0  0  0  0  0  0  0  0
  1  2  1  0
  2  3  2  0
  3  4  1  0
  4  5  1  0
  5  6  2  0
  6  7  1  0
  6  8  1  0
  8  9  1  0
  9 10  1  0
 10 11  1  0
 10 12  1  0
 10 13  1  0
 13 14  1  0
 13 15  1  0
 13 16  1  0
  8 17  2  0
 17 18  1  0
 17 19  1  0
 19 20  1  0
 19 21  2  0
 21 22  1  0
 22 23  1  0
 23 24  1  0
 23 25  1  0
 23 26  1  0
 26 27  1  0
 26 28  1  0
 26 29  1  0
 29 30  1  0
 29 31  1  0
 29 32  1  0
 32 33  1  0
 33 34  1  0
 33 35  1  0
 33 36  1  0
 36 37  2  0
 37 38  1  0
 37 39  1  0
 39 40  1  0
 39 41  2  0
 41 42  1  0
 41 43  1  0
 43 44  1  0
 43 45  2  0
 45 46  1  0
 32 47  1  0
 47 48  1  0
 47 49  1  0
 47 50  1  0
 50 51  1  0
 50 52  1  0
 50 53  1  0
 22  3  1  0
 45 36  1  0
 21  5  1  0
M  END
>  <UniqueID>  (34) 
33

>  <SMILES>  (34) 
[H]/N=c1/sc2cc(OCC)ccc2n1CCCN(CC)Cc1ccccc1

>  <Energy>  (34) 
91.61173870985523

>  <Genealogy>  (34) 
[H]/N=c1/sc2cc(OCC)ccc2n1CCCN(CC)Cc1ccccc1 (cis-trans isomerization)
[H]/N=c1/sc2cc(OCC)ccc2n1CCCN(CC)Cc1ccccc1 (3D coordinates assigned)
[H]/N=c1/sc2cc(OCC)ccc2n1CCCN(CC)Cc1ccccc1 (optimized conformer: 91.61173870985523 kcal/mol)

>  <smiles>  (34) 
CCOc1ccc2c(c1)sc(=N)n2CCCN(CC)Cc1ccccc1

>  <score_type>  (34) 
oracle

>  <origin>  (34) 
adg

>  <m_score__min__energy>  (34) 
-7.1600000000000001

>  <m_primary>  (34) 
energy

$$$$
34:0
     RDKit          3D

 39 40  0  0  0  0  0  0  0  0999 V2000
   55.3650   24.9570   45.6430 C   0  0  0  0  0  0  0  0  0  0  0  0
   55.8750   26.1070   46.3100 O   0  0  0  0  0  0  0  0  0  0  0  0
   56.8850   26.9420   45.8020 C   0  0  0  0  0  0  0  0  0  0  0  0
   56.6030   28.2300   45.3040 C   0  0  0  0  0  0  0  0  0  0  0  0
   57.6280   29.0350   44.7900 C   0  0  0  0  0  0  0  0  0  0  0  0
   57.2590   30.6340   44.1370 S   0  0  0  0  0  0  0  0  0  0  0  0
   55.8940   31.0570   44.6030 O   0  0  0  0  0  0  0  0  0  0  0  0
   57.2360   30.5630   42.6350 O   0  0  0  0  0  0  0  0  0  0  0  0
   58.4390   31.8230   44.6400 N   0  0  0  0  0  0  0  0  0  0  0  0
   58.1080   33.1490   44.0800 C   0  0  0  0  0  0  0  0  0  0  0  0
   58.8080   34.2620   44.8660 C   0  0  0  0  0  0  0  0  0  0  0  0
   58.3330   34.3110   46.2680 N   0  0  0  0  0  0  0  0  0  0  0  0
   59.3390   34.9460   47.1320 C   0  0  0  0  0  0  0  0  0  0  0  0
   57.9130   32.9910   46.8030 C   0  0  0  0  0  0  0  0  0  0  0  0
   58.6320   31.8200   46.1100 C   0  0  0  0  0  0  0  0  0  0  0  0
   58.9440   28.5600   44.7860 C   0  0  0  0  0  0  0  0  0  0  0  0
   59.2350   27.2880   45.2810 C   0  0  0  0  0  0  0  0  0  0  0  0
   58.2120   26.4720   45.7900 C   0  0  0  0  0  0  0  0  0  0  0  0
   58.5330   25.1000   46.3140 C   0  0  0  0  0  0  0  0  0  0  0  0
   55.0367   24.2168   46.3875 H   0  0  0  0  0  0  0  0  0  0  0  0
   54.5111   25.2470   45.0131 H   0  0  0  0  0  0  0  0  0  0  0  0
   56.1532   24.5188   45.0131 H   0  0  0  0  0  0  0  0  0  0  0  0
   55.5695   28.6063   45.3190 H   0  0  0  0  0  0  0  0  0  0  0  0
   58.4344   33.1888   43.0303 H   0  0  0  0  0  0  0  0  0  0  0  0
   57.0205   33.2992   44.1490 H   0  0  0  0  0  0  0  0  0  0  0  0
   59.8923   34.0767   44.8612 H   0  0  0  0  0  0  0  0  0  0  0  0
   58.5757   35.2245   44.3868 H   0  0  0  0  0  0  0  0  0  0  0  0
   59.0745   34.7791   48.1866 H   0  0  0  0  0  0  0  0  0  0  0  0
   60.3270   34.5075   46.9279 H   0  0  0  0  0  0  0  0  0  0  0  0
   59.3682   36.0265   46.9279 H   0  0  0  0  0  0  0  0  0  0  0  0
   58.1400   32.9577   47.8788 H   0  0  0  0  0  0  0  0  0  0  0  0
   56.8349   32.8808   46.6143 H   0  0  0  0  0  0  0  0  0  0  0  0
   59.7086   31.8911   46.3242 H   0  0  0  0  0  0  0  0  0  0  0  0
   58.2017   30.8862   46.5009 H   0  0  0  0  0  0  0  0  0  0  0  0
   59.7530   29.1920   44.3909 H   0  0  0  0  0  0  0  0  0  0  0  0
   60.2724   26.9224   45.2723 H   0  0  0  0  0  0  0  0  0  0  0  0
   58.5289   25.1174   47.4139 H   0  0  0  0  0  0  0  0  0  0  0  0
   57.7779   24.3848   45.9558 H   0  0  0  0  0  0  0  0  0  0  0  0
   59.5270   24.7940   45.9558 H   0  0  0  0  0  0  0  0  0  0  0  0
  1  2  1  0
  2  3  1  0
  3  4  2  0
  4  5  1  0
  5  6  1  0
  6  7  2  0
  6  8  2  0
  6  9  1  0
  9 10  1  0
 10 11  1  0
 11 12  1  0
 12 13  1  0
 12 14  1  0
 14 15  1  0
  5 16  2  0
 16 17  1  0
 17 18  2  0
 18 19  1  0
 18  3  1  0
 15  9  1  0
  1 20  1  0
  1 21  1  0
  1 22  1  0
  4 23  1  0
 10 24  1  0
 10 25  1  0
 11 26  1  0
 11 27  1  0
 13 28  1  0
 13 29  1  0
 13 30  1  0
 14 31  1  0
 14 32  1  0
 15 33  1  0
 15 34  1  0
 16 35  1  0
 17 36  1  0
 19 37  1  0
 19 38  1  0
 19 39  1  0
M  END
>  <UniqueID>  (35) 
34

>  <SMILES>  (35) 
COc1cc(S(=O)(=O)N2CCN(C)CC2)ccc1C

>  <Energy>  (35) 
46.454195730809644

>  <Genealogy>  (35) 
COc1cc(S(=O)(=O)N2CCN(C)CC2)ccc1C (3D coordinates assigned)
COc1cc(S(=O)(=O)N2CCN(C)CC2)ccc1C (nonaromatic ring conformer: 46.454195730809644 kcal/mol)

>  <smiles>  (35) 
COc1cc(S(=O)(=O)N2CCN(C)CC2)ccc1C

>  <score_type>  (35) 
oracle

>  <origin>  (35) 
adg

>  <m_score__min__energy>  (35) 
-7.4900000000000002

>  <m_primary>  (35) 
energy

$$$$
35:0
     RDKit          3D

 45 47  0  0  0  0  0  0  0  0999 V2000
   60.8940   28.9710   44.8720 C   0  0  0  0  0  0  0  0  0  0  0  0
   60.0400   29.5840   45.9310 C   0  0  0  0  0  0  0  0  0  0  0  0
   60.4960   30.0950   47.0470 O   0  0  0  0  0  0  0  0  0  0  0  0
   59.4580   30.5460   47.7170 C   0  0  0  0  0  0  0  0  0  0  0  0
   59.5590   31.2170   49.0270 C   0  0  0  0  0  0  0  0  0  0  0  0
   60.6880   31.0280   49.8420 C   0  0  0  0  0  0  0  0  0  0  0  0
   60.7760   31.6640   51.0850 C   0  0  0  0  0  0  0  0  0  0  0  0
   59.7420   32.4960   51.5230 C   0  0  0  0  0  0  0  0  0  0  0  0
   59.8600   33.3550   53.2260 Br  0  0  0  0  0  0  0  0  0  0  0  0
   58.6150   32.6880   50.7180 C   0  0  0  0  0  0  0  0  0  0  0  0
   58.5210   32.0470   49.4790 C   0  0  0  0  0  0  0  0  0  0  0  0
   58.2920   30.3390   47.0670 N   0  0  0  0  0  0  0  0  0  0  0  0
   58.6710   29.7380   45.9230 C   0  0  0  0  0  0  0  0  0  0  0  0
   57.7170   29.3370   44.8360 C   0  0  0  0  0  0  0  0  0  0  0  0
   56.6500   30.7460   44.3640 S   0  0  0  0  0  0  0  0  0  0  0  0
   57.9990   31.8950   43.9000 C   0  0  0  0  0  0  0  0  0  0  0  0
   58.1020   33.0090   44.8970 C   0  0  0  0  0  0  0  0  0  0  0  0
   57.4090   34.0500   44.7370 O   0  0  0  0  0  0  0  0  0  0  0  0
   59.0340   32.9160   45.9890 N   0  0  0  0  0  0  0  0  0  0  0  0
   59.3660   34.0470   46.8510 C   0  0  0  0  0  0  0  0  0  0  0  0
   60.7320   33.8430   47.4500 C   0  0  0  0  0  0  0  0  0  0  0  0
   61.0180   34.3540   48.7270 C   0  0  0  0  0  0  0  0  0  0  0  0
   62.2910   34.1940   49.2810 C   0  0  0  0  0  0  0  0  0  0  0  0
   63.2820   33.5130   48.5710 C   0  0  0  0  0  0  0  0  0  0  0  0
   64.5140   33.3550   49.1120 F   0  0  0  0  0  0  0  0  0  0  0  0
   63.0050   33.0010   47.3000 C   0  0  0  0  0  0  0  0  0  0  0  0
   61.7360   33.1670   46.7380 C   0  0  0  0  0  0  0  0  0  0  0  0
   61.7018   28.3912   45.3424 H   0  0  0  0  0  0  0  0  0  0  0  0
   60.2812   28.3053   44.2465 H   0  0  0  0  0  0  0  0  0  0  0  0
   61.3286   29.7646   44.2465 H   0  0  0  0  0  0  0  0  0  0  0  0
   61.5065   30.3769   49.5011 H   0  0  0  0  0  0  0  0  0  0  0  0
   61.6613   31.5088   51.7192 H   0  0  0  0  0  0  0  0  0  0  0  0
   57.8012   33.3443   51.0600 H   0  0  0  0  0  0  0  0  0  0  0  0
   57.6277   32.1941   48.8542 H   0  0  0  0  0  0  0  0  0  0  0  0
   58.2892   29.0063   43.9566 H   0  0  0  0  0  0  0  0  0  0  0  0
   57.0813   28.5190   45.2059 H   0  0  0  0  0  0  0  0  0  0  0  0
   58.9508   31.3442   43.8722 H   0  0  0  0  0  0  0  0  0  0  0  0
   57.7801   32.3212   42.9099 H   0  0  0  0  0  0  0  0  0  0  0  0
   59.4670   31.9920   46.2080 H   0  0  0  0  0  0  0  0  0  0  0  0
   59.3614   34.9731   46.2575 H   0  0  0  0  0  0  0  0  0  0  0  0
   58.6216   34.1220   47.6573 H   0  0  0  0  0  0  0  0  0  0  0  0
   60.2367   34.8822   49.2932 H   0  0  0  0  0  0  0  0  0  0  0  0
   62.5125   34.6048   50.2771 H   0  0  0  0  0  0  0  0  0  0  0  0
   63.7872   32.4664   46.7411 H   0  0  0  0  0  0  0  0  0  0  0  0
   61.5233   32.7671   45.7356 H   0  0  0  0  0  0  0  0  0  0  0  0
  1  2  1  0
  2  3  1  0
  3  4  1  0
  4  5  1  0
  5  6  2  0
  6  7  1  0
  7  8  2  0
  8  9  1  0
  8 10  1  0
 10 11  2  0
  4 12  2  0
 12 13  1  0
 13 14  1  0
 14 15  1  0
 15 16  1  0
 16 17  1  0
 17 18  2  0
 17 19  1  0
 19 20  1  0
 20 21  1  0
 21 22  2  0
 22 23  1  0
 23 24  2  0
 24 25  1  0
 24 26  1  0
 26 27  2  0
 13  2  2  0
 27 21  1  0
 11  5  1  0
  1 28  1  0
  1 29  1  0
  1 30  1  0
  6 31  1  0
  7 32  1  0
 10 33  1  0
 11 34  1  0
 14 35  1  0
 14 36  1  0
 16 37  1  0
 16 38  1  0
 19 39  1  0
 20 40  1  0
 20 41  1  0
 22 42  1  0
 23 43  1  0
 26 44  1  0
 27 45  1  0
M  END
>  <UniqueID>  (36) 
35

>  <SMILES>  (36) 
Cc1oc(-c2ccc(Br)cc2)nc1CSCC(=O)NCc1ccc(F)cc1

>  <Energy>  (36) 
64.56010493945155

>  <Genealogy>  (36) 
Cc1oc(-c2ccc(Br)cc2)nc1CSCC(=O)NCc1ccc(F)cc1 (3D coordinates assigned)
Cc1oc(-c2ccc(Br)cc2)nc1CSCC(=O)NCc1ccc(F)cc1 (optimized conformer: 64.56010493945155 kcal/mol)

>  <smiles>  (36) 
Cc1oc(-c2ccc(Br)cc2)nc1CSCC(=O)NCc1ccc(F)cc1

>  <score_type>  (36) 
oracle

>  <origin>  (36) 
adg

>  <m_score__min__energy>  (36) 
-8.1799999999999997

>  <m_primary>  (36) 
energy

$$$$
36:0
     RDKit          3D

 28 30  0  0  0  0  0  0  0  0999 V2000
   57.7710   31.8940   43.1030 C   0  0  0  0  0  0  0  0  0  0  0  0
   57.3860   30.8130   43.8980 C   0  0  0  0  0  0  0  0  0  0  0  0
   57.3850   30.9290   45.2520 N   0  0  0  0  0  0  0  0  0  0  0  0
   57.7580   32.0820   45.8700 C   0  0  0  0  0  0  0  0  0  0  0  0
   58.1650   33.1900   45.1130 C   0  0  0  0  0  0  0  0  0  0  0  0
   58.5400   34.4810   45.7840 C   0  0  0  0  0  0  0  0  0  0  0  0
   59.8150   34.3060   46.5500 C   0  0  0  0  0  0  0  0  0  0  0  0
   61.0130   33.8380   46.0150 C   0  0  0  0  0  0  0  0  0  0  0  0
   61.8750   33.7680   47.0880 C   0  0  0  0  0  0  0  0  0  0  0  0
   63.2050   33.3620   47.1570 C   0  0  0  0  0  0  0  0  0  0  0  0
   63.8340   33.3840   48.4160 C   0  0  0  0  0  0  0  0  0  0  0  0
   63.1230   33.8040   49.5620 C   0  0  0  0  0  0  0  0  0  0  0  0
   61.7780   34.2050   49.4610 C   0  0  0  0  0  0  0  0  0  0  0  0
   61.1840   34.1760   48.2000 C   0  0  0  0  0  0  0  0  0  0  0  0
   59.9200   34.5030   47.8860 N   0  0  0  0  0  0  0  0  0  0  0  0
   58.1560   33.0890   43.7140 C   0  0  0  0  0  0  0  0  0  0  0  0
   57.7711   31.8053   42.0066 H   0  0  0  0  0  0  0  0  0  0  0  0
   57.0830   29.8659   43.4277 H   0  0  0  0  0  0  0  0  0  0  0  0
   57.7403   32.1455   46.9680 H   0  0  0  0  0  0  0  0  0  0  0  0
   58.6769   35.2620   45.0215 H   0  0  0  0  0  0  0  0  0  0  0  0
   57.7383   34.7748   46.4776 H   0  0  0  0  0  0  0  0  0  0  0  0
   61.2245   33.5809   44.9666 H   0  0  0  0  0  0  0  0  0  0  0  0
   63.7465   33.0348   46.2571 H   0  0  0  0  0  0  0  0  0  0  0  0
   64.8849   33.0724   48.5080 H   0  0  0  0  0  0  0  0  0  0  0  0
   63.6246   33.8177   50.5409 H   0  0  0  0  0  0  0  0  0  0  0  0
   61.2140   34.5305   50.3475 H   0  0  0  0  0  0  0  0  0  0  0  0
   59.1710   34.8260   48.5380 H   0  0  0  0  0  0  0  0  0  0  0  0
   58.4522   33.9511   43.0983 H   0  0  0  0  0  0  0  0  0  0  0  0
  1  2  2  0
  2  3  1  0
  3  4  2  0
  4  5  1  0
  5  6  1  0
  6  7  1  0
  7  8  2  0
  8  9  1  0
  9 10  2  0
 10 11  1  0
 11 12  2  0
 12 13  1  0
 13 14  2  0
 14 15  1  0
  5 16  2  0
 16  1  1  0
 15  7  1  0
 14  9  1  0
  1 17  1  0
  2 18  1  0
  4 19  1  0
  6 20  1  0
  6 21  1  0
  8 22  1  0
 10 23  1  0
 11 24  1  0
 12 25  1  0
 13 26  1  0
 15 27  1  0
 16 28  1  0
M  END
>  <UniqueID>  (37) 
36

>  <SMILES>  (37) 
c1cncc(Cc2cc3ccccc3[nH]2)c1

>  <Energy>  (37) 
61.796997644727064

>  <Genealogy>  (37) 
c1cncc(Cc2cc3ccccc3[nH]2)c1 (3D coordinates assigned)
c1cncc(Cc2cc3ccccc3[nH]2)c1 (optimized conformer: 61.796997644727064 kcal/mol)

>  <smiles>  (37) 
c1cncc(Cc2cc3ccccc3[nH]2)c1

>  <score_type>  (37) 
oracle

>  <origin>  (37) 
adg

>  <m_score__min__energy>  (37) 
-6.7199999999999998

>  <m_primary>  (37) 
energy

$$$$
37:0
     RDKit          3D

 68 71  0  0  0  0  0  0  0  0999 V2000
   60.8130   29.6270   48.9270 C   0  0  0  0  0  0  0  0  0  0  0  0
   61.3680   30.7000   48.1740 O   0  0  0  0  0  0  0  0  0  0  0  0
   62.0740   31.7800   48.7290 C   0  0  0  0  0  0  0  0  0  0  0  0
   63.1500   31.5900   49.6200 C   0  0  0  0  0  0  0  0  0  0  0  0
   63.8130   32.6890   50.1730 C   0  0  0  0  0  0  0  0  0  0  0  0
   63.4150   33.9850   49.8450 C   0  0  0  0  0  0  0  0  0  0  0  0
   62.3530   34.1870   48.9590 C   0  0  0  0  0  0  0  0  0  0  0  0
   61.6820   33.0910   48.3950 C   0  0  0  0  0  0  0  0  0  0  0  0
   60.5910   33.3160   47.4900 N   0  0  0  0  0  0  0  0  0  0  0  0
   60.7250   34.2870   46.4010 C   0  0  0  0  0  0  0  0  0  0  0  0
   59.6250   34.0630   45.3590 C   0  0  0  0  0  0  0  0  0  0  0  0
   58.2730   34.1460   45.9590 N   0  0  0  0  0  0  0  0  0  0  0  0
   57.2510   33.6160   45.0300 C   0  0  0  0  0  0  0  0  0  0  0  0
   57.8980   33.1200   43.7260 C   0  0  0  0  0  0  0  0  0  0  0  0
   57.8340   31.5920   43.5450 C   0  0  0  0  0  0  0  0  0  0  0  0
   58.5490   30.8280   44.6790 C   0  0  0  0  0  0  0  0  0  0  0  0
   57.6000   30.2660   45.6730 N   0  0  2  0  0  0  0  0  0  0  0  0
   58.2530   29.6140   46.8270 C   0  0  0  0  0  0  0  0  0  0  0  0
   59.2620   28.1560   46.3500 S   0  0  0  0  0  0  0  0  0  0  0  0
   57.9030   27.1590   45.6030 C   0  0  0  0  0  0  0  0  0  0  0  0
   58.5750   25.9270   44.9450 C   0  0  0  0  0  0  0  0  0  0  0  0
   57.5660   24.9220   44.3530 C   0  0  0  0  0  0  0  0  0  0  0  0
   56.2880   24.7620   45.1990 C   0  0  0  0  0  0  0  0  0  0  0  0
   56.4940   25.2170   46.6450 C   0  0  0  0  0  0  0  0  0  0  0  0
   56.8990   26.7010   46.7180 C   0  0  0  0  0  0  0  0  0  0  0  0
   57.2040   28.0050   44.5060 C   0  0  0  0  0  0  0  0  0  0  0  0
   56.7020   29.3260   45.0340 C   0  0  0  0  0  0  0  0  0  0  0  0
   55.5200   29.6120   44.8930 O   0  0  0  0  0  0  0  0  0  0  0  0
   58.1570   33.5610   47.3240 C   0  0  0  0  0  0  0  0  0  0  0  0
   59.3160   32.6210   47.6870 C   0  0  0  0  0  0  0  0  0  0  0  0
   60.9221   29.8379   50.0011 H   0  0  0  0  0  0  0  0  0  0  0  0
   59.7463   29.5196   48.6809 H   0  0  0  0  0  0  0  0  0  0  0  0
   61.3418   28.6944   48.6809 H   0  0  0  0  0  0  0  0  0  0  0  0
   63.4696   30.5705   49.8815 H   0  0  0  0  0  0  0  0  0  0  0  0
   64.6506   32.5316   50.8685 H   0  0  0  0  0  0  0  0  0  0  0  0
   63.9370   34.8482   50.2837 H   0  0  0  0  0  0  0  0  0  0  0  0
   62.0415   35.2103   48.7025 H   0  0  0  0  0  0  0  0  0  0  0  0
   60.6385   35.3051   46.8084 H   0  0  0  0  0  0  0  0  0  0  0  0
   61.7068   34.1581   45.9220 H   0  0  0  0  0  0  0  0  0  0  0  0
   59.7147   34.8305   44.5761 H   0  0  0  0  0  0  0  0  0  0  0  0
   59.7516   33.0538   44.9401 H   0  0  0  0  0  0  0  0  0  0  0  0
   56.7257   32.7786   45.5124 H   0  0  0  0  0  0  0  0  0  0  0  0
   56.5452   34.4238   44.7866 H   0  0  0  0  0  0  0  0  0  0  0  0
   57.3784   33.5920   42.8791 H   0  0  0  0  0  0  0  0  0  0  0  0
   58.9624   33.3939   43.7710 H   0  0  0  0  0  0  0  0  0  0  0  0
   56.7782   31.2839   43.5242 H   0  0  0  0  0  0  0  0  0  0  0  0
   58.3477   31.3469   42.6037 H   0  0  0  0  0  0  0  0  0  0  0  0
   59.1276   30.0029   44.2381 H   0  0  0  0  0  0  0  0  0  0  0  0
   59.1993   31.5425   45.2049 H   0  0  0  0  0  0  0  0  0  0  0  0
   57.0210   31.0550   46.0510 H   0  0  0  0  0  0  0  0  0  0  0  0
   58.9079   30.3476   47.3198 H   0  0  0  0  0  0  0  0  0  0  0  0
   57.4572   29.2584   47.4980 H   0  0  0  0  0  0  0  0  0  0  0  0
   59.2321   26.2789   44.1360 H   0  0  0  0  0  0  0  0  0  0  0  0
   59.1321   25.4009   45.7342 H   0  0  0  0  0  0  0  0  0  0  0  0
   57.2779   25.2683   43.3495 H   0  0  0  0  0  0  0  0  0  0  0  0
   58.0630   23.9409   44.3296 H   0  0  0  0  0  0  0  0  0  0  0  0
   55.4864   25.3654   44.7481 H   0  0  0  0  0  0  0  0  0  0  0  0
   56.0236   23.6944   45.2144 H   0  0  0  0  0  0  0  0  0  0  0  0
   55.5558   25.0748   47.2014 H   0  0  0  0  0  0  0  0  0  0  0  0
   57.3045   24.6163   47.0834 H   0  0  0  0  0  0  0  0  0  0  0  0
   55.9874   27.3103   46.6302 H   0  0  0  0  0  0  0  0  0  0  0  0
   57.4171   26.8361   47.6789 H   0  0  0  0  0  0  0  0  0  0  0  0
   57.9232   28.1981   43.6964 H   0  0  0  0  0  0  0  0  0  0  0  0
   56.3352   27.4353   44.1446 H   0  0  0  0  0  0  0  0  0  0  0  0
   58.1333   34.3831   48.0545 H   0  0  0  0  0  0  0  0  0  0  0  0
   57.2353   32.9609   47.3421 H   0  0  0  0  0  0  0  0  0  0  0  0
   59.2241   32.3157   48.7398 H   0  0  0  0  0  0  0  0  0  0  0  0
   59.2810   31.7308   47.0417 H   0  0  0  0  0  0  0  0  0  0  0  0
  1  2  1  0
  2  3  1  0
  3  4  2  0
  4  5  1  0
  5  6  2  0
  6  7  1  0
  7  8  2  0
  8  9  1  0
  9 10  1  0
 10 11  1  0
 11 12  1  0
 12 13  1  0
 13 14  1  0
 14 15  1  0
 15 16  1  0
 16 17  1  0
 17 18  1  0
 18 19  1  0
 19 20  1  0
 20 21  1  0
 21 22  1  0
 22 23  1  0
 23 24  1  0
 24 25  1  0
 20 26  1  0
 26 27  1  0
 27 28  2  0
 12 29  1  0
 29 30  1  0
  8  3  1  0
 30  9  1  0
 27 17  1  0
 25 20  1  0
  1 31  1  0
  1 32  1  0
  1 33  1  0
  4 34  1  0
  5 35  1  0
  6 36  1  0
  7 37  1  0
 10 38  1  0
 10 39  1  0
 11 40  1  0
 11 41  1  0
 13 42  1  0
 13 43  1  0
 14 44  1  0
 14 45  1  0
 15 46  1  0
 15 47  1  0
 16 48  1  0
 16 49  1  0
 17 50  1  1
 18 51  1  0
 18 52  1  0
 21 53  1  0
 21 54  1  0
 22 55  1  0
 22 56  1  0
 23 57  1  0
 23 58  1  0
 24 59  1  0
 24 60  1  0
 25 61  1  0
 25 62  1  0
 26 63  1  0
 26 64  1  0
 29 65  1  0
 29 66  1  0
 30 67  1  0
 30 68  1  0
M  CHG  1  17   1
M  END
>  <UniqueID>  (38) 
37

>  <SMILES>  (38) 
COc1ccccc1N1CCN(CCCC[N@@H+]2CSC3(CCCCC3)CC2=O)CC1

>  <Energy>  (38) 
86.46907611925808

>  <Genealogy>  (38) 
COc1ccccc1N1CCN(CCCC[NH+]2CSC3(CCCCC3)CC2=O)CC1 (protonated)
COc1ccccc1N1CCN(CCCC[N@@H+]2CSC3(CCCCC3)CC2=O)CC1 (chirality)
COc1ccccc1N1CCN(CCCC[N@@H+]2CSC3(CCCCC3)CC2=O)CC1 (3D coordinates assigned)
COc1ccccc1N1CCN(CCCC[N@@H+]2CSC3(CCCCC3)CC2=O)CC1 (nonaromatic ring conformer: 86.46907611925808 kcal/mol)

>  <smiles>  (38) 
COc1ccccc1N1CCN(CCCCN2CSC3(CCCCC3)CC2=O)CC1

>  <score_type>  (38) 
oracle

>  <origin>  (38) 
adg

>  <m_score__min__energy>  (38) 
-7.79

>  <m_primary>  (38) 
energy

$$$$
38:0
     RDKit          3D

 41 42  0  0  0  0  0  0  0  0999 V2000
   65.1810   33.0870   49.7120 C   0  0  0  0  0  0  0  0  0  0  0  0
   63.8680   33.3000   49.0180 C   0  0  0  0  0  0  0  0  0  0  0  0
   62.7430   33.7100   49.7440 C   0  0  0  0  0  0  0  0  0  0  0  0
   61.5100   33.8730   49.1060 C   0  0  0  0  0  0  0  0  0  0  0  0
   61.3780   33.6170   47.7280 C   0  0  0  0  0  0  0  0  0  0  0  0
   60.0690   33.7910   47.0500 C   0  0  0  0  0  0  0  0  0  0  0  0
   59.4780   32.9390   46.1340 C   0  0  0  0  0  0  0  0  0  0  0  0
   58.2980   33.4950   45.8020 N   0  0  0  0  0  0  0  0  0  0  0  0
   57.2950   32.9440   44.8950 C   0  0  0  0  0  0  0  0  0  0  0  0
   57.9520   32.2460   43.6930 C   0  0  0  0  0  0  0  0  0  0  0  0
   57.2570   30.9340   43.2910 C   0  0  0  0  0  0  0  0  0  0  0  0
   56.9980   30.0280   44.4720 C   0  0  0  0  0  0  0  0  0  0  0  0
   55.8070   29.8700   44.8600 O   0  0  0  0  0  0  0  0  0  0  0  0
   58.0590   29.3060   45.1360 N   0  0  0  0  0  0  0  0  0  0  0  0
   57.7640   28.6070   46.3900 C   0  0  0  0  0  0  0  0  0  0  0  0
   59.4050   29.2250   44.5550 C   0  0  0  0  0  0  0  0  0  0  0  0
   58.1560   34.6250   46.4750 N   0  0  0  0  0  0  0  0  0  0  0  0
   59.2200   34.8250   47.2350 N   0  0  0  0  0  0  0  0  0  0  0  0
   62.5080   33.1870   47.0090 C   0  0  0  0  0  0  0  0  0  0  0  0
   63.7390   33.0240   47.6490 C   0  0  0  0  0  0  0  0  0  0  0  0
   65.0283   33.1118   50.8011 H   0  0  0  0  0  0  0  0  0  0  0  0
   65.5948   32.1100   49.4219 H   0  0  0  0  0  0  0  0  0  0  0  0
   65.8825   33.8831   49.4219 H   0  0  0  0  0  0  0  0  0  0  0  0
   62.8301   33.9050   50.8231 H   0  0  0  0  0  0  0  0  0  0  0  0
   60.6356   34.2041   49.6855 H   0  0  0  0  0  0  0  0  0  0  0  0
   59.8910   31.9936   45.7523 H   0  0  0  0  0  0  0  0  0  0  0  0
   56.6804   32.2135   45.4415 H   0  0  0  0  0  0  0  0  0  0  0  0
   56.6746   33.7712   44.5196 H   0  0  0  0  0  0  0  0  0  0  0  0
   57.9242   32.9323   42.8338 H   0  0  0  0  0  0  0  0  0  0  0  0
   58.9800   31.9903   43.9892 H   0  0  0  0  0  0  0  0  0  0  0  0
   56.2952   31.1762   42.8153 H   0  0  0  0  0  0  0  0  0  0  0  0
   57.9274   30.3995   42.6019 H   0  0  0  0  0  0  0  0  0  0  0  0
   58.0352   29.2496   47.2406 H   0  0  0  0  0  0  0  0  0  0  0  0
   56.6902   28.3726   46.4353 H   0  0  0  0  0  0  0  0  0  0  0  0
   58.3452   27.6742   46.4353 H   0  0  0  0  0  0  0  0  0  0  0  0
   60.1508   29.1801   45.3624 H   0  0  0  0  0  0  0  0  0  0  0  0
   59.4824   28.3206   43.9337 H   0  0  0  0  0  0  0  0  0  0  0  0
   59.5903   30.1136   43.9337 H   0  0  0  0  0  0  0  0  0  0  0  0
   59.3340   35.6420   47.8740 H   0  0  0  0  0  0  0  0  0  0  0  0
   62.4215   32.9771   45.9327 H   0  0  0  0  0  0  0  0  0  0  0  0
   64.6118   32.6773   47.0762 H   0  0  0  0  0  0  0  0  0  0  0  0
  1  2  1  0
  2  3  2  0
  3  4  1  0
  4  5  2  0
  5  6  1  0
  6  7  2  0
  7  8  1  0
  8  9  1  0
  9 10  1  0
 10 11  1  0
 11 12  1  0
 12 13  2  0
 12 14  1  0
 14 15  1  0
 14 16  1  0
  8 17  1  0
 17 18  2  0
  5 19  1  0
 19 20  2  0
 20  2  1  0
 18  6  1  0
  1 21  1  0
  1 22  1  0
  1 23  1  0
  3 24  1  0
  4 25  1  0
  7 26  1  0
  9 27  1  0
  9 28  1  0
 10 29  1  0
 10 30  1  0
 11 31  1  0
 11 32  1  0
 15 33  1  0
 15 34  1  0
 15 35  1  0
 16 36  1  0
 16 37  1  0
 16 38  1  0
 18 39  1  0
 19 40  1  0
 20 41  1  0
M  CHG  1  18   1
M  END
>  <UniqueID>  (39) 
38

>  <SMILES>  (39) 
Cc1ccc(-c2cn(CCCC(=O)N(C)C)n[nH+]2)cc1

>  <Energy>  (39) 
70.57176873939868

>  <Genealogy>  (39) 
Cc1ccc(-c2cn(CCCC(=O)N(C)C)n[nH+]2)cc1 (protonated)
Cc1ccc(-c2cn(CCCC(=O)N(C)C)n[nH+]2)cc1 (3D coordinates assigned)
Cc1ccc(-c2cn(CCCC(=O)N(C)C)n[nH+]2)cc1 (optimized conformer: 70.57176873939868 kcal/mol)

>  <smiles>  (39) 
Cc1ccc(-c2cn(CCCC(=O)N(C)C)nn2)cc1

>  <score_type>  (39) 
oracle

>  <origin>  (39) 
adg

>  <m_score__min__energy>  (39) 
-6.2699999999999996

>  <m_primary>  (39) 
energy

$$$$
39:0
     RDKit          3D

 34 36  0  0  0  0  0  0  0  0999 V2000
   63.9330   33.1090   48.9260 C   0  0  0  0  0  0  0  0  0  0  0  0
   62.9850   34.0700   49.2790 C   0  0  0  0  0  0  0  0  0  0  0  0
   61.7970   34.1760   48.5520 C   0  0  0  0  0  0  0  0  0  0  0  0
   61.5700   33.3130   47.4650 C   0  0  0  0  0  0  0  0  0  0  0  0
   60.3220   33.3840   46.6640 C   0  0  0  0  0  0  0  0  0  0  0  0
   59.7780   34.6330   46.3350 C   0  0  0  0  0  0  0  0  0  0  0  0
   58.6190   34.6810   45.5680 C   0  0  0  0  0  0  0  0  0  0  0  0
   58.0220   33.5300   45.1710 N   0  0  0  0  0  0  0  0  0  0  0  0
   58.5310   32.3160   45.5160 C   0  0  0  0  0  0  0  0  0  0  0  0
   57.8690   31.1170   45.0740 N   0  0  0  0  0  0  0  0  0  0  0  0
   58.1390   29.8510   45.7630 C   0  0  0  0  0  0  0  0  0  0  0  0
   57.1910   28.7500   45.2700 C   0  0  0  0  0  0  0  0  0  0  0  0
   55.8360   29.2840   45.0900 N   0  0  0  0  0  0  0  0  0  0  0  0
   55.7670   30.3190   44.0370 C   0  0  0  0  0  0  0  0  0  0  0  0
   57.0860   31.0920   43.8320 C   0  0  0  0  0  0  0  0  0  0  0  0
   59.6820   32.2490   46.2490 N   0  0  0  0  0  0  0  0  0  0  0  0
   62.5120   32.3770   47.1540 N   0  0  0  0  0  0  0  0  0  0  0  0
   63.6740   32.2590   47.8510 C   0  0  0  0  0  0  0  0  0  0  0  0
   64.8740   33.0228   49.4892 H   0  0  0  0  0  0  0  0  0  0  0  0
   63.1729   34.7431   50.1285 H   0  0  0  0  0  0  0  0  0  0  0  0
   61.0443   34.9292   48.8278 H   0  0  0  0  0  0  0  0  0  0  0  0
   60.2600   35.5604   46.6779 H   0  0  0  0  0  0  0  0  0  0  0  0
   58.1869   35.6518   45.2836 H   0  0  0  0  0  0  0  0  0  0  0  0
   59.1778   29.5475   45.5660 H   0  0  0  0  0  0  0  0  0  0  0  0
   57.9807   29.9958   46.8419 H   0  0  0  0  0  0  0  0  0  0  0  0
   57.5574   28.3599   44.3090 H   0  0  0  0  0  0  0  0  0  0  0  0
   57.1604   27.9443   46.0183 H   0  0  0  0  0  0  0  0  0  0  0  0
   55.5210   29.7020   45.9970 H   0  0  0  0  0  0  0  0  0  0  0  0
   55.5011   29.8303   43.0881 H   0  0  0  0  0  0  0  0  0  0  0  0
   55.0140   31.0530   44.3600 H   0  0  0  0  0  0  0  0  0  0  0  0
   57.6745   30.6001   43.0435 H   0  0  0  0  0  0  0  0  0  0  0  0
   56.8494   32.1261   43.5412 H   0  0  0  0  0  0  0  0  0  0  0  0
   60.0750   31.3140   46.4880 H   0  0  0  0  0  0  0  0  0  0  0  0
   64.4100   31.4926   47.5666 H   0  0  0  0  0  0  0  0  0  0  0  0
  1  2  2  0
  2  3  1  0
  3  4  2  0
  4  5  1  0
  5  6  2  0
  6  7  1  0
  7  8  2  0
  8  9  1  0
  9 10  1  0
 10 11  1  0
 11 12  1  0
 12 13  1  0
 13 14  1  0
 14 15  1  0
  9 16  2  0
  4 17  1  0
 17 18  2  0
 18  1  1  0
 16  5  1  0
 15 10  1  0
  1 19  1  0
  2 20  1  0
  3 21  1  0
  6 22  1  0
  7 23  1  0
 11 24  1  0
 11 25  1  0
 12 26  1  0
 12 27  1  0
 13 28  1  0
 14 29  1  0
 14 30  1  0
 15 31  1  0
 15 32  1  0
 16 33  1  0
 18 34  1  0
M  CHG  1  16   1
M  END
>  <UniqueID>  (40) 
39

>  <SMILES>  (40) 
c1ccc(-c2ccnc(N3CCNCC3)[nH+]2)nc1

>  <Energy>  (40) 
47.594049829488206

>  <Genealogy>  (40) 
c1ccc(-c2ccnc(N3CCNCC3)[nH+]2)nc1 (protonated)
c1ccc(-c2ccnc(N3CCNCC3)[nH+]2)nc1 (3D coordinates assigned)
c1ccc(-c2ccnc(N3CCNCC3)[nH+]2)nc1 (nonaromatic ring conformer: 47.594049829488206 kcal/mol)

>  <smiles>  (40) 
c1ccc(-c2ccnc(N3CCNCC3)n2)nc1

>  <score_type>  (40) 
oracle

>  <origin>  (40) 
adg

>  <m_score__min__energy>  (40) 
-5.96

>  <m_primary>  (40) 
energy

$$$$
40:0
     RDKit          3D

 32 34  0  0  0  0  0  0  0  0999 V2000
   54.4260   26.3410   45.8810 O   0  0  0  0  0  0  0  0  0  0  0  0
   55.8090   26.2460   45.9950 C   0  0  0  0  0  0  0  0  0  0  0  0
   56.5560   27.4220   46.0290 C   0  0  0  0  0  0  0  0  0  0  0  0
   57.9460   27.3780   46.1480 C   0  0  0  0  0  0  0  0  0  0  0  0
   58.6910   28.5680   46.1840 C   0  0  0  0  0  0  0  0  0  0  0  0
   60.0820   28.5260   46.3040 C   0  0  0  0  0  0  0  0  0  0  0  0
   61.0060   30.0160   46.3490 Cl  0  0  0  0  0  0  0  0  0  0  0  0
   60.7390   27.2950   46.3890 C   0  0  0  0  0  0  0  0  0  0  0  0
   60.0100   26.1040   46.3530 C   0  0  0  0  0  0  0  0  0  0  0  0
   58.6060   26.1280   46.2330 C   0  0  0  0  0  0  0  0  0  0  0  0
   57.8570   24.9300   46.1960 C   0  0  0  0  0  0  0  0  0  0  0  0
   58.5520   23.7160   46.2810 O   0  0  0  0  0  0  0  0  0  0  0  0
   56.4410   24.9860   46.0730 C   0  0  0  0  0  0  0  0  0  0  0  0
   55.5730   23.7410   46.0750 C   0  0  0  0  0  0  0  0  0  0  0  0
   55.9930   22.7920   44.9790 C   0  0  0  0  0  0  0  0  0  0  0  0
   56.1620   21.4220   45.2460 C   0  0  0  0  0  0  0  0  0  0  0  0
   56.5280   20.5440   44.2210 C   0  0  0  0  0  0  0  0  0  0  0  0
   56.7280   21.0230   42.9240 C   0  0  0  0  0  0  0  0  0  0  0  0
   56.5600   22.3820   42.6490 C   0  0  0  0  0  0  0  0  0  0  0  0
   56.1930   23.2640   43.6700 C   0  0  0  0  0  0  0  0  0  0  0  0
   56.0454   28.3940   45.9614 H   0  0  0  0  0  0  0  0  0  0  0  0
   58.1765   29.5380   46.1174 H   0  0  0  0  0  0  0  0  0  0  0  0
   61.8344   27.2641   46.4846 H   0  0  0  0  0  0  0  0  0  0  0  0
   60.5358   25.1400   46.4188 H   0  0  0  0  0  0  0  0  0  0  0  0
   58.7900   23.1300   45.4960 H   0  0  0  0  0  0  0  0  0  0  0  0
   55.6706   23.2351   47.0469 H   0  0  0  0  0  0  0  0  0  0  0  0
   54.5286   24.0395   45.9014 H   0  0  0  0  0  0  0  0  0  0  0  0
   56.0057   21.0392   46.2653 H   0  0  0  0  0  0  0  0  0  0  0  0
   56.6588   19.4733   44.4365 H   0  0  0  0  0  0  0  0  0  0  0  0
   57.0176   20.3304   42.1200 H   0  0  0  0  0  0  0  0  0  0  0  0
   56.7167   22.7590   41.6276 H   0  0  0  0  0  0  0  0  0  0  0  0
   56.0600   24.3331   43.4477 H   0  0  0  0  0  0  0  0  0  0  0  0
  1  2  1  0
  2  3  2  0
  3  4  1  0
  4  5  2  0
  5  6  1  0
  6  7  1  0
  6  8  2  0
  8  9  1  0
  9 10  2  0
 10 11  1  0
 11 12  1  0
 11 13  2  0
 13 14  1  0
 14 15  1  0
 15 16  2  0
 16 17  1  0
 17 18  2  0
 18 19  1  0
 19 20  2  0
 13  2  1  0
 20 15  1  0
 10  4  1  0
  3 21  1  0
  5 22  1  0
  8 23  1  0
  9 24  1  0
 12 25  1  0
 14 26  1  0
 14 27  1  0
 16 28  1  0
 17 29  1  0
 18 30  1  0
 19 31  1  0
 20 32  1  0
M  CHG  1   1  -1
M  END
>  <UniqueID>  (41) 
40

>  <SMILES>  (41) 
[O-]c1cc2cc(Cl)ccc2c(O)c1Cc1ccccc1

>  <Energy>  (41) 
42.06561829762493

>  <Genealogy>  (41) 
[O-]c1cc2cc(Cl)ccc2c(O)c1Cc1ccccc1 (protonated)
[O-]c1cc2cc(Cl)ccc2c(O)c1Cc1ccccc1 (3D coordinates assigned)
[O-]c1cc2cc(Cl)ccc2c(O)c1Cc1ccccc1 (optimized conformer: 42.06561829762493 kcal/mol)

>  <smiles>  (41) 
Oc1cc2cc(Cl)ccc2c(O)c1Cc1ccccc1

>  <score_type>  (41) 
oracle

>  <origin>  (41) 
adg

>  <m_score__min__energy>  (41) 
-9.6799999999999997

>  <m_primary>  (41) 
energy

$$$$
41:0
     RDKit          3D

 35 37  0  0  0  0  0  0  0  0999 V2000
   59.2620   34.6550   55.2070 C   0  0  0  0  0  0  0  0  0  0  0  0
   59.3350   34.0920   53.9010 O   0  0  0  0  0  0  0  0  0  0  0  0
   58.5660   33.0020   53.4650 C   0  0  0  0  0  0  0  0  0  0  0  0
   58.5840   31.8300   54.2280 C   0  0  0  0  0  0  0  0  0  0  0  0
   57.8350   30.7160   53.8380 C   0  0  0  0  0  0  0  0  0  0  0  0
   57.0580   30.7560   52.6670 C   0  0  0  0  0  0  0  0  0  0  0  0
   56.2600   29.6170   52.2750 N   0  0  0  0  0  0  0  0  0  0  0  0
   54.9980   29.4840   52.9900 C   0  0  0  0  0  0  0  0  0  0  0  0
   54.8140   28.5170   54.0110 C   0  0  0  0  0  0  0  0  0  0  0  0
   53.6040   28.4080   54.6920 C   0  0  0  0  0  0  0  0  0  0  0  0
   52.5350   29.2370   54.3690 C   0  0  0  0  0  0  0  0  0  0  0  0
   52.6580   30.1770   53.3400 C   0  0  0  0  0  0  0  0  0  0  0  0
   51.5630   30.9880   53.0030 C   0  0  0  0  0  0  0  0  0  0  0  0
   51.6630   31.9100   51.9610 C   0  0  0  0  0  0  0  0  0  0  0  0
   50.5740   32.7100   51.6340 O   0  0  0  0  0  0  0  0  0  0  0  0
   52.8530   32.0280   51.2450 C   0  0  0  0  0  0  0  0  0  0  0  0
   53.9540   31.2320   51.5690 C   0  0  0  0  0  0  0  0  0  0  0  0
   53.8850   30.3000   52.6290 C   0  0  0  0  0  0  0  0  0  0  0  0
   57.0340   31.9370   51.9040 C   0  0  0  0  0  0  0  0  0  0  0  0
   57.7840   33.0490   52.2960 C   0  0  0  0  0  0  0  0  0  0  0  0
   59.3655   33.8567   55.9567 H   0  0  0  0  0  0  0  0  0  0  0  0
   60.0727   35.3871   55.3365 H   0  0  0  0  0  0  0  0  0  0  0  0
   58.2914   35.1561   55.3365 H   0  0  0  0  0  0  0  0  0  0  0  0
   59.1929   31.7844   55.1430 H   0  0  0  0  0  0  0  0  0  0  0  0
   57.8537   29.8028   54.4509 H   0  0  0  0  0  0  0  0  0  0  0  0
   56.0650   29.7190   51.2520 H   0  0  0  0  0  0  0  0  0  0  0  0
   56.8120   28.7370   52.4080 H   0  0  0  0  0  0  0  0  0  0  0  0
   55.6421   27.8407   54.2698 H   0  0  0  0  0  0  0  0  0  0  0  0
   53.4930   27.6606   55.4914 H   0  0  0  0  0  0  0  0  0  0  0  0
   51.5893   29.1533   54.9246 H   0  0  0  0  0  0  0  0  0  0  0  0
   50.6210   30.8960   53.5636 H   0  0  0  0  0  0  0  0  0  0  0  0
   52.9255   32.7521   50.4201 H   0  0  0  0  0  0  0  0  0  0  0  0
   54.8855   31.3317   50.9925 H   0  0  0  0  0  0  0  0  0  0  0  0
   56.4206   31.9858   50.9922 H   0  0  0  0  0  0  0  0  0  0  0  0
   57.7630   33.9654   51.6879 H   0  0  0  0  0  0  0  0  0  0  0  0
  1  2  1  0
  2  3  1  0
  3  4  2  0
  4  5  1  0
  5  6  2  0
  6  7  1  0
  7  8  1  0
  8  9  2  0
  9 10  1  0
 10 11  2  0
 11 12  1  0
 12 13  2  0
 13 14  1  0
 14 15  1  0
 14 16  2  0
 16 17  1  0
 17 18  2  0
  6 19  1  0
 19 20  2  0
 20  3  1  0
 18  8  1  0
 18 12  1  0
  1 21  1  0
  1 22  1  0
  1 23  1  0
  4 24  1  0
  5 25  1  0
  7 26  1  0
  7 27  1  0
  9 28  1  0
 10 29  1  0
 11 30  1  0
 13 31  1  0
 16 32  1  0
 17 33  1  0
 19 34  1  0
 20 35  1  0
M  CHG  2   7   1  15  -1
M  END
>  <UniqueID>  (42) 
41

>  <SMILES>  (42) 
COc1ccc([NH2+]c2cccc3cc([O-])ccc23)cc1

>  <Energy>  (42) 
49.85396387647842

>  <Genealogy>  (42) 
COc1ccc([NH2+]c2cccc3cc([O-])ccc23)cc1 (protonated)
COc1ccc([NH2+]c2cccc3cc([O-])ccc23)cc1 (3D coordinates assigned)
COc1ccc([NH2+]c2cccc3cc([O-])ccc23)cc1 (optimized conformer: 49.85396387647842 kcal/mol)

>  <smiles>  (42) 
COc1ccc(Nc2cccc3cc(O)ccc23)cc1

>  <score_type>  (42) 
oracle

>  <origin>  (42) 
adg

>  <m_score__min__energy>  (42) 
-8.5

>  <m_primary>  (42) 
energy

$$$$
42:0
     RDKit          3D

 52 54  0  0  0  0  0  0  0  0999 V2000
   63.3830   33.5270   46.9880 C   0  0  0  0  0  0  0  0  0  0  0  0
   61.9490   33.2190   47.4220 C   0  0  0  0  0  0  0  0  0  0  0  0
   60.9850   33.3990   46.3190 N   0  0  0  0  0  0  0  0  0  0  0  0
   59.8630   34.3020   46.6470 C   0  0  0  0  0  0  0  0  0  0  0  0
   58.8220   33.5430   47.5140 C   0  0  0  0  0  0  0  0  0  0  0  0
   57.5520   33.1410   46.7480 C   0  0  0  0  0  0  0  0  0  0  0  0
   57.8740   32.8200   45.3520 N   0  0  0  0  0  0  0  0  0  0  0  0
   57.6010   31.5150   44.8060 C   0  0  0  0  0  0  0  0  0  0  0  0
   57.0630   31.3800   43.5140 C   0  0  0  0  0  0  0  0  0  0  0  0
   56.7840   30.1150   42.9940 C   0  0  0  0  0  0  0  0  0  0  0  0
   57.0350   28.9710   43.7540 C   0  0  0  0  0  0  0  0  0  0  0  0
   57.5600   29.0870   45.0500 C   0  0  0  0  0  0  0  0  0  0  0  0
   57.8520   27.8600   45.8710 C   0  0  0  0  0  0  0  0  0  0  0  0
   57.5000   26.6560   45.1230 N   0  0  0  0  0  0  0  0  0  0  0  0
   58.0030   25.3570   45.4740 C   0  0  0  0  0  0  0  0  0  0  0  0
   58.7120   25.2200   46.5080 O   0  0  0  0  0  0  0  0  0  0  0  0
   57.6750   24.1670   44.6590 C   0  0  0  0  0  0  0  0  0  0  0  0
   56.5690   24.2070   43.7900 C   0  0  0  0  0  0  0  0  0  0  0  0
   56.2410   23.0970   43.0060 C   0  0  0  0  0  0  0  0  0  0  0  0
   57.0070   21.9320   43.0880 C   0  0  0  0  0  0  0  0  0  0  0  0
   58.0960   21.8730   43.9590 C   0  0  0  0  0  0  0  0  0  0  0  0
   58.4310   22.9800   44.7470 C   0  0  0  0  0  0  0  0  0  0  0  0
   59.4580   22.8670   45.6270 F   0  0  0  0  0  0  0  0  0  0  0  0
   57.8410   30.3600   45.5700 C   0  0  0  0  0  0  0  0  0  0  0  0
   58.5190   33.8450   44.5180 C   0  0  0  0  0  0  0  0  0  0  0  0
   59.2130   34.9130   45.3810 C   0  0  0  0  0  0  0  0  0  0  0  0
   64.0145   33.6626   47.8784 H   0  0  0  0  0  0  0  0  0  0  0  0
   63.7715   32.6918   46.3867 H   0  0  0  0  0  0  0  0  0  0  0  0
   63.3943   34.4481   46.3867 H   0  0  0  0  0  0  0  0  0  0  0  0
   61.8997   32.1766   47.7698 H   0  0  0  0  0  0  0  0  0  0  0  0
   61.6798   33.9206   48.2254 H   0  0  0  0  0  0  0  0  0  0  0  0
   61.4510   33.6850   45.4270 H   0  0  0  0  0  0  0  0  0  0  0  0
   60.2600   35.1495   47.2250 H   0  0  0  0  0  0  0  0  0  0  0  0
   59.2953   32.6299   47.9041 H   0  0  0  0  0  0  0  0  0  0  0  0
   58.5095   34.2301   48.3142 H   0  0  0  0  0  0  0  0  0  0  0  0
   57.1035   32.2588   47.2282 H   0  0  0  0  0  0  0  0  0  0  0  0
   56.8442   33.9829   46.7655 H   0  0  0  0  0  0  0  0  0  0  0  0
   56.8608   32.2765   42.9095 H   0  0  0  0  0  0  0  0  0  0  0  0
   56.3648   30.0191   41.9816 H   0  0  0  0  0  0  0  0  0  0  0  0
   56.8207   27.9764   43.3358 H   0  0  0  0  0  0  0  0  0  0  0  0
   58.9238   27.8343   46.1171 H   0  0  0  0  0  0  0  0  0  0  0  0
   57.2550   27.8959   46.7942 H   0  0  0  0  0  0  0  0  0  0  0  0
   56.7920   26.7470   44.3600 H   0  0  0  0  0  0  0  0  0  0  0  0
   55.9575   25.1192   43.7270 H   0  0  0  0  0  0  0  0  0  0  0  0
   55.3790   23.1412   42.3241 H   0  0  0  0  0  0  0  0  0  0  0  0
   56.7521   21.0611   42.4662 H   0  0  0  0  0  0  0  0  0  0  0  0
   58.6938   20.9521   44.0264 H   0  0  0  0  0  0  0  0  0  0  0  0
   58.2531   30.4547   46.5855 H   0  0  0  0  0  0  0  0  0  0  0  0
   59.2686   33.3627   43.8734 H   0  0  0  0  0  0  0  0  0  0  0  0
   57.7441   34.3379   43.9126 H   0  0  0  0  0  0  0  0  0  0  0  0
   59.9947   35.4018   44.7809 H   0  0  0  0  0  0  0  0  0  0  0  0
   58.4505   35.6364   45.7055 H   0  0  0  0  0  0  0  0  0  0  0  0
  1  2  1  0
  2  3  1  0
  3  4  1  0
  4  5  1  0
  5  6  1  0
  6  7  1  0
  7  8  1  0
  8  9  2  0
  9 10  1  0
 10 11  2  0
 11 12  1  0
 12 13  1  0
 13 14  1  0
 14 15  1  0
 15 16  2  0
 15 17  1  0
 17 18  2  0
 18 19  1  0
 19 20  2  0
 20 21  1  0
 21 22  2  0
 22 23  1  0
 12 24  2  0
  7 25  1  0
 25 26  1  0
 26  4  1  0
 24  8  1  0
 22 17  1  0
  1 27  1  0
  1 28  1  0
  1 29  1  0
  2 30  1  0
  2 31  1  0
  3 32  1  0
  4 33  1  0
  5 34  1  0
  5 35  1  0
  6 36  1  0
  6 37  1  0
  9 38  1  0
 10 39  1  0
 11 40  1  0
 13 41  1  0
 13 42  1  0
 14 43  1  0
 18 44  1  0
 19 45  1  0
 20 46  1  0
 21 47  1  0
 24 48  1  0
 25 49  1  0
 25 50  1  0
 26 51  1  0
 26 52  1  0
M  END
>  <UniqueID>  (43) 
42

>  <SMILES>  (43) 
CCNC1CCN(c2cccc(CNC(=O)c3ccccc3F)c2)CC1

>  <Energy>  (43) 
62.389619196998844

>  <Genealogy>  (43) 
CCNC1CCN(c2cccc(CNC(=O)c3ccccc3F)c2)CC1 (3D coordinates assigned)
CCNC1CCN(c2cccc(CNC(=O)c3ccccc3F)c2)CC1 (nonaromatic ring conformer: 62.389619196998844 kcal/mol)

>  <smiles>  (43) 
CCNC1CCN(c2cccc(CNC(=O)c3ccccc3F)c2)CC1

>  <score_type>  (43) 
oracle

>  <origin>  (43) 
adg

>  <m_score__min__energy>  (43) 
-8.8599999999999994

>  <m_primary>  (43) 
energy

$$$$
43:0
     RDKit          3D

 60 62  0  0  0  0  0  0  0  0999 V2000
   57.7360   32.3470   41.5090 C   0  0  0  0  0  0  0  0  0  0  0  0
   57.8030   32.0540   43.0050 C   0  0  0  0  0  0  0  0  0  0  0  0
   57.5320   33.2310   43.7640 O   0  0  0  0  0  0  0  0  0  0  0  0
   58.0980   33.5480   45.0070 C   0  0  0  0  0  0  0  0  0  0  0  0
   59.1930   34.4230   45.1460 C   0  0  0  0  0  0  0  0  0  0  0  0
   59.7370   34.6770   46.4090 C   0  0  0  0  0  0  0  0  0  0  0  0
   59.2330   34.0200   47.5360 C   0  0  0  0  0  0  0  0  0  0  0  0
   59.7580   34.3150   48.8340 N   0  0  0  0  0  0  0  0  0  0  0  0
   59.6620   33.6510   49.9620 C   0  0  0  0  0  0  0  0  0  0  0  0
   59.1490   34.3250   51.0230 N   0  0  0  0  0  0  0  0  0  0  0  0
   58.8800   33.7020   52.1920 C   0  0  0  0  0  0  0  0  0  0  0  0
   58.3890   34.3710   53.1450 O   0  0  0  0  0  0  0  0  0  0  0  0
   59.1190   32.3640   52.3270 N   0  0  0  0  0  0  0  0  0  0  0  0
   58.8210   31.6850   53.6050 C   0  0  0  0  0  0  0  0  0  0  0  0
   57.4610   30.9640   53.5640 C   0  0  0  0  0  0  0  0  0  0  0  0
   56.6060   31.3460   52.3510 C   0  0  0  0  0  0  0  0  0  0  0  0
   56.1100   30.1790   51.7270 O   0  0  0  0  0  0  0  0  0  0  0  0
   54.7520   30.0090   52.0670 C   0  0  0  0  0  0  0  0  0  0  0  0
   59.6890   31.6800   51.2850 C   0  0  0  0  0  0  0  0  0  0  0  0
   59.9240   30.4410   51.4060 O   0  0  0  0  0  0  0  0  0  0  0  0
   60.0290   32.3250   50.1170 N   0  0  0  0  0  0  0  0  0  0  0  0
   60.9670   31.6290   49.2030 C   0  0  0  0  0  0  0  0  0  0  0  0
   60.2850   30.7720   48.1590 C   0  0  0  0  0  0  0  0  0  0  0  0
   59.2010   29.9700   48.5560 C   0  0  0  0  0  0  0  0  0  0  0  0
   58.5310   29.1680   47.6280 C   0  0  0  0  0  0  0  0  0  0  0  0
   58.9240   29.1700   46.2760 C   0  0  0  0  0  0  0  0  0  0  0  0
   58.2890   28.3780   45.3070 O   0  0  0  0  0  0  0  0  0  0  0  0
   57.6860   28.8910   44.1240 C   0  0  0  0  0  0  0  0  0  0  0  0
   59.9850   29.9870   45.8740 C   0  0  0  0  0  0  0  0  0  0  0  0
   60.6580   30.7890   46.8010 C   0  0  0  0  0  0  0  0  0  0  0  0
   58.1080   33.1960   47.4110 C   0  0  0  0  0  0  0  0  0  0  0  0
   57.5520   32.9550   46.1520 C   0  0  0  0  0  0  0  0  0  0  0  0
   57.4932   33.4086   41.3538 H   0  0  0  0  0  0  0  0  0  0  0  0
   58.7088   32.1220   41.0474 H   0  0  0  0  0  0  0  0  0  0  0  0
   56.9577   31.7216   41.0474 H   0  0  0  0  0  0  0  0  0  0  0  0
   57.0585   31.2839   43.2554 H   0  0  0  0  0  0  0  0  0  0  0  0
   58.8157   31.7014   43.2504 H   0  0  0  0  0  0  0  0  0  0  0  0
   59.6221   34.9087   44.2572 H   0  0  0  0  0  0  0  0  0  0  0  0
   60.5632   35.3952   46.5163 H   0  0  0  0  0  0  0  0  0  0  0  0
   58.9150   35.3430   50.9280 H   0  0  0  0  0  0  0  0  0  0  0  0
   59.6101   30.9461   53.8084 H   0  0  0  0  0  0  0  0  0  0  0  0
   58.7809   32.4475   54.3969 H   0  0  0  0  0  0  0  0  0  0  0  0
   57.6421   29.8794   53.5353 H   0  0  0  0  0  0  0  0  0  0  0  0
   56.9045   31.2690   54.4625 H   0  0  0  0  0  0  0  0  0  0  0  0
   55.7624   31.9700   52.6811 H   0  0  0  0  0  0  0  0  0  0  0  0
   57.2238   31.9062   51.6337 H   0  0  0  0  0  0  0  0  0  0  0  0
   54.6470   29.9959   53.1619 H   0  0  0  0  0  0  0  0  0  0  0  0
   54.1633   30.8405   51.6522 H   0  0  0  0  0  0  0  0  0  0  0  0
   54.3864   29.0581   51.6522 H   0  0  0  0  0  0  0  0  0  0  0  0
   61.5733   32.3874   48.6860 H   0  0  0  0  0  0  0  0  0  0  0  0
   61.5740   30.9531   49.8233 H   0  0  0  0  0  0  0  0  0  0  0  0
   58.8769   29.9737   49.6072 H   0  0  0  0  0  0  0  0  0  0  0  0
   57.6941   28.5333   47.9549 H   0  0  0  0  0  0  0  0  0  0  0  0
   56.8742   29.5816   44.3961 H   0  0  0  0  0  0  0  0  0  0  0  0
   58.4409   29.4280   43.5309 H   0  0  0  0  0  0  0  0  0  0  0  0
   57.2769   28.0598   43.5309 H   0  0  0  0  0  0  0  0  0  0  0  0
   60.2934   29.9990   44.8182 H   0  0  0  0  0  0  0  0  0  0  0  0
   61.4827   31.4363   46.4680 H   0  0  0  0  0  0  0  0  0  0  0  0
   57.6611   32.7376   48.3055 H   0  0  0  0  0  0  0  0  0  0  0  0
   56.6778   32.2937   46.0595 H   0  0  0  0  0  0  0  0  0  0  0  0
  1  2  1  0
  2  3  1  0
  3  4  1  0
  4  5  2  0
  5  6  1  0
  6  7  2  0
  7  8  1  0
  8  9  2  3
  9 10  1  0
 10 11  1  0
 11 12  2  0
 11 13  1  0
 13 14  1  0
 14 15  1  0
 15 16  1  0
 16 17  1  0
 17 18  1  0
 13 19  1  0
 19 20  2  0
 19 21  1  0
 21 22  1  0
 22 23  1  0
 23 24  2  0
 24 25  1  0
 25 26  2  0
 26 27  1  0
 27 28  1  0
 26 29  1  0
 29 30  2  0
  7 31  1  0
 31 32  2  0
 32  4  1  0
 21  9  1  0
 30 23  1  0
  1 33  1  0
  1 34  1  0
  1 35  1  0
  2 36  1  0
  2 37  1  0
  5 38  1  0
  6 39  1  0
 10 40  1  0
 14 41  1  0
 14 42  1  0
 15 43  1  0
 15 44  1  0
 16 45  1  0
 16 46  1  0
 18 47  1  0
 18 48  1  0
 18 49  1  0
 22 50  1  0
 22 51  1  0
 24 52  1  0
 25 53  1  0
 28 54  1  0
 28 55  1  0
 28 56  1  0
 29 57  1  0
 30 58  1  0
 31 59  1  0
 32 60  1  0
M  END
>  <UniqueID>  (44) 
43

>  <SMILES>  (44) 
CCOc1ccc(N=c2[nH]c(=O)n(CCCOC)c(=O)n2Cc2ccc(OC)cc2)cc1

>  <Energy>  (44) 
82.86206528728738

>  <Genealogy>  (44) 
CCOc1ccc(N=c2[nH]c(=O)n(CCCOC)c(=O)n2Cc2ccc(OC)cc2)cc1 (3D coordinates assigned)
CCOc1ccc(N=c2[nH]c(=O)n(CCCOC)c(=O)n2Cc2ccc(OC)cc2)cc1 (optimized conformer: 82.86206528728738 kcal/mol)

>  <smiles>  (44) 
CCOc1ccc(N=c2[nH]c(=O)n(CCCOC)c(=O)n2Cc2ccc(OC)cc2)cc1

>  <score_type>  (44) 
oracle

>  <origin>  (44) 
adg

>  <m_score__min__energy>  (44) 
-7.5599999999999996

>  <m_primary>  (44) 
energy

$$$$
44:0
     RDKit          3D

 49 52  0  0  0  0  0  0  0  0999 V2000
   58.8080   34.2670   53.2870 C   0  0  0  0  0  0  0  0  0  0  0  0
   58.8220   33.3230   52.1230 C   0  0  0  0  0  0  0  0  0  0  0  0
   57.7760   32.4040   51.9440 C   0  0  0  0  0  0  0  0  0  0  0  0
   57.8090   31.4960   50.8820 C   0  0  0  0  0  0  0  0  0  0  0  0
   58.8990   31.4780   49.9990 C   0  0  0  0  0  0  0  0  0  0  0  0
   58.9540   30.5170   48.8830 C   0  0  0  0  0  0  0  0  0  0  0  0
   58.5250   29.2450   48.9890 N   0  0  0  0  0  0  0  0  0  0  0  0
   58.6270   28.6970   47.7880 N   0  0  0  0  0  0  0  0  0  0  0  0
   59.1070   29.6460   46.9640 C   0  0  0  0  0  0  0  0  0  0  0  0
   59.3300   29.3950   45.1990 S   0  0  0  0  0  0  0  0  0  0  0  0
   58.2040   27.9600   45.0960 C   0  0  0  0  0  0  0  0  0  0  0  0
   56.7810   28.3670   45.3630 C   0  0  0  0  0  0  0  0  0  0  0  0
   55.9310   27.4780   45.6270 O   0  0  0  0  0  0  0  0  0  0  0  0
   56.3360   29.7240   45.2220 N   0  0  0  0  0  0  0  0  0  0  0  0
   56.9060   30.7320   44.3760 C   0  0  0  0  0  0  0  0  0  0  0  0
   56.8200   30.5780   42.9860 C   0  0  0  0  0  0  0  0  0  0  0  0
   57.3430   31.5560   42.1350 C   0  0  0  0  0  0  0  0  0  0  0  0
   57.9370   32.7040   42.6650 C   0  0  0  0  0  0  0  0  0  0  0  0
   57.9980   32.8810   44.0540 C   0  0  0  0  0  0  0  0  0  0  0  0
   58.5900   34.0750   44.6020 C   0  0  0  0  0  0  0  0  0  0  0  0
   59.0660   35.0330   45.0410 N   0  0  0  0  0  0  0  0  0  0  0  0
   57.4750   31.9020   44.9070 C   0  0  0  0  0  0  0  0  0  0  0  0
   59.3300   30.8060   47.6150 N   0  0  0  0  0  0  0  0  0  0  0  0
   59.6620   32.1100   47.0330 C   0  0  0  0  0  0  0  0  0  0  0  0
   61.1340   32.3530   47.1280 C   0  0  0  0  0  0  0  0  0  0  0  0
   61.7760   33.5370   46.8270 C   0  0  0  0  0  0  0  0  0  0  0  0
   63.1090   33.3120   47.0980 C   0  0  0  0  0  0  0  0  0  0  0  0
   63.1950   32.0100   47.5470 C   0  0  0  0  0  0  0  0  0  0  0  0
   62.0010   31.4650   47.5550 O   0  0  0  0  0  0  0  0  0  0  0  0
   59.9420   32.4010   50.1750 C   0  0  0  0  0  0  0  0  0  0  0  0
   59.9110   33.3070   51.2370 C   0  0  0  0  0  0  0  0  0  0  0  0
   58.8165   33.6926   54.2251 H   0  0  0  0  0  0  0  0  0  0  0  0
   59.6966   34.9140   53.2451 H   0  0  0  0  0  0  0  0  0  0  0  0
   57.9006   34.8873   53.2451 H   0  0  0  0  0  0  0  0  0  0  0  0
   56.9265   32.3985   52.6428 H   0  0  0  0  0  0  0  0  0  0  0  0
   56.9762   30.7920   50.7378 H   0  0  0  0  0  0  0  0  0  0  0  0
   58.2697   27.5236   44.0884 H   0  0  0  0  0  0  0  0  0  0  0  0
   58.5053   27.2247   45.8566 H   0  0  0  0  0  0  0  0  0  0  0  0
   56.3390   29.6839   42.5627 H   0  0  0  0  0  0  0  0  0  0  0  0
   57.2866   31.4212   41.0447 H   0  0  0  0  0  0  0  0  0  0  0  0
   58.3561   33.4677   41.9933 H   0  0  0  0  0  0  0  0  0  0  0  0
   57.5096   32.0491   45.9966 H   0  0  0  0  0  0  0  0  0  0  0  0
   59.3579   32.1251   45.9760 H   0  0  0  0  0  0  0  0  0  0  0  0
   59.1297   32.8980   47.5859 H   0  0  0  0  0  0  0  0  0  0  0  0
   61.3203   34.4646   46.4503 H   0  0  0  0  0  0  0  0  0  0  0  0
   63.9371   34.0264   46.9801 H   0  0  0  0  0  0  0  0  0  0  0  0
   64.1236   31.5053   47.8520 H   0  0  0  0  0  0  0  0  0  0  0  0
   60.7883   32.4105   49.4724 H   0  0  0  0  0  0  0  0  0  0  0  0
   60.7436   34.0114   51.3801 H   0  0  0  0  0  0  0  0  0  0  0  0
  1  2  1  0
  2  3  2  0
  3  4  1  0
  4  5  2  0
  5  6  1  0
  6  7  2  0
  7  8  1  0
  8  9  2  0
  9 10  1  0
 10 11  1  0
 11 12  1  0
 12 13  2  0
 12 14  1  0
 14 15  1  0
 15 16  2  0
 16 17  1  0
 17 18  2  0
 18 19  1  0
 19 20  1  0
 20 21  3  0
 19 22  2  0
  9 23  1  0
 23 24  1  0
 24 25  1  0
 25 26  2  0
 26 27  1  0
 27 28  2  0
 28 29  1  0
  5 30  1  0
 30 31  2  0
 31  2  1  0
 23  6  1  0
 29 25  1  0
 22 15  1  0
  1 32  1  0
  1 33  1  0
  1 34  1  0
  3 35  1  0
  4 36  1  0
 11 37  1  0
 11 38  1  0
 16 39  1  0
 17 40  1  0
 18 41  1  0
 22 42  1  0
 24 43  1  0
 24 44  1  0
 26 45  1  0
 27 46  1  0
 28 47  1  0
 30 48  1  0
 31 49  1  0
M  CHG  1  14  -1
M  END
>  <UniqueID>  (45) 
44

>  <SMILES>  (45) 
Cc1ccc(-c2nnc(SCC(=O)[N-]c3cccc(C#N)c3)n2Cc2ccco2)cc1

>  <Energy>  (45) 
116.48850122584454

>  <Genealogy>  (45) 
Cc1ccc(-c2nnc(SCC(=O)[N-]c3cccc(C#N)c3)n2Cc2ccco2)cc1 (protonated)
Cc1ccc(-c2nnc(SCC(=O)[N-]c3cccc(C#N)c3)n2Cc2ccco2)cc1 (3D coordinates assigned)
Cc1ccc(-c2nnc(SCC(=O)[N-]c3cccc(C#N)c3)n2Cc2ccco2)cc1 (optimized conformer: 116.48850122584454 kcal/mol)

>  <smiles>  (45) 
Cc1ccc(-c2nnc(SCC(=O)Nc3cccc(C#N)c3)n2Cc2ccco2)cc1

>  <score_type>  (45) 
oracle

>  <origin>  (45) 
adg

>  <m_score__min__energy>  (45) 
-10.43

>  <m_primary>  (45) 
energy

$$$$
45:0
     RDKit          3D

 47 49  0  0  0  0  0  0  0  0999 V2000
   61.3150   32.3370   47.1530 C   0  0  0  0  0  0  0  0  0  0  0  0
   60.1540   31.5510   47.7570 C   0  0  0  0  0  0  0  0  0  0  0  0
   60.2240   30.0560   47.3630 C   0  0  0  0  0  0  0  0  0  0  0  0
   59.2000   29.5920   46.3760 N   0  0  2  0  0  0  0  0  0  0  0  0
   58.0210   30.4960   46.2420 C   0  0  0  0  0  0  0  0  0  0  0  0
   57.6990   30.8330   44.7980 C   0  0  0  0  0  0  0  0  0  0  0  0
   58.1640   32.0300   44.2250 C   0  0  0  0  0  0  0  0  0  0  0  0
   57.8450   32.3540   42.9030 C   0  0  0  0  0  0  0  0  0  0  0  0
   57.0420   31.4970   42.1460 C   0  0  0  0  0  0  0  0  0  0  0  0
   56.5470   30.3220   42.7150 C   0  0  0  0  0  0  0  0  0  0  0  0
   56.8630   29.9940   44.0370 C   0  0  0  0  0  0  0  0  0  0  0  0
   58.8640   28.1370   46.5310 C   0  0  2  0  0  0  0  0  0  0  0  0
   59.8600   27.2170   45.7910 C   0  0  0  0  0  0  0  0  0  0  0  0
   59.6640   25.7660   46.2330 C   0  0  0  0  0  0  0  0  0  0  0  0
   58.2250   25.3320   46.1110 C   0  0  0  0  0  0  0  0  0  0  0  0
   57.9370   23.9580   46.0750 C   0  0  0  0  0  0  0  0  0  0  0  0
   56.6160   23.5130   46.0050 C   0  0  0  0  0  0  0  0  0  0  0  0
   55.5680   24.4330   45.9800 C   0  0  0  0  0  0  0  0  0  0  0  0
   55.8330   25.8030   46.0310 C   0  0  0  0  0  0  0  0  0  0  0  0
   54.7710   26.7000   45.9940 O   0  0  0  0  0  0  0  0  0  0  0  0
   57.1620   26.2700   46.1170 C   0  0  0  0  0  0  0  0  0  0  0  0
   57.4170   27.7650   46.1300 C   0  0  0  0  0  0  0  0  0  0  0  0
   61.9336   32.7558   47.9604 H   0  0  0  0  0  0  0  0  0  0  0  0
   61.9275   31.6670   46.5317 H   0  0  0  0  0  0  0  0  0  0  0  0
   60.9205   33.1545   46.5317 H   0  0  0  0  0  0  0  0  0  0  0  0
   60.1955   31.6354   48.8530 H   0  0  0  0  0  0  0  0  0  0  0  0
   59.2126   31.9689   47.3707 H   0  0  0  0  0  0  0  0  0  0  0  0
   61.2180   29.8674   46.9313 H   0  0  0  0  0  0  0  0  0  0  0  0
   60.0224   29.4947   48.2873 H   0  0  0  0  0  0  0  0  0  0  0  0
   59.6990   29.6300   45.4560 H   0  0  0  0  0  0  0  0  0  0  0  0
   57.1467   30.0020   46.6909 H   0  0  0  0  0  0  0  0  0  0  0  0
   58.2660   31.4377   46.7550 H   0  0  0  0  0  0  0  0  0  0  0  0
   58.7832   32.7164   44.8212 H   0  0  0  0  0  0  0  0  0  0  0  0
   58.2267   33.2848   42.4582 H   0  0  0  0  0  0  0  0  0  0  0  0
   56.8000   31.7478   41.1027 H   0  0  0  0  0  0  0  0  0  0  0  0
   55.9068   29.6526   42.1217 H   0  0  0  0  0  0  0  0  0  0  0  0
   56.4561   29.0754   44.4849 H   0  0  0  0  0  0  0  0  0  0  0  0
   58.9500   27.9657   47.6142 H   0  0  0  0  0  0  0  0  0  0  0  0
   59.6892   27.2933   44.7070 H   0  0  0  0  0  0  0  0  0  0  0  0
   60.8865   27.5308   46.0314 H   0  0  0  0  0  0  0  0  0  0  0  0
   60.2869   25.1146   45.6023 H   0  0  0  0  0  0  0  0  0  0  0  0
   59.9555   25.6889   47.2909 H   0  0  0  0  0  0  0  0  0  0  0  0
   58.7586   23.2271   46.1022 H   0  0  0  0  0  0  0  0  0  0  0  0
   56.4010   22.4348   45.9695 H   0  0  0  0  0  0  0  0  0  0  0  0
   54.5286   24.0779   45.9199 H   0  0  0  0  0  0  0  0  0  0  0  0
   57.2214   28.1610   45.1226 H   0  0  0  0  0  0  0  0  0  0  0  0
   56.7476   28.2024   46.8854 H   0  0  0  0  0  0  0  0  0  0  0  0
  1  2  1  0
  2  3  1  0
  3  4  1  0
  4  5  1  0
  5  6  1  0
  6  7  2  0
  7  8  1  0
  8  9  2  0
  9 10  1  0
 10 11  2  0
  4 12  1  0
 12 13  1  0
 13 14  1  0
 14 15  1  0
 15 16  2  0
 16 17  1  0
 17 18  2  0
 18 19  1  0
 19 20  1  0
 19 21  2  0
 21 22  1  0
 11  6  1  0
 22 12  1  0
 21 15  1  0
  1 23  1  0
  1 24  1  0
  1 25  1  0
  2 26  1  0
  2 27  1  0
  3 28  1  0
  3 29  1  0
  4 30  1  6
  5 31  1  0
  5 32  1  0
  7 33  1  0
  8 34  1  0
  9 35  1  0
 10 36  1  0
 11 37  1  0
 12 38  1  1
 13 39  1  0
 13 40  1  0
 14 41  1  0
 14 42  1  0
 16 43  1  0
 17 44  1  0
 18 45  1  0
 22 46  1  0
 22 47  1  0
M  CHG  2   4   1  20  -1
M  END
>  <UniqueID>  (46) 
45

>  <SMILES>  (46) 
CCC[N@H+](Cc1ccccc1)[C@@H]1CCc2cccc([O-])c2C1

>  <Energy>  (46) 
61.938817814781686

>  <Genealogy>  (46) 
CCC[NH+](Cc1ccccc1)C1CCc2cccc([O-])c2C1 (protonated)
CCC[N@H+](Cc1ccccc1)[C@@H]1CCc2cccc([O-])c2C1 (chirality)
CCC[N@H+](Cc1ccccc1)[C@@H]1CCc2cccc([O-])c2C1 (3D coordinates assigned)
CCC[N@H+](Cc1ccccc1)[C@@H]1CCc2cccc([O-])c2C1 (nonaromatic ring conformer: 61.938817814781686 kcal/mol)

>  <smiles>  (46) 
CCCN(Cc1ccccc1)C1CCc2cccc(O)c2C1

>  <score_type>  (46) 
oracle

>  <origin>  (46) 
adg

>  <m_score__min__energy>  (46) 
-10.26

>  <m_primary>  (46) 
energy

$$$$
