0:0
     RDKit          3D

 29 29  0  0  0  0  0  0  0  0999 V2000
   58.5920   33.5270   44.6140 C   0  0  0  0  0  0  0  0  0  0  0  0
   57.3350   33.2440   45.4250 C   0  0  0  0  0  0  0  0  0  0  0  0
   56.6520   32.0570   44.8960 N   0  0  0  0  0  0  0  0  0  0  0  0
   57.3290   31.5270   43.7000 C   0  0  0  0  0  0  0  0  0  0  0  0
   57.0900   30.0200   43.5780 C   0  0  0  0  0  0  0  0  0  0  0  0
   56.3990   29.4750   44.7900 C   0  0  0  0  0  0  0  0  0  0  0  0
   55.1460   29.3350   44.7840 O   0  0  0  0  0  0  0  0  0  0  0  0
   57.1700   29.1370   45.9500 N   0  0  0  0  0  0  0  0  0  0  0  0
   58.4510   29.6780   46.3090 C   0  0  0  0  0  0  0  0  0  0  0  0
   58.4980   30.7460   47.2140 C   0  0  0  0  0  0  0  0  0  0  0  0
   59.7240   31.3180   47.5710 C   0  0  0  0  0  0  0  0  0  0  0  0
   60.9110   30.8360   47.0130 C   0  0  0  0  0  0  0  0  0  0  0  0
   62.5840   31.6200   47.4970 Br  0  0  0  0  0  0  0  0  0  0  0  0
   60.8710   29.7860   46.0890 C   0  0  0  0  0  0  0  0  0  0  0  0
   59.6470   29.2120   45.7320 C   0  0  0  0  0  0  0  0  0  0  0  0
   59.4337   33.7165   45.2964 H   0  0  0  0  0  0  0  0  0  0  0  0
   58.8225   32.6583   43.9798 H   0  0  0  0  0  0  0  0  0  0  0  0
   58.4280   34.4107   43.9798 H   0  0  0  0  0  0  0  0  0  0  0  0
   57.6112   33.0675   46.4750 H   0  0  0  0  0  0  0  0  0  0  0  0
   56.6593   34.1093   45.3570 H   0  0  0  0  0  0  0  0  0  0  0  0
   56.6690   31.3200   45.6420 H   0  0  0  0  0  0  0  0  0  0  0  0
   56.9331   32.0307   42.8058 H   0  0  0  0  0  0  0  0  0  0  0  0
   58.4097   31.7117   43.7893 H   0  0  0  0  0  0  0  0  0  0  0  0
   56.4653   29.8274   42.6933 H   0  0  0  0  0  0  0  0  0  0  0  0
   58.0661   29.5218   43.4834 H   0  0  0  0  0  0  0  0  0  0  0  0
   57.5655   31.1374   47.6467 H   0  0  0  0  0  0  0  0  0  0  0  0
   59.7535   32.1483   48.2919 H   0  0  0  0  0  0  0  0  0  0  0  0
   61.8040   29.4115   45.6427 H   0  0  0  0  0  0  0  0  0  0  0  0
   59.6188   28.3935   44.9977 H   0  0  0  0  0  0  0  0  0  0  0  0
  1  2  1  0
  2  3  1  0
  3  4  1  0
  4  5  1  0
  5  6  1  0
  6  7  2  0
  6  8  1  0
  8  9  1  0
  9 10  2  0
 10 11  1  0
 11 12  2  0
 12 13  1  0
 12 14  1  0
 14 15  2  0
 15  9  1  0
  1 16  1  0
  1 17  1  0
  1 18  1  0
  2 19  1  0
  2 20  1  0
  3 21  1  0
  4 22  1  0
  4 23  1  0
  5 24  1  0
  5 25  1  0
 10 26  1  0
 11 27  1  0
 14 28  1  0
 15 29  1  0
M  CHG  1   8  -1
M  END
>  <UniqueID>  (1) 
1

>  <SMILES>  (1) 
CCNCCC(=O)[N-]c1ccc(Br)cc1

>  <Energy>  (1) 
23.793045214168554

>  <Genealogy>  (1) 
CCNCCC(=O)[N-]c1ccc(Br)cc1 (protonated)
CCNCCC(=O)[N-]c1ccc(Br)cc1 (3D coordinates assigned)
CCNCCC(=O)[N-]c1ccc(Br)cc1 (optimized conformer: 23.793045214168554 kcal/mol)

>  <smiles>  (1) 
CCNCCC(=O)Nc1ccc(Br)cc1

>  <score_type>  (1) 
oracle

>  <origin>  (1) 
adg

>  <m_score__min__energy>  (1) 
-7.8200000000000003

>  <m_primary>  (1) 
energy

$$$$
1:0
     RDKit          3D

 38 40  0  0  0  0  0  0  0  0999 V2000
   65.2360   31.9060   50.4600 C   0  0  0  0  0  0  0  0  0  0  0  0
   64.9580   33.3610   50.0990 C   0  0  0  0  0  0  0  0  0  0  0  0
   63.9210   33.4420   49.0610 N   0  0  0  0  0  0  0  0  0  0  0  0
   64.2350   33.0900   47.7970 N   0  0  0  0  0  0  0  0  0  0  0  0
   63.3160   33.1130   46.7860 C   0  0  0  0  0  0  0  0  0  0  0  0
   62.0260   33.5080   47.0940 C   0  0  0  0  0  0  0  0  0  0  0  0
   60.8940   33.6140   46.3170 C   0  0  0  0  0  0  0  0  0  0  0  0
   59.8750   34.0300   47.1070 N   0  0  0  0  0  0  0  0  0  0  0  0
   58.4840   34.1910   46.6920 C   0  0  0  0  0  0  0  0  0  0  0  0
   58.1680   33.2310   45.5790 C   0  0  0  0  0  0  0  0  0  0  0  0
   58.3270   33.6220   44.2410 C   0  0  0  0  0  0  0  0  0  0  0  0
   58.0860   32.7120   43.2080 C   0  0  0  0  0  0  0  0  0  0  0  0
   57.6900   31.4050   43.5040 C   0  0  0  0  0  0  0  0  0  0  0  0
   57.5260   31.0000   44.8370 C   0  0  0  0  0  0  0  0  0  0  0  0
   57.1520   29.5830   45.1550 C   0  0  0  0  0  0  0  0  0  0  0  0
   57.7860   31.9110   45.8730 C   0  0  0  0  0  0  0  0  0  0  0  0
   60.3480   34.1700   48.3690 C   0  0  0  0  0  0  0  0  0  0  0  0
   61.6900   33.8530   48.3670 C   0  0  0  0  0  0  0  0  0  0  0  0
   62.6350   33.8190   49.3840 C   0  0  0  0  0  0  0  0  0  0  0  0
   62.3140   34.1230   50.5650 O   0  0  0  0  0  0  0  0  0  0  0  0
   65.2568   31.7973   51.5544 H   0  0  0  0  0  0  0  0  0  0  0  0
   64.4437   31.2669   50.0430 H   0  0  0  0  0  0  0  0  0  0  0  0
   66.2081   31.6040   50.0430 H   0  0  0  0  0  0  0  0  0  0  0  0
   64.6158   33.8980   50.9960 H   0  0  0  0  0  0  0  0  0  0  0  0
   65.8829   33.8166   49.7157 H   0  0  0  0  0  0  0  0  0  0  0  0
   65.2070   32.7820   47.5650 H   0  0  0  0  0  0  0  0  0  0  0  0
   63.5927   32.8268   45.7605 H   0  0  0  0  0  0  0  0  0  0  0  0
   60.8284   33.3981   45.2404 H   0  0  0  0  0  0  0  0  0  0  0  0
   57.8224   33.9886   47.5472 H   0  0  0  0  0  0  0  0  0  0  0  0
   58.3286   35.2206   46.3374 H   0  0  0  0  0  0  0  0  0  0  0  0
   58.6426   34.6488   44.0041 H   0  0  0  0  0  0  0  0  0  0  0  0
   58.2082   33.0250   42.1606 H   0  0  0  0  0  0  0  0  0  0  0  0
   57.5061   30.6905   42.6881 H   0  0  0  0  0  0  0  0  0  0  0  0
   57.1167   29.4492   46.2463 H   0  0  0  0  0  0  0  0  0  0  0  0
   56.1641   29.3594   44.7260 H   0  0  0  0  0  0  0  0  0  0  0  0
   57.9009   28.9010   44.7260 H   0  0  0  0  0  0  0  0  0  0  0  0
   57.6902   31.5898   46.9207 H   0  0  0  0  0  0  0  0  0  0  0  0
   59.7616   34.4831   49.2454 H   0  0  0  0  0  0  0  0  0  0  0  0
  1  2  1  0
  2  3  1  0
  3  4  1  0
  4  5  2  0
  5  6  1  0
  6  7  2  0
  7  8  1  0
  8  9  1  0
  9 10  1  0
 10 11  2  0
 11 12  1  0
 12 13  2  0
 13 14  1  0
 14 15  1  0
 14 16  2  0
  8 17  1  0
 17 18  2  0
 18 19  1  0
 19 20  2  0
 19  3  1  0
 18  6  1  0
 16 10  1  0
  1 21  1  0
  1 22  1  0
  1 23  1  0
  2 24  1  0
  2 25  1  0
  4 26  1  0
  5 27  1  0
  7 28  1  0
  9 29  1  0
  9 30  1  0
 11 31  1  0
 12 32  1  0
 13 33  1  0
 15 34  1  0
 15 35  1  0
 15 36  1  0
 16 37  1  0
 17 38  1  0
M  CHG  1   4   1
M  END
>  <UniqueID>  (2) 
2

>  <SMILES>  (2) 
CCn1[nH+]cc2cn(Cc3cccc(C)c3)cc2c1=O

>  <Energy>  (2) 
71.19327156577027

>  <Genealogy>  (2) 
CCn1[nH+]cc2cn(Cc3cccc(C)c3)cc2c1=O (protonated)
CCn1[nH+]cc2cn(Cc3cccc(C)c3)cc2c1=O (3D coordinates assigned)
CCn1[nH+]cc2cn(Cc3cccc(C)c3)cc2c1=O (optimized conformer: 71.19327156577027 kcal/mol)

>  <smiles>  (2) 
CCn1ncc2cn(Cc3cccc(C)c3)cc2c1=O

>  <score_type>  (2) 
oracle

>  <origin>  (2) 
adg

>  <m_score__min__energy>  (2) 
-6.3600000000000003

>  <m_primary>  (2) 
energy

$$$$
2:0
     RDKit          3D

 33 33  0  0  0  0  0  0  0  0999 V2000
   59.4310   25.7280   46.0270 C   0  0  0  0  0  0  0  0  0  0  0  0
   58.7790   27.0330   45.6460 C   0  0  0  0  0  0  0  0  0  0  0  0
   59.5720   28.0610   45.1150 C   0  0  0  0  0  0  0  0  0  0  0  0
   59.0040   29.2830   44.7520 C   0  0  0  0  0  0  0  0  0  0  0  0
   57.6280   29.5040   44.9070 C   0  0  0  0  0  0  0  0  0  0  0  0
   57.0410   30.8090   44.5070 C   0  0  0  0  0  0  0  0  0  0  0  0
   55.7850   30.9380   44.4940 O   0  0  0  0  0  0  0  0  0  0  0  0
   57.9060   31.9660   44.0620 C   0  0  0  0  0  0  0  0  0  0  0  0
   58.3170   32.8990   45.2230 C   0  0  0  0  0  0  0  0  0  0  0  0
   57.0690   33.4280   45.9400 C   0  0  0  0  0  0  0  0  0  0  0  0
   59.1720   34.0730   44.7230 C   0  0  0  0  0  0  0  0  0  0  0  0
   56.8330   28.4860   45.4610 C   0  0  0  0  0  0  0  0  0  0  0  0
   57.3960   27.2570   45.8480 C   0  0  0  0  0  0  0  0  0  0  0  0
   56.4920   26.1890   46.4170 C   0  0  0  0  0  0  0  0  0  0  0  0
   55.1490   26.5320   46.2130 O   0  0  0  0  0  0  0  0  0  0  0  0
   59.4724   25.6451   47.1231 H   0  0  0  0  0  0  0  0  0  0  0  0
   58.8447   24.8920   45.6179 H   0  0  0  0  0  0  0  0  0  0  0  0
   60.4516   25.6948   45.6179 H   0  0  0  0  0  0  0  0  0  0  0  0
   60.6525   27.9024   44.9834 H   0  0  0  0  0  0  0  0  0  0  0  0
   59.6413   30.0797   44.3407 H   0  0  0  0  0  0  0  0  0  0  0  0
   58.8180   31.5626   43.5978 H   0  0  0  0  0  0  0  0  0  0  0  0
   57.3133   32.5649   43.3549 H   0  0  0  0  0  0  0  0  0  0  0  0
   58.9235   32.3131   45.9293 H   0  0  0  0  0  0  0  0  0  0  0  0
   57.2171   33.3652   47.0282 H   0  0  0  0  0  0  0  0  0  0  0  0
   56.8979   34.4760   45.6531 H   0  0  0  0  0  0  0  0  0  0  0  0
   56.1968   32.8222   45.6531 H   0  0  0  0  0  0  0  0  0  0  0  0
   59.5748   34.6261   45.5842 H   0  0  0  0  0  0  0  0  0  0  0  0
   60.0027   33.6881   44.1133 H   0  0  0  0  0  0  0  0  0  0  0  0
   58.5507   34.7455   44.1133 H   0  0  0  0  0  0  0  0  0  0  0  0
   55.7539   28.6532   45.5939 H   0  0  0  0  0  0  0  0  0  0  0  0
   56.7022   25.2315   45.9180 H   0  0  0  0  0  0  0  0  0  0  0  0
   56.6791   26.0989   47.4972 H   0  0  0  0  0  0  0  0  0  0  0  0
   54.7670   26.7250   47.1090 H   0  0  0  0  0  0  0  0  0  0  0  0
  1  2  1  0
  2  3  2  0
  3  4  1  0
  4  5  2  0
  5  6  1  0
  6  7  2  0
  6  8  1  0
  8  9  1  0
  9 10  1  0
  9 11  1  0
  5 12  1  0
 12 13  2  0
 13 14  1  0
 14 15  1  0
 13  2  1  0
  1 16  1  0
  1 17  1  0
  1 18  1  0
  3 19  1  0
  4 20  1  0
  8 21  1  0
  8 22  1  0
  9 23  1  0
 10 24  1  0
 10 25  1  0
 10 26  1  0
 11 27  1  0
 11 28  1  0
 11 29  1  0
 12 30  1  0
 14 31  1  0
 14 32  1  0
 15 33  1  0
M  END
>  <UniqueID>  (3) 
3

>  <SMILES>  (3) 
Cc1ccc(C(=O)CC(C)C)cc1CO

>  <Energy>  (3) 
28.26218644537234

>  <Genealogy>  (3) 
Cc1ccc(C(=O)CC(C)C)cc1CO (3D coordinates assigned)
Cc1ccc(C(=O)CC(C)C)cc1CO (optimized conformer: 28.26218644537234 kcal/mol)

>  <smiles>  (3) 
Cc1ccc(C(=O)CC(C)C)cc1CO

>  <score_type>  (3) 
oracle

>  <origin>  (3) 
adg

>  <m_score__min__energy>  (3) 
-7.3600000000000003

>  <m_primary>  (3) 
energy

$$$$
3:0
     RDKit          3D

 38 41  0  0  0  0  0  0  0  0999 V2000
   56.2480   19.9950   44.0130 C   0  0  0  0  0  0  0  0  0  0  0  0
   56.0460   21.2360   43.3450 O   0  0  0  0  0  0  0  0  0  0  0  0
   56.5590   22.4650   43.7860 C   0  0  0  0  0  0  0  0  0  0  0  0
   57.1590   22.5210   45.0470 C   0  0  0  0  0  0  0  0  0  0  0  0
   57.6860   23.7210   45.5340 C   0  0  0  0  0  0  0  0  0  0  0  0
   57.6200   24.8960   44.7620 C   0  0  0  0  0  0  0  0  0  0  0  0
   58.1580   26.1450   45.2460 N   0  0  0  0  0  0  0  0  0  0  0  0
   57.7220   27.3970   44.9820 C   0  0  0  0  0  0  0  0  0  0  0  0
   58.5560   28.2550   45.6650 C   0  0  0  0  0  0  0  0  0  0  0  0
   58.4910   29.7220   45.6920 C   0  0  0  0  0  0  0  0  0  0  0  0
   57.3940   30.4160   45.2900 N   0  0  0  0  0  0  0  0  0  0  0  0
   57.7710   31.6880   45.4820 C   0  0  0  0  0  0  0  0  0  0  0  0
   57.0290   32.8420   45.2430 C   0  0  0  0  0  0  0  0  0  0  0  0
   57.6350   34.0790   45.5280 C   0  0  0  0  0  0  0  0  0  0  0  0
   58.9610   34.1360   46.0290 C   0  0  0  0  0  0  0  0  0  0  0  0
   59.5820   35.4590   46.3660 C   0  0  0  0  0  0  0  0  0  0  0  0
   59.6720   32.9380   46.2700 C   0  0  0  0  0  0  0  0  0  0  0  0
   59.0370   31.7350   45.9760 C   0  0  0  0  0  0  0  0  0  0  0  0
   59.5240   30.4940   46.1220 N   0  0  0  0  0  0  0  0  0  0  0  0
   59.4650   27.5080   46.3170 N   0  0  0  0  0  0  0  0  0  0  0  0
   59.2100   26.2370   46.0500 N   0  0  0  0  0  0  0  0  0  0  0  0
   57.0170   24.8350   43.4930 C   0  0  0  0  0  0  0  0  0  0  0  0
   56.4900   23.6340   43.0080 C   0  0  0  0  0  0  0  0  0  0  0  0
   56.2218   20.1557   45.1009 H   0  0  0  0  0  0  0  0  0  0  0  0
   55.4526   19.2910   43.7271 H   0  0  0  0  0  0  0  0  0  0  0  0
   57.2256   19.5796   43.7271 H   0  0  0  0  0  0  0  0  0  0  0  0
   57.2172   21.6114   45.6628 H   0  0  0  0  0  0  0  0  0  0  0  0
   58.1559   23.7470   46.5283 H   0  0  0  0  0  0  0  0  0  0  0  0
   56.8686   27.6761   44.3465 H   0  0  0  0  0  0  0  0  0  0  0  0
   56.0048   32.7881   44.8453 H   0  0  0  0  0  0  0  0  0  0  0  0
   57.0753   35.0111   45.3608 H   0  0  0  0  0  0  0  0  0  0  0  0
   59.6348   35.5715   47.4590 H   0  0  0  0  0  0  0  0  0  0  0  0
   60.5964   35.5063   45.9431 H   0  0  0  0  0  0  0  0  0  0  0  0
   58.9703   36.2695   45.9431 H   0  0  0  0  0  0  0  0  0  0  0  0
   60.6939   32.9561   46.6767 H   0  0  0  0  0  0  0  0  0  0  0  0
   60.2430   27.8440   46.9260 H   0  0  0  0  0  0  0  0  0  0  0  0
   56.9592   25.7429   42.8746 H   0  0  0  0  0  0  0  0  0  0  0  0
   56.0197   23.6038   42.0141 H   0  0  0  0  0  0  0  0  0  0  0  0
  1  2  1  0
  2  3  1  0
  3  4  2  0
  4  5  1  0
  5  6  2  0
  6  7  1  0
  7  8  1  0
  8  9  2  0
  9 10  1  0
 10 11  2  0
 11 12  1  0
 12 13  2  0
 13 14  1  0
 14 15  2  0
 15 16  1  0
 15 17  1  0
 17 18  2  0
 18 19  1  0
  9 20  1  0
 20 21  2  0
  6 22  1  0
 22 23  2  0
 23  3  1  0
 21  7  1  0
 19 10  1  0
 18 12  1  0
  1 24  1  0
  1 25  1  0
  1 26  1  0
  4 27  1  0
  5 28  1  0
  8 29  1  0
 13 30  1  0
 14 31  1  0
 16 32  1  0
 16 33  1  0
 16 34  1  0
 17 35  1  0
 20 36  1  0
 22 37  1  0
 23 38  1  0
M  CHG  2  19  -1  20   1
M  END
>  <UniqueID>  (4) 
4

>  <SMILES>  (4) 
COc1ccc(-n2cc(-c3nc4ccc(C)cc4[n-]3)[nH+]n2)cc1

>  <Energy>  (4) 
112.91871282908862

>  <Genealogy>  (4) 
COc1ccc(-n2cc(-c3nc4ccc(C)cc4[n-]3)[nH+]n2)cc1 (protonated)
COc1ccc(-n2cc(-c3nc4ccc(C)cc4[n-]3)[nH+]n2)cc1 (3D coordinates assigned)
COc1ccc(-n2cc(-c3nc4ccc(C)cc4[n-]3)[nH+]n2)cc1 (optimized conformer: 112.91871282908862 kcal/mol)

>  <smiles>  (4) 
COc1ccc(-n2cc(-c3nc4ccc(C)cc4[nH]3)nn2)cc1

>  <score_type>  (4) 
oracle

>  <origin>  (4) 
adg

>  <m_score__min__energy>  (4) 
-7.0899999999999999

>  <m_primary>  (4) 
energy

$$$$
4:0
     RDKit          3D

 45 47  0  0  0  0  0  0  0  0999 V2000
   55.3480   24.1680   45.0250 C   0  0  0  0  0  0  0  0  0  0  0  0
   54.4020   25.2050   45.6140 C   0  0  0  0  0  0  0  0  0  0  0  0
   55.1560   26.3940   45.9960 N   0  0  0  0  0  0  0  0  0  0  0  0
   56.5520   26.4120   46.3210 C   0  0  0  0  0  0  0  0  0  0  0  0
   56.9330   25.8090   47.3600 O   0  0  0  0  0  0  0  0  0  0  0  0
   57.5790   27.0610   45.4140 C   0  0  0  0  0  0  0  0  0  0  0  0
   58.9650   27.0770   46.1080 C   0  0  0  0  0  0  0  0  0  0  0  0
   59.8000   28.2870   45.6910 C   0  0  0  0  0  0  0  0  0  0  0  0
   59.0840   29.5250   46.0370 N   0  0  0  0  0  0  0  0  0  0  0  0
   59.7810   30.6090   46.6840 C   0  0  0  0  0  0  0  0  0  0  0  0
   60.7500   30.3600   47.4510 O   0  0  0  0  0  0  0  0  0  0  0  0
   59.3650   32.0180   46.5020 C   0  0  0  0  0  0  0  0  0  0  0  0
   58.0320   32.2850   46.1460 C   0  0  0  0  0  0  0  0  0  0  0  0
   57.6120   33.5930   45.9000 C   0  0  0  0  0  0  0  0  0  0  0  0
   58.5140   34.6500   46.0110 C   0  0  0  0  0  0  0  0  0  0  0  0
   59.8340   34.4060   46.3900 C   0  0  0  0  0  0  0  0  0  0  0  0
   60.2710   33.0980   46.6580 C   0  0  0  0  0  0  0  0  0  0  0  0
   61.6160   32.8870   47.1220 N   0  0  0  0  0  0  0  0  0  0  0  0
   62.7000   33.2570   46.4520 N   0  0  0  0  0  0  0  0  0  0  0  0
   63.7540   32.8620   47.1960 C   0  0  0  0  0  0  0  0  0  0  0  0
   63.2700   32.2370   48.3280 C   0  0  0  0  0  0  0  0  0  0  0  0
   61.9310   32.2650   48.2480 N   0  0  0  0  0  0  0  0  0  0  0  0
   57.6230   29.5970   45.8440 C   0  0  0  0  0  0  0  0  0  0  0  0
   57.1210   28.4640   44.9370 C   0  0  0  0  0  0  0  0  0  0  0  0
   55.8463   23.6218   45.8394 H   0  0  0  0  0  0  0  0  0  0  0  0
   54.7771   23.4611   44.4050 H   0  0  0  0  0  0  0  0  0  0  0  0
   56.1042   24.6717   44.4050 H   0  0  0  0  0  0  0  0  0  0  0  0
   53.6444   25.4771   44.8643 H   0  0  0  0  0  0  0  0  0  0  0  0
   53.9070   24.7853   46.5021 H   0  0  0  0  0  0  0  0  0  0  0  0
   57.6763   26.4579   44.4992 H   0  0  0  0  0  0  0  0  0  0  0  0
   58.8163   27.1065   47.1975 H   0  0  0  0  0  0  0  0  0  0  0  0
   59.5073   26.1692   45.8049 H   0  0  0  0  0  0  0  0  0  0  0  0
   60.7659   28.2638   46.2169 H   0  0  0  0  0  0  0  0  0  0  0  0
   59.9707   28.2557   44.6048 H   0  0  0  0  0  0  0  0  0  0  0  0
   57.3137   31.4563   46.0605 H   0  0  0  0  0  0  0  0  0  0  0  0
   56.5672   33.7902   45.6180 H   0  0  0  0  0  0  0  0  0  0  0  0
   58.1844   35.6779   45.7994 H   0  0  0  0  0  0  0  0  0  0  0  0
   60.5392   35.2454   46.4799 H   0  0  0  0  0  0  0  0  0  0  0  0
   64.8143   33.0118   46.9445 H   0  0  0  0  0  0  0  0  0  0  0  0
   63.8683   31.7994   49.1407 H   0  0  0  0  0  0  0  0  0  0  0  0
   61.2540   31.8810   48.9440 H   0  0  0  0  0  0  0  0  0  0  0  0
   57.1283   29.5173   46.8233 H   0  0  0  0  0  0  0  0  0  0  0  0
   57.3843   30.5570   45.3630 H   0  0  0  0  0  0  0  0  0  0  0  0
   56.0214   28.4878   44.9216 H   0  0  0  0  0  0  0  0  0  0  0  0
   57.5481   28.6282   43.9367 H   0  0  0  0  0  0  0  0  0  0  0  0
  1  2  1  0
  2  3  1  0
  3  4  1  0
  4  5  2  0
  4  6  1  0
  6  7  1  0
  7  8  1  0
  8  9  1  0
  9 10  1  0
 10 11  2  0
 10 12  1  0
 12 13  2  0
 13 14  1  0
 14 15  2  0
 15 16  1  0
 16 17  2  0
 17 18  1  0
 18 19  1  0
 19 20  2  0
 20 21  1  0
 21 22  2  0
  9 23  1  0
 23 24  1  0
 24  6  1  0
 17 12  1  0
 22 18  1  0
  1 25  1  0
  1 26  1  0
  1 27  1  0
  2 28  1  0
  2 29  1  0
  6 30  1  0
  7 31  1  0
  7 32  1  0
  8 33  1  0
  8 34  1  0
 13 35  1  0
 14 36  1  0
 15 37  1  0
 16 38  1  0
 20 39  1  0
 21 40  1  0
 22 41  1  0
 23 42  1  0
 23 43  1  0
 24 44  1  0
 24 45  1  0
M  CHG  2   3  -1  22   1
M  END
>  <UniqueID>  (5) 
5

>  <SMILES>  (5) 
CC[N-]C(=O)C1CCN(C(=O)c2ccccc2-n2ncc[nH+]2)CC1

>  <Energy>  (5) 
88.39615707810461

>  <Genealogy>  (5) 
CC[N-]C(=O)C1CCN(C(=O)c2ccccc2-n2ncc[nH+]2)CC1 (protonated)
CC[N-]C(=O)C1CCN(C(=O)c2ccccc2-n2ncc[nH+]2)CC1 (3D coordinates assigned)
CC[N-]C(=O)C1CCN(C(=O)c2ccccc2-n2ncc[nH+]2)CC1 (nonaromatic ring conformer: 88.39615707810461 kcal/mol)

>  <smiles>  (5) 
CCNC(=O)C1CCN(C(=O)c2ccccc2-n2nccn2)CC1

>  <score_type>  (5) 
oracle

>  <origin>  (5) 
adg

>  <m_score__min__energy>  (5) 
-9.0899999999999999

>  <m_primary>  (5) 
energy

$$$$
5:0
     RDKit          3D

 41 44  0  0  0  0  0  0  0  0999 V2000
   54.1430   24.2720   45.6140 C   0  0  0  0  0  0  0  0  0  0  0  0
   55.5980   24.6330   45.6720 C   0  0  0  0  0  0  0  0  0  0  0  0
   56.5770   23.6510   45.4650 C   0  0  0  0  0  0  0  0  0  0  0  0
   57.9370   23.9900   45.4820 C   0  0  0  0  0  0  0  0  0  0  0  0
   58.9790   22.9410   45.2270 C   0  0  0  0  0  0  0  0  0  0  0  0
   58.3140   25.3290   45.6680 C   0  0  0  0  0  0  0  0  0  0  0  0
   57.3440   26.3240   45.8680 C   0  0  0  0  0  0  0  0  0  0  0  0
   57.7410   27.6950   46.0580 N   0  0  0  0  0  0  0  0  0  0  0  0
   58.2250   28.2860   47.1890 C   0  0  0  0  0  0  0  0  0  0  0  0
   58.4740   29.6240   47.0510 N   0  0  0  0  0  0  0  0  0  0  0  0
   58.1160   29.8380   45.7730 C   0  0  0  0  0  0  0  0  0  0  0  0
   58.0600   30.9810   44.9800 C   0  0  0  0  0  0  0  0  0  0  0  0
   58.4700   32.3300   45.4270 C   0  0  0  0  0  0  0  0  0  0  0  0
   58.8200   33.3200   44.4920 C   0  0  0  0  0  0  0  0  0  0  0  0
   59.2160   34.5900   44.9220 C   0  0  0  0  0  0  0  0  0  0  0  0
   59.2720   34.8830   46.2870 C   0  0  0  0  0  0  0  0  0  0  0  0
   59.6560   36.1140   46.7010 F   0  0  0  0  0  0  0  0  0  0  0  0
   58.9350   33.9030   47.2250 C   0  0  0  0  0  0  0  0  0  0  0  0
   58.5400   32.6310   46.7990 C   0  0  0  0  0  0  0  0  0  0  0  0
   57.5200   30.6470   43.7140 C   0  0  0  0  0  0  0  0  0  0  0  0
   57.2620   31.5930   42.5850 C   0  0  0  0  0  0  0  0  0  0  0  0
   57.1550   28.9710   43.6340 S   0  0  0  0  0  0  0  0  0  0  0  0
   57.7000   28.7180   45.1970 C   0  0  0  0  0  0  0  0  0  0  0  0
   55.9850   25.9680   45.8590 C   0  0  0  0  0  0  0  0  0  0  0  0
   53.7485   24.1741   46.6361 H   0  0  0  0  0  0  0  0  0  0  0  0
   53.5906   25.0603   45.0817 H   0  0  0  0  0  0  0  0  0  0  0  0
   54.0231   23.3169   45.0817 H   0  0  0  0  0  0  0  0  0  0  0  0
   56.2759   22.6079   45.2881 H   0  0  0  0  0  0  0  0  0  0  0  0
   59.3579   22.5596   46.1867 H   0  0  0  0  0  0  0  0  0  0  0  0
   58.5343   22.1142   44.6537 H   0  0  0  0  0  0  0  0  0  0  0  0
   59.8087   23.3801   44.6537 H   0  0  0  0  0  0  0  0  0  0  0  0
   59.3797   25.6015   45.6570 H   0  0  0  0  0  0  0  0  0  0  0  0
   58.3990   27.7366   48.1260 H   0  0  0  0  0  0  0  0  0  0  0  0
   58.7820   33.0940   43.4161 H   0  0  0  0  0  0  0  0  0  0  0  0
   59.4841   35.3603   44.1840 H   0  0  0  0  0  0  0  0  0  0  0  0
   58.9806   34.1327   48.2998 H   0  0  0  0  0  0  0  0  0  0  0  0
   58.2825   31.8613   47.5414 H   0  0  0  0  0  0  0  0  0  0  0  0
   56.9927   32.5804   42.9882 H   0  0  0  0  0  0  0  0  0  0  0  0
   58.1682   31.6836   41.9681 H   0  0  0  0  0  0  0  0  0  0  0  0
   56.4353   31.2109   41.9681 H   0  0  0  0  0  0  0  0  0  0  0  0
   55.2175   26.7433   45.9999 H   0  0  0  0  0  0  0  0  0  0  0  0
  1  2  1  0
  2  3  2  0
  3  4  1  0
  4  5  1  0
  4  6  2  0
  6  7  1  0
  7  8  1  0
  8  9  1  0
  9 10  2  0
 10 11  1  0
 11 12  1  0
 12 13  1  0
 13 14  2  0
 14 15  1  0
 15 16  2  0
 16 17  1  0
 16 18  1  0
 18 19  2  0
 12 20  2  0
 20 21  1  0
 20 22  1  0
 22 23  1  0
  7 24  2  0
 24  2  1  0
 23  8  1  0
 23 11  2  0
 19 13  1  0
  1 25  1  0
  1 26  1  0
  1 27  1  0
  3 28  1  0
  5 29  1  0
  5 30  1  0
  5 31  1  0
  6 32  1  0
  9 33  1  0
 14 34  1  0
 15 35  1  0
 18 36  1  0
 19 37  1  0
 21 38  1  0
 21 39  1  0
 21 40  1  0
 24 41  1  0
M  END
>  <UniqueID>  (6) 
6

>  <SMILES>  (6) 
Cc1cc(C)cc(-n2cnc3c(-c4ccc(F)cc4)c(C)sc32)c1

>  <Energy>  (6) 
131.7148802782347

>  <Genealogy>  (6) 
Cc1cc(C)cc(-n2cnc3c(-c4ccc(F)cc4)c(C)sc32)c1 (3D coordinates assigned)
Cc1cc(C)cc(-n2cnc3c(-c4ccc(F)cc4)c(C)sc32)c1 (optimized conformer: 131.7148802782347 kcal/mol)

>  <smiles>  (6) 
Cc1cc(C)cc(-n2cnc3c(-c4ccc(F)cc4)c(C)sc32)c1

>  <score_type>  (6) 
oracle

>  <origin>  (6) 
adg

>  <m_score__min__energy>  (6) 
-7.7199999999999998

>  <m_primary>  (6) 
energy

$$$$
6:0
     RDKit          3D

 35 37  0  0  0  0  0  0  0  0999 V2000
   65.1282   33.3662   49.0768 H   0  0  0  0  0  0  0  0  0  0  0  0
   64.1690   33.1050   48.6060 C   0  0  0  0  0  0  0  0  0  0  0  0
   63.3940   32.0650   49.1270 C   0  0  0  0  0  0  0  0  0  0  0  0
   63.7441   31.5087   50.0090 H   0  0  0  0  0  0  0  0  0  0  0  0
   62.1750   31.7300   48.5300 C   0  0  0  0  0  0  0  0  0  0  0  0
   61.5699   30.9104   48.9449 H   0  0  0  0  0  0  0  0  0  0  0  0
   61.7170   32.4360   47.4000 C   0  0  0  0  0  0  0  0  0  0  0  0
   60.4210   32.0820   46.7650 C   0  0  0  0  0  0  0  0  0  0  0  0
   60.0350   30.7380   46.6340 C   0  0  0  0  0  0  0  0  0  0  0  0
   60.6925   29.9409   47.0112 H   0  0  0  0  0  0  0  0  0  0  0  0
   58.8220   30.4080   46.0280 C   0  0  0  0  0  0  0  0  0  0  0  0
   58.5240   29.3523   45.9466 H   0  0  0  0  0  0  0  0  0  0  0  0
   57.9810   31.4050   45.5230 C   0  0  0  0  0  0  0  0  0  0  0  0
   56.7650   31.0050   44.8730 N   0  0  0  0  0  0  0  0  0  0  0  0
   56.4530   29.6830   44.4100 C   0  0  0  0  0  0  0  0  0  0  0  0
   56.8070   29.3450   43.2520 O   0  0  0  0  0  0  0  0  0  0  0  0
   55.7750   28.7260   45.2370 N   0  0  0  0  0  0  0  0  0  0  0  0
   56.2640   27.5880   45.6310 C   0  0  0  0  0  0  0  0  0  0  0  0
   55.5370   26.5670   46.1260 N   0  0  0  0  0  0  0  0  0  0  0  0
   56.3800   25.6080   46.3780 O   0  0  0  0  0  0  0  0  0  0  0  0
   57.6060   25.9600   46.0590 C   0  0  0  0  0  0  0  0  0  0  0  0
   58.8090   25.0990   46.2450 C   0  0  0  0  0  0  0  0  0  0  0  0
   58.9996   24.9626   47.3197 H   0  0  0  0  0  0  0  0  0  0  0  0
   58.6347   24.1193   45.7762 H   0  0  0  0  0  0  0  0  0  0  0  0
   59.6802   25.5800   45.7762 H   0  0  0  0  0  0  0  0  0  0  0  0
   57.5950   27.2460   45.5610 C   0  0  0  0  0  0  0  0  0  0  0  0
   58.4405   27.8488   45.1979 H   0  0  0  0  0  0  0  0  0  0  0  0
   58.3390   32.7610   45.6920 C   0  0  0  0  0  0  0  0  0  0  0  0
   57.2570   34.0780   45.2530 Cl  0  0  0  0  0  0  0  0  0  0  0  0
   59.5570   33.0870   46.2990 C   0  0  0  0  0  0  0  0  0  0  0  0
   59.8415   34.1435   46.4127 H   0  0  0  0  0  0  0  0  0  0  0  0
   62.5060   33.4820   46.8860 C   0  0  0  0  0  0  0  0  0  0  0  0
   62.1617   34.0437   46.0051 H   0  0  0  0  0  0  0  0  0  0  0  0
   63.7240   33.8120   47.4870 C   0  0  0  0  0  0  0  0  0  0  0  0
   64.3337   34.6309   47.0774 H   0  0  0  0  0  0  0  0  0  0  0  0
  1  2  1  0
  2  3  2  0
  3  4  1  0
  3  5  1  0
  5  6  1  0
  5  7  2  0
  7  8  1  0
  8  9  2  0
  9 10  1  0
  9 11  1  0
 11 12  1  0
 11 13  2  0
 13 14  1  0
 14 15  1  0
 15 16  2  0
 15 17  1  0
 17 18  2  0
 18 19  1  0
 19 20  1  0
 20 21  1  0
 21 22  1  0
 22 23  1  0
 22 24  1  0
 22 25  1  0
 21 26  2  0
 26 27  1  0
 13 28  1  0
 28 29  1  0
 28 30  2  0
 30 31  1  0
  7 32  1  0
 32 33  1  0
 32 34  2  0
 34 35  1  0
 34  2  1  0
 30  8  1  0
 26 18  1  0
M  CHG  2  14  -1  19  -1
M  END
>  <UniqueID>  (7) 
7

>  <SMILES>  (7) 
Cc1c/c(=N/C(=O)[N-]c2ccc(-c3ccccc3)cc2Cl)[n-]o1

>  <Energy>  (7) 
83.90855366339974

>  <Genealogy>  (7) 
Cc1cc(=NC(=O)[N-]c2ccc(-c3ccccc3)cc2Cl)[n-]o1 (protonated)
Cc1c/c(=N/C(=O)[N-]c2ccc(-c3ccccc3)cc2Cl)[n-]o1 (cis-trans isomerization)
Cc1c/c(=N/C(=O)[N-]c2ccc(-c3ccccc3)cc2Cl)[n-]o1 (3D coordinates assigned)
Cc1c/c(=N/C(=O)[N-]c2ccc(-c3ccccc3)cc2Cl)[n-]o1 (optimized conformer: 83.90855366339974 kcal/mol)

>  <smiles>  (7) 
Cc1cc(=NC(=O)Nc2ccc(-c3ccccc3)cc2Cl)[nH]o1

>  <score_type>  (7) 
oracle

>  <origin>  (7) 
adg

>  <m_score__min__energy>  (7) 
-12.08

>  <m_primary>  (7) 
energy

$$$$
7:0
     RDKit          3D

 51 54  0  0  0  0  0  0  0  0999 V2000
   59.1320   30.1590   50.9990 C   0  0  0  0  0  0  0  0  0  0  0  0
   59.9710   29.0190   51.5580 C   0  0  0  0  0  0  0  0  0  0  0  0
   61.4330   28.7310   50.4980 S   0  0  0  0  0  0  0  0  0  0  0  0
   60.5980   29.1050   48.9430 C   0  0  0  0  0  0  0  0  0  0  0  0
   59.5490   28.3140   48.6050 N   0  0  0  0  0  0  0  0  0  0  0  0
   58.8390   28.5090   47.4710 C   0  0  0  0  0  0  0  0  0  0  0  0
   57.7780   27.6570   47.1570 C   0  0  0  0  0  0  0  0  0  0  0  0
   57.0300   27.8530   45.9810 C   0  0  0  0  0  0  0  0  0  0  0  0
   55.9580   27.0160   45.6320 O   0  0  0  0  0  0  0  0  0  0  0  0
   56.0100   25.5930   45.6360 C   0  0  0  0  0  0  0  0  0  0  0  0
   57.3540   28.9140   45.1210 C   0  0  0  0  0  0  0  0  0  0  0  0
   56.5880   29.0830   43.9560 O   0  0  0  0  0  0  0  0  0  0  0  0
   56.6500   30.2240   43.1060 C   0  0  0  0  0  0  0  0  0  0  0  0
   58.4240   29.7730   45.4430 C   0  0  0  0  0  0  0  0  0  0  0  0
   59.1710   29.5700   46.6190 C   0  0  0  0  0  0  0  0  0  0  0  0
   60.2410   30.4070   46.9840 C   0  0  0  0  0  0  0  0  0  0  0  0
   60.5280   31.3980   46.2530 O   0  0  0  0  0  0  0  0  0  0  0  0
   60.9600   30.1630   48.1330 N   0  0  0  0  0  0  0  0  0  0  0  0
   62.0520   31.0930   48.5060 C   0  0  0  0  0  0  0  0  0  0  0  0
   61.7750   31.8130   49.8360 C   0  0  0  0  0  0  0  0  0  0  0  0
   61.8970   33.6260   49.6820 S   0  0  0  0  0  0  0  0  0  0  0  0
   60.7680   33.7430   48.2970 C   0  0  0  0  0  0  0  0  0  0  0  0
   59.4450   33.4730   48.3920 N   0  0  0  0  0  0  0  0  0  0  0  0
   58.8290   33.6500   47.1960 C   0  0  0  0  0  0  0  0  0  0  0  0
   57.4670   33.4470   46.9720 C   0  0  0  0  0  0  0  0  0  0  0  0
   56.9550   33.6670   45.6810 C   0  0  0  0  0  0  0  0  0  0  0  0
   57.8050   34.0860   44.6380 C   0  0  0  0  0  0  0  0  0  0  0  0
   59.1750   34.2870   44.8760 C   0  0  0  0  0  0  0  0  0  0  0  0
   59.6570   34.0610   46.1620 C   0  0  0  0  0  0  0  0  0  0  0  0
   61.2250   34.2180   46.7380 S   0  0  0  0  0  0  0  0  0  0  0  0
   58.7041   30.7405   51.8289 H   0  0  0  0  0  0  0  0  0  0  0  0
   59.7661   30.8126   50.3820 H   0  0  0  0  0  0  0  0  0  0  0  0
   58.3194   29.7479   50.3820 H   0  0  0  0  0  0  0  0  0  0  0  0
   60.3042   29.2775   52.5739 H   0  0  0  0  0  0  0  0  0  0  0  0
   59.3610   28.1040   51.5839 H   0  0  0  0  0  0  0  0  0  0  0  0
   57.5252   26.8271   47.8333 H   0  0  0  0  0  0  0  0  0  0  0  0
   56.0233   25.2295   46.6741 H   0  0  0  0  0  0  0  0  0  0  0  0
   55.1259   25.1923   45.1185 H   0  0  0  0  0  0  0  0  0  0  0  0
   56.9210   25.2579   45.1185 H   0  0  0  0  0  0  0  0  0  0  0  0
   56.6995   31.1358   43.7193 H   0  0  0  0  0  0  0  0  0  0  0  0
   57.5460   30.1600   42.4711 H   0  0  0  0  0  0  0  0  0  0  0  0
   55.7523   30.2575   42.4711 H   0  0  0  0  0  0  0  0  0  0  0  0
   58.6769   30.6068   44.7716 H   0  0  0  0  0  0  0  0  0  0  0  0
   62.9869   30.5212   48.6011 H   0  0  0  0  0  0  0  0  0  0  0  0
   62.1275   31.8572   47.7184 H   0  0  0  0  0  0  0  0  0  0  0  0
   60.7604   31.5544   50.1733 H   0  0  0  0  0  0  0  0  0  0  0  0
   62.5356   31.4855   50.5600 H   0  0  0  0  0  0  0  0  0  0  0  0
   56.8067   33.1213   47.7892 H   0  0  0  0  0  0  0  0  0  0  0  0
   55.8841   33.5110   45.4839 H   0  0  0  0  0  0  0  0  0  0  0  0
   57.3937   34.2566   43.6322 H   0  0  0  0  0  0  0  0  0  0  0  0
   59.8474   34.6136   44.0691 H   0  0  0  0  0  0  0  0  0  0  0  0
  1  2  1  0
  2  3  1  0
  3  4  1  0
  4  5  2  0
  5  6  1  0
  6  7  2  0
  7  8  1  0
  8  9  1  0
  9 10  1  0
  8 11  2  0
 11 12  1  0
 12 13  1  0
 11 14  1  0
 14 15  2  0
 15 16  1  0
 16 17  2  0
 16 18  1  0
 18 19  1  0
 19 20  1  0
 20 21  1  0
 21 22  1  0
 22 23  2  0
 23 24  1  0
 24 25  2  0
 25 26  1  0
 26 27  2  0
 27 28  1  0
 28 29  2  0
 29 30  1  0
 18  4  1  0
 30 22  1  0
 15  6  1  0
 29 24  1  0
  1 31  1  0
  1 32  1  0
  1 33  1  0
  2 34  1  0
  2 35  1  0
  7 36  1  0
 10 37  1  0
 10 38  1  0
 10 39  1  0
 13 40  1  0
 13 41  1  0
 13 42  1  0
 14 43  1  0
 19 44  1  0
 19 45  1  0
 20 46  1  0
 20 47  1  0
 25 48  1  0
 26 49  1  0
 27 50  1  0
 28 51  1  0
M  END
>  <UniqueID>  (8) 
8

>  <SMILES>  (8) 
CCSc1nc2cc(OC)c(OC)cc2c(=O)n1CCSc1nc2ccccc2s1

>  <Energy>  (8) 
87.63661905557059

>  <Genealogy>  (8) 
CCSc1nc2cc(OC)c(OC)cc2c(=O)n1CCSc1nc2ccccc2s1 (3D coordinates assigned)
CCSc1nc2cc(OC)c(OC)cc2c(=O)n1CCSc1nc2ccccc2s1 (optimized conformer: 87.63661905557059 kcal/mol)

>  <smiles>  (8) 
CCSc1nc2cc(OC)c(OC)cc2c(=O)n1CCSc1nc2ccccc2s1

>  <score_type>  (8) 
oracle

>  <origin>  (8) 
adg

>  <m_score__min__energy>  (8) 
-8.3599999999999994

>  <m_primary>  (8) 
energy

$$$$
8:0
     RDKit          3D

 75 81  0  0  0  0  0  0  0  0999 V2000
   58.2970   29.8510   46.7740 O   0  0  0  0  0  0  0  0  0  0  0  0
   59.6620   30.0920   46.4980 C   0  0  2  0  0  0  0  0  0  0  0  0
   59.7870   31.5610   45.9870 C   0  0  0  0  0  0  0  0  0  0  0  0
   58.6140   31.9880   45.1740 N   0  0  0  0  0  0  0  0  0  0  0  0
   58.8910   33.1220   44.2520 C   0  0  0  0  0  0  0  0  0  0  0  0
   58.3880   34.4930   44.7620 C   0  0  0  0  0  0  0  0  0  0  0  0
   58.3620   34.5770   46.2340 N   0  0  0  0  0  0  0  0  0  0  0  0
   59.7140   34.7260   46.8240 C   0  0  0  0  0  0  0  0  0  0  0  0
   59.6190   34.9410   48.3450 C   0  0  0  0  0  0  0  0  0  0  0  0
   60.4050   33.9410   49.0860 N   0  0  0  0  0  0  0  0  0  0  0  0
   61.8320   33.7880   48.8770 C   0  0  0  0  0  0  0  0  0  0  0  0
   62.4050   33.8810   47.5930 C   0  0  0  0  0  0  0  0  0  0  0  0
   63.7550   33.5730   47.3970 C   0  0  0  0  0  0  0  0  0  0  0  0
   64.5430   33.1540   48.4710 C   0  0  0  0  0  0  0  0  0  0  0  0
   63.9920   33.0660   49.7500 C   0  0  0  0  0  0  0  0  0  0  0  0
   62.6490   33.4020   49.9580 C   0  0  0  0  0  0  0  0  0  0  0  0
   61.9940   33.4590   51.6260 S   0  0  0  0  0  0  0  0  0  0  0  0
   60.4730   32.6270   51.1740 C   0  0  0  0  0  0  0  0  0  0  0  0
   59.9480   31.6330   52.0070 C   0  0  0  0  0  0  0  0  0  0  0  0
   58.6890   31.0890   51.7350 C   0  0  0  0  0  0  0  0  0  0  0  0
   58.1700   30.1390   52.5500 F   0  0  0  0  0  0  0  0  0  0  0  0
   57.9570   31.5360   50.6320 C   0  0  0  0  0  0  0  0  0  0  0  0
   58.4880   32.5130   49.7850 C   0  0  0  0  0  0  0  0  0  0  0  0
   59.7640   33.0550   50.0340 C   0  0  0  0  0  0  0  0  0  0  0  0
   57.5230   33.5180   46.8460 C   0  0  0  0  0  0  0  0  0  0  0  0
   57.4070   32.2390   45.9860 C   0  0  0  0  0  0  0  0  0  0  0  0
   60.2060   29.0890   45.4330 C   0  0  0  0  0  0  0  0  0  0  0  0
   59.2030   28.1210   44.9940 N   0  0  0  0  0  0  0  0  0  0  0  0
   58.7180   27.9520   43.7480 C   0  0  0  0  0  0  0  0  0  0  0  0
   57.7520   27.0190   43.7490 N   0  0  0  0  0  0  0  0  0  0  0  0
   57.6650   26.6420   45.0410 C   0  0  0  0  0  0  0  0  0  0  0  0
   58.5430   27.3140   45.8120 N   0  0  0  0  0  0  0  0  0  0  0  0
   60.4850   29.8910   47.7890 C   0  0  0  0  0  0  0  0  0  0  0  0
   61.5770   30.7400   48.0870 C   0  0  0  0  0  0  0  0  0  0  0  0
   62.2670   30.6130   49.2510 N   0  0  0  0  0  0  0  0  0  0  0  0
   61.9390   29.6770   50.1790 C   0  0  0  0  0  0  0  0  0  0  0  0
   62.6760   29.5760   51.3650 C   0  0  0  0  0  0  0  0  0  0  0  0
   62.3290   28.6180   52.3220 C   0  0  0  0  0  0  0  0  0  0  0  0
   61.2480   27.7550   52.0980 C   0  0  0  0  0  0  0  0  0  0  0  0
   60.5030   27.8540   50.9180 C   0  0  0  0  0  0  0  0  0  0  0  0
   60.8430   28.8170   49.9560 C   0  0  0  0  0  0  0  0  0  0  0  0
   60.1110   28.9440   48.7720 C   0  0  0  0  0  0  0  0  0  0  0  0
   57.8790   29.3850   46.0040 H   0  0  0  0  0  0  0  0  0  0  0  0
   59.8752   32.2297   46.8560 H   0  0  0  0  0  0  0  0  0  0  0  0
   60.6761   31.6140   45.3414 H   0  0  0  0  0  0  0  0  0  0  0  0
   59.9789   33.1875   44.1033 H   0  0  0  0  0  0  0  0  0  0  0  0
   58.3447   32.9121   43.3206 H   0  0  0  0  0  0  0  0  0  0  0  0
   59.0547   35.2783   44.3763 H   0  0  0  0  0  0  0  0  0  0  0  0
   57.3564   34.6233   44.4031 H   0  0  0  0  0  0  0  0  0  0  0  0
   60.2987   33.8162   46.6231 H   0  0  0  0  0  0  0  0  0  0  0  0
   60.2046   35.6004   46.3716 H   0  0  0  0  0  0  0  0  0  0  0  0
   59.9990   35.9444   48.5877 H   0  0  0  0  0  0  0  0  0  0  0  0
   58.5647   34.8367   48.6410 H   0  0  0  0  0  0  0  0  0  0  0  0
   61.7869   34.1977   46.7400 H   0  0  0  0  0  0  0  0  0  0  0  0
   64.1975   33.6611   46.3938 H   0  0  0  0  0  0  0  0  0  0  0  0
   65.5992   32.8930   48.3086 H   0  0  0  0  0  0  0  0  0  0  0  0
   64.6128   32.7327   50.5947 H   0  0  0  0  0  0  0  0  0  0  0  0
   60.5248   31.2800   52.8746 H   0  0  0  0  0  0  0  0  0  0  0  0
   56.9599   31.1178   50.4296 H   0  0  0  0  0  0  0  0  0  0  0  0
   57.9059   32.8606   48.9188 H   0  0  0  0  0  0  0  0  0  0  0  0
   57.9629   33.2446   47.8165 H   0  0  0  0  0  0  0  0  0  0  0  0
   56.5081   33.9306   46.9449 H   0  0  0  0  0  0  0  0  0  0  0  0
   57.2466   31.3794   46.6533 H   0  0  0  0  0  0  0  0  0  0  0  0
   56.5637   32.3790   45.2938 H   0  0  0  0  0  0  0  0  0  0  0  0
   60.5490   29.6596   44.5574 H   0  0  0  0  0  0  0  0  0  0  0  0
   61.0249   28.5238   45.9020 H   0  0  0  0  0  0  0  0  0  0  0  0
   59.0635   28.4993   42.8585 H   0  0  0  0  0  0  0  0  0  0  0  0
   57.1850   26.6830   42.9410 H   0  0  0  0  0  0  0  0  0  0  0  0
   56.9654   25.8816   45.4182 H   0  0  0  0  0  0  0  0  0  0  0  0
   61.8723   31.5154   47.3648 H   0  0  0  0  0  0  0  0  0  0  0  0
   63.5271   30.2497   51.5436 H   0  0  0  0  0  0  0  0  0  0  0  0
   62.9069   28.5413   53.2548 H   0  0  0  0  0  0  0  0  0  0  0  0
   60.9846   26.9981   52.8515 H   0  0  0  0  0  0  0  0  0  0  0  0
   59.6525   27.1783   50.7448 H   0  0  0  0  0  0  0  0  0  0  0  0
   59.2348   28.3010   48.6024 H   0  0  0  0  0  0  0  0  0  0  0  0
  2  1  1  1
  2  3  1  0
  3  4  1  0
  4  5  1  0
  5  6  1  0
  6  7  1  0
  7  8  1  0
  8  9  1  0
  9 10  1  0
 10 11  1  0
 11 12  2  0
 12 13  1  0
 13 14  2  0
 14 15  1  0
 15 16  2  0
 16 17  1  0
 17 18  1  0
 18 19  2  0
 19 20  1  0
 20 21  1  0
 20 22  2  0
 22 23  1  0
 23 24  2  0
  7 25  1  0
 25 26  1  0
  2 27  1  0
 27 28  1  0
 28 29  1  0
 29 30  2  0
 30 31  1  0
 31 32  2  0
  2 33  1  0
 33 34  2  0
 34 35  1  0
 35 36  2  0
 36 37  1  0
 37 38  2  0
 38 39  1  0
 39 40  2  0
 40 41  1  0
 41 42  2  0
 26  4  1  0
 32 28  1  0
 42 33  1  0
 24 10  1  0
 41 36  1  0
 16 11  1  0
 24 18  1  0
  1 43  1  0
  3 44  1  0
  3 45  1  0
  5 46  1  0
  5 47  1  0
  6 48  1  0
  6 49  1  0
  8 50  1  0
  8 51  1  0
  9 52  1  0
  9 53  1  0
 12 54  1  0
 13 55  1  0
 14 56  1  0
 15 57  1  0
 19 58  1  0
 22 59  1  0
 23 60  1  0
 25 61  1  0
 25 62  1  0
 26 63  1  0
 26 64  1  0
 27 65  1  0
 27 66  1  0
 29 67  1  0
 30 68  1  0
 31 69  1  0
 34 70  1  0
 37 71  1  0
 38 72  1  0
 39 73  1  0
 40 74  1  0
 42 75  1  0
M  CHG  1  30   1
M  END
>  <UniqueID>  (9) 
9

>  <SMILES>  (9) 
O[C@](CN1CCN(CCN2c3ccccc3Sc3cc(F)ccc32)CC1)(Cn1c[nH+]cn1)c1cnc2ccccc2c1

>  <Energy>  (9) 
164.02019257279318

>  <Genealogy>  (9) 
OC(CN1CCN(CCN2c3ccccc3Sc3cc(F)ccc32)CC1)(Cn1c[nH+]cn1)c1cnc2ccccc2c1 (protonated)
O[C@](CN1CCN(CCN2c3ccccc3Sc3cc(F)ccc32)CC1)(Cn1c[nH+]cn1)c1cnc2ccccc2c1 (chirality)
O[C@](CN1CCN(CCN2c3ccccc3Sc3cc(F)ccc32)CC1)(Cn1c[nH+]cn1)c1cnc2ccccc2c1 (3D coordinates assigned)
O[C@](CN1CCN(CCN2c3ccccc3Sc3cc(F)ccc32)CC1)(Cn1c[nH+]cn1)c1cnc2ccccc2c1 (nonaromatic ring conformer: 164.02019257279318 kcal/mol)

>  <smiles>  (9) 
OC(CN1CCN(CCN2c3ccccc3Sc3cc(F)ccc32)CC1)(Cn1cncn1)c1cnc2ccccc2c1

>  <score_type>  (9) 
oracle

>  <origin>  (9) 
adg

>  <m_score__min__energy>  (9) 
-9.3900000000000006

>  <m_primary>  (9) 
energy

$$$$
9:0
     RDKit          3D

 48 50  0  0  0  0  0  0  0  0999 V2000
   59.4210   25.7480   46.2360 C   0  0  0  0  0  0  0  0  0  0  0  0
   58.8660   27.0280   45.6860 C   0  0  0  0  0  0  0  0  0  0  0  0
   59.7160   27.9640   45.0800 C   0  0  0  0  0  0  0  0  0  0  0  0
   59.1960   29.1420   44.5370 C   0  0  0  0  0  0  0  0  0  0  0  0
   57.8150   29.3980   44.5860 C   0  0  0  0  0  0  0  0  0  0  0  0
   57.2650   30.6850   44.0190 C   0  0  0  0  0  0  0  0  0  0  0  0
   56.7630   31.5910   45.0640 N   0  0  0  0  0  0  0  0  0  0  0  0
   57.1450   33.0060   44.8700 C   0  0  0  0  0  0  0  0  0  0  0  0
   58.5850   33.1440   44.2980 C   0  0  0  0  0  0  0  0  0  0  0  0
   59.2740   34.4150   44.8110 C   0  0  0  0  0  0  0  0  0  0  0  0
   59.4060   34.4360   46.2920 N   0  0  0  0  0  0  0  0  0  0  0  0
   60.7320   33.9470   46.7230 C   0  0  0  0  0  0  0  0  0  0  0  0
   60.6100   32.6410   47.4660 C   0  0  0  0  0  0  0  0  0  0  0  0
   60.5260   31.4320   46.7550 C   0  0  0  0  0  0  0  0  0  0  0  0
   60.4370   30.2170   47.4390 C   0  0  0  0  0  0  0  0  0  0  0  0
   60.4350   30.1980   48.8370 C   0  0  0  0  0  0  0  0  0  0  0  0
   60.5240   31.3960   49.5510 C   0  0  0  0  0  0  0  0  0  0  0  0
   60.6120   32.6140   48.8710 C   0  0  0  0  0  0  0  0  0  0  0  0
   58.3090   33.7270   47.0040 C   0  0  0  0  0  0  0  0  0  0  0  0
   56.9950   33.7520   46.2130 C   0  0  0  0  0  0  0  0  0  0  0  0
   56.9610   28.4460   45.1710 C   0  0  0  0  0  0  0  0  0  0  0  0
   55.6200   28.6530   45.2090 F   0  0  0  0  0  0  0  0  0  0  0  0
   57.4840   27.2680   45.7120 C   0  0  0  0  0  0  0  0  0  0  0  0
   59.4054   25.7840   47.3353 H   0  0  0  0  0  0  0  0  0  0  0  0
   58.8083   24.9033   45.8881 H   0  0  0  0  0  0  0  0  0  0  0  0
   60.4564   25.6178   45.8881 H   0  0  0  0  0  0  0  0  0  0  0  0
   60.7977   27.7701   45.0317 H   0  0  0  0  0  0  0  0  0  0  0  0
   59.8714   29.8730   44.0686 H   0  0  0  0  0  0  0  0  0  0  0  0
   58.0649   31.1961   43.4632 H   0  0  0  0  0  0  0  0  0  0  0  0
   56.4191   30.4278   43.3645 H   0  0  0  0  0  0  0  0  0  0  0  0
   57.0160   31.2440   46.0170 H   0  0  0  0  0  0  0  0  0  0  0  0
   56.4744   33.4589   44.1249 H   0  0  0  0  0  0  0  0  0  0  0  0
   59.1765   32.2684   44.6038 H   0  0  0  0  0  0  0  0  0  0  0  0
   58.5166   33.2068   43.2019 H   0  0  0  0  0  0  0  0  0  0  0  0
   60.2786   34.4749   44.3669 H   0  0  0  0  0  0  0  0  0  0  0  0
   58.6499   35.2728   44.5200 H   0  0  0  0  0  0  0  0  0  0  0  0
   61.3664   33.7989   45.8367 H   0  0  0  0  0  0  0  0  0  0  0  0
   61.1792   34.6931   47.3962 H   0  0  0  0  0  0  0  0  0  0  0  0
   60.5303   31.4421   45.6551 H   0  0  0  0  0  0  0  0  0  0  0  0
   60.3684   29.2740   46.8768 H   0  0  0  0  0  0  0  0  0  0  0  0
   60.3634   29.2409   49.3744 H   0  0  0  0  0  0  0  0  0  0  0  0
   60.5248   31.3804   50.6509 H   0  0  0  0  0  0  0  0  0  0  0  0
   60.6830   33.5543   49.4374 H   0  0  0  0  0  0  0  0  0  0  0  0
   58.6076   32.6802   47.1622 H   0  0  0  0  0  0  0  0  0  0  0  0
   58.1378   34.2429   47.9603 H   0  0  0  0  0  0  0  0  0  0  0  0
   56.2073   33.2669   46.8082 H   0  0  0  0  0  0  0  0  0  0  0  0
   56.7303   34.7993   46.0051 H   0  0  0  0  0  0  0  0  0  0  0  0
   56.8082   26.5250   46.1606 H   0  0  0  0  0  0  0  0  0  0  0  0
  1  2  1  0
  2  3  2  0
  3  4  1  0
  4  5  2  0
  5  6  1  0
  6  7  1  0
  7  8  1  0
  8  9  1  0
  9 10  1  0
 10 11  1  0
 11 12  1  0
 12 13  1  0
 13 14  2  0
 14 15  1  0
 15 16  2  0
 16 17  1  0
 17 18  2  0
 11 19  1  0
 19 20  1  0
  5 21  1  0
 21 22  1  0
 21 23  2  0
 23  2  1  0
 20  8  1  0
 18 13  1  0
  1 24  1  0
  1 25  1  0
  1 26  1  0
  3 27  1  0
  4 28  1  0
  6 29  1  0
  6 30  1  0
  7 31  1  0
  8 32  1  0
  9 33  1  0
  9 34  1  0
 10 35  1  0
 10 36  1  0
 12 37  1  0
 12 38  1  0
 14 39  1  0
 15 40  1  0
 16 41  1  0
 17 42  1  0
 18 43  1  0
 19 44  1  0
 19 45  1  0
 20 46  1  0
 20 47  1  0
 23 48  1  0
M  END
>  <UniqueID>  (10) 
10

>  <SMILES>  (10) 
Cc1ccc(CNC2CCN(Cc3ccccc3)CC2)c(F)c1

>  <Energy>  (10) 
58.68800181060567

>  <Genealogy>  (10) 
Cc1ccc(CNC2CCN(Cc3ccccc3)CC2)c(F)c1 (3D coordinates assigned)
Cc1ccc(CNC2CCN(Cc3ccccc3)CC2)c(F)c1 (nonaromatic ring conformer: 58.68800181060567 kcal/mol)

>  <smiles>  (10) 
Cc1ccc(CNC2CCN(Cc3ccccc3)CC2)c(F)c1

>  <score_type>  (10) 
oracle

>  <origin>  (10) 
adg

>  <m_score__min__energy>  (10) 
-8.4399999999999995

>  <m_primary>  (10) 
energy

$$$$
10:0
     RDKit          3D

 30 30  0  0  0  0  0  0  0  0999 V2000
   57.0240   32.6930   40.3470 C   0  0  0  0  0  0  0  0  0  0  0  0
   58.2370   32.5010   41.2510 C   0  0  0  0  0  0  0  0  0  0  0  0
   57.8110   32.1250   42.6390 C   0  0  0  0  0  0  0  0  0  0  0  0
   57.0860   30.9510   42.8730 C   0  0  0  0  0  0  0  0  0  0  0  0
   56.7450   30.6260   44.1900 C   0  0  0  0  0  0  0  0  0  0  0  0
   55.9340   29.4000   44.4940 C   0  0  0  0  0  0  0  0  0  0  0  0
   56.7730   28.3690   45.2390 C   0  0  0  0  0  0  0  0  0  0  0  0
   57.1140   31.4550   45.2020 N   0  0  0  0  0  0  0  0  0  0  0  0
   57.8280   32.5900   44.9670 C   0  0  0  0  0  0  0  0  0  0  0  0
   58.2160   33.4440   46.0590 N   0  0  0  0  0  0  0  0  0  0  0  0
   57.7720   33.1310   47.4210 C   0  0  0  0  0  0  0  0  0  0  0  0
   59.0510   34.6210   45.8010 C   0  0  0  0  0  0  0  0  0  0  0  0
   58.1730   32.9090   43.6890 N   0  0  0  0  0  0  0  0  0  0  0  0
   56.1251   32.8353   40.9649 H   0  0  0  0  0  0  0  0  0  0  0  0
   57.1764   33.5782   39.7120 H   0  0  0  0  0  0  0  0  0  0  0  0
   56.8955   31.8040   39.7120 H   0  0  0  0  0  0  0  0  0  0  0  0
   58.8711   31.7020   40.8392 H   0  0  0  0  0  0  0  0  0  0  0  0
   58.7962   33.4471   41.2973 H   0  0  0  0  0  0  0  0  0  0  0  0
   56.7906   30.2977   42.0388 H   0  0  0  0  0  0  0  0  0  0  0  0
   55.0725   29.6825   45.1169 H   0  0  0  0  0  0  0  0  0  0  0  0
   55.5920   28.9588   43.5462 H   0  0  0  0  0  0  0  0  0  0  0  0
   56.6548   28.5142   46.3230 H   0  0  0  0  0  0  0  0  0  0  0  0
   56.4383   27.3574   44.9659 H   0  0  0  0  0  0  0  0  0  0  0  0
   57.8315   28.4912   44.9659 H   0  0  0  0  0  0  0  0  0  0  0  0
   58.4483   33.6078   48.1458 H   0  0  0  0  0  0  0  0  0  0  0  0
   56.7498   33.5093   47.5695 H   0  0  0  0  0  0  0  0  0  0  0  0
   57.7848   32.0411   47.5695 H   0  0  0  0  0  0  0  0  0  0  0  0
   59.3655   35.0642   46.7574 H   0  0  0  0  0  0  0  0  0  0  0  0
   59.9396   34.3213   45.2260 H   0  0  0  0  0  0  0  0  0  0  0  0
   58.4745   35.3606   45.2260 H   0  0  0  0  0  0  0  0  0  0  0  0
  1  2  1  0
  2  3  1  0
  3  4  2  0
  4  5  1  0
  5  6  1  0
  6  7  1  0
  5  8  2  0
  8  9  1  0
  9 10  1  0
 10 11  1  0
 10 12  1  0
  9 13  2  0
 13  3  1  0
  1 14  1  0
  1 15  1  0
  1 16  1  0
  2 17  1  0
  2 18  1  0
  4 19  1  0
  6 20  1  0
  6 21  1  0
  7 22  1  0
  7 23  1  0
  7 24  1  0
 11 25  1  0
 11 26  1  0
 11 27  1  0
 12 28  1  0
 12 29  1  0
 12 30  1  0
M  END
>  <UniqueID>  (11) 
11

>  <SMILES>  (11) 
CCc1cc(CC)nc(N(C)C)n1

>  <Energy>  (11) 
17.717196337413792

>  <Genealogy>  (11) 
CCc1cc(CC)nc(N(C)C)n1 (3D coordinates assigned)
CCc1cc(CC)nc(N(C)C)n1 (optimized conformer: 17.717196337413792 kcal/mol)

>  <smiles>  (11) 
CCc1cc(CC)nc(N(C)C)n1

>  <score_type>  (11) 
oracle

>  <origin>  (11) 
adg

>  <m_score__min__energy>  (11) 
-5.2999999999999998

>  <m_primary>  (11) 
energy

$$$$
11:0
     RDKit          3D

 72 76  0  0  0  0  0  0  0  0999 V2000
   59.6260   33.4540   50.3740 C   0  0  0  0  0  0  0  0  0  0  0  0
   58.8270   32.1720   50.1510 C   0  0  0  0  0  0  0  0  0  0  0  0
   58.4610   31.5410   51.4380 N   0  0  0  0  0  0  0  0  0  0  0  0
   57.1740   32.0120   51.9960 C   0  0  0  0  0  0  0  0  0  0  0  0
   56.0700   30.9510   51.9780 C   0  0  0  0  0  0  0  0  0  0  0  0
   58.6950   30.0790   51.5660 C   0  0  0  0  0  0  0  0  0  0  0  0
   60.0960   29.6010   51.1220 C   0  0  0  0  0  0  0  0  0  0  0  0
   60.0020   28.3310   50.3870 N   0  0  0  0  0  0  0  0  0  0  0  0
   60.9570   28.2730   49.2670 C   0  0  0  0  0  0  0  0  0  0  0  0
   60.7120   29.3750   48.2580 C   0  0  0  0  0  0  0  0  0  0  0  0
   59.7360   29.3250   47.2310 C   0  0  0  0  0  0  0  0  0  0  0  0
   58.7920   28.2200   46.9760 C   0  0  0  0  0  0  0  0  0  0  0  0
   58.9440   26.9810   47.6180 C   0  0  0  0  0  0  0  0  0  0  0  0
   57.9970   25.9700   47.4340 C   0  0  0  0  0  0  0  0  0  0  0  0
   56.8990   26.1750   46.5810 C   0  0  0  0  0  0  0  0  0  0  0  0
   55.9140   25.2000   46.3780 O   0  0  0  0  0  0  0  0  0  0  0  0
   55.7700   24.4360   45.1850 C   0  0  0  0  0  0  0  0  0  0  0  0
   56.7790   27.3940   45.9030 C   0  0  0  0  0  0  0  0  0  0  0  0
   57.7160   28.4100   46.0990 C   0  0  0  0  0  0  0  0  0  0  0  0
   59.6690   30.8120   46.3870 S   0  0  0  0  0  0  0  0  0  0  0  0
   60.8760   31.4870   47.3240 C   0  0  0  0  0  0  0  0  0  0  0  0
   61.3230   30.6380   48.2750 C   0  0  0  0  0  0  0  0  0  0  0  0
   62.2500   31.3590   49.0100 C   0  0  0  0  0  0  0  0  0  0  0  0
   63.0290   31.0460   50.1270 C   0  0  0  0  0  0  0  0  0  0  0  0
   63.8810   32.0400   50.6360 C   0  0  0  0  0  0  0  0  0  0  0  0
   63.9300   33.3190   50.0390 C   0  0  0  0  0  0  0  0  0  0  0  0
   63.1310   33.6210   48.9260 C   0  0  0  0  0  0  0  0  0  0  0  0
   62.2930   32.6220   48.4210 C   0  0  0  0  0  0  0  0  0  0  0  0
   61.4300   32.7130   47.3760 N   0  0  0  0  0  0  0  0  0  0  0  0
   61.1960   33.8350   46.4670 C   0  0  0  0  0  0  0  0  0  0  0  0
   59.7350   33.9220   46.1190 C   0  0  0  0  0  0  0  0  0  0  0  0
   58.7560   33.7330   47.1070 C   0  0  0  0  0  0  0  0  0  0  0  0
   57.4000   33.8450   46.7850 C   0  0  0  0  0  0  0  0  0  0  0  0
   57.0120   34.1540   45.4780 C   0  0  0  0  0  0  0  0  0  0  0  0
   57.9790   34.3570   44.4930 C   0  0  0  0  0  0  0  0  0  0  0  0
   59.3360   34.2440   44.8100 C   0  0  0  0  0  0  0  0  0  0  0  0
   59.7377   33.6333   51.4535 H   0  0  0  0  0  0  0  0  0  0  0  0
   60.6201   33.3511   49.9146 H   0  0  0  0  0  0  0  0  0  0  0  0
   59.0957   34.3012   49.9146 H   0  0  0  0  0  0  0  0  0  0  0  0
   57.9088   32.4132   49.5953 H   0  0  0  0  0  0  0  0  0  0  0  0
   59.4502   31.4669   49.5813 H   0  0  0  0  0  0  0  0  0  0  0  0
   57.3402   32.3225   53.0381 H   0  0  0  0  0  0  0  0  0  0  0  0
   56.8325   32.8420   51.3600 H   0  0  0  0  0  0  0  0  0  0  0  0
   55.7969   30.6885   53.0107 H   0  0  0  0  0  0  0  0  0  0  0  0
   55.1877   31.3487   51.4552 H   0  0  0  0  0  0  0  0  0  0  0  0
   56.4324   30.0536   51.4552 H   0  0  0  0  0  0  0  0  0  0  0  0
   58.5589   29.8027   52.6220 H   0  0  0  0  0  0  0  0  0  0  0  0
   57.9756   29.5920   50.8912 H   0  0  0  0  0  0  0  0  0  0  0  0
   60.5479   30.3631   50.4701 H   0  0  0  0  0  0  0  0  0  0  0  0
   60.7176   29.4473   52.0164 H   0  0  0  0  0  0  0  0  0  0  0  0
   59.0280   28.2060   50.0300 H   0  0  0  0  0  0  0  0  0  0  0  0
   60.2150   27.5430   51.0400 H   0  0  0  0  0  0  0  0  0  0  0  0
   61.9776   28.3752   49.6643 H   0  0  0  0  0  0  0  0  0  0  0  0
   60.8249   27.3078   48.7562 H   0  0  0  0  0  0  0  0  0  0  0  0
   59.8129   26.8050   48.2692 H   0  0  0  0  0  0  0  0  0  0  0  0
   58.1114   25.0100   47.9588 H   0  0  0  0  0  0  0  0  0  0  0  0
   55.5720   23.3854   45.4440 H   0  0  0  0  0  0  0  0  0  0  0  0
   54.9308   24.8325   44.5947 H   0  0  0  0  0  0  0  0  0  0  0  0
   56.6960   24.4998   44.5947 H   0  0  0  0  0  0  0  0  0  0  0  0
   55.9395   27.5525   45.2101 H   0  0  0  0  0  0  0  0  0  0  0  0
   57.6091   29.3643   45.5624 H   0  0  0  0  0  0  0  0  0  0  0  0
   62.9766   30.0513   50.5936 H   0  0  0  0  0  0  0  0  0  0  0  0
   64.5156   31.8203   51.5072 H   0  0  0  0  0  0  0  0  0  0  0  0
   64.6017   34.0865   50.4510 H   0  0  0  0  0  0  0  0  0  0  0  0
   63.1630   34.6181   48.4625 H   0  0  0  0  0  0  0  0  0  0  0  0
   61.5103   34.7698   46.9543 H   0  0  0  0  0  0  0  0  0  0  0  0
   61.7770   33.6795   45.5460 H   0  0  0  0  0  0  0  0  0  0  0  0
   59.0567   33.4959   48.1382 H   0  0  0  0  0  0  0  0  0  0  0  0
   56.6368   33.6896   47.5618 H   0  0  0  0  0  0  0  0  0  0  0  0
   55.9444   34.2371   45.2262 H   0  0  0  0  0  0  0  0  0  0  0  0
   57.6735   34.6062   43.4661 H   0  0  0  0  0  0  0  0  0  0  0  0
   60.0953   34.4079   44.0312 H   0  0  0  0  0  0  0  0  0  0  0  0
  1  2  1  0
  2  3  1  0
  3  4  1  0
  4  5  1  0
  3  6  1  0
  6  7  1  0
  7  8  1  0
  8  9  1  0
  9 10  1  0
 10 11  2  0
 11 12  1  0
 12 13  2  0
 13 14  1  0
 14 15  2  0
 15 16  1  0
 16 17  1  0
 15 18  1  0
 18 19  2  0
 11 20  1  0
 20 21  1  0
 21 22  2  0
 22 23  1  0
 23 24  2  0
 24 25  1  0
 25 26  2  0
 26 27  1  0
 27 28  2  0
 28 29  1  0
 29 30  1  0
 30 31  1  0
 31 32  2  0
 32 33  1  0
 33 34  2  0
 34 35  1  0
 35 36  2  0
 22 10  1  0
 28 23  1  0
 36 31  1  0
 19 12  1  0
 29 21  1  0
  1 37  1  0
  1 38  1  0
  1 39  1  0
  2 40  1  0
  2 41  1  0
  4 42  1  0
  4 43  1  0
  5 44  1  0
  5 45  1  0
  5 46  1  0
  6 47  1  0
  6 48  1  0
  7 49  1  0
  7 50  1  0
  8 51  1  0
  8 52  1  0
  9 53  1  0
  9 54  1  0
 13 55  1  0
 14 56  1  0
 17 57  1  0
 17 58  1  0
 17 59  1  0
 18 60  1  0
 19 61  1  0
 24 62  1  0
 25 63  1  0
 26 64  1  0
 27 65  1  0
 30 66  1  0
 30 67  1  0
 32 68  1  0
 33 69  1  0
 34 70  1  0
 35 71  1  0
 36 72  1  0
M  CHG  1   8   1
M  END
>  <UniqueID>  (12) 
12

>  <SMILES>  (12) 
CCN(CC)CC[NH2+]Cc1c(-c2ccc(OC)cc2)sc2c1c1ccccc1n2Cc1ccccc1

>  <Energy>  (12) 
165.65347598710625

>  <Genealogy>  (12) 
CCN(CC)CC[NH2+]Cc1c(-c2ccc(OC)cc2)sc2c1c1ccccc1n2Cc1ccccc1 (protonated)
CCN(CC)CC[NH2+]Cc1c(-c2ccc(OC)cc2)sc2c1c1ccccc1n2Cc1ccccc1 (3D coordinates assigned)
CCN(CC)CC[NH2+]Cc1c(-c2ccc(OC)cc2)sc2c1c1ccccc1n2Cc1ccccc1 (optimized conformer: 165.65347598710625 kcal/mol)

>  <smiles>  (12) 
CCN(CC)CCNCc1c(-c2ccc(OC)cc2)sc2c1c1ccccc1n2Cc1ccccc1

>  <score_type>  (12) 
oracle

>  <origin>  (12) 
adg

>  <m_score__min__energy>  (12) 
-6.8499999999999996

>  <m_primary>  (12) 
energy

$$$$
12:0
     RDKit          3D

 33 36  0  0  0  0  0  0  0  0999 V2000
   65.6750   35.8840   53.6750 N   0  0  0  0  0  0  0  0  0  0  0  0
   65.7460   35.0140   52.9140 C   0  0  0  0  0  0  0  0  0  0  0  0
   65.8330   33.9340   51.9670 C   0  0  0  0  0  0  0  0  0  0  0  0
   66.8000   32.9370   52.1300 C   0  0  0  0  0  0  0  0  0  0  0  0
   66.8840   31.8890   51.2100 C   0  0  0  0  0  0  0  0  0  0  0  0
   66.0040   31.8320   50.1250 C   0  0  0  0  0  0  0  0  0  0  0  0
   65.0260   32.8280   49.9490 C   0  0  0  0  0  0  0  0  0  0  0  0
   64.0810   32.7940   48.8090 C   0  0  0  0  0  0  0  0  0  0  0  0
   62.8930   32.1580   48.7910 N   0  0  0  0  0  0  0  0  0  0  0  0
   62.4260   32.4230   47.5520 C   0  0  0  0  0  0  0  0  0  0  0  0
   61.1300   31.9510   47.0040 C   0  0  0  0  0  0  0  0  0  0  0  0
   60.1090   32.8530   46.6510 C   0  0  0  0  0  0  0  0  0  0  0  0
   58.8960   32.3870   46.1360 C   0  0  0  0  0  0  0  0  0  0  0  0
   58.6750   31.0130   45.9640 C   0  0  0  0  0  0  0  0  0  0  0  0
   57.3910   30.5220   45.4200 C   0  0  0  0  0  0  0  0  0  0  0  0
   56.9040   29.2820   45.6150 N   0  0  0  0  0  0  0  0  0  0  0  0
   55.7510   29.2670   44.9640 N   0  0  0  0  0  0  0  0  0  0  0  0
   55.5430   30.4430   44.3970 N   0  0  0  0  0  0  0  0  0  0  0  0
   56.5520   31.2540   44.6630 N   0  0  0  0  0  0  0  0  0  0  0  0
   59.6900   30.1090   46.3160 C   0  0  0  0  0  0  0  0  0  0  0  0
   60.9040   30.5740   46.8300 C   0  0  0  0  0  0  0  0  0  0  0  0
   63.2950   33.1850   46.8560 N   0  0  0  0  0  0  0  0  0  0  0  0
   64.2970   33.3910   47.6600 O   0  0  0  0  0  0  0  0  0  0  0  0
   64.9500   33.8800   50.8810 C   0  0  0  0  0  0  0  0  0  0  0  0
   67.4942   32.9779   52.9823 H   0  0  0  0  0  0  0  0  0  0  0  0
   67.6454   31.1057   51.3397 H   0  0  0  0  0  0  0  0  0  0  0  0
   66.0767   31.0037   49.4049 H   0  0  0  0  0  0  0  0  0  0  0  0
   62.4460   31.5980   49.5480 H   0  0  0  0  0  0  0  0  0  0  0  0
   60.2669   33.9338   46.7815 H   0  0  0  0  0  0  0  0  0  0  0  0
   58.1079   33.1043   45.8633 H   0  0  0  0  0  0  0  0  0  0  0  0
   59.5290   29.0286   46.1866 H   0  0  0  0  0  0  0  0  0  0  0  0
   61.6910   29.8550   47.1013 H   0  0  0  0  0  0  0  0  0  0  0  0
   64.1909   34.6662   50.7555 H   0  0  0  0  0  0  0  0  0  0  0  0
  1  2  3  0
  2  3  1  0
  3  4  2  0
  4  5  1  0
  5  6  2  0
  6  7  1  0
  7  8  1  0
  8  9  2  0
  9 10  1  0
 10 11  1  0
 11 12  2  0
 12 13  1  0
 13 14  2  0
 14 15  1  0
 15 16  1  0
 16 17  2  0
 17 18  1  0
 18 19  1  0
 14 20  1  0
 20 21  2  0
 10 22  2  0
 22 23  1  0
  7 24  2  0
 24  3  1  0
 23  8  1  0
 21 11  1  0
 19 15  2  0
  4 25  1  0
  5 26  1  0
  6 27  1  0
  9 28  1  0
 12 29  1  0
 13 30  1  0
 20 31  1  0
 21 32  1  0
 24 33  1  0
M  CHG  2   9   1  18  -1
M  END
>  <UniqueID>  (13) 
13

>  <SMILES>  (13) 
N#Cc1cccc(-c2[nH+]c(-c3ccc(-c4nn[n-]n4)cc3)no2)c1

>  <Energy>  (13) 
113.10672000803667

>  <Genealogy>  (13) 
N#Cc1cccc(-c2[nH+]c(-c3ccc(-c4nn[n-]n4)cc3)no2)c1 (protonated)
N#Cc1cccc(-c2[nH+]c(-c3ccc(-c4nn[n-]n4)cc3)no2)c1 (3D coordinates assigned)
N#Cc1cccc(-c2[nH+]c(-c3ccc(-c4nn[n-]n4)cc3)no2)c1 (optimized conformer: 113.10672000803667 kcal/mol)

>  <smiles>  (13) 
N#Cc1cccc(-c2nc(-c3ccc(-c4nn[nH]n4)cc3)no2)c1

>  <score_type>  (13) 
oracle

>  <origin>  (13) 
adg

>  <m_score__min__energy>  (13) 
-8.5600000000000005

>  <m_primary>  (13) 
energy

$$$$
13:0
     RDKit          3D

 21 21  0  0  0  0  0  0  0  0999 V2000
   59.9660   34.1060   47.8940 C   0  0  0  0  0  0  0  0  0  0  0  0
   60.2000   33.3320   46.7210 O   0  0  0  0  0  0  0  0  0  0  0  0
   59.2360   32.5260   46.0930 C   0  0  0  0  0  0  0  0  0  0  0  0
   59.1330   31.1480   46.3590 C   0  0  0  0  0  0  0  0  0  0  0  0
   58.1640   30.3720   45.7180 C   0  0  0  0  0  0  0  0  0  0  0  0
   57.2790   30.9520   44.7970 C   0  0  0  0  0  0  0  0  0  0  0  0
   56.2830   30.1460   44.1390 N   0  0  0  0  0  0  0  0  0  0  0  0
   56.2580   30.0560   42.8940 O   0  0  0  0  0  0  0  0  0  0  0  0
   55.3410   29.4610   44.8730 O   0  0  0  0  0  0  0  0  0  0  0  0
   57.3820   32.3280   44.5290 C   0  0  0  0  0  0  0  0  0  0  0  0
   58.3530   33.1160   45.1700 C   0  0  0  0  0  0  0  0  0  0  0  0
   58.4480   34.5860   44.8710 C   0  0  0  0  0  0  0  0  0  0  0  0
   60.1529   33.4879   48.7845 H   0  0  0  0  0  0  0  0  0  0  0  0
   60.6419   34.9738   47.9016 H   0  0  0  0  0  0  0  0  0  0  0  0
   58.9225   34.4540   47.9016 H   0  0  0  0  0  0  0  0  0  0  0  0
   59.8209   30.6781   47.0773 H   0  0  0  0  0  0  0  0  0  0  0  0
   58.0944   29.2964   45.9375 H   0  0  0  0  0  0  0  0  0  0  0  0
   56.6938   32.7939   43.8084 H   0  0  0  0  0  0  0  0  0  0  0  0
   58.4845   35.1505   45.8144 H   0  0  0  0  0  0  0  0  0  0  0  0
   59.3608   34.7837   44.2899 H   0  0  0  0  0  0  0  0  0  0  0  0
   57.5682   34.8996   44.2899 H   0  0  0  0  0  0  0  0  0  0  0  0
  1  2  1  0
  2  3  1  0
  3  4  2  0
  4  5  1  0
  5  6  2  0
  6  7  1  0
  7  8  2  0
  7  9  1  0
  6 10  1  0
 10 11  2  0
 11 12  1  0
 11  3  1  0
  1 13  1  0
  1 14  1  0
  1 15  1  0
  4 16  1  0
  5 17  1  0
 10 18  1  0
 12 19  1  0
 12 20  1  0
 12 21  1  0
M  CHG  2   7   1   9  -1
M  END
>  <UniqueID>  (14) 
14

>  <SMILES>  (14) 
COc1ccc([N+](=O)[O-])cc1C

>  <Energy>  (14) 
19.820421858839932

>  <Genealogy>  (14) 
COc1ccc([N+](=O)[O-])cc1C (3D coordinates assigned)
COc1ccc([N+](=O)[O-])cc1C (optimized conformer: 19.820421858839932 kcal/mol)

>  <smiles>  (14) 
COc1ccc([N+](=O)[O-])cc1C

>  <score_type>  (14) 
oracle

>  <origin>  (14) 
adg

>  <m_score__min__energy>  (14) 
-4.8700000000000001

>  <m_primary>  (14) 
energy

$$$$
14:0
     RDKit          3D

 47 49  0  0  0  0  0  0  0  0999 V2000
   60.9920   33.6050   53.9260 C   0  0  0  0  0  0  0  0  0  0  0  0
   60.9980   32.6280   52.8890 O   0  0  0  0  0  0  0  0  0  0  0  0
   61.1380   32.9150   51.5220 C   0  0  0  0  0  0  0  0  0  0  0  0
   62.3060   32.5950   50.8090 C   0  0  0  0  0  0  0  0  0  0  0  0
   62.4160   32.9020   49.4460 C   0  0  0  0  0  0  0  0  0  0  0  0
   63.5860   32.5880   48.7460 C   0  0  0  0  0  0  0  0  0  0  0  0
   63.7000   32.8930   47.4280 N   0  0  0  0  0  0  0  0  0  0  0  0
   62.6960   33.5050   46.7470 C   0  0  0  0  0  0  0  0  0  0  0  0
   61.4910   33.8410   47.3890 C   0  0  0  0  0  0  0  0  0  0  0  0
   60.4220   34.5570   46.5860 C   0  0  0  0  0  0  0  0  0  0  0  0
   59.4080   33.5870   46.0300 C   0  0  0  0  0  0  0  0  0  0  0  0
   58.6030   33.9480   44.9380 C   0  0  0  0  0  0  0  0  0  0  0  0
   57.6710   33.0470   44.4210 C   0  0  0  0  0  0  0  0  0  0  0  0
   57.5240   31.7790   44.9910 C   0  0  0  0  0  0  0  0  0  0  0  0
   56.3210   30.6390   44.2960 S   0  0  0  0  0  0  0  0  0  0  0  0
   56.9890   30.7740   42.6090 C   0  0  0  0  0  0  0  0  0  0  0  0
   58.3020   31.4070   46.0990 C   0  0  0  0  0  0  0  0  0  0  0  0
   58.1230   30.1300   46.6550 O   0  0  0  0  0  0  0  0  0  0  0  0
   59.0950   29.4450   47.4370 C   0  0  0  0  0  0  0  0  0  0  0  0
   59.2400   32.3210   46.6170 C   0  0  0  0  0  0  0  0  0  0  0  0
   61.3480   33.5340   48.7670 C   0  0  0  0  0  0  0  0  0  0  0  0
   60.1780   33.8400   49.4910 C   0  0  0  0  0  0  0  0  0  0  0  0
   60.0730   33.5410   50.8620 C   0  0  0  0  0  0  0  0  0  0  0  0
   58.9230   33.8540   51.6060 O   0  0  0  0  0  0  0  0  0  0  0  0
   57.9990   32.8950   52.1110 C   0  0  0  0  0  0  0  0  0  0  0  0
   60.9951   33.1016   54.9041 H   0  0  0  0  0  0  0  0  0  0  0  0
   61.8863   34.2394   53.8373 H   0  0  0  0  0  0  0  0  0  0  0  0
   60.0900   34.2283   53.8373 H   0  0  0  0  0  0  0  0  0  0  0  0
   63.1412   32.0992   51.3253 H   0  0  0  0  0  0  0  0  0  0  0  0
   64.4181   32.0913   49.2664 H   0  0  0  0  0  0  0  0  0  0  0  0
   64.5840   32.6560   46.9250 H   0  0  0  0  0  0  0  0  0  0  0  0
   62.8275   33.7404   45.6806 H   0  0  0  0  0  0  0  0  0  0  0  0
   59.9073   35.2780   47.2382 H   0  0  0  0  0  0  0  0  0  0  0  0
   60.9080   35.0704   45.7433 H   0  0  0  0  0  0  0  0  0  0  0  0
   58.7074   34.9461   44.4876 H   0  0  0  0  0  0  0  0  0  0  0  0
   57.0491   33.3359   43.5609 H   0  0  0  0  0  0  0  0  0  0  0  0
   58.0662   30.9917   42.6575 H   0  0  0  0  0  0  0  0  0  0  0  0
   56.8303   29.8256   42.0748 H   0  0  0  0  0  0  0  0  0  0  0  0
   56.4744   31.5863   42.0748 H   0  0  0  0  0  0  0  0  0  0  0  0
   58.8796   29.5968   48.5050 H   0  0  0  0  0  0  0  0  0  0  0  0
   59.0609   28.3702   47.2052 H   0  0  0  0  0  0  0  0  0  0  0  0
   60.0957   29.8385   47.2052 H   0  0  0  0  0  0  0  0  0  0  0  0
   59.8476   32.0411   47.4902 H   0  0  0  0  0  0  0  0  0  0  0  0
   59.3331   34.3204   48.9758 H   0  0  0  0  0  0  0  0  0  0  0  0
   58.0163   32.9129   53.2107 H   0  0  0  0  0  0  0  0  0  0  0  0
   56.9868   33.1389   51.7562 H   0  0  0  0  0  0  0  0  0  0  0  0
   58.2803   31.8925   51.7562 H   0  0  0  0  0  0  0  0  0  0  0  0
  1  2  1  0
  2  3  1  0
  3  4  2  0
  4  5  1  0
  5  6  2  0
  6  7  1  0
  7  8  2  0
  8  9  1  0
  9 10  1  0
 10 11  1  0
 11 12  2  0
 12 13  1  0
 13 14  2  0
 14 15  1  0
 15 16  1  0
 14 17  1  0
 17 18  1  0
 18 19  1  0
 17 20  2  0
  9 21  2  0
 21 22  1  0
 22 23  2  0
 23 24  1  0
 24 25  1  0
 23  3  1  0
 21  5  1  0
 20 11  1  0
  1 26  1  0
  1 27  1  0
  1 28  1  0
  4 29  1  0
  6 30  1  0
  7 31  1  0
  8 32  1  0
 10 33  1  0
 10 34  1  0
 12 35  1  0
 13 36  1  0
 16 37  1  0
 16 38  1  0
 16 39  1  0
 19 40  1  0
 19 41  1  0
 19 42  1  0
 20 43  1  0
 22 44  1  0
 25 45  1  0
 25 46  1  0
 25 47  1  0
M  CHG  1   7   1
M  END
>  <UniqueID>  (15) 
15

>  <SMILES>  (15) 
COc1cc2c[nH+]cc(Cc3ccc(SC)c(OC)c3)c2cc1OC

>  <Energy>  (15) 
47.51936047939661

>  <Genealogy>  (15) 
COc1cc2c[nH+]cc(Cc3ccc(SC)c(OC)c3)c2cc1OC (protonated)
COc1cc2c[nH+]cc(Cc3ccc(SC)c(OC)c3)c2cc1OC (3D coordinates assigned)
COc1cc2c[nH+]cc(Cc3ccc(SC)c(OC)c3)c2cc1OC (optimized conformer: 47.51936047939661 kcal/mol)

>  <smiles>  (15) 
COc1cc2cncc(Cc3ccc(SC)c(OC)c3)c2cc1OC

>  <score_type>  (15) 
oracle

>  <origin>  (15) 
adg

>  <m_score__min__energy>  (15) 
-5.9199999999999999

>  <m_primary>  (15) 
energy

$$$$
15:0
     RDKit          3D

 50 52  0  0  1  0  0  0  0  0999 V2000
   57.5190   24.6250   45.7500 C   0  0  0  0  0  0  0  0  0  0  0  0
   57.0650   25.6790   46.6590 N   0  0  0  0  0  0  0  0  0  0  0  0
   57.3860   26.8820   46.3350 C   0  0  0  0  0  0  0  0  0  0  0  0
   58.2400   27.5590   47.1490 N   0  0  0  0  0  0  0  0  0  0  0  0
   58.6290   28.8200   46.8890 C   0  0  0  0  0  0  0  0  0  0  0  0
   59.5630   29.5770   47.7660 C   0  0  0  0  0  0  0  0  0  0  0  0
   58.1620   29.4780   45.7610 C   0  0  0  0  0  0  0  0  0  0  0  0
   58.5320   30.7590   45.4590 C   0  0  0  0  0  0  0  0  0  0  0  0
   58.0650   31.4330   44.3210 C   0  0  0  0  0  0  0  0  0  0  0  0
   58.4990   32.6900   44.1300 O   0  0  0  0  0  0  0  0  0  0  0  0
   58.2050   33.9030   44.7130 C   0  0  0  0  0  0  0  0  0  0  0  0
   59.4810   34.6030   45.1590 C   0  0  0  0  0  0  0  0  0  0  0  0
   59.4410   35.0560   46.5870 C   0  0  0  0  0  0  0  0  0  0  0  0
   59.1240   33.9310   47.4500 N   0  0  0  0  0  0  0  0  0  0  0  0
   59.8840   33.5650   48.5780 C   0  0  0  0  0  0  0  0  0  0  0  0
   59.7100   34.2150   49.8810 C   0  0  0  0  0  0  0  0  0  0  0  0
   60.7600   32.6100   48.4080 N   0  0  0  0  0  0  0  0  0  0  0  0
   57.9500   33.1550   47.1060 C   0  0  0  0  0  0  0  0  0  0  0  0
   57.2500   33.7420   45.8910 C   0  0  0  0  0  0  0  0  0  0  0  0
   57.2040   30.7070   43.5290 C   0  0  0  0  0  0  0  0  0  0  0  0
   56.6830   31.2630   42.3900 O   0  0  0  0  0  0  0  0  0  0  0  0
   57.4050   32.0740   41.5000 C   0  0  0  0  0  0  0  0  0  0  0  0
   56.8230   29.4040   43.8280 C   0  0  0  0  0  0  0  0  0  0  0  0
   57.2990   28.7670   44.9550 C   0  0  0  0  0  0  0  0  0  0  0  0
   56.9250   27.5090   45.2370 N   0  0  0  0  0  0  0  0  0  0  0  0
   57.8874   23.7696   46.3353 H   0  0  0  0  0  0  0  0  0  0  0  0
   56.6805   24.3014   45.1159 H   0  0  0  0  0  0  0  0  0  0  0  0
   58.3302   25.0120   45.1159 H   0  0  0  0  0  0  0  0  0  0  0  0
   59.3183   29.3787   48.8199 H   0  0  0  0  0  0  0  0  0  0  0  0
   60.5961   29.2582   47.5632 H   0  0  0  0  0  0  0  0  0  0  0  0
   59.4650   30.6537   47.5632 H   0  0  0  0  0  0  0  0  0  0  0  0
   59.2237   31.2821   46.1356 H   0  0  0  0  0  0  0  0  0  0  0  0
   57.7034   34.5235   43.9558 H   0  0  0  0  0  0  0  0  0  0  0  0
   60.3226   33.9052   45.0376 H   0  0  0  0  0  0  0  0  0  0  0  0
   59.5943   35.5020   44.5353 H   0  0  0  0  0  0  0  0  0  0  0  0
   60.4220   35.4668   46.8677 H   0  0  0  0  0  0  0  0  0  0  0  0
   58.6689   35.8311   46.7013 H   0  0  0  0  0  0  0  0  0  0  0  0
   59.9048   33.4874   50.6826 H   0  0  0  0  0  0  0  0  0  0  0  0
   60.4150   35.0548   49.9689 H   0  0  0  0  0  0  0  0  0  0  0  0
   58.6798   34.5903   49.9689 H   0  0  0  0  0  0  0  0  0  0  0  0
   61.1580   32.0890   49.2000 H   0  0  0  0  0  0  0  0  0  0  0  0
   58.2538   32.1217   46.8826 H   0  0  0  0  0  0  0  0  0  0  0  0
   57.2534   33.1746   47.9571 H   0  0  0  0  0  0  0  0  0  0  0  0
   56.4285   33.0730   45.5951 H   0  0  0  0  0  0  0  0  0  0  0  0
   56.8692   34.7377   46.1623 H   0  0  0  0  0  0  0  0  0  0  0  0
   58.0307   32.7768   42.0696 H   0  0  0  0  0  0  0  0  0  0  0  0
   58.0458   31.4431   40.8665 H   0  0  0  0  0  0  0  0  0  0  0  0
   56.7042   32.6375   40.8665 H   0  0  0  0  0  0  0  0  0  0  0  0
   56.1321   28.8734   43.1563 H   0  0  0  0  0  0  0  0  0  0  0  0
   56.2790   26.9860   44.6290 H   0  0  0  0  0  0  0  0  0  0  0  0
  1  2  1  0
  2  3  2  0
  3  4  1  0
  4  5  2  0
  5  6  1  0
  5  7  1  0
  7  8  2  0
  8  9  1  0
  9 10  1  0
 10 11  1  0
 11 12  1  0
 12 13  1  0
 13 14  1  0
 14 15  1  0
 15 16  1  0
 15 17  2  3
 14 18  1  0
 18 19  1  0
  9 20  2  0
 20 21  1  0
 21 22  1  0
 20 23  1  0
 23 24  2  0
 24 25  1  0
 25  3  1  0
 24  7  1  0
 19 11  1  0
  1 26  1  0
  1 27  1  0
  1 28  1  0
  6 29  1  0
  6 30  1  0
  6 31  1  0
  8 32  1  0
 11 33  1  0
 12 34  1  0
 12 35  1  0
 13 36  1  0
 13 37  1  0
 16 38  1  0
 16 39  1  0
 16 40  1  0
 17 41  1  0
 18 42  1  0
 18 43  1  0
 19 44  1  0
 19 45  1  0
 22 46  1  0
 22 47  1  0
 22 48  1  0
 23 49  1  0
 25 50  1  0
M  END
>  <smiles>  (16) 
CN=c1nc(C)c2cc(OC3CCN(C(C)=N)CC3)c(OC)cc2[nH]1

>  <score_type>  (16) 
oracle

>  <origin>  (16) 
adg

>  <m_score__min__energy>  (16) 
-7.2400000000000002

>  <m_primary>  (16) 
energy

$$$$
16:0
     RDKit          3D

 43 46  0  0  1  0  0  0  0  0999 V2000
   57.3910   24.8170   43.9010 C   0  0  0  0  0  0  0  0  0  0  0  0
   56.6390   25.1660   45.1730 C   0  0  0  0  0  0  0  0  0  0  0  0
   57.4520   26.0320   46.0290 N   0  0  0  0  0  0  0  0  0  0  0  0
   58.2490   25.5590   47.0110 C   0  0  0  0  0  0  0  0  0  0  0  0
   58.8490   26.6250   47.5950 N   0  0  0  0  0  0  0  0  0  0  0  0
   58.4330   27.7360   46.9870 C   0  0  0  0  0  0  0  0  0  0  0  0
   57.2220   29.6320   45.3660 C   0  0  0  0  0  0  0  0  0  0  0  0
   56.6400   30.4610   44.5960 N   0  0  0  0  0  0  0  0  0  0  0  0
   59.8190   30.8890   48.1000 C   0  0  0  0  0  0  0  0  0  0  0  0
   59.0040   31.7260   48.8550 C   0  0  0  0  0  0  0  0  0  0  0  0
   59.2690   33.0790   48.9660 C   0  0  0  0  0  0  0  0  0  0  0  0
   60.3720   33.5700   48.2970 C   0  0  0  0  0  0  0  0  0  0  0  0
   61.1900   32.7550   47.5440 C   0  0  0  0  0  0  0  0  0  0  0  0
   62.5620   33.4820   46.7380 Cl  0  0  0  0  0  0  0  0  0  0  0  0
   60.9230   31.3970   47.4340 C   0  0  0  0  0  0  0  0  0  0  0  0
   58.0840   29.9910   46.3330 N   0  0  0  0  0  0  0  0  0  0  0  0
   58.6780   29.0970   47.1250 C   0  0  0  0  0  0  0  0  0  0  0  0
   59.4900   29.5080   48.0270 N   0  0  0  0  0  0  0  0  0  0  0  0
   57.3740   31.4140   43.8320 C   0  0  0  0  0  0  0  0  0  0  0  0
   57.7550   32.6170   44.6550 C   0  0  0  0  0  0  0  0  0  0  0  0
   58.6070   33.6520   44.2800 C   0  0  0  0  0  0  0  0  0  0  0  0
   58.6810   34.5510   45.3300 C   0  0  0  0  0  0  0  0  0  0  0  0
   57.8510   34.0020   46.3080 C   0  0  0  0  0  0  0  0  0  0  0  0
   57.3350   32.8900   45.8860 O   0  0  0  0  0  0  0  0  0  0  0  0
   56.9540   28.3120   45.1970 N   0  0  0  0  0  0  0  0  0  0  0  0
   57.5440   27.3690   45.9890 C   0  0  0  0  0  0  0  0  0  0  0  0
   58.3607   24.3670   44.1601 H   0  0  0  0  0  0  0  0  0  0  0  0
   56.8005   24.1009   43.3107 H   0  0  0  0  0  0  0  0  0  0  0  0
   57.5566   25.7303   43.3107 H   0  0  0  0  0  0  0  0  0  0  0  0
   55.7071   25.6883   44.9107 H   0  0  0  0  0  0  0  0  0  0  0  0
   56.4133   24.2378   45.7185 H   0  0  0  0  0  0  0  0  0  0  0  0
   58.3861   24.5029   47.2864 H   0  0  0  0  0  0  0  0  0  0  0  0
   58.1312   31.3034   49.3742 H   0  0  0  0  0  0  0  0  0  0  0  0
   58.6247   33.7392   49.5652 H   0  0  0  0  0  0  0  0  0  0  0  0
   60.6051   34.6428   48.3667 H   0  0  0  0  0  0  0  0  0  0  0  0
   61.5709   30.7413   46.8338 H   0  0  0  0  0  0  0  0  0  0  0  0
   58.2710   31.0050   46.4400 H   0  0  0  0  0  0  0  0  0  0  0  0
   58.2900   30.9372   43.4532 H   0  0  0  0  0  0  0  0  0  0  0  0
   56.7343   31.7546   43.0045 H   0  0  0  0  0  0  0  0  0  0  0  0
   59.1305   33.7402   43.3166 H   0  0  0  0  0  0  0  0  0  0  0  0
   59.2611   35.4842   45.3815 H   0  0  0  0  0  0  0  0  0  0  0  0
   57.6616   34.4485   47.2953 H   0  0  0  0  0  0  0  0  0  0  0  0
   56.2830   27.9960   44.4480 H   0  0  0  0  0  0  0  0  0  0  0  0
  1  2  1  0
  2  3  1  0
  3  4  1  0
  4  5  2  0
  5  6  1  0
  6  7  1  0
  7  8  2  0
  8  9  1  0
  9 10  2  0
 10 11  1  0
 11 12  2  0
 12 13  1  0
 13 14  1  0
 13 15  2  0
  7 16  1  0
 16 17  1  0
 17 18  2  0
 18 19  1  0
 19 20  1  0
 20 21  2  0
 21 22  1  0
 22 23  2  0
 23 24  1  0
 17 25  1  0
 25 26  1  0
 26  3  1  0
 26  6  2  0
 15  9  1  0
 24 20  1  0
  1 27  1  0
  1 28  1  0
  1 29  1  0
  2 30  1  0
  2 31  1  0
  4 32  1  0
 10 33  1  0
 11 34  1  0
 12 35  1  0
 15 36  1  0
 16 37  1  0
 19 38  1  0
 19 39  1  0
 21 40  1  0
 22 41  1  0
 23 42  1  0
 25 43  1  0
M  END
>  <smiles>  (17) 
CCn1cnc2c(=Nc3cccc(Cl)c3)[nH]c(=NCc3ccco3)[nH]c21

>  <score_type>  (17) 
oracle

>  <origin>  (17) 
adg

>  <m_score__min__energy>  (17) 
-8.0099999999999998

>  <m_primary>  (17) 
energy

$$$$
17:0
     RDKit          3D

 47 48  0  0  0  0  0  0  0  0999 V2000
   56.2680   30.0890   43.5980 C   0  0  0  0  0  0  0  0  0  0  0  0
   56.4530   30.8470   44.7880 O   0  0  0  0  0  0  0  0  0  0  0  0
   56.9180   32.1460   44.7420 N   0  0  0  0  0  0  0  0  0  0  0  0
   57.8050   32.6270   45.5620 C   0  0  0  0  0  0  0  0  0  0  0  0
   59.0060   33.3290   44.9800 C   0  0  0  0  0  0  0  0  0  0  0  0
   59.5030   34.4480   45.9010 C   0  0  0  0  0  0  0  0  0  0  0  0
   59.5760   33.9580   47.2770 N   0  0  0  0  0  0  0  0  0  0  0  0
   60.8460   33.6020   47.8450 C   0  0  0  0  0  0  0  0  0  0  0  0
   61.5420   34.5340   48.6290 C   0  0  0  0  0  0  0  0  0  0  0  0
   62.7780   34.2060   49.1850 C   0  0  0  0  0  0  0  0  0  0  0  0
   63.3330   32.9420   48.9610 C   0  0  0  0  0  0  0  0  0  0  0  0
   64.8900   32.5350   49.6560 Cl  0  0  0  0  0  0  0  0  0  0  0  0
   62.6500   32.0070   48.1780 C   0  0  0  0  0  0  0  0  0  0  0  0
   61.3990   32.3210   47.6210 C   0  0  0  0  0  0  0  0  0  0  0  0
   60.6940   31.3190   46.7470 C   0  0  0  0  0  0  0  0  0  0  0  0
   60.9890   29.9740   47.2310 N   0  0  0  0  0  0  0  0  0  0  0  0
   59.5180   29.0640   47.3880 S   0  0  0  0  0  0  0  0  0  0  0  0
   58.6040   29.7260   48.3810 O   0  0  0  0  0  0  0  0  0  0  0  0
   59.8340   27.6730   47.8590 O   0  0  0  0  0  0  0  0  0  0  0  0
   58.6980   28.9840   45.7980 C   0  0  0  0  0  0  0  0  0  0  0  0
   59.7180   28.7170   44.6890 C   0  0  0  0  0  0  0  0  0  0  0  0
   57.6170   27.9020   45.8120 C   0  0  0  0  0  0  0  0  0  0  0  0
   58.3370   33.4600   47.8770 C   0  0  0  0  0  0  0  0  0  0  0  0
   57.7760   32.3040   47.0420 C   0  0  0  0  0  0  0  0  0  0  0  0
   56.0147   29.0511   43.8600 H   0  0  0  0  0  0  0  0  0  0  0  0
   55.4506   30.5279   43.0070 H   0  0  0  0  0  0  0  0  0  0  0  0
   57.1957   30.1020   43.0070 H   0  0  0  0  0  0  0  0  0  0  0  0
   59.8145   32.5966   44.8389 H   0  0  0  0  0  0  0  0  0  0  0  0
   58.7119   33.7774   44.0196 H   0  0  0  0  0  0  0  0  0  0  0  0
   60.5021   34.7731   45.5751 H   0  0  0  0  0  0  0  0  0  0  0  0
   58.8045   35.2964   45.8530 H   0  0  0  0  0  0  0  0  0  0  0  0
   61.1100   35.5300   48.8063 H   0  0  0  0  0  0  0  0  0  0  0  0
   63.3168   34.9418   49.8001 H   0  0  0  0  0  0  0  0  0  0  0  0
   63.0954   31.0177   47.9965 H   0  0  0  0  0  0  0  0  0  0  0  0
   59.6089   31.4950   46.7859 H   0  0  0  0  0  0  0  0  0  0  0  0
   61.0403   31.4239   45.7082 H   0  0  0  0  0  0  0  0  0  0  0  0
   58.2150   29.9520   45.5988 H   0  0  0  0  0  0  0  0  0  0  0  0
   60.6895   28.4627   45.1379 H   0  0  0  0  0  0  0  0  0  0  0  0
   59.3714   27.8793   44.0660 H   0  0  0  0  0  0  0  0  0  0  0  0
   59.8263   29.6171   44.0660 H   0  0  0  0  0  0  0  0  0  0  0  0
   57.3646   27.6493   46.8524 H   0  0  0  0  0  0  0  0  0  0  0  0
   56.7191   28.2741   45.2968 H   0  0  0  0  0  0  0  0  0  0  0  0
   57.9899   27.0045   45.2968 H   0  0  0  0  0  0  0  0  0  0  0  0
   58.5438   33.1051   48.8974 H   0  0  0  0  0  0  0  0  0  0  0  0
   57.5983   34.2745   47.9069 H   0  0  0  0  0  0  0  0  0  0  0  0
   58.3817   31.4040   47.2240 H   0  0  0  0  0  0  0  0  0  0  0  0
   56.7303   32.1371   47.3398 H   0  0  0  0  0  0  0  0  0  0  0  0
  1  2  1  0
  2  3  1  0
  3  4  2  3
  4  5  1  0
  5  6  1  0
  6  7  1  0
  7  8  1  0
  8  9  2  0
  9 10  1  0
 10 11  2  0
 11 12  1  0
 11 13  1  0
 13 14  2  0
 14 15  1  0
 15 16  1  0
 16 17  1  0
 17 18  2  0
 17 19  2  0
 17 20  1  0
 20 21  1  0
 20 22  1  0
  7 23  1  0
 23 24  1  0
 24  4  1  0
 14  8  1  0
  1 25  1  0
  1 26  1  0
  1 27  1  0
  5 28  1  0
  5 29  1  0
  6 30  1  0
  6 31  1  0
  9 32  1  0
 10 33  1  0
 13 34  1  0
 15 35  1  0
 15 36  1  0
 20 37  1  0
 21 38  1  0
 21 39  1  0
 21 40  1  0
 22 41  1  0
 22 42  1  0
 22 43  1  0
 23 44  1  0
 23 45  1  0
 24 46  1  0
 24 47  1  0
M  CHG  1  16  -1
M  END
>  <UniqueID>  (18) 
16

>  <SMILES>  (18) 
CON=C1CCN(c2ccc(Cl)cc2C[N-]S(=O)(=O)C(C)C)CC1

>  <Energy>  (18) 
45.11435724896247

>  <Genealogy>  (18) 
CON=C1CCN(c2ccc(Cl)cc2C[N-]S(=O)(=O)C(C)C)CC1 (protonated)
CON=C1CCN(c2ccc(Cl)cc2C[N-]S(=O)(=O)C(C)C)CC1 (3D coordinates assigned)
CON=C1CCN(c2ccc(Cl)cc2C[N-]S(=O)(=O)C(C)C)CC1 (nonaromatic ring conformer: 45.11435724896247 kcal/mol)

>  <smiles>  (18) 
CON=C1CCN(c2ccc(Cl)cc2CNS(=O)(=O)C(C)C)CC1

>  <score_type>  (18) 
oracle

>  <origin>  (18) 
adg

>  <m_score__min__energy>  (18) 
-9.3100000000000005

>  <m_primary>  (18) 
energy

$$$$
18:0
     RDKit          3D

 45 48  0  0  0  0  0  0  0  0999 V2000
   56.2720   28.5740   43.8200 H   0  0  0  0  0  0  0  0  0  0  0  0
   55.9990   29.3860   44.4180 N   0  0  0  0  0  0  0  0  0  0  0  0
   56.8660   30.2650   44.8050 C   0  0  0  0  0  0  0  0  0  0  0  0
   56.5410   31.5890   44.8060 N   0  0  0  0  0  0  0  0  0  0  0  0
   57.4170   32.5380   45.2530 C   0  0  0  0  0  0  0  0  0  0  0  0
   57.0120   33.9770   45.2550 C   0  0  0  0  0  0  0  0  0  0  0  0
   56.9130   34.3286   46.2926 H   0  0  0  0  0  0  0  0  0  0  0  0
   57.7770   34.5739   44.7369 H   0  0  0  0  0  0  0  0  0  0  0  0
   56.0479   34.0873   44.7369 H   0  0  0  0  0  0  0  0  0  0  0  0
   58.6700   32.1560   45.7560 C   0  0  0  0  0  0  0  0  0  0  0  0
   59.3823   32.8992   46.1438 H   0  0  0  0  0  0  0  0  0  0  0  0
   58.9750   30.7950   45.7440 C   0  0  0  0  0  0  0  0  0  0  0  0
   60.1050   30.2140   46.2070 N   0  0  0  0  0  0  0  0  0  0  0  0
   61.2460   30.8410   46.8770 C   0  0  0  0  0  0  0  0  0  0  0  0
   61.8010   30.0762   47.4401 H   0  0  0  0  0  0  0  0  0  0  0  0
   61.8983   31.2989   46.1188 H   0  0  0  0  0  0  0  0  0  0  0  0
   60.7720   31.9130   47.8280 C   0  0  0  0  0  0  0  0  0  0  0  0
   59.8480   31.6030   48.8400 C   0  0  0  0  0  0  0  0  0  0  0  0
   59.4527   30.5800   48.9250 H   0  0  0  0  0  0  0  0  0  0  0  0
   59.4280   32.5880   49.7400 C   0  0  0  0  0  0  0  0  0  0  0  0
   58.5380   32.2800   50.7150 F   0  0  0  0  0  0  0  0  0  0  0  0
   59.9270   33.8880   49.6370 C   0  0  0  0  0  0  0  0  0  0  0  0
   59.5990   34.6607   50.3479 H   0  0  0  0  0  0  0  0  0  0  0  0
   60.8430   34.2080   48.6310 C   0  0  0  0  0  0  0  0  0  0  0  0
   61.2322   35.2336   48.5492 H   0  0  0  0  0  0  0  0  0  0  0  0
   61.2660   33.2270   47.7280 C   0  0  0  0  0  0  0  0  0  0  0  0
   62.1500   33.5620   46.7550 F   0  0  0  0  0  0  0  0  0  0  0  0
   59.9320   28.8890   46.0000 C   0  0  0  0  0  0  0  0  0  0  0  0
   60.6507   28.0999   46.2660 H   0  0  0  0  0  0  0  0  0  0  0  0
   58.7010   28.6890   45.3980 C   0  0  0  0  0  0  0  0  0  0  0  0
   58.1740   27.3800   44.9680 C   0  0  0  0  0  0  0  0  0  0  0  0
   58.2350   26.9930   43.6210 C   0  0  0  0  0  0  0  0  0  0  0  0
   58.6534   27.6811   42.8717 H   0  0  0  0  0  0  0  0  0  0  0  0
   57.7660   25.7360   43.2270 C   0  0  0  0  0  0  0  0  0  0  0  0
   57.7974   25.4486   42.1657 H   0  0  0  0  0  0  0  0  0  0  0  0
   57.2560   24.8400   44.1770 C   0  0  0  0  0  0  0  0  0  0  0  0
   56.7170   23.5080   43.7490 C   0  0  0  0  0  0  0  0  0  0  0  0
   56.4741   22.9078   44.6383 H   0  0  0  0  0  0  0  0  0  0  0  0
   55.8081   23.6564   43.1474 H   0  0  0  0  0  0  0  0  0  0  0  0
   57.4733   22.9826   43.1474 H   0  0  0  0  0  0  0  0  0  0  0  0
   57.1990   25.2250   45.5270 C   0  0  0  0  0  0  0  0  0  0  0  0
   56.7831   24.5356   46.2765 H   0  0  0  0  0  0  0  0  0  0  0  0
   57.6690   26.4810   45.9210 C   0  0  0  0  0  0  0  0  0  0  0  0
   57.6431   26.7666   46.9830 H   0  0  0  0  0  0  0  0  0  0  0  0
   58.1010   29.8950   45.2520 N   0  0  0  0  0  0  0  0  0  0  0  0
  1  2  1  0
  2  3  2  0
  3  4  1  0
  4  5  2  0
  5  6  1  0
  6  7  1  0
  6  8  1  0
  6  9  1  0
  5 10  1  0
 10 11  1  0
 10 12  2  0
 12 13  1  0
 13 14  1  0
 14 15  1  0
 14 16  1  0
 14 17  1  0
 17 18  2  0
 18 19  1  0
 18 20  1  0
 20 21  1  0
 20 22  2  0
 22 23  1  0
 22 24  1  0
 24 25  1  0
 24 26  2  0
 26 27  1  0
 13 28  1  0
 28 29  1  0
 28 30  2  0
 30 31  1  0
 31 32  2  0
 32 33  1  0
 32 34  1  0
 34 35  1  0
 34 36  2  0
 36 37  1  0
 37 38  1  0
 37 39  1  0
 37 40  1  0
 36 41  1  0
 41 42  1  0
 41 43  2  0
 43 44  1  0
 30 45  1  0
 45  3  1  0
 45 12  1  0
 26 17  1  0
 43 31  1  0
M  END
>  <UniqueID>  (19) 
17

>  <SMILES>  (19) 
[H]/N=c1\nc(C)cc2n(Cc3cc(F)ccc3F)cc(-c3ccc(C)cc3)n12

>  <Energy>  (19) 
91.96396009736199

>  <Genealogy>  (19) 
[H]/N=c1\nc(C)cc2n(Cc3cc(F)ccc3F)cc(-c3ccc(C)cc3)n12 (cis-trans isomerization)
[H]/N=c1\nc(C)cc2n(Cc3cc(F)ccc3F)cc(-c3ccc(C)cc3)n12 (3D coordinates assigned)
[H]/N=c1\nc(C)cc2n(Cc3cc(F)ccc3F)cc(-c3ccc(C)cc3)n12 (optimized conformer: 91.96396009736199 kcal/mol)

>  <smiles>  (19) 
Cc1ccc(-c2cn(Cc3cc(F)ccc3F)c3cc(C)nc(=N)n23)cc1

>  <score_type>  (19) 
oracle

>  <origin>  (19) 
adg

>  <m_score__min__energy>  (19) 
-8.1600000000000001

>  <m_primary>  (19) 
energy

$$$$
19:0
     RDKit          3D

 43 44  0  0  0  0  0  0  0  0999 V2000
   58.0570   26.5460   43.8050 C   0  0  0  0  0  0  0  0  0  0  0  0
   57.3730   25.8840   45.0020 C   0  0  0  0  0  0  0  0  0  0  0  0
   56.7190   26.8880   45.9680 C   0  0  2  0  0  0  0  0  0  0  0  0
   55.3260   26.6980   45.9850 O   0  0  0  0  0  0  0  0  0  0  0  0
   57.0780   28.3200   45.6140 C   0  0  0  0  0  0  0  0  0  0  0  0
   56.2660   29.0870   44.7610 C   0  0  0  0  0  0  0  0  0  0  0  0
   56.6290   30.3920   44.4200 C   0  0  0  0  0  0  0  0  0  0  0  0
   57.8250   30.9510   44.9120 C   0  0  0  0  0  0  0  0  0  0  0  0
   58.2550   32.2490   44.5900 O   0  0  0  0  0  0  0  0  0  0  0  0
   57.6540   33.4710   45.0280 C   0  0  0  0  0  0  0  0  0  0  0  0
   58.6960   34.5920   45.1490 C   0  0  0  0  0  0  0  0  0  0  0  0
   59.6720   34.3470   46.2690 C   0  0  0  0  0  0  0  0  0  0  0  0
   59.2950   34.5730   47.6020 C   0  0  0  0  0  0  0  0  0  0  0  0
   60.1870   34.3010   48.6430 C   0  0  0  0  0  0  0  0  0  0  0  0
   61.4630   33.7960   48.3710 C   0  0  0  0  0  0  0  0  0  0  0  0
   62.3170   33.5280   49.4520 O   0  0  0  0  0  0  0  0  0  0  0  0
   63.6680   33.0990   49.3230 C   0  0  0  0  0  0  0  0  0  0  0  0
   61.8430   33.5690   47.0350 C   0  0  0  0  0  0  0  0  0  0  0  0
   60.9530   33.8450   45.9930 C   0  0  0  0  0  0  0  0  0  0  0  0
   58.6300   30.1850   45.7620 C   0  0  0  0  0  0  0  0  0  0  0  0
   58.2680   28.8800   46.1040 C   0  0  0  0  0  0  0  0  0  0  0  0
   58.8043   27.2692   44.1635 H   0  0  0  0  0  0  0  0  0  0  0  0
   58.5540   25.7771   43.1953 H   0  0  0  0  0  0  0  0  0  0  0  0
   57.3047   27.0678   43.1953 H   0  0  0  0  0  0  0  0  0  0  0  0
   56.5939   25.2046   44.6259 H   0  0  0  0  0  0  0  0  0  0  0  0
   58.1529   25.3524   45.5670 H   0  0  0  0  0  0  0  0  0  0  0  0
   57.1113   26.7025   46.9788 H   0  0  0  0  0  0  0  0  0  0  0  0
   55.1000   26.3220   46.8770 H   0  0  0  0  0  0  0  0  0  0  0  0
   55.3372   28.6562   44.3587 H   0  0  0  0  0  0  0  0  0  0  0  0
   55.9771   30.9869   43.7633 H   0  0  0  0  0  0  0  0  0  0  0  0
   56.8853   33.7730   44.3015 H   0  0  0  0  0  0  0  0  0  0  0  0
   57.2075   33.3030   46.0192 H   0  0  0  0  0  0  0  0  0  0  0  0
   59.2532   34.6606   44.2030 H   0  0  0  0  0  0  0  0  0  0  0  0
   58.1600   35.5272   45.3685 H   0  0  0  0  0  0  0  0  0  0  0  0
   58.2929   34.9660   47.8284 H   0  0  0  0  0  0  0  0  0  0  0  0
   59.8835   34.4854   49.6841 H   0  0  0  0  0  0  0  0  0  0  0  0
   64.1056   32.9600   50.3226 H   0  0  0  0  0  0  0  0  0  0  0  0
   63.6994   32.1467   48.7734 H   0  0  0  0  0  0  0  0  0  0  0  0
   64.2431   33.8587   48.7734 H   0  0  0  0  0  0  0  0  0  0  0  0
   62.8442   33.1729   46.8099 H   0  0  0  0  0  0  0  0  0  0  0  0
   61.2584   33.6677   44.9512 H   0  0  0  0  0  0  0  0  0  0  0  0
   59.5585   30.6153   46.1655 H   0  0  0  0  0  0  0  0  0  0  0  0
   58.9202   28.2870   46.7620 H   0  0  0  0  0  0  0  0  0  0  0  0
  1  2  1  0
  2  3  1  0
  3  4  1  0
  3  5  1  0
  5  6  2  0
  6  7  1  0
  7  8  2  0
  8  9  1  0
  9 10  1  0
 10 11  1  0
 11 12  1  0
 12 13  2  0
 13 14  1  0
 14 15  2  0
 15 16  1  0
 16 17  1  0
 15 18  1  0
 18 19  2  0
  8 20  1  0
 20 21  2  0
 21  5  1  0
 19 12  1  0
  1 22  1  0
  1 23  1  0
  1 24  1  0
  2 25  1  0
  2 26  1  0
  3 27  1  1
  4 28  1  0
  6 29  1  0
  7 30  1  0
 10 31  1  0
 10 32  1  0
 11 33  1  0
 11 34  1  0
 13 35  1  0
 14 36  1  0
 17 37  1  0
 17 38  1  0
 17 39  1  0
 18 40  1  0
 19 41  1  0
 20 42  1  0
 21 43  1  0
M  END
>  <UniqueID>  (20) 
18

>  <SMILES>  (20) 
CC[C@H](O)c1ccc(OCCc2ccc(OC)cc2)cc1

>  <Energy>  (20) 
35.09597368662558

>  <Genealogy>  (20) 
CC[C@H](O)c1ccc(OCCc2ccc(OC)cc2)cc1 (chirality)
CC[C@H](O)c1ccc(OCCc2ccc(OC)cc2)cc1 (3D coordinates assigned)
CC[C@H](O)c1ccc(OCCc2ccc(OC)cc2)cc1 (optimized conformer: 35.09597368662558 kcal/mol)

>  <smiles>  (20) 
CCC(O)c1ccc(OCCc2ccc(OC)cc2)cc1

>  <score_type>  (20) 
oracle

>  <origin>  (20) 
adg

>  <m_score__min__energy>  (20) 
-7.0800000000000001

>  <m_primary>  (20) 
energy

$$$$
20:0
     RDKit          3D

 40 40  0  0  0  0  0  0  0  0999 V2000
   57.8100   27.2320   47.0970 C   0  0  0  0  0  0  0  0  0  0  0  0
   56.9870   27.4820   45.9090 N   0  0  0  0  0  0  0  0  0  0  0  0
   57.4810   28.6300   45.1240 C   0  0  1  0  0  0  0  0  0  0  0  0
   58.0300   28.1700   43.7670 C   0  0  0  0  0  0  0  0  0  0  0  0
   56.3520   29.6110   44.8810 C   0  0  0  0  0  0  0  0  0  0  0  0
   55.1640   29.1920   44.8740 O   0  0  0  0  0  0  0  0  0  0  0  0
   56.5920   30.9930   44.5910 N   0  0  0  0  0  0  0  0  0  0  0  0
   57.7090   31.5020   43.8020 C   0  0  0  0  0  0  0  0  0  0  0  0
   57.7750   33.0270   43.9040 C   0  0  0  0  0  0  0  0  0  0  0  0
   58.3340   33.4650   45.2330 C   0  0  0  0  0  0  0  0  0  0  0  0
   59.1970   34.5670   45.3050 C   0  0  0  0  0  0  0  0  0  0  0  0
   59.7430   34.9570   46.5280 C   0  0  0  0  0  0  0  0  0  0  0  0
   59.4420   34.2410   47.7040 C   0  0  0  0  0  0  0  0  0  0  0  0
   59.9730   34.6030   48.9520 O   0  0  0  0  0  0  0  0  0  0  0  0
   61.2350   34.1700   49.4490 C   0  0  0  0  0  0  0  0  0  0  0  0
   58.5890   33.1290   47.6390 C   0  0  0  0  0  0  0  0  0  0  0  0
   58.3120   32.4300   48.8250 O   0  0  0  0  0  0  0  0  0  0  0  0
   58.9310   31.2050   49.2040 C   0  0  0  0  0  0  0  0  0  0  0  0
   58.0390   32.7440   46.3990 C   0  0  0  0  0  0  0  0  0  0  0  0
   57.2120   27.4137   48.0022 H   0  0  0  0  0  0  0  0  0  0  0  0
   58.1566   26.1881   47.0899 H   0  0  0  0  0  0  0  0  0  0  0  0
   58.6787   27.9068   47.0899 H   0  0  0  0  0  0  0  0  0  0  0  0
   56.0280   27.7150   46.2610 H   0  0  0  0  0  0  0  0  0  0  0  0
   58.2876   29.1107   45.6970 H   0  0  0  0  0  0  0  0  0  0  0  0
   58.8642   27.4710   43.9268 H   0  0  0  0  0  0  0  0  0  0  0  0
   57.2329   27.6662   43.2007 H   0  0  0  0  0  0  0  0  0  0  0  0
   58.3865   29.0430   43.2007 H   0  0  0  0  0  0  0  0  0  0  0  0
   58.6477   31.0714   44.1807 H   0  0  0  0  0  0  0  0  0  0  0  0
   57.5641   31.2182   42.7492 H   0  0  0  0  0  0  0  0  0  0  0  0
   58.4196   33.4120   43.1001 H   0  0  0  0  0  0  0  0  0  0  0  0
   56.7539   33.4250   43.8096 H   0  0  0  0  0  0  0  0  0  0  0  0
   59.4452   35.1277   44.3917 H   0  0  0  0  0  0  0  0  0  0  0  0
   60.4125   35.8286   46.5748 H   0  0  0  0  0  0  0  0  0  0  0  0
   61.2176   34.1760   50.5488 H   0  0  0  0  0  0  0  0  0  0  0  0
   61.4397   33.1502   49.0911 H   0  0  0  0  0  0  0  0  0  0  0  0
   62.0227   34.8493   49.0911 H   0  0  0  0  0  0  0  0  0  0  0  0
   58.9659   31.1359   50.3013 H   0  0  0  0  0  0  0  0  0  0  0  0
   58.3510   30.3613   48.8018 H   0  0  0  0  0  0  0  0  0  0  0  0
   59.9543   31.1714   48.8018 H   0  0  0  0  0  0  0  0  0  0  0  0
   57.3727   31.8704   46.3459 H   0  0  0  0  0  0  0  0  0  0  0  0
  1  2  1  0
  2  3  1  0
  3  4  1  0
  3  5  1  0
  5  6  2  0
  5  7  1  0
  7  8  1  0
  8  9  1  0
  9 10  1  0
 10 11  2  0
 11 12  1  0
 12 13  2  0
 13 14  1  0
 14 15  1  0
 13 16  1  0
 16 17  1  0
 17 18  1  0
 16 19  2  0
 19 10  1  0
  1 20  1  0
  1 21  1  0
  1 22  1  0
  2 23  1  0
  3 24  1  1
  4 25  1  0
  4 26  1  0
  4 27  1  0
  8 28  1  0
  8 29  1  0
  9 30  1  0
  9 31  1  0
 11 32  1  0
 12 33  1  0
 15 34  1  0
 15 35  1  0
 15 36  1  0
 18 37  1  0
 18 38  1  0
 18 39  1  0
 19 40  1  0
M  CHG  1   7  -1
M  END
>  <UniqueID>  (21) 
19

>  <SMILES>  (21) 
CN[C@@H](C)C(=O)[N-]CCc1ccc(OC)c(OC)c1

>  <Energy>  (21) 
29.939467068105273

>  <Genealogy>  (21) 
CNC(C)C(=O)[N-]CCc1ccc(OC)c(OC)c1 (protonated)
CN[C@@H](C)C(=O)[N-]CCc1ccc(OC)c(OC)c1 (chirality)
CN[C@@H](C)C(=O)[N-]CCc1ccc(OC)c(OC)c1 (3D coordinates assigned)
CN[C@@H](C)C(=O)[N-]CCc1ccc(OC)c(OC)c1 (optimized conformer: 29.939467068105273 kcal/mol)

>  <smiles>  (21) 
CNC(C)C(=O)NCCc1ccc(OC)c(OC)c1

>  <score_type>  (21) 
oracle

>  <origin>  (21) 
adg

>  <m_score__min__energy>  (21) 
-8.0099999999999998

>  <m_primary>  (21) 
energy

$$$$
21:0
     RDKit          3D

 63 65  0  0  0  0  0  0  0  0999 V2000
   62.4910   33.8170   46.4890 C   0  0  0  0  0  0  0  0  0  0  0  0
   61.9270   33.1960   47.6980 N   0  0  0  0  0  0  0  0  0  0  0  0
   62.9660   32.4020   48.3740 C   0  0  0  0  0  0  0  0  0  0  0  0
   61.3680   34.2220   48.6060 C   0  0  0  0  0  0  0  0  0  0  0  0
   59.8370   34.2510   48.4920 C   0  0  0  0  0  0  0  0  0  0  0  0
   59.3070   32.9340   48.0990 N   0  0  0  0  0  0  0  0  0  0  0  0
   58.8310   32.9660   46.7330 C   0  0  0  0  0  0  0  0  0  0  0  0
   58.3730   34.1820   46.1890 C   0  0  0  0  0  0  0  0  0  0  0  0
   57.8480   34.2320   44.8970 C   0  0  0  0  0  0  0  0  0  0  0  0
   57.7560   33.0680   44.1350 C   0  0  0  0  0  0  0  0  0  0  0  0
   58.1890   31.8510   44.6590 C   0  0  0  0  0  0  0  0  0  0  0  0
   58.7330   31.7840   45.9510 C   0  0  0  0  0  0  0  0  0  0  0  0
   59.1640   30.4680   46.4680 C   0  0  0  0  0  0  0  0  0  0  0  0
   60.4370   30.3040   47.0300 C   0  0  0  0  0  0  0  0  0  0  0  0
   60.8220   29.0910   47.5030 N   0  0  0  0  0  0  0  0  0  0  0  0
   60.0110   28.0030   47.4340 C   0  0  0  0  0  0  0  0  0  0  0  0
   58.7360   28.1020   46.8510 C   0  0  0  0  0  0  0  0  0  0  0  0
   57.8530   26.9100   46.7470 C   0  0  0  0  0  0  0  0  0  0  0  0
   56.6680   26.9550   45.9920 C   0  0  0  0  0  0  0  0  0  0  0  0
   55.8380   25.8340   45.9020 C   0  0  0  0  0  0  0  0  0  0  0  0
   56.1870   24.6360   46.5540 C   0  0  0  0  0  0  0  0  0  0  0  0
   55.3990   23.4750   46.4950 O   0  0  0  0  0  0  0  0  0  0  0  0
   54.9230   22.8380   45.3090 C   0  0  0  0  0  0  0  0  0  0  0  0
   55.8930   21.7460   44.8470 C   0  0  0  0  0  0  0  0  0  0  0  0
   56.1600   21.8550   43.3960 N   0  0  0  0  0  0  0  0  0  0  0  0
   56.2710   23.2650   42.9910 C   0  0  0  0  0  0  0  0  0  0  0  0
   57.3960   21.1390   43.0320 C   0  0  0  0  0  0  0  0  0  0  0  0
   57.3640   24.5930   47.3060 C   0  0  0  0  0  0  0  0  0  0  0  0
   58.1910   25.7130   47.4040 C   0  0  0  0  0  0  0  0  0  0  0  0
   58.3200   29.3550   46.3680 C   0  0  0  0  0  0  0  0  0  0  0  0
   63.2044   34.6025   46.7790 H   0  0  0  0  0  0  0  0  0  0  0  0
   63.0100   33.0525   45.8921 H   0  0  0  0  0  0  0  0  0  0  0  0
   61.6802   34.2602   45.8921 H   0  0  0  0  0  0  0  0  0  0  0  0
   62.8464   32.4934   49.4637 H   0  0  0  0  0  0  0  0  0  0  0  0
   62.8687   31.3460   48.0817 H   0  0  0  0  0  0  0  0  0  0  0  0
   63.9594   32.7733   48.0817 H   0  0  0  0  0  0  0  0  0  0  0  0
   61.6511   33.9839   49.6419 H   0  0  0  0  0  0  0  0  0  0  0  0
   61.7683   35.2073   48.3252 H   0  0  0  0  0  0  0  0  0  0  0  0
   59.4100   34.5336   49.4656 H   0  0  0  0  0  0  0  0  0  0  0  0
   59.5591   34.9830   47.7194 H   0  0  0  0  0  0  0  0  0  0  0  0
   58.5410   32.6320   48.7400 H   0  0  0  0  0  0  0  0  0  0  0  0
   60.0660   32.2210   48.1940 H   0  0  0  0  0  0  0  0  0  0  0  0
   58.4298   35.1021   46.7891 H   0  0  0  0  0  0  0  0  0  0  0  0
   57.5064   35.1906   44.4794 H   0  0  0  0  0  0  0  0  0  0  0  0
   57.3405   33.1101   43.1174 H   0  0  0  0  0  0  0  0  0  0  0  0
   58.1036   30.9357   44.0549 H   0  0  0  0  0  0  0  0  0  0  0  0
   61.1258   31.1597   47.0881 H   0  0  0  0  0  0  0  0  0  0  0  0
   60.3545   27.0388   47.8369 H   0  0  0  0  0  0  0  0  0  0  0  0
   56.3913   27.8812   45.4671 H   0  0  0  0  0  0  0  0  0  0  0  0
   54.9070   25.8881   45.3186 H   0  0  0  0  0  0  0  0  0  0  0  0
   53.9416   22.3850   45.5128 H   0  0  0  0  0  0  0  0  0  0  0  0
   54.8403   23.5935   44.5138 H   0  0  0  0  0  0  0  0  0  0  0  0
   56.8404   21.8503   45.3961 H   0  0  0  0  0  0  0  0  0  0  0  0
   55.4381   20.7647   45.0474 H   0  0  0  0  0  0  0  0  0  0  0  0
   56.3211   23.9010   43.8871 H   0  0  0  0  0  0  0  0  0  0  0  0
   57.1828   23.4036   42.3916 H   0  0  0  0  0  0  0  0  0  0  0  0
   55.3921   23.5446   42.3916 H   0  0  0  0  0  0  0  0  0  0  0  0
   57.9250   20.8325   43.9464 H   0  0  0  0  0  0  0  0  0  0  0  0
   57.1425   20.2479   42.4390 H   0  0  0  0  0  0  0  0  0  0  0  0
   58.0429   21.8022   42.4390 H   0  0  0  0  0  0  0  0  0  0  0  0
   57.6421   23.6651   47.8271 H   0  0  0  0  0  0  0  0  0  0  0  0
   59.1142   25.6593   47.9996 H   0  0  0  0  0  0  0  0  0  0  0  0
   57.3261   29.4618   45.9090 H   0  0  0  0  0  0  0  0  0  0  0  0
  1  2  1  0
  2  3  1  0
  2  4  1  0
  4  5  1  0
  5  6  1  0
  6  7  1  0
  7  8  2  0
  8  9  1  0
  9 10  2  0
 10 11  1  0
 11 12  2  0
 12 13  1  0
 13 14  2  0
 14 15  1  0
 15 16  2  0
 16 17  1  0
 17 18  1  0
 18 19  2  0
 19 20  1  0
 20 21  2  0
 21 22  1  0
 22 23  1  0
 23 24  1  0
 24 25  1  0
 25 26  1  0
 25 27  1  0
 21 28  1  0
 28 29  2  0
 17 30  2  0
 12  7  1  0
 30 13  1  0
 29 18  1  0
  1 31  1  0
  1 32  1  0
  1 33  1  0
  3 34  1  0
  3 35  1  0
  3 36  1  0
  4 37  1  0
  4 38  1  0
  5 39  1  0
  5 40  1  0
  6 41  1  0
  6 42  1  0
  8 43  1  0
  9 44  1  0
 10 45  1  0
 11 46  1  0
 14 47  1  0
 16 48  1  0
 19 49  1  0
 20 50  1  0
 23 51  1  0
 23 52  1  0
 24 53  1  0
 24 54  1  0
 26 55  1  0
 26 56  1  0
 26 57  1  0
 27 58  1  0
 27 59  1  0
 27 60  1  0
 28 61  1  0
 29 62  1  0
 30 63  1  0
M  CHG  1   6   1
M  END
>  <UniqueID>  (22) 
20

>  <SMILES>  (22) 
CN(C)CC[NH2+]c1ccccc1-c1cncc(-c2ccc(OCCN(C)C)cc2)c1

>  <Energy>  (22) 
76.02185599127446

>  <Genealogy>  (22) 
CN(C)CC[NH2+]c1ccccc1-c1cncc(-c2ccc(OCCN(C)C)cc2)c1 (protonated)
CN(C)CC[NH2+]c1ccccc1-c1cncc(-c2ccc(OCCN(C)C)cc2)c1 (3D coordinates assigned)
CN(C)CC[NH2+]c1ccccc1-c1cncc(-c2ccc(OCCN(C)C)cc2)c1 (optimized conformer: 76.02185599127446 kcal/mol)

>  <smiles>  (22) 
CN(C)CCNc1ccccc1-c1cncc(-c2ccc(OCCN(C)C)cc2)c1

>  <score_type>  (22) 
oracle

>  <origin>  (22) 
adg

>  <m_score__min__energy>  (22) 
-5.9400000000000004

>  <m_primary>  (22) 
energy

$$$$
22:0
     RDKit          3D

 42 44  0  0  0  0  0  0  0  0999 V2000
   56.9070   22.1820   43.4100 C   0  0  0  0  0  0  0  0  0  0  0  0
   55.5210   22.2840   43.6460 O   0  0  0  0  0  0  0  0  0  0  0  0
   55.1320   23.6390   43.5780 C   0  0  0  0  0  0  0  0  0  0  0  0
   54.2310   23.9650   44.7370 C   0  0  0  0  0  0  0  0  0  0  0  0
   53.1340   23.3570   44.8450 O   0  0  0  0  0  0  0  0  0  0  0  0
   54.5940   24.9210   45.7440 N   0  0  0  0  0  0  0  0  0  0  0  0
   55.9220   25.3450   46.0780 C   0  0  0  0  0  0  0  0  0  0  0  0
   56.9150   24.4240   46.4440 C   0  0  0  0  0  0  0  0  0  0  0  0
   58.2020   24.8660   46.7520 C   0  0  0  0  0  0  0  0  0  0  0  0
   58.5170   26.2250   46.6740 C   0  0  0  0  0  0  0  0  0  0  0  0
   57.5470   27.1600   46.2660 C   0  0  0  0  0  0  0  0  0  0  0  0
   57.8590   28.6090   46.1710 C   0  0  0  0  0  0  0  0  0  0  0  0
   59.0220   29.1570   46.7320 C   0  0  0  0  0  0  0  0  0  0  0  0
   59.2670   30.5220   46.6080 C   0  0  0  0  0  0  0  0  0  0  0  0
   58.3470   31.3280   45.9210 C   0  0  0  0  0  0  0  0  0  0  0  0
   58.5550   32.7450   45.7650 N   0  0  0  0  0  0  0  0  0  0  0  0
   57.9180   33.5660   44.7490 C   0  0  0  0  0  0  0  0  0  0  0  0
   58.5580   34.9420   44.8700 C   0  0  0  0  0  0  0  0  0  0  0  0
   59.2490   34.9650   46.2310 C   0  0  0  0  0  0  0  0  0  0  0  0
   59.4480   33.5070   46.6220 C   0  0  0  0  0  0  0  0  0  0  0  0
   57.2420   30.7440   45.3860 N   0  0  0  0  0  0  0  0  0  0  0  0
   57.0080   29.4360   45.5060 N   0  0  0  0  0  0  0  0  0  0  0  0
   56.2480   26.7030   45.9690 C   0  0  0  0  0  0  0  0  0  0  0  0
   57.4407   22.1427   44.3711 H   0  0  0  0  0  0  0  0  0  0  0  0
   57.1150   21.2661   42.8374 H   0  0  0  0  0  0  0  0  0  0  0  0
   57.2469   23.0576   42.8374 H   0  0  0  0  0  0  0  0  0  0  0  0
   56.0259   24.2788   43.6182 H   0  0  0  0  0  0  0  0  0  0  0  0
   54.5932   23.8171   42.6357 H   0  0  0  0  0  0  0  0  0  0  0  0
   56.6783   23.3507   46.4883 H   0  0  0  0  0  0  0  0  0  0  0  0
   58.9716   24.1418   47.0574 H   0  0  0  0  0  0  0  0  0  0  0  0
   59.5300   26.5666   46.9332 H   0  0  0  0  0  0  0  0  0  0  0  0
   59.7357   28.5127   47.2663 H   0  0  0  0  0  0  0  0  0  0  0  0
   60.1742   30.9646   47.0450 H   0  0  0  0  0  0  0  0  0  0  0  0
   58.0979   33.1461   43.7484 H   0  0  0  0  0  0  0  0  0  0  0  0
   56.8279   33.6117   44.8888 H   0  0  0  0  0  0  0  0  0  0  0  0
   59.2926   35.0942   44.0655 H   0  0  0  0  0  0  0  0  0  0  0  0
   57.8099   35.7439   44.7837 H   0  0  0  0  0  0  0  0  0  0  0  0
   60.2195   35.4778   46.1589 H   0  0  0  0  0  0  0  0  0  0  0  0
   58.6506   35.5059   46.9789 H   0  0  0  0  0  0  0  0  0  0  0  0
   60.4920   33.2039   46.4542 H   0  0  0  0  0  0  0  0  0  0  0  0
   59.2305   33.3388   47.6871 H   0  0  0  0  0  0  0  0  0  0  0  0
   55.4799   27.4217   45.6474 H   0  0  0  0  0  0  0  0  0  0  0  0
  1  2  1  0
  2  3  1  0
  3  4  1  0
  4  5  2  0
  4  6  1  0
  6  7  1  0
  7  8  2  0
  8  9  1  0
  9 10  2  0
 10 11  1  0
 11 12  1  0
 12 13  2  0
 13 14  1  0
 14 15  2  0
 15 16  1  0
 16 17  1  0
 17 18  1  0
 18 19  1  0
 19 20  1  0
 15 21  1  0
 21 22  2  0
 11 23  2  0
 23  7  1  0
 22 12  1  0
 20 16  1  0
  1 24  1  0
  1 25  1  0
  1 26  1  0
  3 27  1  0
  3 28  1  0
  8 29  1  0
  9 30  1  0
 10 31  1  0
 13 32  1  0
 14 33  1  0
 17 34  1  0
 17 35  1  0
 18 36  1  0
 18 37  1  0
 19 38  1  0
 19 39  1  0
 20 40  1  0
 20 41  1  0
 23 42  1  0
M  CHG  1   6  -1
M  END
>  <UniqueID>  (23) 
21

>  <SMILES>  (23) 
COCC(=O)[N-]c1cccc(-c2ccc(N3CCCC3)nn2)c1

>  <Energy>  (23) 
52.77095430007524

>  <Genealogy>  (23) 
COCC(=O)[N-]c1cccc(-c2ccc(N3CCCC3)nn2)c1 (protonated)
COCC(=O)[N-]c1cccc(-c2ccc(N3CCCC3)nn2)c1 (3D coordinates assigned)
COCC(=O)[N-]c1cccc(-c2ccc(N3CCCC3)nn2)c1 (nonaromatic ring conformer: 52.77095430007524 kcal/mol)

>  <smiles>  (23) 
COCC(=O)Nc1cccc(-c2ccc(N3CCCC3)nn2)c1

>  <score_type>  (23) 
oracle

>  <origin>  (23) 
adg

>  <m_score__min__energy>  (23) 
-9.6799999999999997

>  <m_primary>  (23) 
energy

$$$$
23:0
     RDKit          3D

 36 38  0  0  1  0  0  0  0  0999 V2000
   63.3050   33.7440   46.7600 C   0  0  0  0  0  0  0  0  0  0  0  0
   61.8810   33.7940   46.7260 O   0  0  0  0  0  0  0  0  0  0  0  0
   61.2060   32.6340   47.0990 C   0  0  0  0  0  0  0  0  0  0  0  0
   61.8550   31.4580   47.4200 C   0  0  0  0  0  0  0  0  0  0  0  0
   61.1480   30.3100   47.7910 C   0  0  0  0  0  0  0  0  0  0  0  0
   59.7610   30.3660   47.8340 C   0  0  0  0  0  0  0  0  0  0  0  0
   59.0190   29.2540   48.1960 O   0  0  0  0  0  0  0  0  0  0  0  0
   58.3840   28.4780   47.2350 C   0  0  0  0  0  0  0  0  0  0  0  0
   57.9860   29.1250   46.0640 C   0  0  0  0  0  0  0  0  0  0  0  0
   57.3500   28.3890   45.0840 C   0  0  0  0  0  0  0  0  0  0  0  0
   56.9970   29.0150   44.0210 N   0  0  0  0  0  0  0  0  0  0  0  0
   56.9270   30.4370   44.0160 C   0  0  0  0  0  0  0  0  0  0  0  0
   55.9440   31.0360   44.5280 O   0  0  0  0  0  0  0  0  0  0  0  0
   58.0240   31.2530   43.3980 C   0  0  0  0  0  0  0  0  0  0  0  0
   57.7490   32.0720   42.1770 C   0  0  0  0  0  0  0  0  0  0  0  0
   58.0310   32.7170   43.5190 C   0  0  0  0  0  0  0  0  0  0  0  0
   57.1170   27.0550   45.2580 N   0  0  0  0  0  0  0  0  0  0  0  0
   57.5160   26.4550   46.4080 C   0  0  0  0  0  0  0  0  0  0  0  0
   58.1460   27.1620   47.3900 N   0  0  0  0  0  0  0  0  0  0  0  0
   59.1150   31.5650   47.5070 C   0  0  0  0  0  0  0  0  0  0  0  0
   59.8230   32.6940   47.1420 C   0  0  0  0  0  0  0  0  0  0  0  0
   58.8720   34.3040   46.7050 Br  0  0  0  0  0  0  0  0  0  0  0  0
   63.6466   33.7320   47.8055 H   0  0  0  0  0  0  0  0  0  0  0  0
   63.6522   32.8331   46.2503 H   0  0  0  0  0  0  0  0  0  0  0  0
   63.7152   34.6283   46.2503 H   0  0  0  0  0  0  0  0  0  0  0  0
   62.9538   31.4236   47.3830 H   0  0  0  0  0  0  0  0  0  0  0  0
   61.6799   29.3809   48.0438 H   0  0  0  0  0  0  0  0  0  0  0  0
   58.1752   30.1996   45.9247 H   0  0  0  0  0  0  0  0  0  0  0  0
   58.7442   30.4616   43.6528 H   0  0  0  0  0  0  0  0  0  0  0  0
   58.4922   32.1279   41.3679 H   0  0  0  0  0  0  0  0  0  0  0  0
   56.9422   32.1269   41.4313 H   0  0  0  0  0  0  0  0  0  0  0  0
   58.9788   33.2503   43.6842 H   0  0  0  0  0  0  0  0  0  0  0  0
   57.5089   33.4466   44.1555 H   0  0  0  0  0  0  0  0  0  0  0  0
   56.6320   26.5360   44.4900 H   0  0  0  0  0  0  0  0  0  0  0  0
   57.3283   25.3806   46.5507 H   0  0  0  0  0  0  0  0  0  0  0  0
   58.0164   31.6089   47.5416 H   0  0  0  0  0  0  0  0  0  0  0  0
  1  2  1  0
  2  3  1  0
  3  4  2  0
  4  5  1  0
  5  6  2  0
  6  7  1  0
  7  8  1  0
  8  9  2  0
  9 10  1  0
 10 11  2  0
 11 12  1  0
 12 13  2  0
 12 14  1  0
 14 15  1  0
 15 16  1  0
 10 17  1  0
 17 18  1  0
 18 19  2  0
  6 20  1  0
 20 21  2  0
 21 22  1  0
 21  3  1  0
 19  8  1  0
 16 14  1  0
  1 23  1  0
  1 24  1  0
  1 25  1  0
  4 26  1  0
  5 27  1  0
  9 28  1  0
 14 29  1  0
 15 30  1  0
 15 31  1  0
 16 32  1  0
 16 33  1  0
 17 34  1  0
 18 35  1  0
 20 36  1  0
M  END
>  <smiles>  (24) 
COc1ccc(Oc2cc(=NC(=O)C3CC3)[nH]cn2)cc1Br

>  <score_type>  (24) 
oracle

>  <origin>  (24) 
adg

>  <m_score__min__energy>  (24) 
-7.5099999999999998

>  <m_primary>  (24) 
energy

$$$$
24:0
     RDKit          3D

 43 46  0  0  0  0  0  0  0  0999 V2000
   63.5010   33.4700   48.0220 C   0  0  0  0  0  0  0  0  0  0  0  0
   63.5480   33.1630   49.3820 C   0  0  0  0  0  0  0  0  0  0  0  0
   62.8860   32.0760   49.8580 N   0  0  0  0  0  0  0  0  0  0  0  0
   62.1820   31.2530   49.0330 C   0  0  0  0  0  0  0  0  0  0  0  0
   62.1460   31.4930   47.6500 C   0  0  0  0  0  0  0  0  0  0  0  0
   61.3510   30.5780   46.7480 C   0  0  0  0  0  0  0  0  0  0  0  0
   59.9340   29.7840   47.6000 S   0  0  0  0  0  0  0  0  0  0  0  0
   58.5960   30.9910   47.1840 C   0  0  0  0  0  0  0  0  0  0  0  0
   58.9480   32.3470   47.8060 C   0  0  0  0  0  0  0  0  0  0  0  0
   58.9460   32.3950   49.2190 C   0  0  0  0  0  0  0  0  0  0  0  0
   59.3990   33.5190   49.9090 C   0  0  0  0  0  0  0  0  0  0  0  0
   59.8690   34.6230   49.2090 C   0  0  0  0  0  0  0  0  0  0  0  0
   59.8670   34.6150   47.8160 C   0  0  0  0  0  0  0  0  0  0  0  0
   59.4040   33.4930   47.1010 C   0  0  0  0  0  0  0  0  0  0  0  0
   59.3250   33.5920   45.6090 C   0  0  0  0  0  0  0  0  0  0  0  0
   57.9000   33.3070   45.1590 C   0  0  0  0  0  0  0  0  0  0  0  0
   57.7400   31.8510   44.8320 C   0  0  0  0  0  0  0  0  0  0  0  0
   57.2170   31.5270   43.5640 C   0  0  0  0  0  0  0  0  0  0  0  0
   57.0210   30.2030   43.1860 C   0  0  0  0  0  0  0  0  0  0  0  0
   57.3240   29.1790   44.0730 C   0  0  0  0  0  0  0  0  0  0  0  0
   57.8370   29.4770   45.3330 C   0  0  0  0  0  0  0  0  0  0  0  0
   58.0950   30.8090   45.7380 C   0  0  0  0  0  0  0  0  0  0  0  0
   62.7850   32.6430   47.1570 C   0  0  0  0  0  0  0  0  0  0  0  0
   64.0243   34.3569   47.6352 H   0  0  0  0  0  0  0  0  0  0  0  0
   64.1216   33.8016   50.0698 H   0  0  0  0  0  0  0  0  0  0  0  0
   62.9160   31.8680   50.8810 H   0  0  0  0  0  0  0  0  0  0  0  0
   61.6377   30.3942   49.4527 H   0  0  0  0  0  0  0  0  0  0  0  0
   60.9660   31.1673   45.9027 H   0  0  0  0  0  0  0  0  0  0  0  0
   62.0264   29.7757   46.4161 H   0  0  0  0  0  0  0  0  0  0  0  0
   57.6209   30.8142   47.6615 H   0  0  0  0  0  0  0  0  0  0  0  0
   58.5792   31.5269   49.7864 H   0  0  0  0  0  0  0  0  0  0  0  0
   59.3841   33.5314   51.0088 H   0  0  0  0  0  0  0  0  0  0  0  0
   60.2423   35.5025   49.7541 H   0  0  0  0  0  0  0  0  0  0  0  0
   60.2316   35.4960   47.2674 H   0  0  0  0  0  0  0  0  0  0  0  0
   59.6143   34.6050   45.2925 H   0  0  0  0  0  0  0  0  0  0  0  0
   60.0075   32.8584   45.1552 H   0  0  0  0  0  0  0  0  0  0  0  0
   57.2034   33.5765   45.9665 H   0  0  0  0  0  0  0  0  0  0  0  0
   57.6821   33.9023   44.2601 H   0  0  0  0  0  0  0  0  0  0  0  0
   56.9598   32.3341   42.8622 H   0  0  0  0  0  0  0  0  0  0  0  0
   56.6268   29.9677   42.1864 H   0  0  0  0  0  0  0  0  0  0  0  0
   57.1588   28.1316   43.7805 H   0  0  0  0  0  0  0  0  0  0  0  0
   58.0476   28.6549   46.0329 H   0  0  0  0  0  0  0  0  0  0  0  0
   62.7205   32.8914   46.0874 H   0  0  0  0  0  0  0  0  0  0  0  0
  1  2  2  0
  2  3  1  0
  3  4  2  0
  4  5  1  0
  5  6  1  0
  6  7  1  0
  7  8  1  0
  8  9  1  0
  9 10  2  0
 10 11  1  0
 11 12  2  0
 12 13  1  0
 13 14  2  0
 14 15  1  0
 15 16  1  0
 16 17  1  0
 17 18  2  0
 18 19  1  0
 19 20  2  0
 20 21  1  0
 21 22  2  0
  5 23  2  0
 23  1  1  0
 22  8  1  0
 14  9  1  0
 22 17  1  0
  1 24  1  0
  2 25  1  0
  3 26  1  0
  4 27  1  0
  6 28  1  0
  6 29  1  0
  8 30  1  0
 10 31  1  0
 11 32  1  0
 12 33  1  0
 13 34  1  0
 15 35  1  0
 15 36  1  0
 16 37  1  0
 16 38  1  0
 18 39  1  0
 19 40  1  0
 20 41  1  0
 21 42  1  0
 23 43  1  0
M  CHG  1   3   1
M  END
>  <UniqueID>  (25) 
22

>  <SMILES>  (25) 
c1c[nH+]cc(CSC2c3ccccc3CCc3ccccc32)c1

>  <Energy>  (25) 
65.14889511679667

>  <Genealogy>  (25) 
c1c[nH+]cc(CSC2c3ccccc3CCc3ccccc32)c1 (protonated)
c1c[nH+]cc(CSC2c3ccccc3CCc3ccccc32)c1 (3D coordinates assigned)
c1c[nH+]cc(CSC2c3ccccc3CCc3ccccc32)c1 (nonaromatic ring conformer: 65.14889511679667 kcal/mol)

>  <smiles>  (25) 
c1cncc(CSC2c3ccccc3CCc3ccccc32)c1

>  <score_type>  (25) 
oracle

>  <origin>  (25) 
adg

>  <m_score__min__energy>  (25) 
-6.0300000000000002

>  <m_primary>  (25) 
energy

$$$$
25:0
     RDKit          3D

 51 53  0  0  0  0  0  0  0  0999 V2000
   55.1890   29.8440   45.0100 O   0  0  0  0  0  0  0  0  0  0  0  0
   56.0630   28.9480   44.8650 C   0  0  0  0  0  0  0  0  0  0  0  0
   57.2010   29.1970   43.9080 C   0  0  0  0  0  0  0  0  0  0  0  0
   57.0610   30.5480   43.1870 C   0  0  0  0  0  0  0  0  0  0  0  0
   57.8310   31.6930   43.8680 C   0  0  0  0  0  0  0  0  0  0  0  0
   57.7770   31.6070   45.4070 C   0  0  0  0  0  0  0  0  0  0  0  0
   57.6740   32.9490   46.0230 N   0  0  0  0  0  0  0  0  0  0  0  0
   57.8540   34.0230   45.0120 C   0  0  0  0  0  0  0  0  0  0  0  0
   59.2800   34.5950   45.0190 C   0  0  0  0  0  0  0  0  0  0  0  0
   59.6220   35.1900   46.3240 N   0  0  0  0  0  0  0  0  0  0  0  0
   58.9330   34.5600   47.4640 C   0  0  0  0  0  0  0  0  0  0  0  0
   58.5870   33.0890   47.1860 C   0  0  0  0  0  0  0  0  0  0  0  0
   55.9310   27.7350   45.6210 N   0  0  0  0  0  0  0  0  0  0  0  0
   56.9490   26.7060   45.7920 C   0  0  0  0  0  0  0  0  0  0  0  0
   58.1960   27.2740   46.3970 C   0  0  0  0  0  0  0  0  0  0  0  0
   59.2800   26.5670   46.8700 C   0  0  0  0  0  0  0  0  0  0  0  0
   60.1330   27.4330   47.3640 O   0  0  0  0  0  0  0  0  0  0  0  0
   59.6120   28.6350   47.2200 C   0  0  0  0  0  0  0  0  0  0  0  0
   60.2890   29.8750   47.6680 C   0  0  0  0  0  0  0  0  0  0  0  0
   61.1010   30.5860   46.7660 C   0  0  0  0  0  0  0  0  0  0  0  0
   61.7520   31.7570   47.1670 C   0  0  0  0  0  0  0  0  0  0  0  0
   61.6000   32.2310   48.4720 C   0  0  0  0  0  0  0  0  0  0  0  0
   62.4910   33.8300   49.0170 Br  0  0  0  0  0  0  0  0  0  0  0  0
   60.7950   31.5350   49.3760 C   0  0  0  0  0  0  0  0  0  0  0  0
   60.1420   30.3640   48.9820 C   0  0  0  0  0  0  0  0  0  0  0  0
   58.4000   28.5810   46.6280 N   0  0  0  0  0  0  0  0  0  0  0  0
   58.1462   29.1908   44.4706 H   0  0  0  0  0  0  0  0  0  0  0  0
   57.1860   28.4024   43.1475 H   0  0  0  0  0  0  0  0  0  0  0  0
   57.4411   30.4355   42.1609 H   0  0  0  0  0  0  0  0  0  0  0  0
   55.9948   30.8174   43.2113 H   0  0  0  0  0  0  0  0  0  0  0  0
   58.8828   31.6497   43.5489 H   0  0  0  0  0  0  0  0  0  0  0  0
   57.3566   32.6393   43.5690 H   0  0  0  0  0  0  0  0  0  0  0  0
   56.9006   31.0108   45.7010 H   0  0  0  0  0  0  0  0  0  0  0  0
   58.7071   31.1367   45.7588 H   0  0  0  0  0  0  0  0  0  0  0  0
   57.6433   33.6094   44.0147 H   0  0  0  0  0  0  0  0  0  0  0  0
   57.1615   34.8405   45.2614 H   0  0  0  0  0  0  0  0  0  0  0  0
   59.9904   33.7844   44.7995 H   0  0  0  0  0  0  0  0  0  0  0  0
   59.3364   35.3855   44.2561 H   0  0  0  0  0  0  0  0  0  0  0  0
   60.6560   35.0910   46.4620 H   0  0  0  0  0  0  0  0  0  0  0  0
   59.5878   34.6102   48.3465 H   0  0  0  0  0  0  0  0  0  0  0  0
   57.9923   35.1038   47.6351 H   0  0  0  0  0  0  0  0  0  0  0  0
   59.5159   32.5376   46.9782 H   0  0  0  0  0  0  0  0  0  0  0  0
   58.0773   32.6835   48.0724 H   0  0  0  0  0  0  0  0  0  0  0  0
   56.5562   25.9187   46.4522 H   0  0  0  0  0  0  0  0  0  0  0  0
   57.1978   26.2939   44.8029 H   0  0  0  0  0  0  0  0  0  0  0  0
   59.4072   25.4748   46.8391 H   0  0  0  0  0  0  0  0  0  0  0  0
   61.2250   30.2180   45.7368 H   0  0  0  0  0  0  0  0  0  0  0  0
   62.3846   32.3055   46.4536 H   0  0  0  0  0  0  0  0  0  0  0  0
   60.6743   31.9101   50.4030 H   0  0  0  0  0  0  0  0  0  0  0  0
   59.5103   29.8212   49.7006 H   0  0  0  0  0  0  0  0  0  0  0  0
   57.7480   29.3630   46.3950 H   0  0  0  0  0  0  0  0  0  0  0  0
  1  2  2  0
  2  3  1  0
  3  4  1  0
  4  5  1  0
  5  6  1  0
  6  7  1  0
  7  8  1  0
  8  9  1  0
  9 10  1  0
 10 11  1  0
 11 12  1  0
  2 13  1  0
 13 14  1  0
 14 15  1  0
 15 16  2  0
 16 17  1  0
 17 18  1  0
 18 19  1  0
 19 20  2  0
 20 21  1  0
 21 22  2  0
 22 23  1  0
 22 24  1  0
 24 25  2  0
 18 26  2  0
 12  7  1  0
 26 15  1  0
 25 19  1  0
  3 27  1  0
  3 28  1  0
  4 29  1  0
  4 30  1  0
  5 31  1  0
  5 32  1  0
  6 33  1  0
  6 34  1  0
  8 35  1  0
  8 36  1  0
  9 37  1  0
  9 38  1  0
 10 39  1  0
 11 40  1  0
 11 41  1  0
 12 42  1  0
 12 43  1  0
 14 44  1  0
 14 45  1  0
 16 46  1  0
 20 47  1  0
 21 48  1  0
 24 49  1  0
 25 50  1  0
 26 51  1  0
M  CHG  2  13  -1  26   1
M  END
>  <UniqueID>  (26) 
23

>  <SMILES>  (26) 
O=C(CCCCN1CCNCC1)[N-]Cc1coc(-c2ccc(Br)cc2)[nH+]1

>  <Energy>  (26) 
86.01314176797854

>  <Genealogy>  (26) 
O=C(CCCCN1CCNCC1)[N-]Cc1coc(-c2ccc(Br)cc2)[nH+]1 (protonated)
O=C(CCCCN1CCNCC1)[N-]Cc1coc(-c2ccc(Br)cc2)[nH+]1 (3D coordinates assigned)
O=C(CCCCN1CCNCC1)[N-]Cc1coc(-c2ccc(Br)cc2)[nH+]1 (nonaromatic ring conformer: 86.01314176797854 kcal/mol)

>  <smiles>  (26) 
O=C(CCCCN1CCNCC1)NCc1coc(-c2ccc(Br)cc2)n1

>  <score_type>  (26) 
oracle

>  <origin>  (26) 
adg

>  <m_score__min__energy>  (26) 
-8.2100000000000009

>  <m_primary>  (26) 
energy

$$$$
26:0
     RDKit          3D

 39 41  0  0  0  0  0  0  0  0999 V2000
   60.9620   33.8410   46.7150 C   0  0  0  0  0  0  0  0  0  0  0  0
   59.8190   34.8650   46.6420 C   0  0  0  0  0  0  0  0  0  0  0  0
   58.6170   34.3780   45.9300 N   0  0  0  0  0  0  0  0  0  0  0  0
   57.7480   33.4830   46.7320 C   0  0  0  0  0  0  0  0  0  0  0  0
   57.8140   32.0190   46.2730 C   0  0  0  0  0  0  0  0  0  0  0  0
   57.5480   31.9140   44.8320 N   0  0  0  0  0  0  0  0  0  0  0  0
   57.0180   30.7010   44.2570 C   0  0  0  0  0  0  0  0  0  0  0  0
   56.3110   30.7680   43.2140 O   0  0  0  0  0  0  0  0  0  0  0  0
   57.3060   29.3760   44.8390 C   0  0  0  0  0  0  0  0  0  0  0  0
   58.5820   28.8540   45.0540 C   0  0  0  0  0  0  0  0  0  0  0  0
   58.3500   27.6280   45.6340 C   0  0  0  0  0  0  0  0  0  0  0  0
   59.2160   26.6410   46.0860 C   0  0  0  0  0  0  0  0  0  0  0  0
   58.6730   25.5100   46.6300 N   0  0  0  0  0  0  0  0  0  0  0  0
   57.3170   25.3290   46.7400 C   0  0  0  0  0  0  0  0  0  0  0  0
   56.7800   24.0650   47.3280 C   0  0  0  0  0  0  0  0  0  0  0  0
   56.4330   26.3290   46.2820 C   0  0  0  0  0  0  0  0  0  0  0  0
   56.9980   27.4740   45.7330 C   0  0  0  0  0  0  0  0  0  0  0  0
   56.3830   28.5270   45.2560 O   0  0  0  0  0  0  0  0  0  0  0  0
   57.7550   33.0900   43.9780 C   0  0  0  0  0  0  0  0  0  0  0  0
   58.8940   33.9420   44.5440 C   0  0  0  0  0  0  0  0  0  0  0  0
   61.1981   33.6295   47.7683 H   0  0  0  0  0  0  0  0  0  0  0  0
   60.6538   32.9112   46.2145 H   0  0  0  0  0  0  0  0  0  0  0  0
   61.8525   34.2491   46.2145 H   0  0  0  0  0  0  0  0  0  0  0  0
   59.5280   35.1319   47.6687 H   0  0  0  0  0  0  0  0  0  0  0  0
   60.1993   35.7251   46.0714 H   0  0  0  0  0  0  0  0  0  0  0  0
   58.0651   33.5358   47.7840 H   0  0  0  0  0  0  0  0  0  0  0  0
   56.7106   33.8243   46.6001 H   0  0  0  0  0  0  0  0  0  0  0  0
   58.8164   31.6189   46.4852 H   0  0  0  0  0  0  0  0  0  0  0  0
   57.0503   31.4433   46.8164 H   0  0  0  0  0  0  0  0  0  0  0  0
   59.5510   29.3164   44.8147 H   0  0  0  0  0  0  0  0  0  0  0  0
   60.3062   26.7653   46.0087 H   0  0  0  0  0  0  0  0  0  0  0  0
   56.8078   24.1305   48.4257 H   0  0  0  0  0  0  0  0  0  0  0  0
   55.7418   23.9181   46.9956 H   0  0  0  0  0  0  0  0  0  0  0  0
   57.3950   23.2157   46.9956 H   0  0  0  0  0  0  0  0  0  0  0  0
   55.3423   26.2074   46.3564 H   0  0  0  0  0  0  0  0  0  0  0  0
   58.0138   32.7623   42.9603 H   0  0  0  0  0  0  0  0  0  0  0  0
   56.8318   33.6873   43.9490 H   0  0  0  0  0  0  0  0  0  0  0  0
   59.8204   33.3489   44.5357 H   0  0  0  0  0  0  0  0  0  0  0  0
   58.9939   34.8399   43.9165 H   0  0  0  0  0  0  0  0  0  0  0  0
  1  2  1  0
  2  3  1  0
  3  4  1  0
  4  5  1  0
  5  6  1  0
  6  7  1  0
  7  8  2  0
  7  9  1  0
  9 10  2  0
 10 11  1  0
 11 12  2  0
 12 13  1  0
 13 14  2  0
 14 15  1  0
 14 16  1  0
 16 17  2  0
 17 18  1  0
  6 19  1  0
 19 20  1  0
 20  3  1  0
 18  9  1  0
 17 11  1  0
  1 21  1  0
  1 22  1  0
  1 23  1  0
  2 24  1  0
  2 25  1  0
  4 26  1  0
  4 27  1  0
  5 28  1  0
  5 29  1  0
 10 30  1  0
 12 31  1  0
 15 32  1  0
 15 33  1  0
 15 34  1  0
 16 35  1  0
 19 36  1  0
 19 37  1  0
 20 38  1  0
 20 39  1  0
M  END
>  <UniqueID>  (27) 
24

>  <SMILES>  (27) 
CCN1CCN(C(=O)c2cc3cnc(C)cc3o2)CC1

>  <Energy>  (27) 
82.71143496758975

>  <Genealogy>  (27) 
CCN1CCN(C(=O)c2cc3cnc(C)cc3o2)CC1 (3D coordinates assigned)
CCN1CCN(C(=O)c2cc3cnc(C)cc3o2)CC1 (nonaromatic ring conformer: 82.71143496758975 kcal/mol)

>  <smiles>  (27) 
CCN1CCN(C(=O)c2cc3cnc(C)cc3o2)CC1

>  <score_type>  (27) 
oracle

>  <origin>  (27) 
adg

>  <m_score__min__energy>  (27) 
-6.8700000000000001

>  <m_primary>  (27) 
energy

$$$$
27:0
     RDKit          3D

 54 56  0  0  0  0  0  0  0  0999 V2000
   61.0567   26.7033   49.9232 H   0  0  0  0  0  0  0  0  0  0  0  0
   60.7710   27.5540   49.2870 C   0  0  0  0  0  0  0  0  0  0  0  0
   60.4880   27.3290   48.0360 N   0  0  0  0  0  0  0  0  0  0  0  0
   59.1520   27.2220   47.5230 C   0  0  0  0  0  0  0  0  0  0  0  0
   58.4620   26.0340   47.7710 C   0  0  0  0  0  0  0  0  0  0  0  0
   58.8987   25.2800   48.4424 H   0  0  0  0  0  0  0  0  0  0  0  0
   57.2320   25.7960   47.1790 C   0  0  0  0  0  0  0  0  0  0  0  0
   56.7065   24.8502   47.3771 H   0  0  0  0  0  0  0  0  0  0  0  0
   56.6530   26.7440   46.3340 C   0  0  0  0  0  0  0  0  0  0  0  0
   55.4820   26.3540   45.6030 N   0  0  0  0  0  0  0  0  0  0  0  0
   54.7920   27.1020   45.3630 H   0  0  0  0  0  0  0  0  0  0  0  0
   54.9610   24.9930   45.7240 C   0  0  0  0  0  0  0  0  0  0  0  0
   55.2390   24.5840   46.7066 H   0  0  0  0  0  0  0  0  0  0  0  0
   53.8660   25.0186   45.6227 H   0  0  0  0  0  0  0  0  0  0  0  0
   55.5430   24.1010   44.6220 C   0  0  0  0  0  0  0  0  0  0  0  0
   55.2814   23.0529   44.8296 H   0  0  0  0  0  0  0  0  0  0  0  0
   55.1234   24.4137   43.6544 H   0  0  0  0  0  0  0  0  0  0  0  0
   57.0160   24.2330   44.5680 N   0  0  0  0  0  0  0  0  0  0  0  0
   57.6590   22.9190   44.3820 C   0  0  0  0  0  0  0  0  0  0  0  0
   57.8764   22.4748   45.3646 H   0  0  0  0  0  0  0  0  0  0  0  0
   56.9834   22.2563   43.8213 H   0  0  0  0  0  0  0  0  0  0  0  0
   58.5969   23.0458   43.8213 H   0  0  0  0  0  0  0  0  0  0  0  0
   57.4070   25.1260   43.4660 C   0  0  0  0  0  0  0  0  0  0  0  0
   57.8160   26.0601   43.8785 H   0  0  0  0  0  0  0  0  0  0  0  0
   58.1714   24.6325   42.8478 H   0  0  0  0  0  0  0  0  0  0  0  0
   56.5259   25.3530   42.8478 H   0  0  0  0  0  0  0  0  0  0  0  0
   57.2700   28.0140   46.1580 C   0  0  0  0  0  0  0  0  0  0  0  0
   56.6340   29.0560   45.4370 C   0  0  0  0  0  0  0  0  0  0  0  0
   55.3350   28.8990   44.9590 O   0  0  0  0  0  0  0  0  0  0  0  0
   57.2900   30.2800   45.2210 C   0  0  0  0  0  0  0  0  0  0  0  0
   56.6780   31.2990   44.4650 C   0  0  0  0  0  0  0  0  0  0  0  0
   55.6791   31.1340   44.0349 H   0  0  0  0  0  0  0  0  0  0  0  0
   57.3290   32.5170   44.2570 C   0  0  0  0  0  0  0  0  0  0  0  0
   56.8432   33.3051   43.6630 H   0  0  0  0  0  0  0  0  0  0  0  0
   58.5930   32.7350   44.8010 C   0  0  0  0  0  0  0  0  0  0  0  0
   59.1044   33.6944   44.6335 H   0  0  0  0  0  0  0  0  0  0  0  0
   59.2120   31.7390   45.5580 C   0  0  0  0  0  0  0  0  0  0  0  0
   60.2086   31.9198   45.9871 H   0  0  0  0  0  0  0  0  0  0  0  0
   58.5700   30.5030   45.7770 C   0  0  0  0  0  0  0  0  0  0  0  0
   59.1820   29.5050   46.5540 C   0  0  0  0  0  0  0  0  0  0  0  0
   60.4150   29.7790   47.1440 O   0  0  0  0  0  0  0  0  0  0  0  0
   58.5490   28.2510   46.7490 C   0  0  0  0  0  0  0  0  0  0  0  0
   60.7240   28.9300   49.9010 C   0  0  0  0  0  0  0  0  0  0  0  0
   61.0582   29.6691   49.1580 H   0  0  0  0  0  0  0  0  0  0  0  0
   61.3848   28.9488   50.7802 H   0  0  0  0  0  0  0  0  0  0  0  0
   59.3490   29.2610   50.3310 N   0  0  0  0  0  0  0  0  0  0  0  0
   59.2770   29.3460   51.7970 C   0  0  0  0  0  0  0  0  0  0  0  0
   59.9274   28.5781   52.2412 H   0  0  0  0  0  0  0  0  0  0  0  0
   59.6102   30.3422   52.1233 H   0  0  0  0  0  0  0  0  0  0  0  0
   58.2395   29.1812   52.1233 H   0  0  0  0  0  0  0  0  0  0  0  0
   58.9040   30.5300   49.7340 C   0  0  0  0  0  0  0  0  0  0  0  0
   58.6539   31.2433   50.5331 H   0  0  0  0  0  0  0  0  0  0  0  0
   59.7103   30.9449   49.1113 H   0  0  0  0  0  0  0  0  0  0  0  0
   58.0152   30.3505   49.1113 H   0  0  0  0  0  0  0  0  0  0  0  0
  1  2  1  0
  2  3  2  0
  3  4  1  0
  4  5  2  0
  5  6  1  0
  5  7  1  0
  7  8  1  0
  7  9  2  0
  9 10  1  0
 10 11  1  0
 10 12  1  0
 12 13  1  0
 12 14  1  0
 12 15  1  0
 15 16  1  0
 15 17  1  0
 15 18  1  0
 18 19  1  0
 19 20  1  0
 19 21  1  0
 19 22  1  0
 18 23  1  0
 23 24  1  0
 23 25  1  0
 23 26  1  0
  9 27  1  0
 27 28  2  0
 28 29  1  0
 28 30  1  0
 30 31  2  0
 31 32  1  0
 31 33  1  0
 33 34  1  0
 33 35  2  0
 35 36  1  0
 35 37  1  0
 37 38  1  0
 37 39  2  0
 39 40  1  0
 40 41  1  0
 40 42  2  0
  2 43  1  0
 43 44  1  0
 43 45  1  0
 43 46  1  0
 46 47  1  0
 47 48  1  0
 47 49  1  0
 47 50  1  0
 46 51  1  0
 51 52  1  0
 51 53  1  0
 51 54  1  0
 42  4  1  0
 42 27  1  0
 39 30  1  0
M  CHG  2  29  -1  41  -1
M  END
>  <UniqueID>  (28) 
25

>  <SMILES>  (28) 
CN(C)C/C=N\c1ccc(NCCN(C)C)c2c([O-])c3ccccc3c([O-])c12

>  <Energy>  (28) 
80.48251378917311

>  <Genealogy>  (28) 
CN(C)CC=Nc1ccc(NCCN(C)C)c2c([O-])c3ccccc3c([O-])c12 (protonated)
CN(C)C/C=N\c1ccc(NCCN(C)C)c2c([O-])c3ccccc3c([O-])c12 (cis-trans isomerization)
CN(C)C/C=N\c1ccc(NCCN(C)C)c2c([O-])c3ccccc3c([O-])c12 (3D coordinates assigned)
CN(C)C/C=N\c1ccc(NCCN(C)C)c2c([O-])c3ccccc3c([O-])c12 (optimized conformer: 80.48251378917311 kcal/mol)

>  <smiles>  (28) 
CN(C)CC=Nc1ccc(NCCN(C)C)c2c(O)c3ccccc3c(O)c12

>  <score_type>  (28) 
oracle

>  <origin>  (28) 
adg

>  <m_score__min__energy>  (28) 
-10.960000000000001

>  <m_primary>  (28) 
energy

$$$$
28:0
     RDKit          3D

 58 62  0  0  0  0  0  0  0  0999 V2000
   56.7523   31.0991   41.9973 H   0  0  0  0  0  0  0  0  0  0  0  0
   56.8590   30.8360   43.0600 C   0  0  0  0  0  0  0  0  0  0  0  0
   56.3290   29.6750   43.5290 N   0  0  0  0  0  0  0  0  0  0  0  0
   56.4380   29.3260   44.8390 C   0  0  0  0  0  0  0  0  0  0  0  0
   55.8950   28.2200   45.2490 N   0  0  0  0  0  0  0  0  0  0  0  0
   56.6030   27.0170   45.5810 C   0  0  0  0  0  0  0  0  0  0  0  0
   56.0220   25.9020   46.0660 N   0  0  0  0  0  0  0  0  0  0  0  0
   56.9490   24.9550   46.0680 N   0  0  0  0  0  0  0  0  0  0  0  0
   56.6850   23.5560   46.4020 C   0  0  0  0  0  0  0  0  0  0  0  0
   57.6149   22.9794   46.2887 H   0  0  0  0  0  0  0  0  0  0  0  0
   56.3213   23.5104   47.4391 H   0  0  0  0  0  0  0  0  0  0  0  0
   55.6050   22.9520   45.4820 C   0  0  2  0  0  0  0  0  0  0  0  0
   54.6516   22.9969   46.0288 H   0  0  0  0  0  0  0  0  0  0  0  0
   55.8910   21.4560   45.1560 C   0  0  0  0  0  0  0  0  0  0  0  0
   55.0543   20.8491   45.5323 H   0  0  0  0  0  0  0  0  0  0  0  0
   56.8420   21.1897   45.6405 H   0  0  0  0  0  0  0  0  0  0  0  0
   56.0390   21.2100   43.7680 O   0  0  0  0  0  0  0  0  0  0  0  0
   57.0640   22.0320   43.2450 C   0  0  0  0  0  0  0  0  0  0  0  0
   57.2976   21.7072   42.2203 H   0  0  0  0  0  0  0  0  0  0  0  0
   57.9500   21.9400   43.8904 H   0  0  0  0  0  0  0  0  0  0  0  0
   56.6290   23.5080   43.2180 C   0  0  0  0  0  0  0  0  0  0  0  0
   56.3119   23.7682   42.1974 H   0  0  0  0  0  0  0  0  0  0  0  0
   57.4838   24.1248   43.5326 H   0  0  0  0  0  0  0  0  0  0  0  0
   55.4650   23.7710   44.1840 C   0  0  0  0  0  0  0  0  0  0  0  0
   54.5219   23.4960   43.6890 H   0  0  0  0  0  0  0  0  0  0  0  0
   55.4744   24.8384   44.4495 H   0  0  0  0  0  0  0  0  0  0  0  0
   58.1030   25.4410   45.5690 C   0  0  0  0  0  0  0  0  0  0  0  0
   59.0386   24.8753   45.4483 H   0  0  0  0  0  0  0  0  0  0  0  0
   57.9150   26.7660   45.2350 C   0  0  0  0  0  0  0  0  0  0  0  0
   58.6435   27.4624   44.7942 H   0  0  0  0  0  0  0  0  0  0  0  0
   57.1300   30.1290   45.6940 N   0  0  0  0  0  0  0  0  0  0  0  0
   57.6990   31.2820   45.2610 C   0  0  0  0  0  0  0  0  0  0  0  0
   57.5390   31.6950   43.9270 C   0  0  0  0  0  0  0  0  0  0  0  0
   58.2130   32.9620   43.4130 C   0  0  0  0  0  0  0  0  0  0  0  0
   57.5875   33.3908   42.6162 H   0  0  0  0  0  0  0  0  0  0  0  0
   59.2105   32.6741   43.0496 H   0  0  0  0  0  0  0  0  0  0  0  0
   58.4190   34.0390   44.5090 C   0  0  0  0  0  0  0  0  0  0  0  0
   57.4729   34.5765   44.6701 H   0  0  0  0  0  0  0  0  0  0  0  0
   59.2016   34.7373   44.1774 H   0  0  0  0  0  0  0  0  0  0  0  0
   58.8510   33.4050   45.7970 C   0  0  0  0  0  0  0  0  0  0  0  0
   59.6560   33.9400   46.7340 N   0  0  0  0  0  0  0  0  0  0  0  0
   59.8060   33.0210   47.6810 N   0  0  0  0  0  0  0  0  0  0  0  0
   60.6800   33.2000   48.8340 C   0  0  0  0  0  0  0  0  0  0  0  0
   60.0963   33.0804   49.7586 H   0  0  0  0  0  0  0  0  0  0  0  0
   61.4818   32.4474   48.8067 H   0  0  0  0  0  0  0  0  0  0  0  0
   61.1214   34.2072   48.8067 H   0  0  0  0  0  0  0  0  0  0  0  0
   59.1040   31.9050   47.3660 C   0  0  0  0  0  0  0  0  0  0  0  0
   59.2240   30.5770   48.0610 C   0  0  0  0  0  0  0  0  0  0  0  0
   58.2184   30.1969   48.2940 H   0  0  0  0  0  0  0  0  0  0  0  0
   59.8006   30.7087   48.9885 H   0  0  0  0  0  0  0  0  0  0  0  0
   59.9490   29.5710   47.1610 C   0  0  0  0  0  0  0  0  0  0  0  0
   61.0219   29.8132   47.1452 H   0  0  0  0  0  0  0  0  0  0  0  0
   59.5189   29.6376   46.1508 H   0  0  0  0  0  0  0  0  0  0  0  0
   59.7700   28.1420   47.6660 C   0  0  0  0  0  0  0  0  0  0  0  0
   59.7696   28.1392   48.7660 H   0  0  0  0  0  0  0  0  0  0  0  0
   58.8145   27.7400   47.2980 H   0  0  0  0  0  0  0  0  0  0  0  0
   60.5968   27.5168   47.2980 H   0  0  0  0  0  0  0  0  0  0  0  0
   58.4700   32.1440   46.1610 C   0  0  0  0  0  0  0  0  0  0  0  0
  1  2  1  0
  2  3  1  0
  3  4  1  0
  4  5  2  0
  5  6  1  0
  6  7  2  0
  7  8  1  0
  8  9  1  0
  9 10  1  0
  9 11  1  0
  9 12  1  0
 12 13  1  1
 12 14  1  0
 14 15  1  0
 14 16  1  0
 14 17  1  0
 17 18  1  0
 18 19  1  0
 18 20  1  0
 18 21  1  0
 21 22  1  0
 21 23  1  0
 21 24  1  0
 24 25  1  0
 24 26  1  0
  8 27  1  0
 27 28  1  0
 27 29  2  0
 29 30  1  0
  4 31  1  0
 31 32  2  0
 32 33  1  0
 33 34  1  0
 34 35  1  0
 34 36  1  0
 34 37  1  0
 37 38  1  0
 37 39  1  0
 37 40  1  0
 40 41  2  0
 41 42  1  0
 42 43  1  0
 43 44  1  0
 43 45  1  0
 43 46  1  0
 42 47  1  0
 47 48  1  0
 48 49  1  0
 48 50  1  0
 48 51  1  0
 51 52  1  0
 51 53  1  0
 51 54  1  0
 54 55  1  0
 54 56  1  0
 54 57  1  0
 47 58  2  0
 33  2  2  0
 58 40  1  0
 29  6  1  0
 58 32  1  0
 24 12  1  0
M  CHG  1   3  -1
M  END
>  <UniqueID>  (29) 
26

>  <SMILES>  (29) 
CCCc1c2c(nn1C)CCc1c[n-]/c(=N/c3ccn(C[C@H]4CCCOC4)n3)nc1-2

>  <Energy>  (29) 
128.70880091118138

>  <Genealogy>  (29) 
CCCc1c2c(nn1C)CCc1c[n-]c(=Nc3ccn(CC4CCCOC4)n3)nc1-2 (protonated)
CCCc1c2c(nn1C)CCc1c[n-]c(=Nc3ccn(C[C@H]4CCCOC4)n3)nc1-2 (chirality)
CCCc1c2c(nn1C)CCc1c[n-]/c(=N/c3ccn(C[C@H]4CCCOC4)n3)nc1-2 (cis-trans isomerization)
CCCc1c2c(nn1C)CCc1c[n-]/c(=N/c3ccn(C[C@H]4CCCOC4)n3)nc1-2 (3D coordinates assigned)
CCCc1c2c(nn1C)CCc1c[n-]/c(=N/c3ccn(C[C@H]4CCCOC4)n3)nc1-2 (nonaromatic ring conformer: 128.70880091118138 kcal/mol)

>  <smiles>  (29) 
CCCc1c2c(nn1C)CCc1c[nH]c(=Nc3ccn(CC4CCCOC4)n3)nc1-2

>  <score_type>  (29) 
oracle

>  <origin>  (29) 
adg

>  <m_score__min__energy>  (29) 
-11.1

>  <m_primary>  (29) 
energy

$$$$
29:0
     RDKit          3D

 56 59  0  0  0  0  0  0  0  0999 V2000
   58.5290   34.1460   52.3970 C   0  0  0  0  0  0  0  0  0  0  0  0
   58.3730   32.8460   51.6140 C   0  0  0  0  0  0  0  0  0  0  0  0
   59.4400   32.7180   50.6150 N   0  0  0  0  0  0  0  0  0  0  0  0
   60.3430   33.8380   50.3200 C   0  0  0  0  0  0  0  0  0  0  0  0
   60.8110   33.7870   48.8790 C   0  0  0  0  0  0  0  0  0  0  0  0
   62.1930   33.7340   48.6500 C   0  0  0  0  0  0  0  0  0  0  0  0
   62.6770   33.6360   47.3460 C   0  0  0  0  0  0  0  0  0  0  0  0
   63.9170   33.5870   47.1380 O   0  0  0  0  0  0  0  0  0  0  0  0
   61.8380   33.5920   46.3200 O   0  0  0  0  0  0  0  0  0  0  0  0
   60.5190   33.6410   46.4680 C   0  0  0  0  0  0  0  0  0  0  0  0
   59.7080   33.5880   45.3300 C   0  0  0  0  0  0  0  0  0  0  0  0
   58.3180   33.6360   45.4400 C   0  0  0  0  0  0  0  0  0  0  0  0
   57.5540   33.5750   44.2640 O   0  0  0  0  0  0  0  0  0  0  0  0
   57.7320   32.6060   43.2360 C   0  0  0  0  0  0  0  0  0  0  0  0
   57.6410   31.2320   43.8340 C   0  0  0  0  0  0  0  0  0  0  0  0
   56.3880   30.6590   44.1010 C   0  0  0  0  0  0  0  0  0  0  0  0
   56.3030   29.3970   44.6970 C   0  0  0  0  0  0  0  0  0  0  0  0
   57.4660   28.7050   45.0410 C   0  0  0  0  0  0  0  0  0  0  0  0
   58.7190   29.2760   44.7960 C   0  0  0  0  0  0  0  0  0  0  0  0
   60.3090   28.3380   45.2820 Br  0  0  0  0  0  0  0  0  0  0  0  0
   58.8080   30.5400   44.2000 C   0  0  0  0  0  0  0  0  0  0  0  0
   57.7330   33.7430   46.7130 C   0  0  0  0  0  0  0  0  0  0  0  0
   58.5320   33.7980   47.8590 C   0  0  0  0  0  0  0  0  0  0  0  0
   59.9390   33.7430   47.7580 C   0  0  0  0  0  0  0  0  0  0  0  0
   59.7330   31.4210   50.0760 C   0  0  0  0  0  0  0  0  0  0  0  0
   60.8670   30.7200   50.5020 C   0  0  0  0  0  0  0  0  0  0  0  0
   61.1510   29.4570   49.9750 C   0  0  0  0  0  0  0  0  0  0  0  0
   60.3100   28.8810   49.0160 C   0  0  0  0  0  0  0  0  0  0  0  0
   60.6370   27.6110   48.5170 O   0  0  0  0  0  0  0  0  0  0  0  0
   59.6830   26.6310   48.1240 C   0  0  0  0  0  0  0  0  0  0  0  0
   59.1700   29.5890   48.5860 C   0  0  0  0  0  0  0  0  0  0  0  0
   58.8880   30.8530   49.1160 C   0  0  0  0  0  0  0  0  0  0  0  0
   58.5031   33.9300   53.4753 H   0  0  0  0  0  0  0  0  0  0  0  0
   59.4899   34.6157   52.1402 H   0  0  0  0  0  0  0  0  0  0  0  0
   57.7065   34.8297   52.1402 H   0  0  0  0  0  0  0  0  0  0  0  0
   58.4244   31.9956   52.3099 H   0  0  0  0  0  0  0  0  0  0  0  0
   57.4014   32.8551   51.0984 H   0  0  0  0  0  0  0  0  0  0  0  0
   59.8112   34.7852   50.4932 H   0  0  0  0  0  0  0  0  0  0  0  0
   61.2211   33.7659   50.9786 H   0  0  0  0  0  0  0  0  0  0  0  0
   62.8939   33.7696   49.4970 H   0  0  0  0  0  0  0  0  0  0  0  0
   60.1717   33.5075   44.3358 H   0  0  0  0  0  0  0  0  0  0  0  0
   56.9478   32.7288   42.4744 H   0  0  0  0  0  0  0  0  0  0  0  0
   58.7176   32.7410   42.7665 H   0  0  0  0  0  0  0  0  0  0  0  0
   55.4692   31.2048   43.8404 H   0  0  0  0  0  0  0  0  0  0  0  0
   55.3183   28.9486   44.8952 H   0  0  0  0  0  0  0  0  0  0  0  0
   57.3966   27.7101   45.5050 H   0  0  0  0  0  0  0  0  0  0  0  0
   59.7940   30.9924   44.0178 H   0  0  0  0  0  0  0  0  0  0  0  0
   56.6379   33.7838   46.8087 H   0  0  0  0  0  0  0  0  0  0  0  0
   58.0598   33.8850   48.8487 H   0  0  0  0  0  0  0  0  0  0  0  0
   61.5364   31.1641   51.2534 H   0  0  0  0  0  0  0  0  0  0  0  0
   62.0428   28.9113   50.3168 H   0  0  0  0  0  0  0  0  0  0  0  0
   59.2374   26.1733   49.0195 H   0  0  0  0  0  0  0  0  0  0  0  0
   58.8935   27.1076   47.5244 H   0  0  0  0  0  0  0  0  0  0  0  0
   60.1806   25.8546   47.5244 H   0  0  0  0  0  0  0  0  0  0  0  0
   58.5009   29.1475   47.8327 H   0  0  0  0  0  0  0  0  0  0  0  0
   57.9978   31.4028   48.7764 H   0  0  0  0  0  0  0  0  0  0  0  0
  1  2  1  0
  2  3  1  0
  3  4  1  0
  4  5  1  0
  5  6  2  0
  6  7  1  0
  7  8  2  0
  7  9  1  0
  9 10  1  0
 10 11  2  0
 11 12  1  0
 12 13  1  0
 13 14  1  0
 14 15  1  0
 15 16  2  0
 16 17  1  0
 17 18  2  0
 18 19  1  0
 19 20  1  0
 19 21  2  0
 12 22  2  0
 22 23  1  0
 23 24  2  0
  3 25  1  0
 25 26  2  0
 26 27  1  0
 27 28  2  0
 28 29  1  0
 29 30  1  0
 28 31  1  0
 31 32  2  0
 24  5  1  0
 32 25  1  0
 24 10  1  0
 21 15  1  0
  1 33  1  0
  1 34  1  0
  1 35  1  0
  2 36  1  0
  2 37  1  0
  4 38  1  0
  4 39  1  0
  6 40  1  0
 11 41  1  0
 14 42  1  0
 14 43  1  0
 16 44  1  0
 17 45  1  0
 18 46  1  0
 21 47  1  0
 22 48  1  0
 23 49  1  0
 26 50  1  0
 27 51  1  0
 30 52  1  0
 30 53  1  0
 30 54  1  0
 31 55  1  0
 32 56  1  0
M  END
>  <UniqueID>  (30) 
27

>  <SMILES>  (30) 
CCN(Cc1cc(=O)oc2cc(OCc3cccc(Br)c3)ccc12)c1ccc(OC)cc1

>  <Energy>  (30) 
66.84688376068017

>  <Genealogy>  (30) 
CCN(Cc1cc(=O)oc2cc(OCc3cccc(Br)c3)ccc12)c1ccc(OC)cc1 (3D coordinates assigned)
CCN(Cc1cc(=O)oc2cc(OCc3cccc(Br)c3)ccc12)c1ccc(OC)cc1 (optimized conformer: 66.84688376068017 kcal/mol)

>  <smiles>  (30) 
CCN(Cc1cc(=O)oc2cc(OCc3cccc(Br)c3)ccc12)c1ccc(OC)cc1

>  <score_type>  (30) 
oracle

>  <origin>  (30) 
adg

>  <m_score__min__energy>  (30) 
-9.6400000000000006

>  <m_primary>  (30) 
energy

$$$$
30:0
     RDKit          3D

 55 58  0  0  0  0  0  0  0  0999 V2000
   56.9980   21.5600   43.1290 C   0  0  0  0  0  0  0  0  0  0  0  0
   55.8430   22.3810   43.2410 O   0  0  0  0  0  0  0  0  0  0  0  0
   55.7330   23.4090   44.1820 C   0  0  0  0  0  0  0  0  0  0  0  0
   56.8850   24.0730   44.6100 C   0  0  0  0  0  0  0  0  0  0  0  0
   56.7620   25.1050   45.5520 C   0  0  0  0  0  0  0  0  0  0  0  0
   57.9160   25.8160   46.0390 N   0  0  0  0  0  0  0  0  0  0  0  0
   58.1560   26.1360   47.4410 C   0  0  0  0  0  0  0  0  0  0  0  0
   59.5320   26.8080   47.4830 C   0  0  2  0  0  0  0  0  0  0  0  0
   59.6170   27.9710   48.4980 C   0  0  0  0  0  0  0  0  0  0  0  0
   60.7520   28.9340   48.1300 C   0  0  0  0  0  0  0  0  0  0  0  0
   60.5880   29.5430   46.7160 C   0  0  0  0  0  0  0  0  0  0  0  0
   59.6260   28.7520   45.7930 C   0  0  2  0  0  0  0  0  0  0  0  0
   58.2280   29.1790   46.0450 N   0  0  0  0  0  0  0  0  0  0  0  0
   58.1640   30.3810   46.8880 C   0  0  0  0  0  0  0  0  0  0  0  0
   58.2530   31.6180   46.0270 C   0  0  0  0  0  0  0  0  0  0  0  0
   59.1390   32.6480   46.3800 C   0  0  0  0  0  0  0  0  0  0  0  0
   59.2190   33.8080   45.6060 C   0  0  0  0  0  0  0  0  0  0  0  0
   58.4080   33.9550   44.4820 C   0  0  0  0  0  0  0  0  0  0  0  0
   57.5020   32.9490   44.1330 C   0  0  0  0  0  0  0  0  0  0  0  0
   57.4020   31.7770   44.9100 C   0  0  0  0  0  0  0  0  0  0  0  0
   56.4700   30.7660   44.6110 O   0  0  0  0  0  0  0  0  0  0  0  0
   56.3750   30.0970   43.3580 C   0  0  0  0  0  0  0  0  0  0  0  0
   59.8360   27.2270   46.0280 C   0  0  2  0  0  0  0  0  0  0  0  0
   58.9480   26.3360   45.1530 C   0  0  0  0  0  0  0  0  0  0  0  0
   55.5250   25.4230   46.0230 N   0  0  0  0  0  0  0  0  0  0  0  0
   54.4130   24.7750   45.5910 C   0  0  0  0  0  0  0  0  0  0  0  0
   54.5190   23.7740   44.6770 N   0  0  0  0  0  0  0  0  0  0  0  0
   57.3625   21.3009   44.1340 H   0  0  0  0  0  0  0  0  0  0  0  0
   56.7423   20.6398   42.5832 H   0  0  0  0  0  0  0  0  0  0  0  0
   57.7830   22.1039   42.5832 H   0  0  0  0  0  0  0  0  0  0  0  0
   57.8722   23.7913   44.2149 H   0  0  0  0  0  0  0  0  0  0  0  0
   57.3823   26.8224   47.8156 H   0  0  0  0  0  0  0  0  0  0  0  0
   58.1237   25.2370   48.0740 H   0  0  0  0  0  0  0  0  0  0  0  0
   60.2997   26.1134   47.8547 H   0  0  0  0  0  0  0  0  0  0  0  0
   58.6639   28.5202   48.4976 H   0  0  0  0  0  0  0  0  0  0  0  0
   59.8186   27.5538   49.4957 H   0  0  0  0  0  0  0  0  0  0  0  0
   60.7707   29.7522   48.8650 H   0  0  0  0  0  0  0  0  0  0  0  0
   61.6894   28.3584   48.1358 H   0  0  0  0  0  0  0  0  0  0  0  0
   60.1995   30.5664   46.8238 H   0  0  0  0  0  0  0  0  0  0  0  0
   61.5796   29.5124   46.2409 H   0  0  0  0  0  0  0  0  0  0  0  0
   59.8420   28.9612   44.7349 H   0  0  0  0  0  0  0  0  0  0  0  0
   57.7530   29.4160   45.1470 H   0  0  0  0  0  0  0  0  0  0  0  0
   57.2128   30.3888   47.4404 H   0  0  0  0  0  0  0  0  0  0  0  0
   59.0054   30.3716   47.5964 H   0  0  0  0  0  0  0  0  0  0  0  0
   59.7742   32.5410   47.2717 H   0  0  0  0  0  0  0  0  0  0  0  0
   59.9228   34.6064   45.8838 H   0  0  0  0  0  0  0  0  0  0  0  0
   58.4810   34.8648   43.8680 H   0  0  0  0  0  0  0  0  0  0  0  0
   56.8630   33.0728   43.2463 H   0  0  0  0  0  0  0  0  0  0  0  0
   56.2222   29.0209   43.5275 H   0  0  0  0  0  0  0  0  0  0  0  0
   55.5255   30.5028   42.7891 H   0  0  0  0  0  0  0  0  0  0  0  0
   57.3039   30.2503   42.7891 H   0  0  0  0  0  0  0  0  0  0  0  0
   60.8956   27.0799   45.7719 H   0  0  0  0  0  0  0  0  0  0  0  0
   58.4956   26.9246   44.3413 H   0  0  0  0  0  0  0  0  0  0  0  0
   59.5244   25.5261   44.6821 H   0  0  0  0  0  0  0  0  0  0  0  0
   53.4248   25.0602   45.9810 H   0  0  0  0  0  0  0  0  0  0  0  0
  1  2  1  0
  2  3  1  0
  3  4  2  0
  4  5  1  0
  5  6  1  0
  6  7  1  0
  7  8  1  0
  8  9  1  0
  9 10  1  0
 10 11  1  0
 11 12  1  0
 12 13  1  0
 13 14  1  0
 14 15  1  0
 15 16  2  0
 16 17  1  0
 17 18  2  0
 18 19  1  0
 19 20  2  0
 20 21  1  0
 21 22  1  0
 12 23  1  0
 23 24  1  0
  5 25  2  0
 25 26  1  0
 26 27  2  0
 27  3  1  0
 24  6  1  0
 23  8  1  0
 20 15  1  0
  1 28  1  0
  1 29  1  0
  1 30  1  0
  4 31  1  0
  7 32  1  0
  7 33  1  0
  8 34  1  1
  9 35  1  0
  9 36  1  0
 10 37  1  0
 10 38  1  0
 11 39  1  0
 11 40  1  0
 12 41  1  6
 13 42  1  0
 14 43  1  0
 14 44  1  0
 16 45  1  0
 17 46  1  0
 18 47  1  0
 19 48  1  0
 22 49  1  0
 22 50  1  0
 22 51  1  0
 23 52  1  6
 24 53  1  0
 24 54  1  0
 26 55  1  0
M  END
>  <UniqueID>  (31) 
28

>  <SMILES>  (31) 
COc1cc(N2CC3[C@@H](CCC[C@@H]3NCc3ccccc3OC)C2)ncn1

>  <Energy>  (31) 
62.69865480439505

>  <Genealogy>  (31) 
COc1cc(N2CC3[C@@H](CCC[C@@H]3NCc3ccccc3OC)C2)ncn1 (chirality)
COc1cc(N2CC3[C@@H](CCC[C@@H]3NCc3ccccc3OC)C2)ncn1 (3D coordinates assigned)
COc1cc(N2CC3[C@@H](CCC[C@@H]3NCc3ccccc3OC)C2)ncn1 (nonaromatic ring conformer: 62.69865480439505 kcal/mol)

>  <smiles>  (31) 
COc1cc(N2CC3CCCC(NCc4ccccc4OC)C3C2)ncn1

>  <score_type>  (31) 
oracle

>  <origin>  (31) 
adg

>  <m_score__min__energy>  (31) 
-8.5899999999999999

>  <m_primary>  (31) 
energy

$$$$
31:0
     RDKit          3D

 63 66  0  0  0  0  0  0  0  0999 V2000
   53.6880   24.4300   45.2610 C   0  0  0  0  0  0  0  0  0  0  0  0
   54.7360   23.3400   45.0510 C   0  0  0  0  0  0  0  0  0  0  0  0
   55.9310   23.8800   44.3780 N   0  0  0  0  0  0  0  0  0  0  0  0
   56.2400   23.4120   43.0160 C   0  0  0  0  0  0  0  0  0  0  0  0
   56.6940   21.9550   43.0310 C   0  0  0  0  0  0  0  0  0  0  0  0
   56.8010   24.8320   45.0430 C   0  0  0  0  0  0  0  0  0  0  0  0
   56.8240   24.9320   46.4470 C   0  0  0  0  0  0  0  0  0  0  0  0
   57.6650   25.8500   47.0840 C   0  0  0  0  0  0  0  0  0  0  0  0
   58.4870   26.7030   46.3310 C   0  0  0  0  0  0  0  0  0  0  0  0
   59.3770   27.6450   46.9550 N   0  0  0  0  0  0  0  0  0  0  0  0
   59.1880   29.0740   46.9450 C   0  0  0  0  0  0  0  0  0  0  0  0
   58.1360   29.5750   46.4640 O   0  0  0  0  0  0  0  0  0  0  0  0
   60.2320   29.9780   47.4770 C   0  0  0  0  0  0  0  0  0  0  0  0
   60.6130   31.1160   46.7460 C   0  0  0  0  0  0  0  0  0  0  0  0
   61.6100   31.9700   47.2290 C   0  0  0  0  0  0  0  0  0  0  0  0
   62.2540   31.6870   48.4450 C   0  0  0  0  0  0  0  0  0  0  0  0
   63.2690   32.5080   48.9680 C   0  0  0  0  0  0  0  0  0  0  0  0
   63.6250   33.5460   48.3400 O   0  0  0  0  0  0  0  0  0  0  0  0
   63.8670   32.1870   50.1610 N   0  0  0  0  0  0  0  0  0  0  0  0
   64.9660   32.9930   50.6310 C   0  0  0  0  0  0  0  0  0  0  0  0
   66.2420   32.7170   50.1170 C   0  0  0  0  0  0  0  0  0  0  0  0
   67.3480   33.4710   50.5050 C   0  0  0  0  0  0  0  0  0  0  0  0
   67.2070   34.5140   51.4190 C   0  0  0  0  0  0  0  0  0  0  0  0
   68.3520   35.2350   51.7890 O   0  0  0  0  0  0  0  0  0  0  0  0
   68.3430   36.5810   52.2520 C   0  0  0  0  0  0  0  0  0  0  0  0
   65.9310   34.8030   51.9390 C   0  0  0  0  0  0  0  0  0  0  0  0
   64.8040   34.0580   51.5620 C   0  0  0  0  0  0  0  0  0  0  0  0
   63.5840   34.4430   52.1510 O   0  0  0  0  0  0  0  0  0  0  0  0
   62.6550   33.6150   52.8380 C   0  0  0  0  0  0  0  0  0  0  0  0
   63.5080   31.0340   50.8240 C   0  0  0  0  0  0  0  0  0  0  0  0
   64.2310   30.5770   52.2270 S   0  0  0  0  0  0  0  0  0  0  0  0
   62.5240   30.2430   50.3280 N   0  0  0  0  0  0  0  0  0  0  0  0
   61.8890   30.5400   49.1700 C   0  0  0  0  0  0  0  0  0  0  0  0
   60.8830   29.6930   48.6900 C   0  0  0  0  0  0  0  0  0  0  0  0
   58.4910   26.5850   44.9370 C   0  0  0  0  0  0  0  0  0  0  0  0
   57.6530   25.6680   44.2970 C   0  0  0  0  0  0  0  0  0  0  0  0
   53.5352   24.5890   46.3387 H   0  0  0  0  0  0  0  0  0  0  0  0
   54.0343   25.3657   44.7978 H   0  0  0  0  0  0  0  0  0  0  0  0
   52.7394   24.1207   44.7978 H   0  0  0  0  0  0  0  0  0  0  0  0
   55.0284   22.9288   46.0284 H   0  0  0  0  0  0  0  0  0  0  0  0
   54.3016   22.5532   44.4167 H   0  0  0  0  0  0  0  0  0  0  0  0
   55.3392   23.5022   42.3911 H   0  0  0  0  0  0  0  0  0  0  0  0
   57.0538   24.0296   42.6082 H   0  0  0  0  0  0  0  0  0  0  0  0
   56.8000   21.6147   44.0716 H   0  0  0  0  0  0  0  0  0  0  0  0
   55.9471   21.3329   42.5161 H   0  0  0  0  0  0  0  0  0  0  0  0
   57.6621   21.8673   42.5161 H   0  0  0  0  0  0  0  0  0  0  0  0
   56.1735   24.2810   47.0495 H   0  0  0  0  0  0  0  0  0  0  0  0
   57.6825   25.9040   48.1825 H   0  0  0  0  0  0  0  0  0  0  0  0
   60.2570   27.2640   47.3680 H   0  0  0  0  0  0  0  0  0  0  0  0
   60.1233   31.3370   45.7862 H   0  0  0  0  0  0  0  0  0  0  0  0
   61.8905   32.8655   46.6551 H   0  0  0  0  0  0  0  0  0  0  0  0
   66.3712   31.8945   49.3981 H   0  0  0  0  0  0  0  0  0  0  0  0
   68.3393   33.2414   50.0870 H   0  0  0  0  0  0  0  0  0  0  0  0
   68.3429   36.5904   53.3520 H   0  0  0  0  0  0  0  0  0  0  0  0
   69.2377   37.1024   51.8809 H   0  0  0  0  0  0  0  0  0  0  0  0
   67.4414   37.0904   51.8809 H   0  0  0  0  0  0  0  0  0  0  0  0
   65.8156   35.6297   52.6554 H   0  0  0  0  0  0  0  0  0  0  0  0
   62.7895   33.7349   53.9231 H   0  0  0  0  0  0  0  0  0  0  0  0
   61.6307   33.9052   52.5612 H   0  0  0  0  0  0  0  0  0  0  0  0
   62.8259   32.5642   52.5612 H   0  0  0  0  0  0  0  0  0  0  0  0
   60.6002   28.7991   49.2654 H   0  0  0  0  0  0  0  0  0  0  0  0
   59.1605   27.2204   44.3387 H   0  0  0  0  0  0  0  0  0  0  0  0
   57.6592   25.5988   43.1992 H   0  0  0  0  0  0  0  0  0  0  0  0
  1  2  1  0
  2  3  1  0
  3  4  1  0
  4  5  1  0
  3  6  1  0
  6  7  2  0
  7  8  1  0
  8  9  2  0
  9 10  1  0
 10 11  1  0
 11 12  2  0
 11 13  1  0
 13 14  2  0
 14 15  1  0
 15 16  2  0
 16 17  1  0
 17 18  2  0
 17 19  1  0
 19 20  1  0
 20 21  2  0
 21 22  1  0
 22 23  2  0
 23 24  1  0
 24 25  1  0
 23 26  1  0
 26 27  2  0
 27 28  1  0
 28 29  1  0
 19 30  1  0
 30 31  2  0
 30 32  1  0
 32 33  1  0
 33 34  2  0
  9 35  1  0
 35 36  2  0
 36  6  1  0
 34 13  1  0
 33 16  1  0
 27 20  1  0
  1 37  1  0
  1 38  1  0
  1 39  1  0
  2 40  1  0
  2 41  1  0
  4 42  1  0
  4 43  1  0
  5 44  1  0
  5 45  1  0
  5 46  1  0
  7 47  1  0
  8 48  1  0
 10 49  1  0
 14 50  1  0
 15 51  1  0
 21 52  1  0
 22 53  1  0
 25 54  1  0
 25 55  1  0
 25 56  1  0
 26 57  1  0
 29 58  1  0
 29 59  1  0
 29 60  1  0
 34 61  1  0
 35 62  1  0
 36 63  1  0
M  CHG  1  32  -1
M  END
>  <UniqueID>  (32) 
29

>  <SMILES>  (32) 
CCN(CC)c1ccc(NC(=O)c2ccc3c(=O)n(-c4ccc(OC)cc4OC)c(=S)[n-]c3c2)cc1

>  <Energy>  (32) 
91.09690623415125

>  <Genealogy>  (32) 
CCN(CC)c1ccc(NC(=O)c2ccc3c(=O)n(-c4ccc(OC)cc4OC)c(=S)[n-]c3c2)cc1 (protonated)
CCN(CC)c1ccc(NC(=O)c2ccc3c(=O)n(-c4ccc(OC)cc4OC)c(=S)[n-]c3c2)cc1 (3D coordinates assigned)
CCN(CC)c1ccc(NC(=O)c2ccc3c(=O)n(-c4ccc(OC)cc4OC)c(=S)[n-]c3c2)cc1 (optimized conformer: 91.09690623415125 kcal/mol)

>  <smiles>  (32) 
CCN(CC)c1ccc(NC(=O)c2ccc3c(=O)n(-c4ccc(OC)cc4OC)c(=S)[nH]c3c2)cc1

>  <score_type>  (32) 
oracle

>  <origin>  (32) 
adg

>  <m_score__min__energy>  (32) 
-7.5999999999999996

>  <m_primary>  (32) 
energy

$$$$
32:0
     RDKit          3D

 62 65  0  0  0  0  0  0  0  0999 V2000
   56.2800   29.9940   43.4640 C   0  0  0  0  0  0  0  0  0  0  0  0
   56.2250   29.7520   44.8660 O   0  0  0  0  0  0  0  0  0  0  0  0
   57.3260   29.3670   45.6470 C   0  0  0  0  0  0  0  0  0  0  0  0
   57.5390   28.0340   46.0500 C   0  0  0  0  0  0  0  0  0  0  0  0
   58.6560   27.7030   46.8240 C   0  0  0  0  0  0  0  0  0  0  0  0
   59.5640   28.6980   47.2230 C   0  0  0  0  0  0  0  0  0  0  0  0
   60.7620   28.3420   48.0580 C   0  0  0  0  0  0  0  0  0  0  0  0
   60.3340   27.8090   49.4360 C   0  0  0  0  0  0  0  0  0  0  0  0
   60.5630   28.7350   50.5770 N   0  0  1  0  0  0  0  0  0  0  0  0
   61.3260   29.9650   50.2540 C   0  0  0  0  0  0  0  0  0  0  0  0
   60.4810   31.1110   49.6710 C   0  0  0  0  0  0  0  0  0  0  0  0
   59.2320   31.3100   50.4080 N   0  0  0  0  0  0  0  0  0  0  0  0
   58.6080   32.6410   50.4270 C   0  0  0  0  0  0  0  0  0  0  0  0
   59.6280   33.7650   50.1800 C   0  0  0  0  0  0  0  0  0  0  0  0
   60.0180   33.8910   48.7150 C   0  0  0  0  0  0  0  0  0  0  0  0
   58.9800   34.1820   47.8080 C   0  0  0  0  0  0  0  0  0  0  0  0
   59.2230   34.2860   46.4420 C   0  0  0  0  0  0  0  0  0  0  0  0
   60.5110   34.1250   45.9440 C   0  0  0  0  0  0  0  0  0  0  0  0
   61.5780   33.8680   46.8160 C   0  0  0  0  0  0  0  0  0  0  0  0
   62.8750   33.7430   46.2960 C   0  0  0  0  0  0  0  0  0  0  0  0
   63.9560   33.5120   47.1410 C   0  0  0  0  0  0  0  0  0  0  0  0
   63.7590   33.3910   48.5250 C   0  0  0  0  0  0  0  0  0  0  0  0
   64.8180   33.1530   49.4140 O   0  0  0  0  0  0  0  0  0  0  0  0
   64.8490   32.0950   50.3660 C   0  0  0  0  0  0  0  0  0  0  0  0
   62.4660   33.5070   49.0520 C   0  0  0  0  0  0  0  0  0  0  0  0
   61.3500   33.7480   48.2160 C   0  0  0  0  0  0  0  0  0  0  0  0
   58.5760   30.1830   51.0120 C   0  0  0  0  0  0  0  0  0  0  0  0
   57.3490   30.2340   51.2970 O   0  0  0  0  0  0  0  0  0  0  0  0
   59.3640   28.9730   51.4150 C   0  0  0  0  0  0  0  0  0  0  0  0
   59.3560   30.0230   46.8110 C   0  0  0  0  0  0  0  0  0  0  0  0
   58.2440   30.3530   46.0320 C   0  0  0  0  0  0  0  0  0  0  0  0
   56.5205   31.0521   43.2837 H   0  0  0  0  0  0  0  0  0  0  0  0
   57.0568   29.3594   43.0126 H   0  0  0  0  0  0  0  0  0  0  0  0
   55.3052   29.7575   43.0126 H   0  0  0  0  0  0  0  0  0  0  0  0
   56.8247   27.2512   45.7551 H   0  0  0  0  0  0  0  0  0  0  0  0
   58.8245   26.6576   47.1220 H   0  0  0  0  0  0  0  0  0  0  0  0
   61.3457   27.5680   47.5382 H   0  0  0  0  0  0  0  0  0  0  0  0
   61.3686   29.2478   48.2052 H   0  0  0  0  0  0  0  0  0  0  0  0
   59.2584   27.5825   49.3932 H   0  0  0  0  0  0  0  0  0  0  0  0
   60.9637   26.9280   49.6293 H   0  0  0  0  0  0  0  0  0  0  0  0
   61.2090   28.1900   51.1980 H   0  0  0  0  0  0  0  0  0  0  0  0
   61.8017   30.3257   51.1779 H   0  0  0  0  0  0  0  0  0  0  0  0
   62.0505   29.6857   49.4749 H   0  0  0  0  0  0  0  0  0  0  0  0
   61.0683   32.0402   49.7125 H   0  0  0  0  0  0  0  0  0  0  0  0
   60.2223   30.8456   48.6353 H   0  0  0  0  0  0  0  0  0  0  0  0
   57.8383   32.6825   49.6422 H   0  0  0  0  0  0  0  0  0  0  0  0
   58.1715   32.7948   51.4249 H   0  0  0  0  0  0  0  0  0  0  0  0
   59.1889   34.7178   50.5107 H   0  0  0  0  0  0  0  0  0  0  0  0
   60.5381   33.5187   50.7466 H   0  0  0  0  0  0  0  0  0  0  0  0
   57.9580   34.3298   48.1870 H   0  0  0  0  0  0  0  0  0  0  0  0
   58.3920   34.4966   45.7527 H   0  0  0  0  0  0  0  0  0  0  0  0
   60.6934   34.1996   44.8618 H   0  0  0  0  0  0  0  0  0  0  0  0
   63.0386   33.8283   45.2116 H   0  0  0  0  0  0  0  0  0  0  0  0
   64.9694   33.4239   46.7223 H   0  0  0  0  0  0  0  0  0  0  0  0
   64.8367   32.5157   51.3823 H   0  0  0  0  0  0  0  0  0  0  0  0
   63.9694   31.4496   50.2257 H   0  0  0  0  0  0  0  0  0  0  0  0
   65.7649   31.5022   50.2257 H   0  0  0  0  0  0  0  0  0  0  0  0
   62.3154   33.4088   50.1372 H   0  0  0  0  0  0  0  0  0  0  0  0
   59.6895   29.1023   52.4577 H   0  0  0  0  0  0  0  0  0  0  0  0
   58.7041   28.1025   51.2855 H   0  0  0  0  0  0  0  0  0  0  0  0
   60.0718   30.8057   47.1027 H   0  0  0  0  0  0  0  0  0  0  0  0
   58.0879   31.3957   45.7183 H   0  0  0  0  0  0  0  0  0  0  0  0
  1  2  1  0
  2  3  1  0
  3  4  2  0
  4  5  1  0
  5  6  2  0
  6  7  1  0
  7  8  1  0
  8  9  1  0
  9 10  1  0
 10 11  1  0
 11 12  1  0
 12 13  1  0
 13 14  1  0
 14 15  1  0
 15 16  2  0
 16 17  1  0
 17 18  2  0
 18 19  1  0
 19 20  2  0
 20 21  1  0
 21 22  2  0
 22 23  1  0
 23 24  1  0
 22 25  1  0
 25 26  2  0
 12 27  1  0
 27 28  2  0
 27 29  1  0
  6 30  1  0
 30 31  2  0
 31  3  1  0
 29  9  1  0
 26 15  1  0
 26 19  1  0
  1 32  1  0
  1 33  1  0
  1 34  1  0
  4 35  1  0
  5 36  1  0
  7 37  1  0
  7 38  1  0
  8 39  1  0
  8 40  1  0
  9 41  1  1
 10 42  1  0
 10 43  1  0
 11 44  1  0
 11 45  1  0
 13 46  1  0
 13 47  1  0
 14 48  1  0
 14 49  1  0
 16 50  1  0
 17 51  1  0
 18 52  1  0
 20 53  1  0
 21 54  1  0
 24 55  1  0
 24 56  1  0
 24 57  1  0
 25 58  1  0
 29 59  1  0
 29 60  1  0
 30 61  1  0
 31 62  1  0
M  CHG  1   9   1
M  END
>  <UniqueID>  (33) 
30

>  <SMILES>  (33) 
COc1ccc(CC[N@H+]2CCN(CCc3cccc4ccc(OC)cc34)C(=O)C2)cc1

>  <Energy>  (33) 
72.51570381167078

>  <Genealogy>  (33) 
COc1ccc(CC[NH+]2CCN(CCc3cccc4ccc(OC)cc34)C(=O)C2)cc1 (protonated)
COc1ccc(CC[N@H+]2CCN(CCc3cccc4ccc(OC)cc34)C(=O)C2)cc1 (chirality)
COc1ccc(CC[N@H+]2CCN(CCc3cccc4ccc(OC)cc34)C(=O)C2)cc1 (3D coordinates assigned)
COc1ccc(CC[N@H+]2CCN(CCc3cccc4ccc(OC)cc34)C(=O)C2)cc1 (nonaromatic ring conformer: 72.51570381167078 kcal/mol)

>  <smiles>  (33) 
COc1ccc(CCN2CCN(CCc3cccc4ccc(OC)cc34)C(=O)C2)cc1

>  <score_type>  (33) 
oracle

>  <origin>  (33) 
adg

>  <m_score__min__energy>  (33) 
-7.6600000000000001

>  <m_primary>  (33) 
energy

$$$$
33:0
     RDKit          3D

 50 53  0  0  0  0  0  0  0  0999 V2000
   56.9910   29.3130   43.4060 C   0  0  0  0  0  0  0  0  0  0  0  0
   57.8270   28.2320   43.9300 N   0  0  0  0  0  0  0  0  0  0  0  0
   58.1540   27.1150   43.0460 C   0  0  0  0  0  0  0  0  0  0  0  0
   58.6120   28.4550   45.1140 C   0  0  0  0  0  0  0  0  0  0  0  0
   59.4660   29.5770   45.1740 C   0  0  0  0  0  0  0  0  0  0  0  0
   60.1680   29.8060   46.3510 C   0  0  0  0  0  0  0  0  0  0  0  0
   60.9990   30.8240   46.6290 N   0  0  0  0  0  0  0  0  0  0  0  0
   61.3860   30.6020   47.9090 C   0  0  0  0  0  0  0  0  0  0  0  0
   62.2510   31.5690   48.6730 C   0  0  0  0  0  0  0  0  0  0  0  0
   62.5590   32.8210   47.8440 C   0  0  0  0  0  0  0  0  0  0  0  0
   61.3030   33.5380   47.4370 C   0  0  0  0  0  0  0  0  0  0  0  0
   60.4090   34.0330   48.3960 C   0  0  0  0  0  0  0  0  0  0  0  0
   59.2560   34.6290   47.9930 N   0  0  0  0  0  0  0  0  0  0  0  0
   58.9510   34.7490   46.6740 C   0  0  0  0  0  0  0  0  0  0  0  0
   59.8350   34.2520   45.7160 C   0  0  0  0  0  0  0  0  0  0  0  0
   60.9870   33.6540   46.1180 N   0  0  0  0  0  0  0  0  0  0  0  0
   60.8230   29.4780   48.4360 N   0  0  0  0  0  0  0  0  0  0  0  0
   60.9830   28.9600   49.7950 C   0  0  0  0  0  0  0  0  0  0  0  0
   60.0520   28.9930   47.4390 C   0  0  0  0  0  0  0  0  0  0  0  0
   59.2230   27.8700   47.4250 C   0  0  0  0  0  0  0  0  0  0  0  0
   58.4990   27.5850   46.2440 C   0  0  0  0  0  0  0  0  0  0  0  0
   57.6510   26.3700   46.2000 C   0  0  0  0  0  0  0  0  0  0  0  0
   58.2230   25.1090   45.9690 C   0  0  0  0  0  0  0  0  0  0  0  0
   57.4150   23.9700   45.9320 C   0  0  0  0  0  0  0  0  0  0  0  0
   56.0390   24.1020   46.1210 C   0  0  0  0  0  0  0  0  0  0  0  0
   55.4940   25.3300   46.3310 N   0  0  0  0  0  0  0  0  0  0  0  0
   56.2590   26.4530   46.3740 C   0  0  0  0  0  0  0  0  0  0  0  0
   56.5544   29.8775   44.2431 H   0  0  0  0  0  0  0  0  0  0  0  0
   57.6056   29.9864   42.7905 H   0  0  0  0  0  0  0  0  0  0  0  0
   56.1847   28.8875   42.7905 H   0  0  0  0  0  0  0  0  0  0  0  0
   58.4123   26.2328   43.6501 H   0  0  0  0  0  0  0  0  0  0  0  0
   57.2859   26.8834   42.4113 H   0  0  0  0  0  0  0  0  0  0  0  0
   59.0099   27.3881   42.4113 H   0  0  0  0  0  0  0  0  0  0  0  0
   59.5730   30.2521   44.3121 H   0  0  0  0  0  0  0  0  0  0  0  0
   61.2610   31.6230   46.0100 H   0  0  0  0  0  0  0  0  0  0  0  0
   61.7265   31.8688   49.5923 H   0  0  0  0  0  0  0  0  0  0  0  0
   63.2017   31.0692   48.9106 H   0  0  0  0  0  0  0  0  0  0  0  0
   63.1805   33.5022   48.4438 H   0  0  0  0  0  0  0  0  0  0  0  0
   63.0873   32.5078   46.9314 H   0  0  0  0  0  0  0  0  0  0  0  0
   60.6389   33.9398   49.4677 H   0  0  0  0  0  0  0  0  0  0  0  0
   58.0139   35.2345   46.3641 H   0  0  0  0  0  0  0  0  0  0  0  0
   59.6016   34.3434   44.6449 H   0  0  0  0  0  0  0  0  0  0  0  0
   60.7388   29.7506   50.5198 H   0  0  0  0  0  0  0  0  0  0  0  0
   60.3071   28.1049   49.9434 H   0  0  0  0  0  0  0  0  0  0  0  0
   62.0234   28.6351   49.9434 H   0  0  0  0  0  0  0  0  0  0  0  0
   59.1351   27.2230   48.3103 H   0  0  0  0  0  0  0  0  0  0  0  0
   59.3086   25.0177   45.8170 H   0  0  0  0  0  0  0  0  0  0  0  0
   57.8591   22.9792   45.7557 H   0  0  0  0  0  0  0  0  0  0  0  0
   55.3939   23.2112   46.1001 H   0  0  0  0  0  0  0  0  0  0  0  0
   55.7862   27.4312   46.5458 H   0  0  0  0  0  0  0  0  0  0  0  0
  1  2  1  0
  2  3  1  0
  2  4  1  0
  4  5  2  0
  5  6  1  0
  6  7  1  0
  7  8  2  0
  8  9  1  0
  9 10  1  0
 10 11  1  0
 11 12  2  0
 12 13  1  0
 13 14  2  0
 14 15  1  0
 15 16  2  0
  8 17  1  0
 17 18  1  0
 17 19  1  0
 19 20  1  0
 20 21  2  0
 21 22  1  0
 22 23  2  0
 23 24  1  0
 24 25  2  0
 25 26  1  0
 26 27  2  0
 21  4  1  0
 27 22  1  0
 19  6  2  0
 16 11  1  0
  1 28  1  0
  1 29  1  0
  1 30  1  0
  3 31  1  0
  3 32  1  0
  3 33  1  0
  5 34  1  0
  7 35  1  0
  9 36  1  0
  9 37  1  0
 10 38  1  0
 10 39  1  0
 12 40  1  0
 14 41  1  0
 15 42  1  0
 18 43  1  0
 18 44  1  0
 18 45  1  0
 20 46  1  0
 23 47  1  0
 24 48  1  0
 25 49  1  0
 27 50  1  0
M  CHG  1   7   1
M  END
>  <UniqueID>  (34) 
31

>  <SMILES>  (34) 
CN(C)c1cc2[nH+]c(CCc3cnccn3)n(C)c2cc1-c1cccnc1

>  <Energy>  (34) 
100.1436592354229

>  <Genealogy>  (34) 
CN(C)c1cc2[nH+]c(CCc3cnccn3)n(C)c2cc1-c1cccnc1 (protonated)
CN(C)c1cc2[nH+]c(CCc3cnccn3)n(C)c2cc1-c1cccnc1 (3D coordinates assigned)
CN(C)c1cc2[nH+]c(CCc3cnccn3)n(C)c2cc1-c1cccnc1 (optimized conformer: 100.1436592354229 kcal/mol)

>  <smiles>  (34) 
CN(C)c1cc2nc(CCc3cnccn3)n(C)c2cc1-c1cccnc1

>  <score_type>  (34) 
oracle

>  <origin>  (34) 
adg

>  <m_score__min__energy>  (34) 
-6.75

>  <m_primary>  (34) 
energy

$$$$
34:0
     RDKit          3D

 30 31  0  0  0  0  0  0  0  0999 V2000
   59.6430   35.3410   46.7700 C   0  0  0  0  0  0  0  0  0  0  0  0
   59.8420   33.8880   46.9970 N   0  0  0  0  0  0  0  0  0  0  0  0
   61.2880   33.5700   46.9200 C   0  0  0  0  0  0  0  0  0  0  0  0
   59.3920   33.5870   48.3810 C   0  0  0  0  0  0  0  0  0  0  0  0
   59.1120   33.1240   45.9640 C   0  0  0  0  0  0  0  0  0  0  0  0
   58.7940   33.7360   44.7230 C   0  0  0  0  0  0  0  0  0  0  0  0
   58.1070   33.0500   43.7210 C   0  0  0  0  0  0  0  0  0  0  0  0
   57.7100   31.7250   43.9170 C   0  0  0  0  0  0  0  0  0  0  0  0
   57.0190   31.0290   42.9120 C   0  0  0  0  0  0  0  0  0  0  0  0
   56.6280   29.7040   43.1180 C   0  0  0  0  0  0  0  0  0  0  0  0
   56.9220   29.0650   44.3260 C   0  0  0  0  0  0  0  0  0  0  0  0
   57.6090   29.7480   45.3330 C   0  0  0  0  0  0  0  0  0  0  0  0
   58.0090   31.0820   45.1370 C   0  0  0  0  0  0  0  0  0  0  0  0
   58.7000   31.7750   46.1440 C   0  0  0  0  0  0  0  0  0  0  0  0
   59.5723   35.8572   47.7388 H   0  0  0  0  0  0  0  0  0  0  0  0
   60.4944   35.7433   46.2015 H   0  0  0  0  0  0  0  0  0  0  0  0
   58.7148   35.4995   46.2015 H   0  0  0  0  0  0  0  0  0  0  0  0
   61.6982   33.4798   47.9366 H   0  0  0  0  0  0  0  0  0  0  0  0
   61.4264   32.6200   46.3831 H   0  0  0  0  0  0  0  0  0  0  0  0
   61.8122   34.3743   46.3831 H   0  0  0  0  0  0  0  0  0  0  0  0
   60.0838   34.0497   49.1003 H   0  0  0  0  0  0  0  0  0  0  0  0
   58.3802   33.9908   48.5336 H   0  0  0  0  0  0  0  0  0  0  0  0
   59.3789   32.4977   48.5336 H   0  0  0  0  0  0  0  0  0  0  0  0
   59.0973   34.7786   44.5468 H   0  0  0  0  0  0  0  0  0  0  0  0
   57.8767   33.5552   42.7714 H   0  0  0  0  0  0  0  0  0  0  0  0
   56.7851   31.5285   41.9603 H   0  0  0  0  0  0  0  0  0  0  0  0
   56.0875   29.1622   42.3279 H   0  0  0  0  0  0  0  0  0  0  0  0
   56.6117   28.0216   44.4843 H   0  0  0  0  0  0  0  0  0  0  0  0
   57.8377   29.2408   46.2819 H   0  0  0  0  0  0  0  0  0  0  0  0
   58.9272   31.2640   47.0912 H   0  0  0  0  0  0  0  0  0  0  0  0
  1  2  1  0
  2  3  1  0
  2  4  1  0
  2  5  1  0
  5  6  2  0
  6  7  1  0
  7  8  2  0
  8  9  1  0
  9 10  2  0
 10 11  1  0
 11 12  2  0
 12 13  1  0
 13 14  2  0
 14  5  1  0
 13  8  1  0
  1 15  1  0
  1 16  1  0
  1 17  1  0
  3 18  1  0
  3 19  1  0
  3 20  1  0
  4 21  1  0
  4 22  1  0
  4 23  1  0
  6 24  1  0
  7 25  1  0
  9 26  1  0
 10 27  1  0
 11 28  1  0
 12 29  1  0
 14 30  1  0
M  CHG  1   2   1
M  END
>  <UniqueID>  (35) 
32

>  <SMILES>  (35) 
C[N+](C)(C)c1ccc2ccccc2c1

>  <Energy>  (35) 
46.33211675803717

>  <Genealogy>  (35) 
C[N+](C)(C)c1ccc2ccccc2c1 (3D coordinates assigned)
C[N+](C)(C)c1ccc2ccccc2c1 (optimized conformer: 46.33211675803717 kcal/mol)

>  <smiles>  (35) 
C[N+](C)(C)c1ccc2ccccc2c1

>  <score_type>  (35) 
oracle

>  <origin>  (35) 
adg

>  <m_score__min__energy>  (35) 
-4.3499999999999996

>  <m_primary>  (35) 
energy

$$$$
35:0
     RDKit          3D

 35 37  0  0  0  0  0  0  0  0999 V2000
   55.3470   29.6340   45.1710 O   0  0  0  0  0  0  0  0  0  0  0  0
   56.4900   29.9950   43.9940 S   0  0  0  0  0  0  0  0  0  0  0  0
   57.5220   28.5900   43.6190 C   0  0  0  0  0  0  0  0  0  0  0  0
   58.4860   28.3290   44.7440 C   0  0  0  0  0  0  0  0  0  0  0  0
   59.8410   28.6760   44.6120 C   0  0  0  0  0  0  0  0  0  0  0  0
   60.7210   28.4950   45.6830 C   0  0  0  0  0  0  0  0  0  0  0  0
   60.2550   27.9710   46.8920 C   0  0  0  0  0  0  0  0  0  0  0  0
   58.9070   27.6280   47.0320 C   0  0  0  0  0  0  0  0  0  0  0  0
   58.0230   27.8080   45.9630 C   0  0  0  0  0  0  0  0  0  0  0  0
   57.4160   31.4250   44.4330 C   0  0  0  0  0  0  0  0  0  0  0  0
   57.7420   31.6390   45.7790 C   0  0  0  0  0  0  0  0  0  0  0  0
   58.5140   32.7470   46.1680 C   0  0  0  0  0  0  0  0  0  0  0  0
   58.8830   32.9340   47.5960 C   0  0  0  0  0  0  0  0  0  0  0  0
   58.6710   32.0370   48.6460 C   0  0  0  0  0  0  0  0  0  0  0  0
   59.1050   32.4730   49.8590 N   0  0  0  0  0  0  0  0  0  0  0  0
   59.6640   33.7000   49.8150 C   0  0  0  0  0  0  0  0  0  0  0  0
   59.6410   34.2960   48.2470 S   0  0  0  0  0  0  0  0  0  0  0  0
   58.9380   33.6550   45.1820 C   0  0  0  0  0  0  0  0  0  0  0  0
   58.6000   33.4540   43.8410 C   0  0  0  0  0  0  0  0  0  0  0  0
   57.8430   32.3440   43.4590 C   0  0  0  0  0  0  0  0  0  0  0  0
   57.4310   32.1140   41.6000 Br  0  0  0  0  0  0  0  0  0  0  0  0
   55.8330   29.7340   46.0270 H   0  0  0  0  0  0  0  0  0  0  0  0
   56.8874   27.7034   43.4731 H   0  0  0  0  0  0  0  0  0  0  0  0
   58.0932   28.8025   42.7032 H   0  0  0  0  0  0  0  0  0  0  0  0
   60.2106   29.0914   43.6629 H   0  0  0  0  0  0  0  0  0  0  0  0
   61.7817   28.7654   45.5741 H   0  0  0  0  0  0  0  0  0  0  0  0
   60.9490   27.8285   47.7335 H   0  0  0  0  0  0  0  0  0  0  0  0
   58.5410   27.2160   47.9840 H   0  0  0  0  0  0  0  0  0  0  0  0
   56.9621   27.5407   46.0776 H   0  0  0  0  0  0  0  0  0  0  0  0
   57.3886   30.9297   46.5419 H   0  0  0  0  0  0  0  0  0  0  0  0
   58.1918   31.0572   48.5032 H   0  0  0  0  0  0  0  0  0  0  0  0
   59.0170   31.9120   50.7350 H   0  0  0  0  0  0  0  0  0  0  0  0
   60.0763   34.2339   50.6839 H   0  0  0  0  0  0  0  0  0  0  0  0
   59.5401   34.5300   45.4681 H   0  0  0  0  0  0  0  0  0  0  0  0
   58.9327   34.1756   43.0803 H   0  0  0  0  0  0  0  0  0  0  0  0
  2  1  1  1
  2  3  1  0
  3  4  1  0
  4  5  2  0
  5  6  1  0
  6  7  2  0
  7  8  1  0
  8  9  2  0
  2 10  1  0
 10 11  2  0
 11 12  1  0
 12 13  1  0
 13 14  2  0
 14 15  1  0
 15 16  2  0
 16 17  1  0
 12 18  2  0
 18 19  1  0
 19 20  2  0
 20 21  1  0
  9  4  1  0
 20 10  1  0
 17 13  1  0
  1 22  1  0
  3 23  1  0
  3 24  1  0
  5 25  1  0
  6 26  1  0
  7 27  1  0
  8 28  1  0
  9 29  1  0
 11 30  1  0
 14 31  1  0
 15 32  1  0
 16 33  1  0
 18 34  1  0
 19 35  1  0
M  CHG  2   2   1  15   1
M  END
>  <UniqueID>  (36) 
33

>  <SMILES>  (36) 
O[S@+](Cc1ccccc1)c1cc(-c2c[nH+]cs2)ccc1Br

>  <Energy>  (36) 
62.44650860206252

>  <Genealogy>  (36) 
O[S+](Cc1ccccc1)c1cc(-c2c[nH+]cs2)ccc1Br (protonated)
O[S@+](Cc1ccccc1)c1cc(-c2c[nH+]cs2)ccc1Br (chirality)
O[S@+](Cc1ccccc1)c1cc(-c2c[nH+]cs2)ccc1Br (3D coordinates assigned)
O[S@+](Cc1ccccc1)c1cc(-c2c[nH+]cs2)ccc1Br (optimized conformer: 62.44650860206252 kcal/mol)

>  <smiles>  (36) 
[O-][S+](Cc1ccccc1)c1cc(-c2cncs2)ccc1Br

>  <score_type>  (36) 
oracle

>  <origin>  (36) 
adg

>  <m_score__min__energy>  (36) 
-5.7300000000000004

>  <m_primary>  (36) 
energy

$$$$
36:0
     RDKit          3D

 46 48  0  0  0  0  0  0  0  0999 V2000
   58.1430   26.7840   42.8870 C   0  0  0  0  0  0  0  0  0  0  0  0
   58.5150   27.8860   43.7080 O   0  0  0  0  0  0  0  0  0  0  0  0
   58.9190   27.7840   45.0490 C   0  0  0  0  0  0  0  0  0  0  0  0
   59.2580   26.5420   45.6230 C   0  0  0  0  0  0  0  0  0  0  0  0
   59.6110   26.4570   46.9710 C   0  0  0  0  0  0  0  0  0  0  0  0
   59.6280   27.6040   47.7630 C   0  0  0  0  0  0  0  0  0  0  0  0
   59.3030   28.8430   47.2090 C   0  0  0  0  0  0  0  0  0  0  0  0
   58.9610   28.9500   45.8490 C   0  0  0  0  0  0  0  0  0  0  0  0
   58.6370   30.2800   45.2880 C   0  0  0  0  0  0  0  0  0  0  0  0
   58.4040   30.5250   43.9760 N   0  0  0  0  0  0  0  0  0  0  0  0
   58.1510   31.8380   43.7180 C   0  0  0  0  0  0  0  0  0  0  0  0
   57.8800   32.3310   42.3290 C   0  0  0  0  0  0  0  0  0  0  0  0
   58.1800   32.6640   44.8470 C   0  0  0  0  0  0  0  0  0  0  0  0
   57.9520   34.1530   44.9020 C   0  0  0  0  0  0  0  0  0  0  0  0
   59.1370   34.8780   45.3900 N   0  0  0  0  0  0  0  0  0  0  0  0
   59.2450   34.8650   46.8560 C   0  0  0  0  0  0  0  0  0  0  0  0
   60.5490   34.2440   47.2850 C   0  0  0  0  0  0  0  0  0  0  0  0
   61.5620   34.1760   46.3760 N   0  0  0  0  0  0  0  0  0  0  0  0
   62.7640   33.6160   46.6680 C   0  0  0  0  0  0  0  0  0  0  0  0
   62.9960   33.0850   47.9350 C   0  0  0  0  0  0  0  0  0  0  0  0
   61.9830   33.1340   48.8920 C   0  0  0  0  0  0  0  0  0  0  0  0
   60.7410   33.7090   48.5820 C   0  0  0  0  0  0  0  0  0  0  0  0
   59.6610   33.7600   49.6290 C   0  0  0  0  0  0  0  0  0  0  0  0
   58.5510   31.7060   46.1800 S   0  0  0  0  0  0  0  0  0  0  0  0
   57.8559   25.9335   43.5228 H   0  0  0  0  0  0  0  0  0  0  0  0
   57.2919   27.0708   42.2519 H   0  0  0  0  0  0  0  0  0  0  0  0
   58.9938   26.4962   42.2519 H   0  0  0  0  0  0  0  0  0  0  0  0
   59.2443   25.6328   45.0040 H   0  0  0  0  0  0  0  0  0  0  0  0
   59.8762   25.4834   47.4089 H   0  0  0  0  0  0  0  0  0  0  0  0
   59.8981   27.5324   48.8269 H   0  0  0  0  0  0  0  0  0  0  0  0
   59.3144   29.7432   47.8411 H   0  0  0  0  0  0  0  0  0  0  0  0
   58.4530   29.7960   43.2310 H   0  0  0  0  0  0  0  0  0  0  0  0
   57.3507   33.2940   42.3785 H   0  0  0  0  0  0  0  0  0  0  0  0
   58.8323   32.4631   41.7945 H   0  0  0  0  0  0  0  0  0  0  0  0
   57.2581   31.5978   41.7945 H   0  0  0  0  0  0  0  0  0  0  0  0
   57.7082   34.5119   43.8912 H   0  0  0  0  0  0  0  0  0  0  0  0
   57.1263   34.3432   45.6035 H   0  0  0  0  0  0  0  0  0  0  0  0
   60.0010   34.4490   44.9830 H   0  0  0  0  0  0  0  0  0  0  0  0
   59.1953   35.8977   47.2315 H   0  0  0  0  0  0  0  0  0  0  0  0
   58.4161   34.2706   47.2679 H   0  0  0  0  0  0  0  0  0  0  0  0
   63.5547   33.5816   45.9041 H   0  0  0  0  0  0  0  0  0  0  0  0
   63.9684   32.6317   48.1779 H   0  0  0  0  0  0  0  0  0  0  0  0
   62.1585   32.7195   49.8957 H   0  0  0  0  0  0  0  0  0  0  0  0
   60.1185   33.7384   50.6291 H   0  0  0  0  0  0  0  0  0  0  0  0
   59.0799   34.6866   49.5116 H   0  0  0  0  0  0  0  0  0  0  0  0
   58.9952   32.8923   49.5116 H   0  0  0  0  0  0  0  0  0  0  0  0
  1  2  1  0
  2  3  1  0
  3  4  2  0
  4  5  1  0
  5  6  2  0
  6  7  1  0
  7  8  2  0
  8  9  1  0
  9 10  2  0
 10 11  1  0
 11 12  1  0
 11 13  2  0
 13 14  1  0
 14 15  1  0
 15 16  1  0
 16 17  1  0
 17 18  2  0
 18 19  1  0
 19 20  2  0
 20 21  1  0
 21 22  2  0
 22 23  1  0
 13 24  1  0
  8  3  1  0
 24  9  1  0
 22 17  1  0
  1 25  1  0
  1 26  1  0
  1 27  1  0
  4 28  1  0
  5 29  1  0
  6 30  1  0
  7 31  1  0
 10 32  1  0
 12 33  1  0
 12 34  1  0
 12 35  1  0
 14 36  1  0
 14 37  1  0
 15 38  1  0
 16 39  1  0
 16 40  1  0
 19 41  1  0
 20 42  1  0
 21 43  1  0
 23 44  1  0
 23 45  1  0
 23 46  1  0
M  CHG  1  10   1
M  END
>  <UniqueID>  (37) 
34

>  <SMILES>  (37) 
COc1ccccc1-c1[nH+]c(C)c(CNCc2ncccc2C)s1

>  <Energy>  (37) 
80.368223792717

>  <Genealogy>  (37) 
COc1ccccc1-c1[nH+]c(C)c(CNCc2ncccc2C)s1 (protonated)
COc1ccccc1-c1[nH+]c(C)c(CNCc2ncccc2C)s1 (3D coordinates assigned)
COc1ccccc1-c1[nH+]c(C)c(CNCc2ncccc2C)s1 (optimized conformer: 80.368223792717 kcal/mol)

>  <smiles>  (37) 
COc1ccccc1-c1nc(C)c(CNCc2ncccc2C)s1

>  <score_type>  (37) 
oracle

>  <origin>  (37) 
adg

>  <m_score__min__energy>  (37) 
-6.2300000000000004

>  <m_primary>  (37) 
energy

$$$$
37:0
     RDKit          3D

 72 72  0  0  0  0  0  0  0  0999 V2000
   63.4000   32.1170   47.4290 C   0  0  0  0  0  0  0  0  0  0  0  0
   62.9270   33.5030   46.9940 C   0  0  0  0  0  0  0  0  0  0  0  0
   61.6480   33.9310   47.7280 C   0  0  0  0  0  0  0  0  0  0  0  0
   60.4370   33.5830   46.9520 N   0  0  0  0  0  0  0  0  0  0  0  0
   59.6660   34.7540   46.4590 C   0  0  0  0  0  0  0  0  0  0  0  0
   59.1470   34.6680   45.0010 C   0  0  0  0  0  0  0  0  0  0  0  0
   57.6690   34.3110   44.8770 C   0  0  0  0  0  0  0  0  0  0  0  0
   59.6000   32.5330   47.5730 C   0  0  0  0  0  0  0  0  0  0  0  0
   59.3860   31.4080   46.5960 C   0  0  0  0  0  0  0  0  0  0  0  0
   60.3520   30.4000   46.4470 C   0  0  0  0  0  0  0  0  0  0  0  0
   60.1380   29.3410   45.5600 C   0  0  0  0  0  0  0  0  0  0  0  0
   58.9590   29.2790   44.8020 C   0  0  0  0  0  0  0  0  0  0  0  0
   58.7130   28.1070   43.8840 C   0  0  0  0  0  0  0  0  0  0  0  0
   57.4160   27.4520   44.1800 N   0  0  0  0  0  0  0  0  0  0  0  0
   57.2860   27.0370   45.5880 C   0  0  0  0  0  0  0  0  0  0  0  0
   58.3830   26.0370   45.9900 C   0  0  0  0  0  0  0  0  0  0  0  0
   58.2670   24.7250   45.2060 C   0  0  0  0  0  0  0  0  0  0  0  0
   57.2590   24.8370   44.1400 N   0  0  0  0  0  0  0  0  0  0  0  0
   56.9900   23.5540   43.4640 C   0  0  0  0  0  0  0  0  0  0  0  0
   55.4820   23.3530   43.2740 C   0  0  0  0  0  0  0  0  0  0  0  0
   54.7640   23.0880   44.6070 C   0  0  0  0  0  0  0  0  0  0  0  0
   54.2880   24.3920   45.2640 C   0  0  0  0  0  0  0  0  0  0  0  0
   55.1760   24.7890   46.3690 N   0  0  0  0  0  0  0  0  0  0  0  0
   55.3310   23.7070   47.3500 C   0  0  0  0  0  0  0  0  0  0  0  0
   56.7330   23.7410   47.9450 C   0  0  0  0  0  0  0  0  0  0  0  0
   57.9860   30.2810   44.9600 C   0  0  0  0  0  0  0  0  0  0  0  0
   58.1990   31.3370   45.8500 C   0  0  0  0  0  0  0  0  0  0  0  0
   63.4181   32.0638   48.5276 H   0  0  0  0  0  0  0  0  0  0  0  0
   62.7112   31.3545   47.0363 H   0  0  0  0  0  0  0  0  0  0  0  0
   64.4112   31.9347   47.0363 H   0  0  0  0  0  0  0  0  0  0  0  0
   63.7212   34.2330   47.2093 H   0  0  0  0  0  0  0  0  0  0  0  0
   62.7039   33.4635   45.9176 H   0  0  0  0  0  0  0  0  0  0  0  0
   61.6072   33.4218   48.7022 H   0  0  0  0  0  0  0  0  0  0  0  0
   61.6731   35.0229   47.8585 H   0  0  0  0  0  0  0  0  0  0  0  0
   58.7949   34.8837   47.1181 H   0  0  0  0  0  0  0  0  0  0  0  0
   60.3725   35.5971   46.4704 H   0  0  0  0  0  0  0  0  0  0  0  0
   59.3062   35.6450   44.5212 H   0  0  0  0  0  0  0  0  0  0  0  0
   59.7075   33.8551   44.5162 H   0  0  0  0  0  0  0  0  0  0  0  0
   57.2318   34.2054   45.8809 H   0  0  0  0  0  0  0  0  0  0  0  0
   57.1439   35.1081   44.3304 H   0  0  0  0  0  0  0  0  0  0  0  0
   57.5656   33.3621   44.3304 H   0  0  0  0  0  0  0  0  0  0  0  0
   60.1052   32.1463   48.4704 H   0  0  0  0  0  0  0  0  0  0  0  0
   58.6264   32.9621   47.8520 H   0  0  0  0  0  0  0  0  0  0  0  0
   61.2827   30.4439   47.0317 H   0  0  0  0  0  0  0  0  0  0  0  0
   60.8977   28.5524   45.4558 H   0  0  0  0  0  0  0  0  0  0  0  0
   58.7051   28.4629   42.8432 H   0  0  0  0  0  0  0  0  0  0  0  0
   59.5160   27.3713   44.0384 H   0  0  0  0  0  0  0  0  0  0  0  0
   56.6490   28.1370   43.9780 H   0  0  0  0  0  0  0  0  0  0  0  0
   57.2450   26.6250   43.5620 H   0  0  0  0  0  0  0  0  0  0  0  0
   57.3620   27.9267   46.2303 H   0  0  0  0  0  0  0  0  0  0  0  0
   56.3105   26.5438   45.7114 H   0  0  0  0  0  0  0  0  0  0  0  0
   59.3666   26.4867   45.7894 H   0  0  0  0  0  0  0  0  0  0  0  0
   58.2652   25.8095   47.0598 H   0  0  0  0  0  0  0  0  0  0  0  0
   59.2421   24.4871   44.7559 H   0  0  0  0  0  0  0  0  0  0  0  0
   57.9585   23.9281   45.8987 H   0  0  0  0  0  0  0  0  0  0  0  0
   56.3690   25.1630   44.5850 H   0  0  0  0  0  0  0  0  0  0  0  0
   57.4821   23.5530   42.4802 H   0  0  0  0  0  0  0  0  0  0  0  0
   57.3825   22.7354   44.0852 H   0  0  0  0  0  0  0  0  0  0  0  0
   55.0579   24.2588   42.8161 H   0  0  0  0  0  0  0  0  0  0  0  0
   55.3350   22.4746   42.6284 H   0  0  0  0  0  0  0  0  0  0  0  0
   53.8922   22.4437   44.4205 H   0  0  0  0  0  0  0  0  0  0  0  0
   55.4757   22.5999   45.2891 H   0  0  0  0  0  0  0  0  0  0  0  0
   54.2773   25.1910   44.5081 H   0  0  0  0  0  0  0  0  0  0  0  0
   53.2793   24.2279   45.6709 H   0  0  0  0  0  0  0  0  0  0  0  0
   56.1220   24.9830   45.9630 H   0  0  0  0  0  0  0  0  0  0  0  0
   54.5909   23.8350   48.1536 H   0  0  0  0  0  0  0  0  0  0  0  0
   55.1742   22.7401   46.8494 H   0  0  0  0  0  0  0  0  0  0  0  0
   56.6655   23.7394   49.0429 H   0  0  0  0  0  0  0  0  0  0  0  0
   57.2947   22.8562   47.6109 H   0  0  0  0  0  0  0  0  0  0  0  0
   57.2511   24.6520   47.6109 H   0  0  0  0  0  0  0  0  0  0  0  0
   57.0524   30.2336   44.3803 H   0  0  0  0  0  0  0  0  0  0  0  0
   57.4322   32.1170   45.9667 H   0  0  0  0  0  0  0  0  0  0  0  0
  1  2  1  0
  2  3  1  0
  3  4  1  0
  4  5  1  0
  5  6  1  0
  6  7  1  0
  4  8  1  0
  8  9  1  0
  9 10  2  0
 10 11  1  0
 11 12  2  0
 12 13  1  0
 13 14  1  0
 14 15  1  0
 15 16  1  0
 16 17  1  0
 17 18  1  0
 18 19  1  0
 19 20  1  0
 20 21  1  0
 21 22  1  0
 22 23  1  0
 23 24  1  0
 24 25  1  0
 12 26  1  0
 26 27  2  0
 27  9  1  0
  1 28  1  0
  1 29  1  0
  1 30  1  0
  2 31  1  0
  2 32  1  0
  3 33  1  0
  3 34  1  0
  5 35  1  0
  5 36  1  0
  6 37  1  0
  6 38  1  0
  7 39  1  0
  7 40  1  0
  7 41  1  0
  8 42  1  0
  8 43  1  0
 10 44  1  0
 11 45  1  0
 13 46  1  0
 13 47  1  0
 14 48  1  0
 14 49  1  0
 15 50  1  0
 15 51  1  0
 16 52  1  0
 16 53  1  0
 17 54  1  0
 17 55  1  0
 18 56  1  0
 19 57  1  0
 19 58  1  0
 20 59  1  0
 20 60  1  0
 21 61  1  0
 21 62  1  0
 22 63  1  0
 22 64  1  0
 23 65  1  0
 24 66  1  0
 24 67  1  0
 25 68  1  0
 25 69  1  0
 25 70  1  0
 26 71  1  0
 27 72  1  0
M  CHG  1  14   1
M  END
>  <UniqueID>  (38) 
35

>  <SMILES>  (38) 
CCCN(CCC)Cc1ccc(C[NH2+]CCCNCCCCNCC)cc1

>  <Energy>  (38) 
57.48004491640421

>  <Genealogy>  (38) 
CCCN(CCC)Cc1ccc(C[NH2+]CCCNCCCCNCC)cc1 (protonated)
CCCN(CCC)Cc1ccc(C[NH2+]CCCNCCCCNCC)cc1 (3D coordinates assigned)
CCCN(CCC)Cc1ccc(C[NH2+]CCCNCCCCNCC)cc1 (optimized conformer: 57.48004491640421 kcal/mol)

>  <smiles>  (38) 
CCCN(CCC)Cc1ccc(CNCCCNCCCCNCC)cc1

>  <score_type>  (38) 
oracle

>  <origin>  (38) 
adg

>  <m_score__min__energy>  (38) 
-6.4100000000000001

>  <m_primary>  (38) 
energy

$$$$
38:0
     RDKit          3D

 59 59  0  0  0  0  0  0  0  0999 V2000
   56.7205   32.0119   45.7173 H   0  0  0  0  0  0  0  0  0  0  0  0
   57.2970   31.5540   44.9000 C   0  0  0  0  0  0  0  0  0  0  0  0
   58.1617   30.9990   45.2928 H   0  0  0  0  0  0  0  0  0  0  0  0
   56.4120   30.5860   44.1600 C   0  0  0  0  0  0  0  0  0  0  0  0
   55.4870   30.0410   44.7430 O   0  0  0  0  0  0  0  0  0  0  0  0
   56.7260   30.2100   42.7380 C   0  0  0  0  0  0  0  0  0  0  0  0
   55.8645   29.6827   42.3025 H   0  0  0  0  0  0  0  0  0  0  0  0
   57.6106   29.5563   42.7256 H   0  0  0  0  0  0  0  0  0  0  0  0
   57.0200   31.4660   41.9140 C   0  0  0  0  0  0  0  0  0  0  0  0
   56.1074   32.0773   41.8560 H   0  0  0  0  0  0  0  0  0  0  0  0
   57.3455   31.1528   40.9110 H   0  0  0  0  0  0  0  0  0  0  0  0
   58.1410   32.3020   42.5450 C   0  0  0  0  0  0  0  0  0  0  0  0
   58.2633   33.2330   41.9720 H   0  0  0  0  0  0  0  0  0  0  0  0
   59.0720   31.7165   42.5258 H   0  0  0  0  0  0  0  0  0  0  0  0
   57.8090   32.6450   43.9900 C   0  0  0  0  0  0  0  0  0  0  0  0
   58.1090   33.7860   44.5240 N   0  0  0  0  0  0  0  0  0  0  0  0
   57.7280   34.2160   45.8520 C   0  0  0  0  0  0  0  0  0  0  0  0
   56.6941   33.9015   46.0570 H   0  0  0  0  0  0  0  0  0  0  0  0
   57.7968   35.3119   45.9172 H   0  0  0  0  0  0  0  0  0  0  0  0
   58.6690   33.5820   46.8820 C   0  0  0  0  0  0  0  0  0  0  0  0
   58.6064   32.4877   46.7891 H   0  0  0  0  0  0  0  0  0  0  0  0
   58.3509   33.9248   47.8777 H   0  0  0  0  0  0  0  0  0  0  0  0
   60.1340   34.0090   46.6900 C   0  0  0  0  0  0  0  0  0  0  0  0
   60.1536   35.0515   46.3396 H   0  0  0  0  0  0  0  0  0  0  0  0
   60.5860   33.3246   45.9569 H   0  0  0  0  0  0  0  0  0  0  0  0
   60.9570   33.9100   47.9870 C   0  0  0  0  0  0  0  0  0  0  0  0
   60.4283   33.2519   48.6922 H   0  0  0  0  0  0  0  0  0  0  0  0
   61.0690   34.9261   48.3932 H   0  0  0  0  0  0  0  0  0  0  0  0
   62.3700   33.3410   47.7410 C   0  0  0  0  0  0  0  0  0  0  0  0
   62.9529   33.4487   48.6676 H   0  0  0  0  0  0  0  0  0  0  0  0
   62.8011   33.9079   46.9027 H   0  0  0  0  0  0  0  0  0  0  0  0
   62.3820   31.8560   47.3300 C   0  0  0  0  0  0  0  0  0  0  0  0
   63.3850   31.4538   47.5353 H   0  0  0  0  0  0  0  0  0  0  0  0
   62.1093   31.8310   46.2646 H   0  0  0  0  0  0  0  0  0  0  0  0
   61.3550   30.9690   48.0560 C   0  0  0  0  0  0  0  0  0  0  0  0
   60.8987   31.5529   48.8689 H   0  0  0  0  0  0  0  0  0  0  0  0
   61.8902   30.0871   48.4378 H   0  0  0  0  0  0  0  0  0  0  0  0
   60.2380   30.4660   47.1250 C   0  0  0  0  0  0  0  0  0  0  0  0
   59.6944   31.3346   46.7250 H   0  0  0  0  0  0  0  0  0  0  0  0
   59.5789   29.8134   47.7163 H   0  0  0  0  0  0  0  0  0  0  0  0
   60.7800   29.6390   45.9480 C   0  0  0  0  0  0  0  0  0  0  0  0
   61.3342   28.7775   46.3488 H   0  0  0  0  0  0  0  0  0  0  0  0
   61.4279   30.2967   45.3500 H   0  0  0  0  0  0  0  0  0  0  0  0
   59.6620   29.1190   45.0220 C   0  0  0  0  0  0  0  0  0  0  0  0
   60.0635   28.3010   44.4058 H   0  0  0  0  0  0  0  0  0  0  0  0
   59.3211   29.9582   44.3978 H   0  0  0  0  0  0  0  0  0  0  0  0
   58.4510   28.5950   45.8150 C   0  0  0  0  0  0  0  0  0  0  0  0
   57.8022   29.4468   46.0671 H   0  0  0  0  0  0  0  0  0  0  0  0
   58.8390   28.0935   46.7139 H   0  0  0  0  0  0  0  0  0  0  0  0
   57.6170   27.5560   45.0300 C   0  0  0  0  0  0  0  0  0  0  0  0
   58.2882   27.0144   44.3472 H   0  0  0  0  0  0  0  0  0  0  0  0
   56.8334   28.1091   44.4914 H   0  0  0  0  0  0  0  0  0  0  0  0
   56.9090   26.5300   45.9340 C   0  0  0  0  0  0  0  0  0  0  0  0
   56.5834   25.6815   45.3143 H   0  0  0  0  0  0  0  0  0  0  0  0
   56.0577   27.0396   46.4089 H   0  0  0  0  0  0  0  0  0  0  0  0
   57.8090   26.0020   47.0500 C   0  0  0  0  0  0  0  0  0  0  0  0
   57.3716   26.2586   48.0261 H   0  0  0  0  0  0  0  0  0  0  0  0
   57.8972   24.9089   46.9637 H   0  0  0  0  0  0  0  0  0  0  0  0
   58.8062   26.4583   46.9637 H   0  0  0  0  0  0  0  0  0  0  0  0
  1  2  1  0
  2  3  1  0
  2  4  1  0
  4  5  2  0
  4  6  1  0
  6  7  1  0
  6  8  1  0
  6  9  1  0
  9 10  1  0
  9 11  1  0
  9 12  1  0
 12 13  1  0
 12 14  1  0
 12 15  1  0
 15 16  2  0
 16 17  1  0
 17 18  1  0
 17 19  1  0
 17 20  1  0
 20 21  1  0
 20 22  1  0
 20 23  1  0
 23 24  1  0
 23 25  1  0
 23 26  1  0
 26 27  1  0
 26 28  1  0
 26 29  1  0
 29 30  1  0
 29 31  1  0
 29 32  1  0
 32 33  1  0
 32 34  1  0
 32 35  1  0
 35 36  1  0
 35 37  1  0
 35 38  1  0
 38 39  1  0
 38 40  1  0
 38 41  1  0
 41 42  1  0
 41 43  1  0
 41 44  1  0
 44 45  1  0
 44 46  1  0
 44 47  1  0
 47 48  1  0
 47 49  1  0
 47 50  1  0
 50 51  1  0
 50 52  1  0
 50 53  1  0
 53 54  1  0
 53 55  1  0
 53 56  1  0
 56 57  1  0
 56 58  1  0
 56 59  1  0
 15  2  1  0
M  END
>  <UniqueID>  (39) 
36

>  <SMILES>  (39) 
CCCCCCCCCCCCCC/N=C1\CCCC(=O)C1

>  <Energy>  (39) 
35.86105878135776

>  <Genealogy>  (39) 
CCCCCCCCCCCCCC/N=C1\CCCC(=O)C1 (cis-trans isomerization)
CCCCCCCCCCCCCC/N=C1\CCCC(=O)C1 (3D coordinates assigned)
CCCCCCCCCCCCCC/N=C1\CCCC(=O)C1 (nonaromatic ring conformer: 35.86105878135776 kcal/mol)

>  <smiles>  (39) 
CCCCCCCCCCCCCCN=C1CCCC(=O)C1

>  <score_type>  (39) 
oracle

>  <origin>  (39) 
adg

>  <m_score__min__energy>  (39) 
-7.0800000000000001

>  <m_primary>  (39) 
energy

$$$$
39:0
     RDKit          3D

 57 58  0  0  0  0  0  0  0  0999 V2000
   64.4080   33.1650   48.8810 C   0  0  0  0  0  0  0  0  0  0  0  0
   64.1400   33.2180   50.3860 C   0  0  0  0  0  0  0  0  0  0  0  0
   62.7590   32.6600   50.7930 C   0  0  2  0  0  0  0  0  0  0  0  0
   62.8780   31.4060   51.6700 C   0  0  0  0  0  0  0  0  0  0  0  0
   61.9380   32.3810   49.6110 N   0  0  0  0  0  0  0  0  0  0  0  0
   61.0600   33.3640   49.0360 C   0  0  0  0  0  0  0  0  0  0  0  0
   61.0290   34.5270   49.5250 O   0  0  0  0  0  0  0  0  0  0  0  0
   60.2020   33.0150   47.8220 C   0  0  0  0  0  0  0  0  0  0  0  0
   59.6410   34.3190   47.1580 C   0  0  0  0  0  0  0  0  0  0  0  0
   59.0800   34.1910   45.7110 C   0  0  0  0  0  0  0  0  0  0  0  0
   57.5860   33.8380   45.7690 C   0  0  0  0  0  0  0  0  0  0  0  0
   59.2640   35.4750   44.8860 C   0  0  0  0  0  0  0  0  0  0  0  0
   58.9960   32.1610   48.3440 C   0  0  0  0  0  0  0  0  0  0  0  0
   58.5130   31.1070   47.3400 C   0  0  0  0  0  0  0  0  0  0  0  0
   59.6150   30.1990   46.9840 N   0  0  0  0  0  0  0  0  0  0  0  0
   59.3610   28.8280   46.6160 C   0  0  0  0  0  0  0  0  0  0  0  0
   60.2940   27.9810   46.6870 O   0  0  0  0  0  0  0  0  0  0  0  0
   57.9900   28.3700   46.1930 C   0  0  0  0  0  0  0  0  0  0  0  0
   57.4220   29.2800   45.2020 N   0  0  0  0  0  0  0  0  0  0  0  0
   58.0840   29.8420   44.1740 C   0  0  0  0  0  0  0  0  0  0  0  0
   57.1870   30.5870   43.4390 C   0  0  0  0  0  0  0  0  0  0  0  0
   55.9770   30.4210   44.0860 C   0  0  0  0  0  0  0  0  0  0  0  0
   56.1430   29.6150   45.1540 N   0  0  0  0  0  0  0  0  0  0  0  0
   60.9990   30.6970   47.0130 C   0  0  0  0  0  0  0  0  0  0  0  0
   61.0230   32.2070   46.7580 C   0  0  0  0  0  0  0  0  0  0  0  0
   65.4733   32.9543   48.7055 H   0  0  0  0  0  0  0  0  0  0  0  0
   63.7975   32.3702   48.4276 H   0  0  0  0  0  0  0  0  0  0  0  0
   64.1460   34.1324   48.4276 H   0  0  0  0  0  0  0  0  0  0  0  0
   64.9162   32.6298   50.8974 H   0  0  0  0  0  0  0  0  0  0  0  0
   64.1555   34.2787   50.6771 H   0  0  0  0  0  0  0  0  0  0  0  0
   62.2633   33.4374   51.3929 H   0  0  0  0  0  0  0  0  0  0  0  0
   62.8504   31.6964   52.7306 H   0  0  0  0  0  0  0  0  0  0  0  0
   62.0403   30.7266   51.4539 H   0  0  0  0  0  0  0  0  0  0  0  0
   63.8285   30.8963   51.4539 H   0  0  0  0  0  0  0  0  0  0  0  0
   62.0070   31.4400   49.1620 H   0  0  0  0  0  0  0  0  0  0  0  0
   58.8278   34.6933   47.7972 H   0  0  0  0  0  0  0  0  0  0  0  0
   60.5081   34.9901   47.0697 H   0  0  0  0  0  0  0  0  0  0  0  0
   59.6509   33.3939   45.2122 H   0  0  0  0  0  0  0  0  0  0  0  0
   57.2675   33.7628   46.8192 H   0  0  0  0  0  0  0  0  0  0  0  0
   57.0038   34.6233   45.2647 H   0  0  0  0  0  0  0  0  0  0  0  0
   57.4169   32.8752   45.2647 H   0  0  0  0  0  0  0  0  0  0  0  0
   59.3868   36.3322   45.5643 H   0  0  0  0  0  0  0  0  0  0  0  0
   60.1575   35.3784   44.2517 H   0  0  0  0  0  0  0  0  0  0  0  0
   58.3793   35.6332   44.2517 H   0  0  0  0  0  0  0  0  0  0  0  0
   59.3063   31.6473   49.2659 H   0  0  0  0  0  0  0  0  0  0  0  0
   58.1586   32.8537   48.5141 H   0  0  0  0  0  0  0  0  0  0  0  0
   57.6945   30.5257   47.7895 H   0  0  0  0  0  0  0  0  0  0  0  0
   58.1590   31.6144   46.4305 H   0  0  0  0  0  0  0  0  0  0  0  0
   58.0648   27.3630   45.7568 H   0  0  0  0  0  0  0  0  0  0  0  0
   57.3345   28.3570   47.0763 H   0  0  0  0  0  0  0  0  0  0  0  0
   59.1563   29.7267   43.9575 H   0  0  0  0  0  0  0  0  0  0  0  0
   57.3895   31.1824   42.5365 H   0  0  0  0  0  0  0  0  0  0  0  0
   55.0247   30.8766   43.7770 H   0  0  0  0  0  0  0  0  0  0  0  0
   61.4399   30.4879   47.9989 H   0  0  0  0  0  0  0  0  0  0  0  0
   61.5792   30.1910   46.2273 H   0  0  0  0  0  0  0  0  0  0  0  0
   62.0674   32.5515   46.7840 H   0  0  0  0  0  0  0  0  0  0  0  0
   60.5595   32.3850   45.7764 H   0  0  0  0  0  0  0  0  0  0  0  0
  1  2  1  0
  2  3  1  0
  3  4  1  0
  3  5  1  0
  5  6  1  0
  6  7  2  0
  6  8  1  0
  8  9  1  0
  9 10  1  0
 10 11  1  0
 10 12  1  0
  8 13  1  0
 13 14  1  0
 14 15  1  0
 15 16  1  0
 16 17  2  0
 16 18  1  0
 18 19  1  0
 19 20  1  0
 20 21  2  0
 21 22  1  0
 22 23  2  0
 15 24  1  0
 24 25  1  0
 25  8  1  0
 23 19  1  0
  1 26  1  0
  1 27  1  0
  1 28  1  0
  2 29  1  0
  2 30  1  0
  3 31  1  1
  4 32  1  0
  4 33  1  0
  4 34  1  0
  5 35  1  0
  9 36  1  0
  9 37  1  0
 10 38  1  0
 11 39  1  0
 11 40  1  0
 11 41  1  0
 12 42  1  0
 12 43  1  0
 12 44  1  0
 13 45  1  0
 13 46  1  0
 14 47  1  0
 14 48  1  0
 18 49  1  0
 18 50  1  0
 20 51  1  0
 21 52  1  0
 22 53  1  0
 24 54  1  0
 24 55  1  0
 25 56  1  0
 25 57  1  0
M  END
>  <UniqueID>  (40) 
37

>  <SMILES>  (40) 
CC[C@H](C)NC(=O)C1(CC(C)C)CCN(C(=O)Cn2cccn2)CC1

>  <Energy>  (40) 
80.1379288173473

>  <Genealogy>  (40) 
CC[C@H](C)NC(=O)C1(CC(C)C)CCN(C(=O)Cn2cccn2)CC1 (chirality)
CC[C@H](C)NC(=O)C1(CC(C)C)CCN(C(=O)Cn2cccn2)CC1 (3D coordinates assigned)
CC[C@H](C)NC(=O)C1(CC(C)C)CCN(C(=O)Cn2cccn2)CC1 (nonaromatic ring conformer: 80.1379288173473 kcal/mol)

>  <smiles>  (40) 
CCC(C)NC(=O)C1(CC(C)C)CCN(C(=O)Cn2cccn2)CC1

>  <score_type>  (40) 
oracle

>  <origin>  (40) 
adg

>  <m_score__min__energy>  (40) 
-7.4299999999999997

>  <m_primary>  (40) 
energy

$$$$
40:0
     RDKit          3D

 48 51  0  0  0  0  0  0  0  0999 V2000
   59.6530   34.7750   48.2890 C   0  0  0  0  0  0  0  0  0  0  0  0
   59.2030   33.4390   47.8140 C   0  0  0  0  0  0  0  0  0  0  0  0
   58.6450   33.1830   46.5750 C   0  0  0  0  0  0  0  0  0  0  0  0
   58.3640   31.8290   46.5190 C   0  0  0  0  0  0  0  0  0  0  0  0
   58.7370   31.2950   47.6720 N   0  0  0  0  0  0  0  0  0  0  0  0
   59.2360   32.2500   48.4440 N   0  0  0  0  0  0  0  0  0  0  0  0
   59.7600   32.0560   49.8050 C   0  0  0  0  0  0  0  0  0  0  0  0
   61.2580   32.2330   49.8440 C   0  0  0  0  0  0  0  0  0  0  0  0
   61.8020   32.6940   48.5830 N   0  0  0  0  0  0  0  0  0  0  0  0
   62.3100   31.5390   47.8780 C   0  0  0  0  0  0  0  0  0  0  0  0
   63.5830   31.8790   47.1830 C   0  0  0  0  0  0  0  0  0  0  0  0
   63.4230   33.0740   46.4870 O   0  0  0  0  0  0  0  0  0  0  0  0
   63.3870   34.1340   47.3970 C   0  0  0  0  0  0  0  0  0  0  0  0
   62.8480   33.6560   48.7460 C   0  0  0  0  0  0  0  0  0  0  0  0
   57.7600   31.0640   45.4050 C   0  0  0  0  0  0  0  0  0  0  0  0
   57.3840   29.8280   45.7980 N   0  0  0  0  0  0  0  0  0  0  0  0
   56.8120   28.9820   44.9170 C   0  0  0  0  0  0  0  0  0  0  0  0
   56.4460   27.7930   45.2810 N   0  0  0  0  0  0  0  0  0  0  0  0
   56.6380   29.4100   43.6730 N   0  0  0  0  0  0  0  0  0  0  0  0
   56.9930   30.6290   43.2280 C   0  0  0  0  0  0  0  0  0  0  0  0
   57.5830   31.5170   44.1110 C   0  0  0  0  0  0  0  0  0  0  0  0
   57.8840   32.7720   43.4190 C   0  0  0  0  0  0  0  0  0  0  0  0
   58.7410   33.7400   44.1390 C   0  0  0  0  0  0  0  0  0  0  0  0
   58.3830   34.1550   45.4930 C   0  0  0  0  0  0  0  0  0  0  0  0
   59.6582   34.7905   49.3889 H   0  0  0  0  0  0  0  0  0  0  0  0
   60.6679   34.9745   47.9147 H   0  0  0  0  0  0  0  0  0  0  0  0
   58.9656   35.5479   47.9147 H   0  0  0  0  0  0  0  0  0  0  0  0
   59.2942   32.7919   50.4770 H   0  0  0  0  0  0  0  0  0  0  0  0
   59.5221   31.0314   50.1268 H   0  0  0  0  0  0  0  0  0  0  0  0
   61.5047   32.9691   50.6233 H   0  0  0  0  0  0  0  0  0  0  0  0
   61.7022   31.2494   50.0564 H   0  0  0  0  0  0  0  0  0  0  0  0
   62.4941   30.7267   48.5966 H   0  0  0  0  0  0  0  0  0  0  0  0
   61.5680   31.2192   47.1316 H   0  0  0  0  0  0  0  0  0  0  0  0
   64.3878   31.9907   47.9245 H   0  0  0  0  0  0  0  0  0  0  0  0
   63.8443   31.0751   46.4791 H   0  0  0  0  0  0  0  0  0  0  0  0
   64.4039   34.5310   47.5324 H   0  0  0  0  0  0  0  0  0  0  0  0
   62.7251   34.9203   47.0050 H   0  0  0  0  0  0  0  0  0  0  0  0
   63.6691   33.1976   49.3166 H   0  0  0  0  0  0  0  0  0  0  0  0
   62.4366   34.5251   49.2801 H   0  0  0  0  0  0  0  0  0  0  0  0
   57.5510   29.5460   46.8110 H   0  0  0  0  0  0  0  0  0  0  0  0
   56.2790   27.0540   44.5630 H   0  0  0  0  0  0  0  0  0  0  0  0
   56.8174   30.9152   42.1805 H   0  0  0  0  0  0  0  0  0  0  0  0
   58.3880   32.5191   42.4745 H   0  0  0  0  0  0  0  0  0  0  0  0
   56.9138   33.2769   43.3018 H   0  0  0  0  0  0  0  0  0  0  0  0
   59.7456   33.2957   44.1965 H   0  0  0  0  0  0  0  0  0  0  0  0
   58.6347   34.6636   43.5511 H   0  0  0  0  0  0  0  0  0  0  0  0
   58.9492   35.0698   45.7221 H   0  0  0  0  0  0  0  0  0  0  0  0
   57.2906   34.2834   45.4773 H   0  0  0  0  0  0  0  0  0  0  0  0
  1  2  1  0
  2  3  2  0
  3  4  1  0
  4  5  2  0
  5  6  1  0
  6  7  1  0
  7  8  1  0
  8  9  1  0
  9 10  1  0
 10 11  1  0
 11 12  1  0
 12 13  1  0
 13 14  1  0
  4 15  1  0
 15 16  1  0
 16 17  1  0
 17 18  2  3
 17 19  1  0
 19 20  2  0
 20 21  1  0
 21 22  1  0
 22 23  1  0
 23 24  1  0
  6  2  1  0
 14  9  1  0
 21 15  2  0
 24  3  1  0
  1 25  1  0
  1 26  1  0
  1 27  1  0
  7 28  1  0
  7 29  1  0
  8 30  1  0
  8 31  1  0
 10 32  1  0
 10 33  1  0
 11 34  1  0
 11 35  1  0
 13 36  1  0
 13 37  1  0
 14 38  1  0
 14 39  1  0
 16 40  1  0
 18 41  1  0
 20 42  1  0
 22 43  1  0
 22 44  1  0
 23 45  1  0
 23 46  1  0
 24 47  1  0
 24 48  1  0
M  END
>  <smiles>  (41) 
Cc1c2c(nn1CCN1CCOCC1)-c1[nH]c(=N)ncc1CCC2

>  <score_type>  (41) 
oracle

>  <origin>  (41) 
adg

>  <m_score__min__energy>  (41) 
-6.9100000000000001

>  <m_primary>  (41) 
energy

$$$$
41:0
     RDKit          3D

 45 47  0  0  0  0  0  0  0  0999 V2000
   60.7450   26.7920   48.9810 C   0  0  0  0  0  0  0  0  0  0  0  0
   59.9460   27.8670   48.3030 C   0  0  0  0  0  0  0  0  0  0  0  0
   60.0630   29.1480   48.7430 N   0  0  0  0  0  0  0  0  0  0  0  0
   59.3640   30.1610   48.1690 C   0  0  0  0  0  0  0  0  0  0  0  0
   59.5480   31.5660   48.6500 C   0  0  0  0  0  0  0  0  0  0  0  0
   60.8960   32.0800   48.2260 C   0  0  0  0  0  0  0  0  0  0  0  0
   61.3140   33.3680   48.6040 C   0  0  0  0  0  0  0  0  0  0  0  0
   62.5820   33.8320   48.2380 C   0  0  0  0  0  0  0  0  0  0  0  0
   63.4420   33.0130   47.5020 C   0  0  0  0  0  0  0  0  0  0  0  0
   63.0380   31.7260   47.1350 C   0  0  0  0  0  0  0  0  0  0  0  0
   61.7710   31.2580   47.4980 C   0  0  0  0  0  0  0  0  0  0  0  0
   58.5400   29.9060   47.1200 N   0  0  0  0  0  0  0  0  0  0  0  0
   58.3780   28.6460   46.6400 C   0  0  0  0  0  0  0  0  0  0  0  0
   57.2610   28.3900   45.2560 S   0  0  0  0  0  0  0  0  0  0  0  0
   58.0290   29.7000   44.2430 C   0  0  0  0  0  0  0  0  0  0  0  0
   56.9800   30.7110   43.7990 C   0  0  0  0  0  0  0  0  0  0  0  0
   56.6850   31.6040   44.8720 O   0  0  0  0  0  0  0  0  0  0  0  0
   57.5320   32.6350   45.3010 C   0  0  0  0  0  0  0  0  0  0  0  0
   58.4360   33.1810   44.3800 C   0  0  0  0  0  0  0  0  0  0  0  0
   59.3020   34.2110   44.7610 C   0  0  0  0  0  0  0  0  0  0  0  0
   59.2720   34.7030   46.0680 C   0  0  0  0  0  0  0  0  0  0  0  0
   58.3750   34.1670   46.9960 C   0  0  0  0  0  0  0  0  0  0  0  0
   57.5060   33.1370   46.6180 C   0  0  0  0  0  0  0  0  0  0  0  0
   59.0860   27.5810   47.2250 C   0  0  0  0  0  0  0  0  0  0  0  0
   58.9320   26.2310   46.7310 C   0  0  0  0  0  0  0  0  0  0  0  0
   58.8080   25.1500   46.3370 N   0  0  0  0  0  0  0  0  0  0  0  0
   60.6607   26.9054   50.0719 H   0  0  0  0  0  0  0  0  0  0  0  0
   60.3590   25.8057   48.6839 H   0  0  0  0  0  0  0  0  0  0  0  0
   61.8007   26.8772   48.6839 H   0  0  0  0  0  0  0  0  0  0  0  0
   58.7624   32.2046   48.2198 H   0  0  0  0  0  0  0  0  0  0  0  0
   59.4825   31.5843   49.7479 H   0  0  0  0  0  0  0  0  0  0  0  0
   60.6420   34.0129   49.1893 H   0  0  0  0  0  0  0  0  0  0  0  0
   62.9024   34.8430   48.5301 H   0  0  0  0  0  0  0  0  0  0  0  0
   64.4371   33.3809   47.2113 H   0  0  0  0  0  0  0  0  0  0  0  0
   63.7178   31.0803   46.5597 H   0  0  0  0  0  0  0  0  0  0  0  0
   61.4590   30.2426   47.2122 H   0  0  0  0  0  0  0  0  0  0  0  0
   58.7987   30.2137   44.8377 H   0  0  0  0  0  0  0  0  0  0  0  0
   58.4831   29.2421   43.3519 H   0  0  0  0  0  0  0  0  0  0  0  0
   57.3645   31.2839   42.9423 H   0  0  0  0  0  0  0  0  0  0  0  0
   56.0629   30.1784   43.5070 H   0  0  0  0  0  0  0  0  0  0  0  0
   58.4647   32.7967   43.3497 H   0  0  0  0  0  0  0  0  0  0  0  0
   60.0074   34.6341   44.0307 H   0  0  0  0  0  0  0  0  0  0  0  0
   59.9544   35.5123   46.3668 H   0  0  0  0  0  0  0  0  0  0  0  0
   58.3519   34.5552   48.0250 H   0  0  0  0  0  0  0  0  0  0  0  0
   56.8007   32.7180   47.3508 H   0  0  0  0  0  0  0  0  0  0  0  0
  1  2  1  0
  2  3  2  0
  3  4  1  0
  4  5  1  0
  5  6  1  0
  6  7  2  0
  7  8  1  0
  8  9  2  0
  9 10  1  0
 10 11  2  0
  4 12  2  0
 12 13  1  0
 13 14  1  0
 14 15  1  0
 15 16  1  0
 16 17  1  0
 17 18  1  0
 18 19  2  0
 19 20  1  0
 20 21  2  0
 21 22  1  0
 22 23  2  0
 13 24  2  0
 24 25  1  0
 25 26  3  0
 24  2  1  0
 11  6  1  0
 23 18  1  0
  1 27  1  0
  1 28  1  0
  1 29  1  0
  5 30  1  0
  5 31  1  0
  7 32  1  0
  8 33  1  0
  9 34  1  0
 10 35  1  0
 11 36  1  0
 15 37  1  0
 15 38  1  0
 16 39  1  0
 16 40  1  0
 19 41  1  0
 20 42  1  0
 21 43  1  0
 22 44  1  0
 23 45  1  0
M  END
>  <UniqueID>  (42) 
38

>  <SMILES>  (42) 
Cc1nc(Cc2ccccc2)nc(SCCOc2ccccc2)c1C#N

>  <Energy>  (42) 
39.54164667209116

>  <Genealogy>  (42) 
Cc1nc(Cc2ccccc2)nc(SCCOc2ccccc2)c1C#N (3D coordinates assigned)
Cc1nc(Cc2ccccc2)nc(SCCOc2ccccc2)c1C#N (optimized conformer: 39.54164667209116 kcal/mol)

>  <smiles>  (42) 
Cc1nc(Cc2ccccc2)nc(SCCOc2ccccc2)c1C#N

>  <score_type>  (42) 
oracle

>  <origin>  (42) 
adg

>  <m_score__min__energy>  (42) 
-7.9000000000000004

>  <m_primary>  (42) 
energy

$$$$
42:0
     RDKit          3D

 39 39  0  0  0  0  0  0  0  0999 V2000
   65.7520   32.7280   49.8530 C   0  0  0  0  0  0  0  0  0  0  0  0
   64.2760   32.8350   49.4390 C   0  0  0  0  0  0  0  0  0  0  0  0
   64.0120   32.6170   47.9890 N   0  0  0  0  0  0  0  0  0  0  0  0
   62.9060   31.6570   47.7310 C   0  0  0  0  0  0  0  0  0  0  0  0
   62.1950   31.1960   49.0100 C   0  0  0  0  0  0  0  0  0  0  0  0
   63.7550   33.8760   47.2380 C   0  0  0  0  0  0  0  0  0  0  0  0
   62.4760   33.8380   46.3710 C   0  0  0  0  0  0  0  0  0  0  0  0
   61.2850   34.2240   47.1340 N   0  0  0  0  0  0  0  0  0  0  0  0
   59.9290   34.0870   46.6570 C   0  0  0  0  0  0  0  0  0  0  0  0
   59.5870   34.4340   45.3330 C   0  0  0  0  0  0  0  0  0  0  0  0
   58.2750   34.2970   44.8770 C   0  0  0  0  0  0  0  0  0  0  0  0
   57.2830   33.8140   45.7300 C   0  0  0  0  0  0  0  0  0  0  0  0
   57.6010   33.4670   47.0440 C   0  0  0  0  0  0  0  0  0  0  0  0
   58.9140   33.6040   47.5160 C   0  0  0  0  0  0  0  0  0  0  0  0
   59.2640   33.0980   49.2080 S   0  0  0  0  0  0  0  0  0  0  0  0
   58.9070   31.3430   48.8860 C   0  0  0  0  0  0  0  0  0  0  0  0
   65.8255   32.7227   50.9505 H   0  0  0  0  0  0  0  0  0  0  0  0
   66.1786   31.7966   49.4524 H   0  0  0  0  0  0  0  0  0  0  0  0
   66.3085   33.5882   49.4524 H   0  0  0  0  0  0  0  0  0  0  0  0
   63.7070   32.0837   50.0063 H   0  0  0  0  0  0  0  0  0  0  0  0
   63.9699   33.8692   49.6554 H   0  0  0  0  0  0  0  0  0  0  0  0
   64.8790   32.1920   47.5820 H   0  0  0  0  0  0  0  0  0  0  0  0
   62.1675   32.1424   47.0760 H   0  0  0  0  0  0  0  0  0  0  0  0
   63.3495   30.7652   47.2641 H   0  0  0  0  0  0  0  0  0  0  0  0
   62.7505   31.5562   49.8885 H   0  0  0  0  0  0  0  0  0  0  0  0
   61.1737   31.6042   49.0293 H   0  0  0  0  0  0  0  0  0  0  0  0
   62.1510   30.0970   49.0293 H   0  0  0  0  0  0  0  0  0  0  0  0
   63.6579   34.6979   47.9626 H   0  0  0  0  0  0  0  0  0  0  0  0
   64.6025   34.0167   46.5510 H   0  0  0  0  0  0  0  0  0  0  0  0
   62.5980   34.5329   45.5270 H   0  0  0  0  0  0  0  0  0  0  0  0
   62.3345   32.8057   46.0184 H   0  0  0  0  0  0  0  0  0  0  0  0
   61.4510   34.6490   48.0730 H   0  0  0  0  0  0  0  0  0  0  0  0
   60.3624   34.8165   44.6530 H   0  0  0  0  0  0  0  0  0  0  0  0
   58.0227   34.5708   43.8419 H   0  0  0  0  0  0  0  0  0  0  0  0
   56.2501   33.7065   45.3673 H   0  0  0  0  0  0  0  0  0  0  0  0
   56.8167   33.0837   47.7133 H   0  0  0  0  0  0  0  0  0  0  0  0
   58.7985   30.8095   49.8418 H   0  0  0  0  0  0  0  0  0  0  0  0
   57.9732   31.2583   48.3108 H   0  0  0  0  0  0  0  0  0  0  0  0
   59.7335   30.9002   48.3108 H   0  0  0  0  0  0  0  0  0  0  0  0
  1  2  1  0
  2  3  1  0
  3  4  1  0
  4  5  1  0
  3  6  1  0
  6  7  1  0
  7  8  1  0
  8  9  1  0
  9 10  2  0
 10 11  1  0
 11 12  2  0
 12 13  1  0
 13 14  2  0
 14 15  1  0
 15 16  1  0
 14  9  1  0
  1 17  1  0
  1 18  1  0
  1 19  1  0
  2 20  1  0
  2 21  1  0
  3 22  1  0
  4 23  1  0
  4 24  1  0
  5 25  1  0
  5 26  1  0
  5 27  1  0
  6 28  1  0
  6 29  1  0
  7 30  1  0
  7 31  1  0
  8 32  1  0
 10 33  1  0
 11 34  1  0
 12 35  1  0
 13 36  1  0
 16 37  1  0
 16 38  1  0
 16 39  1  0
M  CHG  1   3   1
M  END
>  <UniqueID>  (43) 
39

>  <SMILES>  (43) 
CC[NH+](CC)CCNc1ccccc1SC

>  <Energy>  (43) 
36.10104783693154

>  <Genealogy>  (43) 
CC[NH+](CC)CCNc1ccccc1SC (protonated)
CC[NH+](CC)CCNc1ccccc1SC (3D coordinates assigned)
CC[NH+](CC)CCNc1ccccc1SC (optimized conformer: 36.10104783693154 kcal/mol)

>  <smiles>  (43) 
CCN(CC)CCNc1ccccc1SC

>  <score_type>  (43) 
oracle

>  <origin>  (43) 
adg

>  <m_score__min__energy>  (43) 
-3.9399999999999999

>  <m_primary>  (43) 
energy

$$$$
43:0
     RDKit          3D

 51 53  0  0  0  0  0  0  0  0999 V2000
   54.3400   23.4510   45.5800 C   0  0  0  0  0  0  0  0  0  0  0  0
   54.8210   24.2920   46.6240 O   0  0  0  0  0  0  0  0  0  0  0  0
   55.9030   25.1760   46.4960 C   0  0  0  0  0  0  0  0  0  0  0  0
   57.2150   24.8120   46.8260 C   0  0  0  0  0  0  0  0  0  0  0  0
   58.2590   25.7290   46.6980 C   0  0  0  0  0  0  0  0  0  0  0  0
   58.0230   27.0580   46.2630 C   0  0  0  0  0  0  0  0  0  0  0  0
   56.7010   27.3920   45.8610 C   0  0  0  0  0  0  0  0  0  0  0  0
   55.6580   26.4580   46.0080 C   0  0  0  0  0  0  0  0  0  0  0  0
   56.4500   28.6410   45.2850 C   0  0  0  0  0  0  0  0  0  0  0  0
   55.1620   28.9690   44.8630 O   0  0  0  0  0  0  0  0  0  0  0  0
   57.5010   29.5380   45.0780 C   0  0  0  0  0  0  0  0  0  0  0  0
   57.2490   30.8410   44.4130 C   0  0  0  0  0  0  0  0  0  0  0  0
   56.2650   30.9650   43.6340 O   0  0  0  0  0  0  0  0  0  0  0  0
   58.1240   31.9540   44.6410 N   0  0  0  0  0  0  0  0  0  0  0  0
   57.7790   33.3030   44.1930 C   0  0  0  0  0  0  0  0  0  0  0  0
   57.4560   34.2230   45.3770 C   0  0  0  0  0  0  0  0  0  0  0  0
   58.3730   33.9610   46.5450 C   0  0  0  0  0  0  0  0  0  0  0  0
   59.5820   34.6660   46.6780 C   0  0  0  0  0  0  0  0  0  0  0  0
   60.4450   34.3900   47.7420 C   0  0  0  0  0  0  0  0  0  0  0  0
   60.1100   33.4110   48.6810 C   0  0  0  0  0  0  0  0  0  0  0  0
   58.9110   32.7040   48.5550 C   0  0  0  0  0  0  0  0  0  0  0  0
   58.0450   32.9760   47.4910 C   0  0  0  0  0  0  0  0  0  0  0  0
   58.7960   29.1860   45.4990 C   0  0  0  0  0  0  0  0  0  0  0  0
   59.7460   29.9780   45.2450 O   0  0  0  0  0  0  0  0  0  0  0  0
   59.0330   28.0080   46.1830 N   0  0  0  0  0  0  0  0  0  0  0  0
   60.3660   27.7720   46.8170 C   0  0  0  0  0  0  0  0  0  0  0  0
   61.0680   26.4960   46.3070 C   0  0  0  0  0  0  0  0  0  0  0  0
   60.2520   27.7820   48.3450 C   0  0  0  0  0  0  0  0  0  0  0  0
   53.8388   22.5746   46.0167 H   0  0  0  0  0  0  0  0  0  0  0  0
   53.6252   24.0103   44.9585 H   0  0  0  0  0  0  0  0  0  0  0  0
   55.1845   23.1185   44.9585 H   0  0  0  0  0  0  0  0  0  0  0  0
   57.4239   23.7949   47.1890 H   0  0  0  0  0  0  0  0  0  0  0  0
   59.2852   25.4148   46.9393 H   0  0  0  0  0  0  0  0  0  0  0  0
   54.6323   26.7451   45.7330 H   0  0  0  0  0  0  0  0  0  0  0  0
   59.0300   31.7840   45.1320 H   0  0  0  0  0  0  0  0  0  0  0  0
   58.6293   33.7229   43.6356 H   0  0  0  0  0  0  0  0  0  0  0  0
   56.8862   33.2367   43.5538 H   0  0  0  0  0  0  0  0  0  0  0  0
   57.5721   35.2696   45.0588 H   0  0  0  0  0  0  0  0  0  0  0  0
   56.4227   34.0242   45.6974 H   0  0  0  0  0  0  0  0  0  0  0  0
   59.8498   35.4380   45.9416 H   0  0  0  0  0  0  0  0  0  0  0  0
   61.3899   34.9446   47.8405 H   0  0  0  0  0  0  0  0  0  0  0  0
   60.7896   33.1968   49.5190 H   0  0  0  0  0  0  0  0  0  0  0  0
   58.6481   31.9325   49.2937 H   0  0  0  0  0  0  0  0  0  0  0  0
   57.1030   32.4162   47.3946 H   0  0  0  0  0  0  0  0  0  0  0  0
   61.0114   28.6085   46.5107 H   0  0  0  0  0  0  0  0  0  0  0  0
   61.4000   25.8925   47.1646 H   0  0  0  0  0  0  0  0  0  0  0  0
   60.3653   25.9100   45.6964 H   0  0  0  0  0  0  0  0  0  0  0  0
   61.9391   26.7759   45.6964 H   0  0  0  0  0  0  0  0  0  0  0  0
   61.2550   27.6940   48.7881 H   0  0  0  0  0  0  0  0  0  0  0  0
   59.7881   28.7243   48.6719 H   0  0  0  0  0  0  0  0  0  0  0  0
   59.6311   26.9349   48.6719 H   0  0  0  0  0  0  0  0  0  0  0  0
  1  2  1  0
  2  3  1  0
  3  4  2  0
  4  5  1  0
  5  6  2  0
  6  7  1  0
  7  8  2  0
  7  9  1  0
  9 10  1  0
  9 11  2  0
 11 12  1  0
 12 13  2  0
 12 14  1  0
 14 15  1  0
 15 16  1  0
 16 17  1  0
 17 18  2  0
 18 19  1  0
 19 20  2  0
 20 21  1  0
 21 22  2  0
 11 23  1  0
 23 24  2  0
 23 25  1  0
 25 26  1  0
 26 27  1  0
 26 28  1  0
  8  3  1  0
 22 17  1  0
 25  6  1  0
  1 29  1  0
  1 30  1  0
  1 31  1  0
  4 32  1  0
  5 33  1  0
  8 34  1  0
 14 35  1  0
 15 36  1  0
 15 37  1  0
 16 38  1  0
 16 39  1  0
 18 40  1  0
 19 41  1  0
 20 42  1  0
 21 43  1  0
 22 44  1  0
 26 45  1  0
 27 46  1  0
 27 47  1  0
 27 48  1  0
 28 49  1  0
 28 50  1  0
 28 51  1  0
M  CHG  1  10  -1
M  END
>  <UniqueID>  (44) 
40

>  <SMILES>  (44) 
COc1ccc2c(c1)c([O-])c(C(=O)NCCc1ccccc1)c(=O)n2C(C)C

>  <Energy>  (44) 
69.19042847395602

>  <Genealogy>  (44) 
COc1ccc2c(c1)c([O-])c(C(=O)NCCc1ccccc1)c(=O)n2C(C)C (protonated)
COc1ccc2c(c1)c([O-])c(C(=O)NCCc1ccccc1)c(=O)n2C(C)C (3D coordinates assigned)
COc1ccc2c(c1)c([O-])c(C(=O)NCCc1ccccc1)c(=O)n2C(C)C (optimized conformer: 69.19042847395602 kcal/mol)

>  <smiles>  (44) 
COc1ccc2c(c1)c(O)c(C(=O)NCCc1ccccc1)c(=O)n2C(C)C

>  <score_type>  (44) 
oracle

>  <origin>  (44) 
adg

>  <m_score__min__energy>  (44) 
-12.050000000000001

>  <m_primary>  (44) 
energy

$$$$
44:0
     RDKit          3D

 50 52  0  0  1  0  0  0  0  0999 V2000
   63.3580   33.4850   46.7440 C   0  0  0  0  0  0  0  0  0  0  0  0
   61.9130   33.8340   47.0260 C   0  0  0  0  0  0  0  0  0  0  0  0
   61.6270   33.6770   48.4380 N   0  0  0  0  0  0  0  0  0  0  0  0
   62.5870   34.4330   49.2310 C   0  0  0  0  0  0  0  0  0  0  0  0
   60.2700   33.9890   48.7900 C   0  0  0  0  0  0  0  0  0  0  0  0
   59.5760   34.9370   47.8760 C   0  0  0  0  0  0  0  0  0  0  0  0
   58.9750   34.4230   46.7520 O   0  0  0  0  0  0  0  0  0  0  0  0
   58.5820   33.1730   46.3960 C   0  0  0  0  0  0  0  0  0  0  0  0
   58.8020   32.0100   47.0860 C   0  0  0  0  0  0  0  0  0  0  0  0
   58.3620   30.7660   46.6480 C   0  0  0  0  0  0  0  0  0  0  0  0
   57.6480   30.6820   45.4280 C   0  0  0  0  0  0  0  0  0  0  0  0
   57.2550   29.5070   44.8620 N   0  0  0  0  0  0  0  0  0  0  0  0
   57.2340   28.3560   45.2800 C   0  0  0  0  0  0  0  0  0  0  0  0
   56.0170   27.7410   45.3910 N   0  0  0  0  0  0  0  0  0  0  0  0
   55.8730   26.4940   45.8430 C   0  0  0  0  0  0  0  0  0  0  0  0
   54.6310   25.8520   45.9640 O   0  0  0  0  0  0  0  0  0  0  0  0
   54.5120   24.4780   45.6100 C   0  0  0  0  0  0  0  0  0  0  0  0
   56.9500   25.7950   46.2090 N   0  0  0  0  0  0  0  0  0  0  0  0
   58.1610   26.3790   46.1080 C   0  0  0  0  0  0  0  0  0  0  0  0
   59.2370   25.6290   46.4870 C   0  0  0  0  0  0  0  0  0  0  0  0
   60.4820   26.1890   46.3910 C   0  0  0  0  0  0  0  0  0  0  0  0
   60.7180   27.4520   45.9410 C   0  0  0  0  0  0  0  0  0  0  0  0
   59.5930   28.2070   45.5560 C   0  0  0  0  0  0  0  0  0  0  0  0
   58.3410   27.6720   45.6420 C   0  0  0  0  0  0  0  0  0  0  0  0
   57.4120   31.8780   44.7020 C   0  0  0  0  0  0  0  0  0  0  0  0
   57.8730   33.0680   45.1900 C   0  0  0  0  0  0  0  0  0  0  0  0
   63.8961   33.3550   47.6946 H   0  0  0  0  0  0  0  0  0  0  0  0
   63.4034   32.5501   46.1662 H   0  0  0  0  0  0  0  0  0  0  0  0
   63.8251   34.2962   46.1662 H   0  0  0  0  0  0  0  0  0  0  0  0
   61.7269   34.8773   46.7313 H   0  0  0  0  0  0  0  0  0  0  0  0
   61.2618   33.1596   46.4506 H   0  0  0  0  0  0  0  0  0  0  0  0
   62.3851   34.2740   50.3006 H   0  0  0  0  0  0  0  0  0  0  0  0
   63.6061   34.0923   48.9956 H   0  0  0  0  0  0  0  0  0  0  0  0
   62.4947   35.5036   48.9956 H   0  0  0  0  0  0  0  0  0  0  0  0
   59.6980   33.0495   48.8029 H   0  0  0  0  0  0  0  0  0  0  0  0
   60.3178   34.4903   49.7679 H   0  0  0  0  0  0  0  0  0  0  0  0
   58.7955   35.4447   48.4617 H   0  0  0  0  0  0  0  0  0  0  0  0
   60.3773   35.5837   47.4891 H   0  0  0  0  0  0  0  0  0  0  0  0
   59.3552   32.0632   48.0353 H   0  0  0  0  0  0  0  0  0  0  0  0
   58.5653   29.8613   47.2398 H   0  0  0  0  0  0  0  0  0  0  0  0
   55.1420   28.2460   45.1160 H   0  0  0  0  0  0  0  0  0  0  0  0
   54.4591   23.8673   46.5234 H   0  0  0  0  0  0  0  0  0  0  0  0
   53.5977   24.3301   45.0166 H   0  0  0  0  0  0  0  0  0  0  0  0
   55.3873   24.1751   45.0166 H   0  0  0  0  0  0  0  0  0  0  0  0
   59.1067   24.6022   46.8595 H   0  0  0  0  0  0  0  0  0  0  0  0
   61.3460   25.5806   46.6965 H   0  0  0  0  0  0  0  0  0  0  0  0
   61.7368   27.8625   45.8811 H   0  0  0  0  0  0  0  0  0  0  0  0
   59.7246   29.2337   45.1839 H   0  0  0  0  0  0  0  0  0  0  0  0
   56.8605   31.8473   43.7507 H   0  0  0  0  0  0  0  0  0  0  0  0
   57.6798   33.9838   44.6120 H   0  0  0  0  0  0  0  0  0  0  0  0
  1  2  1  0
  2  3  1  0
  3  4  1  0
  3  5  1  0
  5  6  1  0
  6  7  1  0
  7  8  1  0
  8  9  2  0
  9 10  1  0
 10 11  2  0
 11 12  1  0
 12 13  2  0
 13 14  1  0
 14 15  1  0
 15 16  1  0
 16 17  1  0
 15 18  2  0
 18 19  1  0
 19 20  2  0
 20 21  1  0
 21 22  2  0
 22 23  1  0
 23 24  2  0
 11 25  1  0
 25 26  2  0
 26  8  1  0
 24 13  1  0
 24 19  1  0
  1 27  1  0
  1 28  1  0
  1 29  1  0
  2 30  1  0
  2 31  1  0
  4 32  1  0
  4 33  1  0
  4 34  1  0
  5 35  1  0
  5 36  1  0
  6 37  1  0
  6 38  1  0
  9 39  1  0
 10 40  1  0
 14 41  1  0
 17 42  1  0
 17 43  1  0
 17 44  1  0
 20 45  1  0
 21 46  1  0
 22 47  1  0
 23 48  1  0
 25 49  1  0
 26 50  1  0
M  END
>  <smiles>  (45) 
CCN(C)CCOc1ccc(N=c2[nH]c(OC)nc3ccccc23)cc1

>  <score_type>  (45) 
oracle

>  <origin>  (45) 
adg

>  <m_score__min__energy>  (45) 
-8.0500000000000007

>  <m_primary>  (45) 
energy

$$$$
