0:0
     RDKit          3D

 44 46  0  0  0  0  0  0  0  0999 V2000
   58.1360   26.9440   42.6910 C   0  0  0  0  0  0  0  0  0  0  0  0
   57.9650   26.8340   44.2050 C   0  0  0  0  0  0  0  0  0  0  0  0
   58.3190   28.1410   44.8940 C   0  0  0  0  0  0  0  0  0  0  0  0
   59.4620   28.2260   45.7520 C   0  0  0  0  0  0  0  0  0  0  0  0
   60.3660   27.0530   46.0020 C   0  0  0  0  0  0  0  0  0  0  0  0
   59.7890   29.4100   46.3450 N   0  0  0  0  0  0  0  0  0  0  0  0
   59.0200   30.4970   46.1280 C   0  0  0  0  0  0  0  0  0  0  0  0
   59.2020   31.7650   46.6190 C   0  0  0  0  0  0  0  0  0  0  0  0
   58.1380   32.4660   46.0590 C   0  0  0  0  0  0  0  0  0  0  0  0
   57.8170   33.9120   46.3050 C   0  0  0  0  0  0  0  0  0  0  0  0
   58.7430   34.5240   47.2700 N   0  0  0  0  0  0  0  0  0  0  0  0
   59.9940   34.9500   46.6310 C   0  0  0  0  0  0  0  0  0  0  0  0
   61.1530   34.2220   47.2530 C   0  0  0  0  0  0  0  0  0  0  0  0
   62.2040   33.7510   46.4510 C   0  0  0  0  0  0  0  0  0  0  0  0
   63.3000   33.1040   47.0340 C   0  0  0  0  0  0  0  0  0  0  0  0
   63.3570   32.9350   48.4210 C   0  0  0  0  0  0  0  0  0  0  0  0
   64.4190   32.3110   48.9840 F   0  0  0  0  0  0  0  0  0  0  0  0
   62.3200   33.4160   49.2260 C   0  0  0  0  0  0  0  0  0  0  0  0
   61.2230   34.0620   48.6470 C   0  0  0  0  0  0  0  0  0  0  0  0
   57.3770   31.6480   45.2940 N   0  0  0  0  0  0  0  0  0  0  0  0
   57.9360   30.4490   45.3510 N   0  0  0  0  0  0  0  0  0  0  0  0
   57.5150   29.3110   44.7320 C   0  0  0  0  0  0  0  0  0  0  0  0
   56.2870   29.3520   43.8480 C   0  0  0  0  0  0  0  0  0  0  0  0
   55.1360   29.3040   44.6140 F   0  0  0  0  0  0  0  0  0  0  0  0
   56.2940   30.5210   43.1110 F   0  0  0  0  0  0  0  0  0  0  0  0
   59.0415   27.5265   42.4656 H   0  0  0  0  0  0  0  0  0  0  0  0
   58.2307   25.9370   42.2586 H   0  0  0  0  0  0  0  0  0  0  0  0
   57.2589   27.4477   42.2586 H   0  0  0  0  0  0  0  0  0  0  0  0
   56.9184   26.5814   44.4305 H   0  0  0  0  0  0  0  0  0  0  0  0
   58.6416   26.0501   44.5760 H   0  0  0  0  0  0  0  0  0  0  0  0
   60.4813   26.9034   47.0857 H   0  0  0  0  0  0  0  0  0  0  0  0
   59.9280   26.1500   45.5517 H   0  0  0  0  0  0  0  0  0  0  0  0
   61.3508   27.2465   45.5517 H   0  0  0  0  0  0  0  0  0  0  0  0
   59.9922   32.1355   47.2886 H   0  0  0  0  0  0  0  0  0  0  0  0
   57.8843   34.4580   45.3525 H   0  0  0  0  0  0  0  0  0  0  0  0
   56.8017   33.9687   46.7244 H   0  0  0  0  0  0  0  0  0  0  0  0
   58.9640   33.8280   48.0210 H   0  0  0  0  0  0  0  0  0  0  0  0
   59.9523   34.7206   45.5560 H   0  0  0  0  0  0  0  0  0  0  0  0
   60.1253   36.0330   46.7723 H   0  0  0  0  0  0  0  0  0  0  0  0
   62.1664   33.8907   45.3606 H   0  0  0  0  0  0  0  0  0  0  0  0
   64.1170   32.7282   46.4006 H   0  0  0  0  0  0  0  0  0  0  0  0
   62.3670   33.2860   50.3173 H   0  0  0  0  0  0  0  0  0  0  0  0
   60.4130   34.4458   49.2846 H   0  0  0  0  0  0  0  0  0  0  0  0
   56.3044   28.4809   43.1765 H   0  0  0  0  0  0  0  0  0  0  0  0
  1  2  1  0
  2  3  1  0
  3  4  1  0
  4  5  1  0
  4  6  2  0
  6  7  1  0
  7  8  2  0
  8  9  1  0
  9 10  1  0
 10 11  1  0
 11 12  1  0
 12 13  1  0
 13 14  2  0
 14 15  1  0
 15 16  2  0
 16 17  1  0
 16 18  1  0
 18 19  2  0
  9 20  2  0
 20 21  1  0
 21 22  1  0
 22 23  1  0
 23 24  1  0
 23 25  1  0
 22  3  2  0
 21  7  1  0
 19 13  1  0
  1 26  1  0
  1 27  1  0
  1 28  1  0
  2 29  1  0
  2 30  1  0
  5 31  1  0
  5 32  1  0
  5 33  1  0
  8 34  1  0
 10 35  1  0
 10 36  1  0
 11 37  1  0
 12 38  1  0
 12 39  1  0
 14 40  1  0
 15 41  1  0
 18 42  1  0
 19 43  1  0
 23 44  1  0
M  END
>  <UniqueID>  (1) 
1

>  <SMILES>  (1) 
CCc1c(C)nc2cc(CNCc3ccc(F)cc3)nn2c1C(F)F

>  <Energy>  (1) 
81.16274312908185

>  <Genealogy>  (1) 
CCc1c(C)nc2cc(CNCc3ccc(F)cc3)nn2c1C(F)F (3D coordinates assigned)
CCc1c(C)nc2cc(CNCc3ccc(F)cc3)nn2c1C(F)F (optimized conformer: 81.16274312908185 kcal/mol)

>  <smiles>  (1) 
CCc1c(C)nc2cc(CNCc3ccc(F)cc3)nn2c1C(F)F

>  <score_type>  (1) 
oracle

>  <origin>  (1) 
adg

>  <m_score__min__energy>  (1) 
-7.7000000000000002

>  <m_primary>  (1) 
energy

$$$$
2:0
     RDKit          3D

 36 37  0  0  0  0  0  0  0  0999 V2000
   62.3620   33.5190   46.7630 C   0  0  0  0  0  0  0  0  0  0  0  0
   60.9480   33.1690   47.2130 C   0  0  0  0  0  0  0  0  0  0  0  0
   60.0260   33.2010   46.0660 N   0  0  0  0  0  0  0  0  0  0  0  0
   59.2610   34.4580   45.9870 C   0  0  0  0  0  0  0  0  0  0  0  0
   57.7430   34.2140   46.0010 C   0  0  0  0  0  0  0  0  0  0  0  0
   57.3240   33.5320   44.7790 N   0  0  0  0  0  0  0  0  0  0  0  0
   57.5640   32.1360   44.5740 C   0  0  0  0  0  0  0  0  0  0  0  0
   57.6300   31.2400   45.5300 O   0  0  0  0  0  0  0  0  0  0  0  0
   57.8620   30.0770   44.9510 C   0  0  0  0  0  0  0  0  0  0  0  0
   58.0080   28.8110   45.7070 C   0  0  0  0  0  0  0  0  0  0  0  0
   59.1180   28.6340   46.5530 C   0  0  0  0  0  0  0  0  0  0  0  0
   59.2770   27.4480   47.2770 C   0  0  0  0  0  0  0  0  0  0  0  0
   58.3320   26.4280   47.1640 C   0  0  0  0  0  0  0  0  0  0  0  0
   57.2250   26.5910   46.3290 C   0  0  0  0  0  0  0  0  0  0  0  0
   57.0600   27.7750   45.6020 C   0  0  0  0  0  0  0  0  0  0  0  0
   57.9480   30.1960   43.6040 N   0  0  0  0  0  0  0  0  0  0  0  0
   57.7580   31.5060   43.3670 C   0  0  0  0  0  0  0  0  0  0  0  0
   57.7680   32.1110   42.0630 C   0  0  0  0  0  0  0  0  0  0  0  0
   57.7750   32.5970   41.0130 N   0  0  0  0  0  0  0  0  0  0  0  0
   62.9992   33.6767   47.6457 H   0  0  0  0  0  0  0  0  0  0  0  0
   62.7693   32.6946   46.1593 H   0  0  0  0  0  0  0  0  0  0  0  0
   62.3377   34.4382   46.1593 H   0  0  0  0  0  0  0  0  0  0  0  0
   60.9459   32.1607   47.6526 H   0  0  0  0  0  0  0  0  0  0  0  0
   60.6168   33.9055   47.9599 H   0  0  0  0  0  0  0  0  0  0  0  0
   59.3660   32.3900   46.1320 H   0  0  0  0  0  0  0  0  0  0  0  0
   59.5266   35.0894   46.8477 H   0  0  0  0  0  0  0  0  0  0  0  0
   59.5159   34.9501   45.0368 H   0  0  0  0  0  0  0  0  0  0  0  0
   57.4843   33.5914   46.8701 H   0  0  0  0  0  0  0  0  0  0  0  0
   57.2270   35.1835   46.0626 H   0  0  0  0  0  0  0  0  0  0  0  0
   56.7860   34.0700   44.0630 H   0  0  0  0  0  0  0  0  0  0  0  0
   59.8666   29.4346   46.6458 H   0  0  0  0  0  0  0  0  0  0  0  0
   60.1481   27.3193   47.9362 H   0  0  0  0  0  0  0  0  0  0  0  0
   58.4591   25.4951   47.7329 H   0  0  0  0  0  0  0  0  0  0  0  0
   56.4803   25.7861   46.2424 H   0  0  0  0  0  0  0  0  0  0  0  0
   56.1859   27.8971   44.9455 H   0  0  0  0  0  0  0  0  0  0  0  0
   58.1260   29.4560   42.8910 H   0  0  0  0  0  0  0  0  0  0  0  0
  1  2  1  0
  2  3  1  0
  3  4  1  0
  4  5  1  0
  5  6  1  0
  6  7  1  0
  7  8  1  0
  8  9  1  0
  9 10  1  0
 10 11  2  0
 11 12  1  0
 12 13  2  0
 13 14  1  0
 14 15  2  0
  9 16  2  0
 16 17  1  0
 17 18  1  0
 18 19  3  0
 17  7  2  0
 15 10  1  0
  1 20  1  0
  1 21  1  0
  1 22  1  0
  2 23  1  0
  2 24  1  0
  3 25  1  0
  4 26  1  0
  4 27  1  0
  5 28  1  0
  5 29  1  0
  6 30  1  0
 11 31  1  0
 12 32  1  0
 13 33  1  0
 14 34  1  0
 15 35  1  0
 16 36  1  0
M  CHG  1  16   1
M  END
>  <UniqueID>  (2) 
2

>  <SMILES>  (2) 
CCNCCNc1oc(-c2ccccc2)[nH+]c1C#N

>  <Energy>  (2) 
62.76475847850702

>  <Genealogy>  (2) 
CCNCCNc1oc(-c2ccccc2)[nH+]c1C#N (protonated)
CCNCCNc1oc(-c2ccccc2)[nH+]c1C#N (3D coordinates assigned)
CCNCCNc1oc(-c2ccccc2)[nH+]c1C#N (optimized conformer: 62.76475847850702 kcal/mol)

>  <smiles>  (2) 
CCNCCNc1oc(-c2ccccc2)nc1C#N

>  <score_type>  (2) 
oracle

>  <origin>  (2) 
adg

>  <m_score__min__energy>  (2) 
-6.0599999999999996

>  <m_primary>  (2) 
energy

$$$$
3:0
     RDKit          3D

 34 35  0  0  0  0  0  0  0  0999 V2000
   59.6410   28.9510   47.8780 C   0  0  0  0  0  0  0  0  0  0  0  0
   59.0210   27.5990   47.5170 C   0  0  0  0  0  0  0  0  0  0  0  0
   58.2150   27.6650   46.2850 N   0  0  0  0  0  0  0  0  0  0  0  0
   58.9240   27.1450   45.1070 C   0  0  0  0  0  0  0  0  0  0  0  0
   58.2350   27.5750   43.7970 C   0  0  0  0  0  0  0  0  0  0  0  0
   57.0290   28.3910   44.0220 N   0  0  0  0  0  0  0  0  0  0  0  0
   57.3440   29.7930   44.1220 C   0  0  0  0  0  0  0  0  0  0  0  0
   57.3610   30.6050   42.9760 C   0  0  0  0  0  0  0  0  0  0  0  0
   57.6410   31.9660   43.1080 C   0  0  0  0  0  0  0  0  0  0  0  0
   57.6530   32.7000   42.0830 O   0  0  0  0  0  0  0  0  0  0  0  0
   57.9020   32.4930   44.3830 C   0  0  0  0  0  0  0  0  0  0  0  0
   58.1870   33.8550   44.5880 C   0  0  0  0  0  0  0  0  0  0  0  0
   58.4390   34.3310   45.8790 C   0  0  0  0  0  0  0  0  0  0  0  0
   58.4090   33.4560   46.9700 C   0  0  0  0  0  0  0  0  0  0  0  0
   58.1270   32.1010   46.7760 C   0  0  0  0  0  0  0  0  0  0  0  0
   57.8730   31.6130   45.4890 C   0  0  0  0  0  0  0  0  0  0  0  0
   57.6020   30.3230   45.3150 O   0  0  0  0  0  0  0  0  0  0  0  0
   59.6876   29.0525   48.9723 H   0  0  0  0  0  0  0  0  0  0  0  0
   60.6569   29.0117   47.4606 H   0  0  0  0  0  0  0  0  0  0  0  0
   59.0241   29.7604   47.4606 H   0  0  0  0  0  0  0  0  0  0  0  0
   59.8289   26.8665   47.3725 H   0  0  0  0  0  0  0  0  0  0  0  0
   58.3540   27.3038   48.3404 H   0  0  0  0  0  0  0  0  0  0  0  0
   57.9250   28.6550   46.1050 H   0  0  0  0  0  0  0  0  0  0  0  0
   59.9546   27.5295   45.1116 H   0  0  0  0  0  0  0  0  0  0  0  0
   58.9155   26.0462   45.1566 H   0  0  0  0  0  0  0  0  0  0  0  0
   58.9495   28.1622   43.2015 H   0  0  0  0  0  0  0  0  0  0  0  0
   57.9202   26.6595   43.2748 H   0  0  0  0  0  0  0  0  0  0  0  0
   56.3390   28.2390   43.2490 H   0  0  0  0  0  0  0  0  0  0  0  0
   56.5740   28.0850   44.9140 H   0  0  0  0  0  0  0  0  0  0  0  0
   57.1559   30.1730   41.9854 H   0  0  0  0  0  0  0  0  0  0  0  0
   58.2117   34.5462   43.7327 H   0  0  0  0  0  0  0  0  0  0  0  0
   58.6614   35.3967   46.0368 H   0  0  0  0  0  0  0  0  0  0  0  0
   58.6079   33.8354   47.9832 H   0  0  0  0  0  0  0  0  0  0  0  0
   58.1046   31.4165   47.6368 H   0  0  0  0  0  0  0  0  0  0  0  0
  1  2  1  0
  2  3  1  0
  3  4  1  0
  4  5  1  0
  5  6  1  0
  6  7  1  0
  7  8  2  0
  8  9  1  0
  9 10  2  0
  9 11  1  0
 11 12  2  0
 12 13  1  0
 13 14  2  0
 14 15  1  0
 15 16  2  0
 16 17  1  0
 17  7  1  0
 16 11  1  0
  1 18  1  0
  1 19  1  0
  1 20  1  0
  2 21  1  0
  2 22  1  0
  3 23  1  0
  4 24  1  0
  4 25  1  0
  5 26  1  0
  5 27  1  0
  6 28  1  0
  6 29  1  0
  8 30  1  0
 12 31  1  0
 13 32  1  0
 14 33  1  0
 15 34  1  0
M  CHG  1   6   1
M  END
>  <UniqueID>  (3) 
3

>  <SMILES>  (3) 
CCNCC[NH2+]c1cc(=O)c2ccccc2o1

>  <Energy>  (3) 
37.11425633343804

>  <Genealogy>  (3) 
CCNCC[NH2+]c1cc(=O)c2ccccc2o1 (protonated)
CCNCC[NH2+]c1cc(=O)c2ccccc2o1 (3D coordinates assigned)
CCNCC[NH2+]c1cc(=O)c2ccccc2o1 (optimized conformer: 37.11425633343804 kcal/mol)

>  <smiles>  (3) 
CCNCCNc1cc(=O)c2ccccc2o1

>  <score_type>  (3) 
oracle

>  <origin>  (3) 
adg

>  <m_score__min__energy>  (3) 
-4.7400000000000002

>  <m_primary>  (3) 
energy

$$$$
4:0
     RDKit          3D

 52 55  0  0  0  0  0  0  0  0999 V2000
   57.4400   31.3790   43.4910 C   0  0  0  0  0  0  0  0  0  0  0  0
   58.2110   31.3980   44.7450 N   0  0  0  0  0  0  0  0  0  0  0  0
   58.4410   30.2310   45.4290 C   0  0  0  0  0  0  0  0  0  0  0  0
   58.8770   30.2290   46.7410 C   0  0  0  0  0  0  0  0  0  0  0  0
   59.2030   31.4170   47.3870 C   0  0  0  0  0  0  0  0  0  0  0  0
   59.6160   31.3910   48.7620 N   0  0  0  0  0  0  0  0  0  0  0  0
   60.9020   30.8130   49.1560 C   0  0  0  0  0  0  0  0  0  0  0  0
   62.0500   31.8090   48.9390 C   0  0  0  0  0  0  0  0  0  0  0  0
   62.6620   31.7670   47.5250 C   0  0  0  0  0  0  0  0  0  0  0  0
   63.7510   32.7690   47.3360 N   0  0  0  0  0  0  0  0  0  0  0  0
   64.1440   33.3770   48.6210 C   0  0  0  0  0  0  0  0  0  0  0  0
   63.3370   33.8290   46.3990 C   0  0  0  0  0  0  0  0  0  0  0  0
   59.1650   32.6130   46.6370 C   0  0  0  0  0  0  0  0  0  0  0  0
   59.6430   33.8230   47.1770 C   0  0  0  0  0  0  0  0  0  0  0  0
   59.6250   34.9940   46.4230 C   0  0  0  0  0  0  0  0  0  0  0  0
   59.1540   34.9760   45.1140 C   0  0  0  0  0  0  0  0  0  0  0  0
   58.6900   33.7890   44.5480 C   0  0  0  0  0  0  0  0  0  0  0  0
   58.6680   32.5850   45.2930 C   0  0  0  0  0  0  0  0  0  0  0  0
   58.9010   28.8440   47.3180 C   0  0  0  0  0  0  0  0  0  0  0  0
   58.4950   28.0370   46.1290 C   0  0  0  0  0  0  0  0  0  0  0  0
   58.4440   26.6450   46.0450 C   0  0  0  0  0  0  0  0  0  0  0  0
   58.1520   26.0550   44.8070 C   0  0  0  0  0  0  0  0  0  0  0  0
   57.9520   26.8550   43.6700 C   0  0  0  0  0  0  0  0  0  0  0  0
   58.0170   28.2550   43.7660 C   0  0  0  0  0  0  0  0  0  0  0  0
   58.2410   28.8340   45.0230 C   0  0  0  0  0  0  0  0  0  0  0  0
   56.3648   31.3525   43.7220 H   0  0  0  0  0  0  0  0  0  0  0  0
   57.6674   32.2830   42.9070 H   0  0  0  0  0  0  0  0  0  0  0  0
   57.7117   30.4873   42.9070 H   0  0  0  0  0  0  0  0  0  0  0  0
   59.1570   32.0560   49.4230 H   0  0  0  0  0  0  0  0  0  0  0  0
   60.8610   30.5396   50.2207 H   0  0  0  0  0  0  0  0  0  0  0  0
   61.0895   29.9255   48.5337 H   0  0  0  0  0  0  0  0  0  0  0  0
   61.6653   32.8237   49.1187 H   0  0  0  0  0  0  0  0  0  0  0  0
   62.8503   31.5273   49.6391 H   0  0  0  0  0  0  0  0  0  0  0  0
   63.0747   30.7624   47.3504 H   0  0  0  0  0  0  0  0  0  0  0  0
   61.8615   32.0094   46.8105 H   0  0  0  0  0  0  0  0  0  0  0  0
   64.6030   32.3170   46.9250 H   0  0  0  0  0  0  0  0  0  0  0  0
   63.7512   32.7693   49.4495 H   0  0  0  0  0  0  0  0  0  0  0  0
   65.2412   33.4200   48.6859 H   0  0  0  0  0  0  0  0  0  0  0  0
   63.7327   34.3951   48.6859 H   0  0  0  0  0  0  0  0  0  0  0  0
   62.9942   34.7067   46.9665 H   0  0  0  0  0  0  0  0  0  0  0  0
   64.1905   34.1124   45.7656 H   0  0  0  0  0  0  0  0  0  0  0  0
   62.5173   33.4589   45.7656 H   0  0  0  0  0  0  0  0  0  0  0  0
   60.0345   33.8433   48.2048 H   0  0  0  0  0  0  0  0  0  0  0  0
   59.9842   35.9357   46.8637 H   0  0  0  0  0  0  0  0  0  0  0  0
   59.1476   35.9032   44.5222 H   0  0  0  0  0  0  0  0  0  0  0  0
   58.3356   33.7880   43.5067 H   0  0  0  0  0  0  0  0  0  0  0  0
   59.9066   28.5694   47.6691 H   0  0  0  0  0  0  0  0  0  0  0  0
   58.2592   28.7078   48.2009 H   0  0  0  0  0  0  0  0  0  0  0  0
   58.6293   26.0226   46.9329 H   0  0  0  0  0  0  0  0  0  0  0  0
   58.0792   24.9604   44.7258 H   0  0  0  0  0  0  0  0  0  0  0  0
   57.7433   26.3826   42.6988 H   0  0  0  0  0  0  0  0  0  0  0  0
   57.8945   28.8846   42.8724 H   0  0  0  0  0  0  0  0  0  0  0  0
  1  2  1  0
  2  3  2  0
  3  4  1  0
  4  5  2  0
  5  6  1  0
  6  7  1  0
  7  8  1  0
  8  9  1  0
  9 10  1  0
 10 11  1  0
 10 12  1  0
  5 13  1  0
 13 14  2  0
 14 15  1  0
 15 16  2  0
 16 17  1  0
 17 18  2  0
  4 19  1  0
 19 20  1  0
 20 21  2  0
 21 22  1  0
 22 23  2  0
 23 24  1  0
 24 25  2  0
 18  2  1  0
 25 20  1  0
 25  3  1  0
 18 13  1  0
  1 26  1  0
  1 27  1  0
  1 28  1  0
  6 29  1  0
  7 30  1  0
  7 31  1  0
  8 32  1  0
  8 33  1  0
  9 34  1  0
  9 35  1  0
 10 36  1  0
 11 37  1  0
 11 38  1  0
 11 39  1  0
 12 40  1  0
 12 41  1  0
 12 42  1  0
 14 43  1  0
 15 44  1  0
 16 45  1  0
 17 46  1  0
 19 47  1  0
 19 48  1  0
 21 49  1  0
 22 50  1  0
 23 51  1  0
 24 52  1  0
M  CHG  2   2   1  10   1
M  END
>  <UniqueID>  (4) 
4

>  <SMILES>  (4) 
C[n+]1c2c(c(NCCC[NH+](C)C)c3ccccc31)Cc1ccccc1-2

>  <Energy>  (4) 
97.53916373211807

>  <Genealogy>  (4) 
C[n+]1c2c(c(NCCC[NH+](C)C)c3ccccc31)Cc1ccccc1-2 (protonated)
C[n+]1c2c(c(NCCC[NH+](C)C)c3ccccc31)Cc1ccccc1-2 (3D coordinates assigned)
C[n+]1c2c(c(NCCC[NH+](C)C)c3ccccc31)Cc1ccccc1-2 (nonaromatic ring conformer: 97.53916373211807 kcal/mol)

>  <smiles>  (4) 
CN(C)CCCNc1c2c([n+](C)c3ccccc13)-c1ccccc1C2

>  <score_type>  (4) 
oracle

>  <origin>  (4) 
adg

>  <m_score__min__energy>  (4) 
-5.4299999999999997

>  <m_primary>  (4) 
energy

$$$$
5:0
     RDKit          3D

 65 67  0  0  0  0  0  0  0  0999 V2000
   57.8350   31.8730   51.0190 C   0  0  0  0  0  0  0  0  0  0  0  0
   58.8500   31.4810   49.9350 C   0  0  0  0  0  0  0  0  0  0  0  0
   60.2510   31.8870   50.2110 N   0  0  0  0  0  0  0  0  0  0  0  0
   60.4810   33.2980   50.5990 C   0  0  0  0  0  0  0  0  0  0  0  0
   59.9450   34.2470   49.5310 C   0  0  0  0  0  0  0  0  0  0  0  0
   61.0480   30.9100   50.9930 C   0  0  0  0  0  0  0  0  0  0  0  0
   62.5450   30.8910   50.6450 C   0  0  0  0  0  0  0  0  0  0  0  0
   63.1320   32.1300   51.0030 O   0  0  0  0  0  0  0  0  0  0  0  0
   64.2660   32.4140   50.2030 C   0  0  0  0  0  0  0  0  0  0  0  0
   63.9520   33.4810   49.1480 C   0  0  0  0  0  0  0  0  0  0  0  0
   62.7120   33.1430   48.4390 N   0  0  0  0  0  0  0  0  0  0  0  0
   63.0040   32.4090   47.2010 C   0  0  0  0  0  0  0  0  0  0  0  0
   62.1740   31.1140   47.1130 C   0  0  0  0  0  0  0  0  0  0  0  0
   60.8350   31.2350   47.7300 N   0  0  0  0  0  0  0  0  0  0  0  0
   59.7630   31.1100   46.7450 C   0  0  0  0  0  0  0  0  0  0  0  0
   59.2760   32.2680   46.0710 C   0  0  0  0  0  0  0  0  0  0  0  0
   59.8110   33.5590   46.3240 C   0  0  0  0  0  0  0  0  0  0  0  0
   59.2670   34.6950   45.7290 C   0  0  0  0  0  0  0  0  0  0  0  0
   58.1820   34.5800   44.8750 C   0  0  0  0  0  0  0  0  0  0  0  0
   57.6590   33.3250   44.5750 C   0  0  0  0  0  0  0  0  0  0  0  0
   58.2230   32.1420   45.1230 C   0  0  0  0  0  0  0  0  0  0  0  0
   57.7580   30.8940   44.7620 N   0  0  0  0  0  0  0  0  0  0  0  0
   56.9100   30.7440   43.5560 C   0  0  0  0  0  0  0  0  0  0  0  0
   58.1000   29.7830   45.5030 C   0  0  0  0  0  0  0  0  0  0  0  0
   57.4140   28.5510   45.3280 C   0  0  0  0  0  0  0  0  0  0  0  0
   57.7900   27.4070   46.0250 C   0  0  0  0  0  0  0  0  0  0  0  0
   56.9240   25.9010   45.7840 Cl  0  0  0  0  0  0  0  0  0  0  0  0
   58.8510   27.4590   46.9170 C   0  0  0  0  0  0  0  0  0  0  0  0
   59.5150   28.6600   47.1460 C   0  0  0  0  0  0  0  0  0  0  0  0
   59.1410   29.8540   46.4760 C   0  0  0  0  0  0  0  0  0  0  0  0
   58.2755   31.7029   52.0125 H   0  0  0  0  0  0  0  0  0  0  0  0
   57.5749   32.9363   50.9104 H   0  0  0  0  0  0  0  0  0  0  0  0
   56.9277   31.2606   50.9104 H   0  0  0  0  0  0  0  0  0  0  0  0
   58.8271   30.3867   49.8258 H   0  0  0  0  0  0  0  0  0  0  0  0
   58.5485   32.0174   49.0232 H   0  0  0  0  0  0  0  0  0  0  0  0
   59.9673   33.4988   51.5507 H   0  0  0  0  0  0  0  0  0  0  0  0
   61.5633   33.4626   50.7064 H   0  0  0  0  0  0  0  0  0  0  0  0
   59.4592   35.1070   50.0151 H   0  0  0  0  0  0  0  0  0  0  0  0
   60.7767   34.6007   48.9040 H   0  0  0  0  0  0  0  0  0  0  0  0
   59.2127   33.7173   48.9040 H   0  0  0  0  0  0  0  0  0  0  0  0
   60.9456   31.1575   52.0599 H   0  0  0  0  0  0  0  0  0  0  0  0
   60.6547   29.9130   50.7453 H   0  0  0  0  0  0  0  0  0  0  0  0
   63.0391   30.0785   51.1979 H   0  0  0  0  0  0  0  0  0  0  0  0
   62.6667   30.7279   49.5640 H   0  0  0  0  0  0  0  0  0  0  0  0
   65.0782   32.7778   50.8495 H   0  0  0  0  0  0  0  0  0  0  0  0
   64.5642   31.4909   49.6843 H   0  0  0  0  0  0  0  0  0  0  0  0
   63.8338   34.4567   49.6420 H   0  0  0  0  0  0  0  0  0  0  0  0
   64.7791   33.5245   48.4241 H   0  0  0  0  0  0  0  0  0  0  0  0
   62.1400   32.5420   49.0760 H   0  0  0  0  0  0  0  0  0  0  0  0
   62.7634   33.0488   46.3391 H   0  0  0  0  0  0  0  0  0  0  0  0
   64.0707   32.1403   47.1983 H   0  0  0  0  0  0  0  0  0  0  0  0
   62.0474   30.8517   46.0523 H   0  0  0  0  0  0  0  0  0  0  0  0
   62.7204   30.3380   47.6691 H   0  0  0  0  0  0  0  0  0  0  0  0
   60.7640   32.1610   48.2070 H   0  0  0  0  0  0  0  0  0  0  0  0
   60.7320   30.5920   48.5370 H   0  0  0  0  0  0  0  0  0  0  0  0
   60.6707   33.6638   47.0022 H   0  0  0  0  0  0  0  0  0  0  0  0
   59.6994   35.6847   45.9374 H   0  0  0  0  0  0  0  0  0  0  0  0
   57.7330   35.4818   44.4332 H   0  0  0  0  0  0  0  0  0  0  0  0
   56.7930   33.2481   43.9011 H   0  0  0  0  0  0  0  0  0  0  0  0
   55.8691   30.5599   43.8603 H   0  0  0  0  0  0  0  0  0  0  0  0
   56.9593   31.6648   42.9563 H   0  0  0  0  0  0  0  0  0  0  0  0
   57.2722   29.8960   42.9563 H   0  0  0  0  0  0  0  0  0  0  0  0
   56.5680   28.5006   44.6268 H   0  0  0  0  0  0  0  0  0  0  0  0
   59.1685   26.5477   47.4450 H   0  0  0  0  0  0  0  0  0  0  0  0
   60.3490   28.6847   47.8628 H   0  0  0  0  0  0  0  0  0  0  0  0
  1  2  1  0
  2  3  1  0
  3  4  1  0
  4  5  1  0
  3  6  1  0
  6  7  1  0
  7  8  1  0
  8  9  1  0
  9 10  1  0
 10 11  1  0
 11 12  1  0
 12 13  1  0
 13 14  1  0
 14 15  1  0
 15 16  2  0
 16 17  1  0
 17 18  2  0
 18 19  1  0
 19 20  2  0
 20 21  1  0
 21 22  2  0
 22 23  1  0
 22 24  1  0
 24 25  2  0
 25 26  1  0
 26 27  1  0
 26 28  2  0
 28 29  1  0
 29 30  2  0
 30 15  1  0
 21 16  1  0
 30 24  1  0
  1 31  1  0
  1 32  1  0
  1 33  1  0
  2 34  1  0
  2 35  1  0
  4 36  1  0
  4 37  1  0
  5 38  1  0
  5 39  1  0
  5 40  1  0
  6 41  1  0
  6 42  1  0
  7 43  1  0
  7 44  1  0
  9 45  1  0
  9 46  1  0
 10 47  1  0
 10 48  1  0
 11 49  1  0
 12 50  1  0
 12 51  1  0
 13 52  1  0
 13 53  1  0
 14 54  1  0
 14 55  1  0
 17 56  1  0
 18 57  1  0
 19 58  1  0
 20 59  1  0
 23 60  1  0
 23 61  1  0
 23 62  1  0
 25 63  1  0
 28 64  1  0
 29 65  1  0
M  CHG  2  14   1  22   1
M  END
>  <UniqueID>  (5) 
5

>  <SMILES>  (5) 
CCN(CC)CCOCCNCC[NH2+]c1c2ccccc2[n+](C)c2cc(Cl)ccc12

>  <Energy>  (5) 
100.35002855997456

>  <Genealogy>  (5) 
CCN(CC)CCOCCNCC[NH2+]c1c2ccccc2[n+](C)c2cc(Cl)ccc12 (protonated)
CCN(CC)CCOCCNCC[NH2+]c1c2ccccc2[n+](C)c2cc(Cl)ccc12 (3D coordinates assigned)
CCN(CC)CCOCCNCC[NH2+]c1c2ccccc2[n+](C)c2cc(Cl)ccc12 (optimized conformer: 100.35002855997456 kcal/mol)

>  <smiles>  (5) 
CCN(CC)CCOCCNCCNc1c2ccccc2[n+](C)c2cc(Cl)ccc12

>  <score_type>  (5) 
oracle

>  <origin>  (5) 
adg

>  <m_score__min__energy>  (5) 
-4.6500000000000004

>  <m_primary>  (5) 
energy

$$$$
6:0
     RDKit          3D

 81 85  0  0  0  0  0  0  0  0999 V2000
   62.4110   34.5340   49.5820 C   0  0  0  0  0  0  0  0  0  0  0  0
   61.2320   34.5230   48.6140 C   0  0  0  0  0  0  0  0  0  0  0  0
   61.5130   33.6290   47.4680 N   0  0  0  0  0  0  0  0  0  0  0  0
   62.9700   33.4320   47.2800 C   0  0  0  0  0  0  0  0  0  0  0  0
   63.3430   31.9530   47.1620 C   0  0  0  0  0  0  0  0  0  0  0  0
   60.7910   34.0460   46.2400 C   0  0  0  0  0  0  0  0  0  0  0  0
   59.6390   35.0440   46.4950 C   0  0  0  0  0  0  0  0  0  0  0  0
   58.3240   34.5670   45.8660 C   0  0  0  0  0  0  0  0  0  0  0  0
   57.6330   33.6240   46.7480 N   0  0  0  0  0  0  0  0  0  0  0  0
   58.1490   32.3070   47.0120 C   0  0  0  0  0  0  0  0  0  0  0  0
   58.0690   31.2610   46.0610 C   0  0  0  0  0  0  0  0  0  0  0  0
   57.5240   31.4860   44.7820 C   0  0  0  0  0  0  0  0  0  0  0  0
   57.5190   30.4760   43.8220 C   0  0  0  0  0  0  0  0  0  0  0  0
   58.0650   29.2300   44.1130 C   0  0  0  0  0  0  0  0  0  0  0  0
   58.5990   28.9700   45.3750 C   0  0  0  0  0  0  0  0  0  0  0  0
   58.5900   29.9590   46.3900 C   0  0  0  0  0  0  0  0  0  0  0  0
   59.0920   29.7030   47.6580 N   0  0  0  0  0  0  0  0  0  0  0  0
   59.3730   28.3340   48.1230 C   0  0  0  0  0  0  0  0  0  0  0  0
   59.2530   30.7650   48.5090 C   0  0  0  0  0  0  0  0  0  0  0  0
   58.7670   32.0220   48.2220 C   0  0  0  0  0  0  0  0  0  0  0  0
   58.9710   32.8520   49.2240 O   0  0  0  0  0  0  0  0  0  0  0  0
   59.6120   32.1810   50.1530 C   0  0  0  0  0  0  0  0  0  0  0  0
   60.0620   32.6750   51.3720 C   0  0  0  0  0  0  0  0  0  0  0  0
   60.7800   31.8100   52.2110 C   0  0  0  0  0  0  0  0  0  0  0  0
   61.0490   30.4790   51.8240 C   0  0  0  0  0  0  0  0  0  0  0  0
   61.7860   29.6780   52.7120 O   0  0  0  0  0  0  0  0  0  0  0  0
   63.1420   29.2710   52.5400 C   0  0  0  0  0  0  0  0  0  0  0  0
   63.7870   29.8680   51.2600 C   0  0  0  0  0  0  0  0  0  0  0  0
   64.6770   31.0660   51.4430 N   0  0  0  0  0  0  0  0  0  0  0  0
   64.3510   31.7410   52.7300 C   0  0  0  0  0  0  0  0  0  0  0  0
   66.1120   30.6490   51.4100 C   0  0  0  0  0  0  0  0  0  0  0  0
   67.0980   31.8250   51.3150 C   0  0  0  0  0  0  0  0  0  0  0  0
   66.7880   32.7030   50.1090 C   0  0  0  0  0  0  0  0  0  0  0  0
   65.3420   33.1800   50.1660 C   0  0  0  0  0  0  0  0  0  0  0  0
   64.3770   31.9870   50.2990 C   0  0  0  0  0  0  0  0  0  0  0  0
   60.5880   30.0040   50.5710 C   0  0  0  0  0  0  0  0  0  0  0  0
   59.8340   30.8720   49.7710 C   0  0  0  0  0  0  0  0  0  0  0  0
   62.0363   34.5305   50.6162 H   0  0  0  0  0  0  0  0  0  0  0  0
   63.0318   33.6416   49.4139 H   0  0  0  0  0  0  0  0  0  0  0  0
   63.0150   35.4378   49.4139 H   0  0  0  0  0  0  0  0  0  0  0  0
   60.3344   34.1663   49.1403 H   0  0  0  0  0  0  0  0  0  0  0  0
   61.0694   35.5440   48.2383 H   0  0  0  0  0  0  0  0  0  0  0  0
   63.2819   33.9503   46.3613 H   0  0  0  0  0  0  0  0  0  0  0  0
   63.4826   33.8399   48.1636 H   0  0  0  0  0  0  0  0  0  0  0  0
   63.4520   31.5210   48.1677 H   0  0  0  0  0  0  0  0  0  0  0  0
   62.5517   31.4177   46.6167 H   0  0  0  0  0  0  0  0  0  0  0  0
   64.2935   31.8569   46.6167 H   0  0  0  0  0  0  0  0  0  0  0  0
   61.5132   34.5186   45.5581 H   0  0  0  0  0  0  0  0  0  0  0  0
   60.3371   33.1387   45.8148 H   0  0  0  0  0  0  0  0  0  0  0  0
   59.4959   35.1532   47.5802 H   0  0  0  0  0  0  0  0  0  0  0  0
   59.9103   36.0051   46.0339 H   0  0  0  0  0  0  0  0  0  0  0  0
   57.6738   35.4363   45.6885 H   0  0  0  0  0  0  0  0  0  0  0  0
   58.5529   34.0577   44.9183 H   0  0  0  0  0  0  0  0  0  0  0  0
   56.6510   33.8440   47.0230 H   0  0  0  0  0  0  0  0  0  0  0  0
   57.0974   32.4702   44.5381 H   0  0  0  0  0  0  0  0  0  0  0  0
   57.0817   30.6646   42.8304 H   0  0  0  0  0  0  0  0  0  0  0  0
   58.0757   28.4447   43.3428 H   0  0  0  0  0  0  0  0  0  0  0  0
   59.0339   27.9819   45.5858 H   0  0  0  0  0  0  0  0  0  0  0  0
   59.3771   28.3139   49.2228 H   0  0  0  0  0  0  0  0  0  0  0  0
   58.5961   27.6522   47.7467 H   0  0  0  0  0  0  0  0  0  0  0  0
   60.3557   28.0134   47.7467 H   0  0  0  0  0  0  0  0  0  0  0  0
   59.8608   33.7145   51.6701 H   0  0  0  0  0  0  0  0  0  0  0  0
   61.1389   32.1740   53.1850 H   0  0  0  0  0  0  0  0  0  0  0  0
   63.7225   29.6014   53.4140 H   0  0  0  0  0  0  0  0  0  0  0  0
   63.1506   28.1758   52.4376 H   0  0  0  0  0  0  0  0  0  0  0  0
   64.3884   29.0757   50.7902 H   0  0  0  0  0  0  0  0  0  0  0  0
   62.9424   30.2277   50.6539 H   0  0  0  0  0  0  0  0  0  0  0  0
   64.6605   31.1002   53.5688 H   0  0  0  0  0  0  0  0  0  0  0  0
   64.8846   32.7013   52.7859 H   0  0  0  0  0  0  0  0  0  0  0  0
   63.2671   31.9201   52.7859 H   0  0  0  0  0  0  0  0  0  0  0  0
   66.3309   30.0863   52.3295 H   0  0  0  0  0  0  0  0  0  0  0  0
   66.2485   30.0424   50.5026 H   0  0  0  0  0  0  0  0  0  0  0  0
   67.0235   32.4314   52.2298 H   0  0  0  0  0  0  0  0  0  0  0  0
   68.1148   31.4209   51.2015 H   0  0  0  0  0  0  0  0  0  0  0  0
   67.4590   33.5747   50.1116 H   0  0  0  0  0  0  0  0  0  0  0  0
   66.9379   32.1178   49.1897 H   0  0  0  0  0  0  0  0  0  0  0  0
   65.2155   33.8445   51.0334 H   0  0  0  0  0  0  0  0  0  0  0  0
   65.1113   33.7178   49.2345 H   0  0  0  0  0  0  0  0  0  0  0  0
   63.3595   32.3823   50.4346 H   0  0  0  0  0  0  0  0  0  0  0  0
   64.4898   31.3911   49.3813 H   0  0  0  0  0  0  0  0  0  0  0  0
   60.8161   28.9815   50.2358 H   0  0  0  0  0  0  0  0  0  0  0  0
  1  2  1  0
  2  3  1  0
  3  4  1  0
  4  5  1  0
  3  6  1  0
  6  7  1  0
  7  8  1  0
  8  9  1  0
  9 10  1  0
 10 11  2  0
 11 12  1  0
 12 13  2  0
 13 14  1  0
 14 15  2  0
 15 16  1  0
 16 17  2  0
 17 18  1  0
 17 19  1  0
 19 20  2  0
 20 21  1  0
 21 22  1  0
 22 23  2  0
 23 24  1  0
 24 25  2  0
 25 26  1  0
 26 27  1  0
 27 28  1  0
 28 29  1  0
 29 30  1  0
 29 31  1  0
 31 32  1  0
 32 33  1  0
 33 34  1  0
 34 35  1  0
 25 36  1  0
 36 37  2  0
 20 10  1  0
 37 22  1  0
 16 11  1  0
 37 19  1  0
 35 29  1  0
  1 38  1  0
  1 39  1  0
  1 40  1  0
  2 41  1  0
  2 42  1  0
  4 43  1  0
  4 44  1  0
  5 45  1  0
  5 46  1  0
  5 47  1  0
  6 48  1  0
  6 49  1  0
  7 50  1  0
  7 51  1  0
  8 52  1  0
  8 53  1  0
  9 54  1  0
 12 55  1  0
 13 56  1  0
 14 57  1  0
 15 58  1  0
 18 59  1  0
 18 60  1  0
 18 61  1  0
 23 62  1  0
 24 63  1  0
 27 64  1  0
 27 65  1  0
 28 66  1  0
 28 67  1  0
 30 68  1  0
 30 69  1  0
 30 70  1  0
 31 71  1  0
 31 72  1  0
 32 73  1  0
 32 74  1  0
 33 75  1  0
 33 76  1  0
 34 77  1  0
 34 78  1  0
 35 79  1  0
 35 80  1  0
 36 81  1  0
M  CHG  2  17   1  29   1
M  END
>  <UniqueID>  (6) 
6

>  <SMILES>  (6) 
CCN(CC)CCCNc1c2ccccc2[n+](C)c2c1oc1ccc(OCC[N+]3(C)CCCCC3)cc12

>  <Energy>  (6) 
151.4768485747062

>  <Genealogy>  (6) 
CCN(CC)CCCNc1c2ccccc2[n+](C)c2c1oc1ccc(OCC[N+]3(C)CCCCC3)cc12 (3D coordinates assigned)
CCN(CC)CCCNc1c2ccccc2[n+](C)c2c1oc1ccc(OCC[N+]3(C)CCCCC3)cc12 (nonaromatic ring conformer: 151.4768485747062 kcal/mol)

>  <smiles>  (6) 
CCN(CC)CCCNc1c2ccccc2[n+](C)c2c1oc1ccc(OCC[N+]3(C)CCCCC3)cc12

>  <score_type>  (6) 
oracle

>  <origin>  (6) 
adg

>  <m_score__min__energy>  (6) 
-6.1100000000000003

>  <m_primary>  (6) 
energy

$$$$
7:0
     RDKit          3D

 50 53  0  0  0  0  0  0  0  0999 V2000
   57.6970   31.1300   43.3640 C   0  0  0  0  0  0  0  0  0  0  0  0
   58.2350   30.5640   44.6140 N   0  0  0  0  0  0  0  0  0  0  0  0
   58.2910   29.1950   44.8360 C   0  0  0  0  0  0  0  0  0  0  0  0
   58.0970   28.2640   43.7870 C   0  0  0  0  0  0  0  0  0  0  0  0
   58.1240   26.8910   44.0300 C   0  0  0  0  0  0  0  0  0  0  0  0
   58.3540   26.4070   45.3140 C   0  0  0  0  0  0  0  0  0  0  0  0
   58.5830   27.2900   46.3680 C   0  0  0  0  0  0  0  0  0  0  0  0
   58.5760   28.6830   46.1520 C   0  0  0  0  0  0  0  0  0  0  0  0
   58.8430   29.5840   47.2110 C   0  0  0  0  0  0  0  0  0  0  0  0
   59.1270   29.1310   48.5490 N   0  0  0  0  0  0  0  0  0  0  0  0
   60.4820   29.1340   49.1050 C   0  0  0  0  0  0  0  0  0  0  0  0
   60.9010   30.5530   49.5240 C   0  0  0  0  0  0  0  0  0  0  0  0
   62.2520   30.9950   48.9190 C   0  0  0  0  0  0  0  0  0  0  0  0
   62.2140   32.3900   48.3820 N   0  0  0  0  0  0  0  0  0  0  0  0
   62.7150   33.3560   49.3810 C   0  0  0  0  0  0  0  0  0  0  0  0
   63.0100   32.5100   47.1430 C   0  0  0  0  0  0  0  0  0  0  0  0
   58.9180   30.9350   46.8940 C   0  0  0  0  0  0  0  0  0  0  0  0
   59.2750   31.9210   47.6910 O   0  0  0  0  0  0  0  0  0  0  0  0
   59.2650   33.0210   46.9700 C   0  0  0  0  0  0  0  0  0  0  0  0
   59.6060   34.3010   47.4000 C   0  0  0  0  0  0  0  0  0  0  0  0
   59.5920   35.3410   46.4560 C   0  0  0  0  0  0  0  0  0  0  0  0
   59.2570   35.0810   45.1110 C   0  0  0  0  0  0  0  0  0  0  0  0
   58.9160   33.7800   44.6970 C   0  0  0  0  0  0  0  0  0  0  0  0
   58.8940   32.7650   45.6630 C   0  0  0  0  0  0  0  0  0  0  0  0
   58.6500   31.3940   45.6240 C   0  0  0  0  0  0  0  0  0  0  0  0
   56.9572   31.9083   43.6025 H   0  0  0  0  0  0  0  0  0  0  0  0
   58.5171   31.5708   42.7783 H   0  0  0  0  0  0  0  0  0  0  0  0
   57.2152   30.3333   42.7783 H   0  0  0  0  0  0  0  0  0  0  0  0
   57.9222   28.6294   42.7643 H   0  0  0  0  0  0  0  0  0  0  0  0
   57.9624   26.1861   43.2011 H   0  0  0  0  0  0  0  0  0  0  0  0
   58.3551   25.3225   45.4982 H   0  0  0  0  0  0  0  0  0  0  0  0
   58.7709   26.8961   47.3777 H   0  0  0  0  0  0  0  0  0  0  0  0
   58.3410   28.8200   49.1610 H   0  0  0  0  0  0  0  0  0  0  0  0
   60.5113   28.4753   49.9855 H   0  0  0  0  0  0  0  0  0  0  0  0
   61.1790   28.7756   48.3331 H   0  0  0  0  0  0  0  0  0  0  0  0
   60.1236   31.2581   49.1947 H   0  0  0  0  0  0  0  0  0  0  0  0
   61.0198   30.5480   50.6176 H   0  0  0  0  0  0  0  0  0  0  0  0
   63.0231   30.9399   49.7016 H   0  0  0  0  0  0  0  0  0  0  0  0
   62.4766   30.3212   48.0790 H   0  0  0  0  0  0  0  0  0  0  0  0
   61.2310   32.6750   48.1530 H   0  0  0  0  0  0  0  0  0  0  0  0
   62.5165   32.9732   50.3929 H   0  0  0  0  0  0  0  0  0  0  0  0
   63.7981   33.4936   49.2470 H   0  0  0  0  0  0  0  0  0  0  0  0
   62.2035   34.3206   49.2470 H   0  0  0  0  0  0  0  0  0  0  0  0
   64.0675   32.6694   47.4006 H   0  0  0  0  0  0  0  0  0  0  0  0
   62.9114   31.5868   46.5530 H   0  0  0  0  0  0  0  0  0  0  0  0
   62.6437   33.3631   46.5530 H   0  0  0  0  0  0  0  0  0  0  0  0
   59.8784   34.4920   48.4485 H   0  0  0  0  0  0  0  0  0  0  0  0
   59.8441   36.3653   46.7680 H   0  0  0  0  0  0  0  0  0  0  0  0
   59.2623   35.9023   44.3792 H   0  0  0  0  0  0  0  0  0  0  0  0
   58.6737   33.5659   43.6456 H   0  0  0  0  0  0  0  0  0  0  0  0
  1  2  1  0
  2  3  2  0
  3  4  1  0
  4  5  2  0
  5  6  1  0
  6  7  2  0
  7  8  1  0
  8  9  2  0
  9 10  1  0
 10 11  1  0
 11 12  1  0
 12 13  1  0
 13 14  1  0
 14 15  1  0
 14 16  1  0
  9 17  1  0
 17 18  1  0
 18 19  1  0
 19 20  2  0
 20 21  1  0
 21 22  2  0
 22 23  1  0
 23 24  2  0
 24 25  1  0
 25  2  1  0
  8  3  1  0
 25 17  2  0
 24 19  1  0
  1 26  1  0
  1 27  1  0
  1 28  1  0
  4 29  1  0
  5 30  1  0
  6 31  1  0
  7 32  1  0
 10 33  1  0
 11 34  1  0
 11 35  1  0
 12 36  1  0
 12 37  1  0
 13 38  1  0
 13 39  1  0
 14 40  1  0
 15 41  1  0
 15 42  1  0
 15 43  1  0
 16 44  1  0
 16 45  1  0
 16 46  1  0
 20 47  1  0
 21 48  1  0
 22 49  1  0
 23 50  1  0
M  CHG  2   2   1  14   1
M  END
>  <UniqueID>  (7) 
7

>  <SMILES>  (7) 
C[n+]1c2ccccc2c(NCCC[NH+](C)C)c2oc3ccccc3c21

>  <Energy>  (7) 
114.74671801382424

>  <Genealogy>  (7) 
C[n+]1c2ccccc2c(NCCC[NH+](C)C)c2oc3ccccc3c21 (protonated)
C[n+]1c2ccccc2c(NCCC[NH+](C)C)c2oc3ccccc3c21 (3D coordinates assigned)
C[n+]1c2ccccc2c(NCCC[NH+](C)C)c2oc3ccccc3c21 (optimized conformer: 114.74671801382424 kcal/mol)

>  <smiles>  (7) 
CN(C)CCCNc1c2ccccc2[n+](C)c2c1oc1ccccc12

>  <score_type>  (7) 
oracle

>  <origin>  (7) 
adg

>  <m_score__min__energy>  (7) 
-4.4900000000000002

>  <m_primary>  (7) 
energy

$$$$
8:0
     RDKit          3D

 52 55  0  0  0  0  0  0  0  0999 V2000
   59.7730   33.0270   50.3320 C   0  0  0  0  0  0  0  0  0  0  0  0
   60.6470   33.0670   49.1060 C   0  0  0  0  0  0  0  0  0  0  0  0
   60.6020   34.1840   48.2560 C   0  0  0  0  0  0  0  0  0  0  0  0
   61.3510   34.2160   47.1230 N   0  0  0  0  0  0  0  0  0  0  0  0
   62.1610   33.1830   46.7710 C   0  0  0  0  0  0  0  0  0  0  0  0
   62.2480   32.0530   47.5850 C   0  0  0  0  0  0  0  0  0  0  0  0
   61.5020   31.9930   48.7680 C   0  0  0  0  0  0  0  0  0  0  0  0
   61.6440   30.8120   49.6420 C   0  0  0  0  0  0  0  0  0  0  0  0
   62.6680   30.5320   50.5250 C   0  0  0  0  0  0  0  0  0  0  0  0
   63.8650   31.3810   50.7970 C   0  0  0  0  0  0  0  0  0  0  0  0
   62.4450   29.3320   51.0980 N   0  0  0  0  0  0  0  0  0  0  0  0
   61.3280   28.8750   50.6060 O   0  0  0  0  0  0  0  0  0  0  0  0
   60.8100   29.7160   49.7380 C   0  0  0  0  0  0  0  0  0  0  0  0
   59.5290   29.5140   49.0360 C   0  0  0  0  0  0  0  0  0  0  0  0
   58.4820   29.9950   49.5490 O   0  0  0  0  0  0  0  0  0  0  0  0
   59.4530   28.7880   47.7900 N   0  0  0  0  0  0  0  0  0  0  0  0
   58.1540   28.3130   47.2860 C   0  0  0  0  0  0  0  0  0  0  0  0
   57.7620   29.0620   45.9940 C   0  0  0  0  0  0  0  0  0  0  0  0
   58.6850   30.1760   45.7370 N   0  0  0  0  0  0  0  0  0  0  0  0
   58.2010   31.5310   45.6930 C   0  0  0  0  0  0  0  0  0  0  0  0
   58.1680   32.2890   46.8750 C   0  0  0  0  0  0  0  0  0  0  0  0
   57.7690   33.6260   46.8510 C   0  0  0  0  0  0  0  0  0  0  0  0
   57.3880   34.2200   45.6490 C   0  0  0  0  0  0  0  0  0  0  0  0
   57.3960   33.4740   44.4670 C   0  0  0  0  0  0  0  0  0  0  0  0
   57.7860   32.1230   44.4760 C   0  0  0  0  0  0  0  0  0  0  0  0
   57.7780   31.3480   43.1880 C   0  0  0  0  0  0  0  0  0  0  0  0
   60.1330   29.9090   45.7080 C   0  0  0  0  0  0  0  0  0  0  0  0
   60.5240   28.8860   46.7890 C   0  0  0  0  0  0  0  0  0  0  0  0
   60.4035   33.0559   51.2329 H   0  0  0  0  0  0  0  0  0  0  0  0
   59.0975   33.8952   50.3292 H   0  0  0  0  0  0  0  0  0  0  0  0
   59.1796   32.1008   50.3292 H   0  0  0  0  0  0  0  0  0  0  0  0
   59.9565   35.0380   48.5091 H   0  0  0  0  0  0  0  0  0  0  0  0
   62.7489   33.2378   45.8429 H   0  0  0  0  0  0  0  0  0  0  0  0
   62.8992   31.2140   47.2987 H   0  0  0  0  0  0  0  0  0  0  0  0
   64.0049   31.4802   51.8835 H   0  0  0  0  0  0  0  0  0  0  0  0
   64.7558   30.9117   50.3540 H   0  0  0  0  0  0  0  0  0  0  0  0
   63.7166   32.3768   50.3540 H   0  0  0  0  0  0  0  0  0  0  0  0
   58.2216   27.2360   47.0725 H   0  0  0  0  0  0  0  0  0  0  0  0
   57.3871   28.5034   48.0513 H   0  0  0  0  0  0  0  0  0  0  0  0
   57.7968   28.3618   45.1464 H   0  0  0  0  0  0  0  0  0  0  0  0
   56.7461   29.4662   46.1148 H   0  0  0  0  0  0  0  0  0  0  0  0
   58.4594   31.8244   47.8285 H   0  0  0  0  0  0  0  0  0  0  0  0
   57.7551   34.2119   47.7819 H   0  0  0  0  0  0  0  0  0  0  0  0
   57.0810   35.2761   45.6306 H   0  0  0  0  0  0  0  0  0  0  0  0
   57.0945   33.9480   43.5213 H   0  0  0  0  0  0  0  0  0  0  0  0
   57.7669   30.2704   43.4085 H   0  0  0  0  0  0  0  0  0  0  0  0
   56.8825   31.6125   42.6065 H   0  0  0  0  0  0  0  0  0  0  0  0
   58.6787   31.5940   42.6065 H   0  0  0  0  0  0  0  0  0  0  0  0
   60.4062   29.5109   44.7196 H   0  0  0  0  0  0  0  0  0  0  0  0
   60.6681   30.8498   45.9042 H   0  0  0  0  0  0  0  0  0  0  0  0
   60.6790   27.9021   46.3221 H   0  0  0  0  0  0  0  0  0  0  0  0
   61.4524   29.2127   47.2803 H   0  0  0  0  0  0  0  0  0  0  0  0
  1  2  1  0
  2  3  2  0
  3  4  1  0
  4  5  2  0
  5  6  1  0
  6  7  2  0
  7  8  1  0
  8  9  1  0
  9 10  1  0
  9 11  2  0
 11 12  1  0
 12 13  1  0
 13 14  1  0
 14 15  2  0
 14 16  1  0
 16 17  1  0
 17 18  1  0
 18 19  1  0
 19 20  1  0
 20 21  2  0
 21 22  1  0
 22 23  2  0
 23 24  1  0
 24 25  2  0
 25 26  1  0
 19 27  1  0
 27 28  1  0
  7  2  1  0
 13  8  2  0
 28 16  1  0
 25 20  1  0
  1 29  1  0
  1 30  1  0
  1 31  1  0
  3 32  1  0
  5 33  1  0
  6 34  1  0
 10 35  1  0
 10 36  1  0
 10 37  1  0
 17 38  1  0
 17 39  1  0
 18 40  1  0
 18 41  1  0
 21 42  1  0
 22 43  1  0
 23 44  1  0
 24 45  1  0
 26 46  1  0
 26 47  1  0
 26 48  1  0
 27 49  1  0
 27 50  1  0
 28 51  1  0
 28 52  1  0
M  END
>  <UniqueID>  (8) 
8

>  <SMILES>  (8) 
Cc1cnccc1-c1c(C)noc1C(=O)N1CCN(c2ccccc2C)CC1

>  <Energy>  (8) 
104.5700536370663

>  <Genealogy>  (8) 
Cc1cnccc1-c1c(C)noc1C(=O)N1CCN(c2ccccc2C)CC1 (3D coordinates assigned)
Cc1cnccc1-c1c(C)noc1C(=O)N1CCN(c2ccccc2C)CC1 (nonaromatic ring conformer: 104.5700536370663 kcal/mol)

>  <smiles>  (8) 
Cc1cnccc1-c1c(C)noc1C(=O)N1CCN(c2ccccc2C)CC1

>  <score_type>  (8) 
oracle

>  <origin>  (8) 
adg

>  <m_score__min__energy>  (8) 
-8.5899999999999999

>  <m_primary>  (8) 
energy

$$$$
9:0
     RDKit          3D

 30 31  0  0  0  0  0  0  0  0999 V2000
   58.8670   28.8450   44.5360 C   0  0  0  0  0  0  0  0  0  0  0  0
   57.3690   28.5730   44.5450 C   0  0  0  0  0  0  0  0  0  0  0  0
   56.4310   29.9150   43.7300 S   0  0  0  0  0  0  0  0  0  0  0  0
   57.3400   31.2600   44.5140 C   0  0  0  0  0  0  0  0  0  0  0  0
   57.4370   31.2460   45.8740 N   0  0  0  0  0  0  0  0  0  0  0  0
   58.1390   32.2150   46.4980 C   0  0  0  0  0  0  0  0  0  0  0  0
   58.4080   32.3670   48.1460 S   0  0  0  0  0  0  0  0  0  0  0  0
   59.3510   33.7660   47.9860 C   0  0  0  0  0  0  0  0  0  0  0  0
   60.0290   34.4720   49.1180 C   0  0  0  0  0  0  0  0  0  0  0  0
   61.5310   34.2110   49.0930 C   0  0  0  0  0  0  0  0  0  0  0  0
   59.4750   34.1030   46.6360 C   0  0  0  0  0  0  0  0  0  0  0  0
   58.7760   33.2170   45.8070 C   0  0  0  0  0  0  0  0  0  0  0  0
   58.6720   33.2440   44.4180 C   0  0  0  0  0  0  0  0  0  0  0  0
   59.2610   34.1490   43.7650 O   0  0  0  0  0  0  0  0  0  0  0  0
   57.9230   32.2780   43.7790 N   0  0  0  0  0  0  0  0  0  0  0  0
   57.7740   32.3170   42.3140 C   0  0  0  0  0  0  0  0  0  0  0  0
   59.2338   28.9116   45.5709 H   0  0  0  0  0  0  0  0  0  0  0  0
   59.3852   28.0263   44.0153 H   0  0  0  0  0  0  0  0  0  0  0  0
   59.0643   29.7937   44.0153 H   0  0  0  0  0  0  0  0  0  0  0  0
   57.1751   27.6295   44.0138 H   0  0  0  0  0  0  0  0  0  0  0  0
   57.0386   28.5117   45.5924 H   0  0  0  0  0  0  0  0  0  0  0  0
   59.8488   35.5535   49.0289 H   0  0  0  0  0  0  0  0  0  0  0  0
   59.6199   34.0940   50.0666 H   0  0  0  0  0  0  0  0  0  0  0  0
   61.9090   34.1453   50.1239 H   0  0  0  0  0  0  0  0  0  0  0  0
   61.7301   33.2648   48.5685 H   0  0  0  0  0  0  0  0  0  0  0  0
   62.0376   35.0346   48.5685 H   0  0  0  0  0  0  0  0  0  0  0  0
   60.0535   34.9630   46.2676 H   0  0  0  0  0  0  0  0  0  0  0  0
   56.7391   32.5879   42.0578 H   0  0  0  0  0  0  0  0  0  0  0  0
   58.4632   33.0650   41.8951 H   0  0  0  0  0  0  0  0  0  0  0  0
   58.0084   31.3272   41.8951 H   0  0  0  0  0  0  0  0  0  0  0  0
  1  2  1  0
  2  3  1  0
  3  4  1  0
  4  5  2  0
  5  6  1  0
  6  7  1  0
  7  8  1  0
  8  9  1  0
  9 10  1  0
  8 11  2  0
 11 12  1  0
 12 13  1  0
 13 14  2  0
 13 15  1  0
 15 16  1  0
 15  4  1  0
 12  6  2  0
  1 17  1  0
  1 18  1  0
  1 19  1  0
  2 20  1  0
  2 21  1  0
  9 22  1  0
  9 23  1  0
 10 24  1  0
 10 25  1  0
 10 26  1  0
 11 27  1  0
 16 28  1  0
 16 29  1  0
 16 30  1  0
M  END
>  <UniqueID>  (9) 
9

>  <SMILES>  (9) 
CCSc1nc2sc(CC)cc2c(=O)n1C

>  <Energy>  (9) 
57.262090587258285

>  <Genealogy>  (9) 
CCSc1nc2sc(CC)cc2c(=O)n1C (3D coordinates assigned)
CCSc1nc2sc(CC)cc2c(=O)n1C (optimized conformer: 57.262090587258285 kcal/mol)

>  <smiles>  (9) 
CCSc1nc2sc(CC)cc2c(=O)n1C

>  <score_type>  (9) 
oracle

>  <origin>  (9) 
adg

>  <m_score__min__energy>  (9) 
-5.8799999999999999

>  <m_primary>  (9) 
energy

$$$$
10:0
     RDKit          3D

 68 72  0  0  0  0  0  0  0  0999 V2000
   66.6290   39.0650   52.3960 C   0  0  0  0  0  0  0  0  0  0  0  0
   66.5740   38.6180   53.8610 C   0  0  0  0  0  0  0  0  0  0  0  0
   65.3920   37.7650   54.1520 N   0  0  1  0  0  0  0  0  0  0  0  0
   64.4710   38.4530   55.0800 C   0  0  0  0  0  0  0  0  0  0  0  0
   64.6700   37.4200   52.8990 C   0  0  0  0  0  0  0  0  0  0  0  0
   65.0640   36.0340   52.3670 C   0  0  0  0  0  0  0  0  0  0  0  0
   66.2830   35.6440   52.9710 O   0  0  0  0  0  0  0  0  0  0  0  0
   66.3550   34.2370   53.1070 C   0  0  0  0  0  0  0  0  0  0  0  0
   65.2480   33.7080   54.0270 C   0  0  0  0  0  0  0  0  0  0  0  0
   64.9290   32.3550   53.6980 O   0  0  0  0  0  0  0  0  0  0  0  0
   64.1030   31.9460   52.6380 C   0  0  0  0  0  0  0  0  0  0  0  0
   63.8150   30.5910   52.3760 C   0  0  0  0  0  0  0  0  0  0  0  0
   62.9760   30.2340   51.3160 C   0  0  0  0  0  0  0  0  0  0  0  0
   62.4110   31.2210   50.5030 C   0  0  0  0  0  0  0  0  0  0  0  0
   61.5750   30.8700   49.4820 N   0  0  0  0  0  0  0  0  0  0  0  0
   61.0290   31.8420   48.7110 C   0  0  0  0  0  0  0  0  0  0  0  0
   61.2800   33.1750   48.9130 C   0  0  0  0  0  0  0  0  0  0  0  0
   62.1260   33.5850   49.9390 C   0  0  0  0  0  0  0  0  0  0  0  0
   62.7050   32.5930   50.7550 C   0  0  0  0  0  0  0  0  0  0  0  0
   63.5530   32.9370   51.8160 C   0  0  0  0  0  0  0  0  0  0  0  0
   60.5100   33.9940   47.9190 C   0  0  0  0  0  0  0  0  0  0  0  0
   59.8040   32.9620   47.1480 N   0  0  0  0  0  0  0  0  0  0  0  0
   60.1070   31.7300   47.6090 C   0  0  0  0  0  0  0  0  0  0  0  0
   59.5570   30.5800   47.0500 C   0  0  0  0  0  0  0  0  0  0  0  0
   58.6430   30.7190   45.9770 C   0  0  0  0  0  0  0  0  0  0  0  0
   58.3410   32.0310   45.5080 C   0  0  0  0  0  0  0  0  0  0  0  0
   58.9470   33.1540   46.1110 C   0  0  0  0  0  0  0  0  0  0  0  0
   58.7010   34.3210   45.7020 O   0  0  0  0  0  0  0  0  0  0  0  0
   57.3900   32.1880   44.3490 C   0  0  0  0  0  0  0  0  0  0  0  0
   56.3470   31.2230   44.4500 O   0  0  0  0  0  0  0  0  0  0  0  0
   56.6020   29.9140   44.8620 C   0  0  0  0  0  0  0  0  0  0  0  0
   55.6440   29.0980   44.9010 O   0  0  0  0  0  0  0  0  0  0  0  0
   58.0220   29.5110   45.2410 C   0  0  1  0  0  0  0  0  0  0  0  0
   58.7340   29.3090   44.0440 O   0  0  0  0  0  0  0  0  0  0  0  0
   58.0500   28.1940   46.0880 C   0  0  0  0  0  0  0  0  0  0  0  0
   58.5340   26.9470   45.3340 C   0  0  0  0  0  0  0  0  0  0  0  0
   66.7632   40.1558   52.3503 H   0  0  0  0  0  0  0  0  0  0  0  0
   67.4730   38.5703   51.8931 H   0  0  0  0  0  0  0  0  0  0  0  0
   65.6902   38.7897   51.8931 H   0  0  0  0  0  0  0  0  0  0  0  0
   67.4859   38.0471   54.0901 H   0  0  0  0  0  0  0  0  0  0  0  0
   66.4954   39.5216   54.4834 H   0  0  0  0  0  0  0  0  0  0  0  0
   65.7040   36.8800   54.6230 H   0  0  0  0  0  0  0  0  0  0  0  0
   64.7643   38.2339   56.1173 H   0  0  0  0  0  0  0  0  0  0  0  0
   64.5190   39.5382   54.9068 H   0  0  0  0  0  0  0  0  0  0  0  0
   63.4440   38.0991   54.9068 H   0  0  0  0  0  0  0  0  0  0  0  0
   63.5884   37.4286   53.0992 H   0  0  0  0  0  0  0  0  0  0  0  0
   64.9411   38.1648   52.1363 H   0  0  0  0  0  0  0  0  0  0  0  0
   64.2783   35.3054   52.6156 H   0  0  0  0  0  0  0  0  0  0  0  0
   65.1837   36.0730   51.2742 H   0  0  0  0  0  0  0  0  0  0  0  0
   66.2470   33.7752   52.1145 H   0  0  0  0  0  0  0  0  0  0  0  0
   67.3278   33.9809   53.5521 H   0  0  0  0  0  0  0  0  0  0  0  0
   65.5913   33.7555   55.0710 H   0  0  0  0  0  0  0  0  0  0  0  0
   64.3490   34.3280   53.8952 H   0  0  0  0  0  0  0  0  0  0  0  0
   64.2543   29.8077   53.0112 H   0  0  0  0  0  0  0  0  0  0  0  0
   62.7598   29.1732   51.1212 H   0  0  0  0  0  0  0  0  0  0  0  0
   62.3364   34.6514   50.1079 H   0  0  0  0  0  0  0  0  0  0  0  0
   63.7887   33.9947   52.0048 H   0  0  0  0  0  0  0  0  0  0  0  0
   59.8028   34.6701   48.4217 H   0  0  0  0  0  0  0  0  0  0  0  0
   61.1423   34.6504   47.3031 H   0  0  0  0  0  0  0  0  0  0  0  0
   59.8264   29.5848   47.4333 H   0  0  0  0  0  0  0  0  0  0  0  0
   56.9561   33.1986   44.3663 H   0  0  0  0  0  0  0  0  0  0  0  0
   57.9363   32.0368   43.4063 H   0  0  0  0  0  0  0  0  0  0  0  0
   58.2130   29.7240   43.3070 H   0  0  0  0  0  0  0  0  0  0  0  0
   58.7189   28.3546   46.9464 H   0  0  0  0  0  0  0  0  0  0  0  0
   57.0080   27.9928   46.3775 H   0  0  0  0  0  0  0  0  0  0  0  0
   58.8338   26.1745   46.0574 H   0  0  0  0  0  0  0  0  0  0  0  0
   57.7202   26.5616   44.7022 H   0  0  0  0  0  0  0  0  0  0  0  0
   59.3947   27.2116   44.7022 H   0  0  0  0  0  0  0  0  0  0  0  0
  1  2  1  0
  2  3  1  0
  3  4  1  0
  3  5  1  0
  5  6  1  0
  6  7  1  0
  7  8  1  0
  8  9  1  0
  9 10  1  0
 10 11  1  0
 11 12  2  0
 12 13  1  0
 13 14  2  0
 14 15  1  0
 15 16  2  0
 16 17  1  0
 17 18  2  0
 18 19  1  0
 19 20  2  0
 17 21  1  0
 21 22  1  0
 22 23  1  0
 23 24  2  0
 24 25  1  0
 25 26  2  0
 26 27  1  0
 27 28  2  0
 26 29  1  0
 29 30  1  0
 30 31  1  0
 31 32  2  0
 31 33  1  0
 33 34  1  6
 33 35  1  0
 35 36  1  0
 20 11  1  0
 27 22  1  0
 19 14  1  0
 33 25  1  0
 23 16  1  0
  1 37  1  0
  1 38  1  0
  1 39  1  0
  2 40  1  0
  2 41  1  0
  3 42  1  1
  4 43  1  0
  4 44  1  0
  4 45  1  0
  5 46  1  0
  5 47  1  0
  6 48  1  0
  6 49  1  0
  8 50  1  0
  8 51  1  0
  9 52  1  0
  9 53  1  0
 12 54  1  0
 13 55  1  0
 18 56  1  0
 20 57  1  0
 21 58  1  0
 21 59  1  0
 24 60  1  0
 29 61  1  0
 29 62  1  0
 34 63  1  0
 35 64  1  0
 35 65  1  0
 36 66  1  0
 36 67  1  0
 36 68  1  0
M  CHG  1   3   1
M  END
>  <UniqueID>  (10) 
10

>  <SMILES>  (10) 
CC[N@@H+](C)CCOCCOc1ccc2nc3c(cc2c1)Cn1c-3cc2c(c1=O)COC(=O)[C@]2(O)CC

>  <Energy>  (10) 
114.47922707966481

>  <Genealogy>  (10) 
CC[NH+](C)CCOCCOc1ccc2nc3c(cc2c1)Cn1c-3cc2c(c1=O)COC(=O)C2(O)CC (protonated)
CC[N@@H+](C)CCOCCOc1ccc2nc3c(cc2c1)Cn1c-3cc2c(c1=O)COC(=O)[C@]2(O)CC (chirality)
CC[N@@H+](C)CCOCCOc1ccc2nc3c(cc2c1)Cn1c-3cc2c(c1=O)COC(=O)[C@]2(O)CC (3D coordinates assigned)
CC[N@@H+](C)CCOCCOc1ccc2nc3c(cc2c1)Cn1c-3cc2c(c1=O)COC(=O)[C@]2(O)CC (nonaromatic ring conformer: 114.47922707966481 kcal/mol)

>  <smiles>  (10) 
CCN(C)CCOCCOc1ccc2nc3c(cc2c1)Cn1c-3cc2c(c1=O)COC(=O)C2(O)CC

>  <score_type>  (10) 
oracle

>  <origin>  (10) 
adg

>  <m_score__min__energy>  (10) 
-6.6600000000000001

>  <m_primary>  (10) 
energy

$$$$
11:0
     RDKit          3D

 48 49  0  0  0  0  0  0  0  0999 V2000
   57.4270   28.8220   44.5750 C   0  0  0  0  0  0  0  0  0  0  0  0
   56.1830   29.6700   44.8020 C   0  0  0  0  0  0  0  0  0  0  0  0
   56.4800   31.0760   44.5020 N   0  0  0  0  0  0  0  0  0  0  0  0
   57.4660   31.2240   43.4190 C   0  0  0  0  0  0  0  0  0  0  0  0
   57.8040   32.6970   43.1270 C   0  0  0  0  0  0  0  0  0  0  0  0
   58.5460   33.3370   44.2990 C   0  0  0  0  0  0  0  0  0  0  0  0
   58.7810   32.3490   45.2900 O   0  0  0  0  0  0  0  0  0  0  0  0
   59.0030   32.8370   46.6160 C   0  0  0  0  0  0  0  0  0  0  0  0
   57.6420   33.1440   47.3110 C   0  0  0  0  0  0  0  0  0  0  0  0
   56.6260   33.4670   46.3990 O   0  0  0  0  0  0  0  0  0  0  0  0
   59.8900   31.8660   47.4840 C   0  0  0  0  0  0  0  0  0  0  0  0
   60.9040   32.6000   48.3660 C   0  0  0  0  0  0  0  0  0  0  0  0
   61.7930   33.4100   47.5210 N   0  0  0  0  0  0  0  0  0  0  0  0
   63.2170   33.4280   47.7430 C   0  0  0  0  0  0  0  0  0  0  0  0
   63.9960   33.4630   46.7520 O   0  0  0  0  0  0  0  0  0  0  0  0
   63.7940   33.4120   49.1030 C   0  0  0  0  0  0  0  0  0  0  0  0
   64.9250   32.6500   49.4420 C   0  0  0  0  0  0  0  0  0  0  0  0
   65.3230   32.7980   50.7620 C   0  0  0  0  0  0  0  0  0  0  0  0
   64.2810   33.8860   51.5020 S   0  0  0  0  0  0  0  0  0  0  0  0
   63.3130   34.1790   50.1610 C   0  0  0  0  0  0  0  0  0  0  0  0
   61.2480   34.0650   46.3250 C   0  0  0  0  0  0  0  0  0  0  0  0
   59.7260   34.2090   46.4360 C   0  0  0  0  0  0  0  0  0  0  0  0
   57.8543   28.5307   45.5458 H   0  0  0  0  0  0  0  0  0  0  0  0
   57.1568   27.9192   44.0076 H   0  0  0  0  0  0  0  0  0  0  0  0
   58.1686   29.4034   44.0076 H   0  0  0  0  0  0  0  0  0  0  0  0
   55.3757   29.3183   44.1428 H   0  0  0  0  0  0  0  0  0  0  0  0
   55.8684   29.5806   45.8522 H   0  0  0  0  0  0  0  0  0  0  0  0
   56.8450   31.5420   45.3670 H   0  0  0  0  0  0  0  0  0  0  0  0
   58.3893   30.7009   43.7086 H   0  0  0  0  0  0  0  0  0  0  0  0
   57.0271   30.7945   42.5064 H   0  0  0  0  0  0  0  0  0  0  0  0
   58.4383   32.7484   42.2298 H   0  0  0  0  0  0  0  0  0  0  0  0
   56.8635   33.2453   42.9694 H   0  0  0  0  0  0  0  0  0  0  0  0
   59.5060   33.7449   43.9496 H   0  0  0  0  0  0  0  0  0  0  0  0
   57.9408   34.1523   44.7222 H   0  0  0  0  0  0  0  0  0  0  0  0
   57.3317   32.2572   47.8831 H   0  0  0  0  0  0  0  0  0  0  0  0
   57.7925   34.0178   47.9620 H   0  0  0  0  0  0  0  0  0  0  0  0
   56.7640   32.9070   45.5920 H   0  0  0  0  0  0  0  0  0  0  0  0
   59.2277   31.2733   48.1321 H   0  0  0  0  0  0  0  0  0  0  0  0
   60.4605   31.2344   46.7871 H   0  0  0  0  0  0  0  0  0  0  0  0
   60.3706   33.2551   49.0705 H   0  0  0  0  0  0  0  0  0  0  0  0
   61.5005   31.8659   48.9275 H   0  0  0  0  0  0  0  0  0  0  0  0
   65.4462   31.9968   48.7267 H   0  0  0  0  0  0  0  0  0  0  0  0
   66.1735   32.2907   51.2408 H   0  0  0  0  0  0  0  0  0  0  0  0
   62.4490   34.8588   50.1248 H   0  0  0  0  0  0  0  0  0  0  0  0
   61.6991   35.0629   46.2219 H   0  0  0  0  0  0  0  0  0  0  0  0
   61.4830   33.4488   45.4446 H   0  0  0  0  0  0  0  0  0  0  0  0
   59.4949   34.8451   47.3032 H   0  0  0  0  0  0  0  0  0  0  0  0
   59.3649   34.6545   45.4973 H   0  0  0  0  0  0  0  0  0  0  0  0
  1  2  1  0
  2  3  1  0
  3  4  1  0
  4  5  1  0
  5  6  1  0
  6  7  1  0
  7  8  1  0
  8  9  1  0
  9 10  1  0
  8 11  1  0
 11 12  1  0
 12 13  1  0
 13 14  1  0
 14 15  2  0
 14 16  1  0
 16 17  1  0
 17 18  2  0
 18 19  1  0
 19 20  1  0
 13 21  1  0
 21 22  1  0
 22  8  1  0
 20 16  2  0
  1 23  1  0
  1 24  1  0
  1 25  1  0
  2 26  1  0
  2 27  1  0
  3 28  1  0
  4 29  1  0
  4 30  1  0
  5 31  1  0
  5 32  1  0
  6 33  1  0
  6 34  1  0
  9 35  1  0
  9 36  1  0
 10 37  1  0
 11 38  1  0
 11 39  1  0
 12 40  1  0
 12 41  1  0
 17 42  1  0
 18 43  1  0
 20 44  1  0
 21 45  1  0
 21 46  1  0
 22 47  1  0
 22 48  1  0
M  END
>  <UniqueID>  (11) 
11

>  <SMILES>  (11) 
CCNCCCOC1(CO)CCN(C(=O)c2ccsc2)CC1

>  <Energy>  (11) 
83.45627257234248

>  <Genealogy>  (11) 
CCNCCCOC1(CO)CCN(C(=O)c2ccsc2)CC1 (3D coordinates assigned)
CCNCCCOC1(CO)CCN(C(=O)c2ccsc2)CC1 (nonaromatic ring conformer: 83.45627257234248 kcal/mol)

>  <smiles>  (11) 
CCNCCCOC1(CO)CCN(C(=O)c2ccsc2)CC1

>  <score_type>  (11) 
oracle

>  <origin>  (11) 
adg

>  <m_score__min__energy>  (11) 
-5.9000000000000004

>  <m_primary>  (11) 
energy

$$$$
12:0
     RDKit          3D

 63 66  0  0  0  0  0  0  0  0999 V2000
   57.0870   31.2450   42.2590 C   0  0  0  0  0  0  0  0  0  0  0  0
   56.2520   30.0130   42.6180 C   0  0  0  0  0  0  0  0  0  0  0  0
   57.0910   28.8610   43.0000 N   0  0  0  0  0  0  0  0  0  0  0  0
   57.2470   28.7130   44.4610 C   0  0  0  0  0  0  0  0  0  0  0  0
   57.3070   30.0710   45.1800 C   0  0  0  0  0  0  0  0  0  0  0  0
   58.6570   30.6270   45.1240 N   0  0  0  0  0  0  0  0  0  0  0  0
   59.2060   31.3110   46.2550 C   0  0  0  0  0  0  0  0  0  0  0  0
   59.3330   32.7170   46.2790 C   0  0  0  0  0  0  0  0  0  0  0  0
   58.8780   33.4940   45.1980 C   0  0  0  0  0  0  0  0  0  0  0  0
   59.0360   34.8780   45.2030 C   0  0  0  0  0  0  0  0  0  0  0  0
   59.6540   35.5090   46.2790 C   0  0  0  0  0  0  0  0  0  0  0  0
   60.1070   34.7640   47.3690 C   0  0  0  0  0  0  0  0  0  0  0  0
   59.9430   33.3580   47.4120 C   0  0  0  0  0  0  0  0  0  0  0  0
   60.3690   32.6080   48.4990 N   0  0  0  0  0  0  0  0  0  0  0  0
   60.9210   33.2520   49.7050 C   0  0  0  0  0  0  0  0  0  0  0  0
   60.2730   31.2400   48.4240 C   0  0  0  0  0  0  0  0  0  0  0  0
   60.7430   30.3430   49.3280 N   0  0  0  0  0  0  0  0  0  0  0  0
   60.4350   29.1340   48.8150 C   0  0  0  0  0  0  0  0  0  0  0  0
   60.7440   27.8900   49.3630 C   0  0  0  0  0  0  0  0  0  0  0  0
   60.3650   26.7400   48.6490 C   0  0  0  0  0  0  0  0  0  0  0  0
   59.6720   26.8500   47.4180 C   0  0  0  0  0  0  0  0  0  0  0  0
   59.3140   25.6210   46.6270 C   0  0  0  0  0  0  0  0  0  0  0  0
   57.8290   25.2700   46.8310 C   0  0  0  0  0  0  0  0  0  0  0  0
   56.9160   25.6100   45.6300 C   0  0  0  0  0  0  0  0  0  0  0  0
   57.5600   25.2600   44.2830 C   0  0  0  0  0  0  0  0  0  0  0  0
   55.5250   24.9740   45.7570 C   0  0  0  0  0  0  0  0  0  0  0  0
   59.3770   28.1230   46.8890 C   0  0  0  0  0  0  0  0  0  0  0  0
   59.7800   29.2480   47.6100 C   0  0  0  0  0  0  0  0  0  0  0  0
   59.6910   30.6020   47.3490 C   0  0  0  0  0  0  0  0  0  0  0  0
   57.4234   31.7414   43.1812 H   0  0  0  0  0  0  0  0  0  0  0  0
   57.9622   30.9355   41.6689 H   0  0  0  0  0  0  0  0  0  0  0  0
   56.4753   31.9433   41.6689 H   0  0  0  0  0  0  0  0  0  0  0  0
   55.5927   30.2658   43.4615 H   0  0  0  0  0  0  0  0  0  0  0  0
   55.6727   29.7274   41.7275 H   0  0  0  0  0  0  0  0  0  0  0  0
   56.6760   27.9800   42.6130 H   0  0  0  0  0  0  0  0  0  0  0  0
   58.0340   28.9640   42.5550 H   0  0  0  0  0  0  0  0  0  0  0  0
   56.3918   28.1425   44.8525 H   0  0  0  0  0  0  0  0  0  0  0  0
   58.1966   28.1902   44.6477 H   0  0  0  0  0  0  0  0  0  0  0  0
   56.6091   30.7682   44.6933 H   0  0  0  0  0  0  0  0  0  0  0  0
   57.0286   29.9251   46.2341 H   0  0  0  0  0  0  0  0  0  0  0  0
   59.2130   30.6060   44.2380 H   0  0  0  0  0  0  0  0  0  0  0  0
   58.3930   33.0041   44.3409 H   0  0  0  0  0  0  0  0  0  0  0  0
   58.6712   35.4744   44.3537 H   0  0  0  0  0  0  0  0  0  0  0  0
   59.7861   36.6010   46.2702 H   0  0  0  0  0  0  0  0  0  0  0  0
   60.5993   35.2773   48.2081 H   0  0  0  0  0  0  0  0  0  0  0  0
   60.5062   32.7681   50.6015 H   0  0  0  0  0  0  0  0  0  0  0  0
   62.0162   33.1497   49.7066 H   0  0  0  0  0  0  0  0  0  0  0  0
   60.6524   34.3187   49.7066 H   0  0  0  0  0  0  0  0  0  0  0  0
   61.2730   30.5100   50.2110 H   0  0  0  0  0  0  0  0  0  0  0  0
   61.2692   27.8106   50.3263 H   0  0  0  0  0  0  0  0  0  0  0  0
   60.6088   25.7450   49.0498 H   0  0  0  0  0  0  0  0  0  0  0  0
   59.4992   25.8096   45.5592 H   0  0  0  0  0  0  0  0  0  0  0  0
   59.9321   24.7794   46.9730 H   0  0  0  0  0  0  0  0  0  0  0  0
   57.7551   24.1894   47.0230 H   0  0  0  0  0  0  0  0  0  0  0  0
   57.4768   25.8831   47.6736 H   0  0  0  0  0  0  0  0  0  0  0  0
   56.7843   26.7018   45.6541 H   0  0  0  0  0  0  0  0  0  0  0  0
   58.5144   24.7413   44.4566 H   0  0  0  0  0  0  0  0  0  0  0  0
   56.8849   24.6047   43.7131 H   0  0  0  0  0  0  0  0  0  0  0  0
   57.7427   26.1829   43.7131 H   0  0  0  0  0  0  0  0  0  0  0  0
   55.2707   24.8577   46.8209 H   0  0  0  0  0  0  0  0  0  0  0  0
   54.7802   25.6210   45.2706 H   0  0  0  0  0  0  0  0  0  0  0  0
   55.5271   23.9874   45.2706 H   0  0  0  0  0  0  0  0  0  0  0  0
   58.8431   28.2269   45.9329 H   0  0  0  0  0  0  0  0  0  0  0  0
  1  2  1  0
  2  3  1  0
  3  4  1  0
  4  5  1  0
  5  6  1  0
  6  7  1  0
  7  8  2  0
  8  9  1  0
  9 10  2  0
 10 11  1  0
 11 12  2  0
 12 13  1  0
 13 14  2  0
 14 15  1  0
 14 16  1  0
 16 17  1  0
 17 18  1  0
 18 19  2  0
 19 20  1  0
 20 21  2  0
 21 22  1  0
 22 23  1  0
 23 24  1  0
 24 25  1  0
 24 26  1  0
 21 27  1  0
 27 28  2  0
 28 29  1  0
 29  7  1  0
 13  8  1  0
 29 16  2  0
 28 18  1  0
  1 30  1  0
  1 31  1  0
  1 32  1  0
  2 33  1  0
  2 34  1  0
  3 35  1  0
  3 36  1  0
  4 37  1  0
  4 38  1  0
  5 39  1  0
  5 40  1  0
  6 41  1  0
  9 42  1  0
 10 43  1  0
 11 44  1  0
 12 45  1  0
 15 46  1  0
 15 47  1  0
 15 48  1  0
 17 49  1  0
 19 50  1  0
 20 51  1  0
 22 52  1  0
 22 53  1  0
 23 54  1  0
 23 55  1  0
 24 56  1  0
 25 57  1  0
 25 58  1  0
 25 59  1  0
 26 60  1  0
 26 61  1  0
 26 62  1  0
 27 63  1  0
M  CHG  2   3   1  14   1
M  END
>  <UniqueID>  (12) 
12

>  <SMILES>  (12) 
CC[NH2+]CCNc1c2ccccc2[n+](C)c2[nH]c3ccc(CCC(C)C)cc3c12

>  <Energy>  (12) 
113.04430316722934

>  <Genealogy>  (12) 
CC[NH2+]CCNc1c2ccccc2[n+](C)c2[nH]c3ccc(CCC(C)C)cc3c12 (protonated)
CC[NH2+]CCNc1c2ccccc2[n+](C)c2[nH]c3ccc(CCC(C)C)cc3c12 (3D coordinates assigned)
CC[NH2+]CCNc1c2ccccc2[n+](C)c2[nH]c3ccc(CCC(C)C)cc3c12 (optimized conformer: 113.04430316722934 kcal/mol)

>  <smiles>  (12) 
CCNCCNc1c2ccccc2[n+](C)c2[nH]c3ccc(CCC(C)C)cc3c12

>  <score_type>  (12) 
oracle

>  <origin>  (12) 
adg

>  <m_score__min__energy>  (12) 
-5.9100000000000001

>  <m_primary>  (12) 
energy

$$$$
13:0
     RDKit          3D

 80 82  0  0  0  0  0  0  0  0999 V2000
   52.3530   31.9260   51.2130 C   0  0  0  0  0  0  0  0  0  0  0  0
   52.2660   30.4090   51.4040 C   0  0  0  0  0  0  0  0  0  0  0  0
   53.5380   29.7810   51.8230 N   0  0  0  0  0  0  0  0  0  0  0  0
   53.3890   28.7260   52.8400 C   0  0  0  0  0  0  0  0  0  0  0  0
   54.6810   30.7050   52.0140 C   0  0  0  0  0  0  0  0  0  0  0  0
   56.0030   30.0190   52.3970 C   0  0  0  0  0  0  0  0  0  0  0  0
   57.0230   30.4740   51.5330 O   0  0  0  0  0  0  0  0  0  0  0  0
   57.1580   31.8750   51.6530 C   0  0  0  0  0  0  0  0  0  0  0  0
   58.4710   32.2000   52.3630 C   0  0  0  0  0  0  0  0  0  0  0  0
   59.2110   31.0220   52.6140 O   0  0  0  0  0  0  0  0  0  0  0  0
   60.1900   31.2060   53.6230 C   0  0  0  0  0  0  0  0  0  0  0  0
   61.5590   31.5180   52.9980 C   0  0  0  0  0  0  0  0  0  0  0  0
   61.8330   30.7790   51.7570 N   0  0  0  0  0  0  0  0  0  0  0  0
   62.3110   31.3940   50.5490 C   0  0  0  0  0  0  0  0  0  0  0  0
   63.6550   31.8050   50.4840 C   0  0  0  0  0  0  0  0  0  0  0  0
   64.5710   31.4470   51.4990 C   0  0  0  0  0  0  0  0  0  0  0  0
   65.8890   31.8960   51.4640 C   0  0  0  0  0  0  0  0  0  0  0  0
   66.3150   32.7150   50.4270 C   0  0  0  0  0  0  0  0  0  0  0  0
   65.4360   33.0660   49.4040 C   0  0  0  0  0  0  0  0  0  0  0  0
   64.0980   32.5900   49.3910 C   0  0  0  0  0  0  0  0  0  0  0  0
   63.2280   32.9020   48.3670 N   0  0  0  0  0  0  0  0  0  0  0  0
   63.7470   33.5040   47.1170 C   0  0  0  0  0  0  0  0  0  0  0  0
   61.8800   32.6170   48.4850 C   0  0  0  0  0  0  0  0  0  0  0  0
   60.9350   33.2230   47.6290 C   0  0  0  0  0  0  0  0  0  0  0  0
   59.5860   32.8890   47.6850 C   0  0  0  0  0  0  0  0  0  0  0  0
   58.5940   33.5990   46.8060 C   0  0  0  0  0  0  0  0  0  0  0  0
   59.1540   31.9160   48.5800 C   0  0  0  0  0  0  0  0  0  0  0  0
   60.0560   31.2520   49.4410 C   0  0  0  0  0  0  0  0  0  0  0  0
   59.6180   30.1180   50.2520 N   0  0  0  0  0  0  0  0  0  0  0  0
   59.6120   28.7940   49.5850 C   0  0  0  0  0  0  0  0  0  0  0  0
   60.7660   27.8950   50.0810 C   0  0  0  0  0  0  0  0  0  0  0  0
   61.1340   28.2200   51.4750 N   0  0  0  0  0  0  0  0  0  0  0  0
   60.0140   27.9030   52.3780 C   0  0  0  0  0  0  0  0  0  0  0  0
   62.3210   27.4540   51.8980 C   0  0  0  0  0  0  0  0  0  0  0  0
   61.4130   31.7300   49.5000 C   0  0  0  0  0  0  0  0  0  0  0  0
   52.3812   32.4183   52.1963 H   0  0  0  0  0  0  0  0  0  0  0  0
   53.2668   32.1732   50.6528 H   0  0  0  0  0  0  0  0  0  0  0  0
   51.4735   32.2761   50.6528 H   0  0  0  0  0  0  0  0  0  0  0  0
   51.5075   30.2002   52.1728 H   0  0  0  0  0  0  0  0  0  0  0  0
   52.0066   29.9796   50.4251 H   0  0  0  0  0  0  0  0  0  0  0  0
   53.4520   29.1724   53.8434 H   0  0  0  0  0  0  0  0  0  0  0  0
   52.4125   28.2345   52.7181 H   0  0  0  0  0  0  0  0  0  0  0  0
   54.1912   27.9833   52.7181 H   0  0  0  0  0  0  0  0  0  0  0  0
   54.8392   31.2537   51.0738 H   0  0  0  0  0  0  0  0  0  0  0  0
   54.4145   31.3598   52.8567 H   0  0  0  0  0  0  0  0  0  0  0  0
   56.2610   30.2694   53.4366 H   0  0  0  0  0  0  0  0  0  0  0  0
   55.8965   28.9281   52.3048 H   0  0  0  0  0  0  0  0  0  0  0  0
   57.1599   32.3305   50.6517 H   0  0  0  0  0  0  0  0  0  0  0  0
   56.3161   32.2763   52.2363 H   0  0  0  0  0  0  0  0  0  0  0  0
   59.0673   32.8721   51.7285 H   0  0  0  0  0  0  0  0  0  0  0  0
   58.2418   32.6838   53.3239 H   0  0  0  0  0  0  0  0  0  0  0  0
   59.8890   32.0428   54.2704 H   0  0  0  0  0  0  0  0  0  0  0  0
   60.2714   30.2800   54.2112 H   0  0  0  0  0  0  0  0  0  0  0  0
   61.6003   32.5945   52.7757 H   0  0  0  0  0  0  0  0  0  0  0  0
   62.3203   31.2064   53.7283 H   0  0  0  0  0  0  0  0  0  0  0  0
   62.0160   29.7560   51.8650 H   0  0  0  0  0  0  0  0  0  0  0  0
   64.2385   30.8050   52.3280 H   0  0  0  0  0  0  0  0  0  0  0  0
   66.5919   31.6019   52.2574 H   0  0  0  0  0  0  0  0  0  0  0  0
   67.3497   33.0881   50.4128 H   0  0  0  0  0  0  0  0  0  0  0  0
   65.7843   33.7226   48.5932 H   0  0  0  0  0  0  0  0  0  0  0  0
   64.4469   34.3158   47.3641 H   0  0  0  0  0  0  0  0  0  0  0  0
   64.2700   32.7351   46.5293 H   0  0  0  0  0  0  0  0  0  0  0  0
   62.9095   33.9081   46.5293 H   0  0  0  0  0  0  0  0  0  0  0  0
   61.2730   33.9759   46.9017 H   0  0  0  0  0  0  0  0  0  0  0  0
   57.8591   34.1250   47.4331 H   0  0  0  0  0  0  0  0  0  0  0  0
   59.1213   34.3261   46.1709 H   0  0  0  0  0  0  0  0  0  0  0  0
   58.0759   32.8654   46.1709 H   0  0  0  0  0  0  0  0  0  0  0  0
   58.0855   31.6575   48.6183 H   0  0  0  0  0  0  0  0  0  0  0  0
   58.6710   30.3200   50.6440 H   0  0  0  0  0  0  0  0  0  0  0  0
   60.2930   30.0200   51.0440 H   0  0  0  0  0  0  0  0  0  0  0  0
   58.6553   28.2937   49.7959 H   0  0  0  0  0  0  0  0  0  0  0  0
   59.7450   28.9553   48.5050 H   0  0  0  0  0  0  0  0  0  0  0  0
   60.4491   26.8429   50.0293 H   0  0  0  0  0  0  0  0  0  0  0  0
   61.6428   28.0674   49.4396 H   0  0  0  0  0  0  0  0  0  0  0  0
   60.3469   27.9972   53.4222 H   0  0  0  0  0  0  0  0  0  0  0  0
   59.1848   28.6017   52.1930 H   0  0  0  0  0  0  0  0  0  0  0  0
   59.6740   26.8733   52.1930 H   0  0  0  0  0  0  0  0  0  0  0  0
   62.3662   27.4248   52.9967 H   0  0  0  0  0  0  0  0  0  0  0  0
   62.2541   26.4282   51.5064 H   0  0  0  0  0  0  0  0  0  0  0  0
   63.2281   27.9375   51.5064 H   0  0  0  0  0  0  0  0  0  0  0  0
  1  2  1  0
  2  3  1  0
  3  4  1  0
  3  5  1  0
  5  6  1  0
  6  7  1  0
  7  8  1  0
  8  9  1  0
  9 10  1  0
 10 11  1  0
 11 12  1  0
 12 13  1  0
 13 14  1  0
 14 15  2  0
 15 16  1  0
 16 17  2  0
 17 18  1  0
 18 19  2  0
 19 20  1  0
 20 21  2  0
 21 22  1  0
 21 23  1  0
 23 24  2  0
 24 25  1  0
 25 26  1  0
 25 27  2  0
 27 28  1  0
 28 29  1  0
 29 30  1  0
 30 31  1  0
 31 32  1  0
 32 33  1  0
 32 34  1  0
 28 35  2  0
 35 14  1  0
 20 15  1  0
 35 23  1  0
  1 36  1  0
  1 37  1  0
  1 38  1  0
  2 39  1  0
  2 40  1  0
  4 41  1  0
  4 42  1  0
  4 43  1  0
  5 44  1  0
  5 45  1  0
  6 46  1  0
  6 47  1  0
  8 48  1  0
  8 49  1  0
  9 50  1  0
  9 51  1  0
 11 52  1  0
 11 53  1  0
 12 54  1  0
 12 55  1  0
 13 56  1  0
 16 57  1  0
 17 58  1  0
 18 59  1  0
 19 60  1  0
 22 61  1  0
 22 62  1  0
 22 63  1  0
 24 64  1  0
 26 65  1  0
 26 66  1  0
 26 67  1  0
 27 68  1  0
 29 69  1  0
 29 70  1  0
 30 71  1  0
 30 72  1  0
 31 73  1  0
 31 74  1  0
 33 75  1  0
 33 76  1  0
 33 77  1  0
 34 78  1  0
 34 79  1  0
 34 80  1  0
M  CHG  2  21   1  29   1
M  END
>  <UniqueID>  (13) 
13

>  <SMILES>  (13) 
CCN(C)CCOCCOCCNc1c2ccccc2[n+](C)c2cc(C)cc([NH2+]CCN(C)C)c12

>  <Energy>  (13) 
127.6302782050549

>  <Genealogy>  (13) 
CCN(C)CCOCCOCCNc1c2ccccc2[n+](C)c2cc(C)cc([NH2+]CCN(C)C)c12 (protonated)
CCN(C)CCOCCOCCNc1c2ccccc2[n+](C)c2cc(C)cc([NH2+]CCN(C)C)c12 (3D coordinates assigned)
CCN(C)CCOCCOCCNc1c2ccccc2[n+](C)c2cc(C)cc([NH2+]CCN(C)C)c12 (optimized conformer: 127.6302782050549 kcal/mol)

>  <smiles>  (13) 
CCN(C)CCOCCOCCNc1c2ccccc2[n+](C)c2cc(C)cc(NCCN(C)C)c12

>  <score_type>  (13) 
oracle

>  <origin>  (13) 
adg

>  <m_score__min__energy>  (13) 
-3.71

>  <m_primary>  (13) 
energy

$$$$
14:0
     RDKit          3D

 58 60  0  0  0  0  0  0  0  0999 V2000
   57.7390   31.1670   51.2060 C   0  0  0  0  0  0  0  0  0  0  0  0
   58.7040   31.2570   50.0280 C   0  0  0  0  0  0  0  0  0  0  0  0
   59.1710   32.7020   49.8110 C   0  0  0  0  0  0  0  0  0  0  0  0
   60.6400   32.8220   49.9240 N   0  0  0  0  0  0  0  0  0  0  0  0
   61.1290   32.2700   51.1970 C   0  0  0  0  0  0  0  0  0  0  0  0
   61.2000   34.1700   49.6390 C   0  0  0  0  0  0  0  0  0  0  0  0
   62.4670   34.2170   48.7540 C   0  0  0  0  0  0  0  0  0  0  0  0
   63.2660   32.9850   48.8510 N   0  0  0  0  0  0  0  0  0  0  0  0
   63.5230   32.4110   47.5200 C   0  0  0  0  0  0  0  0  0  0  0  0
   62.5060   31.3090   47.1640 C   0  0  0  0  0  0  0  0  0  0  0  0
   61.1680   31.5340   47.7500 N   0  0  0  0  0  0  0  0  0  0  0  0
   60.0930   31.3000   46.7930 C   0  0  0  0  0  0  0  0  0  0  0  0
   59.4740   32.4000   46.1330 C   0  0  0  0  0  0  0  0  0  0  0  0
   59.9140   33.7330   46.3370 C   0  0  0  0  0  0  0  0  0  0  0  0
   59.2640   34.8080   45.7370 C   0  0  0  0  0  0  0  0  0  0  0  0
   58.1580   34.5890   44.9320 C   0  0  0  0  0  0  0  0  0  0  0  0
   57.7170   33.2920   44.6890 C   0  0  0  0  0  0  0  0  0  0  0  0
   58.3890   32.1700   45.2420 C   0  0  0  0  0  0  0  0  0  0  0  0
   57.9980   30.8840   44.9370 N   0  0  0  0  0  0  0  0  0  0  0  0
   57.1000   30.6390   43.7850 C   0  0  0  0  0  0  0  0  0  0  0  0
   58.4780   29.8190   45.6710 C   0  0  0  0  0  0  0  0  0  0  0  0
   57.8920   28.5310   45.5580 C   0  0  0  0  0  0  0  0  0  0  0  0
   58.4270   27.4330   46.2220 C   0  0  0  0  0  0  0  0  0  0  0  0
   59.5480   27.5840   47.0190 C   0  0  0  0  0  0  0  0  0  0  0  0
   60.1160   28.8420   47.1980 C   0  0  0  0  0  0  0  0  0  0  0  0
   59.5750   29.9920   46.5650 C   0  0  0  0  0  0  0  0  0  0  0  0
   58.3045   31.2197   52.1481 H   0  0  0  0  0  0  0  0  0  0  0  0
   57.0249   32.0024   51.1597 H   0  0  0  0  0  0  0  0  0  0  0  0
   57.1917   30.2139   51.1597 H   0  0  0  0  0  0  0  0  0  0  0  0
   59.5793   30.6223   50.2304 H   0  0  0  0  0  0  0  0  0  0  0  0
   58.1834   30.9163   49.1209 H   0  0  0  0  0  0  0  0  0  0  0  0
   58.8622   33.0300   48.8075 H   0  0  0  0  0  0  0  0  0  0  0  0
   58.7136   33.3318   50.5883 H   0  0  0  0  0  0  0  0  0  0  0  0
   60.6558   32.8041   52.0341 H   0  0  0  0  0  0  0  0  0  0  0  0
   60.8761   31.2010   51.2543 H   0  0  0  0  0  0  0  0  0  0  0  0
   62.2207   32.3921   51.2543 H   0  0  0  0  0  0  0  0  0  0  0  0
   60.4182   34.7571   49.1350 H   0  0  0  0  0  0  0  0  0  0  0  0
   61.5119   34.5684   50.6157 H   0  0  0  0  0  0  0  0  0  0  0  0
   62.1612   34.3580   47.7068 H   0  0  0  0  0  0  0  0  0  0  0  0
   63.0919   35.0503   49.1076 H   0  0  0  0  0  0  0  0  0  0  0  0
   62.6960   32.2870   49.3840 H   0  0  0  0  0  0  0  0  0  0  0  0
   63.4575   33.2117   46.7686 H   0  0  0  0  0  0  0  0  0  0  0  0
   64.5258   31.9591   47.5311 H   0  0  0  0  0  0  0  0  0  0  0  0
   62.4049   31.2681   46.0694 H   0  0  0  0  0  0  0  0  0  0  0  0
   62.8891   30.3662   47.5815 H   0  0  0  0  0  0  0  0  0  0  0  0
   61.1080   32.5200   48.0920 H   0  0  0  0  0  0  0  0  0  0  0  0
   61.0580   31.0070   48.6400 H   0  0  0  0  0  0  0  0  0  0  0  0
   60.7854   33.9209   46.9815 H   0  0  0  0  0  0  0  0  0  0  0  0
   59.6290   35.8324   45.9023 H   0  0  0  0  0  0  0  0  0  0  0  0
   57.6275   35.4422   44.4841 H   0  0  0  0  0  0  0  0  0  0  0  0
   56.8311   33.1328   44.0566 H   0  0  0  0  0  0  0  0  0  0  0  0
   56.0995   30.3660   44.1516 H   0  0  0  0  0  0  0  0  0  0  0  0
   57.0304   31.5510   43.1739 H   0  0  0  0  0  0  0  0  0  0  0  0
   57.5032   29.8180   43.1739 H   0  0  0  0  0  0  0  0  0  0  0  0
   56.9968   28.3991   44.9326 H   0  0  0  0  0  0  0  0  0  0  0  0
   57.9588   26.4435   46.1137 H   0  0  0  0  0  0  0  0  0  0  0  0
   59.9917   26.7069   47.5128 H   0  0  0  0  0  0  0  0  0  0  0  0
   61.0012   28.9473   47.8424 H   0  0  0  0  0  0  0  0  0  0  0  0
  1  2  1  0
  2  3  1  0
  3  4  1  0
  4  5  1  0
  4  6  1  0
  6  7  1  0
  7  8  1  0
  8  9  1  0
  9 10  1  0
 10 11  1  0
 11 12  1  0
 12 13  2  0
 13 14  1  0
 14 15  2  0
 15 16  1  0
 16 17  2  0
 17 18  1  0
 18 19  2  0
 19 20  1  0
 19 21  1  0
 21 22  2  0
 22 23  1  0
 23 24  2  0
 24 25  1  0
 25 26  2  0
 26 12  1  0
 18 13  1  0
 26 21  1  0
  1 27  1  0
  1 28  1  0
  1 29  1  0
  2 30  1  0
  2 31  1  0
  3 32  1  0
  3 33  1  0
  5 34  1  0
  5 35  1  0
  5 36  1  0
  6 37  1  0
  6 38  1  0
  7 39  1  0
  7 40  1  0
  8 41  1  0
  9 42  1  0
  9 43  1  0
 10 44  1  0
 10 45  1  0
 11 46  1  0
 11 47  1  0
 14 48  1  0
 15 49  1  0
 16 50  1  0
 17 51  1  0
 20 52  1  0
 20 53  1  0
 20 54  1  0
 22 55  1  0
 23 56  1  0
 24 57  1  0
 25 58  1  0
M  CHG  2  11   1  19   1
M  END
>  <UniqueID>  (14) 
14

>  <SMILES>  (14) 
CCCN(C)CCNCC[NH2+]c1c2ccccc2[n+](C)c2ccccc12

>  <Energy>  (14) 
82.15667880139002

>  <Genealogy>  (14) 
CCCN(C)CCNCC[NH2+]c1c2ccccc2[n+](C)c2ccccc12 (protonated)
CCCN(C)CCNCC[NH2+]c1c2ccccc2[n+](C)c2ccccc12 (3D coordinates assigned)
CCCN(C)CCNCC[NH2+]c1c2ccccc2[n+](C)c2ccccc12 (optimized conformer: 82.15667880139002 kcal/mol)

>  <smiles>  (14) 
CCCN(C)CCNCCNc1c2ccccc2[n+](C)c2ccccc12

>  <score_type>  (14) 
oracle

>  <origin>  (14) 
adg

>  <m_score__min__energy>  (14) 
-3.7000000000000002

>  <m_primary>  (14) 
energy

$$$$
15:0
     RDKit          3D

 59 58  0  0  0  0  0  0  0  0999 V2000
   59.2300   34.0040   44.5580 C   0  0  0  0  0  0  0  0  0  0  0  0
   57.9080   33.3830   44.1110 C   0  0  0  0  0  0  0  0  0  0  0  0
   58.1110   32.1450   43.3180 N   0  0  0  0  0  0  0  0  0  0  0  0
   58.4370   32.5130   41.9190 C   0  0  0  0  0  0  0  0  0  0  0  0
   57.2360   32.3320   40.9900 C   0  0  0  0  0  0  0  0  0  0  0  0
   56.9180   31.2550   43.3800 C   0  0  0  0  0  0  0  0  0  0  0  0
   57.1820   30.0710   44.2810 C   0  0  0  0  0  0  0  0  0  0  0  0
   56.2700   29.6490   44.9820 O   0  0  0  0  0  0  0  0  0  0  0  0
   58.4680   29.3920   44.2600 N   0  0  1  0  0  0  0  0  0  0  0  0
   59.3300   29.7880   45.3650 C   0  0  0  0  0  0  0  0  0  0  0  0
   59.2140   30.9610   46.0200 C   0  0  0  0  0  0  0  0  0  0  0  0
   59.7370   31.2150   47.4140 C   0  0  0  0  0  0  0  0  0  0  0  0
   58.8050   32.1480   48.2160 C   0  0  2  0  0  0  0  0  0  0  0  0
   57.8130   32.8300   47.2590 C   0  0  0  0  0  0  0  0  0  0  0  0
   59.6310   33.2000   49.0050 C   0  0  0  0  0  0  0  0  0  0  0  0
   60.5570   34.0480   48.1170 C   0  0  0  0  0  0  0  0  0  0  0  0
   62.0160   33.7940   48.4200 C   0  0  0  0  0  0  0  0  0  0  0  0
   62.8810   33.1910   47.5780 C   0  0  0  0  0  0  0  0  0  0  0  0
   63.3990   33.8730   46.3320 C   0  0  0  0  0  0  0  0  0  0  0  0
   63.3640   31.8020   47.9170 C   0  0  0  0  0  0  0  0  0  0  0  0
   58.2990   27.9190   44.2190 C   0  0  0  0  0  0  0  0  0  0  0  0
   58.7070   27.2020   45.5160 C   0  0  0  0  0  0  0  0  0  0  0  0
   59.2726   34.0240   45.6570 H   0  0  0  0  0  0  0  0  0  0  0  0
   60.0666   33.4047   44.1695 H   0  0  0  0  0  0  0  0  0  0  0  0
   59.3028   35.0305   44.1695 H   0  0  0  0  0  0  0  0  0  0  0  0
   57.3116   33.1390   45.0025 H   0  0  0  0  0  0  0  0  0  0  0  0
   57.3906   34.1132   43.4714 H   0  0  0  0  0  0  0  0  0  0  0  0
   58.7524   33.5665   41.8921 H   0  0  0  0  0  0  0  0  0  0  0  0
   59.2425   31.8503   41.5698 H   0  0  0  0  0  0  0  0  0  0  0  0
   56.3250   32.1947   41.5910 H   0  0  0  0  0  0  0  0  0  0  0  0
   57.1257   33.2237   40.3554 H   0  0  0  0  0  0  0  0  0  0  0  0
   57.3934   31.4474   40.3554 H   0  0  0  0  0  0  0  0  0  0  0  0
   56.0627   31.8243   43.7729 H   0  0  0  0  0  0  0  0  0  0  0  0
   56.6981   30.8868   42.3670 H   0  0  0  0  0  0  0  0  0  0  0  0
   58.9660   29.6510   43.3800 H   0  0  0  0  0  0  0  0  0  0  0  0
   60.1197   29.0914   45.6831 H   0  0  0  0  0  0  0  0  0  0  0  0
   58.7043   31.7883   45.5045 H   0  0  0  0  0  0  0  0  0  0  0  0
   59.8202   30.2544   47.9434 H   0  0  0  0  0  0  0  0  0  0  0  0
   60.7179   31.7052   47.3266 H   0  0  0  0  0  0  0  0  0  0  0  0
   58.2389   31.5522   48.9472 H   0  0  0  0  0  0  0  0  0  0  0  0
   57.0447   33.3582   47.8426 H   0  0  0  0  0  0  0  0  0  0  0  0
   58.3512   33.5499   46.6249 H   0  0  0  0  0  0  0  0  0  0  0  0
   57.3336   32.0697   46.6249 H   0  0  0  0  0  0  0  0  0  0  0  0
   58.9323   33.8740   49.5222 H   0  0  0  0  0  0  0  0  0  0  0  0
   60.2738   32.6463   49.7051 H   0  0  0  0  0  0  0  0  0  0  0  0
   60.3642   33.7997   47.0629 H   0  0  0  0  0  0  0  0  0  0  0  0
   60.3463   35.1085   48.3194 H   0  0  0  0  0  0  0  0  0  0  0  0
   62.3999   34.1243   49.3965 H   0  0  0  0  0  0  0  0  0  0  0  0
   64.0416   34.7190   46.6173 H   0  0  0  0  0  0  0  0  0  0  0  0
   63.9814   33.1549   45.7361 H   0  0  0  0  0  0  0  0  0  0  0  0
   62.5509   34.2413   45.7361 H   0  0  0  0  0  0  0  0  0  0  0  0
   63.4048   31.6846   49.0100 H   0  0  0  0  0  0  0  0  0  0  0  0
   62.6713   31.0595   47.4941 H   0  0  0  0  0  0  0  0  0  0  0  0
   64.3679   31.6495   47.4941 H   0  0  0  0  0  0  0  0  0  0  0  0
   57.2395   27.6986   44.0215 H   0  0  0  0  0  0  0  0  0  0  0  0
   58.9663   27.5460   43.4281 H   0  0  0  0  0  0  0  0  0  0  0  0
   58.3715   27.7915   46.3820 H   0  0  0  0  0  0  0  0  0  0  0  0
   58.2401   26.2065   45.5471 H   0  0  0  0  0  0  0  0  0  0  0  0
   59.8013   27.0949   45.5471 H   0  0  0  0  0  0  0  0  0  0  0  0
  1  2  1  0
  2  3  1  0
  3  4  1  0
  4  5  1  0
  3  6  1  0
  6  7  1  0
  7  8  2  0
  7  9  1  0
  9 10  1  0
 10 11  2  3
 11 12  1  0
 12 13  1  0
 13 14  1  0
 13 15  1  0
 15 16  1  0
 16 17  1  0
 17 18  2  3
 18 19  1  0
 18 20  1  0
  9 21  1  0
 21 22  1  0
  1 23  1  0
  1 24  1  0
  1 25  1  0
  2 26  1  0
  2 27  1  0
  4 28  1  0
  4 29  1  0
  5 30  1  0
  5 31  1  0
  5 32  1  0
  6 33  1  0
  6 34  1  0
  9 35  1  6
 10 36  1  0
 11 37  1  0
 12 38  1  0
 12 39  1  0
 13 40  1  1
 14 41  1  0
 14 42  1  0
 14 43  1  0
 15 44  1  0
 15 45  1  0
 16 46  1  0
 16 47  1  0
 17 48  1  0
 19 49  1  0
 19 50  1  0
 19 51  1  0
 20 52  1  0
 20 53  1  0
 20 54  1  0
 21 55  1  0
 21 56  1  0
 22 57  1  0
 22 58  1  0
 22 59  1  0
M  CHG  1   9   1
M  END
>  <UniqueID>  (15) 
15

>  <SMILES>  (15) 
CCN(CC)CC(=O)[N@@H+](C=CC[C@H](C)CCC=C(C)C)CC

>  <Energy>  (15) 
46.076081924062166

>  <Genealogy>  (15) 
CCN(CC)CC(=O)[NH+](C=CCC(C)CCC=C(C)C)CC (protonated)
CCN(CC)CC(=O)[N@@H+](C=CC[C@H](C)CCC=C(C)C)CC (chirality)
CCN(CC)CC(=O)[N@@H+](C=CC[C@H](C)CCC=C(C)C)CC (3D coordinates assigned)
CCN(CC)CC(=O)[N@@H+](C=CC[C@H](C)CCC=C(C)C)CC (optimized conformer: 46.076081924062166 kcal/mol)

>  <smiles>  (15) 
CCN(CC)CC(=O)N(C=CCC(C)CCC=C(C)C)CC

>  <score_type>  (15) 
oracle

>  <origin>  (15) 
adg

>  <m_score__min__energy>  (15) 
-5.1699999999999999

>  <m_primary>  (15) 
energy

$$$$
16:0
     RDKit          3D

 61 62  0  0  0  0  0  0  0  0999 V2000
   57.4260   31.6390   51.2430 C   0  0  0  0  0  0  0  0  0  0  0  0
   58.2250   32.0010   49.9920 C   0  0  0  0  0  0  0  0  0  0  0  0
   59.6730   32.0740   50.3050 N   0  0  0  0  0  0  0  0  0  0  0  0
   60.0680   33.4580   50.6660 C   0  0  0  0  0  0  0  0  0  0  0  0
   59.9990   34.3700   49.4430 C   0  0  0  0  0  0  0  0  0  0  0  0
   60.0260   31.1220   51.3870 C   0  0  0  0  0  0  0  0  0  0  0  0
   61.5350   30.8540   51.4050 C   0  0  0  0  0  0  0  0  0  0  0  0
   62.1300   31.4520   50.2660 O   0  0  0  0  0  0  0  0  0  0  0  0
   63.2560   32.2410   50.6070 C   0  0  0  0  0  0  0  0  0  0  0  0
   64.4310   31.9780   49.6580 C   0  0  0  0  0  0  0  0  0  0  0  0
   64.5600   33.0860   48.7010 N   0  0  0  0  0  0  0  0  0  0  0  0
   63.2890   33.8100   48.5430 C   0  0  0  0  0  0  0  0  0  0  0  0
   62.6030   33.4230   47.2110 C   0  0  1  0  0  0  0  0  0  0  0  0
   63.4090   33.8950   45.9930 C   0  0  0  0  0  0  0  0  0  0  0  0
   62.2060   31.9210   47.1480 C   0  0  0  0  0  0  0  0  0  0  0  0
   61.0220   31.5250   47.9450 N   0  0  0  0  0  0  0  0  0  0  0  0
   59.8370   31.2850   47.1460 C   0  0  0  0  0  0  0  0  0  0  0  0
   59.3310   29.9770   47.0450 C   0  0  0  0  0  0  0  0  0  0  0  0
   58.1850   29.7320   46.2870 C   0  0  0  0  0  0  0  0  0  0  0  0
   57.7170   28.5640   46.2130 O   0  0  0  0  0  0  0  0  0  0  0  0
   57.5820   30.7200   45.6400 O   0  0  0  0  0  0  0  0  0  0  0  0
   58.0320   31.9710   45.6600 C   0  0  0  0  0  0  0  0  0  0  0  0
   57.3510   32.9510   44.9270 C   0  0  0  0  0  0  0  0  0  0  0  0
   57.8200   34.2670   44.9050 C   0  0  0  0  0  0  0  0  0  0  0  0
   58.9790   34.6090   45.6080 C   0  0  0  0  0  0  0  0  0  0  0  0
   59.6680   33.6400   46.3460 C   0  0  0  0  0  0  0  0  0  0  0  0
   59.1930   32.3110   46.4030 C   0  0  0  0  0  0  0  0  0  0  0  0
   58.0077   31.9026   52.1386 H   0  0  0  0  0  0  0  0  0  0  0  0
   56.4769   32.1950   51.2455 H   0  0  0  0  0  0  0  0  0  0  0  0
   57.2182   30.5588   51.2455 H   0  0  0  0  0  0  0  0  0  0  0  0
   58.0592   31.2335   49.2216 H   0  0  0  0  0  0  0  0  0  0  0  0
   57.8895   32.9828   49.6267 H   0  0  0  0  0  0  0  0  0  0  0  0
   59.3860   33.8388   51.4405 H   0  0  0  0  0  0  0  0  0  0  0  0
   61.1012   33.4462   51.0432 H   0  0  0  0  0  0  0  0  0  0  0  0
   59.9198   35.4171   49.7705 H   0  0  0  0  0  0  0  0  0  0  0  0
   60.9093   34.2426   48.8388 H   0  0  0  0  0  0  0  0  0  0  0  0
   59.1182   34.1071   48.8388 H   0  0  0  0  0  0  0  0  0  0  0  0
   59.7238   31.5481   52.3551 H   0  0  0  0  0  0  0  0  0  0  0  0
   59.5013   30.1723   51.2062 H   0  0  0  0  0  0  0  0  0  0  0  0
   61.9738   31.2840   52.3174 H   0  0  0  0  0  0  0  0  0  0  0  0
   61.7171   29.7693   51.3895 H   0  0  0  0  0  0  0  0  0  0  0  0
   62.9793   33.3040   50.5481 H   0  0  0  0  0  0  0  0  0  0  0  0
   63.5689   31.9752   51.6275 H   0  0  0  0  0  0  0  0  0  0  0  0
   65.3590   31.8910   50.2422 H   0  0  0  0  0  0  0  0  0  0  0  0
   64.2488   31.0435   49.1071 H   0  0  0  0  0  0  0  0  0  0  0  0
   64.8110   32.6690   47.7740 H   0  0  0  0  0  0  0  0  0  0  0  0
   62.6220   33.5562   49.3801 H   0  0  0  0  0  0  0  0  0  0  0  0
   63.4953   34.8905   48.5345 H   0  0  0  0  0  0  0  0  0  0  0  0
   61.6490   33.9694   47.1752 H   0  0  0  0  0  0  0  0  0  0  0  0
   64.3117   34.4236   46.3331 H   0  0  0  0  0  0  0  0  0  0  0  0
   63.7003   33.0248   45.3865 H   0  0  0  0  0  0  0  0  0  0  0  0
   62.7926   34.5748   45.3865 H   0  0  0  0  0  0  0  0  0  0  0  0
   62.0018   31.6714   46.0963 H   0  0  0  0  0  0  0  0  0  0  0  0
   63.0533   31.3733   47.5863 H   0  0  0  0  0  0  0  0  0  0  0  0
   60.8370   32.2390   48.6870 H   0  0  0  0  0  0  0  0  0  0  0  0
   61.2510   30.6490   48.4700 H   0  0  0  0  0  0  0  0  0  0  0  0
   59.8373   29.1487   47.5623 H   0  0  0  0  0  0  0  0  0  0  0  0
   56.4432   32.6836   44.3663 H   0  0  0  0  0  0  0  0  0  0  0  0
   57.2769   35.0345   44.3341 H   0  0  0  0  0  0  0  0  0  0  0  0
   59.3508   35.6439   45.5809 H   0  0  0  0  0  0  0  0  0  0  0  0
   60.5862   33.9153   46.8856 H   0  0  0  0  0  0  0  0  0  0  0  0
  1  2  1  0
  2  3  1  0
  3  4  1  0
  4  5  1  0
  3  6  1  0
  6  7  1  0
  7  8  1  0
  8  9  1  0
  9 10  1  0
 10 11  1  0
 11 12  1  0
 12 13  1  0
 13 14  1  0
 13 15  1  0
 15 16  1  0
 16 17  1  0
 17 18  2  0
 18 19  1  0
 19 20  2  0
 19 21  1  0
 21 22  1  0
 22 23  2  0
 23 24  1  0
 24 25  2  0
 25 26  1  0
 26 27  2  0
 27 17  1  0
 27 22  1  0
  1 28  1  0
  1 29  1  0
  1 30  1  0
  2 31  1  0
  2 32  1  0
  4 33  1  0
  4 34  1  0
  5 35  1  0
  5 36  1  0
  5 37  1  0
  6 38  1  0
  6 39  1  0
  7 40  1  0
  7 41  1  0
  9 42  1  0
  9 43  1  0
 10 44  1  0
 10 45  1  0
 11 46  1  0
 12 47  1  0
 12 48  1  0
 13 49  1  1
 14 50  1  0
 14 51  1  0
 14 52  1  0
 15 53  1  0
 15 54  1  0
 16 55  1  0
 16 56  1  0
 18 57  1  0
 23 58  1  0
 24 59  1  0
 25 60  1  0
 26 61  1  0
M  CHG  1  16   1
M  END
>  <UniqueID>  (16) 
16

>  <SMILES>  (16) 
CCN(CC)CCOCCNC[C@@H](C)C[NH2+]c1cc(=O)oc2ccccc12

>  <Energy>  (16) 
67.14876029750718

>  <Genealogy>  (16) 
CCN(CC)CCOCCNCC(C)C[NH2+]c1cc(=O)oc2ccccc12 (protonated)
CCN(CC)CCOCCNC[C@@H](C)C[NH2+]c1cc(=O)oc2ccccc12 (chirality)
CCN(CC)CCOCCNC[C@@H](C)C[NH2+]c1cc(=O)oc2ccccc12 (3D coordinates assigned)
CCN(CC)CCOCCNC[C@@H](C)C[NH2+]c1cc(=O)oc2ccccc12 (optimized conformer: 67.14876029750718 kcal/mol)

>  <smiles>  (16) 
CCN(CC)CCOCCNCC(C)CNc1cc(=O)oc2ccccc12

>  <score_type>  (16) 
oracle

>  <origin>  (16) 
adg

>  <m_score__min__energy>  (16) 
-4.6100000000000003

>  <m_primary>  (16) 
energy

$$$$
17:0
     RDKit          3D

 65 69  0  0  0  0  0  0  0  0999 V2000
   57.1740   33.8200   45.6380 C   0  0  0  0  0  0  0  0  0  0  0  0
   58.1800   33.5440   44.5200 C   0  0  0  0  0  0  0  0  0  0  0  0
   59.4520   34.2230   44.8060 N   0  0  0  0  0  0  0  0  0  0  0  0
   59.4090   34.9840   46.0710 C   0  0  0  0  0  0  0  0  0  0  0  0
   60.3950   34.4280   47.1200 C   0  0  0  0  0  0  0  0  0  0  0  0
   61.2690   33.3740   46.5430 N   0  0  0  0  0  0  0  0  0  0  0  0
   61.2820   32.1820   47.3770 C   0  0  0  0  0  0  0  0  0  0  0  0
   62.2520   32.0610   48.3820 C   0  0  0  0  0  0  0  0  0  0  0  0
   62.2330   31.0200   49.2770 C   0  0  0  0  0  0  0  0  0  0  0  0
   61.1810   30.1440   49.3530 N   0  0  0  0  0  0  0  0  0  0  0  0
   60.9850   29.3400   50.5680 C   0  0  0  0  0  0  0  0  0  0  0  0
   60.2730   30.1200   48.3050 C   0  0  0  0  0  0  0  0  0  0  0  0
   59.3060   29.0960   48.2050 C   0  0  0  0  0  0  0  0  0  0  0  0
   58.4090   29.0440   47.1410 C   0  0  0  0  0  0  0  0  0  0  0  0
   58.4590   29.9850   46.1140 C   0  0  0  0  0  0  0  0  0  0  0  0
   57.5700   29.8770   44.9830 N   0  0  0  0  0  0  0  0  0  0  0  0
   57.8130   29.0750   44.0520 O   0  0  0  0  0  0  0  0  0  0  0  0
   56.4770   30.7050   44.8690 O   0  0  0  0  0  0  0  0  0  0  0  0
   59.4060   31.0190   46.1880 C   0  0  0  0  0  0  0  0  0  0  0  0
   60.3140   31.1270   47.2780 C   0  0  0  0  0  0  0  0  0  0  0  0
   63.4230   31.1640   50.1200 C   0  0  0  0  0  0  0  0  0  0  0  0
   64.0050   30.2460   50.9950 C   0  0  0  0  0  0  0  0  0  0  0  0
   65.2260   30.5730   51.6220 C   0  0  0  0  0  0  0  0  0  0  0  0
   65.8290   31.8280   51.3460 C   0  0  0  0  0  0  0  0  0  0  0  0
   65.2300   32.6840   50.3970 C   0  0  0  0  0  0  0  0  0  0  0  0
   65.7610   33.7900   50.1000 O   0  0  0  0  0  0  0  0  0  0  0  0
   64.0710   32.3020   49.7970 N   0  0  0  0  0  0  0  0  0  0  0  0
   63.3830   32.9980   48.7120 C   0  0  0  0  0  0  0  0  0  0  0  0
   67.0280   32.3070   52.1230 C   0  0  0  0  0  0  0  0  0  0  0  0
   67.7100   31.2580   52.8020 O   0  0  0  0  0  0  0  0  0  0  0  0
   67.0830   30.0930   53.2430 C   0  0  0  0  0  0  0  0  0  0  0  0
   67.6020   29.4450   54.1970 O   0  0  0  0  0  0  0  0  0  0  0  0
   65.8960   29.5230   52.4980 C   0  0  1  0  0  0  0  0  0  0  0  0
   64.9440   29.0790   53.4350 O   0  0  0  0  0  0  0  0  0  0  0  0
   66.3710   28.3300   51.6140 C   0  0  0  0  0  0  0  0  0  0  0  0
   67.6660   28.6060   50.8470 C   0  0  0  0  0  0  0  0  0  0  0  0
   57.6640   33.6856   46.6136 H   0  0  0  0  0  0  0  0  0  0  0  0
   56.8048   34.8526   45.5523 H   0  0  0  0  0  0  0  0  0  0  0  0
   56.3295   33.1204   45.5523 H   0  0  0  0  0  0  0  0  0  0  0  0
   58.3544   32.4604   44.4469 H   0  0  0  0  0  0  0  0  0  0  0  0
   57.7753   33.9229   43.5699 H   0  0  0  0  0  0  0  0  0  0  0  0
   59.6780   34.8760   44.0140 H   0  0  0  0  0  0  0  0  0  0  0  0
   59.6678   36.0326   45.8625 H   0  0  0  0  0  0  0  0  0  0  0  0
   58.3929   34.8966   46.4831 H   0  0  0  0  0  0  0  0  0  0  0  0
   61.0243   35.2508   47.4900 H   0  0  0  0  0  0  0  0  0  0  0  0
   59.8115   33.9816   47.9387 H   0  0  0  0  0  0  0  0  0  0  0  0
   60.9760   33.1770   45.5640 H   0  0  0  0  0  0  0  0  0  0  0  0
   62.2490   33.7440   46.4630 H   0  0  0  0  0  0  0  0  0  0  0  0
   61.1391   29.9722   51.4549 H   0  0  0  0  0  0  0  0  0  0  0  0
   59.9620   28.9358   50.5791 H   0  0  0  0  0  0  0  0  0  0  0  0
   61.7072   28.5104   50.5791 H   0  0  0  0  0  0  0  0  0  0  0  0
   59.2601   28.3219   48.9851 H   0  0  0  0  0  0  0  0  0  0  0  0
   57.6498   28.2486   47.1106 H   0  0  0  0  0  0  0  0  0  0  0  0
   59.4470   31.7658   45.3814 H   0  0  0  0  0  0  0  0  0  0  0  0
   63.5181   29.2798   51.1934 H   0  0  0  0  0  0  0  0  0  0  0  0
   63.0039   33.9754   49.0452 H   0  0  0  0  0  0  0  0  0  0  0  0
   64.0334   33.2168   47.8523 H   0  0  0  0  0  0  0  0  0  0  0  0
   67.7296   32.7855   51.4239 H   0  0  0  0  0  0  0  0  0  0  0  0
   66.6639   33.0095   52.8872 H   0  0  0  0  0  0  0  0  0  0  0  0
   65.3970   28.9450   54.3060 H   0  0  0  0  0  0  0  0  0  0  0  0
   66.5330   27.4587   52.2656 H   0  0  0  0  0  0  0  0  0  0  0  0
   65.5858   28.1550   50.8638 H   0  0  0  0  0  0  0  0  0  0  0  0
   68.4847   28.7805   51.5606 H   0  0  0  0  0  0  0  0  0  0  0  0
   67.9093   27.7395   50.2145 H   0  0  0  0  0  0  0  0  0  0  0  0
   67.5349   29.4964   50.2145 H   0  0  0  0  0  0  0  0  0  0  0  0
  1  2  1  0
  2  3  1  0
  3  4  1  0
  4  5  1  0
  5  6  1  0
  6  7  1  0
  7  8  2  0
  8  9  1  0
  9 10  2  0
 10 11  1  0
 10 12  1  0
 12 13  2  0
 13 14  1  0
 14 15  2  0
 15 16  1  0
 16 17  2  0
 16 18  1  0
 15 19  1  0
 19 20  2  0
  9 21  1  0
 21 22  2  0
 22 23  1  0
 23 24  2  0
 24 25  1  0
 25 26  2  0
 25 27  1  0
 27 28  1  0
 24 29  1  0
 29 30  1  0
 30 31  1  0
 31 32  2  0
 31 33  1  0
 33 34  1  1
 33 35  1  0
 35 36  1  0
 20  7  1  0
 27 21  1  0
 28  8  1  0
 20 12  1  0
 33 23  1  0
  1 37  1  0
  1 38  1  0
  1 39  1  0
  2 40  1  0
  2 41  1  0
  3 42  1  0
  4 43  1  0
  4 44  1  0
  5 45  1  0
  5 46  1  0
  6 47  1  0
  6 48  1  0
 11 49  1  0
 11 50  1  0
 11 51  1  0
 13 52  1  0
 14 53  1  0
 19 54  1  0
 22 55  1  0
 28 56  1  0
 28 57  1  0
 29 58  1  0
 29 59  1  0
 34 60  1  0
 35 61  1  0
 35 62  1  0
 36 63  1  0
 36 64  1  0
 36 65  1  0
M  CHG  4   6   1  10   1  16   1  18  -1
M  END
>  <UniqueID>  (17) 
17

>  <SMILES>  (17) 
CCNCC[NH2+]c1c2c([n+](C)c3ccc([N+](=O)[O-])cc13)-c1cc3c(c(=O)n1C2)COC(=O)[C@]3(O)CC

>  <Energy>  (17) 
124.87508462296245

>  <Genealogy>  (17) 
CCNCC[NH2+]c1c2c([n+](C)c3ccc([N+](=O)[O-])cc13)-c1cc3c(c(=O)n1C2)COC(=O)C3(O)CC (protonated)
CCNCC[NH2+]c1c2c([n+](C)c3ccc([N+](=O)[O-])cc13)-c1cc3c(c(=O)n1C2)COC(=O)[C@]3(O)CC (chirality)
CCNCC[NH2+]c1c2c([n+](C)c3ccc([N+](=O)[O-])cc13)-c1cc3c(c(=O)n1C2)COC(=O)[C@]3(O)CC (3D coordinates assigned)
CCNCC[NH2+]c1c2c([n+](C)c3ccc([N+](=O)[O-])cc13)-c1cc3c(c(=O)n1C2)COC(=O)[C@]3(O)CC (nonaromatic ring conformer: 124.87508462296245 kcal/mol)

>  <smiles>  (17) 
CCNCCNc1c2c([n+](C)c3ccc([N+](=O)[O-])cc13)-c1cc3c(c(=O)n1C2)COC(=O)C3(O)CC

>  <score_type>  (17) 
oracle

>  <origin>  (17) 
adg

>  <m_score__min__energy>  (17) 
-4.5700000000000003

>  <m_primary>  (17) 
energy

$$$$
18:0
     RDKit          3D

 56 58  0  0  0  0  0  0  0  0999 V2000
   61.2470   34.1920   48.8150 C   0  0  0  0  0  0  0  0  0  0  0  0
   59.8570   33.6340   49.0970 C   0  0  0  0  0  0  0  0  0  0  0  0
   58.8970   34.2620   48.2680 O   0  0  0  0  0  0  0  0  0  0  0  0
   59.5020   34.8590   47.1340 C   0  0  0  0  0  0  0  0  0  0  0  0
   59.6360   33.8500   45.9750 C   0  0  0  0  0  0  0  0  0  0  0  0
   58.7550   32.6630   46.1150 N   0  0  2  0  0  0  0  0  0  0  0  0
   59.5630   31.4240   45.9760 C   0  0  0  0  0  0  0  0  0  0  0  0
   58.6650   30.1770   45.7800 C   0  0  2  0  0  0  0  0  0  0  0  0
   59.4750   28.8900   45.7830 C   0  0  0  0  0  0  0  0  0  0  0  0
   60.6930   28.9460   45.4470 O   0  0  0  0  0  0  0  0  0  0  0  0
   58.8910   27.5980   46.0900 N   0  0  0  0  0  0  0  0  0  0  0  0
   57.4890   27.4280   46.5180 C   0  0  0  0  0  0  0  0  0  0  0  0
   56.8410   26.2540   45.7710 C   0  0  0  0  0  0  0  0  0  0  0  0
   57.7360   25.0890   45.7090 N   0  0  0  0  0  0  0  0  0  0  0  0
   57.4300   24.0050   44.8110 C   0  0  0  0  0  0  0  0  0  0  0  0
   56.3410   24.1070   43.9280 C   0  0  0  0  0  0  0  0  0  0  0  0
   56.0230   23.0510   43.0660 C   0  0  0  0  0  0  0  0  0  0  0  0
   56.7880   21.8820   43.0800 C   0  0  0  0  0  0  0  0  0  0  0  0
   57.8740   21.7710   43.9530 C   0  0  0  0  0  0  0  0  0  0  0  0
   58.1980   22.8250   44.8160 C   0  0  0  0  0  0  0  0  0  0  0  0
   59.2770   22.7060   45.6300 F   0  0  0  0  0  0  0  0  0  0  0  0
   59.0230   25.1300   46.4130 C   0  0  0  0  0  0  0  0  0  0  0  0
   59.7710   26.4130   46.0400 C   0  0  0  0  0  0  0  0  0  0  0  0
   57.8350   30.2940   44.4710 C   0  0  0  0  0  0  0  0  0  0  0  0
   57.6690   31.7420   43.9770 C   0  0  0  0  0  0  0  0  0  0  0  0
   57.6760   32.6980   45.1390 C   0  0  0  0  0  0  0  0  0  0  0  0
   56.7310   33.4590   45.2900 O   0  0  0  0  0  0  0  0  0  0  0  0
   61.7595   34.3977   49.7663 H   0  0  0  0  0  0  0  0  0  0  0  0
   61.8270   33.4570   48.2376 H   0  0  0  0  0  0  0  0  0  0  0  0
   61.1578   35.1240   48.2376 H   0  0  0  0  0  0  0  0  0  0  0  0
   59.8538   32.5518   48.9001 H   0  0  0  0  0  0  0  0  0  0  0  0
   59.6013   33.8268   50.1493 H   0  0  0  0  0  0  0  0  0  0  0  0
   58.8837   35.7061   46.8021 H   0  0  0  0  0  0  0  0  0  0  0  0
   60.5090   35.1998   47.4163 H   0  0  0  0  0  0  0  0  0  0  0  0
   59.3813   34.3632   45.0360 H   0  0  0  0  0  0  0  0  0  0  0  0
   60.6734   33.4844   45.9841 H   0  0  0  0  0  0  0  0  0  0  0  0
   58.3310   32.6480   47.0740 H   0  0  0  0  0  0  0  0  0  0  0  0
   60.2268   31.5265   45.1049 H   0  0  0  0  0  0  0  0  0  0  0  0
   60.1451   31.2873   46.8993 H   0  0  0  0  0  0  0  0  0  0  0  0
   57.9729   30.1364   46.6340 H   0  0  0  0  0  0  0  0  0  0  0  0
   57.4616   27.2291   47.5995 H   0  0  0  0  0  0  0  0  0  0  0  0
   56.9316   28.3483   46.2892 H   0  0  0  0  0  0  0  0  0  0  0  0
   55.9165   25.9660   46.2929 H   0  0  0  0  0  0  0  0  0  0  0  0
   56.6278   26.5780   44.7417 H   0  0  0  0  0  0  0  0  0  0  0  0
   55.7338   25.0241   43.9143 H   0  0  0  0  0  0  0  0  0  0  0  0
   55.1702   23.1416   42.3771 H   0  0  0  0  0  0  0  0  0  0  0  0
   56.5361   21.0505   42.4053 H   0  0  0  0  0  0  0  0  0  0  0  0
   58.4771   20.8511   43.9621 H   0  0  0  0  0  0  0  0  0  0  0  0
   58.8473   25.1110   47.4987 H   0  0  0  0  0  0  0  0  0  0  0  0
   59.6265   24.2574   46.1227 H   0  0  0  0  0  0  0  0  0  0  0  0
   60.6026   26.5576   46.7453 H   0  0  0  0  0  0  0  0  0  0  0  0
   60.1394   26.3053   45.0091 H   0  0  0  0  0  0  0  0  0  0  0  0
   58.3406   29.7138   43.6851 H   0  0  0  0  0  0  0  0  0  0  0  0
   56.8281   29.9096   44.6908 H   0  0  0  0  0  0  0  0  0  0  0  0
   58.4983   31.9906   43.2985 H   0  0  0  0  0  0  0  0  0  0  0  0
   56.7082   31.8303   43.4488 H   0  0  0  0  0  0  0  0  0  0  0  0
  1  2  1  0
  2  3  1  0
  3  4  1  0
  4  5  1  0
  5  6  1  0
  6  7  1  0
  7  8  1  0
  8  9  1  0
  9 10  2  0
  9 11  1  0
 11 12  1  0
 12 13  1  0
 13 14  1  0
 14 15  1  0
 15 16  2  0
 16 17  1  0
 17 18  2  0
 18 19  1  0
 19 20  2  0
 20 21  1  0
 14 22  1  0
 22 23  1  0
  8 24  1  0
 24 25  1  0
 25 26  1  0
 26 27  2  0
 26  6  1  0
 23 11  1  0
 20 15  1  0
  1 28  1  0
  1 29  1  0
  1 30  1  0
  2 31  1  0
  2 32  1  0
  4 33  1  0
  4 34  1  0
  5 35  1  0
  5 36  1  0
  6 37  1  1
  7 38  1  0
  7 39  1  0
  8 40  1  1
 12 41  1  0
 12 42  1  0
 13 43  1  0
 13 44  1  0
 16 45  1  0
 17 46  1  0
 18 47  1  0
 19 48  1  0
 22 49  1  0
 22 50  1  0
 23 51  1  0
 23 52  1  0
 24 53  1  0
 24 54  1  0
 25 55  1  0
 25 56  1  0
M  CHG  1   6   1
M  END
>  <UniqueID>  (18) 
18

>  <SMILES>  (18) 
CCOCC[N@@H+]1C[C@H](C(=O)N2CCN(c3ccccc3F)CC2)CCC1=O

>  <Energy>  (18) 
71.51284914469979

>  <Genealogy>  (18) 
CCOCC[NH+]1CC(C(=O)N2CCN(c3ccccc3F)CC2)CCC1=O (protonated)
CCOCC[N@@H+]1C[C@H](C(=O)N2CCN(c3ccccc3F)CC2)CCC1=O (chirality)
CCOCC[N@@H+]1C[C@H](C(=O)N2CCN(c3ccccc3F)CC2)CCC1=O (3D coordinates assigned)
CCOCC[N@@H+]1C[C@H](C(=O)N2CCN(c3ccccc3F)CC2)CCC1=O (nonaromatic ring conformer: 71.51284914469979 kcal/mol)

>  <smiles>  (18) 
CCOCCN1CC(C(=O)N2CCN(c3ccccc3F)CC2)CCC1=O

>  <score_type>  (18) 
oracle

>  <origin>  (18) 
adg

>  <m_score__min__energy>  (18) 
-6.4500000000000002

>  <m_primary>  (18) 
energy

$$$$
19:0
     RDKit          3D

 65 67  0  0  0  0  0  0  0  0999 V2000
   57.4270   30.4770   43.7490 C   0  0  0  0  0  0  0  0  0  0  0  0
   58.2640   30.9800   44.8570 N   0  0  0  0  0  0  0  0  0  0  0  0
   59.0450   30.1160   45.6120 C   0  0  0  0  0  0  0  0  0  0  0  0
   58.9440   28.7090   45.4750 C   0  0  0  0  0  0  0  0  0  0  0  0
   59.7310   27.8530   46.2450 C   0  0  0  0  0  0  0  0  0  0  0  0
   60.6200   28.3670   47.1830 C   0  0  0  0  0  0  0  0  0  0  0  0
   60.7300   29.7430   47.3630 C   0  0  0  0  0  0  0  0  0  0  0  0
   59.9650   30.6340   46.5840 C   0  0  0  0  0  0  0  0  0  0  0  0
   60.0490   32.0290   46.7850 C   0  0  0  0  0  0  0  0  0  0  0  0
   61.0240   32.6250   47.6600 N   0  0  0  0  0  0  0  0  0  0  0  0
   61.6260   33.9210   47.3430 C   0  0  0  0  0  0  0  0  0  0  0  0
   63.1290   33.9260   47.6630 C   0  0  0  0  0  0  0  0  0  0  0  0
   63.8520   32.8860   46.9130 N   0  0  0  0  0  0  0  0  0  0  0  0
   63.7270   31.5880   47.5950 C   0  0  0  0  0  0  0  0  0  0  0  0
   63.8330   31.7300   49.1270 C   0  0  0  0  0  0  0  0  0  0  0  0
   62.6130   31.2520   49.8030 N   0  0  0  0  0  0  0  0  0  0  0  0
   62.7960   31.0230   51.2470 C   0  0  0  0  0  0  0  0  0  0  0  0
   62.7660   32.3440   52.0260 C   0  0  0  0  0  0  0  0  0  0  0  0
   61.3880   33.0480   52.0070 C   0  0  0  0  0  0  0  0  0  0  0  0
   60.7600   33.0670   50.6730 N   0  0  0  0  0  0  0  0  0  0  0  0
   59.3540   33.4940   50.7300 C   0  0  0  0  0  0  0  0  0  0  0  0
   58.4840   32.5490   49.8930 C   0  0  0  0  0  0  0  0  0  0  0  0
   58.7230   31.0760   50.2450 C   0  0  0  0  0  0  0  0  0  0  0  0
   60.1050   30.6900   49.9660 N   0  0  0  0  0  0  0  0  0  0  0  0
   59.1400   32.8310   46.1120 C   0  0  0  0  0  0  0  0  0  0  0  0
   58.9100   34.4850   46.2600 S   0  0  0  0  0  0  0  0  0  0  0  0
   57.6690   34.5840   45.1260 C   0  0  0  0  0  0  0  0  0  0  0  0
   57.4230   33.3130   44.6190 C   0  0  0  0  0  0  0  0  0  0  0  0
   58.2630   32.3190   45.1700 C   0  0  0  0  0  0  0  0  0  0  0  0
   56.5523   29.9514   44.1596 H   0  0  0  0  0  0  0  0  0  0  0  0
   57.0900   31.3223   43.1311 H   0  0  0  0  0  0  0  0  0  0  0  0
   58.0153   29.7827   43.1311 H   0  0  0  0  0  0  0  0  0  0  0  0
   58.2336   28.2854   44.7498 H   0  0  0  0  0  0  0  0  0  0  0  0
   59.6481   26.7645   46.1096 H   0  0  0  0  0  0  0  0  0  0  0  0
   61.2381   27.6842   47.7844 H   0  0  0  0  0  0  0  0  0  0  0  0
   61.4214   30.1390   48.1214 H   0  0  0  0  0  0  0  0  0  0  0  0
   61.0490   32.3130   48.6560 H   0  0  0  0  0  0  0  0  0  0  0  0
   61.4860   34.1298   46.2721 H   0  0  0  0  0  0  0  0  0  0  0  0
   61.1360   34.6928   47.9547 H   0  0  0  0  0  0  0  0  0  0  0  0
   63.5457   34.9094   47.3996 H   0  0  0  0  0  0  0  0  0  0  0  0
   63.2503   33.7194   48.7366 H   0  0  0  0  0  0  0  0  0  0  0  0
   63.4650   32.8200   45.9450 H   0  0  0  0  0  0  0  0  0  0  0  0
   64.8670   33.1430   46.8610 H   0  0  0  0  0  0  0  0  0  0  0  0
   62.7502   31.1479   47.3455 H   0  0  0  0  0  0  0  0  0  0  0  0
   64.5511   30.9437   47.2548 H   0  0  0  0  0  0  0  0  0  0  0  0
   64.6915   31.1406   49.4814 H   0  0  0  0  0  0  0  0  0  0  0  0
   63.9626   32.7961   49.3652 H   0  0  0  0  0  0  0  0  0  0  0  0
   61.8820   31.9930   49.6880 H   0  0  0  0  0  0  0  0  0  0  0  0
   61.9878   30.3725   51.6124 H   0  0  0  0  0  0  0  0  0  0  0  0
   63.7761   30.5486   51.4031 H   0  0  0  0  0  0  0  0  0  0  0  0
   63.0350   32.1361   53.0721 H   0  0  0  0  0  0  0  0  0  0  0  0
   63.4795   33.0222   51.5351 H   0  0  0  0  0  0  0  0  0  0  0  0
   60.7171   32.5206   52.7010 H   0  0  0  0  0  0  0  0  0  0  0  0
   61.5530   34.0943   52.3038 H   0  0  0  0  0  0  0  0  0  0  0  0
   60.8180   32.1200   50.2370 H   0  0  0  0  0  0  0  0  0  0  0  0
   59.0101   33.4761   51.7747 H   0  0  0  0  0  0  0  0  0  0  0  0
   59.2700   34.5139   50.3266 H   0  0  0  0  0  0  0  0  0  0  0  0
   57.4258   32.7890   50.0735 H   0  0  0  0  0  0  0  0  0  0  0  0
   58.7526   32.6910   48.8358 H   0  0  0  0  0  0  0  0  0  0  0  0
   58.5154   30.9231   51.3143 H   0  0  0  0  0  0  0  0  0  0  0  0
   58.0542   30.4552   49.6308 H   0  0  0  0  0  0  0  0  0  0  0  0
   60.6670   30.8690   50.8310 H   0  0  0  0  0  0  0  0  0  0  0  0
   60.4880   31.3330   49.2360 H   0  0  0  0  0  0  0  0  0  0  0  0
   57.1399   35.5032   44.8343 H   0  0  0  0  0  0  0  0  0  0  0  0
   56.6513   33.1021   43.8641 H   0  0  0  0  0  0  0  0  0  0  0  0
  1  2  1  0
  2  3  2  0
  3  4  1  0
  4  5  2  0
  5  6  1  0
  6  7  2  0
  7  8  1  0
  8  9  2  0
  9 10  1  0
 10 11  1  0
 11 12  1  0
 12 13  1  0
 13 14  1  0
 14 15  1  0
 15 16  1  0
 16 17  1  0
 17 18  1  0
 18 19  1  0
 19 20  1  0
 20 21  1  0
 21 22  1  0
 22 23  1  0
 23 24  1  0
  9 25  1  0
 25 26  1  0
 26 27  1  0
 27 28  2  0
 28 29  1  0
 29  2  1  0
  8  3  1  0
 29 25  2  0
  1 30  1  0
  1 31  1  0
  1 32  1  0
  4 33  1  0
  5 34  1  0
  6 35  1  0
  7 36  1  0
 10 37  1  0
 11 38  1  0
 11 39  1  0
 12 40  1  0
 12 41  1  0
 13 42  1  0
 13 43  1  0
 14 44  1  0
 14 45  1  0
 15 46  1  0
 15 47  1  0
 16 48  1  0
 17 49  1  0
 17 50  1  0
 18 51  1  0
 18 52  1  0
 19 53  1  0
 19 54  1  0
 20 55  1  0
 21 56  1  0
 21 57  1  0
 22 58  1  0
 22 59  1  0
 23 60  1  0
 23 61  1  0
 24 62  1  0
 24 63  1  0
 27 64  1  0
 28 65  1  0
M  CHG  2   2   1  13   1
M  END
>  <UniqueID>  (19) 
19

>  <SMILES>  (19) 
C[n+]1c2ccccc2c(NCC[NH2+]CCNCCCNCCCN)c2sccc21

>  <Energy>  (19) 
102.80266652081612

>  <Genealogy>  (19) 
C[n+]1c2ccccc2c(NCC[NH2+]CCNCCCNCCCN)c2sccc21 (protonated)
C[n+]1c2ccccc2c(NCC[NH2+]CCNCCCNCCCN)c2sccc21 (3D coordinates assigned)
C[n+]1c2ccccc2c(NCC[NH2+]CCNCCCNCCCN)c2sccc21 (optimized conformer: 102.80266652081612 kcal/mol)

>  <smiles>  (19) 
C[n+]1c2ccccc2c(NCCNCCNCCCNCCCN)c2sccc21

>  <score_type>  (19) 
oracle

>  <origin>  (19) 
adg

>  <m_score__min__energy>  (19) 
-4.8600000000000003

>  <m_primary>  (19) 
energy

$$$$
20:0
     RDKit          3D

 44 47  0  0  0  0  0  0  0  0999 V2000
   56.7220   23.1390   43.6930 C   0  0  0  0  0  0  0  0  0  0  0  0
   56.1220   24.0160   44.6900 N   0  0  0  0  0  0  0  0  0  0  0  0
   54.8130   24.2140   44.9270 C   0  0  0  0  0  0  0  0  0  0  0  0
   54.6320   25.0100   45.9990 N   0  0  0  0  0  0  0  0  0  0  0  0
   55.8340   25.3200   46.4650 N   0  0  0  0  0  0  0  0  0  0  0  0
   56.7300   24.7100   45.6680 C   0  0  0  0  0  0  0  0  0  0  0  0
   58.5040   24.7770   45.9280 S   0  0  0  0  0  0  0  0  0  0  0  0
   58.6850   26.5080   45.3610 C   0  0  0  0  0  0  0  0  0  0  0  0
   57.7850   27.4860   46.1320 C   0  0  0  0  0  0  0  0  0  0  0  0
   56.7230   28.1570   45.2450 C   0  0  0  0  0  0  0  0  0  0  0  0
   56.8100   29.6280   45.3310 N   0  0  0  0  0  0  0  0  0  0  0  0
   56.2030   30.3110   44.1790 C   0  0  0  0  0  0  0  0  0  0  0  0
   56.9390   31.6280   43.9970 C   0  0  2  0  0  0  0  0  0  0  0  0
   58.2680   31.5890   43.2570 C   0  0  0  0  0  0  0  0  0  0  0  0
   58.2340   31.4800   44.7770 C   0  0  1  0  0  0  0  0  0  0  0  0
   58.5830   32.6810   45.6180 C   0  0  0  0  0  0  0  0  0  0  0  0
   58.5980   32.5870   47.0190 C   0  0  0  0  0  0  0  0  0  0  0  0
   58.9630   33.6910   47.7950 C   0  0  0  0  0  0  0  0  0  0  0  0
   59.3190   34.8940   47.1790 C   0  0  0  0  0  0  0  0  0  0  0  0
   59.3190   34.9910   45.7860 C   0  0  0  0  0  0  0  0  0  0  0  0
   59.6700   36.1540   45.1880 F   0  0  0  0  0  0  0  0  0  0  0  0
   58.9610   33.8860   45.0060 C   0  0  0  0  0  0  0  0  0  0  0  0
   58.1990   30.0950   45.4060 C   0  0  0  0  0  0  0  0  0  0  0  0
   57.2737   22.3326   44.1984 H   0  0  0  0  0  0  0  0  0  0  0  0
   55.9314   22.7040   43.0640 H   0  0  0  0  0  0  0  0  0  0  0  0
   57.4139   23.7183   43.0640 H   0  0  0  0  0  0  0  0  0  0  0  0
   53.9986   23.7835   44.3258 H   0  0  0  0  0  0  0  0  0  0  0  0
   59.7329   26.8140   45.4962 H   0  0  0  0  0  0  0  0  0  0  0  0
   58.3819   26.5430   44.3042 H   0  0  0  0  0  0  0  0  0  0  0  0
   57.2730   26.9330   46.9333 H   0  0  0  0  0  0  0  0  0  0  0  0
   58.4314   28.2827   46.5289 H   0  0  0  0  0  0  0  0  0  0  0  0
   56.8800   27.8484   44.2009 H   0  0  0  0  0  0  0  0  0  0  0  0
   55.7280   27.8451   45.5953 H   0  0  0  0  0  0  0  0  0  0  0  0
   56.3089   29.6924   43.2756 H   0  0  0  0  0  0  0  0  0  0  0  0
   55.1301   30.4841   44.3491 H   0  0  0  0  0  0  0  0  0  0  0  0
   56.0825   32.3107   43.8956 H   0  0  0  0  0  0  0  0  0  0  0  0
   58.5335   30.7122   42.6480 H   0  0  0  0  0  0  0  0  0  0  0  0
   58.7766   32.2441   42.5343 H   0  0  0  0  0  0  0  0  0  0  0  0
   58.3215   31.6411   47.5077 H   0  0  0  0  0  0  0  0  0  0  0  0
   58.9700   33.6128   48.8922 H   0  0  0  0  0  0  0  0  0  0  0  0
   59.5990   35.7639   47.7912 H   0  0  0  0  0  0  0  0  0  0  0  0
   58.9759   33.9621   43.9087 H   0  0  0  0  0  0  0  0  0  0  0  0
   58.8585   29.4110   44.8517 H   0  0  0  0  0  0  0  0  0  0  0  0
   58.5479   30.1271   46.4487 H   0  0  0  0  0  0  0  0  0  0  0  0
  1  2  1  0
  2  3  1  0
  3  4  2  0
  4  5  1  0
  5  6  2  0
  6  7  1  0
  7  8  1  0
  8  9  1  0
  9 10  1  0
 10 11  1  0
 11 12  1  0
 12 13  1  0
 13 14  1  0
 14 15  1  0
 15 16  1  1
 16 17  2  0
 17 18  1  0
 18 19  2  0
 19 20  1  0
 20 21  1  0
 20 22  2  0
 15 23  1  0
  6  2  1  0
 23 11  1  0
 15 13  1  0
 22 16  1  0
  1 24  1  0
  1 25  1  0
  1 26  1  0
  3 27  1  0
  8 28  1  0
  8 29  1  0
  9 30  1  0
  9 31  1  0
 10 32  1  0
 10 33  1  0
 12 34  1  0
 12 35  1  0
 13 36  1  1
 14 37  1  0
 14 38  1  0
 17 39  1  0
 18 40  1  0
 19 41  1  0
 22 42  1  0
 23 43  1  0
 23 44  1  0
M  END
>  <UniqueID>  (20) 
20

>  <SMILES>  (20) 
Cn1cnnc1SCCCN1C[C@@H]2C[C@]2(c2cccc(F)c2)C1

>  <Energy>  (20) 
345.3920683956342

>  <Genealogy>  (20) 
Cn1cnnc1SCCCN1C[C@@H]2C[C@]2(c2cccc(F)c2)C1 (chirality)
Cn1cnnc1SCCCN1C[C@@H]2C[C@]2(c2cccc(F)c2)C1 (3D coordinates assigned)
Cn1cnnc1SCCCN1C[C@@H]2C[C@]2(c2cccc(F)c2)C1 (nonaromatic ring conformer: 345.3920683956342 kcal/mol)

>  <smiles>  (20) 
Cn1cnnc1SCCCN1CC2CC2(c2cccc(F)c2)C1

>  <score_type>  (20) 
oracle

>  <origin>  (20) 
adg

>  <m_score__min__energy>  (20) 
-8.3800000000000008

>  <m_primary>  (20) 
energy

$$$$
21:0
     RDKit          3D

 45 46  0  0  0  0  0  0  0  0999 V2000
   56.2070   20.1590   44.6940 C   0  0  0  0  0  0  0  0  0  0  0  0
   56.4570   21.6540   44.8790 C   0  0  0  0  0  0  0  0  0  0  0  0
   55.7230   22.4530   43.8700 N   0  0  0  0  0  0  0  0  0  0  0  0
   56.6370   23.0540   42.8720 C   0  0  0  0  0  0  0  0  0  0  0  0
   57.0310   24.4630   43.3030 C   0  0  0  0  0  0  0  0  0  0  0  0
   54.7860   23.4480   44.4490 C   0  0  0  0  0  0  0  0  0  0  0  0
   54.8710   23.5870   45.9820 C   0  0  0  0  0  0  0  0  0  0  0  0
   55.0010   24.9530   46.3280 O   0  0  0  0  0  0  0  0  0  0  0  0
   56.3640   25.3070   46.4600 C   0  0  0  0  0  0  0  0  0  0  0  0
   56.5960   26.6650   45.9510 C   0  0  0  0  0  0  0  0  0  0  0  0
   56.7740   27.7820   45.5340 C   0  0  0  0  0  0  0  0  0  0  0  0
   56.9810   29.1110   45.0300 C   0  0  0  0  0  0  0  0  0  0  0  0
   56.6350   29.5510   43.7710 C   0  0  0  0  0  0  0  0  0  0  0  0
   57.0080   30.8760   43.7260 C   0  0  0  0  0  0  0  0  0  0  0  0
   57.5590   31.1610   44.9680 C   0  0  0  0  0  0  0  0  0  0  0  0
   58.1100   32.4600   45.4230 C   0  0  0  0  0  0  0  0  0  0  0  0
   58.3910   33.4640   44.4780 C   0  0  0  0  0  0  0  0  0  0  0  0
   58.9100   34.6970   44.8860 C   0  0  0  0  0  0  0  0  0  0  0  0
   59.1520   34.9420   46.2400 C   0  0  0  0  0  0  0  0  0  0  0  0
   59.6540   36.1390   46.6330 F   0  0  0  0  0  0  0  0  0  0  0  0
   58.8770   33.9530   47.1870 C   0  0  0  0  0  0  0  0  0  0  0  0
   58.3580   32.7190   46.7850 C   0  0  0  0  0  0  0  0  0  0  0  0
   57.5270   30.0830   45.7220 O   0  0  0  0  0  0  0  0  0  0  0  0
   56.1262   19.6761   45.6790 H   0  0  0  0  0  0  0  0  0  0  0  0
   55.2715   20.0101   44.1349 H   0  0  0  0  0  0  0  0  0  0  0  0
   57.0432   19.7138   44.1349 H   0  0  0  0  0  0  0  0  0  0  0  0
   56.1222   21.9513   45.8837 H   0  0  0  0  0  0  0  0  0  0  0  0
   57.5334   21.8433   44.7547 H   0  0  0  0  0  0  0  0  0  0  0  0
   57.5413   22.4335   42.7868 H   0  0  0  0  0  0  0  0  0  0  0  0
   56.1249   23.1051   41.8998 H   0  0  0  0  0  0  0  0  0  0  0  0
   57.0468   24.5195   44.4014 H   0  0  0  0  0  0  0  0  0  0  0  0
   58.0301   24.7010   42.9092 H   0  0  0  0  0  0  0  0  0  0  0  0
   56.3002   25.1847   42.9092 H   0  0  0  0  0  0  0  0  0  0  0  0
   55.0063   24.4286   44.0020 H   0  0  0  0  0  0  0  0  0  0  0  0
   53.7704   23.0914   44.2222 H   0  0  0  0  0  0  0  0  0  0  0  0
   53.9567   23.1792   46.4379 H   0  0  0  0  0  0  0  0  0  0  0  0
   55.7457   23.0316   46.3514 H   0  0  0  0  0  0  0  0  0  0  0  0
   56.6472   25.2655   47.5221 H   0  0  0  0  0  0  0  0  0  0  0  0
   56.9725   24.6004   45.8766 H   0  0  0  0  0  0  0  0  0  0  0  0
   56.1601   28.9663   42.9694 H   0  0  0  0  0  0  0  0  0  0  0  0
   56.8928   31.5677   42.8785 H   0  0  0  0  0  0  0  0  0  0  0  0
   58.2011   33.2778   43.4106 H   0  0  0  0  0  0  0  0  0  0  0  0
   59.1280   35.4751   44.1396 H   0  0  0  0  0  0  0  0  0  0  0  0
   59.0695   34.1458   48.2527 H   0  0  0  0  0  0  0  0  0  0  0  0
   58.1420   31.9456   47.5368 H   0  0  0  0  0  0  0  0  0  0  0  0
  1  2  1  0
  2  3  1  0
  3  4  1  0
  4  5  1  0
  3  6  1  0
  6  7  1  0
  7  8  1  0
  8  9  1  0
  9 10  1  0
 10 11  3  0
 11 12  1  0
 12 13  2  0
 13 14  1  0
 14 15  2  0
 15 16  1  0
 16 17  2  0
 17 18  1  0
 18 19  2  0
 19 20  1  0
 19 21  1  0
 21 22  2  0
 15 23  1  0
 23 12  1  0
 22 16  1  0
  1 24  1  0
  1 25  1  0
  1 26  1  0
  2 27  1  0
  2 28  1  0
  4 29  1  0
  4 30  1  0
  5 31  1  0
  5 32  1  0
  5 33  1  0
  6 34  1  0
  6 35  1  0
  7 36  1  0
  7 37  1  0
  9 38  1  0
  9 39  1  0
 13 40  1  0
 14 41  1  0
 17 42  1  0
 18 43  1  0
 21 44  1  0
 22 45  1  0
M  END
>  <UniqueID>  (21) 
21

>  <SMILES>  (21) 
CCN(CC)CCOCC#Cc1ccc(-c2ccc(F)cc2)o1

>  <Energy>  (21) 
70.8269132923859

>  <Genealogy>  (21) 
CCN(CC)CCOCC#Cc1ccc(-c2ccc(F)cc2)o1 (3D coordinates assigned)
CCN(CC)CCOCC#Cc1ccc(-c2ccc(F)cc2)o1 (optimized conformer: 70.8269132923859 kcal/mol)

>  <smiles>  (21) 
CCN(CC)CCOCC#Cc1ccc(-c2ccc(F)cc2)o1

>  <score_type>  (21) 
oracle

>  <origin>  (21) 
adg

>  <m_score__min__energy>  (21) 
-6.6600000000000001

>  <m_primary>  (21) 
energy

$$$$
22:0
     RDKit          3D

 50 52  0  0  0  0  0  0  0  0999 V2000
   64.1610   33.0140   49.3790 C   0  0  0  0  0  0  0  0  0  0  0  0
   63.4410   31.9830   48.5050 C   0  0  0  0  0  0  0  0  0  0  0  0
   63.5500   32.2840   47.0690 N   0  0  0  0  0  0  0  0  0  0  0  0
   63.2210   33.6820   46.7650 C   0  0  0  0  0  0  0  0  0  0  0  0
   61.6990   33.8460   46.6740 C   0  0  0  0  0  0  0  0  0  0  0  0
   61.0610   34.2110   48.0270 C   0  0  0  0  0  0  0  0  0  0  0  0
   59.5870   34.1000   47.9980 N   0  0  0  0  0  0  0  0  0  0  0  0
   59.1740   32.7660   47.5770 C   0  0  0  0  0  0  0  0  0  0  0  0
   58.6920   32.5610   46.2590 C   0  0  0  0  0  0  0  0  0  0  0  0
   58.1530   33.6290   45.5040 C   0  0  0  0  0  0  0  0  0  0  0  0
   57.7560   33.4470   44.1840 C   0  0  0  0  0  0  0  0  0  0  0  0
   57.8990   32.2050   43.5790 C   0  0  0  0  0  0  0  0  0  0  0  0
   57.4480   31.9950   41.8960 Cl  0  0  0  0  0  0  0  0  0  0  0  0
   58.4050   31.1290   44.3070 C   0  0  0  0  0  0  0  0  0  0  0  0
   58.7670   31.2680   45.6740 C   0  0  0  0  0  0  0  0  0  0  0  0
   59.2290   30.1940   46.4110 N   0  0  0  0  0  0  0  0  0  0  0  0
   59.1380   28.8230   45.8570 C   0  0  0  0  0  0  0  0  0  0  0  0
   59.7030   30.3870   47.6950 C   0  0  0  0  0  0  0  0  0  0  0  0
   60.4110   29.3700   48.3820 C   0  0  0  0  0  0  0  0  0  0  0  0
   60.7330   29.5050   49.7290 C   0  0  0  0  0  0  0  0  0  0  0  0
   60.2950   30.6140   50.4370 C   0  0  0  0  0  0  0  0  0  0  0  0
   59.6270   31.6570   49.7840 C   0  0  0  0  0  0  0  0  0  0  0  0
   58.9020   32.6490   50.6630 C   0  0  0  0  0  0  0  0  0  0  0  0
   59.4970   31.6250   48.3610 C   0  0  0  0  0  0  0  0  0  0  0  0
   63.9945   32.7756   50.4399 H   0  0  0  0  0  0  0  0  0  0  0  0
   65.2392   32.9892   49.1625 H   0  0  0  0  0  0  0  0  0  0  0  0
   63.7665   34.0177   49.1625 H   0  0  0  0  0  0  0  0  0  0  0  0
   63.8824   30.9929   48.6919 H   0  0  0  0  0  0  0  0  0  0  0  0
   62.3739   32.0081   48.7707 H   0  0  0  0  0  0  0  0  0  0  0  0
   64.5270   32.0840   46.7470 H   0  0  0  0  0  0  0  0  0  0  0  0
   63.6119   34.3314   47.5622 H   0  0  0  0  0  0  0  0  0  0  0  0
   63.6761   33.9629   45.8038 H   0  0  0  0  0  0  0  0  0  0  0  0
   61.4732   34.6439   45.9513 H   0  0  0  0  0  0  0  0  0  0  0  0
   61.2782   32.8804   46.3568 H   0  0  0  0  0  0  0  0  0  0  0  0
   61.4523   33.5309   48.7980 H   0  0  0  0  0  0  0  0  0  0  0  0
   61.3163   35.2577   48.2491 H   0  0  0  0  0  0  0  0  0  0  0  0
   59.2800   34.3160   48.9650 H   0  0  0  0  0  0  0  0  0  0  0  0
   59.1590   34.8190   47.3770 H   0  0  0  0  0  0  0  0  0  0  0  0
   58.0462   34.6201   45.9691 H   0  0  0  0  0  0  0  0  0  0  0  0
   57.3281   34.2877   43.6181 H   0  0  0  0  0  0  0  0  0  0  0  0
   58.5264   30.1534   43.8135 H   0  0  0  0  0  0  0  0  0  0  0  0
   59.0898   28.0967   46.6817 H   0  0  0  0  0  0  0  0  0  0  0  0
   58.2321   28.7366   45.2390 H   0  0  0  0  0  0  0  0  0  0  0  0
   60.0245   28.6177   45.2390 H   0  0  0  0  0  0  0  0  0  0  0  0
   60.7108   28.4596   47.8422 H   0  0  0  0  0  0  0  0  0  0  0  0
   61.3342   28.7330   50.2316 H   0  0  0  0  0  0  0  0  0  0  0  0
   60.4738   30.6748   51.5207 H   0  0  0  0  0  0  0  0  0  0  0  0
   59.0821   32.4026   51.7198 H   0  0  0  0  0  0  0  0  0  0  0  0
   59.2731   33.6633   50.4546 H   0  0  0  0  0  0  0  0  0  0  0  0
   57.8229   32.6034   50.4546 H   0  0  0  0  0  0  0  0  0  0  0  0
  1  2  1  0
  2  3  1  0
  3  4  1  0
  4  5  1  0
  5  6  1  0
  6  7  1  0
  7  8  1  0
  8  9  2  0
  9 10  1  0
 10 11  2  0
 11 12  1  0
 12 13  1  0
 12 14  2  0
 14 15  1  0
 15 16  2  0
 16 17  1  0
 16 18  1  0
 18 19  2  0
 19 20  1  0
 20 21  2  0
 21 22  1  0
 22 23  1  0
 22 24  2  0
 24  8  1  0
 15  9  1  0
 24 18  1  0
  1 25  1  0
  1 26  1  0
  1 27  1  0
  2 28  1  0
  2 29  1  0
  3 30  1  0
  4 31  1  0
  4 32  1  0
  5 33  1  0
  5 34  1  0
  6 35  1  0
  6 36  1  0
  7 37  1  0
  7 38  1  0
 10 39  1  0
 11 40  1  0
 14 41  1  0
 17 42  1  0
 17 43  1  0
 17 44  1  0
 19 45  1  0
 20 46  1  0
 21 47  1  0
 23 48  1  0
 23 49  1  0
 23 50  1  0
M  CHG  2   7   1  16   1
M  END
>  <UniqueID>  (22) 
22

>  <SMILES>  (22) 
CCNCCC[NH2+]c1c2ccc(Cl)cc2[n+](C)c2cccc(C)c12

>  <Energy>  (22) 
89.86359738234809

>  <Genealogy>  (22) 
CCNCCC[NH2+]c1c2ccc(Cl)cc2[n+](C)c2cccc(C)c12 (protonated)
CCNCCC[NH2+]c1c2ccc(Cl)cc2[n+](C)c2cccc(C)c12 (3D coordinates assigned)
CCNCCC[NH2+]c1c2ccc(Cl)cc2[n+](C)c2cccc(C)c12 (optimized conformer: 89.86359738234809 kcal/mol)

>  <smiles>  (22) 
CCNCCCNc1c2ccc(Cl)cc2[n+](C)c2cccc(C)c12

>  <score_type>  (22) 
oracle

>  <origin>  (22) 
adg

>  <m_score__min__energy>  (22) 
-4.5099999999999998

>  <m_primary>  (22) 
energy

$$$$
23:0
     RDKit          3D

 37 38  0  0  0  0  0  0  0  0999 V2000
   57.8730   27.8990   44.2410 C   0  0  0  0  0  0  0  0  0  0  0  0
   57.0930   28.1830   45.5210 C   0  0  0  0  0  0  0  0  0  0  0  0
   55.9170   29.0140   45.2280 N   0  0  0  0  0  0  0  0  0  0  0  0
   56.0060   29.6910   43.9190 C   0  0  0  0  0  0  0  0  0  0  0  0
   56.7540   31.0280   43.9960 C   0  0  0  0  0  0  0  0  0  0  0  0
   57.0390   31.3560   45.3530 O   0  0  0  0  0  0  0  0  0  0  0  0
   58.2500   31.9040   45.8010 C   0  0  0  0  0  0  0  0  0  0  0  0
   58.4350   33.2850   45.6840 C   0  0  0  0  0  0  0  0  0  0  0  0
   59.6240   33.8810   46.1080 C   0  0  0  0  0  0  0  0  0  0  0  0
   60.6540   33.1000   46.6510 C   0  0  0  0  0  0  0  0  0  0  0  0
   60.4670   31.7100   46.8030 C   0  0  0  0  0  0  0  0  0  0  0  0
   59.2740   31.1180   46.3610 C   0  0  0  0  0  0  0  0  0  0  0  0
   61.5680   30.8350   47.3450 C   0  0  0  0  0  0  0  0  0  0  0  0
   62.6350   31.6520   48.0840 C   0  0  0  0  0  0  0  0  0  0  0  0
   63.0270   32.8280   47.2960 N   0  0  0  0  0  0  0  0  0  0  0  0
   61.9060   33.7720   47.1640 C   0  0  0  0  0  0  0  0  0  0  0  0
   58.8781   27.5330   44.4977 H   0  0  0  0  0  0  0  0  0  0  0  0
   57.3444   27.1356   43.6512 H   0  0  0  0  0  0  0  0  0  0  0  0
   57.9589   28.8235   43.6512 H   0  0  0  0  0  0  0  0  0  0  0  0
   56.7637   27.2315   45.9639 H   0  0  0  0  0  0  0  0  0  0  0  0
   57.7447   28.7209   46.2252 H   0  0  0  0  0  0  0  0  0  0  0  0
   55.7960   29.7180   45.9930 H   0  0  0  0  0  0  0  0  0  0  0  0
   56.5357   29.0310   43.2163 H   0  0  0  0  0  0  0  0  0  0  0  0
   54.9802   29.9021   43.5827 H   0  0  0  0  0  0  0  0  0  0  0  0
   57.6973   30.9492   43.4356 H   0  0  0  0  0  0  0  0  0  0  0  0
   56.1231   31.8173   43.5613 H   0  0  0  0  0  0  0  0  0  0  0  0
   57.6364   33.9074   45.2540 H   0  0  0  0  0  0  0  0  0  0  0  0
   59.7535   34.9694   46.0156 H   0  0  0  0  0  0  0  0  0  0  0  0
   59.1382   30.0303   46.4531 H   0  0  0  0  0  0  0  0  0  0  0  0
   61.1316   30.1055   48.0431 H   0  0  0  0  0  0  0  0  0  0  0  0
   62.0520   30.3301   46.4960 H   0  0  0  0  0  0  0  0  0  0  0  0
   62.2297   31.9842   49.0511 H   0  0  0  0  0  0  0  0  0  0  0  0
   63.5210   31.0187   48.2386 H   0  0  0  0  0  0  0  0  0  0  0  0
   63.8180   33.3110   47.7800 H   0  0  0  0  0  0  0  0  0  0  0  0
   63.3530   32.5300   46.3450 H   0  0  0  0  0  0  0  0  0  0  0  0
   61.6942   34.2111   48.1501 H   0  0  0  0  0  0  0  0  0  0  0  0
   62.1977   34.5445   46.4372 H   0  0  0  0  0  0  0  0  0  0  0  0
  1  2  1  0
  2  3  1  0
  3  4  1  0
  4  5  1  0
  5  6  1  0
  6  7  1  0
  7  8  2  0
  8  9  1  0
  9 10  2  0
 10 11  1  0
 11 12  2  0
 11 13  1  0
 13 14  1  0
 14 15  1  0
 15 16  1  0
 12  7  1  0
 16 10  1  0
  1 17  1  0
  1 18  1  0
  1 19  1  0
  2 20  1  0
  2 21  1  0
  3 22  1  0
  4 23  1  0
  4 24  1  0
  5 25  1  0
  5 26  1  0
  8 27  1  0
  9 28  1  0
 12 29  1  0
 13 30  1  0
 13 31  1  0
 14 32  1  0
 14 33  1  0
 15 34  1  0
 15 35  1  0
 16 36  1  0
 16 37  1  0
M  CHG  1  15   1
M  END
>  <UniqueID>  (23) 
23

>  <SMILES>  (23) 
CCNCCOc1ccc2c(c1)CC[NH2+]C2

>  <Energy>  (23) 
34.50126764554615

>  <Genealogy>  (23) 
CCNCCOc1ccc2c(c1)CC[NH2+]C2 (protonated)
CCNCCOc1ccc2c(c1)CC[NH2+]C2 (3D coordinates assigned)
CCNCCOc1ccc2c(c1)CC[NH2+]C2 (nonaromatic ring conformer: 34.50126764554615 kcal/mol)

>  <smiles>  (23) 
CCNCCOc1ccc2c(c1)CCNC2

>  <score_type>  (23) 
oracle

>  <origin>  (23) 
adg

>  <m_score__min__energy>  (23) 
-5.2400000000000002

>  <m_primary>  (23) 
energy

$$$$
24:0
     RDKit          3D

 61 64  0  0  0  0  0  0  0  0999 V2000
   58.5460   30.5910   50.1850 C   0  0  0  0  0  0  0  0  0  0  0  0
   58.2340   32.0880   50.1160 C   0  0  0  0  0  0  0  0  0  0  0  0
   59.2770   32.9030   50.7760 N   0  0  0  0  0  0  0  0  0  0  0  0
   59.2240   32.9370   52.2600 C   0  0  0  0  0  0  0  0  0  0  0  0
   58.8290   34.2980   52.8500 C   0  0  0  0  0  0  0  0  0  0  0  0
   59.6510   34.1830   50.1250 C   0  0  0  0  0  0  0  0  0  0  0  0
   60.1730   34.0600   48.6800 C   0  0  0  0  0  0  0  0  0  0  0  0
   61.4940   33.5590   48.6190 O   0  0  0  0  0  0  0  0  0  0  0  0
   61.5360   32.2630   48.0500 C   0  0  0  0  0  0  0  0  0  0  0  0
   60.1400   31.8180   47.6230 C   0  0  0  0  0  0  0  0  0  0  0  0
   59.9590   32.1280   46.2630 O   0  0  0  0  0  0  0  0  0  0  0  0
   59.3570   31.0540   45.6820 N   0  0  0  0  0  0  0  0  0  0  0  0
   58.0290   31.1920   45.0760 C   0  0  0  0  0  0  0  0  0  0  0  0
   57.2030   30.0770   45.4080 O   0  0  0  0  0  0  0  0  0  0  0  0
   57.7140   28.7730   45.5120 C   0  0  0  0  0  0  0  0  0  0  0  0
   56.8440   27.6800   45.5150 C   0  0  0  0  0  0  0  0  0  0  0  0
   57.3280   26.3660   45.6420 C   0  0  0  0  0  0  0  0  0  0  0  0
   58.7290   26.1580   45.7570 C   0  0  0  0  0  0  0  0  0  0  0  0
   59.5900   27.2640   45.7800 C   0  0  0  0  0  0  0  0  0  0  0  0
   59.0890   28.5680   45.6570 C   0  0  0  0  0  0  0  0  0  0  0  0
   59.9510   29.7540   45.7880 C   0  0  0  0  0  0  0  0  0  0  0  0
   61.1800   29.6370   46.0410 O   0  0  0  0  0  0  0  0  0  0  0  0
   59.3220   24.8710   46.0050 N   0  0  0  0  0  0  0  0  0  0  0  0
   58.9460   23.7210   45.5360 C   0  0  0  0  0  0  0  0  0  0  0  0
   57.8350   23.5860   44.5340 C   0  0  1  0  0  0  0  0  0  0  0  0
   57.6300   22.1310   44.0840 C   0  0  0  0  0  0  0  0  0  0  0  0
   56.1220   21.8850   44.1170 C   0  0  0  0  0  0  0  0  0  0  0  0
   55.5460   22.9670   45.0220 C   0  0  0  0  0  0  0  0  0  0  0  0
   56.5800   23.9800   45.1430 N   0  0  0  0  0  0  0  0  0  0  0  0
   56.3380   25.2670   45.7320 C   0  0  0  0  0  0  0  0  0  0  0  0
   55.2310   25.4850   46.2970 O   0  0  0  0  0  0  0  0  0  0  0  0
   58.6112   30.2782   51.2376 H   0  0  0  0  0  0  0  0  0  0  0  0
   57.7463   30.0263   49.6835 H   0  0  0  0  0  0  0  0  0  0  0  0
   59.5048   30.3928   49.6835 H   0  0  0  0  0  0  0  0  0  0  0  0
   58.1645   32.3879   49.0599 H   0  0  0  0  0  0  0  0  0  0  0  0
   57.2839   32.2614   50.6425 H   0  0  0  0  0  0  0  0  0  0  0  0
   58.4889   32.1905   52.5951 H   0  0  0  0  0  0  0  0  0  0  0  0
   60.2433   32.7251   52.6152 H   0  0  0  0  0  0  0  0  0  0  0  0
   58.8458   34.2403   53.9484 H   0  0  0  0  0  0  0  0  0  0  0  0
   59.5416   35.0648   52.5122 H   0  0  0  0  0  0  0  0  0  0  0  0
   57.8165   34.5642   52.5122 H   0  0  0  0  0  0  0  0  0  0  0  0
   58.7612   34.8296   50.1109 H   0  0  0  0  0  0  0  0  0  0  0  0
   60.4842   34.5920   50.7153 H   0  0  0  0  0  0  0  0  0  0  0  0
   59.5121   33.3791   48.1236 H   0  0  0  0  0  0  0  0  0  0  0  0
   60.1790   35.0687   48.2413 H   0  0  0  0  0  0  0  0  0  0  0  0
   62.1962   32.2757   47.1702 H   0  0  0  0  0  0  0  0  0  0  0  0
   61.9182   31.5576   48.8026 H   0  0  0  0  0  0  0  0  0  0  0  0
   60.0369   30.7329   47.7713 H   0  0  0  0  0  0  0  0  0  0  0  0
   59.3820   32.3375   48.2277 H   0  0  0  0  0  0  0  0  0  0  0  0
   57.5571   32.1137   45.4471 H   0  0  0  0  0  0  0  0  0  0  0  0
   58.1426   31.2339   43.9827 H   0  0  0  0  0  0  0  0  0  0  0  0
   55.7617   27.8503   45.4163 H   0  0  0  0  0  0  0  0  0  0  0  0
   60.6725   27.1070   45.8960 H   0  0  0  0  0  0  0  0  0  0  0  0
   59.4591   22.8126   45.8846 H   0  0  0  0  0  0  0  0  0  0  0  0
   58.1149   24.2169   43.6775 H   0  0  0  0  0  0  0  0  0  0  0  0
   58.0177   21.9886   43.0645 H   0  0  0  0  0  0  0  0  0  0  0  0
   58.1660   21.4286   44.7393 H   0  0  0  0  0  0  0  0  0  0  0  0
   55.6982   21.9660   43.1052 H   0  0  0  0  0  0  0  0  0  0  0  0
   55.8837   20.8771   44.4877 H   0  0  0  0  0  0  0  0  0  0  0  0
   54.6392   23.3982   44.5728 H   0  0  0  0  0  0  0  0  0  0  0  0
   55.2622   22.5616   46.0044 H   0  0  0  0  0  0  0  0  0  0  0  0
  1  2  1  0
  2  3  1  0
  3  4  1  0
  4  5  1  0
  3  6  1  0
  6  7  1  0
  7  8  1  0
  8  9  1  0
  9 10  1  0
 10 11  1  0
 11 12  1  0
 12 13  1  0
 13 14  1  0
 14 15  1  0
 15 16  2  0
 16 17  1  0
 17 18  2  0
 18 19  1  0
 19 20  2  0
 20 21  1  0
 21 22  2  0
 18 23  1  0
 23 24  2  0
 24 25  1  0
 25 26  1  0
 26 27  1  0
 27 28  1  0
 28 29  1  0
 29 30  1  0
 30 31  2  0
 21 12  1  0
 29 25  1  0
 20 15  1  0
 30 17  1  0
  1 32  1  0
  1 33  1  0
  1 34  1  0
  2 35  1  0
  2 36  1  0
  4 37  1  0
  4 38  1  0
  5 39  1  0
  5 40  1  0
  5 41  1  0
  6 42  1  0
  6 43  1  0
  7 44  1  0
  7 45  1  0
  9 46  1  0
  9 47  1  0
 10 48  1  0
 10 49  1  0
 13 50  1  0
 13 51  1  0
 16 52  1  0
 19 53  1  0
 24 54  1  0
 25 55  1  6
 26 56  1  0
 26 57  1  0
 27 58  1  0
 27 59  1  0
 28 60  1  0
 28 61  1  0
M  END
>  <UniqueID>  (24) 
24

>  <SMILES>  (24) 
CCN(CC)CCOCCON1COc2cc3c(cc2C1=O)N=C[C@H]1CCCN1C3=O

>  <Energy>  (24) 
84.6044531814246

>  <Genealogy>  (24) 
CCN(CC)CCOCCON1COc2cc3c(cc2C1=O)N=C[C@H]1CCCN1C3=O (chirality)
CCN(CC)CCOCCON1COc2cc3c(cc2C1=O)N=C[C@H]1CCCN1C3=O (3D coordinates assigned)
CCN(CC)CCOCCON1COc2cc3c(cc2C1=O)N=C[C@H]1CCCN1C3=O (nonaromatic ring conformer: 84.6044531814246 kcal/mol)

>  <smiles>  (24) 
CCN(CC)CCOCCON1COc2cc3c(cc2C1=O)N=CC1CCCN1C3=O

>  <score_type>  (24) 
oracle

>  <origin>  (24) 
adg

>  <m_score__min__energy>  (24) 
-6.3200000000000003

>  <m_primary>  (24) 
energy

$$$$
25:0
     RDKit          3D

 87 90  0  0  0  0  0  0  0  0999 V2000
   55.6350   24.3570   45.0880 C   0  0  0  0  0  0  0  0  0  0  0  0
   55.5210   25.5810   45.9960 C   0  0  0  0  0  0  0  0  0  0  0  0
   56.7570   26.3730   45.9610 N   0  0  0  0  0  0  0  0  0  0  0  0
   57.7280   25.8110   45.0090 C   0  0  0  0  0  0  0  0  0  0  0  0
   58.8540   25.1060   45.7580 C   0  0  0  0  0  0  0  0  0  0  0  0
   59.2230   25.8750   46.8850 O   0  0  0  0  0  0  0  0  0  0  0  0
   60.5010   26.4550   46.6980 C   0  0  0  0  0  0  0  0  0  0  0  0
   60.3710   27.9750   46.5080 C   0  0  0  0  0  0  0  0  0  0  0  0
   59.0010   28.4590   46.7720 N   0  0  0  0  0  0  0  0  0  0  0  0
   58.7910   29.8180   46.2830 C   0  0  0  0  0  0  0  0  0  0  0  0
   58.0500   30.0720   45.0890 C   0  0  0  0  0  0  0  0  0  0  0  0
   57.4500   29.0300   44.3320 C   0  0  0  0  0  0  0  0  0  0  0  0
   56.7780   29.2950   43.1420 C   0  0  0  0  0  0  0  0  0  0  0  0
   56.6900   30.5930   42.6650 C   0  0  0  0  0  0  0  0  0  0  0  0
   57.2430   31.6400   43.3920 C   0  0  0  0  0  0  0  0  0  0  0  0
   57.8900   31.4150   44.6360 C   0  0  0  0  0  0  0  0  0  0  0  0
   58.3640   32.4690   45.3900 N   0  0  0  0  0  0  0  0  0  0  0  0
   57.9140   33.8490   45.0970 C   0  0  0  0  0  0  0  0  0  0  0  0
   59.2100   32.2370   46.4540 C   0  0  0  0  0  0  0  0  0  0  0  0
   59.9380   33.2940   47.0520 C   0  0  0  0  0  0  0  0  0  0  0  0
   60.7120   33.0960   48.2050 C   0  0  0  0  0  0  0  0  0  0  0  0
   61.4340   34.1300   48.8240 O   0  0  0  0  0  0  0  0  0  0  0  0
   62.8460   34.1630   49.0500 C   0  0  0  0  0  0  0  0  0  0  0  0
   63.1480   34.5980   50.5070 C   0  0  0  0  0  0  0  0  0  0  0  0
   63.9040   33.6150   51.3550 N   0  0  0  0  0  0  0  0  0  0  0  0
   63.0170   33.0900   52.4340 C   0  0  0  0  0  0  0  0  0  0  0  0
   65.0370   34.3650   52.0040 C   0  0  0  0  0  0  0  0  0  0  0  0
   66.2570   33.4650   52.2910 C   0  0  0  0  0  0  0  0  0  0  0  0
   66.8550   32.9020   51.0370 N   0  0  0  0  0  0  0  0  0  0  0  0
   67.4820   31.5920   51.3490 C   0  0  0  0  0  0  0  0  0  0  0  0
   67.9180   33.8090   50.5370 C   0  0  0  0  0  0  0  0  0  0  0  0
   65.8240   32.7280   49.9630 C   0  0  0  0  0  0  0  0  0  0  0  0
   64.4160   32.4620   50.5410 C   0  0  0  0  0  0  0  0  0  0  0  0
   60.7890   31.8240   48.7690 C   0  0  0  0  0  0  0  0  0  0  0  0
   61.5390   31.6660   49.9470 O   0  0  0  0  0  0  0  0  0  0  0  0
   61.6440   30.4520   50.6850 C   0  0  0  0  0  0  0  0  0  0  0  0
   60.1370   30.7490   48.1490 C   0  0  0  0  0  0  0  0  0  0  0  0
   59.3770   30.9230   46.9670 C   0  0  0  0  0  0  0  0  0  0  0  0
   55.7195   23.4498   45.7044 H   0  0  0  0  0  0  0  0  0  0  0  0
   54.7395   24.2868   44.4531 H   0  0  0  0  0  0  0  0  0  0  0  0
   56.5281   24.4534   44.4531 H   0  0  0  0  0  0  0  0  0  0  0  0
   54.6824   26.2060   45.6552 H   0  0  0  0  0  0  0  0  0  0  0  0
   55.3498   25.2400   47.0277 H   0  0  0  0  0  0  0  0  0  0  0  0
   57.1870   26.3270   46.9160 H   0  0  0  0  0  0  0  0  0  0  0  0
   57.2186   25.0881   44.3549 H   0  0  0  0  0  0  0  0  0  0  0  0
   58.1539   26.6275   44.4073 H   0  0  0  0  0  0  0  0  0  0  0  0
   58.5108   24.1141   46.0872 H   0  0  0  0  0  0  0  0  0  0  0  0
   59.7220   24.9909   45.0921 H   0  0  0  0  0  0  0  0  0  0  0  0
   61.1253   26.2511   47.5804 H   0  0  0  0  0  0  0  0  0  0  0  0
   60.9653   26.0194   45.8010 H   0  0  0  0  0  0  0  0  0  0  0  0
   61.0630   28.4781   47.1994 H   0  0  0  0  0  0  0  0  0  0  0  0
   60.6121   28.2043   45.4595 H   0  0  0  0  0  0  0  0  0  0  0  0
   58.3140   27.8150   46.3220 H   0  0  0  0  0  0  0  0  0  0  0  0
   58.7640   28.3360   47.7770 H   0  0  0  0  0  0  0  0  0  0  0  0
   57.5178   27.9933   44.6934 H   0  0  0  0  0  0  0  0  0  0  0  0
   56.3154   28.4713   42.5785 H   0  0  0  0  0  0  0  0  0  0  0  0
   56.1821   30.7946   41.7103 H   0  0  0  0  0  0  0  0  0  0  0  0
   57.1783   32.6642   42.9959 H   0  0  0  0  0  0  0  0  0  0  0  0
   57.7390   34.3858   46.0410 H   0  0  0  0  0  0  0  0  0  0  0  0
   58.6883   34.3716   44.5162 H   0  0  0  0  0  0  0  0  0  0  0  0
   56.9805   33.8147   44.5162 H   0  0  0  0  0  0  0  0  0  0  0  0
   59.8955   34.2963   46.6008 H   0  0  0  0  0  0  0  0  0  0  0  0
   63.2647   33.1607   48.8764 H   0  0  0  0  0  0  0  0  0  0  0  0
   63.3020   34.8870   48.3587 H   0  0  0  0  0  0  0  0  0  0  0  0
   63.7377   35.5256   50.4638 H   0  0  0  0  0  0  0  0  0  0  0  0
   62.1652   34.7047   50.9895 H   0  0  0  0  0  0  0  0  0  0  0  0
   63.4444   33.3430   53.4155 H   0  0  0  0  0  0  0  0  0  0  0  0
   62.0189   33.5429   52.3410 H   0  0  0  0  0  0  0  0  0  0  0  0
   62.9338   31.9971   52.3410 H   0  0  0  0  0  0  0  0  0  0  0  0
   65.3499   35.1794   51.3340 H   0  0  0  0  0  0  0  0  0  0  0  0
   64.6728   34.7499   52.9680 H   0  0  0  0  0  0  0  0  0  0  0  0
   67.0216   34.0606   52.8113 H   0  0  0  0  0  0  0  0  0  0  0  0
   65.9156   32.6218   52.9095 H   0  0  0  0  0  0  0  0  0  0  0  0
   67.5427   31.4651   52.4400 H   0  0  0  0  0  0  0  0  0  0  0  0
   66.8737   30.7826   50.9190 H   0  0  0  0  0  0  0  0  0  0  0  0
   68.4939   31.5581   50.9190 H   0  0  0  0  0  0  0  0  0  0  0  0
   68.4464   34.2599   51.3899 H   0  0  0  0  0  0  0  0  0  0  0  0
   68.6307   33.2365   49.9252 H   0  0  0  0  0  0  0  0  0  0  0  0
   67.4648   34.6029   49.9252 H   0  0  0  0  0  0  0  0  0  0  0  0
   65.7894   33.6433   49.3539 H   0  0  0  0  0  0  0  0  0  0  0  0
   66.1108   31.8547   49.3588 H   0  0  0  0  0  0  0  0  0  0  0  0
   63.7206   32.2813   49.7081 H   0  0  0  0  0  0  0  0  0  0  0  0
   64.4858   31.5877   51.2049 H   0  0  0  0  0  0  0  0  0  0  0  0
   61.6247   30.6748   51.7620 H   0  0  0  0  0  0  0  0  0  0  0  0
   60.7994   29.7945   50.4314 H   0  0  0  0  0  0  0  0  0  0  0  0
   62.5890   29.9493   50.4314 H   0  0  0  0  0  0  0  0  0  0  0  0
   60.2178   29.7453   48.5918 H   0  0  0  0  0  0  0  0  0  0  0  0
  1  2  1  0
  2  3  1  0
  3  4  1  0
  4  5  1  0
  5  6  1  0
  6  7  1  0
  7  8  1  0
  8  9  1  0
  9 10  1  0
 10 11  2  0
 11 12  1  0
 12 13  2  0
 13 14  1  0
 14 15  2  0
 15 16  1  0
 16 17  2  0
 17 18  1  0
 17 19  1  0
 19 20  2  0
 20 21  1  0
 21 22  1  0
 22 23  1  0
 23 24  1  0
 24 25  1  0
 25 26  1  0
 25 27  1  0
 27 28  1  0
 28 29  1  0
 29 30  1  0
 29 31  1  0
 29 32  1  0
 32 33  1  0
 21 34  2  0
 34 35  1  0
 35 36  1  0
 34 37  1  0
 37 38  2  0
 38 10  1  0
 16 11  1  0
 38 19  1  0
 33 25  1  0
  1 39  1  0
  1 40  1  0
  1 41  1  0
  2 42  1  0
  2 43  1  0
  3 44  1  0
  4 45  1  0
  4 46  1  0
  5 47  1  0
  5 48  1  0
  7 49  1  0
  7 50  1  0
  8 51  1  0
  8 52  1  0
  9 53  1  0
  9 54  1  0
 12 55  1  0
 13 56  1  0
 14 57  1  0
 15 58  1  0
 18 59  1  0
 18 60  1  0
 18 61  1  0
 20 62  1  0
 23 63  1  0
 23 64  1  0
 24 65  1  0
 24 66  1  0
 26 67  1  0
 26 68  1  0
 26 69  1  0
 27 70  1  0
 27 71  1  0
 28 72  1  0
 28 73  1  0
 30 74  1  0
 30 75  1  0
 30 76  1  0
 31 77  1  0
 31 78  1  0
 31 79  1  0
 32 80  1  0
 32 81  1  0
 33 82  1  0
 33 83  1  0
 36 84  1  0
 36 85  1  0
 36 86  1  0
 37 87  1  0
M  CHG  4   9   1  17   1  25   1  29   1
M  END
>  <UniqueID>  (25) 
25

>  <SMILES>  (25) 
CCNCCOCC[NH2+]c1c2ccccc2[n+](C)c2cc(OCC[N+]3(C)CC[N+](C)(C)CC3)c(OC)cc12

>  <Energy>  (25) 
141.764528558174

>  <Genealogy>  (25) 
CCNCCOCC[NH2+]c1c2ccccc2[n+](C)c2cc(OCC[N+]3(C)CC[N+](C)(C)CC3)c(OC)cc12 (protonated)
CCNCCOCC[NH2+]c1c2ccccc2[n+](C)c2cc(OCC[N+]3(C)CC[N+](C)(C)CC3)c(OC)cc12 (3D coordinates assigned)
CCNCCOCC[NH2+]c1c2ccccc2[n+](C)c2cc(OCC[N+]3(C)CC[N+](C)(C)CC3)c(OC)cc12 (nonaromatic ring conformer: 141.764528558174 kcal/mol)

>  <smiles>  (25) 
CCNCCOCCNc1c2ccccc2[n+](C)c2cc(OCC[N+]3(C)CC[N+](C)(C)CC3)c(OC)cc12

>  <score_type>  (25) 
oracle

>  <origin>  (25) 
adg

>  <m_score__min__energy>  (25) 
-2.2999999999999998

>  <m_primary>  (25) 
energy

$$$$
26:0
     RDKit          3D

 56 58  0  0  0  0  0  0  0  0999 V2000
   56.2774   34.4949   45.4848 H   0  0  0  0  0  0  0  0  0  0  0  0
   57.1020   33.7740   45.5860 C   0  0  0  0  0  0  0  0  0  0  0  0
   58.2420   34.1160   46.3090 C   0  0  0  0  0  0  0  0  0  0  0  0
   58.3436   35.1278   46.7283 H   0  0  0  0  0  0  0  0  0  0  0  0
   59.2550   33.1770   46.5020 C   0  0  0  0  0  0  0  0  0  0  0  0
   60.1589   33.4636   47.0595 H   0  0  0  0  0  0  0  0  0  0  0  0
   59.1400   31.8650   45.9940 C   0  0  0  0  0  0  0  0  0  0  0  0
   58.0350   31.5740   45.1350 C   0  0  0  0  0  0  0  0  0  0  0  0
   57.0070   32.5180   44.9910 C   0  0  0  0  0  0  0  0  0  0  0  0
   56.1145   32.2630   44.4007 H   0  0  0  0  0  0  0  0  0  0  0  0
   57.9770   30.1870   43.9780 S   0  0  0  0  0  0  0  0  0  0  0  0
   58.1340   28.8880   45.1960 C   0  0  0  0  0  0  0  0  0  0  0  0
   57.0380   28.0770   45.5110 C   0  0  0  0  0  0  0  0  0  0  0  0
   56.0567   28.2759   45.0556 H   0  0  0  0  0  0  0  0  0  0  0  0
   57.1920   27.0140   46.4050 C   0  0  0  0  0  0  0  0  0  0  0  0
   56.3312   26.3755   46.6525 H   0  0  0  0  0  0  0  0  0  0  0  0
   58.4380   26.7610   46.9850 C   0  0  0  0  0  0  0  0  0  0  0  0
   58.5585   25.9174   47.6806 H   0  0  0  0  0  0  0  0  0  0  0  0
   59.5320   27.5780   46.6830 C   0  0  0  0  0  0  0  0  0  0  0  0
   60.5062   27.3886   47.1574 H   0  0  0  0  0  0  0  0  0  0  0  0
   59.3890   28.6400   45.7750 C   0  0  0  0  0  0  0  0  0  0  0  0
   60.4910   29.6520   45.6020 C   0  0  0  0  0  0  0  0  0  0  0  0
   60.5647   29.9536   44.5467 H   0  0  0  0  0  0  0  0  0  0  0  0
   61.4619   29.2302   45.9011 H   0  0  0  0  0  0  0  0  0  0  0  0
   60.1370   30.8350   46.4520 C   0  0  0  0  0  0  0  0  0  0  0  0
   60.5710   30.7970   47.6820 N   0  0  0  0  0  0  0  0  0  0  0  0
   59.7820   30.6590   48.8080 O   0  0  0  0  0  0  0  0  0  0  0  0
   59.7100   29.4260   49.5240 C   0  0  0  0  0  0  0  0  0  0  0  0
   59.3701   28.6304   48.8447 H   0  0  0  0  0  0  0  0  0  0  0  0
   59.0009   29.5352   50.3578 H   0  0  0  0  0  0  0  0  0  0  0  0
   61.0870   29.0600   50.0830 C   0  0  0  0  0  0  0  0  0  0  0  0
   61.3874   28.0809   49.6815 H   0  0  0  0  0  0  0  0  0  0  0  0
   61.0173   29.0277   51.1803 H   0  0  0  0  0  0  0  0  0  0  0  0
   62.0630   30.0230   49.7270 O   0  0  0  0  0  0  0  0  0  0  0  0
   62.4570   30.7860   50.8500 C   0  0  0  0  0  0  0  0  0  0  0  0
   63.3420   30.3286   51.3164 H   0  0  0  0  0  0  0  0  0  0  0  0
   61.6411   30.8175   51.5871 H   0  0  0  0  0  0  0  0  0  0  0  0
   62.7960   32.2090   50.3830 C   0  0  0  0  0  0  0  0  0  0  0  0
   63.8913   32.3097   50.3676 H   0  0  0  0  0  0  0  0  0  0  0  0
   62.3009   32.8881   51.0927 H   0  0  0  0  0  0  0  0  0  0  0  0
   62.2810   32.5760   49.0340 N   0  0  0  0  0  0  0  0  0  0  0  0
   61.6110   31.8050   48.7930 H   0  0  0  0  0  0  0  0  0  0  0  0
   63.3240   32.5070   47.9690 C   0  0  0  0  0  0  0  0  0  0  0  0
   63.3782   31.4670   47.6148 H   0  0  0  0  0  0  0  0  0  0  0  0
   64.2539   32.8665   48.4337 H   0  0  0  0  0  0  0  0  0  0  0  0
   63.0850   33.4130   46.7460 C   0  0  0  0  0  0  0  0  0  0  0  0
   62.8181   34.4246   47.0857 H   0  0  0  0  0  0  0  0  0  0  0  0
   64.0015   33.4597   46.1396 H   0  0  0  0  0  0  0  0  0  0  0  0
   62.2647   33.0015   46.1396 H   0  0  0  0  0  0  0  0  0  0  0  0
   61.4770   33.8270   48.9950 C   0  0  0  0  0  0  0  0  0  0  0  0
   62.0597   34.6320   49.4667 H   0  0  0  0  0  0  0  0  0  0  0  0
   61.2564   34.0411   47.9388 H   0  0  0  0  0  0  0  0  0  0  0  0
   60.1350   33.7050   49.7250 C   0  0  0  0  0  0  0  0  0  0  0  0
   60.3059   33.7205   50.8115 H   0  0  0  0  0  0  0  0  0  0  0  0
   59.4866   34.5479   49.4437 H   0  0  0  0  0  0  0  0  0  0  0  0
   59.6493   32.7590   49.4437 H   0  0  0  0  0  0  0  0  0  0  0  0
  1  2  1  0
  2  3  2  0
  3  4  1  0
  3  5  1  0
  5  6  1  0
  5  7  2  0
  7  8  1  0
  8  9  2  0
  9 10  1  0
  8 11  1  0
 11 12  1  0
 12 13  2  0
 13 14  1  0
 13 15  1  0
 15 16  1  0
 15 17  2  0
 17 18  1  0
 17 19  1  0
 19 20  1  0
 19 21  2  0
 21 22  1  0
 22 23  1  0
 22 24  1  0
 22 25  1  0
 25 26  2  0
 26 27  1  0
 27 28  1  0
 28 29  1  0
 28 30  1  0
 28 31  1  0
 31 32  1  0
 31 33  1  0
 31 34  1  0
 34 35  1  0
 35 36  1  0
 35 37  1  0
 35 38  1  0
 38 39  1  0
 38 40  1  0
 38 41  1  0
 41 42  1  0
 41 43  1  0
 43 44  1  0
 43 45  1  0
 43 46  1  0
 46 47  1  0
 46 48  1  0
 46 49  1  0
 41 50  1  0
 50 51  1  0
 50 52  1  0
 50 53  1  0
 53 54  1  0
 53 55  1  0
 53 56  1  0
  9  2  1  0
 21 12  1  0
 25  7  1  0
M  CHG  1  41   1
M  END
>  <UniqueID>  (26) 
26

>  <SMILES>  (26) 
CC[NH+](CC)CCOCCO/N=C1/Cc2ccccc2Sc2ccccc21

>  <Energy>  (26) 
90.42043482276267

>  <Genealogy>  (26) 
CC[NH+](CC)CCOCCON=C1Cc2ccccc2Sc2ccccc21 (protonated)
CC[NH+](CC)CCOCCO/N=C1/Cc2ccccc2Sc2ccccc21 (cis-trans isomerization)
CC[NH+](CC)CCOCCO/N=C1/Cc2ccccc2Sc2ccccc21 (3D coordinates assigned)
CC[NH+](CC)CCOCCO/N=C1/Cc2ccccc2Sc2ccccc21 (nonaromatic ring conformer: 90.42043482276267 kcal/mol)

>  <smiles>  (26) 
CCN(CC)CCOCCON=C1Cc2ccccc2Sc2ccccc21

>  <score_type>  (26) 
oracle

>  <origin>  (26) 
adg

>  <m_score__min__energy>  (26) 
-3.96

>  <m_primary>  (26) 
energy

$$$$
27:0
     RDKit          3D

 54 55  0  0  0  0  0  0  0  0999 V2000
   63.7760   33.2030   47.9040 C   0  0  0  0  0  0  0  0  0  0  0  0
   62.8110   33.4610   46.7540 C   0  0  0  0  0  0  0  0  0  0  0  0
   61.4170   33.2140   47.2080 N   0  0  0  0  0  0  0  0  0  0  0  0
   60.5500   34.3940   46.9890 C   0  0  0  0  0  0  0  0  0  0  0  0
   59.2900   34.3200   47.8510 C   0  0  0  0  0  0  0  0  0  0  0  0
   61.3710   32.7920   48.6270 C   0  0  0  0  0  0  0  0  0  0  0  0
   61.0860   31.2900   48.7440 C   0  0  0  0  0  0  0  0  0  0  0  0
   61.0720   30.6620   47.4220 N   0  0  0  0  0  0  0  0  0  0  0  0
   59.9480   29.9030   46.9480 C   0  0  0  0  0  0  0  0  0  0  0  0
   59.7920   28.5760   47.3670 C   0  0  0  0  0  0  0  0  0  0  0  0
   60.7620   28.0190   48.2180 O   0  0  0  0  0  0  0  0  0  0  0  0
   60.6850   28.0010   49.6400 C   0  0  0  0  0  0  0  0  0  0  0  0
   58.6950   27.8330   46.9160 C   0  0  0  0  0  0  0  0  0  0  0  0
   57.7470   28.3850   46.0360 C   0  0  0  0  0  0  0  0  0  0  0  0
   56.6570   27.6110   45.6030 O   0  0  0  0  0  0  0  0  0  0  0  0
   56.5900   26.1880   45.6290 C   0  0  0  0  0  0  0  0  0  0  0  0
   57.9010   29.7280   45.5890 C   0  0  0  0  0  0  0  0  0  0  0  0
   56.9850   30.3680   44.6980 C   0  0  0  0  0  0  0  0  0  0  0  0
   55.7620   29.6910   44.1250 C   0  0  0  0  0  0  0  0  0  0  0  0
   57.2080   31.7000   44.3240 C   0  0  0  0  0  0  0  0  0  0  0  0
   58.3160   32.3940   44.8020 C   0  0  0  0  0  0  0  0  0  0  0  0
   58.5160   33.8340   44.4290 C   0  0  0  0  0  0  0  0  0  0  0  0
   59.1750   31.7850   45.6610 N   0  0  0  0  0  0  0  0  0  0  0  0
   59.0170   30.4850   46.0570 C   0  0  0  0  0  0  0  0  0  0  0  0
   63.2519   33.3431   48.8609 H   0  0  0  0  0  0  0  0  0  0  0  0
   64.1545   32.1721   47.8408 H   0  0  0  0  0  0  0  0  0  0  0  0
   64.6185   33.9075   47.8408 H   0  0  0  0  0  0  0  0  0  0  0  0
   62.9082   34.5051   46.4217 H   0  0  0  0  0  0  0  0  0  0  0  0
   63.0485   32.7853   45.9191 H   0  0  0  0  0  0  0  0  0  0  0  0
   61.1101   35.3043   47.2492 H   0  0  0  0  0  0  0  0  0  0  0  0
   60.2485   34.4139   45.9313 H   0  0  0  0  0  0  0  0  0  0  0  0
   59.5716   34.3365   48.9142 H   0  0  0  0  0  0  0  0  0  0  0  0
   58.6431   35.1817   47.6296 H   0  0  0  0  0  0  0  0  0  0  0  0
   58.7484   33.3885   47.6296 H   0  0  0  0  0  0  0  0  0  0  0  0
   62.3396   33.0123   49.0995 H   0  0  0  0  0  0  0  0  0  0  0  0
   60.5628   33.3426   49.1306 H   0  0  0  0  0  0  0  0  0  0  0  0
   61.8684   30.8207   49.3585 H   0  0  0  0  0  0  0  0  0  0  0  0
   60.0999   31.1523   49.2116 H   0  0  0  0  0  0  0  0  0  0  0  0
   61.8600   30.8590   46.7660 H   0  0  0  0  0  0  0  0  0  0  0  0
   61.6735   28.2321   50.0637 H   0  0  0  0  0  0  0  0  0  0  0  0
   59.9566   28.7531   49.9773 H   0  0  0  0  0  0  0  0  0  0  0  0
   60.3655   27.0039   49.9773 H   0  0  0  0  0  0  0  0  0  0  0  0
   58.5716   26.7946   47.2573 H   0  0  0  0  0  0  0  0  0  0  0  0
   56.5736   25.8407   46.6726 H   0  0  0  0  0  0  0  0  0  0  0  0
   55.6752   25.8546   45.1172 H   0  0  0  0  0  0  0  0  0  0  0  0
   57.4695   25.7701   45.1172 H   0  0  0  0  0  0  0  0  0  0  0  0
   55.1210   29.3362   44.9455 H   0  0  0  0  0  0  0  0  0  0  0  0
   55.2023   30.4077   43.5061 H   0  0  0  0  0  0  0  0  0  0  0  0
   56.0722   28.8362   43.5061 H   0  0  0  0  0  0  0  0  0  0  0  0
   56.5012   32.2016   43.6467 H   0  0  0  0  0  0  0  0  0  0  0  0
   58.6003   34.4411   45.3424 H   0  0  0  0  0  0  0  0  0  0  0  0
   59.4367   33.9346   43.8356 H   0  0  0  0  0  0  0  0  0  0  0  0
   57.6575   34.1817   43.8356 H   0  0  0  0  0  0  0  0  0  0  0  0
   59.9730   32.3540   46.0220 H   0  0  0  0  0  0  0  0  0  0  0  0
  1  2  1  0
  2  3  1  0
  3  4  1  0
  4  5  1  0
  3  6  1  0
  6  7  1  0
  7  8  1  0
  8  9  1  0
  9 10  2  0
 10 11  1  0
 11 12  1  0
 10 13  1  0
 13 14  2  0
 14 15  1  0
 15 16  1  0
 14 17  1  0
 17 18  2  0
 18 19  1  0
 18 20  1  0
 20 21  2  0
 21 22  1  0
 21 23  1  0
 23 24  2  0
 24  9  1  0
 24 17  1  0
  1 25  1  0
  1 26  1  0
  1 27  1  0
  2 28  1  0
  2 29  1  0
  4 30  1  0
  4 31  1  0
  5 32  1  0
  5 33  1  0
  5 34  1  0
  6 35  1  0
  6 36  1  0
  7 37  1  0
  7 38  1  0
  8 39  1  0
 12 40  1  0
 12 41  1  0
 12 42  1  0
 13 43  1  0
 16 44  1  0
 16 45  1  0
 16 46  1  0
 19 47  1  0
 19 48  1  0
 19 49  1  0
 20 50  1  0
 22 51  1  0
 22 52  1  0
 22 53  1  0
 23 54  1  0
M  CHG  1  23   1
M  END
>  <UniqueID>  (27) 
27

>  <SMILES>  (27) 
CCN(CC)CCNc1c(OC)cc(OC)c2c(C)cc(C)[nH+]c12

>  <Energy>  (27) 
63.401423751576154

>  <Genealogy>  (27) 
CCN(CC)CCNc1c(OC)cc(OC)c2c(C)cc(C)[nH+]c12 (protonated)
CCN(CC)CCNc1c(OC)cc(OC)c2c(C)cc(C)[nH+]c12 (3D coordinates assigned)
CCN(CC)CCNc1c(OC)cc(OC)c2c(C)cc(C)[nH+]c12 (optimized conformer: 63.401423751576154 kcal/mol)

>  <smiles>  (27) 
CCN(CC)CCNc1c(OC)cc(OC)c2c(C)cc(C)nc12

>  <score_type>  (27) 
oracle

>  <origin>  (27) 
adg

>  <m_score__min__energy>  (27) 
-4.2000000000000002

>  <m_primary>  (27) 
energy

$$$$
28:0
     RDKit          3D

 28 29  0  0  0  0  0  0  0  0999 V2000
   63.4510   33.1040   47.1040 C   0  0  0  0  0  0  0  0  0  0  0  0
   62.3030   33.7100   46.7910 C   0  0  0  0  0  0  0  0  0  0  0  0
   61.0060   33.2760   47.4170 C   0  0  0  0  0  0  0  0  0  0  0  0
   59.8860   33.3240   46.4120 C   0  0  0  0  0  0  0  0  0  0  0  0
   59.5180   34.5410   45.8090 C   0  0  0  0  0  0  0  0  0  0  0  0
   58.4480   34.5960   44.8990 C   0  0  0  0  0  0  0  0  0  0  0  0
   57.7200   33.4390   44.5820 C   0  0  0  0  0  0  0  0  0  0  0  0
   58.0740   32.2230   45.1870 C   0  0  0  0  0  0  0  0  0  0  0  0
   59.1360   32.1850   46.0890 C   0  0  0  0  0  0  0  0  0  0  0  0
   59.3010   30.6160   46.6820 S   0  0  0  0  0  0  0  0  0  0  0  0
   58.0110   30.0500   45.7560 C   0  0  0  0  0  0  0  0  0  0  0  0
   57.6070   28.8560   45.7780 O   0  0  0  0  0  0  0  0  0  0  0  0
   57.4490   31.0200   44.9890 N   0  0  0  0  0  0  0  0  0  0  0  0
   56.2840   30.7980   44.1210 C   0  0  0  0  0  0  0  0  0  0  0  0
   56.6290   29.8150   43.0080 C   0  0  0  0  0  0  0  0  0  0  0  0
   64.3915   33.4328   46.6377 H   0  0  0  0  0  0  0  0  0  0  0  0
   63.4562   32.2760   47.8281 H   0  0  0  0  0  0  0  0  0  0  0  0
   62.3059   34.5373   46.0660 H   0  0  0  0  0  0  0  0  0  0  0  0
   61.1121   32.2467   47.7901 H   0  0  0  0  0  0  0  0  0  0  0  0
   60.7672   33.9601   48.2447 H   0  0  0  0  0  0  0  0  0  0  0  0
   60.0734   35.4588   46.0522 H   0  0  0  0  0  0  0  0  0  0  0  0
   58.1790   35.5545   44.4312 H   0  0  0  0  0  0  0  0  0  0  0  0
   56.8834   33.4844   43.8692 H   0  0  0  0  0  0  0  0  0  0  0  0
   55.4574   30.3900   44.7213 H   0  0  0  0  0  0  0  0  0  0  0  0
   55.9873   31.7567   43.6705 H   0  0  0  0  0  0  0  0  0  0  0  0
   56.9627   28.8641   43.4490 H   0  0  0  0  0  0  0  0  0  0  0  0
   55.7391   29.6384   42.3859 H   0  0  0  0  0  0  0  0  0  0  0  0
   57.4341   30.2332   42.3859 H   0  0  0  0  0  0  0  0  0  0  0  0
  1  2  2  0
  2  3  1  0
  3  4  1  0
  4  5  2  0
  5  6  1  0
  6  7  2  0
  7  8  1  0
  8  9  2  0
  9 10  1  0
 10 11  1  0
 11 12  2  0
 11 13  1  0
 13 14  1  0
 14 15  1  0
  9  4  1  0
 13  8  1  0
  1 16  1  0
  1 17  1  0
  2 18  1  0
  3 19  1  0
  3 20  1  0
  5 21  1  0
  6 22  1  0
  7 23  1  0
 14 24  1  0
 14 25  1  0
 15 26  1  0
 15 27  1  0
 15 28  1  0
M  END
>  <UniqueID>  (28) 
28

>  <SMILES>  (28) 
C=CCc1cccc2c1sc(=O)n2CC

>  <Energy>  (28) 
58.68908246767089

>  <Genealogy>  (28) 
C=CCc1cccc2c1sc(=O)n2CC (3D coordinates assigned)
C=CCc1cccc2c1sc(=O)n2CC (optimized conformer: 58.68908246767089 kcal/mol)

>  <smiles>  (28) 
C=CCc1cccc2c1sc(=O)n2CC

>  <score_type>  (28) 
oracle

>  <origin>  (28) 
adg

>  <m_score__min__energy>  (28) 
-5.8399999999999999

>  <m_primary>  (28) 
energy

$$$$
