0:0
     RDKit          3D

 61 63  0  0  0  0  0  0  0  0999 V2000
   60.3000   29.8120   47.2820 C   0  0  0  0  0  0  0  0  0  0  0  0
   58.8400   29.7680   47.7110 C   0  0  0  0  0  0  0  0  0  0  0  0
   58.0210   30.0510   46.5960 O   0  0  0  0  0  0  0  0  0  0  0  0
   58.2640   29.1260   45.5520 C   0  0  0  0  0  0  0  0  0  0  0  0
   56.9610   28.7820   44.8300 C   0  0  0  0  0  0  0  0  0  0  0  0
   56.2070   29.9640   44.6460 O   0  0  0  0  0  0  0  0  0  0  0  0
   56.6200   30.6530   43.4810 C   0  0  0  0  0  0  0  0  0  0  0  0
   57.3860   31.9350   43.8440 C   0  0  0  0  0  0  0  0  0  0  0  0
   57.4230   32.1460   45.2990 N   0  0  0  0  0  0  0  0  0  0  0  0
   57.2350   33.5680   45.6190 C   0  0  0  0  0  0  0  0  0  0  0  0
   58.1560   33.9930   46.7680 C   0  0  0  0  0  0  0  0  0  0  0  0
   58.5980   32.8220   47.5220 N   0  0  0  0  0  0  0  0  0  0  0  0
   59.6310   32.9350   48.5170 C   0  0  0  0  0  0  0  0  0  0  0  0
   60.9420   33.2690   48.1370 C   0  0  0  0  0  0  0  0  0  0  0  0
   61.2910   33.3890   46.7740 C   0  0  0  0  0  0  0  0  0  0  0  0
   62.6000   33.6800   46.3980 C   0  0  0  0  0  0  0  0  0  0  0  0
   63.5850   33.8350   47.3660 C   0  0  0  0  0  0  0  0  0  0  0  0
   63.2640   33.7180   48.7180 C   0  0  0  0  0  0  0  0  0  0  0  0
   61.9340   33.4580   49.1370 C   0  0  0  0  0  0  0  0  0  0  0  0
   61.5970   33.3660   50.4740 N   0  0  0  0  0  0  0  0  0  0  0  0
   62.5390   33.8480   51.5080 C   0  0  0  0  0  0  0  0  0  0  0  0
   60.3690   32.8480   50.8420 C   0  0  0  0  0  0  0  0  0  0  0  0
   60.0850   32.4850   52.1830 C   0  0  0  0  0  0  0  0  0  0  0  0
   58.8220   32.0300   52.5570 C   0  0  0  0  0  0  0  0  0  0  0  0
   57.8070   31.9030   51.6060 C   0  0  0  0  0  0  0  0  0  0  0  0
   56.4330   31.4540   52.0090 C   0  0  0  0  0  0  0  0  0  0  0  0
   58.0720   32.2210   50.2710 C   0  0  0  0  0  0  0  0  0  0  0  0
   59.3510   32.6630   49.8690 C   0  0  0  0  0  0  0  0  0  0  0  0
   60.9438   29.8314   48.1737 H   0  0  0  0  0  0  0  0  0  0  0  0
   60.5326   28.9205   46.6811 H   0  0  0  0  0  0  0  0  0  0  0  0
   60.4785   30.7159   46.6811 H   0  0  0  0  0  0  0  0  0  0  0  0
   58.6004   28.7671   48.0992 H   0  0  0  0  0  0  0  0  0  0  0  0
   58.6632   30.5147   48.4992 H   0  0  0  0  0  0  0  0  0  0  0  0
   58.9705   29.5676   44.8338 H   0  0  0  0  0  0  0  0  0  0  0  0
   58.6870   28.2061   45.9819 H   0  0  0  0  0  0  0  0  0  0  0  0
   57.1894   28.3349   43.8513 H   0  0  0  0  0  0  0  0  0  0  0  0
   56.3833   28.0641   45.4307 H   0  0  0  0  0  0  0  0  0  0  0  0
   57.2752   29.9977   42.8883 H   0  0  0  0  0  0  0  0  0  0  0  0
   55.7270   30.9296   42.9014 H   0  0  0  0  0  0  0  0  0  0  0  0
   58.4166   31.8544   43.4680 H   0  0  0  0  0  0  0  0  0  0  0  0
   56.8676   32.7892   43.3841 H   0  0  0  0  0  0  0  0  0  0  0  0
   56.6560   31.5930   45.7480 H   0  0  0  0  0  0  0  0  0  0  0  0
   58.3480   31.8270   45.6730 H   0  0  0  0  0  0  0  0  0  0  0  0
   57.4664   34.1717   44.7290 H   0  0  0  0  0  0  0  0  0  0  0  0
   56.1908   33.7253   45.9271 H   0  0  0  0  0  0  0  0  0  0  0  0
   59.0340   34.5124   46.3564 H   0  0  0  0  0  0  0  0  0  0  0  0
   57.6027   34.6645   47.4410 H   0  0  0  0  0  0  0  0  0  0  0  0
   57.9730   31.9860   47.5360 H   0  0  0  0  0  0  0  0  0  0  0  0
   60.5207   33.2512   46.0009 H   0  0  0  0  0  0  0  0  0  0  0  0
   62.8546   33.7873   45.3333 H   0  0  0  0  0  0  0  0  0  0  0  0
   64.6208   34.0506   47.0649 H   0  0  0  0  0  0  0  0  0  0  0  0
   64.0563   33.8293   49.4729 H   0  0  0  0  0  0  0  0  0  0  0  0
   62.1272   33.6373   52.5060 H   0  0  0  0  0  0  0  0  0  0  0  0
   63.5042   33.3330   51.3934 H   0  0  0  0  0  0  0  0  0  0  0  0
   62.6860   34.9321   51.3934 H   0  0  0  0  0  0  0  0  0  0  0  0
   60.8767   32.5641   52.9426 H   0  0  0  0  0  0  0  0  0  0  0  0
   58.6233   31.7694   53.6071 H   0  0  0  0  0  0  0  0  0  0  0  0
   56.3620   31.4308   53.1065 H   0  0  0  0  0  0  0  0  0  0  0  0
   55.6859   32.1548   51.6080 H   0  0  0  0  0  0  0  0  0  0  0  0
   56.2439   30.4473   51.6080 H   0  0  0  0  0  0  0  0  0  0  0  0
   57.2718   32.1254   49.5223 H   0  0  0  0  0  0  0  0  0  0  0  0
  1  2  1  0
  2  3  1  0
  3  4  1  0
  4  5  1  0
  5  6  1  0
  6  7  1  0
  7  8  1  0
  8  9  1  0
  9 10  1  0
 10 11  1  0
 11 12  1  0
 12 13  1  0
 13 14  2  0
 14 15  1  0
 15 16  2  0
 16 17  1  0
 17 18  2  0
 18 19  1  0
 19 20  2  0
 20 21  1  0
 20 22  1  0
 22 23  2  0
 23 24  1  0
 24 25  2  0
 25 26  1  0
 25 27  1  0
 27 28  2  0
 28 13  1  0
 19 14  1  0
 28 22  1  0
  1 29  1  0
  1 30  1  0
  1 31  1  0
  2 32  1  0
  2 33  1  0
  4 34  1  0
  4 35  1  0
  5 36  1  0
  5 37  1  0
  7 38  1  0
  7 39  1  0
  8 40  1  0
  8 41  1  0
  9 42  1  0
  9 43  1  0
 10 44  1  0
 10 45  1  0
 11 46  1  0
 11 47  1  0
 12 48  1  0
 15 49  1  0
 16 50  1  0
 17 51  1  0
 18 52  1  0
 21 53  1  0
 21 54  1  0
 21 55  1  0
 23 56  1  0
 24 57  1  0
 26 58  1  0
 26 59  1  0
 26 60  1  0
 27 61  1  0
M  CHG  2   9   1  20   1
M  END
>  <UniqueID>  (1) 
1

>  <SMILES>  (1) 
CCOCCOCC[NH2+]CCNc1c2ccccc2[n+](C)c2ccc(C)cc12

>  <Energy>  (1) 
79.9311517112896

>  <Genealogy>  (1) 
CCOCCOCC[NH2+]CCNc1c2ccccc2[n+](C)c2ccc(C)cc12 (protonated)
CCOCCOCC[NH2+]CCNc1c2ccccc2[n+](C)c2ccc(C)cc12 (3D coordinates assigned)
CCOCCOCC[NH2+]CCNc1c2ccccc2[n+](C)c2ccc(C)cc12 (optimized conformer: 79.9311517112896 kcal/mol)

>  <smiles>  (1) 
CCOCCOCCNCCNc1c2ccccc2[n+](C)c2ccc(C)cc12

>  <score_type>  (1) 
oracle

>  <origin>  (1) 
adg

>  <m_score__min__energy>  (1) 
-3.9100000000000001

>  <m_primary>  (1) 
energy

$$$$
1:0
     RDKit          3D

 34 34  0  0  0  0  0  0  0  0999 V2000
   57.0090   30.9390   42.9230 C   0  0  0  0  0  0  0  0  0  0  0  0
   55.8830   30.0900   43.5010 C   0  0  0  0  0  0  0  0  0  0  0  0
   56.1210   29.8290   44.8720 O   0  0  0  0  0  0  0  0  0  0  0  0
   57.0630   28.7860   45.0250 C   0  0  0  0  0  0  0  0  0  0  0  0
   58.2470   29.2700   45.8880 C   0  0  1  0  0  0  0  0  0  0  0  0
   59.5730   29.0590   45.1290 C   0  0  0  0  0  0  0  0  0  0  0  0
   58.0520   30.6890   46.2640 N   0  0  0  0  0  0  0  0  0  0  0  0
   58.6640   31.0190   47.5630 C   0  0  0  0  0  0  0  0  0  0  0  0
   58.5240   32.5150   47.8690 C   0  0  0  0  0  0  0  0  0  0  0  0
   58.2510   33.2550   46.6410 N   0  0  0  0  0  0  0  0  0  0  0  0
   59.0550   34.1750   46.0760 C   0  0  0  0  0  0  0  0  0  0  0  0
   58.4730   34.5920   44.8990 C   0  0  0  0  0  0  0  0  0  0  0  0
   57.3030   33.8620   44.8060 C   0  0  0  0  0  0  0  0  0  0  0  0
   57.1920   33.0500   45.8750 N   0  0  0  0  0  0  0  0  0  0  0  0
   57.5939   31.3800   43.7436 H   0  0  0  0  0  0  0  0  0  0  0  0
   57.6636   30.3077   42.3041 H   0  0  0  0  0  0  0  0  0  0  0  0
   56.5822   31.7420   42.3041 H   0  0  0  0  0  0  0  0  0  0  0  0
   54.9301   30.6289   43.3939 H   0  0  0  0  0  0  0  0  0  0  0  0
   55.8381   29.1352   42.9567 H   0  0  0  0  0  0  0  0  0  0  0  0
   56.5806   27.9280   45.5160 H   0  0  0  0  0  0  0  0  0  0  0  0
   57.4356   28.4864   44.0344 H   0  0  0  0  0  0  0  0  0  0  0  0
   58.2927   28.6797   46.8151 H   0  0  0  0  0  0  0  0  0  0  0  0
   60.3922   28.9286   45.8514 H   0  0  0  0  0  0  0  0  0  0  0  0
   59.4951   28.1620   44.4971 H   0  0  0  0  0  0  0  0  0  0  0  0
   59.7774   29.9359   44.4971 H   0  0  0  0  0  0  0  0  0  0  0  0
   57.0250   30.8800   46.3350 H   0  0  0  0  0  0  0  0  0  0  0  0
   58.4510   31.3120   45.5230 H   0  0  0  0  0  0  0  0  0  0  0  0
   58.1637   30.4411   48.3541 H   0  0  0  0  0  0  0  0  0  0  0  0
   59.7340   30.7671   47.5217 H   0  0  0  0  0  0  0  0  0  0  0  0
   57.6952   32.6656   48.5764 H   0  0  0  0  0  0  0  0  0  0  0  0
   59.4631   32.8818   48.3090 H   0  0  0  0  0  0  0  0  0  0  0  0
   60.0120   34.5323   46.4839 H   0  0  0  0  0  0  0  0  0  0  0  0
   58.8552   35.3408   44.1896 H   0  0  0  0  0  0  0  0  0  0  0  0
   56.5744   33.9332   43.9850 H   0  0  0  0  0  0  0  0  0  0  0  0
  1  2  1  0
  2  3  1  0
  3  4  1  0
  4  5  1  0
  5  6  1  0
  5  7  1  0
  7  8  1  0
  8  9  1  0
  9 10  1  0
 10 11  1  0
 11 12  2  0
 12 13  1  0
 13 14  2  0
 14 10  1  0
  1 15  1  0
  1 16  1  0
  1 17  1  0
  2 18  1  0
  2 19  1  0
  4 20  1  0
  4 21  1  0
  5 22  1  1
  6 23  1  0
  6 24  1  0
  6 25  1  0
  7 26  1  0
  7 27  1  0
  8 28  1  0
  8 29  1  0
  9 30  1  0
  9 31  1  0
 11 32  1  0
 12 33  1  0
 13 34  1  0
M  CHG  1   7   1
M  END
>  <UniqueID>  (2) 
2

>  <SMILES>  (2) 
CCOC[C@@H](C)[NH2+]CCn1cccn1

>  <Energy>  (2) 
55.356422627785506

>  <Genealogy>  (2) 
CCOCC(C)[NH2+]CCn1cccn1 (protonated)
CCOC[C@@H](C)[NH2+]CCn1cccn1 (chirality)
CCOC[C@@H](C)[NH2+]CCn1cccn1 (3D coordinates assigned)
CCOC[C@@H](C)[NH2+]CCn1cccn1 (optimized conformer: 55.356422627785506 kcal/mol)

>  <smiles>  (2) 
CCOCC(C)NCCn1cccn1

>  <score_type>  (2) 
oracle

>  <origin>  (2) 
adg

>  <m_score__min__energy>  (2) 
-2.71

>  <m_primary>  (2) 
energy

$$$$
2:0
     RDKit          3D

 51 53  0  0  0  0  0  0  0  0999 V2000
   58.9490   33.4320   51.4590 C   0  0  0  0  0  0  0  0  0  0  0  0
   60.4290   33.4340   51.0940 C   0  0  0  0  0  0  0  0  0  0  0  0
   60.6020   33.7210   49.6700 N   0  0  0  0  0  0  0  0  0  0  0  0
   59.7420   34.4240   48.8950 C   0  0  0  0  0  0  0  0  0  0  0  0
   60.2590   34.5680   47.6120 C   0  0  0  0  0  0  0  0  0  0  0  0
   59.6510   35.3520   46.4880 C   0  0  0  0  0  0  0  0  0  0  0  0
   59.1860   34.4130   45.3650 C   0  0  0  0  0  0  0  0  0  0  0  0
   58.3640   33.3010   45.8930 N   0  0  0  0  0  0  0  0  0  0  0  0
   59.1870   32.0890   46.1480 C   0  0  0  0  0  0  0  0  0  0  0  0
   58.3390   30.8110   46.1560 C   0  0  0  0  0  0  0  0  0  0  0  0
   57.6780   30.5390   44.7720 C   0  0  0  0  0  0  0  0  0  0  0  0
   56.4280   29.7290   44.9210 N   0  0  0  0  0  0  0  0  0  0  0  0
   56.7430   28.3190   45.2420 C   0  0  0  0  0  0  0  0  0  0  0  0
   55.6090   29.7490   43.6880 C   0  0  0  0  0  0  0  0  0  0  0  0
   57.4340   31.8930   44.0350 C   0  0  0  0  0  0  0  0  0  0  0  0
   57.1860   33.0410   45.0230 C   0  0  0  0  0  0  0  0  0  0  0  0
   61.4960   33.9520   47.6310 C   0  0  0  0  0  0  0  0  0  0  0  0
   62.4740   33.8310   46.6440 C   0  0  0  0  0  0  0  0  0  0  0  0
   63.6640   33.1600   46.9770 C   0  0  0  0  0  0  0  0  0  0  0  0
   63.8520   32.6390   48.2760 C   0  0  0  0  0  0  0  0  0  0  0  0
   62.8520   32.7820   49.2550 C   0  0  0  0  0  0  0  0  0  0  0  0
   61.6740   33.4460   48.8950 C   0  0  0  0  0  0  0  0  0  0  0  0
   58.8413   33.4319   52.5537 H   0  0  0  0  0  0  0  0  0  0  0  0
   58.4676   34.3295   51.0433 H   0  0  0  0  0  0  0  0  0  0  0  0
   58.4700   32.5332   51.0433 H   0  0  0  0  0  0  0  0  0  0  0  0
   60.9470   34.2040   51.6846 H   0  0  0  0  0  0  0  0  0  0  0  0
   60.8520   32.4423   51.3124 H   0  0  0  0  0  0  0  0  0  0  0  0
   58.7740   34.8235   49.2319 H   0  0  0  0  0  0  0  0  0  0  0  0
   58.7872   35.9177   46.8673 H   0  0  0  0  0  0  0  0  0  0  0  0
   60.4084   36.0402   46.0846 H   0  0  0  0  0  0  0  0  0  0  0  0
   58.5878   34.9881   44.6430 H   0  0  0  0  0  0  0  0  0  0  0  0
   60.0768   33.9846   44.8824 H   0  0  0  0  0  0  0  0  0  0  0  0
   59.9492   32.0047   45.3594 H   0  0  0  0  0  0  0  0  0  0  0  0
   59.6512   32.1955   47.1396 H   0  0  0  0  0  0  0  0  0  0  0  0
   58.9843   29.9586   46.4148 H   0  0  0  0  0  0  0  0  0  0  0  0
   57.5355   30.9417   46.8958 H   0  0  0  0  0  0  0  0  0  0  0  0
   58.3591   29.9372   44.1524 H   0  0  0  0  0  0  0  0  0  0  0  0
   56.7720   28.1892   46.3339 H   0  0  0  0  0  0  0  0  0  0  0  0
   55.9690   27.6641   44.8153 H   0  0  0  0  0  0  0  0  0  0  0  0
   57.7221   28.0557   44.8153 H   0  0  0  0  0  0  0  0  0  0  0  0
   54.5426   29.7750   43.9565 H   0  0  0  0  0  0  0  0  0  0  0  0
   55.8598   30.6413   43.0956 H   0  0  0  0  0  0  0  0  0  0  0  0
   55.8160   28.8455   43.0956 H   0  0  0  0  0  0  0  0  0  0  0  0
   58.3184   32.1317   43.4260 H   0  0  0  0  0  0  0  0  0  0  0  0
   56.5390   31.7838   43.4049 H   0  0  0  0  0  0  0  0  0  0  0  0
   56.9579   33.9544   44.4540 H   0  0  0  0  0  0  0  0  0  0  0  0
   56.3459   32.7515   45.6715 H   0  0  0  0  0  0  0  0  0  0  0  0
   62.3194   34.2471   45.6375 H   0  0  0  0  0  0  0  0  0  0  0  0
   64.4537   33.0401   46.2207 H   0  0  0  0  0  0  0  0  0  0  0  0
   64.7879   32.1171   48.5243 H   0  0  0  0  0  0  0  0  0  0  0  0
   62.9916   32.3845   50.2711 H   0  0  0  0  0  0  0  0  0  0  0  0
  1  2  1  0
  2  3  1  0
  3  4  1  0
  4  5  2  0
  5  6  1  0
  6  7  1  0
  7  8  1  0
  8  9  1  0
  9 10  1  0
 10 11  1  0
 11 12  1  0
 12 13  1  0
 12 14  1  0
 11 15  1  0
 15 16  1  0
  5 17  1  0
 17 18  2  0
 18 19  1  0
 19 20  2  0
 20 21  1  0
 21 22  2  0
 22  3  1  0
 16  8  1  0
 22 17  1  0
  1 23  1  0
  1 24  1  0
  1 25  1  0
  2 26  1  0
  2 27  1  0
  4 28  1  0
  6 29  1  0
  6 30  1  0
  7 31  1  0
  7 32  1  0
  9 33  1  0
  9 34  1  0
 10 35  1  0
 10 36  1  0
 11 37  1  0
 13 38  1  0
 13 39  1  0
 13 40  1  0
 14 41  1  0
 14 42  1  0
 14 43  1  0
 15 44  1  0
 15 45  1  0
 16 46  1  0
 16 47  1  0
 18 48  1  0
 19 49  1  0
 20 50  1  0
 21 51  1  0
M  END
>  <UniqueID>  (3) 
3

>  <SMILES>  (3) 
CCn1cc(CCN2CCC(N(C)C)CC2)c2ccccc21

>  <Energy>  (3) 
95.45902006323502

>  <Genealogy>  (3) 
CCn1cc(CCN2CCC(N(C)C)CC2)c2ccccc21 (3D coordinates assigned)
CCn1cc(CCN2CCC(N(C)C)CC2)c2ccccc21 (nonaromatic ring conformer: 95.45902006323502 kcal/mol)

>  <smiles>  (3) 
CCn1cc(CCN2CCC(N(C)C)CC2)c2ccccc21

>  <score_type>  (3) 
oracle

>  <origin>  (3) 
adg

>  <m_score__min__energy>  (3) 
-8.0800000000000001

>  <m_primary>  (3) 
energy

$$$$
3:0
     RDKit          3D

 48 51  0  0  0  0  0  0  0  0999 V2000
   62.1360   31.7380   47.4870 C   0  0  0  0  0  0  0  0  0  0  0  0
   61.9730   31.3350   48.9570 C   0  0  0  0  0  0  0  0  0  0  0  0
   60.7980   30.4750   49.1770 N   0  0  0  0  0  0  0  0  0  0  0  0
   61.1700   29.1400   49.6830 C   0  0  0  0  0  0  0  0  0  0  0  0
   60.4790   28.0110   48.9040 C   0  0  0  0  0  0  0  0  0  0  0  0
   59.0520   28.2790   48.6880 N   0  0  0  0  0  0  0  0  0  0  0  0
   58.3100   27.7790   47.5630 C   0  0  0  0  0  0  0  0  0  0  0  0
   58.0120   28.5580   46.5010 C   0  0  0  0  0  0  0  0  0  0  0  0
   57.4760   27.9950   45.2650 C   0  0  0  0  0  0  0  0  0  0  0  0
   57.0720   26.7260   45.1540 C   0  0  0  0  0  0  0  0  0  0  0  0
   57.0790   25.8210   46.3580 C   0  0  0  0  0  0  0  0  0  0  0  0
   57.9940   26.3260   47.4500 C   0  0  0  0  0  0  0  0  0  0  0  0
   58.5020   25.4970   48.2500 O   0  0  0  0  0  0  0  0  0  0  0  0
   57.5000   29.0310   44.2310 C   0  0  0  0  0  0  0  0  0  0  0  0
   57.0580   28.8460   42.8810 N   0  0  0  0  0  0  0  0  0  0  0  0
   57.9640   30.1690   44.7640 C   0  0  0  0  0  0  0  0  0  0  0  0
   58.1390   31.4920   44.1380 C   0  0  0  0  0  0  0  0  0  0  0  0
   57.9940   31.6610   42.8980 O   0  0  0  0  0  0  0  0  0  0  0  0
   58.5110   32.6220   45.0180 C   0  0  0  0  0  0  0  0  0  0  0  0
   58.6820   33.9150   44.4950 C   0  0  0  0  0  0  0  0  0  0  0  0
   59.0210   34.9770   45.3340 C   0  0  0  0  0  0  0  0  0  0  0  0
   59.1920   34.7630   46.7020 C   0  0  0  0  0  0  0  0  0  0  0  0
   59.0260   33.4840   47.2390 C   0  0  0  0  0  0  0  0  0  0  0  0
   58.6870   32.4000   46.4090 C   0  0  0  0  0  0  0  0  0  0  0  0
   58.5170   31.0370   46.9940 C   0  0  0  0  0  0  0  0  0  0  0  0
   58.5870   30.8860   48.3710 O   0  0  0  0  0  0  0  0  0  0  0  0
   58.2560   29.9860   46.1930 C   0  0  0  0  0  0  0  0  0  0  0  0
   62.5479   32.7564   47.4295 H   0  0  0  0  0  0  0  0  0  0  0  0
   62.8212   31.0366   46.9883 H   0  0  0  0  0  0  0  0  0  0  0  0
   61.1559   31.7102   46.9883 H   0  0  0  0  0  0  0  0  0  0  0  0
   62.8739   30.7903   49.2758 H   0  0  0  0  0  0  0  0  0  0  0  0
   61.8293   32.2549   49.5427 H   0  0  0  0  0  0  0  0  0  0  0  0
   60.1800   30.9460   49.8790 H   0  0  0  0  0  0  0  0  0  0  0  0
   60.2690   30.3840   48.2790 H   0  0  0  0  0  0  0  0  0  0  0  0
   62.2594   29.0177   49.5923 H   0  0  0  0  0  0  0  0  0  0  0  0
   60.8457   29.0741   50.7320 H   0  0  0  0  0  0  0  0  0  0  0  0
   60.9711   27.9026   47.9262 H   0  0  0  0  0  0  0  0  0  0  0  0
   60.5633   27.0896   49.4989 H   0  0  0  0  0  0  0  0  0  0  0  0
   58.5750   28.9520   49.3300 H   0  0  0  0  0  0  0  0  0  0  0  0
   56.7334   26.3413   44.1807 H   0  0  0  0  0  0  0  0  0  0  0  0
   56.0559   25.7545   46.7565 H   0  0  0  0  0  0  0  0  0  0  0  0
   57.4499   24.8365   46.0368 H   0  0  0  0  0  0  0  0  0  0  0  0
   57.2650   29.5310   42.1250 H   0  0  0  0  0  0  0  0  0  0  0  0
   56.4840   28.0160   42.6200 H   0  0  0  0  0  0  0  0  0  0  0  0
   58.5478   34.0910   43.4175 H   0  0  0  0  0  0  0  0  0  0  0  0
   59.1538   35.9857   44.9158 H   0  0  0  0  0  0  0  0  0  0  0  0
   59.4583   35.6036   47.3596 H   0  0  0  0  0  0  0  0  0  0  0  0
   59.1614   33.3234   48.3188 H   0  0  0  0  0  0  0  0  0  0  0  0
  1  2  1  0
  2  3  1  0
  3  4  1  0
  4  5  1  0
  5  6  1  0
  6  7  1  0
  7  8  2  0
  8  9  1  0
  9 10  2  0
 10 11  1  0
 11 12  1  0
 12 13  2  0
  9 14  1  0
 14 15  1  0
 14 16  2  0
 16 17  1  0
 17 18  2  0
 17 19  1  0
 19 20  2  0
 20 21  1  0
 21 22  2  0
 22 23  1  0
 23 24  2  0
 24 25  1  0
 25 26  1  0
 25 27  2  0
 12  7  1  0
 27 16  1  0
 27  8  1  0
 24 19  1  0
  1 28  1  0
  1 29  1  0
  1 30  1  0
  2 31  1  0
  2 32  1  0
  3 33  1  0
  3 34  1  0
  4 35  1  0
  4 36  1  0
  5 37  1  0
  5 38  1  0
  6 39  1  0
 10 40  1  0
 11 41  1  0
 11 42  1  0
 15 43  1  0
 15 44  1  0
 20 45  1  0
 21 46  1  0
 22 47  1  0
 23 48  1  0
M  CHG  2   3   1  26  -1
M  END
>  <UniqueID>  (4) 
4

>  <SMILES>  (4) 
CC[NH2+]CCNC1=C2C(=CCC1=O)C(N)=C1C(=O)c3ccccc3C([O-])=C12

>  <Energy>  (4) 
90.8450336275561

>  <Genealogy>  (4) 
CC[NH2+]CCNC1=C2C(=CCC1=O)C(N)=C1C(=O)c3ccccc3C([O-])=C12 (protonated)
CC[NH2+]CCNC1=C2C(=CCC1=O)C(N)=C1C(=O)c3ccccc3C([O-])=C12 (3D coordinates assigned)
CC[NH2+]CCNC1=C2C(=CCC1=O)C(N)=C1C(=O)c3ccccc3C([O-])=C12 (nonaromatic ring conformer: 90.8450336275561 kcal/mol)

>  <smiles>  (4) 
CCNCCNC1=C2C(=CCC1=O)C(N)=C1C(=O)c3ccccc3C(O)=C12

>  <score_type>  (4) 
oracle

>  <origin>  (4) 
adg

>  <m_score__min__energy>  (4) 
-10.6

>  <m_primary>  (4) 
energy

$$$$
4:0
     RDKit          3D

 40 43  0  0  0  0  0  0  0  0999 V2000
   63.3810   33.8240   46.6630 C   0  0  0  0  0  0  0  0  0  0  0  0
   63.0550   33.2170   48.0280 C   0  0  0  0  0  0  0  0  0  0  0  0
   63.0970   31.6850   48.0190 C   0  0  0  0  0  0  0  0  0  0  0  0
   62.0330   31.1370   47.1680 N   0  0  0  0  0  0  0  0  0  0  0  0
   60.7570   31.1150   47.8910 C   0  0  0  0  0  0  0  0  0  0  0  0
   59.6000   31.0940   46.9020 C   0  0  0  0  0  0  0  0  0  0  0  0
   59.1770   32.2830   46.2390 C   0  0  0  0  0  0  0  0  0  0  0  0
   59.8740   33.5100   46.3390 C   0  0  0  0  0  0  0  0  0  0  0  0
   59.4000   34.6550   45.6930 C   0  0  0  0  0  0  0  0  0  0  0  0
   58.2340   34.6030   44.9310 C   0  0  0  0  0  0  0  0  0  0  0  0
   57.5460   33.3970   44.7940 C   0  0  0  0  0  0  0  0  0  0  0  0
   58.0140   32.2400   45.4280 C   0  0  0  0  0  0  0  0  0  0  0  0
   57.3470   31.0760   45.2410 N   0  0  0  0  0  0  0  0  0  0  0  0
   57.7590   29.9090   45.7890 C   0  0  0  0  0  0  0  0  0  0  0  0
   57.0350   28.7330   45.5110 C   0  0  0  0  0  0  0  0  0  0  0  0
   57.4990   27.5410   46.0490 C   0  0  0  0  0  0  0  0  0  0  0  0
   58.6120   27.4850   46.8180 C   0  0  0  0  0  0  0  0  0  0  0  0
   59.3580   28.6180   47.1260 C   0  0  0  0  0  0  0  0  0  0  0  0
   58.9210   29.8750   46.6200 C   0  0  0  0  0  0  0  0  0  0  0  0
   58.8430   26.1770   47.1980 O   0  0  0  0  0  0  0  0  0  0  0  0
   57.8060   25.3620   46.6360 C   0  0  0  0  0  0  0  0  0  0  0  0
   56.9690   26.2720   45.9100 O   0  0  0  0  0  0  0  0  0  0  0  0
   63.8972   34.7852   46.8030 H   0  0  0  0  0  0  0  0  0  0  0  0
   64.0314   33.1368   46.1020 H   0  0  0  0  0  0  0  0  0  0  0  0
   62.4489   33.9867   46.1020 H   0  0  0  0  0  0  0  0  0  0  0  0
   63.7881   33.5849   48.7609 H   0  0  0  0  0  0  0  0  0  0  0  0
   62.0306   33.5199   48.2903 H   0  0  0  0  0  0  0  0  0  0  0  0
   64.0727   31.3536   47.6341 H   0  0  0  0  0  0  0  0  0  0  0  0
   62.9467   31.3231   49.0468 H   0  0  0  0  0  0  0  0  0  0  0  0
   61.9150   31.7770   46.3470 H   0  0  0  0  0  0  0  0  0  0  0  0
   60.7120   30.2163   48.5237 H   0  0  0  0  0  0  0  0  0  0  0  0
   60.6808   32.0159   48.5176 H   0  0  0  0  0  0  0  0  0  0  0  0
   60.7991   33.5634   46.9317 H   0  0  0  0  0  0  0  0  0  0  0  0
   59.9503   35.6029   45.7864 H   0  0  0  0  0  0  0  0  0  0  0  0
   57.8569   35.5114   44.4384 H   0  0  0  0  0  0  0  0  0  0  0  0
   56.6311   33.3551   44.1847 H   0  0  0  0  0  0  0  0  0  0  0  0
   56.1297   28.7588   44.8867 H   0  0  0  0  0  0  0  0  0  0  0  0
   60.2639   28.5445   47.7457 H   0  0  0  0  0  0  0  0  0  0  0  0
   58.2323   24.6061   45.9600 H   0  0  0  0  0  0  0  0  0  0  0  0
   57.2469   24.8146   47.4092 H   0  0  0  0  0  0  0  0  0  0  0  0
  1  2  1  0
  2  3  1  0
  3  4  1  0
  4  5  1  0
  5  6  1  0
  6  7  2  0
  7  8  1  0
  8  9  2  0
  9 10  1  0
 10 11  2  0
 11 12  1  0
 12 13  2  0
 13 14  1  0
 14 15  2  0
 15 16  1  0
 16 17  2  0
 17 18  1  0
 18 19  2  0
 17 20  1  0
 20 21  1  0
 21 22  1  0
 19  6  1  0
 12  7  1  0
 19 14  1  0
 22 16  1  0
  1 23  1  0
  1 24  1  0
  1 25  1  0
  2 26  1  0
  2 27  1  0
  3 28  1  0
  3 29  1  0
  4 30  1  0
  5 31  1  0
  5 32  1  0
  8 33  1  0
  9 34  1  0
 10 35  1  0
 11 36  1  0
 15 37  1  0
 18 38  1  0
 21 39  1  0
 21 40  1  0
M  END
>  <UniqueID>  (5) 
5

>  <SMILES>  (5) 
CCCNCc1c2ccccc2nc2cc3c(cc12)OCO3

>  <Energy>  (5) 
78.29106032294519

>  <Genealogy>  (5) 
CCCNCc1c2ccccc2nc2cc3c(cc12)OCO3 (3D coordinates assigned)
CCCNCc1c2ccccc2nc2cc3c(cc12)OCO3 (nonaromatic ring conformer: 78.29106032294519 kcal/mol)

>  <smiles>  (5) 
CCCNCc1c2ccccc2nc2cc3c(cc12)OCO3

>  <score_type>  (5) 
oracle

>  <origin>  (5) 
adg

>  <m_score__min__energy>  (5) 
-7

>  <m_primary>  (5) 
energy

$$$$
5:0
     RDKit          3D

 76 79  0  0  0  0  0  0  0  0999 V2000
   63.2010   33.8380   46.4120 C   0  0  0  0  0  0  0  0  0  0  0  0
   63.0470   33.4130   47.8760 C   0  0  0  0  0  0  0  0  0  0  0  0
   61.6420   33.0880   48.2110 N   0  0  0  0  0  0  0  0  0  0  0  0
   60.6560   33.8370   47.4080 C   0  0  0  0  0  0  0  0  0  0  0  0
   59.2860   33.9610   48.0990 C   0  0  0  0  0  0  0  0  0  0  0  0
   58.6270   32.6590   48.2340 N   0  0  0  0  0  0  0  0  0  0  0  0
   58.9010   31.6130   47.2880 C   0  0  0  0  0  0  0  0  0  0  0  0
   58.5360   31.7800   45.9370 C   0  0  0  0  0  0  0  0  0  0  0  0
   58.2530   33.0580   45.4070 C   0  0  0  0  0  0  0  0  0  0  0  0
   57.9210   33.2150   44.0640 C   0  0  0  0  0  0  0  0  0  0  0  0
   57.8690   32.1080   43.2240 C   0  0  0  0  0  0  0  0  0  0  0  0
   57.5010   32.3190   41.5180 Cl  0  0  0  0  0  0  0  0  0  0  0  0
   58.1310   30.8350   43.7270 C   0  0  0  0  0  0  0  0  0  0  0  0
   58.4410   30.6410   45.1000 C   0  0  0  0  0  0  0  0  0  0  0  0
   58.6370   29.3810   45.6290 N   0  0  0  0  0  0  0  0  0  0  0  0
   58.2290   28.1800   44.8650 C   0  0  0  0  0  0  0  0  0  0  0  0
   59.2380   29.2400   46.8670 C   0  0  0  0  0  0  0  0  0  0  0  0
   59.7130   27.9810   47.3070 C   0  0  0  0  0  0  0  0  0  0  0  0
   60.3050   27.8300   48.5500 C   0  0  0  0  0  0  0  0  0  0  0  0
   60.5030   28.9290   49.3700 C   0  0  0  0  0  0  0  0  0  0  0  0
   60.1160   30.2220   48.9620 C   0  0  0  0  0  0  0  0  0  0  0  0
   60.4920   31.3500   49.7380 O   0  0  0  0  0  0  0  0  0  0  0  0
   61.2910   31.2320   50.9330 C   0  0  0  0  0  0  0  0  0  0  0  0
   60.5680   31.6060   52.2560 C   0  0  0  0  0  0  0  0  0  0  0  0
   59.0750   31.8280   52.2150 N   0  0  0  0  0  0  0  0  0  0  0  0
   58.8210   33.1210   51.5280 C   0  0  0  0  0  0  0  0  0  0  0  0
   58.5560   31.9650   53.6220 C   0  0  0  0  0  0  0  0  0  0  0  0
   58.0830   30.6150   54.2070 C   0  0  0  0  0  0  0  0  0  0  0  0
   56.9220   30.0450   53.4460 N   0  0  0  0  0  0  0  0  0  0  0  0
   55.6480   30.4630   54.0820 C   0  0  0  0  0  0  0  0  0  0  0  0
   56.9900   28.5610   53.4950 C   0  0  0  0  0  0  0  0  0  0  0  0
   56.9220   30.5020   52.0180 C   0  0  0  0  0  0  0  0  0  0  0  0
   58.3540   30.7250   51.4900 C   0  0  0  0  0  0  0  0  0  0  0  0
   59.4080   30.3690   47.7240 C   0  0  0  0  0  0  0  0  0  0  0  0
   63.5754   34.8714   46.3676 H   0  0  0  0  0  0  0  0  0  0  0  0
   63.9135   33.1679   45.9087 H   0  0  0  0  0  0  0  0  0  0  0  0
   62.2246   33.7799   45.9087 H   0  0  0  0  0  0  0  0  0  0  0  0
   63.6703   32.5247   48.0560 H   0  0  0  0  0  0  0  0  0  0  0  0
   63.3632   34.2541   48.5105 H   0  0  0  0  0  0  0  0  0  0  0  0
   61.4390   33.2210   49.2270 H   0  0  0  0  0  0  0  0  0  0  0  0
   61.4990   32.0690   48.0110 H   0  0  0  0  0  0  0  0  0  0  0  0
   61.0488   34.8480   47.2248 H   0  0  0  0  0  0  0  0  0  0  0  0
   60.5028   33.2797   46.4721 H   0  0  0  0  0  0  0  0  0  0  0  0
   59.4296   34.3933   49.1002 H   0  0  0  0  0  0  0  0  0  0  0  0
   58.6464   34.6063   47.4789 H   0  0  0  0  0  0  0  0  0  0  0  0
   58.1850   32.4210   49.1500 H   0  0  0  0  0  0  0  0  0  0  0  0
   58.2954   33.9399   46.0630 H   0  0  0  0  0  0  0  0  0  0  0  0
   57.6994   34.2165   43.6667 H   0  0  0  0  0  0  0  0  0  0  0  0
   58.0973   29.9677   43.0512 H   0  0  0  0  0  0  0  0  0  0  0  0
   57.9558   27.3759   45.5642 H   0  0  0  0  0  0  0  0  0  0  0  0
   57.3636   28.4248   44.2316 H   0  0  0  0  0  0  0  0  0  0  0  0
   59.0644   27.8470   44.2316 H   0  0  0  0  0  0  0  0  0  0  0  0
   59.6099   27.1057   46.6489 H   0  0  0  0  0  0  0  0  0  0  0  0
   60.6198   26.8317   48.8881 H   0  0  0  0  0  0  0  0  0  0  0  0
   60.9701   28.7905   50.3562 H   0  0  0  0  0  0  0  0  0  0  0  0
   61.6289   30.1883   51.0139 H   0  0  0  0  0  0  0  0  0  0  0  0
   62.1128   31.9546   50.8213 H   0  0  0  0  0  0  0  0  0  0  0  0
   60.7573   30.7929   52.9723 H   0  0  0  0  0  0  0  0  0  0  0  0
   60.9825   32.5889   52.5247 H   0  0  0  0  0  0  0  0  0  0  0  0
   58.6659   33.9105   52.2781 H   0  0  0  0  0  0  0  0  0  0  0  0
   59.6858   33.3779   50.8987 H   0  0  0  0  0  0  0  0  0  0  0  0
   57.9232   33.0317   50.8987 H   0  0  0  0  0  0  0  0  0  0  0  0
   59.3598   32.3640   54.2582 H   0  0  0  0  0  0  0  0  0  0  0  0
   57.6898   32.6426   53.5966 H   0  0  0  0  0  0  0  0  0  0  0  0
   58.9178   29.8998   54.1682 H   0  0  0  0  0  0  0  0  0  0  0  0
   57.7555   30.7909   55.2423 H   0  0  0  0  0  0  0  0  0  0  0  0
   55.7555   30.4277   55.1762 H   0  0  0  0  0  0  0  0  0  0  0  0
   55.4021   31.4889   53.7706 H   0  0  0  0  0  0  0  0  0  0  0  0
   54.8421   29.7822   53.7706 H   0  0  0  0  0  0  0  0  0  0  0  0
   57.0052   28.2291   54.5436 H   0  0  0  0  0  0  0  0  0  0  0  0
   56.1104   28.1367   52.9888 H   0  0  0  0  0  0  0  0  0  0  0  0
   57.9048   28.2190   52.9888 H   0  0  0  0  0  0  0  0  0  0  0  0
   56.4289   29.7378   51.3992 H   0  0  0  0  0  0  0  0  0  0  0  0
   56.3840   31.4600   51.9647 H   0  0  0  0  0  0  0  0  0  0  0  0
   58.9236   29.7920   51.6130 H   0  0  0  0  0  0  0  0  0  0  0  0
   58.2763   31.0180   50.4326 H   0  0  0  0  0  0  0  0  0  0  0  0
  1  2  1  0
  2  3  1  0
  3  4  1  0
  4  5  1  0
  5  6  1  0
  6  7  1  0
  7  8  2  0
  8  9  1  0
  9 10  2  0
 10 11  1  0
 11 12  1  0
 11 13  2  0
 13 14  1  0
 14 15  2  0
 15 16  1  0
 15 17  1  0
 17 18  2  0
 18 19  1  0
 19 20  2  0
 20 21  1  0
 21 22  1  0
 22 23  1  0
 23 24  1  0
 24 25  1  0
 25 26  1  0
 25 27  1  0
 27 28  1  0
 28 29  1  0
 29 30  1  0
 29 31  1  0
 29 32  1  0
 32 33  1  0
 21 34  2  0
 34  7  1  0
 14  8  1  0
 34 17  1  0
 33 25  1  0
  1 35  1  0
  1 36  1  0
  1 37  1  0
  2 38  1  0
  2 39  1  0
  3 40  1  0
  3 41  1  0
  4 42  1  0
  4 43  1  0
  5 44  1  0
  5 45  1  0
  6 46  1  0
  9 47  1  0
 10 48  1  0
 13 49  1  0
 16 50  1  0
 16 51  1  0
 16 52  1  0
 18 53  1  0
 19 54  1  0
 20 55  1  0
 23 56  1  0
 23 57  1  0
 24 58  1  0
 24 59  1  0
 26 60  1  0
 26 61  1  0
 26 62  1  0
 27 63  1  0
 27 64  1  0
 28 65  1  0
 28 66  1  0
 30 67  1  0
 30 68  1  0
 30 69  1  0
 31 70  1  0
 31 71  1  0
 31 72  1  0
 32 73  1  0
 32 74  1  0
 33 75  1  0
 33 76  1  0
M  CHG  4   3   1  15   1  25   1  29   1
M  END
>  <UniqueID>  (6) 
6

>  <SMILES>  (6) 
CC[NH2+]CCNc1c2ccc(Cl)cc2[n+](C)c2cccc(OCC[N+]3(C)CC[N+](C)(C)CC3)c12

>  <Energy>  (6) 
140.46354876929743

>  <Genealogy>  (6) 
CC[NH2+]CCNc1c2ccc(Cl)cc2[n+](C)c2cccc(OCC[N+]3(C)CC[N+](C)(C)CC3)c12 (protonated)
CC[NH2+]CCNc1c2ccc(Cl)cc2[n+](C)c2cccc(OCC[N+]3(C)CC[N+](C)(C)CC3)c12 (3D coordinates assigned)
CC[NH2+]CCNc1c2ccc(Cl)cc2[n+](C)c2cccc(OCC[N+]3(C)CC[N+](C)(C)CC3)c12 (nonaromatic ring conformer: 140.46354876929743 kcal/mol)

>  <smiles>  (6) 
CCNCCNc1c2ccc(Cl)cc2[n+](C)c2cccc(OCC[N+]3(C)CC[N+](C)(C)CC3)c12

>  <score_type>  (6) 
oracle

>  <origin>  (6) 
adg

>  <m_score__min__energy>  (6) 
-2.5099999999999998

>  <m_primary>  (6) 
energy

$$$$
6:0
     RDKit          3D

 48 50  0  0  0  0  0  0  0  0999 V2000
   60.7130   27.9090   49.7620 C   0  0  0  0  0  0  0  0  0  0  0  0
   60.0030   27.4710   48.5210 C   0  0  0  0  0  0  0  0  0  0  0  0
   59.5280   26.2530   48.3580 O   0  0  0  0  0  0  0  0  0  0  0  0
   58.9790   26.1920   47.1700 C   0  0  0  0  0  0  0  0  0  0  0  0
   58.3540   25.0920   46.5930 C   0  0  0  0  0  0  0  0  0  0  0  0
   57.8120   25.2420   45.3070 C   0  0  0  0  0  0  0  0  0  0  0  0
   57.8960   26.4790   44.6350 C   0  0  0  0  0  0  0  0  0  0  0  0
   58.5310   27.5910   45.2420 C   0  0  0  0  0  0  0  0  0  0  0  0
   58.6050   28.8500   44.6260 O   0  0  0  0  0  0  0  0  0  0  0  0
   57.6220   29.3920   43.7450 C   0  0  0  0  0  0  0  0  0  0  0  0
   56.6460   30.2510   44.5030 C   0  0  0  0  0  0  0  0  0  0  0  0
   55.5250   29.7680   44.8110 O   0  0  0  0  0  0  0  0  0  0  0  0
   56.9570   31.5870   44.9250 N   0  0  0  0  0  0  0  0  0  0  0  0
   57.8180   32.5430   44.2310 C   0  0  0  0  0  0  0  0  0  0  0  0
   57.7500   32.2710   42.7290 C   0  0  0  0  0  0  0  0  0  0  0  0
   57.3740   33.9770   44.5320 C   0  0  0  0  0  0  0  0  0  0  0  0
   59.0850   27.3980   46.5160 C   0  0  0  0  0  0  0  0  0  0  0  0
   59.7490   28.2480   47.3890 C   0  0  0  0  0  0  0  0  0  0  0  0
   60.1540   29.6510   47.1700 C   0  0  0  0  0  0  0  0  0  0  0  0
   61.3580   29.9840   47.3280 O   0  0  0  0  0  0  0  0  0  0  0  0
   59.1820   30.6260   46.7600 N   0  0  0  0  0  0  0  0  0  0  0  0
   59.3750   32.0460   46.8700 C   0  0  0  0  0  0  0  0  0  0  0  0
   58.3840   32.8810   47.4200 C   0  0  0  0  0  0  0  0  0  0  0  0
   58.5870   34.2640   47.4920 C   0  0  0  0  0  0  0  0  0  0  0  0
   59.7710   34.8240   47.0060 C   0  0  0  0  0  0  0  0  0  0  0  0
   60.7500   34.0050   46.4380 C   0  0  0  0  0  0  0  0  0  0  0  0
   60.5510   32.6230   46.3640 C   0  0  0  0  0  0  0  0  0  0  0  0
   60.1546   27.5645   50.6449 H   0  0  0  0  0  0  0  0  0  0  0  0
   61.7249   27.4780   49.7770 H   0  0  0  0  0  0  0  0  0  0  0  0
   60.7818   29.0067   49.7770 H   0  0  0  0  0  0  0  0  0  0  0  0
   58.2864   24.1333   47.1282 H   0  0  0  0  0  0  0  0  0  0  0  0
   57.3181   24.3884   44.8197 H   0  0  0  0  0  0  0  0  0  0  0  0
   57.4639   26.5818   43.6287 H   0  0  0  0  0  0  0  0  0  0  0  0
   58.1213   30.0027   42.9784 H   0  0  0  0  0  0  0  0  0  0  0  0
   57.0730   28.5633   43.2740 H   0  0  0  0  0  0  0  0  0  0  0  0
   58.8543   32.4256   44.5807 H   0  0  0  0  0  0  0  0  0  0  0  0
   57.4864   31.2167   42.5589 H   0  0  0  0  0  0  0  0  0  0  0  0
   56.9860   32.9181   42.2734 H   0  0  0  0  0  0  0  0  0  0  0  0
   58.7286   32.4824   42.2734 H   0  0  0  0  0  0  0  0  0  0  0  0
   57.3280   34.1257   45.6209 H   0  0  0  0  0  0  0  0  0  0  0  0
   58.0955   34.6835   44.0957 H   0  0  0  0  0  0  0  0  0  0  0  0
   56.3796   34.1522   44.0957 H   0  0  0  0  0  0  0  0  0  0  0  0
   58.3280   30.2820   46.2660 H   0  0  0  0  0  0  0  0  0  0  0  0
   57.4463   32.4448   47.7947 H   0  0  0  0  0  0  0  0  0  0  0  0
   57.8134   34.9107   47.9317 H   0  0  0  0  0  0  0  0  0  0  0  0
   59.9325   35.9102   47.0706 H   0  0  0  0  0  0  0  0  0  0  0  0
   61.6785   34.4479   46.0485 H   0  0  0  0  0  0  0  0  0  0  0  0
   61.3205   31.9837   45.9065 H   0  0  0  0  0  0  0  0  0  0  0  0
  1  2  1  0
  2  3  1  0
  3  4  1  0
  4  5  2  0
  5  6  1  0
  6  7  2  0
  7  8  1  0
  8  9  1  0
  9 10  1  0
 10 11  1  0
 11 12  2  0
 11 13  1  0
 13 14  1  0
 14 15  1  0
 14 16  1  0
  8 17  2  0
 17 18  1  0
 18 19  1  0
 19 20  2  0
 19 21  1  0
 21 22  1  0
 22 23  2  0
 23 24  1  0
 24 25  2  0
 25 26  1  0
 26 27  2  0
 18  2  2  0
 27 22  1  0
 17  4  1  0
  1 28  1  0
  1 29  1  0
  1 30  1  0
  5 31  1  0
  6 32  1  0
  7 33  1  0
 10 34  1  0
 10 35  1  0
 14 36  1  0
 15 37  1  0
 15 38  1  0
 15 39  1  0
 16 40  1  0
 16 41  1  0
 16 42  1  0
 21 43  1  0
 23 44  1  0
 24 45  1  0
 25 46  1  0
 26 47  1  0
 27 48  1  0
M  CHG  1  13  -1
M  END
>  <UniqueID>  (7) 
7

>  <SMILES>  (7) 
Cc1oc2cccc(OCC(=O)[N-]C(C)C)c2c1C(=O)Nc1ccccc1

>  <Energy>  (7) 
84.00146066658063

>  <Genealogy>  (7) 
Cc1oc2cccc(OCC(=O)[N-]C(C)C)c2c1C(=O)Nc1ccccc1 (protonated)
Cc1oc2cccc(OCC(=O)[N-]C(C)C)c2c1C(=O)Nc1ccccc1 (3D coordinates assigned)
Cc1oc2cccc(OCC(=O)[N-]C(C)C)c2c1C(=O)Nc1ccccc1 (optimized conformer: 84.00146066658063 kcal/mol)

>  <smiles>  (7) 
Cc1oc2cccc(OCC(=O)NC(C)C)c2c1C(=O)Nc1ccccc1

>  <score_type>  (7) 
oracle

>  <origin>  (7) 
adg

>  <m_score__min__energy>  (7) 
-9.0899999999999999

>  <m_primary>  (7) 
energy

$$$$
7:0
     RDKit          3D

 39 41  0  0  0  0  0  0  0  0999 V2000
   59.7100   33.6790   54.3510 C   0  0  0  0  0  0  0  0  0  0  0  0
   58.9070   34.8870   53.8730 C   0  0  0  0  0  0  0  0  0  0  0  0
   58.4490   34.6970   52.4860 N   0  0  0  0  0  0  0  0  0  0  0  0
   57.8550   33.3650   52.2720 C   0  0  0  0  0  0  0  0  0  0  0  0
   58.7010   32.4870   51.3420 C   0  0  0  0  0  0  0  0  0  0  0  0
   59.4470   33.3190   50.4580 O   0  0  0  0  0  0  0  0  0  0  0  0
   59.2670   33.3640   49.0680 C   0  0  0  0  0  0  0  0  0  0  0  0
   59.7920   34.4540   48.3660 C   0  0  0  0  0  0  0  0  0  0  0  0
   59.6420   34.5500   46.9790 C   0  0  0  0  0  0  0  0  0  0  0  0
   58.9590   33.5460   46.2710 C   0  0  0  0  0  0  0  0  0  0  0  0
   58.7840   33.6020   44.8780 C   0  0  0  0  0  0  0  0  0  0  0  0
   59.2460   34.5720   44.2140 O   0  0  0  0  0  0  0  0  0  0  0  0
   58.0900   32.5640   44.2310 C   0  0  0  0  0  0  0  0  0  0  0  0
   57.8800   32.5560   42.8390 C   0  0  0  0  0  0  0  0  0  0  0  0
   57.1840   31.5030   42.2390 C   0  0  0  0  0  0  0  0  0  0  0  0
   56.6930   30.4520   43.0180 C   0  0  0  0  0  0  0  0  0  0  0  0
   56.8950   30.4480   44.4010 C   0  0  0  0  0  0  0  0  0  0  0  0
   57.5900   31.4970   45.0120 C   0  0  0  0  0  0  0  0  0  0  0  0
   57.7760   31.4800   46.3290 O   0  0  0  0  0  0  0  0  0  0  0  0
   58.4260   32.4420   46.9750 C   0  0  0  0  0  0  0  0  0  0  0  0
   58.5810   32.3560   48.3640 C   0  0  0  0  0  0  0  0  0  0  0  0
   59.7231   33.6593   55.4507 H   0  0  0  0  0  0  0  0  0  0  0  0
   59.2447   32.7566   53.9733 H   0  0  0  0  0  0  0  0  0  0  0  0
   60.7406   33.7510   53.9733 H   0  0  0  0  0  0  0  0  0  0  0  0
   58.0321   35.0195   54.5264 H   0  0  0  0  0  0  0  0  0  0  0  0
   59.5530   35.7765   53.9115 H   0  0  0  0  0  0  0  0  0  0  0  0
   57.7140   35.4120   52.2740 H   0  0  0  0  0  0  0  0  0  0  0  0
   59.2470   34.8440   51.8240 H   0  0  0  0  0  0  0  0  0  0  0  0
   57.7612   32.8602   53.2448 H   0  0  0  0  0  0  0  0  0  0  0  0
   56.8744   33.5092   51.7948 H   0  0  0  0  0  0  0  0  0  0  0  0
   59.3916   31.8757   51.9415 H   0  0  0  0  0  0  0  0  0  0  0  0
   58.0422   31.8270   50.7585 H   0  0  0  0  0  0  0  0  0  0  0  0
   60.3288   35.2444   48.9110 H   0  0  0  0  0  0  0  0  0  0  0  0
   60.0596   35.4135   46.4406 H   0  0  0  0  0  0  0  0  0  0  0  0
   58.2649   33.3811   42.2217 H   0  0  0  0  0  0  0  0  0  0  0  0
   57.0223   31.5016   41.1509 H   0  0  0  0  0  0  0  0  0  0  0  0
   56.1459   29.6253   42.5414 H   0  0  0  0  0  0  0  0  0  0  0  0
   56.5067   29.6184   45.0101 H   0  0  0  0  0  0  0  0  0  0  0  0
   58.1643   31.4958   48.9084 H   0  0  0  0  0  0  0  0  0  0  0  0
  1  2  1  0
  2  3  1  0
  3  4  1  0
  4  5  1  0
  5  6  1  0
  6  7  1  0
  7  8  2  0
  8  9  1  0
  9 10  2  0
 10 11  1  0
 11 12  2  0
 11 13  1  0
 13 14  2  0
 14 15  1  0
 15 16  2  0
 16 17  1  0
 17 18  2  0
 18 19  1  0
 19 20  1  0
 20 21  2  0
 21  7  1  0
 20 10  1  0
 18 13  1  0
  1 22  1  0
  1 23  1  0
  1 24  1  0
  2 25  1  0
  2 26  1  0
  3 27  1  0
  3 28  1  0
  4 29  1  0
  4 30  1  0
  5 31  1  0
  5 32  1  0
  8 33  1  0
  9 34  1  0
 14 35  1  0
 15 36  1  0
 16 37  1  0
 17 38  1  0
 21 39  1  0
M  CHG  1   3   1
M  END
>  <UniqueID>  (8) 
8

>  <SMILES>  (8) 
CC[NH2+]CCOc1ccc2c(=O)c3ccccc3oc2c1

>  <Energy>  (8) 
45.20354664940385

>  <Genealogy>  (8) 
CC[NH2+]CCOc1ccc2c(=O)c3ccccc3oc2c1 (protonated)
CC[NH2+]CCOc1ccc2c(=O)c3ccccc3oc2c1 (3D coordinates assigned)
CC[NH2+]CCOc1ccc2c(=O)c3ccccc3oc2c1 (optimized conformer: 45.20354664940385 kcal/mol)

>  <smiles>  (8) 
CCNCCOc1ccc2c(=O)c3ccccc3oc2c1

>  <score_type>  (8) 
oracle

>  <origin>  (8) 
adg

>  <m_score__min__energy>  (8) 
-5.7599999999999998

>  <m_primary>  (8) 
energy

$$$$
8:0
     RDKit          3D

 66 68  0  0  0  0  0  0  0  0999 V2000
   59.7230   33.7820   50.8660 C   0  0  0  0  0  0  0  0  0  0  0  0
   59.9400   34.0530   49.3810 C   0  0  0  0  0  0  0  0  0  0  0  0
   58.9980   33.2330   48.4910 C   0  0  0  0  0  0  0  0  0  0  0  0
   59.3670   33.3870   47.0570 N   0  0  0  0  0  0  0  0  0  0  0  0
   58.1700   33.6750   46.2300 C   0  0  0  0  0  0  0  0  0  0  0  0
   58.3580   33.2290   44.7710 C   0  0  0  0  0  0  0  0  0  0  0  0
   57.6790   31.8950   44.4760 C   0  0  0  0  0  0  0  0  0  0  0  0
   60.4060   34.4320   46.8830 C   0  0  0  0  0  0  0  0  0  0  0  0
   61.7090   33.8310   46.3280 C   0  0  0  0  0  0  0  0  0  0  0  0
   62.7350   33.4930   47.4380 C   0  0  0  0  0  0  0  0  0  0  0  0
   63.1450   32.0740   47.4130 N   0  0  0  0  0  0  0  0  0  0  0  0
   62.3110   31.2450   48.2780 C   0  0  0  0  0  0  0  0  0  0  0  0
   61.2050   30.5330   47.7370 C   0  0  0  0  0  0  0  0  0  0  0  0
   61.1400   30.1600   46.3710 C   0  0  0  0  0  0  0  0  0  0  0  0
   60.0280   29.4990   45.8560 C   0  0  0  0  0  0  0  0  0  0  0  0
   58.9710   29.1640   46.6890 C   0  0  0  0  0  0  0  0  0  0  0  0
   59.0250   29.4730   48.0450 C   0  0  0  0  0  0  0  0  0  0  0  0
   60.1340   30.1640   48.5940 C   0  0  0  0  0  0  0  0  0  0  0  0
   60.1920   30.4670   49.9340 N   0  0  0  0  0  0  0  0  0  0  0  0
   58.9620   30.4400   50.7550 C   0  0  0  0  0  0  0  0  0  0  0  0
   61.4020   30.7900   50.5100 C   0  0  0  0  0  0  0  0  0  0  0  0
   61.5710   30.7200   51.9120 C   0  0  0  0  0  0  0  0  0  0  0  0
   62.7620   31.0930   52.5130 C   0  0  0  0  0  0  0  0  0  0  0  0
   63.8250   31.5260   51.7410 C   0  0  0  0  0  0  0  0  0  0  0  0
   63.7240   31.5820   50.3400 C   0  0  0  0  0  0  0  0  0  0  0  0
   64.8380   31.9780   49.5850 O   0  0  0  0  0  0  0  0  0  0  0  0
   65.9000   32.8100   50.0450 C   0  0  0  0  0  0  0  0  0  0  0  0
   67.0430   31.9380   50.5350 C   0  0  0  0  0  0  0  0  0  0  0  0
   62.4990   31.2100   49.6980 C   0  0  0  0  0  0  0  0  0  0  0  0
   60.3020   34.5051   51.4591 H   0  0  0  0  0  0  0  0  0  0  0  0
   58.6541   33.8841   51.1050 H   0  0  0  0  0  0  0  0  0  0  0  0
   60.0563   32.7613   51.1050 H   0  0  0  0  0  0  0  0  0  0  0  0
   59.7660   35.1219   49.1883 H   0  0  0  0  0  0  0  0  0  0  0  0
   60.9715   33.7606   49.1349 H   0  0  0  0  0  0  0  0  0  0  0  0
   59.0690   32.1715   48.7707 H   0  0  0  0  0  0  0  0  0  0  0  0
   57.9694   33.5958   48.6338 H   0  0  0  0  0  0  0  0  0  0  0  0
   57.3072   33.1420   46.6561 H   0  0  0  0  0  0  0  0  0  0  0  0
   58.0071   34.7629   46.2347 H   0  0  0  0  0  0  0  0  0  0  0  0
   57.9300   33.9966   44.1095 H   0  0  0  0  0  0  0  0  0  0  0  0
   59.4366   33.1009   44.5969 H   0  0  0  0  0  0  0  0  0  0  0  0
   57.4249   31.3957   45.4226 H   0  0  0  0  0  0  0  0  0  0  0  0
   56.7609   32.0712   43.8963 H   0  0  0  0  0  0  0  0  0  0  0  0
   58.3617   31.2563   43.8963 H   0  0  0  0  0  0  0  0  0  0  0  0
   60.0349   35.1943   46.1821 H   0  0  0  0  0  0  0  0  0  0  0  0
   60.6185   34.8801   47.8649 H   0  0  0  0  0  0  0  0  0  0  0  0
   61.4654   32.9078   45.7817 H   0  0  0  0  0  0  0  0  0  0  0  0
   62.1679   34.5849   45.6714 H   0  0  0  0  0  0  0  0  0  0  0  0
   63.6271   34.1210   47.2975 H   0  0  0  0  0  0  0  0  0  0  0  0
   62.2548   33.6862   48.4086 H   0  0  0  0  0  0  0  0  0  0  0  0
   64.1530   31.9640   47.6500 H   0  0  0  0  0  0  0  0  0  0  0  0
   63.1090   31.7920   46.4130 H   0  0  0  0  0  0  0  0  0  0  0  0
   61.9834   30.3971   45.7058 H   0  0  0  0  0  0  0  0  0  0  0  0
   59.9878   29.2422   44.7871 H   0  0  0  0  0  0  0  0  0  0  0  0
   58.0882   28.6531   46.2772 H   0  0  0  0  0  0  0  0  0  0  0  0
   58.1936   29.1761   48.7012 H   0  0  0  0  0  0  0  0  0  0  0  0
   59.2326   30.4459   51.8212 H   0  0  0  0  0  0  0  0  0  0  0  0
   58.3496   31.3249   50.5272 H   0  0  0  0  0  0  0  0  0  0  0  0
   58.3890   29.5291   50.5272 H   0  0  0  0  0  0  0  0  0  0  0  0
   60.7402   30.3622   52.5379 H   0  0  0  0  0  0  0  0  0  0  0  0
   62.8628   31.0447   53.6073 H   0  0  0  0  0  0  0  0  0  0  0  0
   64.7621   31.8306   52.2300 H   0  0  0  0  0  0  0  0  0  0  0  0
   66.2513   33.4474   49.2202 H   0  0  0  0  0  0  0  0  0  0  0  0
   65.5411   33.4450   50.8684 H   0  0  0  0  0  0  0  0  0  0  0  0
   67.0529   31.9304   51.6349 H   0  0  0  0  0  0  0  0  0  0  0  0
   66.9072   30.9120   50.1625 H   0  0  0  0  0  0  0  0  0  0  0  0
   67.9967   32.3401   50.1625 H   0  0  0  0  0  0  0  0  0  0  0  0
  1  2  1  0
  2  3  1  0
  3  4  1  0
  4  5  1  0
  5  6  1  0
  6  7  1  0
  4  8  1  0
  8  9  1  0
  9 10  1  0
 10 11  1  0
 11 12  1  0
 12 13  2  0
 13 14  1  0
 14 15  2  0
 15 16  1  0
 16 17  2  0
 17 18  1  0
 18 19  2  0
 19 20  1  0
 19 21  1  0
 21 22  2  0
 22 23  1  0
 23 24  2  0
 24 25  1  0
 25 26  1  0
 26 27  1  0
 27 28  1  0
 25 29  2  0
 29 12  1  0
 18 13  1  0
 29 21  1  0
  1 30  1  0
  1 31  1  0
  1 32  1  0
  2 33  1  0
  2 34  1  0
  3 35  1  0
  3 36  1  0
  5 37  1  0
  5 38  1  0
  6 39  1  0
  6 40  1  0
  7 41  1  0
  7 42  1  0
  7 43  1  0
  8 44  1  0
  8 45  1  0
  9 46  1  0
  9 47  1  0
 10 48  1  0
 10 49  1  0
 11 50  1  0
 11 51  1  0
 14 52  1  0
 15 53  1  0
 16 54  1  0
 17 55  1  0
 20 56  1  0
 20 57  1  0
 20 58  1  0
 22 59  1  0
 23 60  1  0
 24 61  1  0
 27 62  1  0
 27 63  1  0
 28 64  1  0
 28 65  1  0
 28 66  1  0
M  CHG  2  11   1  19   1
M  END
>  <UniqueID>  (9) 
9

>  <SMILES>  (9) 
CCCN(CCC)CCC[NH2+]c1c2ccccc2[n+](C)c2cccc(OCC)c12

>  <Energy>  (9) 
92.29771246857402

>  <Genealogy>  (9) 
CCCN(CCC)CCC[NH2+]c1c2ccccc2[n+](C)c2cccc(OCC)c12 (protonated)
CCCN(CCC)CCC[NH2+]c1c2ccccc2[n+](C)c2cccc(OCC)c12 (3D coordinates assigned)
CCCN(CCC)CCC[NH2+]c1c2ccccc2[n+](C)c2cccc(OCC)c12 (optimized conformer: 92.29771246857402 kcal/mol)

>  <smiles>  (9) 
CCCN(CCC)CCCNc1c2ccccc2[n+](C)c2cccc(OCC)c12

>  <score_type>  (9) 
oracle

>  <origin>  (9) 
adg

>  <m_score__min__energy>  (9) 
-4.6699999999999999

>  <m_primary>  (9) 
energy

$$$$
9:0
     RDKit          3D

 38 40  0  0  0  0  0  0  0  0999 V2000
   60.2430   30.3080   47.9950 C   0  0  0  0  0  0  0  0  0  0  0  0
   58.9030   31.0340   48.0170 C   0  0  0  0  0  0  0  0  0  0  0  0
   58.7520   31.8710   46.8210 N   0  0  0  0  0  0  0  0  0  0  0  0
   59.0370   33.1960   46.6710 C   0  0  0  0  0  0  0  0  0  0  0  0
   59.6530   34.0550   47.7510 C   0  0  0  0  0  0  0  0  0  0  0  0
   61.1420   33.8400   47.8390 C   0  0  0  0  0  0  0  0  0  0  0  0
   61.9080   33.6830   46.6710 C   0  0  0  0  0  0  0  0  0  0  0  0
   63.2890   33.4810   46.7550 C   0  0  0  0  0  0  0  0  0  0  0  0
   63.9170   33.4410   48.0020 C   0  0  0  0  0  0  0  0  0  0  0  0
   63.1660   33.6090   49.1680 C   0  0  0  0  0  0  0  0  0  0  0  0
   61.7840   33.8110   49.0890 C   0  0  0  0  0  0  0  0  0  0  0  0
   58.7080   33.6540   45.4280 N   0  0  0  0  0  0  0  0  0  0  0  0
   58.9300   34.9920   44.8790 C   0  0  0  0  0  0  0  0  0  0  0  0
   58.2260   32.5700   44.7830 C   0  0  0  0  0  0  0  0  0  0  0  0
   57.7720   32.4580   43.4650 C   0  0  0  0  0  0  0  0  0  0  0  0
   57.3140   31.2000   43.0340 C   0  0  0  0  0  0  0  0  0  0  0  0
   57.3220   30.0950   43.9110 C   0  0  0  0  0  0  0  0  0  0  0  0
   57.7930   30.2350   45.2280 C   0  0  0  0  0  0  0  0  0  0  0  0
   58.2420   31.4960   45.6300 C   0  0  0  0  0  0  0  0  0  0  0  0
   60.5785   30.1262   49.0267 H   0  0  0  0  0  0  0  0  0  0  0  0
   60.1309   29.3472   47.4712 H   0  0  0  0  0  0  0  0  0  0  0  0
   60.9866   30.9266   47.4712 H   0  0  0  0  0  0  0  0  0  0  0  0
   58.0904   30.2932   48.0453 H   0  0  0  0  0  0  0  0  0  0  0  0
   58.8614   31.6769   48.9086 H   0  0  0  0  0  0  0  0  0  0  0  0
   59.4566   35.1130   47.5229 H   0  0  0  0  0  0  0  0  0  0  0  0
   59.2042   33.7750   48.7155 H   0  0  0  0  0  0  0  0  0  0  0  0
   61.4188   33.7192   45.6864 H   0  0  0  0  0  0  0  0  0  0  0  0
   63.8820   33.3533   45.8374 H   0  0  0  0  0  0  0  0  0  0  0  0
   65.0029   33.2772   48.0660 H   0  0  0  0  0  0  0  0  0  0  0  0
   63.6620   33.5824   50.1495 H   0  0  0  0  0  0  0  0  0  0  0  0
   61.1971   33.9478   50.0093 H   0  0  0  0  0  0  0  0  0  0  0  0
   59.0493   35.7112   45.7027 H   0  0  0  0  0  0  0  0  0  0  0  0
   59.8398   34.9883   44.2608 H   0  0  0  0  0  0  0  0  0  0  0  0
   58.0678   35.2824   44.2608 H   0  0  0  0  0  0  0  0  0  0  0  0
   57.7731   33.3249   42.7879 H   0  0  0  0  0  0  0  0  0  0  0  0
   56.9465   31.0767   42.0046 H   0  0  0  0  0  0  0  0  0  0  0  0
   56.9573   29.1176   43.5620 H   0  0  0  0  0  0  0  0  0  0  0  0
   57.8077   29.3799   45.9197 H   0  0  0  0  0  0  0  0  0  0  0  0
  1  2  1  0
  2  3  1  0
  3  4  2  0
  4  5  1  0
  5  6  1  0
  6  7  2  0
  7  8  1  0
  8  9  2  0
  9 10  1  0
 10 11  2  0
  4 12  1  0
 12 13  1  0
 12 14  1  0
 14 15  2  0
 15 16  1  0
 16 17  2  0
 17 18  1  0
 18 19  2  0
 19  3  1  0
 11  6  1  0
 19 14  1  0
  1 20  1  0
  1 21  1  0
  1 22  1  0
  2 23  1  0
  2 24  1  0
  5 25  1  0
  5 26  1  0
  7 27  1  0
  8 28  1  0
  9 29  1  0
 10 30  1  0
 11 31  1  0
 13 32  1  0
 13 33  1  0
 13 34  1  0
 15 35  1  0
 16 36  1  0
 17 37  1  0
 18 38  1  0
M  CHG  1   3   1
M  END
>  <UniqueID>  (10) 
10

>  <SMILES>  (10) 
CC[n+]1c(Cc2ccccc2)n(C)c2ccccc21

>  <Energy>  (10) 
75.31640967729413

>  <Genealogy>  (10) 
CC[n+]1c(Cc2ccccc2)n(C)c2ccccc21 (3D coordinates assigned)
CC[n+]1c(Cc2ccccc2)n(C)c2ccccc21 (optimized conformer: 75.31640967729413 kcal/mol)

>  <smiles>  (10) 
CC[n+]1c(Cc2ccccc2)n(C)c2ccccc21

>  <score_type>  (10) 
oracle

>  <origin>  (10) 
adg

>  <m_score__min__energy>  (10) 
-5.4500000000000002

>  <m_primary>  (10) 
energy

$$$$
10:0
     RDKit          3D

 56 58  0  0  0  0  0  0  0  0999 V2000
   59.5300   34.8160   46.0720 C   0  0  0  0  0  0  0  0  0  0  0  0
   58.4940   34.4200   45.0210 C   0  0  0  0  0  0  0  0  0  0  0  0
   57.7470   33.1370   45.4050 C   0  0  0  0  0  0  0  0  0  0  0  0
   58.3270   31.9680   44.7040 N   0  0  0  0  0  0  0  0  0  0  0  0
   59.0160   31.0080   45.6000 C   0  0  0  0  0  0  0  0  0  0  0  0
   58.5640   31.0360   47.0810 C   0  0  0  0  0  0  0  0  0  0  0  0
   58.8940   29.7630   47.8550 C   0  0  0  0  0  0  0  0  0  0  0  0
   57.4060   31.3240   43.7460 C   0  0  0  0  0  0  0  0  0  0  0  0
   57.0960   29.9210   44.1750 C   0  0  0  0  0  0  0  0  0  0  0  0
   56.0660   29.7070   44.8700 O   0  0  0  0  0  0  0  0  0  0  0  0
   57.9560   28.8390   43.7870 N   0  0  0  0  0  0  0  0  0  0  0  0
   57.8160   27.4890   44.2610 C   0  0  0  0  0  0  0  0  0  0  0  0
   57.7650   26.4400   43.3340 C   0  0  0  0  0  0  0  0  0  0  0  0
   57.6530   25.1150   43.7620 C   0  0  0  0  0  0  0  0  0  0  0  0
   57.6310   24.8120   45.1330 C   0  0  0  0  0  0  0  0  0  0  0  0
   57.6510   25.8670   46.0720 C   0  0  0  0  0  0  0  0  0  0  0  0
   57.7750   27.1930   45.6330 C   0  0  0  0  0  0  0  0  0  0  0  0
   57.6250   25.5520   47.5560 C   0  0  0  0  0  0  0  0  0  0  0  0
   56.7940   24.2940   47.8760 C   0  0  0  0  0  0  0  0  0  0  0  0
   57.1220   23.2080   46.9000 C   0  0  0  0  0  0  0  0  0  0  0  0
   57.0550   21.8890   47.1480 N   0  0  0  0  0  0  0  0  0  0  0  0
   57.4270   21.2790   46.0320 N   0  0  0  0  0  0  0  0  0  0  0  0
   57.7100   22.2360   45.1200 C   0  0  0  0  0  0  0  0  0  0  0  0
   58.2430   21.9360   43.7440 C   0  0  0  0  0  0  0  0  0  0  0  0
   57.2100   21.2530   42.8390 C   0  0  0  0  0  0  0  0  0  0  0  0
   56.3170   20.4770   43.5940 O   0  0  0  0  0  0  0  0  0  0  0  0
   57.4900   23.4690   45.6360 N   0  0  0  0  0  0  0  0  0  0  0  0
   59.1123   34.6563   47.0770 H   0  0  0  0  0  0  0  0  0  0  0  0
   60.4325   34.1994   45.9478 H   0  0  0  0  0  0  0  0  0  0  0  0
   59.7911   35.8773   45.9478 H   0  0  0  0  0  0  0  0  0  0  0  0
   57.7652   35.2371   44.9154 H   0  0  0  0  0  0  0  0  0  0  0  0
   59.0238   34.2343   44.0750 H   0  0  0  0  0  0  0  0  0  0  0  0
   57.8265   32.9835   46.4913 H   0  0  0  0  0  0  0  0  0  0  0  0
   56.6917   33.2392   45.1121 H   0  0  0  0  0  0  0  0  0  0  0  0
   58.8393   29.9944   45.2108 H   0  0  0  0  0  0  0  0  0  0  0  0
   60.0755   31.3037   45.6020 H   0  0  0  0  0  0  0  0  0  0  0  0
   59.0611   31.8819   47.5784 H   0  0  0  0  0  0  0  0  0  0  0  0
   57.4681   31.1311   47.0775 H   0  0  0  0  0  0  0  0  0  0  0  0
   58.8413   29.9663   48.9348 H   0  0  0  0  0  0  0  0  0  0  0  0
   58.1699   28.9771   47.5941 H   0  0  0  0  0  0  0  0  0  0  0  0
   59.9087   29.4279   47.5941 H   0  0  0  0  0  0  0  0  0  0  0  0
   56.4715   31.9024   43.6980 H   0  0  0  0  0  0  0  0  0  0  0  0
   57.8861   31.2949   42.7567 H   0  0  0  0  0  0  0  0  0  0  0  0
   58.6620   29.0210   43.0380 H   0  0  0  0  0  0  0  0  0  0  0  0
   57.8137   26.6620   42.2577 H   0  0  0  0  0  0  0  0  0  0  0  0
   57.5817   24.3049   43.0213 H   0  0  0  0  0  0  0  0  0  0  0  0
   57.8407   28.0077   46.3692 H   0  0  0  0  0  0  0  0  0  0  0  0
   58.6570   25.3906   47.9008 H   0  0  0  0  0  0  0  0  0  0  0  0
   57.1559   26.4033   48.0710 H   0  0  0  0  0  0  0  0  0  0  0  0
   57.0272   23.9518   48.8951 H   0  0  0  0  0  0  0  0  0  0  0  0
   55.7238   24.5373   47.8025 H   0  0  0  0  0  0  0  0  0  0  0  0
   58.5513   22.8812   43.2734 H   0  0  0  0  0  0  0  0  0  0  0  0
   59.0884   21.2421   43.8618 H   0  0  0  0  0  0  0  0  0  0  0  0
   56.6451   22.0227   42.2928 H   0  0  0  0  0  0  0  0  0  0  0  0
   57.7404   20.5938   42.1360 H   0  0  0  0  0  0  0  0  0  0  0  0
   56.8580   20.0080   44.2800 H   0  0  0  0  0  0  0  0  0  0  0  0
  1  2  1  0
  2  3  1  0
  3  4  1  0
  4  5  1  0
  5  6  1  0
  6  7  1  0
  4  8  1  0
  8  9  1  0
  9 10  2  0
  9 11  1  0
 11 12  1  0
 12 13  2  0
 13 14  1  0
 14 15  2  0
 15 16  1  0
 16 17  2  0
 16 18  1  0
 18 19  1  0
 19 20  1  0
 20 21  2  0
 21 22  1  0
 22 23  2  0
 23 24  1  0
 24 25  1  0
 25 26  1  0
 23 27  1  0
 17 12  1  0
 27 20  1  0
 27 15  1  0
  1 28  1  0
  1 29  1  0
  1 30  1  0
  2 31  1  0
  2 32  1  0
  3 33  1  0
  3 34  1  0
  5 35  1  0
  5 36  1  0
  6 37  1  0
  6 38  1  0
  7 39  1  0
  7 40  1  0
  7 41  1  0
  8 42  1  0
  8 43  1  0
 11 44  1  0
 13 45  1  0
 14 46  1  0
 17 47  1  0
 18 48  1  0
 18 49  1  0
 19 50  1  0
 19 51  1  0
 24 52  1  0
 24 53  1  0
 25 54  1  0
 25 55  1  0
 26 56  1  0
M  END
>  <UniqueID>  (11) 
11

>  <SMILES>  (11) 
CCCN(CCC)CC(=O)Nc1ccc2c(c1)CCc1nnc(CCO)n1-2

>  <Energy>  (11) 
99.21701081469351

>  <Genealogy>  (11) 
CCCN(CCC)CC(=O)Nc1ccc2c(c1)CCc1nnc(CCO)n1-2 (3D coordinates assigned)
CCCN(CCC)CC(=O)Nc1ccc2c(c1)CCc1nnc(CCO)n1-2 (nonaromatic ring conformer: 99.21701081469351 kcal/mol)

>  <smiles>  (11) 
CCCN(CCC)CC(=O)Nc1ccc2c(c1)CCc1nnc(CCO)n1-2

>  <score_type>  (11) 
oracle

>  <origin>  (11) 
adg

>  <m_score__min__energy>  (11) 
-8.3800000000000008

>  <m_primary>  (11) 
energy

$$$$
11:0
     RDKit          3D

 54 57  0  0  0  0  0  0  0  0999 V2000
   63.3820   33.8080   46.4080 C   0  0  0  0  0  0  0  0  0  0  0  0
   63.7630   32.6370   47.3140 C   0  0  0  0  0  0  0  0  0  0  0  0
   63.6620   32.9830   48.7530 N   0  0  0  0  0  0  0  0  0  0  0  0
   64.9930   32.9930   49.4200 C   0  0  0  0  0  0  0  0  0  0  0  0
   65.0950   31.8550   50.4300 C   0  0  0  0  0  0  0  0  0  0  0  0
   62.9460   34.2760   48.9250 C   0  0  0  0  0  0  0  0  0  0  0  0
   62.6600   34.5460   50.4040 C   0  0  0  0  0  0  0  0  0  0  0  0
   61.5510   33.7250   50.8860 N   0  0  0  0  0  0  0  0  0  0  0  0
   61.1170   32.5420   50.1940 C   0  0  0  0  0  0  0  0  0  0  0  0
   61.4310   31.2390   50.6550 C   0  0  0  0  0  0  0  0  0  0  0  0
   62.0840   31.0480   51.8910 C   0  0  0  0  0  0  0  0  0  0  0  0
   62.3420   29.7650   52.3670 C   0  0  0  0  0  0  0  0  0  0  0  0
   61.9390   28.6520   51.6370 C   0  0  0  0  0  0  0  0  0  0  0  0
   61.2870   28.8080   50.4140 C   0  0  0  0  0  0  0  0  0  0  0  0
   61.0390   30.0950   49.8770 C   0  0  0  0  0  0  0  0  0  0  0  0
   60.4120   30.2640   48.6500 N   0  0  0  0  0  0  0  0  0  0  0  0
   60.2470   29.1490   47.7010 C   0  0  0  0  0  0  0  0  0  0  0  0
   60.0080   31.5270   48.3050 C   0  0  0  0  0  0  0  0  0  0  0  0
   60.3760   32.6420   49.0220 C   0  0  0  0  0  0  0  0  0  0  0  0
   59.9430   33.7430   48.4470 O   0  0  0  0  0  0  0  0  0  0  0  0
   59.2680   33.3800   47.3790 C   0  0  0  0  0  0  0  0  0  0  0  0
   58.6050   34.2170   46.4910 C   0  0  0  0  0  0  0  0  0  0  0  0
   57.8890   33.6290   45.4350 C   0  0  0  0  0  0  0  0  0  0  0  0
   57.8270   32.2200   45.2930 C   0  0  0  0  0  0  0  0  0  0  0  0
   57.0590   31.6340   44.2250 N   0  0  0  0  0  0  0  0  0  0  0  0
   57.3480   31.8620   43.0320 O   0  0  0  0  0  0  0  0  0  0  0  0
   55.9810   30.8240   44.5030 O   0  0  0  0  0  0  0  0  0  0  0  0
   58.5140   31.3950   46.2180 C   0  0  0  0  0  0  0  0  0  0  0  0
   59.2580   32.0070   47.2350 C   0  0  0  0  0  0  0  0  0  0  0  0
   63.1005   34.6733   47.0261 H   0  0  0  0  0  0  0  0  0  0  0  0
   64.2398   34.0745   45.7730 H   0  0  0  0  0  0  0  0  0  0  0  0
   62.5316   33.5187   45.7730 H   0  0  0  0  0  0  0  0  0  0  0  0
   63.0885   31.7937   47.1047 H   0  0  0  0  0  0  0  0  0  0  0  0
   64.8104   32.3753   47.1034 H   0  0  0  0  0  0  0  0  0  0  0  0
   65.7792   32.8736   48.6600 H   0  0  0  0  0  0  0  0  0  0  0  0
   65.1177   33.9493   49.9490 H   0  0  0  0  0  0  0  0  0  0  0  0
   65.0582   32.2655   51.4499 H   0  0  0  0  0  0  0  0  0  0  0  0
   64.2556   31.1591   50.2843 H   0  0  0  0  0  0  0  0  0  0  0  0
   66.0447   31.3195   50.2843 H   0  0  0  0  0  0  0  0  0  0  0  0
   63.5686   35.0892   48.5237 H   0  0  0  0  0  0  0  0  0  0  0  0
   61.9893   34.2240   48.3845 H   0  0  0  0  0  0  0  0  0  0  0  0
   63.5603   34.3138   50.9918 H   0  0  0  0  0  0  0  0  0  0  0  0
   62.3849   35.6049   50.5181 H   0  0  0  0  0  0  0  0  0  0  0  0
   60.9380   34.1290   51.6310 H   0  0  0  0  0  0  0  0  0  0  0  0
   62.3924   31.9212   52.4846 H   0  0  0  0  0  0  0  0  0  0  0  0
   62.8668   29.6313   53.3245 H   0  0  0  0  0  0  0  0  0  0  0  0
   62.1357   27.6423   52.0266 H   0  0  0  0  0  0  0  0  0  0  0  0
   60.9601   27.9172   49.8575 H   0  0  0  0  0  0  0  0  0  0  0  0
   60.1082   28.2108   48.2582 H   0  0  0  0  0  0  0  0  0  0  0  0
   59.3664   29.3334   47.0682 H   0  0  0  0  0  0  0  0  0  0  0  0
   61.1433   29.0704   47.0682 H   0  0  0  0  0  0  0  0  0  0  0  0
   58.6395   35.3099   46.6112 H   0  0  0  0  0  0  0  0  0  0  0  0
   57.3693   34.2708   44.7083 H   0  0  0  0  0  0  0  0  0  0  0  0
   58.4642   30.2990   46.1392 H   0  0  0  0  0  0  0  0  0  0  0  0
  1  2  1  0
  2  3  1  0
  3  4  1  0
  4  5  1  0
  3  6  1  0
  6  7  1  0
  7  8  1  0
  8  9  1  0
  9 10  2  0
 10 11  1  0
 11 12  2  0
 12 13  1  0
 13 14  2  0
 14 15  1  0
 15 16  2  0
 16 17  1  0
 16 18  1  0
 18 19  2  0
 19 20  1  0
 20 21  1  0
 21 22  2  0
 22 23  1  0
 23 24  2  0
 24 25  1  0
 25 26  2  0
 25 27  1  0
 24 28  1  0
 28 29  2  0
 19  9  1  0
 29 21  1  0
 15 10  1  0
 29 18  1  0
  1 30  1  0
  1 31  1  0
  1 32  1  0
  2 33  1  0
  2 34  1  0
  4 35  1  0
  4 36  1  0
  5 37  1  0
  5 38  1  0
  5 39  1  0
  6 40  1  0
  6 41  1  0
  7 42  1  0
  7 43  1  0
  8 44  1  0
 11 45  1  0
 12 46  1  0
 13 47  1  0
 14 48  1  0
 17 49  1  0
 17 50  1  0
 17 51  1  0
 22 52  1  0
 23 53  1  0
 28 54  1  0
M  CHG  3  16   1  25   1  27  -1
M  END
>  <UniqueID>  (12) 
12

>  <SMILES>  (12) 
CCN(CC)CCNc1c2ccccc2[n+](C)c2c1oc1ccc([N+](=O)[O-])cc12

>  <Energy>  (12) 
118.21358621992661

>  <Genealogy>  (12) 
CCN(CC)CCNc1c2ccccc2[n+](C)c2c1oc1ccc([N+](=O)[O-])cc12 (3D coordinates assigned)
CCN(CC)CCNc1c2ccccc2[n+](C)c2c1oc1ccc([N+](=O)[O-])cc12 (optimized conformer: 118.21358621992661 kcal/mol)

>  <smiles>  (12) 
CCN(CC)CCNc1c2ccccc2[n+](C)c2c1oc1ccc([N+](=O)[O-])cc12

>  <score_type>  (12) 
oracle

>  <origin>  (12) 
adg

>  <m_score__min__energy>  (12) 
-6.2199999999999998

>  <m_primary>  (12) 
energy

$$$$
12:0
     RDKit          3D

 42 44  0  0  0  0  0  0  0  0999 V2000
   56.3630   26.1230   46.0190 C   0  0  0  0  0  0  0  0  0  0  0  0
   57.5270   25.3780   45.3520 C   0  0  0  0  0  0  0  0  0  0  0  0
   57.0340   24.5600   44.1510 C   0  0  0  0  0  0  0  0  0  0  0  0
   58.6840   26.3260   44.9720 C   0  0  0  0  0  0  0  0  0  0  0  0
   58.2310   27.7260   44.6550 C   0  0  0  0  0  0  0  0  0  0  0  0
   57.3860   28.0550   43.6450 N   0  0  0  0  0  0  0  0  0  0  0  0
   57.1990   29.3710   43.6450 N   0  0  0  0  0  0  0  0  0  0  0  0
   56.4520   30.1050   42.6300 C   0  0  0  0  0  0  0  0  0  0  0  0
   57.9360   29.8850   44.6440 C   0  0  0  0  0  0  0  0  0  0  0  0
   58.0890   31.1920   44.9650 N   0  0  0  0  0  0  0  0  0  0  0  0
   58.9320   31.5140   45.9990 C   0  0  0  0  0  0  0  0  0  0  0  0
   59.1240   32.8950   46.3700 N   0  0  0  0  0  0  0  0  0  0  0  0
   59.0590   33.2730   47.7870 C   0  0  0  0  0  0  0  0  0  0  0  0
   59.7430   34.6210   48.0180 C   0  0  0  0  0  0  0  0  0  0  0  0
   59.2470   35.5890   47.1180 O   0  0  0  0  0  0  0  0  0  0  0  0
   59.6390   35.2510   45.8040 C   0  0  0  0  0  0  0  0  0  0  0  0
   58.9750   33.9420   45.3490 C   0  0  0  0  0  0  0  0  0  0  0  0
   59.6050   30.5190   46.6690 N   0  0  0  0  0  0  0  0  0  0  0  0
   59.4560   29.2020   46.3430 C   0  0  0  0  0  0  0  0  0  0  0  0
   58.5920   28.8940   45.3010 C   0  0  0  0  0  0  0  0  0  0  0  0
   56.4645   26.0580   47.1124 H   0  0  0  0  0  0  0  0  0  0  0  0
   56.3792   27.1790   45.7114 H   0  0  0  0  0  0  0  0  0  0  0  0
   55.4109   25.6660   45.7114 H   0  0  0  0  0  0  0  0  0  0  0  0
   57.9373   24.6737   46.0906 H   0  0  0  0  0  0  0  0  0  0  0  0
   56.4972   23.6693   44.5095 H   0  0  0  0  0  0  0  0  0  0  0  0
   56.3565   25.1758   43.5413 H   0  0  0  0  0  0  0  0  0  0  0  0
   57.8949   24.2485   43.5413 H   0  0  0  0  0  0  0  0  0  0  0  0
   59.3894   26.3703   45.8149 H   0  0  0  0  0  0  0  0  0  0  0  0
   59.1491   25.9214   44.0610 H   0  0  0  0  0  0  0  0  0  0  0  0
   56.9660   27.3950   42.9520 H   0  0  0  0  0  0  0  0  0  0  0  0
   55.7494   30.7954   43.1195 H   0  0  0  0  0  0  0  0  0  0  0  0
   57.1511   30.6772   42.0025 H   0  0  0  0  0  0  0  0  0  0  0  0
   55.8921   29.3960   42.0025 H   0  0  0  0  0  0  0  0  0  0  0  0
   58.0051   33.3455   48.0935 H   0  0  0  0  0  0  0  0  0  0  0  0
   59.5773   32.5065   48.3819 H   0  0  0  0  0  0  0  0  0  0  0  0
   59.5498   34.9528   49.0488 H   0  0  0  0  0  0  0  0  0  0  0  0
   60.8242   34.5036   47.8532 H   0  0  0  0  0  0  0  0  0  0  0  0
   59.3426   36.0607   45.1210 H   0  0  0  0  0  0  0  0  0  0  0  0
   60.7302   35.1132   45.7891 H   0  0  0  0  0  0  0  0  0  0  0  0
   57.9044   34.1236   45.1731 H   0  0  0  0  0  0  0  0  0  0  0  0
   59.4646   33.6029   44.4242 H   0  0  0  0  0  0  0  0  0  0  0  0
   59.9999   28.4146   46.8853 H   0  0  0  0  0  0  0  0  0  0  0  0
  1  2  1  0
  2  3  1  0
  2  4  1  0
  4  5  1  0
  5  6  2  0
  6  7  1  0
  7  8  1  0
  7  9  1  0
  9 10  2  0
 10 11  1  0
 11 12  1  0
 12 13  1  0
 13 14  1  0
 14 15  1  0
 15 16  1  0
 16 17  1  0
 11 18  2  0
 18 19  1  0
 19 20  2  0
 20  5  1  0
 20  9  1  0
 17 12  1  0
  1 21  1  0
  1 22  1  0
  1 23  1  0
  2 24  1  0
  3 25  1  0
  3 26  1  0
  3 27  1  0
  4 28  1  0
  4 29  1  0
  6 30  1  0
  8 31  1  0
  8 32  1  0
  8 33  1  0
 13 34  1  0
 13 35  1  0
 14 36  1  0
 14 37  1  0
 16 38  1  0
 16 39  1  0
 17 40  1  0
 17 41  1  0
 19 42  1  0
M  CHG  1   6   1
M  END
>  <UniqueID>  (13) 
13

>  <SMILES>  (13) 
CC(C)Cc1[nH+]n(C)c2nc(N3CCOCC3)ncc12

>  <Energy>  (13) 
80.43578577384389

>  <Genealogy>  (13) 
CC(C)Cc1[nH+]n(C)c2nc(N3CCOCC3)ncc12 (protonated)
CC(C)Cc1[nH+]n(C)c2nc(N3CCOCC3)ncc12 (3D coordinates assigned)
CC(C)Cc1[nH+]n(C)c2nc(N3CCOCC3)ncc12 (nonaromatic ring conformer: 80.43578577384389 kcal/mol)

>  <smiles>  (13) 
CC(C)Cc1nn(C)c2nc(N3CCOCC3)ncc12

>  <score_type>  (13) 
oracle

>  <origin>  (13) 
adg

>  <m_score__min__energy>  (13) 
-5.2599999999999998

>  <m_primary>  (13) 
energy

$$$$
13:0
     RDKit          3D

 49 51  0  0  0  0  0  0  0  0999 V2000
   63.3580   33.6350   46.7450 C   0  0  0  0  0  0  0  0  0  0  0  0
   63.3830   32.1580   47.1220 C   0  0  0  0  0  0  0  0  0  0  0  0
   62.4470   31.8910   48.1490 O   0  0  0  0  0  0  0  0  0  0  0  0
   62.6460   32.7350   49.2700 C   0  0  0  0  0  0  0  0  0  0  0  0
   61.5390   32.5180   50.2980 C   0  0  0  0  0  0  0  0  0  0  0  0
   61.1330   31.1650   50.2770 O   0  0  0  0  0  0  0  0  0  0  0  0
   59.7730   31.0760   50.6390 C   0  0  0  0  0  0  0  0  0  0  0  0
   58.9270   30.9650   49.3730 C   0  0  0  0  0  0  0  0  0  0  0  0
   59.7720   30.9360   48.1770 N   0  0  0  0  0  0  0  0  0  0  0  0
   59.2690   31.2970   46.8790 C   0  0  0  0  0  0  0  0  0  0  0  0
   59.3160   32.6340   46.4440 C   0  0  0  0  0  0  0  0  0  0  0  0
   59.9400   33.6290   47.2280 C   0  0  0  0  0  0  0  0  0  0  0  0
   59.9190   34.9640   46.8330 C   0  0  0  0  0  0  0  0  0  0  0  0
   59.2770   35.3300   45.6560 C   0  0  0  0  0  0  0  0  0  0  0  0
   58.6930   34.3590   44.8440 C   0  0  0  0  0  0  0  0  0  0  0  0
   58.7420   32.9850   45.1930 C   0  0  0  0  0  0  0  0  0  0  0  0
   58.2430   32.0030   44.3570 N   0  0  0  0  0  0  0  0  0  0  0  0
   57.9040   32.3290   42.9530 C   0  0  0  0  0  0  0  0  0  0  0  0
   58.1000   30.7070   44.8180 C   0  0  0  0  0  0  0  0  0  0  0  0
   57.3800   29.7270   44.0850 C   0  0  0  0  0  0  0  0  0  0  0  0
   57.2940   28.4100   44.5330 C   0  0  0  0  0  0  0  0  0  0  0  0
   57.9090   28.0330   45.7220 C   0  0  0  0  0  0  0  0  0  0  0  0
   57.7970   26.2230   46.3240 Br  0  0  0  0  0  0  0  0  0  0  0  0
   58.5850   28.9810   46.4860 C   0  0  0  0  0  0  0  0  0  0  0  0
   58.6620   30.3260   46.0660 C   0  0  0  0  0  0  0  0  0  0  0  0
   63.3476   34.2466   47.6592 H   0  0  0  0  0  0  0  0  0  0  0  0
   64.2522   33.8772   46.1519 H   0  0  0  0  0  0  0  0  0  0  0  0
   62.4561   33.8468   46.1519 H   0  0  0  0  0  0  0  0  0  0  0  0
   63.1312   31.5546   46.2374 H   0  0  0  0  0  0  0  0  0  0  0  0
   64.3896   31.9009   47.4835 H   0  0  0  0  0  0  0  0  0  0  0  0
   63.6185   32.5049   49.7296 H   0  0  0  0  0  0  0  0  0  0  0  0
   62.6257   33.7833   48.9374 H   0  0  0  0  0  0  0  0  0  0  0  0
   61.9147   32.7722   51.3001 H   0  0  0  0  0  0  0  0  0  0  0  0
   60.6810   33.1613   50.0530 H   0  0  0  0  0  0  0  0  0  0  0  0
   59.6160   30.1863   51.2665 H   0  0  0  0  0  0  0  0  0  0  0  0
   59.4797   31.9731   51.2040 H   0  0  0  0  0  0  0  0  0  0  0  0
   58.3340   30.0396   49.4168 H   0  0  0  0  0  0  0  0  0  0  0  0
   58.2675   31.8434   49.3145 H   0  0  0  0  0  0  0  0  0  0  0  0
   60.7480   30.5710   48.2550 H   0  0  0  0  0  0  0  0  0  0  0  0
   60.4485   33.3462   48.1615 H   0  0  0  0  0  0  0  0  0  0  0  0
   60.4104   35.7288   47.4524 H   0  0  0  0  0  0  0  0  0  0  0  0
   59.2295   36.3895   45.3641 H   0  0  0  0  0  0  0  0  0  0  0  0
   58.1855   34.6635   43.9168 H   0  0  0  0  0  0  0  0  0  0  0  0
   57.1112   33.0914   42.9347 H   0  0  0  0  0  0  0  0  0  0  0  0
   58.7970   32.7163   42.4406 H   0  0  0  0  0  0  0  0  0  0  0  0
   57.5519   31.4215   42.4406 H   0  0  0  0  0  0  0  0  0  0  0  0
   56.8813   30.0122   43.1470 H   0  0  0  0  0  0  0  0  0  0  0  0
   56.7376   27.6660   43.9440 H   0  0  0  0  0  0  0  0  0  0  0  0
   59.0647   28.6777   47.4283 H   0  0  0  0  0  0  0  0  0  0  0  0
  1  2  1  0
  2  3  1  0
  3  4  1  0
  4  5  1  0
  5  6  1  0
  6  7  1  0
  7  8  1  0
  8  9  1  0
  9 10  1  0
 10 11  2  0
 11 12  1  0
 12 13  2  0
 13 14  1  0
 14 15  2  0
 15 16  1  0
 16 17  2  0
 17 18  1  0
 17 19  1  0
 19 20  2  0
 20 21  1  0
 21 22  2  0
 22 23  1  0
 22 24  1  0
 24 25  2  0
 25 10  1  0
 16 11  1  0
 25 19  1  0
  1 26  1  0
  1 27  1  0
  1 28  1  0
  2 29  1  0
  2 30  1  0
  4 31  1  0
  4 32  1  0
  5 33  1  0
  5 34  1  0
  7 35  1  0
  7 36  1  0
  8 37  1  0
  8 38  1  0
  9 39  1  0
 12 40  1  0
 13 41  1  0
 14 42  1  0
 15 43  1  0
 18 44  1  0
 18 45  1  0
 18 46  1  0
 20 47  1  0
 21 48  1  0
 24 49  1  0
M  CHG  1  17   1
M  END
>  <UniqueID>  (14) 
14

>  <SMILES>  (14) 
CCOCCOCCNc1c2ccccc2[n+](C)c2ccc(Br)cc12

>  <Energy>  (14) 
74.05335401903736

>  <Genealogy>  (14) 
CCOCCOCCNc1c2ccccc2[n+](C)c2ccc(Br)cc12 (3D coordinates assigned)
CCOCCOCCNc1c2ccccc2[n+](C)c2ccc(Br)cc12 (optimized conformer: 74.05335401903736 kcal/mol)

>  <smiles>  (14) 
CCOCCOCCNc1c2ccccc2[n+](C)c2ccc(Br)cc12

>  <score_type>  (14) 
oracle

>  <origin>  (14) 
adg

>  <m_score__min__energy>  (14) 
-5.2400000000000002

>  <m_primary>  (14) 
energy

$$$$
14:0
     RDKit          3D

 74 77  0  0  0  0  0  0  0  0999 V2000
   55.9190   24.2180   44.9650 C   0  0  0  0  0  0  0  0  0  0  0  0
   54.7410   24.9170   45.6300 C   0  0  0  0  0  0  0  0  0  0  0  0
   55.1280   26.2220   46.0050 O   0  0  0  0  0  0  0  0  0  0  0  0
   56.4970   26.2240   46.3560 C   0  0  0  0  0  0  0  0  0  0  0  0
   57.1890   27.4120   45.6840 C   0  0  0  0  0  0  0  0  0  0  0  0
   56.2830   28.4770   45.4690 O   0  0  0  0  0  0  0  0  0  0  0  0
   56.9260   29.6280   44.9480 C   0  0  0  0  0  0  0  0  0  0  0  0
   58.4390   29.4170   44.9820 C   0  0  0  0  0  0  0  0  0  0  0  0
   59.1010   30.5380   45.6520 N   0  0  0  0  0  0  0  0  0  0  0  0
   60.1720   30.4480   46.4750 C   0  0  0  0  0  0  0  0  0  0  0  0
   60.5260   31.7090   46.9450 C   0  0  0  0  0  0  0  0  0  0  0  0
   61.6420   32.0070   47.8700 C   0  0  0  0  0  0  0  0  0  0  0  0
   62.9250   32.2540   47.3740 C   0  0  0  0  0  0  0  0  0  0  0  0
   63.9680   32.5230   48.2540 C   0  0  0  0  0  0  0  0  0  0  0  0
   63.7370   32.5710   49.6400 C   0  0  0  0  0  0  0  0  0  0  0  0
   64.7860   32.8160   50.5630 C   0  0  0  0  0  0  0  0  0  0  0  0
   66.2110   33.0200   50.1160 C   0  0  0  0  0  0  0  0  0  0  0  0
   64.4940   32.8760   51.9310 C   0  0  0  0  0  0  0  0  0  0  0  0
   63.1930   32.6980   52.3910 C   0  0  0  0  0  0  0  0  0  0  0  0
   62.1410   32.4370   51.4990 C   0  0  0  0  0  0  0  0  0  0  0  0
   60.7980   32.3100   52.0000 N   0  0  0  0  0  0  0  0  0  0  0  0
   60.0380   33.4430   52.5350 C   0  0  0  0  0  0  0  0  0  0  0  0
   58.5860   33.4330   52.0320 C   0  0  0  0  0  0  0  0  0  0  0  0
   58.0940   32.0510   51.5620 C   0  0  0  0  0  0  0  0  0  0  0  0
   58.7430   31.6260   50.3010 N   0  0  0  0  0  0  0  0  0  0  0  0
   58.1790   32.3460   49.1460 C   0  0  0  0  0  0  0  0  0  0  0  0
   58.5730   30.1760   50.1100 C   0  0  0  0  0  0  0  0  0  0  0  0
   62.4110   32.3660   50.1110 C   0  0  0  0  0  0  0  0  0  0  0  0
   61.4130   32.0790   49.2140 N   0  0  0  0  0  0  0  0  0  0  0  0
   59.6290   32.5930   46.3650 C   0  0  0  0  0  0  0  0  0  0  0  0
   59.5350   33.9870   46.4180 C   0  0  0  0  0  0  0  0  0  0  0  0
   58.5080   34.6080   45.6870 C   0  0  0  0  0  0  0  0  0  0  0  0
   57.6130   33.8390   44.9140 C   0  0  0  0  0  0  0  0  0  0  0  0
   57.7450   32.4410   44.8530 C   0  0  0  0  0  0  0  0  0  0  0  0
   58.7720   31.8450   45.5920 C   0  0  0  0  0  0  0  0  0  0  0  0
   56.5922   23.8185   45.7378 H   0  0  0  0  0  0  0  0  0  0  0  0
   55.5496   23.3928   44.3384 H   0  0  0  0  0  0  0  0  0  0  0  0
   56.4662   24.9376   44.3384 H   0  0  0  0  0  0  0  0  0  0  0  0
   53.8990   24.9713   44.9242 H   0  0  0  0  0  0  0  0  0  0  0  0
   54.4312   24.3524   46.5218 H   0  0  0  0  0  0  0  0  0  0  0  0
   56.5963   26.3104   47.4481 H   0  0  0  0  0  0  0  0  0  0  0  0
   56.9650   25.2867   46.0207 H   0  0  0  0  0  0  0  0  0  0  0  0
   58.0079   27.7623   46.3295 H   0  0  0  0  0  0  0  0  0  0  0  0
   57.5775   27.0829   44.7089 H   0  0  0  0  0  0  0  0  0  0  0  0
   56.6008   29.7931   43.9102 H   0  0  0  0  0  0  0  0  0  0  0  0
   56.6616   30.5060   45.5557 H   0  0  0  0  0  0  0  0  0  0  0  0
   58.6622   28.4876   45.5265 H   0  0  0  0  0  0  0  0  0  0  0  0
   58.8111   29.3517   43.9489 H   0  0  0  0  0  0  0  0  0  0  0  0
   60.6884   29.5122   46.7350 H   0  0  0  0  0  0  0  0  0  0  0  0
   63.1096   32.2357   46.2898 H   0  0  0  0  0  0  0  0  0  0  0  0
   64.9808   32.6994   47.8628 H   0  0  0  0  0  0  0  0  0  0  0  0
   66.8621   33.1132   50.9977 H   0  0  0  0  0  0  0  0  0  0  0  0
   66.5327   32.1588   49.5120 H   0  0  0  0  0  0  0  0  0  0  0  0
   66.2781   33.9369   49.5120 H   0  0  0  0  0  0  0  0  0  0  0  0
   65.3034   33.0663   52.6512 H   0  0  0  0  0  0  0  0  0  0  0  0
   62.9858   32.7627   53.4694 H   0  0  0  0  0  0  0  0  0  0  0  0
   60.2850   31.4220   51.7980 H   0  0  0  0  0  0  0  0  0  0  0  0
   60.0364   33.3859   53.6335 H   0  0  0  0  0  0  0  0  0  0  0  0
   60.5161   34.3726   52.1926 H   0  0  0  0  0  0  0  0  0  0  0  0
   57.9342   33.7719   52.8507 H   0  0  0  0  0  0  0  0  0  0  0  0
   58.5484   34.0982   51.1567 H   0  0  0  0  0  0  0  0  0  0  0  0
   58.3189   31.3102   52.3434 H   0  0  0  0  0  0  0  0  0  0  0  0
   57.0119   32.1222   51.3778 H   0  0  0  0  0  0  0  0  0  0  0  0
   57.5373   33.1652   49.5024 H   0  0  0  0  0  0  0  0  0  0  0  0
   58.9964   32.7590   48.5366 H   0  0  0  0  0  0  0  0  0  0  0  0
   57.5823   31.6513   48.5366 H   0  0  0  0  0  0  0  0  0  0  0  0
   58.5150   29.6813   51.0908 H   0  0  0  0  0  0  0  0  0  0  0  0
   57.6465   29.9863   49.5483 H   0  0  0  0  0  0  0  0  0  0  0  0
   59.4305   29.7771   49.5483 H   0  0  0  0  0  0  0  0  0  0  0  0
   60.4470   31.8720   49.5510 H   0  0  0  0  0  0  0  0  0  0  0  0
   60.2440   34.5801   47.0143 H   0  0  0  0  0  0  0  0  0  0  0  0
   58.4012   35.7024   45.7178 H   0  0  0  0  0  0  0  0  0  0  0  0
   56.8066   34.3366   44.3554 H   0  0  0  0  0  0  0  0  0  0  0  0
   57.0609   31.8337   44.2422 H   0  0  0  0  0  0  0  0  0  0  0  0
  1  2  1  0
  2  3  1  0
  3  4  1  0
  4  5  1  0
  5  6  1  0
  6  7  1  0
  7  8  1  0
  8  9  1  0
  9 10  1  0
 10 11  2  0
 11 12  1  0
 12 13  2  0
 13 14  1  0
 14 15  2  0
 15 16  1  0
 16 17  1  0
 16 18  2  0
 18 19  1  0
 19 20  2  0
 20 21  1  0
 21 22  1  0
 22 23  1  0
 23 24  1  0
 24 25  1  0
 25 26  1  0
 25 27  1  0
 20 28  1  0
 28 29  2  0
 11 30  1  0
 30 31  2  0
 31 32  1  0
 32 33  2  0
 33 34  1  0
 34 35  2  0
 35  9  1  0
 29 12  1  0
 35 30  1  0
 28 15  1  0
  1 36  1  0
  1 37  1  0
  1 38  1  0
  2 39  1  0
  2 40  1  0
  4 41  1  0
  4 42  1  0
  5 43  1  0
  5 44  1  0
  7 45  1  0
  7 46  1  0
  8 47  1  0
  8 48  1  0
 10 49  1  0
 13 50  1  0
 14 51  1  0
 17 52  1  0
 17 53  1  0
 17 54  1  0
 18 55  1  0
 19 56  1  0
 21 57  1  0
 22 58  1  0
 22 59  1  0
 23 60  1  0
 23 61  1  0
 24 62  1  0
 24 63  1  0
 26 64  1  0
 26 65  1  0
 26 66  1  0
 27 67  1  0
 27 68  1  0
 27 69  1  0
 29 70  1  0
 31 71  1  0
 32 72  1  0
 33 73  1  0
 34 74  1  0
M  CHG  1  29   1
M  END
>  <UniqueID>  (15) 
15

>  <SMILES>  (15) 
CCOCCOCCn1cc(-c2ccc3c(C)ccc(NCCCN(C)C)c3[nH+]2)c2ccccc21

>  <Energy>  (15) 
118.41462999827793

>  <Genealogy>  (15) 
CCOCCOCCn1cc(-c2ccc3c(C)ccc(NCCCN(C)C)c3[nH+]2)c2ccccc21 (protonated)
CCOCCOCCn1cc(-c2ccc3c(C)ccc(NCCCN(C)C)c3[nH+]2)c2ccccc21 (3D coordinates assigned)
CCOCCOCCn1cc(-c2ccc3c(C)ccc(NCCCN(C)C)c3[nH+]2)c2ccccc21 (optimized conformer: 118.41462999827793 kcal/mol)

>  <smiles>  (15) 
CCOCCOCCn1cc(-c2ccc3c(C)ccc(NCCCN(C)C)c3n2)c2ccccc21

>  <score_type>  (15) 
oracle

>  <origin>  (15) 
adg

>  <m_score__min__energy>  (15) 
-6.79

>  <m_primary>  (15) 
energy

$$$$
15:0
     RDKit          3D

 76 79  0  0  0  0  0  0  0  0999 V2000
   63.0570   33.8610   46.1870 C   0  0  0  0  0  0  0  0  0  0  0  0
   63.7710   33.7500   47.5360 C   0  0  0  0  0  0  0  0  0  0  0  0
   64.0000   32.3510   47.9430 N   0  0  0  0  0  0  0  0  0  0  0  0
   62.8440   31.7480   48.6460 C   0  0  0  0  0  0  0  0  0  0  0  0
   61.9610   32.7990   49.3390 C   0  0  0  0  0  0  0  0  0  0  0  0
   60.5460   32.4360   49.2740 N   0  0  0  0  0  0  0  0  0  0  0  0
   59.9510   32.0540   48.0250 C   0  0  0  0  0  0  0  0  0  0  0  0
   59.6330   33.0280   47.0640 C   0  0  0  0  0  0  0  0  0  0  0  0
   59.9420   34.3870   47.2830 C   0  0  0  0  0  0  0  0  0  0  0  0
   59.6510   35.3480   46.3180 C   0  0  0  0  0  0  0  0  0  0  0  0
   59.0680   34.9700   45.1140 C   0  0  0  0  0  0  0  0  0  0  0  0
   58.7640   33.6320   44.8700 C   0  0  0  0  0  0  0  0  0  0  0  0
   59.0160   32.6320   45.8470 C   0  0  0  0  0  0  0  0  0  0  0  0
   58.6970   31.3050   45.6300 N   0  0  0  0  0  0  0  0  0  0  0  0
   57.8180   30.9300   44.4990 C   0  0  0  0  0  0  0  0  0  0  0  0
   59.1770   30.3300   46.4860 C   0  0  0  0  0  0  0  0  0  0  0  0
   59.1160   28.9530   46.1600 C   0  0  0  0  0  0  0  0  0  0  0  0
   59.5300   27.9750   47.0650 C   0  0  0  0  0  0  0  0  0  0  0  0
   59.3950   26.1310   46.5650 Br  0  0  0  0  0  0  0  0  0  0  0  0
   60.0220   28.3330   48.3220 C   0  0  0  0  0  0  0  0  0  0  0  0
   60.3770   27.3090   49.2180 O   0  0  0  0  0  0  0  0  0  0  0  0
   60.8520   27.4900   50.5520 C   0  0  0  0  0  0  0  0  0  0  0  0
   61.4490   26.1960   51.1660 C   0  0  0  0  0  0  0  0  0  0  0  0
   62.4030   26.3470   52.3200 N   0  0  0  0  0  0  0  0  0  0  0  0
   61.5670   26.2770   53.5530 C   0  0  0  0  0  0  0  0  0  0  0  0
   63.4080   25.2310   52.3800 C   0  0  0  0  0  0  0  0  0  0  0  0
   64.7850   25.6350   51.8100 C   0  0  0  0  0  0  0  0  0  0  0  0
   65.4020   26.7760   52.5580 N   0  0  0  0  0  0  0  0  0  0  0  0
   66.3090   27.5120   51.6410 C   0  0  0  0  0  0  0  0  0  0  0  0
   66.2220   26.2510   53.6780 C   0  0  0  0  0  0  0  0  0  0  0  0
   64.3720   27.7180   53.1020 C   0  0  0  0  0  0  0  0  0  0  0  0
   63.0620   27.6930   52.2870 C   0  0  0  0  0  0  0  0  0  0  0  0
   60.1420   29.6950   48.6430 C   0  0  0  0  0  0  0  0  0  0  0  0
   59.7620   30.6950   47.7240 C   0  0  0  0  0  0  0  0  0  0  0  0
   61.9826   34.0280   46.3535 H   0  0  0  0  0  0  0  0  0  0  0  0
   63.4756   34.7049   45.6189 H   0  0  0  0  0  0  0  0  0  0  0  0
   63.1996   32.9299   45.6189 H   0  0  0  0  0  0  0  0  0  0  0  0
   64.7432   34.2593   47.4630 H   0  0  0  0  0  0  0  0  0  0  0  0
   63.1248   34.2161   48.2944 H   0  0  0  0  0  0  0  0  0  0  0  0
   64.8140   32.3530   48.6010 H   0  0  0  0  0  0  0  0  0  0  0  0
   64.2890   31.7910   47.1090 H   0  0  0  0  0  0  0  0  0  0  0  0
   62.2321   31.2011   47.9135 H   0  0  0  0  0  0  0  0  0  0  0  0
   63.2390   31.0785   49.4243 H   0  0  0  0  0  0  0  0  0  0  0  0
   62.2615   32.8790   50.3941 H   0  0  0  0  0  0  0  0  0  0  0  0
   62.0954   33.7595   48.8201 H   0  0  0  0  0  0  0  0  0  0  0  0
   59.9140   32.6120   50.0890 H   0  0  0  0  0  0  0  0  0  0  0  0
   60.4182   34.6910   48.2268 H   0  0  0  0  0  0  0  0  0  0  0  0
   59.8825   36.4063   46.5085 H   0  0  0  0  0  0  0  0  0  0  0  0
   58.8457   35.7302   44.3506 H   0  0  0  0  0  0  0  0  0  0  0  0
   58.3215   33.3454   43.9046 H   0  0  0  0  0  0  0  0  0  0  0  0
   56.8717   30.5263   44.8883 H   0  0  0  0  0  0  0  0  0  0  0  0
   57.6122   31.8187   43.8843 H   0  0  0  0  0  0  0  0  0  0  0  0
   58.3171   30.1665   43.8843 H   0  0  0  0  0  0  0  0  0  0  0  0
   58.7348   28.6486   45.1741 H   0  0  0  0  0  0  0  0  0  0  0  0
   61.6318   28.2658   50.5438 H   0  0  0  0  0  0  0  0  0  0  0  0
   59.9899   27.7794   51.1709 H   0  0  0  0  0  0  0  0  0  0  0  0
   60.6077   25.5783   51.5134 H   0  0  0  0  0  0  0  0  0  0  0  0
   62.0547   25.7581   50.3589 H   0  0  0  0  0  0  0  0  0  0  0  0
   62.2159   26.3313   54.4395 H   0  0  0  0  0  0  0  0  0  0  0  0
   60.8593   27.1190   53.5645 H   0  0  0  0  0  0  0  0  0  0  0  0
   61.0092   25.3290   53.5645 H   0  0  0  0  0  0  0  0  0  0  0  0
   63.5368   24.9301   53.4302 H   0  0  0  0  0  0  0  0  0  0  0  0
   63.0234   24.4053   51.7633 H   0  0  0  0  0  0  0  0  0  0  0  0
   65.4596   24.7682   51.8693 H   0  0  0  0  0  0  0  0  0  0  0  0
   64.6344   25.9593   50.7697 H   0  0  0  0  0  0  0  0  0  0  0  0
   67.0302   28.0973   52.2303 H   0  0  0  0  0  0  0  0  0  0  0  0
   66.8502   26.7945   51.0067 H   0  0  0  0  0  0  0  0  0  0  0  0
   65.7184   28.1894   51.0067 H   0  0  0  0  0  0  0  0  0  0  0  0
   65.7654   26.5433   54.6351 H   0  0  0  0  0  0  0  0  0  0  0  0
   66.2699   25.1539   53.6145 H   0  0  0  0  0  0  0  0  0  0  0  0
   67.2385   26.6667   53.6145 H   0  0  0  0  0  0  0  0  0  0  0  0
   64.1472   27.4339   54.1406 H   0  0  0  0  0  0  0  0  0  0  0  0
   64.7843   28.7361   53.0424 H   0  0  0  0  0  0  0  0  0  0  0  0
   62.3692   28.4375   52.7062 H   0  0  0  0  0  0  0  0  0  0  0  0
   63.3098   27.9233   51.2403 H   0  0  0  0  0  0  0  0  0  0  0  0
   60.5386   29.9864   49.6268 H   0  0  0  0  0  0  0  0  0  0  0  0
  1  2  1  0
  2  3  1  0
  3  4  1  0
  4  5  1  0
  5  6  1  0
  6  7  1  0
  7  8  2  0
  8  9  1  0
  9 10  2  0
 10 11  1  0
 11 12  2  0
 12 13  1  0
 13 14  2  0
 14 15  1  0
 14 16  1  0
 16 17  2  0
 17 18  1  0
 18 19  1  0
 18 20  2  0
 20 21  1  0
 21 22  1  0
 22 23  1  0
 23 24  1  0
 24 25  1  0
 24 26  1  0
 26 27  1  0
 27 28  1  0
 28 29  1  0
 28 30  1  0
 28 31  1  0
 31 32  1  0
 20 33  1  0
 33 34  2  0
 34  7  1  0
 13  8  1  0
 34 16  1  0
 32 24  1  0
  1 35  1  0
  1 36  1  0
  1 37  1  0
  2 38  1  0
  2 39  1  0
  3 40  1  0
  3 41  1  0
  4 42  1  0
  4 43  1  0
  5 44  1  0
  5 45  1  0
  6 46  1  0
  9 47  1  0
 10 48  1  0
 11 49  1  0
 12 50  1  0
 15 51  1  0
 15 52  1  0
 15 53  1  0
 17 54  1  0
 22 55  1  0
 22 56  1  0
 23 57  1  0
 23 58  1  0
 25 59  1  0
 25 60  1  0
 25 61  1  0
 26 62  1  0
 26 63  1  0
 27 64  1  0
 27 65  1  0
 29 66  1  0
 29 67  1  0
 29 68  1  0
 30 69  1  0
 30 70  1  0
 30 71  1  0
 31 72  1  0
 31 73  1  0
 32 74  1  0
 32 75  1  0
 33 76  1  0
M  CHG  4   3   1  14   1  24   1  28   1
M  END
>  <UniqueID>  (16) 
16

>  <SMILES>  (16) 
CC[NH2+]CCNc1c2ccccc2[n+](C)c2cc(Br)c(OCC[N+]3(C)CC[N+](C)(C)CC3)cc12

>  <Energy>  (16) 
131.21236958899516

>  <Genealogy>  (16) 
CC[NH2+]CCNc1c2ccccc2[n+](C)c2cc(Br)c(OCC[N+]3(C)CC[N+](C)(C)CC3)cc12 (protonated)
CC[NH2+]CCNc1c2ccccc2[n+](C)c2cc(Br)c(OCC[N+]3(C)CC[N+](C)(C)CC3)cc12 (3D coordinates assigned)
CC[NH2+]CCNc1c2ccccc2[n+](C)c2cc(Br)c(OCC[N+]3(C)CC[N+](C)(C)CC3)cc12 (nonaromatic ring conformer: 131.21236958899516 kcal/mol)

>  <smiles>  (16) 
CCNCCNc1c2ccccc2[n+](C)c2cc(Br)c(OCC[N+]3(C)CC[N+](C)(C)CC3)cc12

>  <score_type>  (16) 
oracle

>  <origin>  (16) 
adg

>  <m_score__min__energy>  (16) 
-3.0600000000000001

>  <m_primary>  (16) 
energy

$$$$
16:0
     RDKit          3D

 52 55  0  0  0  0  0  0  0  0999 V2000
   59.7150   33.8070   49.7360 C   0  0  0  0  0  0  0  0  0  0  0  0
   59.6030   32.5890   50.6660 C   0  0  0  0  0  0  0  0  0  0  0  0
   58.3480   31.8170   50.5110 N   0  0  0  0  0  0  0  0  0  0  0  0
   57.4480   31.9350   51.6700 C   0  0  0  0  0  0  0  0  0  0  0  0
   58.5680   30.4090   50.1100 C   0  0  0  0  0  0  0  0  0  0  0  0
   59.6860   29.7810   50.9530 C   0  0  0  0  0  0  0  0  0  0  0  0
   61.0010   29.6100   50.1750 C   0  0  0  0  0  0  0  0  0  0  0  0
   60.7680   29.4180   48.7410 N   0  0  0  0  0  0  0  0  0  0  0  0
   60.5670   30.5050   47.8170 C   0  0  0  0  0  0  0  0  0  0  0  0
   61.4330   31.6280   47.7740 C   0  0  0  0  0  0  0  0  0  0  0  0
   62.5240   31.7400   48.6620 C   0  0  0  0  0  0  0  0  0  0  0  0
   63.3950   32.8250   48.5910 C   0  0  0  0  0  0  0  0  0  0  0  0
   64.7480   32.9360   49.7030 Cl  0  0  0  0  0  0  0  0  0  0  0  0
   63.2030   33.8130   47.6310 C   0  0  0  0  0  0  0  0  0  0  0  0
   62.1210   33.7450   46.7540 C   0  0  0  0  0  0  0  0  0  0  0  0
   61.1890   32.6820   46.8260 C   0  0  0  0  0  0  0  0  0  0  0  0
   60.0730   32.6380   46.0010 N   0  0  0  0  0  0  0  0  0  0  0  0
   59.6370   33.8080   45.2200 C   0  0  0  0  0  0  0  0  0  0  0  0
   59.3320   31.4860   45.9850 C   0  0  0  0  0  0  0  0  0  0  0  0
   59.5400   30.4590   46.8790 C   0  0  0  0  0  0  0  0  0  0  0  0
   58.6830   29.4800   46.6850 O   0  0  0  0  0  0  0  0  0  0  0  0
   57.9220   29.8270   45.6710 C   0  0  0  0  0  0  0  0  0  0  0  0
   56.8950   29.0770   45.1060 C   0  0  0  0  0  0  0  0  0  0  0  0
   56.2390   29.6000   43.9790 C   0  0  0  0  0  0  0  0  0  0  0  0
   56.6300   30.8410   43.4370 C   0  0  0  0  0  0  0  0  0  0  0  0
   57.6690   31.5840   44.0250 C   0  0  0  0  0  0  0  0  0  0  0  0
   58.2820   31.0660   45.1740 C   0  0  0  0  0  0  0  0  0  0  0  0
   59.7992   34.7227   50.3396 H   0  0  0  0  0  0  0  0  0  0  0  0
   60.6074   33.7029   49.1013 H   0  0  0  0  0  0  0  0  0  0  0  0
   58.8186   33.8674   49.1013 H   0  0  0  0  0  0  0  0  0  0  0  0
   60.4487   31.9173   50.4573 H   0  0  0  0  0  0  0  0  0  0  0  0
   59.6091   32.9769   51.6953 H   0  0  0  0  0  0  0  0  0  0  0  0
   58.0334   31.8582   52.5981 H   0  0  0  0  0  0  0  0  0  0  0  0
   56.9358   32.9080   51.6389 H   0  0  0  0  0  0  0  0  0  0  0  0
   56.7023   31.1269   51.6389 H   0  0  0  0  0  0  0  0  0  0  0  0
   57.6384   29.8402   50.2593 H   0  0  0  0  0  0  0  0  0  0  0  0
   58.8619   30.3816   49.0503 H   0  0  0  0  0  0  0  0  0  0  0  0
   59.8747   30.4277   51.8226 H   0  0  0  0  0  0  0  0  0  0  0  0
   59.3482   28.7780   51.2528 H   0  0  0  0  0  0  0  0  0  0  0  0
   61.6178   30.5096   50.3175 H   0  0  0  0  0  0  0  0  0  0  0  0
   61.5102   28.7142   50.5600 H   0  0  0  0  0  0  0  0  0  0  0  0
   60.8030   28.4400   48.3780 H   0  0  0  0  0  0  0  0  0  0  0  0
   62.6889   30.9603   49.4203 H   0  0  0  0  0  0  0  0  0  0  0  0
   63.9093   34.6535   47.5632 H   0  0  0  0  0  0  0  0  0  0  0  0
   61.9897   34.5297   45.9944 H   0  0  0  0  0  0  0  0  0  0  0  0
   59.3364   34.6146   45.9048 H   0  0  0  0  0  0  0  0  0  0  0  0
   60.4661   34.1552   44.5859 H   0  0  0  0  0  0  0  0  0  0  0  0
   58.7829   33.5280   44.5859 H   0  0  0  0  0  0  0  0  0  0  0  0
   56.6054   28.1038   45.5291 H   0  0  0  0  0  0  0  0  0  0  0  0
   55.4147   29.0372   43.5165 H   0  0  0  0  0  0  0  0  0  0  0  0
   56.1175   31.2320   42.5456 H   0  0  0  0  0  0  0  0  0  0  0  0
   57.9913   32.5440   43.5956 H   0  0  0  0  0  0  0  0  0  0  0  0
  1  2  1  0
  2  3  1  0
  3  4  1  0
  3  5  1  0
  5  6  1  0
  6  7  1  0
  7  8  1  0
  8  9  1  0
  9 10  2  0
 10 11  1  0
 11 12  2  0
 12 13  1  0
 12 14  1  0
 14 15  2  0
 15 16  1  0
 16 17  2  0
 17 18  1  0
 17 19  1  0
 19 20  2  0
 20 21  1  0
 21 22  1  0
 22 23  2  0
 23 24  1  0
 24 25  2  0
 25 26  1  0
 26 27  2  0
 20  9  1  0
 27 22  1  0
 16 10  1  0
 27 19  1  0
  1 28  1  0
  1 29  1  0
  1 30  1  0
  2 31  1  0
  2 32  1  0
  4 33  1  0
  4 34  1  0
  4 35  1  0
  5 36  1  0
  5 37  1  0
  6 38  1  0
  6 39  1  0
  7 40  1  0
  7 41  1  0
  8 42  1  0
 11 43  1  0
 14 44  1  0
 15 45  1  0
 18 46  1  0
 18 47  1  0
 18 48  1  0
 23 49  1  0
 24 50  1  0
 25 51  1  0
 26 52  1  0
M  CHG  1  17   1
M  END
>  <UniqueID>  (17) 
17

>  <SMILES>  (17) 
CCN(C)CCCNc1c2cc(Cl)ccc2[n+](C)c2c1oc1ccccc12

>  <Energy>  (17) 
114.04944216255032

>  <Genealogy>  (17) 
CCN(C)CCCNc1c2cc(Cl)ccc2[n+](C)c2c1oc1ccccc12 (3D coordinates assigned)
CCN(C)CCCNc1c2cc(Cl)ccc2[n+](C)c2c1oc1ccccc12 (optimized conformer: 114.04944216255032 kcal/mol)

>  <smiles>  (17) 
CCN(C)CCCNc1c2cc(Cl)ccc2[n+](C)c2c1oc1ccccc12

>  <score_type>  (17) 
oracle

>  <origin>  (17) 
adg

>  <m_score__min__energy>  (17) 
-6.3099999999999996

>  <m_primary>  (17) 
energy

$$$$
17:0
     RDKit          3D

 89 92  0  0  0  0  0  0  0  0999 V2000
   58.9110   34.1410   52.1630 C   0  0  0  0  0  0  0  0  0  0  0  0
   59.1650   33.1960   50.9860 C   0  0  0  0  0  0  0  0  0  0  0  0
   58.6310   31.8440   51.2710 N   0  0  0  0  0  0  0  0  0  0  0  0
   57.1990   31.9360   51.6520 C   0  0  0  0  0  0  0  0  0  0  0  0
   56.6420   30.5950   52.1370 C   0  0  0  0  0  0  0  0  0  0  0  0
   58.8270   30.9480   50.1030 C   0  0  0  0  0  0  0  0  0  0  0  0
   60.1540   30.3180   50.1780 N   0  0  0  0  0  0  0  0  0  0  0  0
   60.1420   28.9390   49.6640 C   0  0  0  0  0  0  0  0  0  0  0  0
   59.4170   28.8540   48.3150 C   0  0  0  0  0  0  0  0  0  0  0  0
   60.4110   28.6910   47.1590 C   0  0  0  0  0  0  0  0  0  0  0  0
   60.7780   29.9920   46.5990 N   0  0  0  0  0  0  0  0  0  0  0  0
   59.7660   30.9720   46.3330 C   0  0  0  0  0  0  0  0  0  0  0  0
   58.6820   30.6250   45.5070 C   0  0  0  0  0  0  0  0  0  0  0  0
   58.5230   29.3000   45.0430 C   0  0  0  0  0  0  0  0  0  0  0  0
   57.4220   28.9450   44.2680 C   0  0  0  0  0  0  0  0  0  0  0  0
   56.4550   29.8940   43.9580 C   0  0  0  0  0  0  0  0  0  0  0  0
   56.6020   31.2120   44.3890 C   0  0  0  0  0  0  0  0  0  0  0  0
   57.7410   31.6160   45.1360 C   0  0  0  0  0  0  0  0  0  0  0  0
   57.9460   32.9320   45.4980 N   0  0  0  0  0  0  0  0  0  0  0  0
   57.1630   34.0070   44.8450 C   0  0  0  0  0  0  0  0  0  0  0  0
   58.9000   33.2510   46.4490 C   0  0  0  0  0  0  0  0  0  0  0  0
   58.9570   34.5430   47.0230 C   0  0  0  0  0  0  0  0  0  0  0  0
   59.9390   34.8810   47.9420 C   0  0  0  0  0  0  0  0  0  0  0  0
   60.8660   33.9380   48.3550 C   0  0  0  0  0  0  0  0  0  0  0  0
   60.8150   32.6200   47.8710 C   0  0  0  0  0  0  0  0  0  0  0  0
   61.6920   31.6450   48.3790 O   0  0  0  0  0  0  0  0  0  0  0  0
   63.0990   31.6020   48.1400 C   0  0  0  0  0  0  0  0  0  0  0  0
   63.7930   32.8420   48.7560 C   0  0  0  0  0  0  0  0  0  0  0  0
   64.3360   32.6610   50.1440 N   0  0  0  0  0  0  0  0  0  0  0  0
   65.7900   32.9770   50.1470 C   0  0  0  0  0  0  0  0  0  0  0  0
   64.1870   31.2150   50.5260 C   0  0  0  0  0  0  0  0  0  0  0  0
   62.8840   30.9370   51.3010 C   0  0  0  0  0  0  0  0  0  0  0  0
   62.8270   31.6800   52.6010 N   0  0  0  0  0  0  0  0  0  0  0  0
   63.3940   30.8360   53.6820 C   0  0  0  0  0  0  0  0  0  0  0  0
   61.4070   31.9540   52.9350 C   0  0  0  0  0  0  0  0  0  0  0  0
   63.5860   32.9700   52.5390 C   0  0  0  0  0  0  0  0  0  0  0  0
   63.6220   33.5550   51.1130 C   0  0  0  0  0  0  0  0  0  0  0  0
   59.8410   32.2720   46.8870 C   0  0  0  0  0  0  0  0  0  0  0  0
   59.0572   33.5972   53.1080 H   0  0  0  0  0  0  0  0  0  0  0  0
   59.6140   34.9856   52.1134 H   0  0  0  0  0  0  0  0  0  0  0  0
   57.8793   34.5193   52.1134 H   0  0  0  0  0  0  0  0  0  0  0  0
   58.6709   33.5969   50.0887 H   0  0  0  0  0  0  0  0  0  0  0  0
   60.2503   33.1191   50.8240 H   0  0  0  0  0  0  0  0  0  0  0  0
   57.0941   32.6759   52.4592 H   0  0  0  0  0  0  0  0  0  0  0  0
   56.6306   32.2344   50.7588 H   0  0  0  0  0  0  0  0  0  0  0  0
   56.6346   30.5772   53.2368 H   0  0  0  0  0  0  0  0  0  0  0  0
   55.6161   30.4666   51.7613 H   0  0  0  0  0  0  0  0  0  0  0  0
   57.2750   29.7776   51.7613 H   0  0  0  0  0  0  0  0  0  0  0  0
   58.0513   30.1680   50.1064 H   0  0  0  0  0  0  0  0  0  0  0  0
   58.7553   31.5366   49.1765 H   0  0  0  0  0  0  0  0  0  0  0  0
   60.7970   30.8710   49.5640 H   0  0  0  0  0  0  0  0  0  0  0  0
   61.1790   28.5952   49.5359 H   0  0  0  0  0  0  0  0  0  0  0  0
   59.6081   28.3037   50.3860 H   0  0  0  0  0  0  0  0  0  0  0  0
   58.7367   27.9897   48.3274 H   0  0  0  0  0  0  0  0  0  0  0  0
   58.8561   29.7879   48.1622 H   0  0  0  0  0  0  0  0  0  0  0  0
   61.3171   28.1904   47.5310 H   0  0  0  0  0  0  0  0  0  0  0  0
   59.9366   28.0896   46.3695 H   0  0  0  0  0  0  0  0  0  0  0  0
   61.7780   30.2950   46.5620 H   0  0  0  0  0  0  0  0  0  0  0  0
   59.2772   28.5406   45.2968 H   0  0  0  0  0  0  0  0  0  0  0  0
   57.3175   27.9133   43.9010 H   0  0  0  0  0  0  0  0  0  0  0  0
   55.5710   29.6045   43.3709 H   0  0  0  0  0  0  0  0  0  0  0  0
   55.8237   31.9507   44.1468 H   0  0  0  0  0  0  0  0  0  0  0  0
   56.7001   34.6425   45.6143 H   0  0  0  0  0  0  0  0  0  0  0  0
   57.8298   34.6171   44.2179 H   0  0  0  0  0  0  0  0  0  0  0  0
   56.3778   33.5595   44.2179 H   0  0  0  0  0  0  0  0  0  0  0  0
   58.2073   35.2945   46.7345 H   0  0  0  0  0  0  0  0  0  0  0  0
   59.9821   35.9035   48.3453 H   0  0  0  0  0  0  0  0  0  0  0  0
   61.6511   34.2245   49.0702 H   0  0  0  0  0  0  0  0  0  0  0  0
   63.5156   30.6911   48.5947 H   0  0  0  0  0  0  0  0  0  0  0  0
   63.2751   31.5991   47.0542 H   0  0  0  0  0  0  0  0  0  0  0  0
   64.6299   33.1220   48.0994 H   0  0  0  0  0  0  0  0  0  0  0  0
   63.0128   33.6132   48.8372 H   0  0  0  0  0  0  0  0  0  0  0  0
   66.1463   33.0544   51.1848 H   0  0  0  0  0  0  0  0  0  0  0  0
   66.3401   32.1774   49.6292 H   0  0  0  0  0  0  0  0  0  0  0  0
   65.9586   33.9328   49.6292 H   0  0  0  0  0  0  0  0  0  0  0  0
   64.1882   30.6067   49.6095 H   0  0  0  0  0  0  0  0  0  0  0  0
   65.0283   30.9568   51.1860 H   0  0  0  0  0  0  0  0  0  0  0  0
   62.0301   31.2449   50.6797 H   0  0  0  0  0  0  0  0  0  0  0  0
   62.8490   29.8609   51.5262 H   0  0  0  0  0  0  0  0  0  0  0  0
   63.1128   31.2545   54.6596 H   0  0  0  0  0  0  0  0  0  0  0  0
   62.9992   29.8131   53.5938 H   0  0  0  0  0  0  0  0  0  0  0  0
   64.4903   30.8148   53.5938 H   0  0  0  0  0  0  0  0  0  0  0  0
   61.2854   31.9775   54.0280 H   0  0  0  0  0  0  0  0  0  0  0  0
   61.1118   32.9257   52.5123 H   0  0  0  0  0  0  0  0  0  0  0  0
   60.7715   31.1619   52.5123 H   0  0  0  0  0  0  0  0  0  0  0  0
   63.1039   33.6975   53.2085 H   0  0  0  0  0  0  0  0  0  0  0  0
   64.6222   32.7680   52.8480 H   0  0  0  0  0  0  0  0  0  0  0  0
   62.5887   33.6991   50.7646 H   0  0  0  0  0  0  0  0  0  0  0  0
   64.1706   34.5074   51.1560 H   0  0  0  0  0  0  0  0  0  0  0  0
  1  2  1  0
  2  3  1  0
  3  4  1  0
  4  5  1  0
  3  6  1  0
  6  7  1  0
  7  8  1  0
  8  9  1  0
  9 10  1  0
 10 11  1  0
 11 12  1  0
 12 13  2  0
 13 14  1  0
 14 15  2  0
 15 16  1  0
 16 17  2  0
 17 18  1  0
 18 19  2  0
 19 20  1  0
 19 21  1  0
 21 22  2  0
 22 23  1  0
 23 24  2  0
 24 25  1  0
 25 26  1  0
 26 27  1  0
 27 28  1  0
 28 29  1  0
 29 30  1  0
 29 31  1  0
 31 32  1  0
 32 33  1  0
 33 34  1  0
 33 35  1  0
 33 36  1  0
 36 37  1  0
 25 38  2  0
 38 12  1  0
 18 13  1  0
 38 21  1  0
 37 29  1  0
  1 39  1  0
  1 40  1  0
  1 41  1  0
  2 42  1  0
  2 43  1  0
  4 44  1  0
  4 45  1  0
  5 46  1  0
  5 47  1  0
  5 48  1  0
  6 49  1  0
  6 50  1  0
  7 51  1  0
  8 52  1  0
  8 53  1  0
  9 54  1  0
  9 55  1  0
 10 56  1  0
 10 57  1  0
 11 58  1  0
 14 59  1  0
 15 60  1  0
 16 61  1  0
 17 62  1  0
 20 63  1  0
 20 64  1  0
 20 65  1  0
 22 66  1  0
 23 67  1  0
 24 68  1  0
 27 69  1  0
 27 70  1  0
 28 71  1  0
 28 72  1  0
 30 73  1  0
 30 74  1  0
 30 75  1  0
 31 76  1  0
 31 77  1  0
 32 78  1  0
 32 79  1  0
 34 80  1  0
 34 81  1  0
 34 82  1  0
 35 83  1  0
 35 84  1  0
 35 85  1  0
 36 86  1  0
 36 87  1  0
 37 88  1  0
 37 89  1  0
M  CHG  3  19   1  29   1  33   1
M  END
>  <UniqueID>  (18) 
18

>  <SMILES>  (18) 
CCN(CC)CNCCCNc1c2ccccc2[n+](C)c2cccc(OCC[N+]3(C)CC[N+](C)(C)CC3)c12

>  <Energy>  (18) 
137.33853465550575

>  <Genealogy>  (18) 
CCN(CC)CNCCCNc1c2ccccc2[n+](C)c2cccc(OCC[N+]3(C)CC[N+](C)(C)CC3)c12 (3D coordinates assigned)
CCN(CC)CNCCCNc1c2ccccc2[n+](C)c2cccc(OCC[N+]3(C)CC[N+](C)(C)CC3)c12 (nonaromatic ring conformer: 137.33853465550575 kcal/mol)

>  <smiles>  (18) 
CCN(CC)CNCCCNc1c2ccccc2[n+](C)c2cccc(OCC[N+]3(C)CC[N+](C)(C)CC3)c12

>  <score_type>  (18) 
oracle

>  <origin>  (18) 
adg

>  <m_score__min__energy>  (18) 
-4.2999999999999998

>  <m_primary>  (18) 
energy

$$$$
18:0
     RDKit          3D

 61 63  0  0  0  0  0  0  0  0999 V2000
   63.1210   33.7930   46.6360 C   0  0  0  0  0  0  0  0  0  0  0  0
   63.5950   33.8390   48.0970 C   0  0  0  0  0  0  0  0  0  0  0  0
   64.0720   32.5470   48.6680 N   0  0  0  0  0  0  0  0  0  0  0  0
   65.0820   32.6790   49.7520 C   0  0  0  0  0  0  0  0  0  0  0  0
   64.7480   33.8050   50.7400 C   0  0  0  0  0  0  0  0  0  0  0  0
   62.9850   31.5860   48.9960 C   0  0  0  0  0  0  0  0  0  0  0  0
   62.7520   31.3470   50.5110 C   0  0  0  0  0  0  0  0  0  0  0  0
   62.4680   29.8790   50.8500 C   0  0  0  0  0  0  0  0  0  0  0  0
   61.0650   29.7130   51.2610 N   0  0  0  0  0  0  0  0  0  0  0  0
   60.1890   30.7150   50.6350 C   0  0  0  0  0  0  0  0  0  0  0  0
   59.6180   30.1890   49.3090 C   0  0  0  0  0  0  0  0  0  0  0  0
   58.7260   31.1600   48.6670 N   0  0  0  0  0  0  0  0  0  0  0  0
   58.7620   31.4180   47.2560 C   0  0  0  0  0  0  0  0  0  0  0  0
   58.4940   30.3670   46.3590 C   0  0  0  0  0  0  0  0  0  0  0  0
   58.4340   29.0310   46.8060 C   0  0  0  0  0  0  0  0  0  0  0  0
   58.1970   27.9880   45.9120 C   0  0  0  0  0  0  0  0  0  0  0  0
   58.0390   28.2550   44.5570 C   0  0  0  0  0  0  0  0  0  0  0  0
   58.0930   29.5690   44.0930 C   0  0  0  0  0  0  0  0  0  0  0  0
   58.2970   30.6530   44.9860 C   0  0  0  0  0  0  0  0  0  0  0  0
   58.3120   31.9590   44.5470 N   0  0  0  0  0  0  0  0  0  0  0  0
   57.7780   32.2900   43.2060 C   0  0  0  0  0  0  0  0  0  0  0  0
   58.8140   32.9570   45.3620 C   0  0  0  0  0  0  0  0  0  0  0  0
   59.1370   34.2310   44.8330 C   0  0  0  0  0  0  0  0  0  0  0  0
   59.6020   35.2540   45.6500 C   0  0  0  0  0  0  0  0  0  0  0  0
   59.7730   35.0390   47.0070 C   0  0  0  0  0  0  0  0  0  0  0  0
   59.5080   33.7910   47.5720 C   0  0  0  0  0  0  0  0  0  0  0  0
   59.8910   33.6690   49.2900 Cl  0  0  0  0  0  0  0  0  0  0  0  0
   59.0300   32.7170   46.7540 C   0  0  0  0  0  0  0  0  0  0  0  0
   62.0265   33.6868   46.6088 H   0  0  0  0  0  0  0  0  0  0  0  0
   63.4118   34.7236   46.1267 H   0  0  0  0  0  0  0  0  0  0  0  0
   63.5854   32.9357   46.1267 H   0  0  0  0  0  0  0  0  0  0  0  0
   64.4222   34.5613   48.1603 H   0  0  0  0  0  0  0  0  0  0  0  0
   62.7101   34.1171   48.6883 H   0  0  0  0  0  0  0  0  0  0  0  0
   64.5700   32.0860   47.8680 H   0  0  0  0  0  0  0  0  0  0  0  0
   65.1310   31.7292   50.3046 H   0  0  0  0  0  0  0  0  0  0  0  0
   66.0446   32.9259   49.2804 H   0  0  0  0  0  0  0  0  0  0  0  0
   64.8581   33.4340   51.7697 H   0  0  0  0  0  0  0  0  0  0  0  0
   65.4343   34.6494   50.5792 H   0  0  0  0  0  0  0  0  0  0  0  0
   63.7122   34.1386   50.5792 H   0  0  0  0  0  0  0  0  0  0  0  0
   62.0491   31.9698   48.5638 H   0  0  0  0  0  0  0  0  0  0  0  0
   63.2963   30.6174   48.5777 H   0  0  0  0  0  0  0  0  0  0  0  0
   63.6515   31.6653   51.0583 H   0  0  0  0  0  0  0  0  0  0  0  0
   61.8656   31.9292   50.8031 H   0  0  0  0  0  0  0  0  0  0  0  0
   62.6626   29.2575   49.9635 H   0  0  0  0  0  0  0  0  0  0  0  0
   63.1228   29.5694   51.6778 H   0  0  0  0  0  0  0  0  0  0  0  0
   61.0100   29.8370   52.2980 H   0  0  0  0  0  0  0  0  0  0  0  0
   59.3588   30.9456   51.3188 H   0  0  0  0  0  0  0  0  0  0  0  0
   60.7793   31.6203   50.4300 H   0  0  0  0  0  0  0  0  0  0  0  0
   60.4521   29.9687   48.6265 H   0  0  0  0  0  0  0  0  0  0  0  0
   59.0314   29.2847   49.5285 H   0  0  0  0  0  0  0  0  0  0  0  0
   58.1490   31.7840   49.2730 H   0  0  0  0  0  0  0  0  0  0  0  0
   58.5760   28.8089   47.8739 H   0  0  0  0  0  0  0  0  0  0  0  0
   58.1350   26.9529   46.2791 H   0  0  0  0  0  0  0  0  0  0  0  0
   57.8712   27.4291   43.8501 H   0  0  0  0  0  0  0  0  0  0  0  0
   57.9756   29.7685   43.0176 H   0  0  0  0  0  0  0  0  0  0  0  0
   56.8476   32.8667   43.3140 H   0  0  0  0  0  0  0  0  0  0  0  0
   58.5181   32.8880   42.6540 H   0  0  0  0  0  0  0  0  0  0  0  0
   57.5717   31.3612   42.6540 H   0  0  0  0  0  0  0  0  0  0  0  0
   59.0173   34.4137   43.7549 H   0  0  0  0  0  0  0  0  0  0  0  0
   59.8351   36.2381   45.2173 H   0  0  0  0  0  0  0  0  0  0  0  0
   60.1221   35.8622   47.6477 H   0  0  0  0  0  0  0  0  0  0  0  0
  1  2  1  0
  2  3  1  0
  3  4  1  0
  4  5  1  0
  3  6  1  0
  6  7  1  0
  7  8  1  0
  8  9  1  0
  9 10  1  0
 10 11  1  0
 11 12  1  0
 12 13  1  0
 13 14  2  0
 14 15  1  0
 15 16  2  0
 16 17  1  0
 17 18  2  0
 18 19  1  0
 19 20  2  0
 20 21  1  0
 20 22  1  0
 22 23  2  0
 23 24  1  0
 24 25  2  0
 25 26  1  0
 26 27  1  0
 26 28  2  0
 28 13  1  0
 19 14  1  0
 28 22  1  0
  1 29  1  0
  1 30  1  0
  1 31  1  0
  2 32  1  0
  2 33  1  0
  3 34  1  0
  4 35  1  0
  4 36  1  0
  5 37  1  0
  5 38  1  0
  5 39  1  0
  6 40  1  0
  6 41  1  0
  7 42  1  0
  7 43  1  0
  8 44  1  0
  8 45  1  0
  9 46  1  0
 10 47  1  0
 10 48  1  0
 11 49  1  0
 11 50  1  0
 12 51  1  0
 15 52  1  0
 16 53  1  0
 17 54  1  0
 18 55  1  0
 21 56  1  0
 21 57  1  0
 21 58  1  0
 23 59  1  0
 24 60  1  0
 25 61  1  0
M  CHG  2   3   1  20   1
M  END
>  <UniqueID>  (19) 
19

>  <SMILES>  (19) 
CC[NH+](CC)CCCNCCNc1c2ccccc2[n+](C)c2cccc(Cl)c12

>  <Energy>  (19) 
97.27692460923414

>  <Genealogy>  (19) 
CC[NH+](CC)CCCNCCNc1c2ccccc2[n+](C)c2cccc(Cl)c12 (protonated)
CC[NH+](CC)CCCNCCNc1c2ccccc2[n+](C)c2cccc(Cl)c12 (3D coordinates assigned)
CC[NH+](CC)CCCNCCNc1c2ccccc2[n+](C)c2cccc(Cl)c12 (optimized conformer: 97.27692460923414 kcal/mol)

>  <smiles>  (19) 
CCN(CC)CCCNCCNc1c2ccccc2[n+](C)c2cccc(Cl)c12

>  <score_type>  (19) 
oracle

>  <origin>  (19) 
adg

>  <m_score__min__energy>  (19) 
-4.7699999999999996

>  <m_primary>  (19) 
energy

$$$$
19:0
     RDKit          3D

 39 40  0  0  0  0  0  0  0  0999 V2000
   56.2710   29.7260   42.7130 C   0  0  0  0  0  0  0  0  0  0  0  0
   55.9060   29.9310   44.1800 C   0  0  0  0  0  0  0  0  0  0  0  0
   57.0010   30.6360   44.8860 N   0  0  0  0  0  0  0  0  0  0  0  0
   58.3050   29.9750   44.6550 C   0  0  0  0  0  0  0  0  0  0  0  0
   58.6220   29.0190   45.8020 C   0  0  0  0  0  0  0  0  0  0  0  0
   57.0530   32.0600   44.4890 C   0  0  0  0  0  0  0  0  0  0  0  0
   57.7600   32.8330   45.5080 N   0  0  0  0  0  0  0  0  0  0  0  0
   58.2920   32.3330   46.6140 N   0  0  0  0  0  0  0  0  0  0  0  0
   58.9520   33.3360   47.2320 C   0  0  0  0  0  0  0  0  0  0  0  0
   59.8220   33.1380   48.4360 C   0  0  0  0  0  0  0  0  0  0  0  0
   61.2580   33.3030   48.0530 C   0  0  0  0  0  0  0  0  0  0  0  0
   61.7610   33.2690   46.7580 C   0  0  0  0  0  0  0  0  0  0  0  0
   63.1340   33.5360   46.6950 C   0  0  0  0  0  0  0  0  0  0  0  0
   63.7110   33.7920   47.9320 C   0  0  0  0  0  0  0  0  0  0  0  0
   62.5110   33.6890   49.1070 S   0  0  0  0  0  0  0  0  0  0  0  0
   58.8520   34.4780   46.5170 N   0  0  0  0  0  0  0  0  0  0  0  0
   59.4610   35.7180   46.7630 N   0  0  0  0  0  0  0  0  0  0  0  0
   58.1090   34.1330   45.4510 C   0  0  0  0  0  0  0  0  0  0  0  0
   57.8100   34.9130   44.5060 O   0  0  0  0  0  0  0  0  0  0  0  0
   57.2283   29.1884   42.6450 H   0  0  0  0  0  0  0  0  0  0  0  0
   55.4842   29.1378   42.2181 H   0  0  0  0  0  0  0  0  0  0  0  0
   56.3638   30.7040   42.2181 H   0  0  0  0  0  0  0  0  0  0  0  0
   54.9862   30.5308   44.2452 H   0  0  0  0  0  0  0  0  0  0  0  0
   55.7485   28.9496   44.6512 H   0  0  0  0  0  0  0  0  0  0  0  0
   58.2640   29.4101   43.7120 H   0  0  0  0  0  0  0  0  0  0  0  0
   59.0914   30.7421   44.5994 H   0  0  0  0  0  0  0  0  0  0  0  0
   58.4529   29.5290   46.7618 H   0  0  0  0  0  0  0  0  0  0  0  0
   57.9683   28.1368   45.7354 H   0  0  0  0  0  0  0  0  0  0  0  0
   59.6733   28.7022   45.7354 H   0  0  0  0  0  0  0  0  0  0  0  0
   57.5816   32.1522   43.5287 H   0  0  0  0  0  0  0  0  0  0  0  0
   56.0280   32.4460   44.3868 H   0  0  0  0  0  0  0  0  0  0  0  0
   58.2480   31.3310   46.9080 H   0  0  0  0  0  0  0  0  0  0  0  0
   59.5602   33.8822   49.2026 H   0  0  0  0  0  0  0  0  0  0  0  0
   59.6657   32.1252   48.8357 H   0  0  0  0  0  0  0  0  0  0  0  0
   61.1438   33.0543   45.8732 H   0  0  0  0  0  0  0  0  0  0  0  0
   63.7027   33.5424   45.7534 H   0  0  0  0  0  0  0  0  0  0  0  0
   64.7712   34.0227   48.1128 H   0  0  0  0  0  0  0  0  0  0  0  0
   59.0000   36.4190   47.3850 H   0  0  0  0  0  0  0  0  0  0  0  0
   60.3810   35.9610   46.3370 H   0  0  0  0  0  0  0  0  0  0  0  0
  1  2  1  0
  2  3  1  0
  3  4  1  0
  4  5  1  0
  3  6  1  0
  6  7  1  0
  7  8  1  0
  8  9  2  0
  9 10  1  0
 10 11  1  0
 11 12  2  0
 12 13  1  0
 13 14  2  0
 14 15  1  0
  9 16  1  0
 16 17  1  0
 16 18  1  0
 18 19  2  0
 18  7  1  0
 15 11  1  0
  1 20  1  0
  1 21  1  0
  1 22  1  0
  2 23  1  0
  2 24  1  0
  4 25  1  0
  4 26  1  0
  5 27  1  0
  5 28  1  0
  5 29  1  0
  6 30  1  0
  6 31  1  0
  8 32  1  0
 10 33  1  0
 10 34  1  0
 12 35  1  0
 13 36  1  0
 14 37  1  0
 17 38  1  0
 17 39  1  0
M  CHG  1   8   1
M  END
>  <UniqueID>  (20) 
20

>  <SMILES>  (20) 
CCN(CC)Cn1[nH+]c(Cc2cccs2)n(N)c1=O

>  <Energy>  (20) 
97.84099465693622

>  <Genealogy>  (20) 
CCN(CC)Cn1[nH+]c(Cc2cccs2)n(N)c1=O (protonated)
CCN(CC)Cn1[nH+]c(Cc2cccs2)n(N)c1=O (3D coordinates assigned)
CCN(CC)Cn1[nH+]c(Cc2cccs2)n(N)c1=O (optimized conformer: 97.84099465693622 kcal/mol)

>  <smiles>  (20) 
CCN(CC)Cn1nc(Cc2cccs2)n(N)c1=O

>  <score_type>  (20) 
oracle

>  <origin>  (20) 
adg

>  <m_score__min__energy>  (20) 
-5.0099999999999998

>  <m_primary>  (20) 
energy

$$$$
20:0
     RDKit          3D

 64 67  0  0  0  0  0  0  0  0999 V2000
   57.1500   31.6570   51.6330 C   0  0  0  0  0  0  0  0  0  0  0  0
   58.4430   30.8630   51.8460 C   0  0  0  0  0  0  0  0  0  0  0  0
   58.8410   30.1110   50.6420 N   0  0  0  0  0  0  0  0  0  0  0  0
   60.2950   29.9180   50.5480 C   0  0  0  0  0  0  0  0  0  0  0  0
   60.6560   29.0200   49.3540 C   0  0  0  0  0  0  0  0  0  0  0  0
   60.3660   29.6690   47.9900 C   0  0  0  0  0  0  0  0  0  0  0  0
   59.0720   30.3560   47.9740 N   0  0  0  0  0  0  0  0  0  0  0  0
   58.7010   31.1630   46.8470 C   0  0  0  0  0  0  0  0  0  0  0  0
   58.0030   30.5540   45.7860 C   0  0  0  0  0  0  0  0  0  0  0  0
   57.4800   29.2470   45.9160 C   0  0  0  0  0  0  0  0  0  0  0  0
   56.7680   28.6560   44.8760 C   0  0  0  0  0  0  0  0  0  0  0  0
   56.5510   29.3560   43.6950 C   0  0  0  0  0  0  0  0  0  0  0  0
   57.0650   30.6420   43.5410 C   0  0  0  0  0  0  0  0  0  0  0  0
   57.8270   31.2550   44.5700 C   0  0  0  0  0  0  0  0  0  0  0  0
   58.3920   32.5000   44.4080 N   0  0  0  0  0  0  0  0  0  0  0  0
   58.5170   33.0790   43.0510 C   0  0  0  0  0  0  0  0  0  0  0  0
   58.8510   33.2000   45.5090 C   0  0  0  0  0  0  0  0  0  0  0  0
   59.1210   34.5840   45.4140 C   0  0  0  0  0  0  0  0  0  0  0  0
   59.6020   35.2990   46.4960 C   0  0  0  0  0  0  0  0  0  0  0  0
   59.8110   34.6720   47.7090 C   0  0  0  0  0  0  0  0  0  0  0  0
   59.5440   33.3000   47.8810 C   0  0  0  0  0  0  0  0  0  0  0  0
   59.6820   32.7380   49.2070 N   0  0  0  0  0  0  0  0  0  0  0  0
   59.9730   33.5560   50.3910 C   0  0  0  0  0  0  0  0  0  0  0  0
   61.4530   33.4660   50.7990 C   0  0  0  0  0  0  0  0  0  0  0  0
   62.3810   34.2580   49.8630 C   0  0  0  0  0  0  0  0  0  0  0  0
   62.8530   33.4310   48.7530 N   0  0  0  0  0  0  0  0  0  0  0  0
   62.8370   32.0900   48.6780 C   0  0  0  0  0  0  0  0  0  0  0  0
   63.3790   31.7300   47.4640 C   0  0  0  0  0  0  0  0  0  0  0  0
   63.7340   32.8390   46.7790 N   0  0  0  0  0  0  0  0  0  0  0  0
   63.3960   33.8580   47.5960 C   0  0  0  0  0  0  0  0  0  0  0  0
   59.0390   32.5420   46.7670 C   0  0  0  0  0  0  0  0  0  0  0  0
   56.7177   31.9225   52.6090 H   0  0  0  0  0  0  0  0  0  0  0  0
   57.3720   32.5746   51.0685 H   0  0  0  0  0  0  0  0  0  0  0  0
   56.4320   31.0439   51.0685 H   0  0  0  0  0  0  0  0  0  0  0  0
   59.2494   31.5635   52.1085 H   0  0  0  0  0  0  0  0  0  0  0  0
   58.2639   30.1372   52.6529 H   0  0  0  0  0  0  0  0  0  0  0  0
   58.3800   29.1710   50.6540 H   0  0  0  0  0  0  0  0  0  0  0  0
   60.7803   30.8970   50.4213 H   0  0  0  0  0  0  0  0  0  0  0  0
   60.6440   29.4311   51.4705 H   0  0  0  0  0  0  0  0  0  0  0  0
   61.7293   28.7849   49.4068 H   0  0  0  0  0  0  0  0  0  0  0  0
   60.0283   28.1194   49.4244 H   0  0  0  0  0  0  0  0  0  0  0  0
   61.1585   30.3989   47.7681 H   0  0  0  0  0  0  0  0  0  0  0  0
   60.3370   28.8714   47.2331 H   0  0  0  0  0  0  0  0  0  0  0  0
   58.2950   30.0040   48.5780 H   0  0  0  0  0  0  0  0  0  0  0  0
   57.6378   28.6898   46.8512 H   0  0  0  0  0  0  0  0  0  0  0  0
   56.3768   27.6341   44.9890 H   0  0  0  0  0  0  0  0  0  0  0  0
   55.9729   28.8943   42.8810 H   0  0  0  0  0  0  0  0  0  0  0  0
   56.8772   31.1913   42.6066 H   0  0  0  0  0  0  0  0  0  0  0  0
   58.7485   34.1515   43.1298 H   0  0  0  0  0  0  0  0  0  0  0  0
   59.3256   32.5683   42.5075 H   0  0  0  0  0  0  0  0  0  0  0  0
   57.5697   32.9474   42.5075 H   0  0  0  0  0  0  0  0  0  0  0  0
   58.9451   35.1031   44.4603 H   0  0  0  0  0  0  0  0  0  0  0  0
   59.8191   36.3721   46.3900 H   0  0  0  0  0  0  0  0  0  0  0  0
   60.1940   35.2566   48.5584 H   0  0  0  0  0  0  0  0  0  0  0  0
   59.1910   31.8380   49.3970 H   0  0  0  0  0  0  0  0  0  0  0  0
   59.7286   34.6050   50.1676 H   0  0  0  0  0  0  0  0  0  0  0  0
   59.3651   33.1769   51.2257 H   0  0  0  0  0  0  0  0  0  0  0  0
   61.5607   33.8637   51.8189 H   0  0  0  0  0  0  0  0  0  0  0  0
   61.7482   32.4081   50.7388 H   0  0  0  0  0  0  0  0  0  0  0  0
   61.8299   35.1196   49.4580 H   0  0  0  0  0  0  0  0  0  0  0  0
   63.2549   34.5903   50.4426 H   0  0  0  0  0  0  0  0  0  0  0  0
   62.4586   31.4021   49.4485 H   0  0  0  0  0  0  0  0  0  0  0  0
   63.5038   30.6971   47.1067 H   0  0  0  0  0  0  0  0  0  0  0  0
   63.5468   34.9185   47.3457 H   0  0  0  0  0  0  0  0  0  0  0  0
  1  2  1  0
  2  3  1  0
  3  4  1  0
  4  5  1  0
  5  6  1  0
  6  7  1  0
  7  8  1  0
  8  9  2  0
  9 10  1  0
 10 11  2  0
 11 12  1  0
 12 13  2  0
 13 14  1  0
 14 15  2  0
 15 16  1  0
 15 17  1  0
 17 18  2  0
 18 19  1  0
 19 20  2  0
 20 21  1  0
 21 22  1  0
 22 23  1  0
 23 24  1  0
 24 25  1  0
 25 26  1  0
 26 27  1  0
 27 28  2  0
 28 29  1  0
 29 30  2  0
 21 31  2  0
 31  8  1  0
 14  9  1  0
 31 17  1  0
 30 26  1  0
  1 32  1  0
  1 33  1  0
  1 34  1  0
  2 35  1  0
  2 36  1  0
  3 37  1  0
  4 38  1  0
  4 39  1  0
  5 40  1  0
  5 41  1  0
  6 42  1  0
  6 43  1  0
  7 44  1  0
 10 45  1  0
 11 46  1  0
 12 47  1  0
 13 48  1  0
 16 49  1  0
 16 50  1  0
 16 51  1  0
 18 52  1  0
 19 53  1  0
 20 54  1  0
 22 55  1  0
 23 56  1  0
 23 57  1  0
 24 58  1  0
 24 59  1  0
 25 60  1  0
 25 61  1  0
 27 62  1  0
 28 63  1  0
 30 64  1  0
M  CHG  1  15   1
M  END
>  <UniqueID>  (21) 
21

>  <SMILES>  (21) 
CCNCCCNc1c2ccccc2[n+](C)c2cccc(NCCCn3ccnc3)c12

>  <Energy>  (21) 
126.39832159041265

>  <Genealogy>  (21) 
CCNCCCNc1c2ccccc2[n+](C)c2cccc(NCCCn3ccnc3)c12 (3D coordinates assigned)
CCNCCCNc1c2ccccc2[n+](C)c2cccc(NCCCn3ccnc3)c12 (optimized conformer: 126.39832159041265 kcal/mol)

>  <smiles>  (21) 
CCNCCCNc1c2ccccc2[n+](C)c2cccc(NCCCn3ccnc3)c12

>  <score_type>  (21) 
oracle

>  <origin>  (21) 
adg

>  <m_score__min__energy>  (21) 
-5.8899999999999997

>  <m_primary>  (21) 
energy

$$$$
21:0
     RDKit          3D

 47 49  0  0  0  0  0  0  0  0999 V2000
   64.3630   33.0540   49.8990 C   0  0  0  0  0  0  0  0  0  0  0  0
   63.4780   33.2840   48.7640 N   0  0  0  0  0  0  0  0  0  0  0  0
   62.1850   33.6570   48.8320 C   0  0  0  0  0  0  0  0  0  0  0  0
   61.6840   33.6910   47.5450 C   0  0  0  0  0  0  0  0  0  0  0  0
   60.2800   34.0130   47.1260 C   0  0  0  0  0  0  0  0  0  0  0  0
   59.8480   33.3020   45.9050 N   0  0  0  0  0  0  0  0  0  0  0  0
   58.8780   34.0090   45.0470 C   0  0  0  0  0  0  0  0  0  0  0  0
   57.4290   33.5840   45.3220 C   0  0  0  0  0  0  0  0  0  0  0  0
   57.2600   32.1240   45.2660 N   0  0  0  0  0  0  0  0  0  0  0  0
   57.3410   31.5810   43.8900 C   0  0  0  0  0  0  0  0  0  0  0  0
   56.3020   30.4720   43.6840 C   0  0  0  0  0  0  0  0  0  0  0  0
   56.0000   29.8330   44.9110 O   0  0  0  0  0  0  0  0  0  0  0  0
   56.7890   28.6730   45.0770 C   0  0  0  0  0  0  0  0  0  0  0  0
   57.6940   28.5220   43.8520 C   0  0  0  0  0  0  0  0  0  0  0  0
   59.1230   28.1060   44.1610 C   0  0  0  0  0  0  0  0  0  0  0  0
   58.1570   27.1080   43.5400 C   0  0  0  0  0  0  0  0  0  0  0  0
   58.1610   31.4530   46.2220 C   0  0  0  0  0  0  0  0  0  0  0  0
   59.6400   31.8450   46.0390 C   0  0  0  0  0  0  0  0  0  0  0  0
   62.7280   33.2910   46.7280 C   0  0  0  0  0  0  0  0  0  0  0  0
   63.8020   33.0500   47.5020 N   0  0  0  0  0  0  0  0  0  0  0  0
   63.8040   33.1993   50.8352 H   0  0  0  0  0  0  0  0  0  0  0  0
   64.7505   32.0253   49.8592 H   0  0  0  0  0  0  0  0  0  0  0  0
   65.2024   33.7638   49.8592 H   0  0  0  0  0  0  0  0  0  0  0  0
   61.6269   33.8928   49.7501 H   0  0  0  0  0  0  0  0  0  0  0  0
   59.6008   33.7385   47.9466 H   0  0  0  0  0  0  0  0  0  0  0  0
   60.2503   35.0890   46.8996 H   0  0  0  0  0  0  0  0  0  0  0  0
   58.9689   35.0900   45.2289 H   0  0  0  0  0  0  0  0  0  0  0  0
   59.1082   33.7532   44.0022 H   0  0  0  0  0  0  0  0  0  0  0  0
   57.1401   33.9363   46.3232 H   0  0  0  0  0  0  0  0  0  0  0  0
   56.7922   34.0286   44.5430 H   0  0  0  0  0  0  0  0  0  0  0  0
   57.1523   32.3911   43.1702 H   0  0  0  0  0  0  0  0  0  0  0  0
   58.3449   31.1591   43.7344 H   0  0  0  0  0  0  0  0  0  0  0  0
   55.3824   30.9114   43.2701 H   0  0  0  0  0  0  0  0  0  0  0  0
   56.7153   29.7256   42.9896 H   0  0  0  0  0  0  0  0  0  0  0  0
   57.4046   28.7695   45.9835 H   0  0  0  0  0  0  0  0  0  0  0  0
   56.1426   27.7889   45.1794 H   0  0  0  0  0  0  0  0  0  0  0  0
   57.2186   29.3261   43.2711 H   0  0  0  0  0  0  0  0  0  0  0  0
   59.9546   28.5103   43.5652 H   0  0  0  0  0  0  0  0  0  0  0  0
   59.7600   28.1175   45.0578 H   0  0  0  0  0  0  0  0  0  0  0  0
   58.2901   26.7907   42.4952 H   0  0  0  0  0  0  0  0  0  0  0  0
   57.8060   26.0989   43.8016 H   0  0  0  0  0  0  0  0  0  0  0  0
   57.8515   31.7226   47.2425 H   0  0  0  0  0  0  0  0  0  0  0  0
   58.0844   30.3709   46.0395 H   0  0  0  0  0  0  0  0  0  0  0  0
   60.2055   31.4909   46.9135 H   0  0  0  0  0  0  0  0  0  0  0  0
   59.9863   31.3799   45.1043 H   0  0  0  0  0  0  0  0  0  0  0  0
   62.6865   33.1879   45.6336 H   0  0  0  0  0  0  0  0  0  0  0  0
   64.7360   32.7190   47.1730 H   0  0  0  0  0  0  0  0  0  0  0  0
  1  2  1  0
  2  3  1  0
  3  4  2  0
  4  5  1  0
  5  6  1  0
  6  7  1  0
  7  8  1  0
  8  9  1  0
  9 10  1  0
 10 11  1  0
 11 12  1  0
 12 13  1  0
 13 14  1  0
 14 15  1  0
 15 16  1  0
  9 17  1  0
 17 18  1  0
  4 19  1  0
 19 20  2  0
 20  2  1  0
 18  6  1  0
 16 14  1  0
  1 21  1  0
  1 22  1  0
  1 23  1  0
  3 24  1  0
  5 25  1  0
  5 26  1  0
  7 27  1  0
  7 28  1  0
  8 29  1  0
  8 30  1  0
 10 31  1  0
 10 32  1  0
 11 33  1  0
 11 34  1  0
 13 35  1  0
 13 36  1  0
 14 37  1  0
 15 38  1  0
 15 39  1  0
 16 40  1  0
 16 41  1  0
 17 42  1  0
 17 43  1  0
 18 44  1  0
 18 45  1  0
 19 46  1  0
 20 47  1  0
M  CHG  1  20   1
M  END
>  <UniqueID>  (22) 
22

>  <SMILES>  (22) 
Cn1cc(CN2CCN(CCOCC3CC3)CC2)c[nH+]1

>  <Energy>  (22) 
350.6179000030959

>  <Genealogy>  (22) 
Cn1cc(CN2CCN(CCOCC3CC3)CC2)c[nH+]1 (protonated)
Cn1cc(CN2CCN(CCOCC3CC3)CC2)c[nH+]1 (3D coordinates assigned)
Cn1cc(CN2CCN(CCOCC3CC3)CC2)c[nH+]1 (nonaromatic ring conformer: 350.6179000030959 kcal/mol)

>  <smiles>  (22) 
Cn1cc(CN2CCN(CCOCC3CC3)CC2)cn1

>  <score_type>  (22) 
oracle

>  <origin>  (22) 
adg

>  <m_score__min__energy>  (22) 
-6.3600000000000003

>  <m_primary>  (22) 
energy

$$$$
22:0
     RDKit          3D

 68 70  0  0  0  0  0  0  0  0999 V2000
   61.7560   29.3880   50.7620 C   0  0  0  0  0  0  0  0  0  0  0  0
   62.6860   30.4060   51.4310 C   0  0  0  0  0  0  0  0  0  0  0  0
   62.9030   31.5980   50.5860 N   0  0  0  0  0  0  0  0  0  0  0  0
   64.2860   31.6930   50.0750 C   0  0  0  0  0  0  0  0  0  0  0  0
   64.5350   33.0280   49.3490 C   0  0  0  0  0  0  0  0  0  0  0  0
   63.8830   33.0610   47.9600 C   0  0  0  0  0  0  0  0  0  0  0  0
   62.5080   32.7280   48.0180 O   0  0  0  0  0  0  0  0  0  0  0  0
   61.7200   33.8870   48.1990 C   0  0  0  0  0  0  0  0  0  0  0  0
   61.5650   34.1620   49.6890 C   0  0  0  0  0  0  0  0  0  0  0  0
   60.8110   33.1230   50.2800 O   0  0  0  0  0  0  0  0  0  0  0  0
   59.6740   32.8210   49.4920 C   0  0  0  0  0  0  0  0  0  0  0  0
   59.6470   31.3340   49.1280 C   0  0  0  0  0  0  0  0  0  0  0  0
   60.2810   31.0960   47.8290 N   0  0  0  0  0  0  0  0  0  0  0  0
   59.4760   30.8710   46.6620 C   0  0  0  0  0  0  0  0  0  0  0  0
   58.9440   31.9550   45.9550 C   0  0  0  0  0  0  0  0  0  0  0  0
   58.1950   31.7280   44.7850 C   0  0  0  0  0  0  0  0  0  0  0  0
   57.8960   30.4390   44.3780 N   0  0  0  0  0  0  0  0  0  0  0  0
   56.9300   30.2200   43.2730 C   0  0  0  0  0  0  0  0  0  0  0  0
   55.5550   29.8280   43.8150 C   0  0  0  0  0  0  0  0  0  0  0  0
   58.4750   29.3590   45.0270 C   0  0  0  0  0  0  0  0  0  0  0  0
   58.3430   28.0270   44.5480 C   0  0  0  0  0  0  0  0  0  0  0  0
   58.9140   26.9530   45.2320 C   0  0  0  0  0  0  0  0  0  0  0  0
   59.6370   27.1690   46.3980 C   0  0  0  0  0  0  0  0  0  0  0  0
   59.8140   28.4630   46.8770 C   0  0  0  0  0  0  0  0  0  0  0  0
   59.2550   29.5660   46.2000 C   0  0  0  0  0  0  0  0  0  0  0  0
   57.8340   32.9730   43.9840 C   0  0  0  0  0  0  0  0  0  0  0  0
   57.1940   34.0410   44.8840 C   0  0  0  0  0  0  0  0  0  0  0  0
   57.8960   34.2150   46.2500 C   0  0  0  0  0  0  0  0  0  0  0  0
   59.1800   33.3850   46.3980 C   0  0  0  0  0  0  0  0  0  0  0  0
   61.2282   28.8102   51.5350 H   0  0  0  0  0  0  0  0  0  0  0  0
   61.0231   29.9173   50.1354 H   0  0  0  0  0  0  0  0  0  0  0  0
   62.3493   28.7058   50.1354 H   0  0  0  0  0  0  0  0  0  0  0  0
   62.2378   30.7234   52.3841 H   0  0  0  0  0  0  0  0  0  0  0  0
   63.6605   29.9214   51.5907 H   0  0  0  0  0  0  0  0  0  0  0  0
   62.2370   31.5870   49.7770 H   0  0  0  0  0  0  0  0  0  0  0  0
   62.6730   32.4530   51.1470 H   0  0  0  0  0  0  0  0  0  0  0  0
   64.9848   31.6114   50.9206 H   0  0  0  0  0  0  0  0  0  0  0  0
   64.4419   30.8767   49.3543 H   0  0  0  0  0  0  0  0  0  0  0  0
   64.1177   33.8449   49.9560 H   0  0  0  0  0  0  0  0  0  0  0  0
   65.6208   33.1435   49.2160 H   0  0  0  0  0  0  0  0  0  0  0  0
   63.9872   34.0729   47.5414 H   0  0  0  0  0  0  0  0  0  0  0  0
   64.3890   32.3178   47.3263 H   0  0  0  0  0  0  0  0  0  0  0  0
   62.2113   34.7446   47.7161 H   0  0  0  0  0  0  0  0  0  0  0  0
   60.7288   33.7332   47.7474 H   0  0  0  0  0  0  0  0  0  0  0  0
   62.5583   34.2084   50.1593 H   0  0  0  0  0  0  0  0  0  0  0  0
   61.0473   35.1216   49.8346 H   0  0  0  0  0  0  0  0  0  0  0  0
   58.7651   33.0704   50.0591 H   0  0  0  0  0  0  0  0  0  0  0  0
   59.7195   33.4112   48.5649 H   0  0  0  0  0  0  0  0  0  0  0  0
   60.1861   30.7656   49.9001 H   0  0  0  0  0  0  0  0  0  0  0  0
   58.5980   31.0084   49.0690 H   0  0  0  0  0  0  0  0  0  0  0  0
   61.3030   31.2730   47.6950 H   0  0  0  0  0  0  0  0  0  0  0  0
   56.8352   31.1475   42.6893 H   0  0  0  0  0  0  0  0  0  0  0  0
   57.3027   29.4016   42.6395 H   0  0  0  0  0  0  0  0  0  0  0  0
   55.5788   29.8348   44.9147 H   0  0  0  0  0  0  0  0  0  0  0  0
   54.8023   30.5473   43.4601 H   0  0  0  0  0  0  0  0  0  0  0  0
   55.2948   28.8199   43.4601 H   0  0  0  0  0  0  0  0  0  0  0  0
   57.7806   27.8396   43.6214 H   0  0  0  0  0  0  0  0  0  0  0  0
   58.7909   25.9304   44.8458 H   0  0  0  0  0  0  0  0  0  0  0  0
   60.0697   26.3169   46.9427 H   0  0  0  0  0  0  0  0  0  0  0  0
   60.3972   28.6275   47.7951 H   0  0  0  0  0  0  0  0  0  0  0  0
   58.7469   33.3856   43.5297 H   0  0  0  0  0  0  0  0  0  0  0  0
   57.1096   32.6909   43.2058 H   0  0  0  0  0  0  0  0  0  0  0  0
   57.2255   35.0042   44.3538 H   0  0  0  0  0  0  0  0  0  0  0  0
   56.1674   33.7065   45.0941 H   0  0  0  0  0  0  0  0  0  0  0  0
   58.1535   35.2772   46.3747 H   0  0  0  0  0  0  0  0  0  0  0  0
   57.1941   33.8586   47.0183 H   0  0  0  0  0  0  0  0  0  0  0  0
   59.9717   33.8299   45.7773 H   0  0  0  0  0  0  0  0  0  0  0  0
   59.4818   33.3836   47.4558 H   0  0  0  0  0  0  0  0  0  0  0  0
  1  2  1  0
  2  3  1  0
  3  4  1  0
  4  5  1  0
  5  6  1  0
  6  7  1  0
  7  8  1  0
  8  9  1  0
  9 10  1  0
 10 11  1  0
 11 12  1  0
 12 13  1  0
 13 14  1  0
 14 15  2  0
 15 16  1  0
 16 17  2  0
 17 18  1  0
 18 19  1  0
 17 20  1  0
 20 21  2  0
 21 22  1  0
 22 23  2  0
 23 24  1  0
 24 25  2  0
 16 26  1  0
 26 27  1  0
 27 28  1  0
 28 29  1  0
 25 14  1  0
 29 15  1  0
 25 20  1  0
  1 30  1  0
  1 31  1  0
  1 32  1  0
  2 33  1  0
  2 34  1  0
  3 35  1  0
  3 36  1  0
  4 37  1  0
  4 38  1  0
  5 39  1  0
  5 40  1  0
  6 41  1  0
  6 42  1  0
  8 43  1  0
  8 44  1  0
  9 45  1  0
  9 46  1  0
 11 47  1  0
 11 48  1  0
 12 49  1  0
 12 50  1  0
 13 51  1  0
 18 52  1  0
 18 53  1  0
 19 54  1  0
 19 55  1  0
 19 56  1  0
 21 57  1  0
 22 58  1  0
 23 59  1  0
 24 60  1  0
 26 61  1  0
 26 62  1  0
 27 63  1  0
 27 64  1  0
 28 65  1  0
 28 66  1  0
 29 67  1  0
 29 68  1  0
M  CHG  2   3   1  17   1
M  END
>  <UniqueID>  (23) 
23

>  <SMILES>  (23) 
CC[NH2+]CCCOCCOCCNc1c2c([n+](CC)c3ccccc13)CCCC2

>  <Energy>  (23) 
88.02767175894618

>  <Genealogy>  (23) 
CC[NH2+]CCCOCCOCCNc1c2c([n+](CC)c3ccccc13)CCCC2 (protonated)
CC[NH2+]CCCOCCOCCNc1c2c([n+](CC)c3ccccc13)CCCC2 (3D coordinates assigned)
CC[NH2+]CCCOCCOCCNc1c2c([n+](CC)c3ccccc13)CCCC2 (nonaromatic ring conformer: 88.02767175894618 kcal/mol)

>  <smiles>  (23) 
CCNCCCOCCOCCNc1c2c([n+](CC)c3ccccc13)CCCC2

>  <score_type>  (23) 
oracle

>  <origin>  (23) 
adg

>  <m_score__min__energy>  (23) 
-4.46

>  <m_primary>  (23) 
energy

$$$$
23:0
     RDKit          3D

 55 59  0  0  0  0  0  0  0  0999 V2000
   60.7690   28.9840   45.1810 C   0  0  0  0  0  0  0  0  0  0  0  0
   59.8300   28.5720   46.2220 N   0  0  0  0  0  0  0  0  0  0  0  0
   59.6430   29.1340   47.4390 C   0  0  0  0  0  0  0  0  0  0  0  0
   60.4230   30.3140   47.9580 C   0  0  0  0  0  0  0  0  0  0  0  0
   59.8180   30.9640   49.1950 C   0  0  0  0  0  0  0  0  0  0  0  0
   61.0950   30.1450   49.3140 C   0  0  0  0  0  0  0  0  0  0  0  0
   58.6080   28.5600   48.0910 N   0  0  0  0  0  0  0  0  0  0  0  0
   58.1270   27.6320   47.2800 N   0  0  0  0  0  0  0  0  0  0  0  0
   58.8510   27.6480   46.1490 C   0  0  0  0  0  0  0  0  0  0  0  0
   58.4930   26.6160   44.7220 S   0  0  0  0  0  0  0  0  0  0  0  0
   57.7920   27.9600   43.6930 C   0  0  0  0  0  0  0  0  0  0  0  0
   56.9680   28.9720   44.5100 C   0  0  0  0  0  0  0  0  0  0  0  0
   56.8790   30.3400   43.8130 C   0  0  0  0  0  0  0  0  0  0  0  0
   57.9670   31.2260   44.2690 N   0  0  0  0  0  0  0  0  0  0  0  0
   58.0840   32.4190   43.4180 C   0  0  0  0  0  0  0  0  0  0  0  0
   58.5160   33.5790   44.2980 C   0  0  1  0  0  0  0  0  0  0  0  0
   57.4290   34.2320   45.1390 C   0  0  0  0  0  0  0  0  0  0  0  0
   58.2940   33.1210   45.7230 C   0  0  2  0  0  0  0  0  0  0  0  0
   59.3870   33.4910   46.6920 C   0  0  0  0  0  0  0  0  0  0  0  0
   59.0630   34.0960   47.9150 C   0  0  0  0  0  0  0  0  0  0  0  0
   60.0710   34.4230   48.8250 C   0  0  0  0  0  0  0  0  0  0  0  0
   61.4050   34.1270   48.5340 C   0  0  0  0  0  0  0  0  0  0  0  0
   61.7440   33.4730   47.3360 C   0  0  0  0  0  0  0  0  0  0  0  0
   63.1870   33.1850   47.0060 C   0  0  0  0  0  0  0  0  0  0  0  0
   63.5780   33.8830   45.8760 F   0  0  0  0  0  0  0  0  0  0  0  0
   63.3720   31.8330   46.7640 F   0  0  0  0  0  0  0  0  0  0  0  0
   63.9850   33.5670   48.0700 F   0  0  0  0  0  0  0  0  0  0  0  0
   60.7270   33.1730   46.4110 C   0  0  0  0  0  0  0  0  0  0  0  0
   57.7820   31.6920   45.6520 C   0  0  0  0  0  0  0  0  0  0  0  0
   61.6812   29.3842   45.6476 H   0  0  0  0  0  0  0  0  0  0  0  0
   61.0272   28.1165   44.5559 H   0  0  0  0  0  0  0  0  0  0  0  0
   60.3055   29.7614   44.5559 H   0  0  0  0  0  0  0  0  0  0  0  0
   60.7675   30.6538   46.9701 H   0  0  0  0  0  0  0  0  0  0  0  0
   59.8525   32.0569   49.3145 H   0  0  0  0  0  0  0  0  0  0  0  0
   58.8317   30.9418   49.6816 H   0  0  0  0  0  0  0  0  0  0  0  0
   62.0525   30.6460   49.5195 H   0  0  0  0  0  0  0  0  0  0  0  0
   61.4140   29.2857   49.9222 H   0  0  0  0  0  0  0  0  0  0  0  0
   57.3060   27.0230   47.4940 H   0  0  0  0  0  0  0  0  0  0  0  0
   58.6190   28.4948   43.2031 H   0  0  0  0  0  0  0  0  0  0  0  0
   57.1141   27.4963   42.9612 H   0  0  0  0  0  0  0  0  0  0  0  0
   55.9509   28.5753   44.6445 H   0  0  0  0  0  0  0  0  0  0  0  0
   57.4705   29.1162   45.4778 H   0  0  0  0  0  0  0  0  0  0  0  0
   56.9604   30.1977   42.7253 H   0  0  0  0  0  0  0  0  0  0  0  0
   55.9141   30.8044   44.0645 H   0  0  0  0  0  0  0  0  0  0  0  0
   58.8345   32.2458   42.6327 H   0  0  0  0  0  0  0  0  0  0  0  0
   57.1209   32.6417   42.9356 H   0  0  0  0  0  0  0  0  0  0  0  0
   59.3042   34.0175   43.6684 H   0  0  0  0  0  0  0  0  0  0  0  0
   57.5508   35.2674   45.4897 H   0  0  0  0  0  0  0  0  0  0  0  0
   56.3481   34.4002   45.0232 H   0  0  0  0  0  0  0  0  0  0  0  0
   58.0125   34.3136   48.1582 H   0  0  0  0  0  0  0  0  0  0  0  0
   59.8135   34.9154   49.7743 H   0  0  0  0  0  0  0  0  0  0  0  0
   62.1950   34.4072   49.2463 H   0  0  0  0  0  0  0  0  0  0  0  0
   60.9830   32.6850   45.4590 H   0  0  0  0  0  0  0  0  0  0  0  0
   58.3520   31.0537   46.3431 H   0  0  0  0  0  0  0  0  0  0  0  0
   56.7211   31.6451   45.9387 H   0  0  0  0  0  0  0  0  0  0  0  0
  1  2  1  0
  2  3  1  0
  3  4  1  0
  4  5  1  0
  5  6  1  0
  3  7  2  0
  7  8  1  0
  8  9  2  0
  9 10  1  0
 10 11  1  0
 11 12  1  0
 12 13  1  0
 13 14  1  0
 14 15  1  0
 15 16  1  0
 16 17  1  0
 17 18  1  0
 18 19  1  1
 19 20  2  0
 20 21  1  0
 21 22  2  0
 22 23  1  0
 23 24  1  0
 24 25  1  0
 24 26  1  0
 24 27  1  0
 23 28  2  0
 18 29  1  0
  9  2  1  0
 29 14  1  0
  6  4  1  0
 18 16  1  0
 28 19  1  0
  1 30  1  0
  1 31  1  0
  1 32  1  0
  4 33  1  0
  5 34  1  0
  5 35  1  0
  6 36  1  0
  6 37  1  0
  8 38  1  0
 11 39  1  0
 11 40  1  0
 12 41  1  0
 12 42  1  0
 13 43  1  0
 13 44  1  0
 15 45  1  0
 15 46  1  0
 16 47  1  1
 17 48  1  0
 17 49  1  0
 20 50  1  0
 21 51  1  0
 22 52  1  0
 28 53  1  0
 29 54  1  0
 29 55  1  0
M  CHG  1   8   1
M  END
>  <UniqueID>  (24) 
24

>  <SMILES>  (24) 
Cn1c(C2CC2)n[nH+]c1SCCCN1C[C@H]2C[C@@]2(c2cccc(C(F)(F)F)c2)C1

>  <Energy>  (24) 
623.8231859302037

>  <Genealogy>  (24) 
Cn1c(C2CC2)n[nH+]c1SCCCN1CC2CC2(c2cccc(C(F)(F)F)c2)C1 (protonated)
Cn1c(C2CC2)n[nH+]c1SCCCN1C[C@H]2C[C@@]2(c2cccc(C(F)(F)F)c2)C1 (chirality)
Cn1c(C2CC2)n[nH+]c1SCCCN1C[C@H]2C[C@@]2(c2cccc(C(F)(F)F)c2)C1 (3D coordinates assigned)
Cn1c(C2CC2)n[nH+]c1SCCCN1C[C@H]2C[C@@]2(c2cccc(C(F)(F)F)c2)C1 (nonaromatic ring conformer: 623.8231859302037 kcal/mol)

>  <smiles>  (24) 
Cn1c(SCCCN2CC3CC3(c3cccc(C(F)(F)F)c3)C2)nnc1C1CC1

>  <score_type>  (24) 
oracle

>  <origin>  (24) 
adg

>  <m_score__min__energy>  (24) 
-7.1299999999999999

>  <m_primary>  (24) 
energy

$$$$
24:0
     RDKit          3D

 53 56  0  0  0  0  0  0  0  0999 V2000
   63.9630   33.0870   48.2600 C   0  0  0  0  0  0  0  0  0  0  0  0
   62.8580   33.1570   47.2080 C   0  0  0  0  0  0  0  0  0  0  0  0
   61.5360   32.9690   47.8230 N   0  0  0  0  0  0  0  0  0  0  0  0
   61.0720   34.2170   48.4460 C   0  0  0  0  0  0  0  0  0  0  0  0
   59.6490   34.5590   47.9850 C   0  0  0  0  0  0  0  0  0  0  0  0
   59.6340   35.0170   46.5210 C   0  0  0  0  0  0  0  0  0  0  0  0
   59.0090   33.9670   45.5940 C   0  0  0  0  0  0  0  0  0  0  0  0
   58.2300   32.9870   46.3550 N   0  0  0  0  0  0  0  0  0  0  0  0
   58.4140   31.5710   46.1920 C   0  0  0  0  0  0  0  0  0  0  0  0
   57.8830   30.8440   45.0990 C   0  0  0  0  0  0  0  0  0  0  0  0
   57.2240   31.5020   44.0430 C   0  0  0  0  0  0  0  0  0  0  0  0
   56.6440   30.7760   43.0050 C   0  0  0  0  0  0  0  0  0  0  0  0
   56.7100   29.3870   43.0000 C   0  0  0  0  0  0  0  0  0  0  0  0
   57.3990   28.7100   44.0070 C   0  0  0  0  0  0  0  0  0  0  0  0
   58.0430   29.4150   45.0510 C   0  0  0  0  0  0  0  0  0  0  0  0
   58.8020   28.7620   46.0150 N   0  0  0  0  0  0  0  0  0  0  0  0
   59.2080   27.3540   45.8650 C   0  0  0  0  0  0  0  0  0  0  0  0
   59.2420   29.4920   47.0890 C   0  0  0  0  0  0  0  0  0  0  0  0
   59.0940   30.8570   47.1660 C   0  0  0  0  0  0  0  0  0  0  0  0
   59.6260   31.3390   48.2690 O   0  0  0  0  0  0  0  0  0  0  0  0
   60.1000   30.3140   48.9420 C   0  0  0  0  0  0  0  0  0  0  0  0
   60.7170   30.3510   50.1900 C   0  0  0  0  0  0  0  0  0  0  0  0
   61.0950   29.1320   50.7760 C   0  0  0  0  0  0  0  0  0  0  0  0
   60.8360   27.9120   50.1190 C   0  0  0  0  0  0  0  0  0  0  0  0
   60.2120   27.8960   48.8570 C   0  0  0  0  0  0  0  0  0  0  0  0
   59.8830   29.1240   48.2700 C   0  0  0  0  0  0  0  0  0  0  0  0
   63.5154   33.1154   49.2644 H   0  0  0  0  0  0  0  0  0  0  0  0
   64.5280   32.1513   48.1366 H   0  0  0  0  0  0  0  0  0  0  0  0
   64.6415   33.9440   48.1366 H   0  0  0  0  0  0  0  0  0  0  0  0
   62.8901   34.1407   46.7167 H   0  0  0  0  0  0  0  0  0  0  0  0
   63.0211   32.3551   46.4729 H   0  0  0  0  0  0  0  0  0  0  0  0
   60.8520   32.6760   47.0850 H   0  0  0  0  0  0  0  0  0  0  0  0
   61.5990   32.2210   48.5550 H   0  0  0  0  0  0  0  0  0  0  0  0
   61.0782   34.0983   49.5396 H   0  0  0  0  0  0  0  0  0  0  0  0
   61.7459   35.0330   48.1459 H   0  0  0  0  0  0  0  0  0  0  0  0
   59.0144   33.6664   48.0880 H   0  0  0  0  0  0  0  0  0  0  0  0
   59.2687   35.3802   48.6103 H   0  0  0  0  0  0  0  0  0  0  0  0
   59.0519   35.9474   46.4464 H   0  0  0  0  0  0  0  0  0  0  0  0
   60.6759   35.1714   46.2038 H   0  0  0  0  0  0  0  0  0  0  0  0
   58.3470   34.4715   44.8748 H   0  0  0  0  0  0  0  0  0  0  0  0
   59.8186   33.4381   45.0699 H   0  0  0  0  0  0  0  0  0  0  0  0
   57.3350   33.3150   46.7830 H   0  0  0  0  0  0  0  0  0  0  0  0
   57.1665   32.6005   44.0375 H   0  0  0  0  0  0  0  0  0  0  0  0
   56.1321   31.3033   42.1866 H   0  0  0  0  0  0  0  0  0  0  0  0
   56.2164   28.8188   42.1978 H   0  0  0  0  0  0  0  0  0  0  0  0
   57.4421   27.6110   43.9889 H   0  0  0  0  0  0  0  0  0  0  0  0
   59.3383   26.9021   46.8594 H   0  0  0  0  0  0  0  0  0  0  0  0
   58.4314   26.8054   45.3118 H   0  0  0  0  0  0  0  0  0  0  0  0
   60.1574   27.3031   45.3118 H   0  0  0  0  0  0  0  0  0  0  0  0
   60.9028   31.3069   50.7017 H   0  0  0  0  0  0  0  0  0  0  0  0
   61.5969   29.1292   51.7548 H   0  0  0  0  0  0  0  0  0  0  0  0
   61.1240   26.9639   50.5966 H   0  0  0  0  0  0  0  0  0  0  0  0
   59.9895   26.9470   48.3472 H   0  0  0  0  0  0  0  0  0  0  0  0
  1  2  1  0
  2  3  1  0
  3  4  1  0
  4  5  1  0
  5  6  1  0
  6  7  1  0
  7  8  1  0
  8  9  1  0
  9 10  2  0
 10 11  1  0
 11 12  2  0
 12 13  1  0
 13 14  2  0
 14 15  1  0
 15 16  2  0
 16 17  1  0
 16 18  1  0
 18 19  2  0
 19 20  1  0
 20 21  1  0
 21 22  2  0
 22 23  1  0
 23 24  2  0
 24 25  1  0
 25 26  2  0
 19  9  1  0
 26 21  1  0
 15 10  1  0
 26 18  1  0
  1 27  1  0
  1 28  1  0
  1 29  1  0
  2 30  1  0
  2 31  1  0
  3 32  1  0
  3 33  1  0
  4 34  1  0
  4 35  1  0
  5 36  1  0
  5 37  1  0
  6 38  1  0
  6 39  1  0
  7 40  1  0
  7 41  1  0
  8 42  1  0
 11 43  1  0
 12 44  1  0
 13 45  1  0
 14 46  1  0
 17 47  1  0
 17 48  1  0
 17 49  1  0
 22 50  1  0
 23 51  1  0
 24 52  1  0
 25 53  1  0
M  CHG  2   3   1  16   1
M  END
>  <UniqueID>  (25) 
25

>  <SMILES>  (25) 
CC[NH2+]CCCCNc1c2ccccc2[n+](C)c2c1oc1ccccc12

>  <Energy>  (25) 
107.7569508522898

>  <Genealogy>  (25) 
CC[NH2+]CCCCNc1c2ccccc2[n+](C)c2c1oc1ccccc12 (protonated)
CC[NH2+]CCCCNc1c2ccccc2[n+](C)c2c1oc1ccccc12 (3D coordinates assigned)
CC[NH2+]CCCCNc1c2ccccc2[n+](C)c2c1oc1ccccc12 (optimized conformer: 107.7569508522898 kcal/mol)

>  <smiles>  (25) 
CCNCCCCNc1c2ccccc2[n+](C)c2c1oc1ccccc12

>  <score_type>  (25) 
oracle

>  <origin>  (25) 
adg

>  <m_score__min__energy>  (25) 
-4.6600000000000001

>  <m_primary>  (25) 
energy

$$$$
25:0
     RDKit          3D

 50 52  0  0  0  0  0  0  0  0999 V2000
   57.2810   27.3380   45.8570 C   0  0  0  0  0  0  0  0  0  0  0  0
   58.6740   27.0420   45.3120 C   0  0  0  0  0  0  0  0  0  0  0  0
   59.4800   26.1810   46.2890 C   0  0  0  0  0  0  0  0  0  0  0  0
   60.6330   26.9370   46.7920 N   0  0  0  0  0  0  0  0  0  0  0  0
   60.7780   26.7310   48.2410 C   0  0  0  0  0  0  0  0  0  0  0  0
   60.0160   27.7930   49.0490 C   0  0  0  0  0  0  0  0  0  0  0  0
   60.2640   29.2560   48.6170 C   0  0  0  0  0  0  0  0  0  0  0  0
   60.3870   29.4330   47.1490 N   0  0  0  0  0  0  0  0  0  0  0  0
   60.3560   30.8380   46.7490 C   0  0  0  0  0  0  0  0  0  0  0  0
   61.4080   31.7160   47.1200 C   0  0  0  0  0  0  0  0  0  0  0  0
   62.6550   31.2250   47.5750 C   0  0  0  0  0  0  0  0  0  0  0  0
   63.6830   32.0950   47.9280 C   0  0  0  0  0  0  0  0  0  0  0  0
   63.5010   33.4680   47.8240 C   0  0  0  0  0  0  0  0  0  0  0  0
   62.2830   33.9790   47.3810 C   0  0  0  0  0  0  0  0  0  0  0  0
   61.2080   33.1200   47.0400 C   0  0  0  0  0  0  0  0  0  0  0  0
   59.9890   33.6190   46.6360 N   0  0  0  0  0  0  0  0  0  0  0  0
   59.6470   35.0370   46.8920 C   0  0  0  0  0  0  0  0  0  0  0  0
   59.0970   32.7980   45.9790 C   0  0  0  0  0  0  0  0  0  0  0  0
   58.0050   33.3340   45.2510 C   0  0  0  0  0  0  0  0  0  0  0  0
   57.1120   32.5070   44.5780 C   0  0  0  0  0  0  0  0  0  0  0  0
   57.3000   31.1320   44.5790 C   0  0  0  0  0  0  0  0  0  0  0  0
   56.1990   30.1000   43.6820 Cl  0  0  0  0  0  0  0  0  0  0  0  0
   58.3770   30.5730   45.2650 C   0  0  0  0  0  0  0  0  0  0  0  0
   59.2750   31.3840   46.0030 C   0  0  0  0  0  0  0  0  0  0  0  0
   57.3086   27.3321   46.9566 H   0  0  0  0  0  0  0  0  0  0  0  0
   56.9514   28.3262   45.5038 H   0  0  0  0  0  0  0  0  0  0  0  0
   56.5781   26.5692   45.5038 H   0  0  0  0  0  0  0  0  0  0  0  0
   58.5788   26.5062   44.3560 H   0  0  0  0  0  0  0  0  0  0  0  0
   59.2027   27.9963   45.1711 H   0  0  0  0  0  0  0  0  0  0  0  0
   58.8380   25.8910   47.1339 H   0  0  0  0  0  0  0  0  0  0  0  0
   59.8383   25.2818   45.7665 H   0  0  0  0  0  0  0  0  0  0  0  0
   61.4790   26.5470   46.3190 H   0  0  0  0  0  0  0  0  0  0  0  0
   60.3848   25.7369   48.5001 H   0  0  0  0  0  0  0  0  0  0  0  0
   61.8459   26.8124   48.4921 H   0  0  0  0  0  0  0  0  0  0  0  0
   58.9399   27.5874   48.9504 H   0  0  0  0  0  0  0  0  0  0  0  0
   60.3874   27.7138   50.0814 H   0  0  0  0  0  0  0  0  0  0  0  0
   59.4228   29.8698   48.9713 H   0  0  0  0  0  0  0  0  0  0  0  0
   61.2236   29.5628   49.0587 H   0  0  0  0  0  0  0  0  0  0  0  0
   61.2860   29.0140   46.8160 H   0  0  0  0  0  0  0  0  0  0  0  0
   59.6510   28.8550   46.7010 H   0  0  0  0  0  0  0  0  0  0  0  0
   62.8144   30.1393   47.6509 H   0  0  0  0  0  0  0  0  0  0  0  0
   64.6413   31.6942   48.2900 H   0  0  0  0  0  0  0  0  0  0  0  0
   64.3193   34.1526   48.0917 H   0  0  0  0  0  0  0  0  0  0  0  0
   62.1532   35.0679   47.2943 H   0  0  0  0  0  0  0  0  0  0  0  0
   59.6044   35.2138   47.9769 H   0  0  0  0  0  0  0  0  0  0  0  0
   60.4144   35.6858   46.4446 H   0  0  0  0  0  0  0  0  0  0  0  0
   58.6682   35.2646   46.4446 H   0  0  0  0  0  0  0  0  0  0  0  0
   57.8613   34.4241   45.2178 H   0  0  0  0  0  0  0  0  0  0  0  0
   56.2551   32.9436   44.0440 H   0  0  0  0  0  0  0  0  0  0  0  0
   58.5325   29.4845   45.2331 H   0  0  0  0  0  0  0  0  0  0  0  0
  1  2  1  0
  2  3  1  0
  3  4  1  0
  4  5  1  0
  5  6  1  0
  6  7  1  0
  7  8  1  0
  8  9  1  0
  9 10  2  0
 10 11  1  0
 11 12  2  0
 12 13  1  0
 13 14  2  0
 14 15  1  0
 15 16  2  0
 16 17  1  0
 16 18  1  0
 18 19  2  0
 19 20  1  0
 20 21  2  0
 21 22  1  0
 21 23  1  0
 23 24  2  0
 24  9  1  0
 15 10  1  0
 24 18  1  0
  1 25  1  0
  1 26  1  0
  1 27  1  0
  2 28  1  0
  2 29  1  0
  3 30  1  0
  3 31  1  0
  4 32  1  0
  5 33  1  0
  5 34  1  0
  6 35  1  0
  6 36  1  0
  7 37  1  0
  7 38  1  0
  8 39  1  0
  8 40  1  0
 11 41  1  0
 12 42  1  0
 13 43  1  0
 14 44  1  0
 17 45  1  0
 17 46  1  0
 17 47  1  0
 19 48  1  0
 20 49  1  0
 23 50  1  0
M  CHG  2   8   1  16   1
M  END
>  <UniqueID>  (26) 
26

>  <SMILES>  (26) 
CCCNCCC[NH2+]c1c2ccccc2[n+](C)c2ccc(Cl)cc12

>  <Energy>  (26) 
73.20133698849463

>  <Genealogy>  (26) 
CCCNCCC[NH2+]c1c2ccccc2[n+](C)c2ccc(Cl)cc12 (protonated)
CCCNCCC[NH2+]c1c2ccccc2[n+](C)c2ccc(Cl)cc12 (3D coordinates assigned)
CCCNCCC[NH2+]c1c2ccccc2[n+](C)c2ccc(Cl)cc12 (optimized conformer: 73.20133698849463 kcal/mol)

>  <smiles>  (26) 
CCCNCCCNc1c2ccccc2[n+](C)c2ccc(Cl)cc12

>  <score_type>  (26) 
oracle

>  <origin>  (26) 
adg

>  <m_score__min__energy>  (26) 
-4.5499999999999998

>  <m_primary>  (26) 
energy

$$$$
26:0
     RDKit          3D

 58 60  0  0  0  0  0  0  0  0999 V2000
   63.5580   32.3660   47.9640 C   0  0  0  0  0  0  0  0  0  0  0  0
   62.3110   32.3380   48.8680 C   0  0  0  0  0  0  0  0  0  0  0  0
   61.1240   33.0840   48.3390 N   0  0  0  0  0  0  0  0  0  0  0  0
   60.8280   34.2350   49.2370 C   0  0  0  0  0  0  0  0  0  0  0  0
   59.9710   32.1340   48.3560 C   0  0  0  0  0  0  0  0  0  0  0  0
   58.6690   32.7350   47.7760 C   0  0  0  0  0  0  0  0  0  0  0  0
   58.9390   33.8150   46.8090 N   0  0  0  0  0  0  0  0  0  0  0  0
   57.7510   34.2220   46.0200 C   0  0  0  0  0  0  0  0  0  0  0  0
   57.0450   33.0870   45.2460 C   0  0  0  0  0  0  0  0  0  0  0  0
   57.9740   31.9910   44.9470 N   0  0  0  0  0  0  0  0  0  0  0  0
   57.2910   30.6980   44.8010 C   0  0  0  0  0  0  0  0  0  0  0  0
   58.2510   29.5670   44.3910 C   0  0  0  0  0  0  0  0  0  0  0  0
   58.7560   28.8680   45.5820 N   0  0  0  0  0  0  0  0  0  0  0  0
   59.8500   29.4430   46.3300 C   0  0  0  0  0  0  0  0  0  0  0  0
   60.3490   30.5510   45.9920 O   0  0  0  0  0  0  0  0  0  0  0  0
   60.3650   28.7540   47.5600 C   0  0  0  0  0  0  0  0  0  0  0  0
   60.2780   27.2360   47.3960 C   0  0  0  0  0  0  0  0  0  0  0  0
   58.8980   26.8180   46.9590 C   0  0  0  0  0  0  0  0  0  0  0  0
   58.3630   25.5990   47.4010 C   0  0  0  0  0  0  0  0  0  0  0  0
   57.1000   25.1880   46.9710 C   0  0  0  0  0  0  0  0  0  0  0  0
   56.3690   25.9850   46.0900 C   0  0  0  0  0  0  0  0  0  0  0  0
   56.8990   27.1920   45.6280 C   0  0  0  0  0  0  0  0  0  0  0  0
   58.1780   27.6190   46.0440 C   0  0  0  0  0  0  0  0  0  0  0  0
   60.1530   33.5690   46.0200 C   0  0  0  0  0  0  0  0  0  0  0  0
   61.3940   33.5560   46.9380 C   0  0  0  0  0  0  0  0  0  0  0  0
   64.4633   32.3863   48.5886 H   0  0  0  0  0  0  0  0  0  0  0  0
   63.5708   31.4679   47.3290 H   0  0  0  0  0  0  0  0  0  0  0  0
   63.5304   33.2638   47.3290 H   0  0  0  0  0  0  0  0  0  0  0  0
   62.0172   31.2876   49.0105 H   0  0  0  0  0  0  0  0  0  0  0  0
   62.5987   32.8436   49.8016 H   0  0  0  0  0  0  0  0  0  0  0  0
   60.9109   33.9128   50.2855 H   0  0  0  0  0  0  0  0  0  0  0  0
   61.5471   35.0448   49.0443 H   0  0  0  0  0  0  0  0  0  0  0  0
   59.8074   34.5974   49.0443 H   0  0  0  0  0  0  0  0  0  0  0  0
   60.2406   31.2483   47.7620 H   0  0  0  0  0  0  0  0  0  0  0  0
   59.7720   31.8849   49.4088 H   0  0  0  0  0  0  0  0  0  0  0  0
   58.1055   31.9378   47.2691 H   0  0  0  0  0  0  0  0  0  0  0  0
   58.0929   33.1631   48.6096 H   0  0  0  0  0  0  0  0  0  0  0  0
   57.0202   34.6654   46.7124 H   0  0  0  0  0  0  0  0  0  0  0  0
   58.1212   34.9225   45.2570 H   0  0  0  0  0  0  0  0  0  0  0  0
   56.2160   32.6985   45.8558 H   0  0  0  0  0  0  0  0  0  0  0  0
   56.6695   33.4945   44.2957 H   0  0  0  0  0  0  0  0  0  0  0  0
   58.6850   31.9250   45.7140 H   0  0  0  0  0  0  0  0  0  0  0  0
   56.8255   30.4345   45.7622 H   0  0  0  0  0  0  0  0  0  0  0  0
   56.5406   30.8047   44.0038 H   0  0  0  0  0  0  0  0  0  0  0  0
   57.7154   28.8511   43.7502 H   0  0  0  0  0  0  0  0  0  0  0  0
   59.1011   30.0006   43.8439 H   0  0  0  0  0  0  0  0  0  0  0  0
   61.4140   29.0414   47.7242 H   0  0  0  0  0  0  0  0  0  0  0  0
   59.7514   29.0558   48.4217 H   0  0  0  0  0  0  0  0  0  0  0  0
   61.0080   26.9136   46.6390 H   0  0  0  0  0  0  0  0  0  0  0  0
   60.4956   26.7658   48.3663 H   0  0  0  0  0  0  0  0  0  0  0  0
   58.9408   24.9645   48.0891 H   0  0  0  0  0  0  0  0  0  0  0  0
   56.6811   24.2352   47.3271 H   0  0  0  0  0  0  0  0  0  0  0  0
   55.3714   25.6618   45.7578 H   0  0  0  0  0  0  0  0  0  0  0  0
   56.3147   27.8146   44.9344 H   0  0  0  0  0  0  0  0  0  0  0  0
   60.0659   32.5964   45.5135 H   0  0  0  0  0  0  0  0  0  0  0  0
   60.2658   34.3718   45.2765 H   0  0  0  0  0  0  0  0  0  0  0  0
   62.1467   32.8908   46.4898 H   0  0  0  0  0  0  0  0  0  0  0  0
   61.7366   34.5982   47.0180 H   0  0  0  0  0  0  0  0  0  0  0  0
  1  2  1  0
  2  3  1  0
  3  4  1  0
  3  5  1  0
  5  6  1  0
  6  7  1  0
  7  8  1  0
  8  9  1  0
  9 10  1  0
 10 11  1  0
 11 12  1  0
 12 13  1  0
 13 14  1  0
 14 15  2  0
 14 16  1  0
 16 17  1  0
 17 18  1  0
 18 19  2  0
 19 20  1  0
 20 21  2  0
 21 22  1  0
 22 23  2  0
  7 24  1  0
 24 25  1  0
 25  3  1  0
 23 13  1  0
 23 18  1  0
  1 26  1  0
  1 27  1  0
  1 28  1  0
  2 29  1  0
  2 30  1  0
  4 31  1  0
  4 32  1  0
  4 33  1  0
  5 34  1  0
  5 35  1  0
  6 36  1  0
  6 37  1  0
  8 38  1  0
  8 39  1  0
  9 40  1  0
  9 41  1  0
 10 42  1  0
 11 43  1  0
 11 44  1  0
 12 45  1  0
 12 46  1  0
 16 47  1  0
 16 48  1  0
 17 49  1  0
 17 50  1  0
 19 51  1  0
 20 52  1  0
 21 53  1  0
 22 54  1  0
 24 55  1  0
 24 56  1  0
 25 57  1  0
 25 58  1  0
M  CHG  1   3   1
M  END
>  <UniqueID>  (27) 
27

>  <SMILES>  (27) 
CC[N+]1(C)CCN(CCNCCN2C(=O)CCc3ccccc32)CC1

>  <Energy>  (27) 
80.59818803005966

>  <Genealogy>  (27) 
CC[N+]1(C)CCN(CCNCCN2C(=O)CCc3ccccc32)CC1 (3D coordinates assigned)
CC[N+]1(C)CCN(CCNCCN2C(=O)CCc3ccccc32)CC1 (nonaromatic ring conformer: 80.59818803005966 kcal/mol)

>  <smiles>  (27) 
CC[N+]1(C)CCN(CCNCCN2C(=O)CCc3ccccc32)CC1

>  <score_type>  (27) 
oracle

>  <origin>  (27) 
adg

>  <m_score__min__energy>  (27) 
-6.2400000000000002

>  <m_primary>  (27) 
energy

$$$$
