0:0
     RDKit          3D

 44 47  0  0  0  0  0  0  0  0999 V2000
   57.9641   33.7728   43.1124 H   0  0  0  0  0  0  0  0  0  0  0  0
   57.9460   32.7750   43.5750 C   0  0  0  0  0  0  0  0  0  0  0  0
   57.3370   31.7090   42.9090 C   0  0  0  0  0  0  0  0  0  0  0  0
   56.8726   31.8748   41.9257 H   0  0  0  0  0  0  0  0  0  0  0  0
   57.3120   30.4270   43.4830 C   0  0  0  0  0  0  0  0  0  0  0  0
   56.6660   29.3010   42.7200 C   0  0  0  0  0  0  0  0  0  0  0  0
   56.2472   28.5710   43.4283 H   0  0  0  0  0  0  0  0  0  0  0  0
   55.8604   29.7017   42.0872 H   0  0  0  0  0  0  0  0  0  0  0  0
   57.4185   28.8078   42.0872 H   0  0  0  0  0  0  0  0  0  0  0  0
   57.8790   30.2330   44.7700 C   0  0  0  0  0  0  0  0  0  0  0  0
   57.8430   28.9200   45.4530 C   0  0  0  0  0  0  0  0  0  0  0  0
   58.9510   28.4850   46.1970 C   0  0  0  0  0  0  0  0  0  0  0  0
   59.8463   29.1204   46.2652 H   0  0  0  0  0  0  0  0  0  0  0  0
   58.9250   27.2500   46.8520 C   0  0  0  0  0  0  0  0  0  0  0  0
   59.8011   26.9153   47.4268 H   0  0  0  0  0  0  0  0  0  0  0  0
   57.7850   26.4370   46.7780 C   0  0  0  0  0  0  0  0  0  0  0  0
   57.7440   25.1970   47.4280 C   0  0  0  0  0  0  0  0  0  0  0  0
   58.6101   24.8483   48.0096 H   0  0  0  0  0  0  0  0  0  0  0  0
   56.5940   24.4040   47.3330 C   0  0  0  0  0  0  0  0  0  0  0  0
   56.5570   23.2600   47.9500 N   0  0  0  0  0  0  0  0  0  0  0  0
   57.0120   22.0020   47.4270 C   0  0  0  0  0  0  0  0  0  0  0  0
   57.3770   21.1100   48.2370 O   0  0  0  0  0  0  0  0  0  0  0  0
   57.1480   21.7650   45.9710 C   0  0  0  0  0  0  0  0  0  0  0  0
   57.3370   22.7440   45.0080 C   0  0  0  0  0  0  0  0  0  0  0  0
   57.3771   23.8330   45.1577 H   0  0  0  0  0  0  0  0  0  0  0  0
   57.4640   22.0520   43.8190 C   0  0  0  0  0  0  0  0  0  0  0  0
   57.6229   22.5055   42.8295 H   0  0  0  0  0  0  0  0  0  0  0  0
   57.3620   20.7350   44.0670 N   0  0  0  0  0  0  0  0  0  0  0  0
   57.4270   19.9700   43.3590 H   0  0  0  0  0  0  0  0  0  0  0  0
   57.1690   20.5570   45.3650 N   0  0  0  0  0  0  0  0  0  0  0  0
   57.0280   19.2460   45.9920 C   0  0  0  0  0  0  0  0  0  0  0  0
   57.0402   19.3596   47.0861 H   0  0  0  0  0  0  0  0  0  0  0  0
   56.0758   18.7914   45.6812 H   0  0  0  0  0  0  0  0  0  0  0  0
   57.8618   18.5993   45.6812 H   0  0  0  0  0  0  0  0  0  0  0  0
   55.5190   24.8590   46.6260 N   0  0  0  0  0  0  0  0  0  0  0  0
   55.5280   26.0570   45.9860 C   0  0  0  0  0  0  0  0  0  0  0  0
   54.6420   26.3845   45.4223 H   0  0  0  0  0  0  0  0  0  0  0  0
   56.6620   26.8760   46.0420 C   0  0  0  0  0  0  0  0  0  0  0  0
   56.6940   28.1150   45.3880 C   0  0  0  0  0  0  0  0  0  0  0  0
   55.8158   28.4584   44.8216 H   0  0  0  0  0  0  0  0  0  0  0  0
   58.4980   31.3130   45.4200 C   0  0  0  0  0  0  0  0  0  0  0  0
   58.9611   31.1626   46.4064 H   0  0  0  0  0  0  0  0  0  0  0  0
   58.5310   32.5770   44.8250 C   0  0  0  0  0  0  0  0  0  0  0  0
   59.1240   33.6130   45.4690 F   0  0  0  0  0  0  0  0  0  0  0  0
  1  2  1  0
  2  3  2  0
  3  4  1  0
  3  5  1  0
  5  6  1  0
  6  7  1  0
  6  8  1  0
  6  9  1  0
  5 10  2  0
 10 11  1  0
 11 12  1  0
 12 13  1  0
 12 14  2  0
 14 15  1  0
 14 16  1  0
 16 17  2  0
 17 18  1  0
 17 19  1  0
 19 20  2  0
 20 21  1  0
 21 22  2  0
 21 23  1  0
 23 24  2  0
 24 25  1  0
 24 26  1  0
 26 27  1  0
 26 28  2  0
 28 29  1  0
 28 30  1  0
 30 31  1  0
 31 32  1  0
 31 33  1  0
 31 34  1  0
 19 35  1  0
 35 36  1  0
 36 37  1  0
 36 38  2  0
 38 39  1  0
 39 40  1  0
 10 41  1  0
 41 42  1  0
 41 43  2  0
 43 44  1  0
 43  2  1  0
 39 11  2  0
 38 16  1  0
 30 23  1  0
M  CHG  2  28   1  35  -1
M  END
>  <UniqueID>  (1) 
1

>  <SMILES>  (1) 
Cc1ccc(F)cc1-c1ccc2c/c(=N/C(=O)c3cc[nH+]n3C)[n-]cc2c1

>  <Energy>  (1) 
96.39624673803941

>  <Genealogy>  (1) 
Cc1ccc(F)cc1-c1ccc2cc(=NC(=O)c3cc[nH+]n3C)[n-]cc2c1 (protonated)
Cc1ccc(F)cc1-c1ccc2c/c(=N/C(=O)c3cc[nH+]n3C)[n-]cc2c1 (cis-trans isomerization)
Cc1ccc(F)cc1-c1ccc2c/c(=N/C(=O)c3cc[nH+]n3C)[n-]cc2c1 (3D coordinates assigned)
Cc1ccc(F)cc1-c1ccc2c/c(=N/C(=O)c3cc[nH+]n3C)[n-]cc2c1 (optimized conformer: 96.39624673803941 kcal/mol)

>  <smiles>  (1) 
Cc1ccc(F)cc1-c1ccc2cc(=NC(=O)c3ccnn3C)[nH]cc2c1

>  <score_type>  (1) 
oracle

>  <origin>  (1) 
adg

>  <m_score__min__energy>  (1) 
-9.3699999999999992

>  <m_primary>  (1) 
energy

$$$$
1:0
     RDKit          3D

 50 53  0  0  0  0  0  0  0  0999 V2000
   56.9780   28.4400   45.1720 C   0  0  0  0  0  0  0  0  0  0  0  0
   57.3490   29.7560   44.8790 C   0  0  0  0  0  0  0  0  0  0  0  0
   58.3000   30.4080   45.6690 C   0  0  0  0  0  0  0  0  0  0  0  0
   58.8790   29.7520   46.7680 C   0  0  0  0  0  0  0  0  0  0  0  0
   59.9000   30.4400   47.5860 C   0  0  0  0  0  0  0  0  0  0  0  0
   61.2490   30.5240   47.2590 C   0  0  0  0  0  0  0  0  0  0  0  0
   61.8650   31.2290   48.2820 C   0  0  0  0  0  0  0  0  0  0  0  0
   63.3170   31.6240   48.3350 C   0  0  0  0  0  0  0  0  0  0  0  0
   63.7140   32.4190   47.1600 N   0  0  0  0  0  0  0  0  0  0  0  0
   63.2740   33.8230   47.2670 C   0  0  0  0  0  0  0  0  0  0  0  0
   62.0220   34.0940   46.4050 C   0  0  0  0  0  0  0  0  0  0  0  0
   60.7790   34.4650   47.2310 C   0  0  0  0  0  0  0  0  0  0  0  0
   59.4950   34.0820   46.5430 C   0  0  0  0  0  0  0  0  0  0  0  0
   59.4200   34.0420   45.1420 C   0  0  0  0  0  0  0  0  0  0  0  0
   58.2090   33.7200   44.5260 C   0  0  0  0  0  0  0  0  0  0  0  0
   57.1110   33.4480   45.2800 N   0  0  0  0  0  0  0  0  0  0  0  0
   57.1540   33.4800   46.6390 C   0  0  0  0  0  0  0  0  0  0  0  0
   58.3450   33.8000   47.2950 C   0  0  0  0  0  0  0  0  0  0  0  0
   60.8670   31.5650   49.1770 C   0  0  0  0  0  0  0  0  0  0  0  0
   60.9650   32.3110   50.3540 C   0  0  0  0  0  0  0  0  0  0  0  0
   59.7870   32.5560   51.0740 C   0  0  0  0  0  0  0  0  0  0  0  0
   58.5550   32.0700   50.6030 C   0  0  0  0  0  0  0  0  0  0  0  0
   58.5130   31.3300   49.4140 C   0  0  0  0  0  0  0  0  0  0  0  0
   59.6790   31.0860   48.7540 N   0  0  0  0  0  0  0  0  0  0  0  0
   58.5150   28.4230   47.0440 C   0  0  0  0  0  0  0  0  0  0  0  0
   57.5630   27.7730   46.2510 C   0  0  0  0  0  0  0  0  0  0  0  0
   56.2254   27.9299   44.5528 H   0  0  0  0  0  0  0  0  0  0  0  0
   56.8919   30.2787   44.0258 H   0  0  0  0  0  0  0  0  0  0  0  0
   58.5965   31.4398   45.4290 H   0  0  0  0  0  0  0  0  0  0  0  0
   61.7338   30.1110   46.3621 H   0  0  0  0  0  0  0  0  0  0  0  0
   63.4902   32.2205   49.2428 H   0  0  0  0  0  0  0  0  0  0  0  0
   63.9201   30.7041   48.3434 H   0  0  0  0  0  0  0  0  0  0  0  0
   64.7540   32.3830   47.0460 H   0  0  0  0  0  0  0  0  0  0  0  0
   63.2820   31.9750   46.3180 H   0  0  0  0  0  0  0  0  0  0  0  0
   63.0380   34.0439   48.3184 H   0  0  0  0  0  0  0  0  0  0  0  0
   64.0880   34.4672   46.9031 H   0  0  0  0  0  0  0  0  0  0  0  0
   62.2446   34.9241   45.7184 H   0  0  0  0  0  0  0  0  0  0  0  0
   61.7891   33.1618   45.8695 H   0  0  0  0  0  0  0  0  0  0  0  0
   60.8299   33.9442   48.1986 H   0  0  0  0  0  0  0  0  0  0  0  0
   60.7767   35.5574   47.3598 H   0  0  0  0  0  0  0  0  0  0  0  0
   60.3093   34.2628   44.5334 H   0  0  0  0  0  0  0  0  0  0  0  0
   58.1433   33.6864   43.4285 H   0  0  0  0  0  0  0  0  0  0  0  0
   56.2494   33.2535   47.2225 H   0  0  0  0  0  0  0  0  0  0  0  0
   58.3808   33.8306   48.3940 H   0  0  0  0  0  0  0  0  0  0  0  0
   61.9348   32.6938   50.7046 H   0  0  0  0  0  0  0  0  0  0  0  0
   59.8271   33.1307   52.0110 H   0  0  0  0  0  0  0  0  0  0  0  0
   57.6301   32.2693   51.1641 H   0  0  0  0  0  0  0  0  0  0  0  0
   57.5570   30.9535   49.0213 H   0  0  0  0  0  0  0  0  0  0  0  0
   58.9805   27.8915   47.8871 H   0  0  0  0  0  0  0  0  0  0  0  0
   57.2750   26.7358   46.4774 H   0  0  0  0  0  0  0  0  0  0  0  0
  1  2  2  0
  2  3  1  0
  3  4  2  0
  4  5  1  0
  5  6  2  0
  6  7  1  0
  7  8  1  0
  8  9  1  0
  9 10  1  0
 10 11  1  0
 11 12  1  0
 12 13  1  0
 13 14  2  0
 14 15  1  0
 15 16  2  0
 16 17  1  0
 17 18  2  0
  7 19  2  0
 19 20  1  0
 20 21  2  0
 21 22  1  0
 22 23  2  0
 23 24  1  0
  4 25  1  0
 25 26  2  0
 26  1  1  0
 24  5  1  0
 18 13  1  0
 24 19  1  0
  1 27  1  0
  2 28  1  0
  3 29  1  0
  6 30  1  0
  8 31  1  0
  8 32  1  0
  9 33  1  0
  9 34  1  0
 10 35  1  0
 10 36  1  0
 11 37  1  0
 11 38  1  0
 12 39  1  0
 12 40  1  0
 14 41  1  0
 15 42  1  0
 17 43  1  0
 18 44  1  0
 20 45  1  0
 21 46  1  0
 22 47  1  0
 23 48  1  0
 25 49  1  0
 26 50  1  0
M  CHG  1   9   1
M  END
>  <UniqueID>  (2) 
2

>  <SMILES>  (2) 
c1ccc(-c2cc(C[NH2+]CCCc3ccncc3)c3ccccn23)cc1

>  <Energy>  (2) 
88.49222299306481

>  <Genealogy>  (2) 
c1ccc(-c2cc(C[NH2+]CCCc3ccncc3)c3ccccn23)cc1 (protonated)
c1ccc(-c2cc(C[NH2+]CCCc3ccncc3)c3ccccn23)cc1 (3D coordinates assigned)
c1ccc(-c2cc(C[NH2+]CCCc3ccncc3)c3ccccn23)cc1 (optimized conformer: 88.49222299306481 kcal/mol)

>  <smiles>  (2) 
c1ccc(-c2cc(CNCCCc3ccncc3)c3ccccn23)cc1

>  <score_type>  (2) 
oracle

>  <origin>  (2) 
adg

>  <m_score__min__energy>  (2) 
-6.0300000000000002

>  <m_primary>  (2) 
energy

$$$$
2:0
     RDKit          3D

 34 36  0  0  0  0  0  0  0  0999 V2000
   60.7590   29.2770   46.0420 C   0  0  0  0  0  0  0  0  0  0  0  0
   59.5950   28.6490   46.5700 O   0  0  0  0  0  0  0  0  0  0  0  0
   59.0000   27.4930   46.0400 C   0  0  0  0  0  0  0  0  0  0  0  0
   59.4100   26.2100   46.4340 C   0  0  0  0  0  0  0  0  0  0  0  0
   58.8410   25.1130   45.8810 N   0  0  0  0  0  0  0  0  0  0  0  0
   57.8680   25.2140   44.9390 C   0  0  0  0  0  0  0  0  0  0  0  0
   57.2980   24.0150   44.3730 N   0  0  0  0  0  0  0  0  0  0  0  0
   57.8630   22.7080   44.7320 C   0  0  0  0  0  0  0  0  0  0  0  0
   57.6160   21.6970   43.6080 C   0  0  0  0  0  0  0  0  0  0  0  0
   56.2500   21.6770   43.2430 O   0  0  0  0  0  0  0  0  0  0  0  0
   55.8940   22.9210   42.6730 C   0  0  0  0  0  0  0  0  0  0  0  0
   55.9880   24.0440   43.7110 C   0  0  0  0  0  0  0  0  0  0  0  0
   57.4410   26.4510   44.5490 N   0  0  0  0  0  0  0  0  0  0  0  0
   57.9740   27.5940   45.0770 C   0  0  0  0  0  0  0  0  0  0  0  0
   57.4540   28.9060   44.6090 C   0  0  0  0  0  0  0  0  0  0  0  0
   56.1330   29.1960   44.5540 N   0  0  0  0  0  0  0  0  0  0  0  0
   55.8930   30.4650   44.1290 C   0  0  0  0  0  0  0  0  0  0  0  0
   57.0260   31.2170   43.8460 C   0  0  0  0  0  0  0  0  0  0  0  0
   58.3650   30.2480   44.1410 S   0  0  0  0  0  0  0  0  0  0  0  0
   61.3971   29.6213   46.8692 H   0  0  0  0  0  0  0  0  0  0  0  0
   61.3160   28.5570   45.4245 H   0  0  0  0  0  0  0  0  0  0  0  0
   60.4630   30.1378   45.4245 H   0  0  0  0  0  0  0  0  0  0  0  0
   60.1963   26.0953   47.1947 H   0  0  0  0  0  0  0  0  0  0  0  0
   58.9458   22.8128   44.8947 H   0  0  0  0  0  0  0  0  0  0  0  0
   57.3777   22.3479   45.6511 H   0  0  0  0  0  0  0  0  0  0  0  0
   58.2195   21.9769   42.7319 H   0  0  0  0  0  0  0  0  0  0  0  0
   57.9008   20.6961   43.9646 H   0  0  0  0  0  0  0  0  0  0  0  0
   56.5757   23.1434   41.8389 H   0  0  0  0  0  0  0  0  0  0  0  0
   54.8559   22.8594   42.3143 H   0  0  0  0  0  0  0  0  0  0  0  0
   55.8558   25.0141   43.2096 H   0  0  0  0  0  0  0  0  0  0  0  0
   55.2012   23.9010   44.4663 H   0  0  0  0  0  0  0  0  0  0  0  0
   56.6630   26.5270   43.8560 H   0  0  0  0  0  0  0  0  0  0  0  0
   54.8752   30.8670   44.0174 H   0  0  0  0  0  0  0  0  0  0  0  0
   57.0429   32.2586   43.4927 H   0  0  0  0  0  0  0  0  0  0  0  0
  1  2  1  0
  2  3  1  0
  3  4  2  0
  4  5  1  0
  5  6  2  0
  6  7  1  0
  7  8  1  0
  8  9  1  0
  9 10  1  0
 10 11  1  0
 11 12  1  0
  6 13  1  0
 13 14  2  0
 14 15  1  0
 15 16  2  0
 16 17  1  0
 17 18  2  0
 18 19  1  0
 14  3  1  0
 19 15  1  0
 12  7  1  0
  1 20  1  0
  1 21  1  0
  1 22  1  0
  4 23  1  0
  8 24  1  0
  8 25  1  0
  9 26  1  0
  9 27  1  0
 11 28  1  0
 11 29  1  0
 12 30  1  0
 12 31  1  0
 13 32  1  0
 17 33  1  0
 18 34  1  0
M  CHG  1  13   1
M  END
>  <UniqueID>  (3) 
3

>  <SMILES>  (3) 
COc1cnc(N2CCOCC2)[nH+]c1-c1nccs1

>  <Energy>  (3) 
71.88876952030259

>  <Genealogy>  (3) 
COc1cnc(N2CCOCC2)[nH+]c1-c1nccs1 (protonated)
COc1cnc(N2CCOCC2)[nH+]c1-c1nccs1 (3D coordinates assigned)
COc1cnc(N2CCOCC2)[nH+]c1-c1nccs1 (nonaromatic ring conformer: 71.88876952030259 kcal/mol)

>  <smiles>  (3) 
COc1cnc(N2CCOCC2)nc1-c1nccs1

>  <score_type>  (3) 
oracle

>  <origin>  (3) 
adg

>  <m_score__min__energy>  (3) 
-4.4900000000000002

>  <m_primary>  (3) 
energy

$$$$
3:0
     RDKit          3D

 49 52  0  0  0  0  0  0  0  0999 V2000
   64.4940   32.0190   49.3720 C   0  0  0  0  0  0  0  0  0  0  0  0
   63.5420   32.7170   48.5170 N   0  0  0  0  0  0  0  0  0  0  0  0
   63.7580   33.8480   47.8100 C   0  0  0  0  0  0  0  0  0  0  0  0
   62.6980   34.1990   47.0420 N   0  0  0  0  0  0  0  0  0  0  0  0
   61.7860   33.2390   47.3030 C   0  0  0  0  0  0  0  0  0  0  0  0
   62.3100   32.3200   48.1660 C   0  0  0  0  0  0  0  0  0  0  0  0
   61.5610   31.1110   48.6420 C   0  0  0  0  0  0  0  0  0  0  0  0
   60.4360   30.7830   47.7300 N   0  0  0  0  0  0  0  0  0  0  0  0
   60.8820   30.0520   46.5250 C   0  0  0  0  0  0  0  0  0  0  0  0
   59.7690   29.1940   45.9960 C   0  0  0  0  0  0  0  0  0  0  0  0
   58.7800   28.6990   46.8580 C   0  0  0  0  0  0  0  0  0  0  0  0
   57.7670   27.8880   46.3420 C   0  0  0  0  0  0  0  0  0  0  0  0
   57.7500   27.5790   44.9800 C   0  0  0  0  0  0  0  0  0  0  0  0
   58.7540   28.0880   44.1520 C   0  0  0  0  0  0  0  0  0  0  0  0
   59.7320   28.8750   44.6720 N   0  0  0  0  0  0  0  0  0  0  0  0
   59.6310   31.9850   47.3890 C   0  0  0  0  0  0  0  0  0  0  0  0
   60.4520   33.0710   46.6350 C   0  0  1  0  0  0  0  0  0  0  0  0
   59.6930   34.4110   46.5830 C   0  0  0  0  0  0  0  0  0  0  0  0
   58.5440   34.3040   45.7640 O   0  0  0  0  0  0  0  0  0  0  0  0
   58.8910   33.8470   44.4730 C   0  0  0  0  0  0  0  0  0  0  0  0
   58.0500   32.6490   44.1450 C   0  0  0  0  0  0  0  0  0  0  0  0
   57.8530   32.2490   42.8150 C   0  0  0  0  0  0  0  0  0  0  0  0
   57.0360   31.1520   42.5310 C   0  0  0  0  0  0  0  0  0  0  0  0
   56.4130   30.4730   43.5800 C   0  0  0  0  0  0  0  0  0  0  0  0
   56.5980   30.8840   44.8620 N   0  0  0  0  0  0  0  0  0  0  0  0
   57.3900   31.9480   45.1650 C   0  0  0  0  0  0  0  0  0  0  0  0
   64.2429   32.2031   50.4270 H   0  0  0  0  0  0  0  0  0  0  0  0
   64.4477   30.9392   49.1671 H   0  0  0  0  0  0  0  0  0  0  0  0
   65.5099   32.3879   49.1671 H   0  0  0  0  0  0  0  0  0  0  0  0
   64.6948   34.4229   47.8532 H   0  0  0  0  0  0  0  0  0  0  0  0
   62.2506   30.2550   48.6835 H   0  0  0  0  0  0  0  0  0  0  0  0
   61.1497   31.3263   49.6392 H   0  0  0  0  0  0  0  0  0  0  0  0
   61.1821   30.7749   45.7521 H   0  0  0  0  0  0  0  0  0  0  0  0
   61.7346   29.4096   46.7905 H   0  0  0  0  0  0  0  0  0  0  0  0
   58.8019   28.9469   47.9295 H   0  0  0  0  0  0  0  0  0  0  0  0
   56.9843   27.4935   47.0066 H   0  0  0  0  0  0  0  0  0  0  0  0
   56.9554   26.9423   44.5639 H   0  0  0  0  0  0  0  0  0  0  0  0
   58.7526   27.8512   43.0778 H   0  0  0  0  0  0  0  0  0  0  0  0
   58.7904   31.6748   46.7509 H   0  0  0  0  0  0  0  0  0  0  0  0
   59.2859   32.4296   48.3341 H   0  0  0  0  0  0  0  0  0  0  0  0
   60.6046   32.7421   45.5965 H   0  0  0  0  0  0  0  0  0  0  0  0
   59.3857   34.6916   47.6012 H   0  0  0  0  0  0  0  0  0  0  0  0
   60.3584   35.1780   46.1600 H   0  0  0  0  0  0  0  0  0  0  0  0
   58.7053   34.6425   43.7364 H   0  0  0  0  0  0  0  0  0  0  0  0
   59.9567   33.5759   44.4452 H   0  0  0  0  0  0  0  0  0  0  0  0
   58.3413   32.7985   41.9966 H   0  0  0  0  0  0  0  0  0  0  0  0
   56.8850   30.8263   41.4912 H   0  0  0  0  0  0  0  0  0  0  0  0
   55.7718   29.6046   43.3685 H   0  0  0  0  0  0  0  0  0  0  0  0
   57.5131   32.2593   46.2128 H   0  0  0  0  0  0  0  0  0  0  0  0
  1  2  1  0
  2  3  1  0
  3  4  2  0
  4  5  1  0
  5  6  2  0
  6  7  1  0
  7  8  1  0
  8  9  1  0
  9 10  1  0
 10 11  2  0
 11 12  1  0
 12 13  2  0
 13 14  1  0
 14 15  2  0
  8 16  1  0
 16 17  1  0
 17 18  1  0
 18 19  1  0
 19 20  1  0
 20 21  1  0
 21 22  2  0
 22 23  1  0
 23 24  2  0
 24 25  1  0
 25 26  2  0
  6  2  1  0
 15 10  1  0
 26 21  1  0
 17  5  1  0
  1 27  1  0
  1 28  1  0
  1 29  1  0
  3 30  1  0
  7 31  1  0
  7 32  1  0
  9 33  1  0
  9 34  1  0
 11 35  1  0
 12 36  1  0
 13 37  1  0
 14 38  1  0
 16 39  1  0
 16 40  1  0
 17 41  1  6
 18 42  1  0
 18 43  1  0
 20 44  1  0
 20 45  1  0
 22 46  1  0
 23 47  1  0
 24 48  1  0
 26 49  1  0
M  END
>  <UniqueID>  (4) 
4

>  <SMILES>  (4) 
Cn1cnc2c1CN(Cc1ccccn1)C[C@H]2COCc1cccnc1

>  <Energy>  (4) 
89.85387532997376

>  <Genealogy>  (4) 
Cn1cnc2c1CN(Cc1ccccn1)C[C@H]2COCc1cccnc1 (chirality)
Cn1cnc2c1CN(Cc1ccccn1)C[C@H]2COCc1cccnc1 (3D coordinates assigned)
Cn1cnc2c1CN(Cc1ccccn1)C[C@H]2COCc1cccnc1 (nonaromatic ring conformer: 89.85387532997376 kcal/mol)

>  <smiles>  (4) 
Cn1cnc2c1CN(Cc1ccccn1)CC2COCc1cccnc1

>  <score_type>  (4) 
oracle

>  <origin>  (4) 
adg

>  <m_score__min__energy>  (4) 
-8

>  <m_primary>  (4) 
energy

$$$$
4:0
     RDKit          3D

 40 42  0  0  0  0  0  0  0  0999 V2000
   63.1660   33.8210   46.5630 C   0  0  0  0  0  0  0  0  0  0  0  0
   62.7500   33.1870   47.8880 C   0  0  0  0  0  0  0  0  0  0  0  0
   63.9520   33.0730   48.8280 C   0  0  0  0  0  0  0  0  0  0  0  0
   61.4360   34.2090   48.6530 S   0  0  0  0  0  0  0  0  0  0  0  0
   60.2760   34.0470   47.2920 C   0  0  0  0  0  0  0  0  0  0  0  0
   59.7560   35.1820   46.6660 C   0  0  0  0  0  0  0  0  0  0  0  0
   58.8850   35.0500   45.6320 N   0  0  0  0  0  0  0  0  0  0  0  0
   58.4950   33.8300   45.1750 C   0  0  0  0  0  0  0  0  0  0  0  0
   58.9980   32.6570   45.7620 C   0  0  0  0  0  0  0  0  0  0  0  0
   58.5830   31.3180   45.2680 C   0  0  0  0  0  0  0  0  0  0  0  0
   57.6490   31.2040   44.2240 C   0  0  0  0  0  0  0  0  0  0  0  0
   57.2550   29.9480   43.7590 C   0  0  0  0  0  0  0  0  0  0  0  0
   57.7870   28.7820   44.3280 C   0  0  0  0  0  0  0  0  0  0  0  0
   57.4040   27.5570   43.8770 N   0  0  0  0  0  0  0  0  0  0  0  0
   57.9130   26.4210   44.4180 C   0  0  0  0  0  0  0  0  0  0  0  0
   58.8260   26.4780   45.4340 N   0  0  0  0  0  0  0  0  0  0  0  0
   59.3600   25.2340   46.0040 C   0  0  0  0  0  0  0  0  0  0  0  0
   59.2380   27.6910   45.9210 C   0  0  0  0  0  0  0  0  0  0  0  0
   60.0800   27.7410   46.8610 O   0  0  0  0  0  0  0  0  0  0  0  0
   58.7240   28.8810   45.3750 C   0  0  0  0  0  0  0  0  0  0  0  0
   59.1180   30.1490   45.8400 C   0  0  0  0  0  0  0  0  0  0  0  0
   59.9030   32.7820   46.8300 C   0  0  0  0  0  0  0  0  0  0  0  0
   63.7597   34.7258   46.7599 H   0  0  0  0  0  0  0  0  0  0  0  0
   63.7699   33.1043   45.9872 H   0  0  0  0  0  0  0  0  0  0  0  0
   62.2681   34.0897   45.9872 H   0  0  0  0  0  0  0  0  0  0  0  0
   62.3655   32.1731   47.7030 H   0  0  0  0  0  0  0  0  0  0  0  0
   63.6058   33.1058   49.8716 H   0  0  0  0  0  0  0  0  0  0  0  0
   64.4724   32.1215   48.6441 H   0  0  0  0  0  0  0  0  0  0  0  0
   64.6420   33.9097   48.6441 H   0  0  0  0  0  0  0  0  0  0  0  0
   60.0520   36.1838   47.0106 H   0  0  0  0  0  0  0  0  0  0  0  0
   57.7814   33.7612   44.3407 H   0  0  0  0  0  0  0  0  0  0  0  0
   57.2250   32.1117   43.7697 H   0  0  0  0  0  0  0  0  0  0  0  0
   56.5229   29.8726   42.9415 H   0  0  0  0  0  0  0  0  0  0  0  0
   56.7090   27.4730   43.1010 H   0  0  0  0  0  0  0  0  0  0  0  0
   57.5871   25.4429   44.0344 H   0  0  0  0  0  0  0  0  0  0  0  0
   59.3346   25.2933   47.1021 H   0  0  0  0  0  0  0  0  0  0  0  0
   58.7474   24.3843   45.6684 H   0  0  0  0  0  0  0  0  0  0  0  0
   60.3980   25.0928   45.6684 H   0  0  0  0  0  0  0  0  0  0  0  0
   59.8501   30.2272   46.6572 H   0  0  0  0  0  0  0  0  0  0  0  0
   60.3192   31.8808   47.3039 H   0  0  0  0  0  0  0  0  0  0  0  0
  1  2  1  0
  2  3  1  0
  2  4  1  0
  4  5  1  0
  5  6  2  0
  6  7  1  0
  7  8  2  0
  8  9  1  0
  9 10  1  0
 10 11  2  0
 11 12  1  0
 12 13  2  0
 13 14  1  0
 14 15  2  0
 15 16  1  0
 16 17  1  0
 16 18  1  0
 18 19  2  0
 18 20  1  0
 20 21  2  0
  9 22  2  0
 22  5  1  0
 21 10  1  0
 20 13  1  0
  1 23  1  0
  1 24  1  0
  1 25  1  0
  2 26  1  0
  3 27  1  0
  3 28  1  0
  3 29  1  0
  6 30  1  0
  8 31  1  0
 11 32  1  0
 12 33  1  0
 14 34  1  0
 15 35  1  0
 17 36  1  0
 17 37  1  0
 17 38  1  0
 21 39  1  0
 22 40  1  0
M  CHG  1  14   1
M  END
>  <UniqueID>  (5) 
5

>  <SMILES>  (5) 
CC(C)Sc1cncc(-c2ccc3[nH+]cn(C)c(=O)c3c2)c1

>  <Energy>  (5) 
45.897791406971365

>  <Genealogy>  (5) 
CC(C)Sc1cncc(-c2ccc3[nH+]cn(C)c(=O)c3c2)c1 (protonated)
CC(C)Sc1cncc(-c2ccc3[nH+]cn(C)c(=O)c3c2)c1 (3D coordinates assigned)
CC(C)Sc1cncc(-c2ccc3[nH+]cn(C)c(=O)c3c2)c1 (optimized conformer: 45.897791406971365 kcal/mol)

>  <smiles>  (5) 
CC(C)Sc1cncc(-c2ccc3ncn(C)c(=O)c3c2)c1

>  <score_type>  (5) 
oracle

>  <origin>  (5) 
adg

>  <m_score__min__energy>  (5) 
-6.3899999999999997

>  <m_primary>  (5) 
energy

$$$$
5:0
     RDKit          3D

 25 26  0  0  0  0  0  0  0  0999 V2000
   56.5880   30.4100   43.4870 C   0  0  0  0  0  0  0  0  0  0  0  0
   55.5040   29.8370   44.1210 C   0  0  0  0  0  0  0  0  0  0  0  0
   55.9200   29.0750   45.1070 O   0  0  0  0  0  0  0  0  0  0  0  0
   57.2310   29.1270   45.1490 C   0  0  0  0  0  0  0  0  0  0  0  0
   58.0710   28.3650   46.1320 C   0  0  0  0  0  0  0  0  0  0  0  0
   57.3130   27.2710   46.7650 N   0  0  0  0  0  0  0  0  0  0  0  0
   57.6150   25.9690   46.1510 C   0  0  0  0  0  0  0  0  0  0  0  0
   56.3490   25.2610   45.7760 C   0  0  0  0  0  0  0  0  0  0  0  0
   56.2660   24.0250   45.1680 C   0  0  0  0  0  0  0  0  0  0  0  0
   54.9170   23.7630   45.0480 C   0  0  0  0  0  0  0  0  0  0  0  0
   54.2660   24.8500   45.5950 C   0  0  0  0  0  0  0  0  0  0  0  0
   55.1470   25.7260   46.0230 O   0  0  0  0  0  0  0  0  0  0  0  0
   57.7060   29.9520   44.1500 C   0  0  0  0  0  0  0  0  0  0  0  0
   56.5643   31.0943   42.6261 H   0  0  0  0  0  0  0  0  0  0  0  0
   54.4515   29.9945   43.8428 H   0  0  0  0  0  0  0  0  0  0  0  0
   58.9380   27.9396   45.6054 H   0  0  0  0  0  0  0  0  0  0  0  0
   58.3912   29.0612   46.9211 H   0  0  0  0  0  0  0  0  0  0  0  0
   56.2920   27.4730   46.6440 H   0  0  0  0  0  0  0  0  0  0  0  0
   57.5240   27.2420   47.7900 H   0  0  0  0  0  0  0  0  0  0  0  0
   58.2230   26.1267   45.2480 H   0  0  0  0  0  0  0  0  0  0  0  0
   58.1667   25.3525   46.8759 H   0  0  0  0  0  0  0  0  0  0  0  0
   57.1000   23.3837   44.8467 H   0  0  0  0  0  0  0  0  0  0  0  0
   54.4539   22.8686   44.6058 H   0  0  0  0  0  0  0  0  0  0  0  0
   53.1742   24.9657   45.6625 H   0  0  0  0  0  0  0  0  0  0  0  0
   58.7563   30.1933   43.9293 H   0  0  0  0  0  0  0  0  0  0  0  0
  1  2  2  0
  2  3  1  0
  3  4  1  0
  4  5  1  0
  5  6  1  0
  6  7  1  0
  7  8  1  0
  8  9  2  0
  9 10  1  0
 10 11  2  0
 11 12  1  0
  4 13  2  0
 13  1  1  0
 12  8  1  0
  1 14  1  0
  2 15  1  0
  5 16  1  0
  5 17  1  0
  6 18  1  0
  6 19  1  0
  7 20  1  0
  7 21  1  0
  9 22  1  0
 10 23  1  0
 11 24  1  0
 13 25  1  0
M  CHG  1   6   1
M  END
>  <UniqueID>  (6) 
6

>  <SMILES>  (6) 
c1coc(C[NH2+]Cc2ccco2)c1

>  <Energy>  (6) 
74.45971943265091

>  <Genealogy>  (6) 
c1coc(C[NH2+]Cc2ccco2)c1 (protonated)
c1coc(C[NH2+]Cc2ccco2)c1 (3D coordinates assigned)
c1coc(C[NH2+]Cc2ccco2)c1 (optimized conformer: 74.45971943265091 kcal/mol)

>  <smiles>  (6) 
c1coc(CNCc2ccco2)c1

>  <score_type>  (6) 
oracle

>  <origin>  (6) 
adg

>  <m_score__min__energy>  (6) 
-4.1500000000000004

>  <m_primary>  (6) 
energy

$$$$
6:0
     RDKit          3D

 46 48  0  0  0  0  0  0  0  0999 V2000
   63.3960   34.1900   46.3280 C   0  0  0  0  0  0  0  0  0  0  0  0
   63.0650   33.0400   47.2160 C   0  0  0  0  0  0  0  0  0  0  0  0
   63.7600   32.6430   48.3390 C   0  0  0  0  0  0  0  0  0  0  0  0
   63.1110   31.5930   48.8710 N   0  0  0  0  0  0  0  0  0  0  0  0
   62.0520   31.3960   48.0620 C   0  0  0  0  0  0  0  0  0  0  0  0
   61.0110   30.3430   48.2800 C   0  0  0  0  0  0  0  0  0  0  0  0
   59.6860   30.7980   47.8030 N   0  0  0  0  0  0  0  0  0  0  0  0
   58.9570   31.5670   48.8500 C   0  0  0  0  0  0  0  0  0  0  0  0
   59.2270   33.0730   48.7210 C   0  0  0  0  0  0  0  0  0  0  0  0
   58.8220   33.6020   47.3710 C   0  0  0  0  0  0  0  0  0  0  0  0
   57.5140   33.4050   46.8970 C   0  0  0  0  0  0  0  0  0  0  0  0
   57.1380   33.8960   45.6440 C   0  0  0  0  0  0  0  0  0  0  0  0
   58.0640   34.5800   44.8520 C   0  0  0  0  0  0  0  0  0  0  0  0
   59.3720   34.7650   45.3090 C   0  0  0  0  0  0  0  0  0  0  0  0
   59.7520   34.2770   46.5630 C   0  0  0  0  0  0  0  0  0  0  0  0
   58.8910   29.6330   47.3520 C   0  0  0  0  0  0  0  0  0  0  0  0
   58.1880   29.9440   46.0660 C   0  0  0  0  0  0  0  0  0  0  0  0
   57.0660   29.3230   45.5480 C   0  0  0  0  0  0  0  0  0  0  0  0
   56.7540   29.8940   44.3670 N   0  0  0  0  0  0  0  0  0  0  0  0
   57.6330   30.8580   44.1440 N   0  0  0  0  0  0  0  0  0  0  0  0
   57.6660   31.6610   42.9290 C   0  0  0  0  0  0  0  0  0  0  0  0
   58.5270   30.9140   45.1490 C   0  0  0  0  0  0  0  0  0  0  0  0
   62.0190   32.2610   47.0720 O   0  0  0  0  0  0  0  0  0  0  0  0
   63.6484   35.0669   46.9423 H   0  0  0  0  0  0  0  0  0  0  0  0
   64.2551   33.9276   45.6931 H   0  0  0  0  0  0  0  0  0  0  0  0
   62.5289   34.4244   45.6931 H   0  0  0  0  0  0  0  0  0  0  0  0
   64.6799   33.1029   48.7292 H   0  0  0  0  0  0  0  0  0  0  0  0
   63.3660   31.0610   49.7330 H   0  0  0  0  0  0  0  0  0  0  0  0
   61.2983   29.4344   47.7305 H   0  0  0  0  0  0  0  0  0  0  0  0
   60.9426   30.1368   49.3583 H   0  0  0  0  0  0  0  0  0  0  0  0
   57.8774   31.3854   48.7424 H   0  0  0  0  0  0  0  0  0  0  0  0
   59.3097   31.2329   49.8369 H   0  0  0  0  0  0  0  0  0  0  0  0
   58.6565   33.6044   49.4970 H   0  0  0  0  0  0  0  0  0  0  0  0
   60.3080   33.2372   48.8414 H   0  0  0  0  0  0  0  0  0  0  0  0
   56.7833   32.8622   47.5146 H   0  0  0  0  0  0  0  0  0  0  0  0
   56.1111   33.7438   45.2804 H   0  0  0  0  0  0  0  0  0  0  0  0
   57.7638   34.9727   43.8693 H   0  0  0  0  0  0  0  0  0  0  0  0
   60.1033   35.2952   44.6813 H   0  0  0  0  0  0  0  0  0  0  0  0
   60.7829   34.4222   46.9181 H   0  0  0  0  0  0  0  0  0  0  0  0
   59.5614   28.7743   47.1997 H   0  0  0  0  0  0  0  0  0  0  0  0
   58.1399   29.3959   48.1199 H   0  0  0  0  0  0  0  0  0  0  0  0
   56.5168   28.4966   46.0228 H   0  0  0  0  0  0  0  0  0  0  0  0
   57.7098   32.7274   43.1953 H   0  0  0  0  0  0  0  0  0  0  0  0
   58.5539   31.3941   42.3371 H   0  0  0  0  0  0  0  0  0  0  0  0
   56.7592   31.4679   42.3371 H   0  0  0  0  0  0  0  0  0  0  0  0
   59.3758   31.6096   45.2242 H   0  0  0  0  0  0  0  0  0  0  0  0
  1  2  1  0
  2  3  2  0
  3  4  1  0
  4  5  2  0
  5  6  1  0
  6  7  1  0
  7  8  1  0
  8  9  1  0
  9 10  1  0
 10 11  2  0
 11 12  1  0
 12 13  2  0
 13 14  1  0
 14 15  2  0
  7 16  1  0
 16 17  1  0
 17 18  1  0
 18 19  2  0
 19 20  1  0
 20 21  1  0
 20 22  1  0
  5 23  1  0
 23  2  1  0
 15 10  1  0
 22 17  2  0
  1 24  1  0
  1 25  1  0
  1 26  1  0
  3 27  1  0
  4 28  1  0
  6 29  1  0
  6 30  1  0
  8 31  1  0
  8 32  1  0
  9 33  1  0
  9 34  1  0
 11 35  1  0
 12 36  1  0
 13 37  1  0
 14 38  1  0
 15 39  1  0
 16 40  1  0
 16 41  1  0
 18 42  1  0
 21 43  1  0
 21 44  1  0
 21 45  1  0
 22 46  1  0
M  CHG  1   4   1
M  END
>  <UniqueID>  (7) 
7

>  <SMILES>  (7) 
Cc1c[nH+]c(CN(CCc2ccccc2)Cc2cnn(C)c2)o1

>  <Energy>  (7) 
100.0586063780548

>  <Genealogy>  (7) 
Cc1c[nH+]c(CN(CCc2ccccc2)Cc2cnn(C)c2)o1 (protonated)
Cc1c[nH+]c(CN(CCc2ccccc2)Cc2cnn(C)c2)o1 (3D coordinates assigned)
Cc1c[nH+]c(CN(CCc2ccccc2)Cc2cnn(C)c2)o1 (optimized conformer: 100.0586063780548 kcal/mol)

>  <smiles>  (7) 
Cc1cnc(CN(CCc2ccccc2)Cc2cnn(C)c2)o1

>  <score_type>  (7) 
oracle

>  <origin>  (7) 
adg

>  <m_score__min__energy>  (7) 
-5.3600000000000003

>  <m_primary>  (7) 
energy

$$$$
7:0
     RDKit          3D

 55 58  0  0  0  0  0  0  0  0999 V2000
   59.7400   29.3920   44.6230 C   0  0  0  0  0  0  0  0  0  0  0  0
   58.2810   29.4130   44.7040 N   0  0  0  0  0  0  0  0  0  0  0  0
   57.4280   28.3800   44.5610 C   0  0  0  0  0  0  0  0  0  0  0  0
   57.9110   26.6970   44.1610 S   0  0  0  0  0  0  0  0  0  0  0  0
   57.1510   25.9480   45.6480 C   0  0  0  0  0  0  0  0  0  0  0  0
   58.0650   26.0490   46.8880 C   0  0  0  0  0  0  0  0  0  0  0  0
   58.8140   27.3210   46.9860 N   0  0  0  0  0  0  0  0  0  0  0  0
   58.1630   28.3320   47.8370 C   0  0  0  0  0  0  0  0  0  0  0  0
   59.0460   29.5790   47.9110 C   0  0  0  0  0  0  0  0  0  0  0  0
   60.3570   29.2960   48.5530 N   0  0  0  0  0  0  0  0  0  0  0  0
   61.4250   30.1760   48.0300 C   0  0  0  0  0  0  0  0  0  0  0  0
   61.2120   31.6030   48.4670 C   0  0  0  0  0  0  0  0  0  0  0  0
   61.9560   32.6360   47.8760 C   0  0  0  0  0  0  0  0  0  0  0  0
   61.7640   33.9510   48.3030 C   0  0  0  0  0  0  0  0  0  0  0  0
   60.8410   34.2250   49.3120 C   0  0  0  0  0  0  0  0  0  0  0  0
   60.1200   33.1740   49.8830 C   0  0  0  0  0  0  0  0  0  0  0  0
   60.3180   31.8960   49.4580 N   0  0  0  0  0  0  0  0  0  0  0  0
   60.7570   27.8680   48.4940 C   0  0  0  0  0  0  0  0  0  0  0  0
   60.2720   27.1640   47.2120 C   0  0  0  0  0  0  0  0  0  0  0  0
   56.1480   28.7700   44.7060 N   0  0  0  0  0  0  0  0  0  0  0  0
   56.1690   30.0710   44.9610 N   0  0  0  0  0  0  0  0  0  0  0  0
   57.4620   30.4540   44.9660 C   0  0  0  0  0  0  0  0  0  0  0  0
   57.8990   31.8380   45.2390 C   0  0  0  0  0  0  0  0  0  0  0  0
   58.1420   32.2350   46.5650 C   0  0  0  0  0  0  0  0  0  0  0  0
   58.5550   33.5400   46.8490 C   0  0  0  0  0  0  0  0  0  0  0  0
   58.7200   34.4620   45.8130 C   0  0  0  0  0  0  0  0  0  0  0  0
   58.4770   34.0810   44.4910 C   0  0  0  0  0  0  0  0  0  0  0  0
   58.0630   32.7760   44.1970 C   0  0  0  0  0  0  0  0  0  0  0  0
   57.7970   32.3080   42.3530 Br  0  0  0  0  0  0  0  0  0  0  0  0
   60.1635   29.3859   45.6382 H   0  0  0  0  0  0  0  0  0  0  0  0
   60.0644   28.4891   44.0849 H   0  0  0  0  0  0  0  0  0  0  0  0
   60.0903   30.2852   44.0849 H   0  0  0  0  0  0  0  0  0  0  0  0
   56.2057   26.4682   45.8621 H   0  0  0  0  0  0  0  0  0  0  0  0
   56.9844   24.8809   45.4392 H   0  0  0  0  0  0  0  0  0  0  0  0
   57.4396   25.9466   47.7871 H   0  0  0  0  0  0  0  0  0  0  0  0
   58.8128   25.2475   46.7962 H   0  0  0  0  0  0  0  0  0  0  0  0
   57.1861   28.5991   47.4076 H   0  0  0  0  0  0  0  0  0  0  0  0
   58.0189   27.9234   48.8481 H   0  0  0  0  0  0  0  0  0  0  0  0
   59.2230   29.9499   46.8906 H   0  0  0  0  0  0  0  0  0  0  0  0
   58.5234   30.3296   48.5222 H   0  0  0  0  0  0  0  0  0  0  0  0
   62.3969   29.8255   48.4076 H   0  0  0  0  0  0  0  0  0  0  0  0
   61.4024   30.1391   46.9308 H   0  0  0  0  0  0  0  0  0  0  0  0
   62.6843   32.4112   47.0829 H   0  0  0  0  0  0  0  0  0  0  0  0
   62.3392   34.7691   47.8449 H   0  0  0  0  0  0  0  0  0  0  0  0
   60.6825   35.2582   49.6545 H   0  0  0  0  0  0  0  0  0  0  0  0
   59.3894   33.3797   50.6792 H   0  0  0  0  0  0  0  0  0  0  0  0
   59.7690   31.1320   49.9100 H   0  0  0  0  0  0  0  0  0  0  0  0
   61.8547   27.8087   48.5336 H   0  0  0  0  0  0  0  0  0  0  0  0
   60.2894   27.3577   49.3489 H   0  0  0  0  0  0  0  0  0  0  0  0
   60.8089   27.5909   46.3521 H   0  0  0  0  0  0  0  0  0  0  0  0
   60.4753   26.0891   47.3274 H   0  0  0  0  0  0  0  0  0  0  0  0
   58.0063   31.5142   47.3848 H   0  0  0  0  0  0  0  0  0  0  0  0
   58.7501   33.8408   47.8889 H   0  0  0  0  0  0  0  0  0  0  0  0
   59.0417   35.4895   46.0382 H   0  0  0  0  0  0  0  0  0  0  0  0
   58.6115   34.8092   43.6776 H   0  0  0  0  0  0  0  0  0  0  0  0
  1  2  1  0
  2  3  1  0
  3  4  1  0
  4  5  1  0
  5  6  1  0
  6  7  1  0
  7  8  1  0
  8  9  1  0
  9 10  1  0
 10 11  1  0
 11 12  1  0
 12 13  2  0
 13 14  1  0
 14 15  2  0
 15 16  1  0
 16 17  2  0
 10 18  1  0
 18 19  1  0
  3 20  2  0
 20 21  1  0
 21 22  2  0
 22 23  1  0
 23 24  2  0
 24 25  1  0
 25 26  2  0
 26 27  1  0
 27 28  2  0
 28 29  1  0
 22  2  1  0
 28 23  1  0
 19  7  1  0
 17 12  1  0
  1 30  1  0
  1 31  1  0
  1 32  1  0
  5 33  1  0
  5 34  1  0
  6 35  1  0
  6 36  1  0
  8 37  1  0
  8 38  1  0
  9 39  1  0
  9 40  1  0
 11 41  1  0
 11 42  1  0
 13 43  1  0
 14 44  1  0
 15 45  1  0
 16 46  1  0
 17 47  1  0
 18 48  1  0
 18 49  1  0
 19 50  1  0
 19 51  1  0
 24 52  1  0
 25 53  1  0
 26 54  1  0
 27 55  1  0
M  CHG  1  17   1
M  END
>  <UniqueID>  (8) 
8

>  <SMILES>  (8) 
Cn1c(SCCN2CCN(Cc3cccc[nH+]3)CC2)nnc1-c1ccccc1Br

>  <Energy>  (8) 
112.20859609883348

>  <Genealogy>  (8) 
Cn1c(SCCN2CCN(Cc3cccc[nH+]3)CC2)nnc1-c1ccccc1Br (protonated)
Cn1c(SCCN2CCN(Cc3cccc[nH+]3)CC2)nnc1-c1ccccc1Br (3D coordinates assigned)
Cn1c(SCCN2CCN(Cc3cccc[nH+]3)CC2)nnc1-c1ccccc1Br (nonaromatic ring conformer: 112.20859609883348 kcal/mol)

>  <smiles>  (8) 
Cn1c(SCCN2CCN(Cc3ccccn3)CC2)nnc1-c1ccccc1Br

>  <score_type>  (8) 
oracle

>  <origin>  (8) 
adg

>  <m_score__min__energy>  (8) 
-8.1500000000000004

>  <m_primary>  (8) 
energy

$$$$
8:0
     RDKit          3D

 56 57  0  0  0  0  0  0  0  0999 V2000
   55.7420   26.6080   46.0340 N   0  0  0  0  0  0  0  0  0  0  0  0
   56.7830   25.5880   45.9220 C   0  0  0  0  0  0  0  0  0  0  0  0
   57.8370   25.9970   44.8780 C   0  0  0  0  0  0  0  0  0  0  0  0
   57.4230   27.1550   44.0620 N   0  0  0  0  0  0  0  0  0  0  0  0
   58.3890   28.2940   44.1280 C   0  0  2  0  0  0  0  0  0  0  0  0
   59.6670   27.9220   44.9240 C   0  0  0  0  0  0  0  0  0  0  0  0
   59.5470   28.1850   46.4360 C   0  0  0  0  0  0  0  0  0  0  0  0
   58.0920   28.3380   46.8840 C   0  0  0  0  0  0  0  0  0  0  0  0
   57.4060   29.4340   46.1780 N   0  0  0  0  0  0  0  0  0  0  0  0
   57.7160   29.5680   44.7330 C   0  0  1  0  0  0  0  0  0  0  0  0
   58.5480   30.8570   44.5310 C   0  0  0  0  0  0  0  0  0  0  0  0
   57.9340   31.8250   43.5000 C   0  0  0  0  0  0  0  0  0  0  0  0
   57.3970   33.1270   44.1210 C   0  0  0  0  0  0  0  0  0  0  0  0
   57.1730   33.1100   45.6470 C   0  0  0  0  0  0  0  0  0  0  0  0
   58.0180   34.1300   46.4380 C   0  0  0  0  0  0  0  0  0  0  0  0
   59.4060   33.6370   46.7760 C   0  0  0  0  0  0  0  0  0  0  0  0
   59.5770   32.5330   47.6270 C   0  0  0  0  0  0  0  0  0  0  0  0
   60.8590   32.0680   47.9350 C   0  0  0  0  0  0  0  0  0  0  0  0
   61.9950   32.7140   47.4180 C   0  0  0  0  0  0  0  0  0  0  0  0
   63.3840   32.1940   47.6900 C   0  0  0  0  0  0  0  0  0  0  0  0
   63.7660   31.3230   46.6860 F   0  0  0  0  0  0  0  0  0  0  0  0
   63.3920   31.5230   48.8970 F   0  0  0  0  0  0  0  0  0  0  0  0
   64.3080   33.2250   47.7480 F   0  0  0  0  0  0  0  0  0  0  0  0
   61.8230   33.8290   46.5830 C   0  0  0  0  0  0  0  0  0  0  0  0
   60.5420   34.2990   46.2810 C   0  0  0  0  0  0  0  0  0  0  0  0
   56.2070   27.5140   46.2730 H   0  0  0  0  0  0  0  0  0  0  0  0
   55.1340   26.3700   46.8500 H   0  0  0  0  0  0  0  0  0  0  0  0
   57.2725   25.4631   46.8992 H   0  0  0  0  0  0  0  0  0  0  0  0
   56.3187   24.6430   45.6035 H   0  0  0  0  0  0  0  0  0  0  0  0
   58.7689   26.2537   45.4030 H   0  0  0  0  0  0  0  0  0  0  0  0
   57.9709   25.1450   44.1952 H   0  0  0  0  0  0  0  0  0  0  0  0
   57.2620   26.8390   43.0790 H   0  0  0  0  0  0  0  0  0  0  0  0
   56.4810   27.4460   44.4120 H   0  0  0  0  0  0  0  0  0  0  0  0
   58.6939   28.5189   43.0953 H   0  0  0  0  0  0  0  0  0  0  0  0
   59.8728   26.8522   44.7719 H   0  0  0  0  0  0  0  0  0  0  0  0
   60.4798   28.5608   44.5480 H   0  0  0  0  0  0  0  0  0  0  0  0
   59.9976   27.3411   46.9789 H   0  0  0  0  0  0  0  0  0  0  0  0
   60.0684   29.1281   46.6564 H   0  0  0  0  0  0  0  0  0  0  0  0
   57.5582   27.3975   46.6824 H   0  0  0  0  0  0  0  0  0  0  0  0
   58.0920   28.5752   47.9581 H   0  0  0  0  0  0  0  0  0  0  0  0
   56.3750   29.3010   46.3000 H   0  0  0  0  0  0  0  0  0  0  0  0
   56.7761   29.6578   44.1686 H   0  0  0  0  0  0  0  0  0  0  0  0
   58.6242   31.3781   45.4967 H   0  0  0  0  0  0  0  0  0  0  0  0
   59.5320   30.5520   44.1453 H   0  0  0  0  0  0  0  0  0  0  0  0
   58.7080   32.0847   42.7628 H   0  0  0  0  0  0  0  0  0  0  0  0
   57.0773   31.3084   43.0427 H   0  0  0  0  0  0  0  0  0  0  0  0
   58.1164   33.9281   43.8960 H   0  0  0  0  0  0  0  0  0  0  0  0
   56.4012   33.2763   43.6782 H   0  0  0  0  0  0  0  0  0  0  0  0
   56.1112   33.3236   45.8391 H   0  0  0  0  0  0  0  0  0  0  0  0
   57.4860   32.1142   45.9941 H   0  0  0  0  0  0  0  0  0  0  0  0
   58.1118   35.0452   45.8350 H   0  0  0  0  0  0  0  0  0  0  0  0
   57.4987   34.3070   47.3914 H   0  0  0  0  0  0  0  0  0  0  0  0
   58.6964   32.0308   48.0541 H   0  0  0  0  0  0  0  0  0  0  0  0
   60.9794   31.1901   48.5868 H   0  0  0  0  0  0  0  0  0  0  0  0
   62.7036   34.3370   46.1629 H   0  0  0  0  0  0  0  0  0  0  0  0
   60.4224   35.1932   45.6516 H   0  0  0  0  0  0  0  0  0  0  0  0
  1  2  1  0
  2  3  1  0
  3  4  1  0
  4  5  1  0
  5  6  1  0
  6  7  1  0
  7  8  1  0
  8  9  1  0
  9 10  1  0
 10 11  1  0
 11 12  1  0
 12 13  1  0
 13 14  1  0
 14 15  1  0
 15 16  1  0
 16 17  2  0
 17 18  1  0
 18 19  2  0
 19 20  1  0
 20 21  1  0
 20 22  1  0
 20 23  1  0
 19 24  1  0
 24 25  2  0
 10  5  1  0
 25 16  1  0
  1 26  1  0
  1 27  1  0
  2 28  1  0
  2 29  1  0
  3 30  1  0
  3 31  1  0
  4 32  1  0
  4 33  1  0
  5 34  1  6
  6 35  1  0
  6 36  1  0
  7 37  1  0
  7 38  1  0
  8 39  1  0
  8 40  1  0
  9 41  1  0
 10 42  1  6
 11 43  1  0
 11 44  1  0
 12 45  1  0
 12 46  1  0
 13 47  1  0
 13 48  1  0
 14 49  1  0
 14 50  1  0
 15 51  1  0
 15 52  1  0
 17 53  1  0
 18 54  1  0
 24 55  1  0
 25 56  1  0
M  CHG  1   4   1
M  END
>  <UniqueID>  (9) 
9

>  <SMILES>  (9) 
NCC[NH2+][C@@H]1CCCN[C@H]1CCCCCc1ccc(C(F)(F)F)cc1

>  <Energy>  (9) 
56.985083961903214

>  <Genealogy>  (9) 
NCC[NH2+]C1CCCNC1CCCCCc1ccc(C(F)(F)F)cc1 (protonated)
NCC[NH2+][C@@H]1CCCN[C@H]1CCCCCc1ccc(C(F)(F)F)cc1 (chirality)
NCC[NH2+][C@@H]1CCCN[C@H]1CCCCCc1ccc(C(F)(F)F)cc1 (3D coordinates assigned)
NCC[NH2+][C@@H]1CCCN[C@H]1CCCCCc1ccc(C(F)(F)F)cc1 (nonaromatic ring conformer: 56.985083961903214 kcal/mol)

>  <smiles>  (9) 
NCCNC1CCCNC1CCCCCc1ccc(C(F)(F)F)cc1

>  <score_type>  (9) 
oracle

>  <origin>  (9) 
adg

>  <m_score__min__energy>  (9) 
-7.0099999999999998

>  <m_primary>  (9) 
energy

$$$$
9:0
     RDKit          3D

 32 34  0  0  0  0  0  0  0  0999 V2000
   59.3660   35.3040   46.4690 C   0  0  0  0  0  0  0  0  0  0  0  0
   59.6030   33.8320   46.4240 C   0  0  0  0  0  0  0  0  0  0  0  0
   60.7310   33.1770   46.8980 C   0  0  0  0  0  0  0  0  0  0  0  0
   60.6500   31.7840   46.7850 C   0  0  0  0  0  0  0  0  0  0  0  0
   59.4420   31.3390   46.2500 C   0  0  0  0  0  0  0  0  0  0  0  0
   59.0460   29.9470   45.9620 C   0  0  0  0  0  0  0  0  0  0  0  0
   59.6190   28.8870   46.5910 N   0  0  0  0  0  0  0  0  0  0  0  0
   59.0270   27.7980   46.0800 C   0  0  0  0  0  0  0  0  0  0  0  0
   59.2810   26.5080   46.4100 N   0  0  0  0  0  0  0  0  0  0  0  0
   58.5800   25.5260   45.7670 C   0  0  0  0  0  0  0  0  0  0  0  0
   57.6220   25.8670   44.7830 C   0  0  0  0  0  0  0  0  0  0  0  0
   57.3960   27.1800   44.4750 N   0  0  0  0  0  0  0  0  0  0  0  0
   58.1060   28.1270   45.1370 C   0  0  0  0  0  0  0  0  0  0  0  0
   58.0920   29.5030   45.0230 C   0  0  0  0  0  0  0  0  0  0  0  0
   57.2610   30.3010   44.0590 C   0  0  0  0  0  0  0  0  0  0  0  0
   55.7880   30.2910   44.4730 C   0  0  0  0  0  0  0  0  0  0  0  0
   55.3580   28.9760   44.7000 O   0  0  0  0  0  0  0  0  0  0  0  0
   58.4940   32.6860   45.8950 S   0  0  0  0  0  0  0  0  0  0  0  0
   59.3127   35.6349   47.5167 H   0  0  0  0  0  0  0  0  0  0  0  0
   60.1920   35.8241   45.9618 H   0  0  0  0  0  0  0  0  0  0  0  0
   58.4185   35.5385   45.9618 H   0  0  0  0  0  0  0  0  0  0  0  0
   61.6017   33.7001   47.3203 H   0  0  0  0  0  0  0  0  0  0  0  0
   61.4612   31.1061   47.0890 H   0  0  0  0  0  0  0  0  0  0  0  0
   60.3580   28.9080   47.3280 H   0  0  0  0  0  0  0  0  0  0  0  0
   58.7609   24.4697   46.0149 H   0  0  0  0  0  0  0  0  0  0  0  0
   57.0591   25.0760   44.2659 H   0  0  0  0  0  0  0  0  0  0  0  0
   56.6920   27.4390   43.7480 H   0  0  0  0  0  0  0  0  0  0  0  0
   57.6241   31.3392   44.0436 H   0  0  0  0  0  0  0  0  0  0  0  0
   57.3493   29.8493   43.0599 H   0  0  0  0  0  0  0  0  0  0  0  0
   55.6658   30.8776   45.3955 H   0  0  0  0  0  0  0  0  0  0  0  0
   55.1850   30.7315   43.6653 H   0  0  0  0  0  0  0  0  0  0  0  0
   54.3830   28.9600   44.5160 H   0  0  0  0  0  0  0  0  0  0  0  0
  1  2  1  0
  2  3  2  0
  3  4  1  0
  4  5  2  0
  5  6  1  0
  6  7  1  0
  7  8  1  0
  8  9  2  0
  9 10  1  0
 10 11  2  0
 11 12  1  0
 12 13  2  0
 13 14  1  0
 14 15  1  0
 15 16  1  0
 16 17  1  0
  5 18  1  0
 18  2  1  0
 14  6  2  0
 13  8  1  0
  1 19  1  0
  1 20  1  0
  1 21  1  0
  3 22  1  0
  4 23  1  0
  7 24  1  0
 10 25  1  0
 11 26  1  0
 12 27  1  0
 15 28  1  0
 15 29  1  0
 16 30  1  0
 16 31  1  0
 17 32  1  0
M  CHG  1  12   1
M  END
>  <UniqueID>  (10) 
10

>  <SMILES>  (10) 
Cc1ccc(-c2[nH]c3ncc[nH+]c3c2CCO)s1

>  <Energy>  (10) 
95.85791998897766

>  <Genealogy>  (10) 
Cc1ccc(-c2[nH]c3ncc[nH+]c3c2CCO)s1 (protonated)
Cc1ccc(-c2[nH]c3ncc[nH+]c3c2CCO)s1 (3D coordinates assigned)
Cc1ccc(-c2[nH]c3ncc[nH+]c3c2CCO)s1 (optimized conformer: 95.85791998897766 kcal/mol)

>  <smiles>  (10) 
Cc1ccc(-c2[nH]c3nccnc3c2CCO)s1

>  <score_type>  (10) 
oracle

>  <origin>  (10) 
adg

>  <m_score__min__energy>  (10) 
-6.2300000000000004

>  <m_primary>  (10) 
energy

$$$$
10:0
     RDKit          3D

 43 45  0  0  0  0  0  0  0  0999 V2000
   67.2040   33.1660   51.3420 C   0  0  0  0  0  0  0  0  0  0  0  0
   65.8770   33.5280   50.7590 C   0  0  0  0  0  0  0  0  0  0  0  0
   65.1170   34.3090   51.3920 O   0  0  0  0  0  0  0  0  0  0  0  0
   65.5230   33.0610   49.4480 N   0  0  0  0  0  0  0  0  0  0  0  0
   64.2120   33.1960   48.8700 C   0  0  0  0  0  0  0  0  0  0  0  0
   64.0310   33.3290   47.4820 C   0  0  0  0  0  0  0  0  0  0  0  0
   62.7480   33.4820   46.9480 C   0  0  0  0  0  0  0  0  0  0  0  0
   61.6260   33.5220   47.7920 C   0  0  0  0  0  0  0  0  0  0  0  0
   60.3040   33.6660   47.2410 N   0  0  0  0  0  0  0  0  0  0  0  0
   60.0350   34.6500   46.1820 C   0  0  0  0  0  0  0  0  0  0  0  0
   59.3870   33.9530   44.9820 C   0  0  0  0  0  0  0  0  0  0  0  0
   58.3380   33.0150   45.4110 N   0  0  0  0  0  0  0  0  0  0  0  0
   57.7720   32.1010   44.4570 C   0  0  0  0  0  0  0  0  0  0  0  0
   57.6830   32.4670   43.1030 C   0  0  0  0  0  0  0  0  0  0  0  0
   57.1230   31.5890   42.1700 C   0  0  0  0  0  0  0  0  0  0  0  0
   56.6500   30.3410   42.5800 C   0  0  0  0  0  0  0  0  0  0  0  0
   56.7380   29.9670   43.9240 C   0  0  0  0  0  0  0  0  0  0  0  0
   57.2960   30.8410   44.8630 C   0  0  0  0  0  0  0  0  0  0  0  0
   57.4020   30.4460   46.1550 F   0  0  0  0  0  0  0  0  0  0  0  0
   57.9680   32.9230   46.8310 C   0  0  0  0  0  0  0  0  0  0  0  0
   59.2280   32.7650   47.6890 C   0  0  0  0  0  0  0  0  0  0  0  0
   61.8090   33.4050   49.1790 C   0  0  0  0  0  0  0  0  0  0  0  0
   63.0920   33.2530   49.7120 C   0  0  0  0  0  0  0  0  0  0  0  0
   67.1392   33.1837   52.4399 H   0  0  0  0  0  0  0  0  0  0  0  0
   67.4886   32.1574   51.0077 H   0  0  0  0  0  0  0  0  0  0  0  0
   67.9613   33.8904   51.0077 H   0  0  0  0  0  0  0  0  0  0  0  0
   66.2870   32.6760   48.8480 H   0  0  0  0  0  0  0  0  0  0  0  0
   64.9037   33.3126   46.8126 H   0  0  0  0  0  0  0  0  0  0  0  0
   62.6164   33.5717   45.8596 H   0  0  0  0  0  0  0  0  0  0  0  0
   59.3546   35.4241   46.5665 H   0  0  0  0  0  0  0  0  0  0  0  0
   60.9814   35.1135   45.8666 H   0  0  0  0  0  0  0  0  0  0  0  0
   58.9407   34.7132   44.3241 H   0  0  0  0  0  0  0  0  0  0  0  0
   60.1639   33.3850   44.4493 H   0  0  0  0  0  0  0  0  0  0  0  0
   58.0557   33.4488   42.7757 H   0  0  0  0  0  0  0  0  0  0  0  0
   57.0550   31.8818   41.1119 H   0  0  0  0  0  0  0  0  0  0  0  0
   56.2080   29.6519   41.8453 H   0  0  0  0  0  0  0  0  0  0  0  0
   56.3672   28.9822   44.2443 H   0  0  0  0  0  0  0  0  0  0  0  0
   57.4360   33.8384   47.1294 H   0  0  0  0  0  0  0  0  0  0  0  0
   57.3166   32.0492   46.9797 H   0  0  0  0  0  0  0  0  0  0  0  0
   58.9795   32.9978   48.7350 H   0  0  0  0  0  0  0  0  0  0  0  0
   59.5835   31.7286   47.5917 H   0  0  0  0  0  0  0  0  0  0  0  0
   60.9378   33.4331   49.8500 H   0  0  0  0  0  0  0  0  0  0  0  0
   63.2244   33.1774   50.8014 H   0  0  0  0  0  0  0  0  0  0  0  0
  1  2  1  0
  2  3  2  0
  2  4  1  0
  4  5  1  0
  5  6  2  0
  6  7  1  0
  7  8  2  0
  8  9  1  0
  9 10  1  0
 10 11  1  0
 11 12  1  0
 12 13  1  0
 13 14  2  0
 14 15  1  0
 15 16  2  0
 16 17  1  0
 17 18  2  0
 18 19  1  0
 12 20  1  0
 20 21  1  0
  8 22  1  0
 22 23  2  0
 23  5  1  0
 21  9  1  0
 18 13  1  0
  1 24  1  0
  1 25  1  0
  1 26  1  0
  4 27  1  0
  6 28  1  0
  7 29  1  0
 10 30  1  0
 10 31  1  0
 11 32  1  0
 11 33  1  0
 14 34  1  0
 15 35  1  0
 16 36  1  0
 17 37  1  0
 20 38  1  0
 20 39  1  0
 21 40  1  0
 21 41  1  0
 22 42  1  0
 23 43  1  0
M  END
>  <UniqueID>  (11) 
11

>  <SMILES>  (11) 
CC(=O)Nc1ccc(N2CCN(c3ccccc3F)CC2)cc1

>  <Energy>  (11) 
55.86765783526087

>  <Genealogy>  (11) 
CC(=O)Nc1ccc(N2CCN(c3ccccc3F)CC2)cc1 (3D coordinates assigned)
CC(=O)Nc1ccc(N2CCN(c3ccccc3F)CC2)cc1 (nonaromatic ring conformer: 55.86765783526087 kcal/mol)

>  <smiles>  (11) 
CC(=O)Nc1ccc(N2CCN(c3ccccc3F)CC2)cc1

>  <score_type>  (11) 
oracle

>  <origin>  (11) 
adg

>  <m_score__min__energy>  (11) 
-7.46

>  <m_primary>  (11) 
energy

$$$$
11:0
     RDKit          3D

 29 30  0  0  0  0  0  0  0  0999 V2000
   55.7890   25.6850   45.9560 C   0  0  0  0  0  0  0  0  0  0  0  0
   55.5200   27.0570   45.6890 O   0  0  0  0  0  0  0  0  0  0  0  0
   56.5300   27.9790   45.3980 C   0  0  0  0  0  0  0  0  0  0  0  0
   57.8470   27.5400   45.2660 C   0  0  0  0  0  0  0  0  0  0  0  0
   58.8400   28.4760   44.9740 C   0  0  0  0  0  0  0  0  0  0  0  0
   60.1650   28.0540   44.8340 O   0  0  0  0  0  0  0  0  0  0  0  0
   61.2640   28.9570   44.8280 C   0  0  0  0  0  0  0  0  0  0  0  0
   58.5050   29.7880   44.8300 N   0  0  0  0  0  0  0  0  0  0  0  0
   57.2210   30.2070   44.9690 C   0  0  0  0  0  0  0  0  0  0  0  0
   56.9210   31.5630   44.7910 O   0  0  0  0  0  0  0  0  0  0  0  0
   57.7030   32.6340   45.2510 C   0  0  0  0  0  0  0  0  0  0  0  0
   58.3830   33.4990   44.3730 C   0  0  0  0  0  0  0  0  0  0  0  0
   59.1440   34.5590   44.8780 C   0  0  0  0  0  0  0  0  0  0  0  0
   59.2230   34.7700   46.2570 C   0  0  0  0  0  0  0  0  0  0  0  0
   59.9600   35.7980   46.7450 F   0  0  0  0  0  0  0  0  0  0  0  0
   58.5330   33.9270   47.1320 C   0  0  0  0  0  0  0  0  0  0  0  0
   57.7710   32.8670   46.6300 C   0  0  0  0  0  0  0  0  0  0  0  0
   56.2440   29.3000   45.2420 N   0  0  0  0  0  0  0  0  0  0  0  0
   55.8209   25.5225   47.0435 H   0  0  0  0  0  0  0  0  0  0  0  0
   54.9956   25.0633   45.5154 H   0  0  0  0  0  0  0  0  0  0  0  0
   56.7584   25.4089   45.5154 H   0  0  0  0  0  0  0  0  0  0  0  0
   58.0983   26.4763   45.3897 H   0  0  0  0  0  0  0  0  0  0  0  0
   61.5507   29.1925   45.8635 H   0  0  0  0  0  0  0  0  0  0  0  0
   62.1158   28.4944   44.3079 H   0  0  0  0  0  0  0  0  0  0  0  0
   60.9754   29.8823   44.3079 H   0  0  0  0  0  0  0  0  0  0  0  0
   58.3159   33.3411   43.2865 H   0  0  0  0  0  0  0  0  0  0  0  0
   59.6808   35.2271   44.1885 H   0  0  0  0  0  0  0  0  0  0  0  0
   58.5892   34.0973   48.2173 H   0  0  0  0  0  0  0  0  0  0  0  0
   57.2218   32.2124   47.3227 H   0  0  0  0  0  0  0  0  0  0  0  0
  1  2  1  0
  2  3  1  0
  3  4  2  0
  4  5  1  0
  5  6  1  0
  6  7  1  0
  5  8  2  0
  8  9  1  0
  9 10  1  0
 10 11  1  0
 11 12  2  0
 12 13  1  0
 13 14  2  0
 14 15  1  0
 14 16  1  0
 16 17  2  0
  9 18  2  0
 18  3  1  0
 17 11  1  0
  1 19  1  0
  1 20  1  0
  1 21  1  0
  4 22  1  0
  7 23  1  0
  7 24  1  0
  7 25  1  0
 12 26  1  0
 13 27  1  0
 16 28  1  0
 17 29  1  0
M  END
>  <UniqueID>  (12) 
12

>  <SMILES>  (12) 
COc1cc(OC)nc(Oc2ccc(F)cc2)n1

>  <Energy>  (12) 
30.529350449365612

>  <Genealogy>  (12) 
COc1cc(OC)nc(Oc2ccc(F)cc2)n1 (3D coordinates assigned)
COc1cc(OC)nc(Oc2ccc(F)cc2)n1 (optimized conformer: 30.529350449365612 kcal/mol)

>  <smiles>  (12) 
COc1cc(OC)nc(Oc2ccc(F)cc2)n1

>  <score_type>  (12) 
oracle

>  <origin>  (12) 
adg

>  <m_score__min__energy>  (12) 
-6.0499999999999998

>  <m_primary>  (12) 
energy

$$$$
12:0
     RDKit          3D

 37 39  0  0  1  0  0  0  0  0999 V2000
   59.6080   25.6250   46.1730 C   0  0  0  0  0  0  0  0  0  0  0  0
   58.7690   26.5470   47.4970 S   0  0  0  0  0  0  0  0  0  0  0  0
   59.6960   28.0630   47.7340 C   0  0  0  0  0  0  0  0  0  0  0  0
   60.2880   28.3600   48.9670 C   0  0  0  0  0  0  0  0  0  0  0  0
   61.0010   29.5530   49.1090 C   0  0  0  0  0  0  0  0  0  0  0  0
   61.1350   30.4470   48.0560 C   0  0  0  0  0  0  0  0  0  0  0  0
   60.5420   30.1490   46.8230 C   0  0  0  0  0  0  0  0  0  0  0  0
   59.8200   28.9540   46.6580 C   0  0  0  0  0  0  0  0  0  0  0  0
   59.2600   28.5950   45.4150 N   0  0  0  0  0  0  0  0  0  0  0  0
   58.3390   29.1970   44.8080 C   0  0  0  0  0  0  0  0  0  0  0  0
   57.9800   30.4280   45.2480 N   0  0  0  0  0  0  0  0  0  0  0  0
   56.9990   31.1260   44.6410 C   0  0  0  0  0  0  0  0  0  0  0  0
   56.7080   32.3770   45.1680 O   0  0  0  0  0  0  0  0  0  0  0  0
   57.6580   33.2470   45.6810 C   0  0  0  0  0  0  0  0  0  0  0  0
   57.9370   33.2060   47.0290 C   0  0  0  0  0  0  0  0  0  0  0  0
   58.8820   34.0700   47.5410 C   0  0  0  0  0  0  0  0  0  0  0  0
   59.5410   34.9620   46.7120 C   0  0  0  0  0  0  0  0  0  0  0  0
   59.2640   35.0100   45.3430 C   0  0  0  0  0  0  0  0  0  0  0  0
   58.3060   34.1340   44.8230 C   0  0  0  0  0  0  0  0  0  0  0  0
   56.3620   30.6010   43.5800 N   0  0  0  0  0  0  0  0  0  0  0  0
   56.7100   29.3690   43.1260 C   0  0  0  0  0  0  0  0  0  0  0  0
   57.7030   28.6440   43.7300 C   0  0  0  0  0  0  0  0  0  0  0  0
   58.1340   26.9390   43.0460 Br  0  0  0  0  0  0  0  0  0  0  0  0
   60.2854   24.8806   46.6170 H   0  0  0  0  0  0  0  0  0  0  0  0
   58.8588   25.1138   45.5506 H   0  0  0  0  0  0  0  0  0  0  0  0
   60.1874   26.3228   45.5506 H   0  0  0  0  0  0  0  0  0  0  0  0
   60.1931   27.6634   49.8130 H   0  0  0  0  0  0  0  0  0  0  0  0
   61.4667   29.7890   50.0772 H   0  0  0  0  0  0  0  0  0  0  0  0
   61.7015   31.3805   48.1887 H   0  0  0  0  0  0  0  0  0  0  0  0
   60.6412   30.8511   45.9820 H   0  0  0  0  0  0  0  0  0  0  0  0
   57.4145   32.4956   47.6866 H   0  0  0  0  0  0  0  0  0  0  0  0
   59.1140   34.0504   48.6161 H   0  0  0  0  0  0  0  0  0  0  0  0
   60.2934   35.6426   47.1370 H   0  0  0  0  0  0  0  0  0  0  0  0
   59.7884   35.7217   44.6884 H   0  0  0  0  0  0  0  0  0  0  0  0
   58.0666   34.1448   43.7494 H   0  0  0  0  0  0  0  0  0  0  0  0
   55.6080   31.1440   43.1150 H   0  0  0  0  0  0  0  0  0  0  0  0
   56.1847   28.9456   42.2572 H   0  0  0  0  0  0  0  0  0  0  0  0
  1  2  1  0
  2  3  1  0
  3  4  2  0
  4  5  1  0
  5  6  2  0
  6  7  1  0
  7  8  2  0
  8  9  1  0
  9 10  2  0
 10 11  1  0
 11 12  2  0
 12 13  1  0
 13 14  1  0
 14 15  2  0
 15 16  1  0
 16 17  2  0
 17 18  1  0
 18 19  2  0
 12 20  1  0
 20 21  1  0
 21 22  2  0
 22 23  1  0
  8  3  1  0
 22 10  1  0
 19 14  1  0
  1 24  1  0
  1 25  1  0
  1 26  1  0
  4 27  1  0
  5 28  1  0
  6 29  1  0
  7 30  1  0
 15 31  1  0
 16 32  1  0
 17 33  1  0
 18 34  1  0
 19 35  1  0
 20 36  1  0
 21 37  1  0
M  END
>  <smiles>  (13) 
CSc1ccccc1N=c1nc(Oc2ccccc2)[nH]cc1Br

>  <score_type>  (13) 
oracle

>  <origin>  (13) 
adg

>  <m_score__min__energy>  (13) 
-7.7599999999999998

>  <m_primary>  (13) 
energy

$$$$
13:0
     RDKit          3D

 35 36  0  0  0  0  0  0  0  0999 V2000
   58.4490   32.4590   41.1660 C   0  0  0  0  0  0  0  0  0  0  0  0
   57.0390   31.9770   41.4970 C   0  0  0  0  0  0  0  0  0  0  0  0
   57.0500   31.1010   42.6810 N   0  0  0  0  0  0  0  0  0  0  0  0
   56.3080   29.8310   42.6350 C   0  0  0  0  0  0  0  0  0  0  0  0
   55.3520   29.7130   43.8200 C   0  0  0  0  0  0  0  0  0  0  0  0
   57.7790   31.4760   43.8730 C   0  0  0  0  0  0  0  0  0  0  0  0
   58.4490   30.5000   44.6330 C   0  0  0  0  0  0  0  0  0  0  0  0
   59.1460   30.8510   45.7910 C   0  0  0  0  0  0  0  0  0  0  0  0
   59.1880   32.1870   46.2110 C   0  0  0  0  0  0  0  0  0  0  0  0
   59.8800   32.5600   47.3710 C   0  0  0  0  0  0  0  0  0  0  0  0
   59.9250   33.8700   47.7620 N   0  0  0  0  0  0  0  0  0  0  0  0
   60.6230   34.2310   48.9980 C   0  0  0  0  0  0  0  0  0  0  0  0
   59.2680   34.8340   47.0490 C   0  0  0  0  0  0  0  0  0  0  0  0
   58.5660   34.5070   45.8880 C   0  0  0  0  0  0  0  0  0  0  0  0
   58.5220   33.1760   45.4590 C   0  0  0  0  0  0  0  0  0  0  0  0
   57.8240   32.8180   44.2950 C   0  0  0  0  0  0  0  0  0  0  0  0
   59.0005   32.6475   42.0989 H   0  0  0  0  0  0  0  0  0  0  0  0
   58.9718   31.6885   40.5803 H   0  0  0  0  0  0  0  0  0  0  0  0
   58.3908   33.3883   40.5803 H   0  0  0  0  0  0  0  0  0  0  0  0
   56.3982   32.8480   41.6988 H   0  0  0  0  0  0  0  0  0  0  0  0
   56.6512   31.4066   40.6401 H   0  0  0  0  0  0  0  0  0  0  0  0
   55.7298   29.7858   41.7003 H   0  0  0  0  0  0  0  0  0  0  0  0
   57.0291   29.0017   42.6823 H   0  0  0  0  0  0  0  0  0  0  0  0
   55.9212   29.7833   44.7587 H   0  0  0  0  0  0  0  0  0  0  0  0
   54.6131   30.5268   43.7774 H   0  0  0  0  0  0  0  0  0  0  0  0
   54.8331   28.7440   43.7774 H   0  0  0  0  0  0  0  0  0  0  0  0
   58.4236   29.4484   44.3114 H   0  0  0  0  0  0  0  0  0  0  0  0
   59.6637   30.0761   46.3753 H   0  0  0  0  0  0  0  0  0  0  0  0
   60.3910   31.7933   47.9719 H   0  0  0  0  0  0  0  0  0  0  0  0
   60.0204   33.9193   49.8638 H   0  0  0  0  0  0  0  0  0  0  0  0
   61.5990   33.7246   49.0292 H   0  0  0  0  0  0  0  0  0  0  0  0
   60.7738   35.3202   49.0292 H   0  0  0  0  0  0  0  0  0  0  0  0
   59.2930   35.8782   47.3940 H   0  0  0  0  0  0  0  0  0  0  0  0
   58.0505   35.2909   45.3137 H   0  0  0  0  0  0  0  0  0  0  0  0
   57.3082   33.5922   43.7081 H   0  0  0  0  0  0  0  0  0  0  0  0
  1  2  1  0
  2  3  1  0
  3  4  1  0
  4  5  1  0
  3  6  1  0
  6  7  2  0
  7  8  1  0
  8  9  2  0
  9 10  1  0
 10 11  2  0
 11 12  1  0
 11 13  1  0
 13 14  2  0
 14 15  1  0
 15 16  2  0
 16  6  1  0
 15  9  1  0
  1 17  1  0
  1 18  1  0
  1 19  1  0
  2 20  1  0
  2 21  1  0
  4 22  1  0
  4 23  1  0
  5 24  1  0
  5 25  1  0
  5 26  1  0
  7 27  1  0
  8 28  1  0
 10 29  1  0
 12 30  1  0
 12 31  1  0
 12 32  1  0
 13 33  1  0
 14 34  1  0
 16 35  1  0
M  CHG  1  11   1
M  END
>  <UniqueID>  (14) 
13

>  <SMILES>  (14) 
CCN(CC)c1ccc2c[n+](C)ccc2c1

>  <Energy>  (14) 
35.56968637300512

>  <Genealogy>  (14) 
CCN(CC)c1ccc2c[n+](C)ccc2c1 (3D coordinates assigned)
CCN(CC)c1ccc2c[n+](C)ccc2c1 (optimized conformer: 35.56968637300512 kcal/mol)

>  <smiles>  (14) 
CCN(CC)c1ccc2c[n+](C)ccc2c1

>  <score_type>  (14) 
oracle

>  <origin>  (14) 
adg

>  <m_score__min__energy>  (14) 
-4.3499999999999996

>  <m_primary>  (14) 
energy

$$$$
14:0
     RDKit          3D

 35 37  0  0  0  0  0  0  0  0999 V2000
   56.5912   34.0386   46.8475 H   0  0  0  0  0  0  0  0  0  0  0  0
   57.3890   33.2920   46.7210 C   0  0  0  0  0  0  0  0  0  0  0  0
   58.3440   33.1520   47.6770 N   0  0  0  0  0  0  0  0  0  0  0  0
   59.3450   32.2420   47.5550 C   0  0  0  0  0  0  0  0  0  0  0  0
   60.1046   32.1525   48.3456 H   0  0  0  0  0  0  0  0  0  0  0  0
   59.4120   31.4190   46.4270 C   0  0  0  0  0  0  0  0  0  0  0  0
   60.2262   30.6864   46.3252 H   0  0  0  0  0  0  0  0  0  0  0  0
   58.4330   31.5320   45.4220 C   0  0  0  0  0  0  0  0  0  0  0  0
   58.4810   30.6910   44.1570 C   0  0  2  0  0  0  0  0  0  0  0  0
   59.5555   30.5632   43.9590 H   0  0  0  0  0  0  0  0  0  0  0  0
   57.6290   31.5410   42.7810 S   0  0  0  0  0  0  0  0  0  0  0  0
   56.2940   30.3000   42.7090 C   0  0  0  0  0  0  0  0  0  0  0  0
   56.4009   29.6970   41.7952 H   0  0  0  0  0  0  0  0  0  0  0  0
   55.3179   30.8071   42.6972 H   0  0  0  0  0  0  0  0  0  0  0  0
   56.3860   29.3960   43.9290 C   0  0  0  0  0  0  0  0  0  0  0  0
   55.9793   28.4014   43.6939 H   0  0  0  0  0  0  0  0  0  0  0  0
   55.8057   29.8079   44.7678 H   0  0  0  0  0  0  0  0  0  0  0  0
   57.8600   29.2860   44.2900 C   0  0  2  0  0  0  0  0  0  0  0  0
   58.3833   28.6138   43.5941 H   0  0  0  0  0  0  0  0  0  0  0  0
   58.0760   28.6190   45.6370 C   0  0  0  0  0  0  0  0  0  0  0  0
   59.2260   28.6080   46.1520 O   0  0  0  0  0  0  0  0  0  0  0  0
   57.0190   27.9210   46.3100 N   0  0  0  0  0  0  0  0  0  0  0  0
   56.5250   26.7730   45.9520 C   0  0  0  0  0  0  0  0  0  0  0  0
   55.2200   26.4430   46.0170 N   0  0  0  0  0  0  0  0  0  0  0  0
   55.1280   25.1860   45.6160 N   0  0  0  0  0  0  0  0  0  0  0  0
   53.8690   24.4700   45.4750 C   0  0  0  0  0  0  0  0  0  0  0  0
   53.4644   24.2399   46.4717 H   0  0  0  0  0  0  0  0  0  0  0  0
   53.1514   25.0951   44.9234 H   0  0  0  0  0  0  0  0  0  0  0  0
   54.0394   23.5337   44.9234 H   0  0  0  0  0  0  0  0  0  0  0  0
   56.3460   24.7120   45.2880 C   0  0  0  0  0  0  0  0  0  0  0  0
   56.5613   23.7018   44.9098 H   0  0  0  0  0  0  0  0  0  0  0  0
   57.2780   25.7060   45.5060 C   0  0  0  0  0  0  0  0  0  0  0  0
   58.3671   25.6589   45.3587 H   0  0  0  0  0  0  0  0  0  0  0  0
   57.4180   32.4900   45.5780 C   0  0  0  0  0  0  0  0  0  0  0  0
   56.6477   32.6084   44.8018 H   0  0  0  0  0  0  0  0  0  0  0  0
  1  2  1  0
  2  3  2  0
  3  4  1  0
  4  5  1  0
  4  6  2  0
  6  7  1  0
  6  8  1  0
  8  9  1  0
  9 10  1  6
  9 11  1  0
 11 12  1  0
 12 13  1  0
 12 14  1  0
 12 15  1  0
 15 16  1  0
 15 17  1  0
 15 18  1  0
 18 19  1  6
 18 20  1  0
 20 21  2  0
 20 22  1  0
 22 23  2  0
 23 24  1  0
 24 25  1  0
 25 26  1  0
 26 27  1  0
 26 28  1  0
 26 29  1  0
 25 30  1  0
 30 31  1  0
 30 32  2  0
 32 33  1  0
  8 34  2  0
 34 35  1  0
 34  2  1  0
 18  9  1  0
 32 23  1  0
M  CHG  1  24  -1
M  END
>  <UniqueID>  (15) 
14

>  <SMILES>  (15) 
Cn1cc/c(=N/C(=O)[C@H]2CCS[C@H]2c2ccncc2)[n-]1

>  <Energy>  (15) 
71.94408403800965

>  <Genealogy>  (15) 
Cn1ccc(=NC(=O)C2CCSC2c2ccncc2)[n-]1 (protonated)
Cn1ccc(=NC(=O)[C@H]2CCS[C@H]2c2ccncc2)[n-]1 (chirality)
Cn1cc/c(=N/C(=O)[C@H]2CCS[C@H]2c2ccncc2)[n-]1 (cis-trans isomerization)
Cn1cc/c(=N/C(=O)[C@H]2CCS[C@H]2c2ccncc2)[n-]1 (3D coordinates assigned)
Cn1cc/c(=N/C(=O)[C@H]2CCS[C@H]2c2ccncc2)[n-]1 (nonaromatic ring conformer: 71.94408403800965 kcal/mol)

>  <smiles>  (15) 
Cn1ccc(=NC(=O)C2CCSC2c2ccncc2)[nH]1

>  <score_type>  (15) 
oracle

>  <origin>  (15) 
adg

>  <m_score__min__energy>  (15) 
-9.0299999999999994

>  <m_primary>  (15) 
energy

$$$$
15:0
     RDKit          3D

 45 48  0  0  0  0  0  0  0  0999 V2000
   65.0930   32.9900   50.2550 C   0  0  0  0  0  0  0  0  0  0  0  0
   63.6700   33.0660   50.2720 O   0  0  0  0  0  0  0  0  0  0  0  0
   62.8320   32.4090   49.3590 C   0  0  0  0  0  0  0  0  0  0  0  0
   62.9030   32.6330   47.9710 C   0  0  0  0  0  0  0  0  0  0  0  0
   62.0460   31.9520   47.1010 C   0  0  0  0  0  0  0  0  0  0  0  0
   61.1150   31.0250   47.5990 C   0  0  0  0  0  0  0  0  0  0  0  0
   60.1820   30.3100   46.7030 C   0  0  0  0  0  0  0  0  0  0  0  0
   60.5810   29.2970   45.8930 N   0  0  0  0  0  0  0  0  0  0  0  0
   59.4620   28.9590   45.2190 C   0  0  0  0  0  0  0  0  0  0  0  0
   59.3690   27.9650   44.2470 C   0  0  0  0  0  0  0  0  0  0  0  0
   58.1250   27.7770   43.6230 C   0  0  0  0  0  0  0  0  0  0  0  0
   57.0240   28.5790   43.9760 C   0  0  0  0  0  0  0  0  0  0  0  0
   57.1760   29.5670   44.9590 C   0  0  0  0  0  0  0  0  0  0  0  0
   58.3940   29.7070   45.5470 N   0  0  0  0  0  0  0  0  0  0  0  0
   58.8250   30.5630   46.4900 C   0  0  0  0  0  0  0  0  0  0  0  0
   58.0360   31.6450   47.0280 N   0  0  0  0  0  0  0  0  0  0  0  0
   58.5540   32.9450   46.6390 C   0  0  0  0  0  0  0  0  0  0  0  0
   59.2710   33.7370   47.5650 C   0  0  0  0  0  0  0  0  0  0  0  0
   59.7980   34.9740   47.1970 C   0  0  0  0  0  0  0  0  0  0  0  0
   59.6420   35.4410   45.8950 C   0  0  0  0  0  0  0  0  0  0  0  0
   58.9730   34.6640   44.9500 C   0  0  0  0  0  0  0  0  0  0  0  0
   58.4420   33.4090   45.2970 C   0  0  0  0  0  0  0  0  0  0  0  0
   57.7560   32.5960   44.2310 C   0  0  0  0  0  0  0  0  0  0  0  0
   61.0330   30.8210   48.9860 C   0  0  0  0  0  0  0  0  0  0  0  0
   61.8900   31.5020   49.8550 C   0  0  0  0  0  0  0  0  0  0  0  0
   65.4715   32.9698   51.2876 H   0  0  0  0  0  0  0  0  0  0  0  0
   65.4050   32.0739   49.7321 H   0  0  0  0  0  0  0  0  0  0  0  0
   65.5008   33.8676   49.7321 H   0  0  0  0  0  0  0  0  0  0  0  0
   63.6364   33.3474   47.5688 H   0  0  0  0  0  0  0  0  0  0  0  0
   62.1011   32.1433   46.0192 H   0  0  0  0  0  0  0  0  0  0  0  0
   60.2397   27.3490   43.9778 H   0  0  0  0  0  0  0  0  0  0  0  0
   58.0107   26.9986   42.8542 H   0  0  0  0  0  0  0  0  0  0  0  0
   56.0511   28.4318   43.4843 H   0  0  0  0  0  0  0  0  0  0  0  0
   56.3325   30.2117   45.2469 H   0  0  0  0  0  0  0  0  0  0  0  0
   57.0400   31.5760   46.7250 H   0  0  0  0  0  0  0  0  0  0  0  0
   58.0500   31.5220   48.0630 H   0  0  0  0  0  0  0  0  0  0  0  0
   59.4153   33.3713   48.5923 H   0  0  0  0  0  0  0  0  0  0  0  0
   60.3383   35.5824   47.9372 H   0  0  0  0  0  0  0  0  0  0  0  0
   60.0468   36.4237   45.6114 H   0  0  0  0  0  0  0  0  0  0  0  0
   58.8593   35.0370   43.9214 H   0  0  0  0  0  0  0  0  0  0  0  0
   57.1156   31.8370   44.7040 H   0  0  0  0  0  0  0  0  0  0  0  0
   57.1393   33.2578   43.6052 H   0  0  0  0  0  0  0  0  0  0  0  0
   58.5121   32.0994   43.6052 H   0  0  0  0  0  0  0  0  0  0  0  0
   60.2887   30.1199   49.3915 H   0  0  0  0  0  0  0  0  0  0  0  0
   61.8230   31.3231   50.9383 H   0  0  0  0  0  0  0  0  0  0  0  0
  1  2  1  0
  2  3  1  0
  3  4  2  0
  4  5  1  0
  5  6  2  0
  6  7  1  0
  7  8  1  0
  8  9  2  0
  9 10  1  0
 10 11  2  0
 11 12  1  0
 12 13  2  0
 13 14  1  0
 14 15  1  0
 15 16  1  0
 16 17  1  0
 17 18  2  0
 18 19  1  0
 19 20  2  0
 20 21  1  0
 21 22  2  0
 22 23  1  0
  6 24  1  0
 24 25  2  0
 25  3  1  0
 15  7  2  0
 22 17  1  0
 14  9  1  0
  1 26  1  0
  1 27  1  0
  1 28  1  0
  4 29  1  0
  5 30  1  0
 10 31  1  0
 11 32  1  0
 12 33  1  0
 13 34  1  0
 16 35  1  0
 16 36  1  0
 18 37  1  0
 19 38  1  0
 20 39  1  0
 21 40  1  0
 23 41  1  0
 23 42  1  0
 23 43  1  0
 24 44  1  0
 25 45  1  0
M  CHG  1  16   1
M  END
>  <UniqueID>  (16) 
15

>  <SMILES>  (16) 
COc1ccc(-c2nc3ccccn3c2[NH2+]c2ccccc2C)cc1

>  <Energy>  (16) 
94.41795693386908

>  <Genealogy>  (16) 
COc1ccc(-c2nc3ccccn3c2[NH2+]c2ccccc2C)cc1 (protonated)
COc1ccc(-c2nc3ccccn3c2[NH2+]c2ccccc2C)cc1 (3D coordinates assigned)
COc1ccc(-c2nc3ccccn3c2[NH2+]c2ccccc2C)cc1 (optimized conformer: 94.41795693386908 kcal/mol)

>  <smiles>  (16) 
COc1ccc(-c2nc3ccccn3c2Nc2ccccc2C)cc1

>  <score_type>  (16) 
oracle

>  <origin>  (16) 
adg

>  <m_score__min__energy>  (16) 
-5.7699999999999996

>  <m_primary>  (16) 
energy

$$$$
16:0
     RDKit          3D

 39 41  0  0  0  0  0  0  0  0999 V2000
   64.1390   32.6360   48.6210 C   0  0  0  0  0  0  0  0  0  0  0  0
   62.7780   32.7320   47.9970 C   0  0  0  0  0  0  0  0  0  0  0  0
   61.7120   31.9750   48.5050 C   0  0  0  0  0  0  0  0  0  0  0  0
   60.4360   32.0910   47.9460 C   0  0  0  0  0  0  0  0  0  0  0  0
   60.2050   32.9670   46.8720 C   0  0  0  0  0  0  0  0  0  0  0  0
   58.8890   33.0810   46.3030 N   0  0  0  0  0  0  0  0  0  0  0  0
   58.1070   34.1770   46.2830 C   0  0  0  0  0  0  0  0  0  0  0  0
   56.9070   33.8900   45.7530 N   0  0  0  0  0  0  0  0  0  0  0  0
   56.8860   32.6040   45.4390 N   0  0  0  0  0  0  0  0  0  0  0  0
   58.0980   32.1200   45.7730 C   0  0  0  0  0  0  0  0  0  0  0  0
   58.5240   30.3810   45.6460 S   0  0  0  0  0  0  0  0  0  0  0  0
   57.4990   30.0900   44.1650 C   0  0  0  0  0  0  0  0  0  0  0  0
   56.1220   29.7210   44.6000 C   0  0  0  0  0  0  0  0  0  0  0  0
   55.1750   30.5410   44.4490 O   0  0  0  0  0  0  0  0  0  0  0  0
   55.8980   28.4640   45.2450 N   0  0  0  0  0  0  0  0  0  0  0  0
   56.9740   27.5820   45.6800 C   0  0  0  0  0  0  0  0  0  0  0  0
   56.4770   26.1740   45.7600 C   0  0  0  0  0  0  0  0  0  0  0  0
   57.2510   25.0380   45.6340 C   0  0  0  0  0  0  0  0  0  0  0  0
   56.3850   23.9800   45.8070 C   0  0  0  0  0  0  0  0  0  0  0  0
   55.1410   24.5350   46.0280 C   0  0  0  0  0  0  0  0  0  0  0  0
   55.2270   25.8450   45.9960 O   0  0  0  0  0  0  0  0  0  0  0  0
   61.2680   33.7470   46.3890 C   0  0  0  0  0  0  0  0  0  0  0  0
   62.5440   33.6340   46.9490 C   0  0  0  0  0  0  0  0  0  0  0  0
   64.0413   32.6429   49.7166 H   0  0  0  0  0  0  0  0  0  0  0  0
   64.6236   31.7014   48.3019 H   0  0  0  0  0  0  0  0  0  0  0  0
   64.7500   33.4933   48.3019 H   0  0  0  0  0  0  0  0  0  0  0  0
   61.8808   31.2872   49.3467 H   0  0  0  0  0  0  0  0  0  0  0  0
   59.6065   31.4920   48.3500 H   0  0  0  0  0  0  0  0  0  0  0  0
   58.4090   35.1691   46.6497 H   0  0  0  0  0  0  0  0  0  0  0  0
   56.1080   34.5490   45.6190 H   0  0  0  0  0  0  0  0  0  0  0  0
   57.4616   31.0049   43.5554 H   0  0  0  0  0  0  0  0  0  0  0  0
   57.9321   29.2768   43.5641 H   0  0  0  0  0  0  0  0  0  0  0  0
   57.8034   27.6356   44.9594 H   0  0  0  0  0  0  0  0  0  0  0  0
   57.3234   27.8997   46.6735 H   0  0  0  0  0  0  0  0  0  0  0  0
   58.3320   24.9878   45.4369 H   0  0  0  0  0  0  0  0  0  0  0  0
   56.6349   22.9092   45.7753 H   0  0  0  0  0  0  0  0  0  0  0  0
   54.2164   23.9657   46.2044 H   0  0  0  0  0  0  0  0  0  0  0  0
   61.0953   34.4528   45.5632 H   0  0  0  0  0  0  0  0  0  0  0  0
   63.3674   34.2549   46.5662 H   0  0  0  0  0  0  0  0  0  0  0  0
  1  2  1  0
  2  3  2  0
  3  4  1  0
  4  5  2  0
  5  6  1  0
  6  7  1  0
  7  8  2  0
  8  9  1  0
  9 10  2  0
 10 11  1  0
 11 12  1  0
 12 13  1  0
 13 14  2  0
 13 15  1  0
 15 16  1  0
 16 17  1  0
 17 18  2  0
 18 19  1  0
 19 20  2  0
 20 21  1  0
  5 22  1  0
 22 23  2  0
 23  2  1  0
 10  6  1  0
 21 17  1  0
  1 24  1  0
  1 25  1  0
  1 26  1  0
  3 27  1  0
  4 28  1  0
  7 29  1  0
  8 30  1  0
 12 31  1  0
 12 32  1  0
 16 33  1  0
 16 34  1  0
 18 35  1  0
 19 36  1  0
 20 37  1  0
 22 38  1  0
 23 39  1  0
M  CHG  2   8   1  15  -1
M  END
>  <UniqueID>  (17) 
16

>  <SMILES>  (17) 
Cc1ccc(-n2c[nH+]nc2SCC(=O)[N-]Cc2ccco2)cc1

>  <Energy>  (17) 
97.58853477843603

>  <Genealogy>  (17) 
Cc1ccc(-n2c[nH+]nc2SCC(=O)[N-]Cc2ccco2)cc1 (protonated)
Cc1ccc(-n2c[nH+]nc2SCC(=O)[N-]Cc2ccco2)cc1 (3D coordinates assigned)
Cc1ccc(-n2c[nH+]nc2SCC(=O)[N-]Cc2ccco2)cc1 (optimized conformer: 97.58853477843603 kcal/mol)

>  <smiles>  (17) 
Cc1ccc(-n2cnnc2SCC(=O)NCc2ccco2)cc1

>  <score_type>  (17) 
oracle

>  <origin>  (17) 
adg

>  <m_score__min__energy>  (17) 
-9.3300000000000001

>  <m_primary>  (17) 
energy

$$$$
17:0
     RDKit          3D

 26 28  0  0  0  0  0  0  0  0999 V2000
   60.1280   34.4460   49.3550 F   0  0  0  0  0  0  0  0  0  0  0  0
   61.3340   34.0810   48.8510 C   0  0  0  0  0  0  0  0  0  0  0  0
   62.4270   33.9900   49.7180 C   0  0  0  0  0  0  0  0  0  0  0  0
   63.6480   33.6270   49.2450 N   0  0  0  0  0  0  0  0  0  0  0  0
   63.8460   33.3460   47.9320 C   0  0  0  0  0  0  0  0  0  0  0  0
   62.7840   33.4240   47.0290 C   0  0  0  0  0  0  0  0  0  0  0  0
   61.5050   33.7970   47.4820 C   0  0  0  0  0  0  0  0  0  0  0  0
   60.3680   33.8840   46.5320 C   0  0  0  0  0  0  0  0  0  0  0  0
   59.7740   32.8080   45.9680 N   0  0  0  0  0  0  0  0  0  0  0  0
   58.7510   33.1400   45.1290 C   0  0  0  0  0  0  0  0  0  0  0  0
   57.9720   32.0940   44.4120 C   0  0  0  0  0  0  0  0  0  0  0  0
   57.7750   32.1990   43.0220 C   0  0  0  0  0  0  0  0  0  0  0  0
   57.0440   31.2180   42.3460 C   0  0  0  0  0  0  0  0  0  0  0  0
   56.5250   30.1640   43.0250 N   0  0  0  0  0  0  0  0  0  0  0  0
   56.6960   30.0290   44.3660 C   0  0  0  0  0  0  0  0  0  0  0  0
   57.4190   30.9860   45.0830 C   0  0  0  0  0  0  0  0  0  0  0  0
   58.5230   34.5150   45.0200 C   0  0  0  0  0  0  0  0  0  0  0  0
   59.6350   35.3040   46.0010 S   0  0  0  0  0  0  0  0  0  0  0  0
   62.2980   34.2132   50.7874 H   0  0  0  0  0  0  0  0  0  0  0  0
   64.8463   33.0559   47.5782 H   0  0  0  0  0  0  0  0  0  0  0  0
   62.9468   33.1943   45.9656 H   0  0  0  0  0  0  0  0  0  0  0  0
   58.1957   33.0517   42.4688 H   0  0  0  0  0  0  0  0  0  0  0  0
   56.8889   31.3007   41.2601 H   0  0  0  0  0  0  0  0  0  0  0  0
   56.2638   29.1633   44.8892 H   0  0  0  0  0  0  0  0  0  0  0  0
   57.5559   30.8743   46.1687 H   0  0  0  0  0  0  0  0  0  0  0  0
   57.7512   34.9956   44.4008 H   0  0  0  0  0  0  0  0  0  0  0  0
  1  2  1  0
  2  3  2  0
  3  4  1  0
  4  5  2  0
  5  6  1  0
  6  7  2  0
  7  8  1  0
  8  9  2  0
  9 10  1  0
 10 11  1  0
 11 12  2  0
 12 13  1  0
 13 14  2  0
 14 15  1  0
 15 16  2  0
 10 17  2  0
 17 18  1  0
  7  2  1  0
 18  8  1  0
 16 11  1  0
  3 19  1  0
  5 20  1  0
  6 21  1  0
 12 22  1  0
 13 23  1  0
 15 24  1  0
 16 25  1  0
 17 26  1  0
M  END
>  <UniqueID>  (18) 
17

>  <SMILES>  (18) 
Fc1cnccc1-c1nc(-c2ccncc2)cs1

>  <Energy>  (18) 
64.48556269628034

>  <Genealogy>  (18) 
Fc1cnccc1-c1nc(-c2ccncc2)cs1 (3D coordinates assigned)
Fc1cnccc1-c1nc(-c2ccncc2)cs1 (optimized conformer: 64.48556269628034 kcal/mol)

>  <smiles>  (18) 
Fc1cnccc1-c1nc(-c2ccncc2)cs1

>  <score_type>  (18) 
oracle

>  <origin>  (18) 
adg

>  <m_score__min__energy>  (18) 
-6.4299999999999997

>  <m_primary>  (18) 
energy

$$$$
18:0
     RDKit          3D

 51 52  0  0  0  0  0  0  0  0999 V2000
   55.7505   30.8346   42.8923 H   0  0  0  0  0  0  0  0  0  0  0  0
   56.6560   30.7570   43.5120 C   0  0  0  0  0  0  0  0  0  0  0  0
   56.7620   29.6560   44.4880 C   0  0  0  0  0  0  0  0  0  0  0  0
   55.7040   29.0930   44.8790 O   0  0  0  0  0  0  0  0  0  0  0  0
   58.0330   29.2010   44.9910 N   0  0  0  0  0  0  0  0  0  0  0  0
   58.8790   28.3710   44.1250 C   0  0  0  0  0  0  0  0  0  0  0  0
   59.7819   28.0762   44.6798 H   0  0  0  0  0  0  0  0  0  0  0  0
   59.1485   28.9561   43.2334 H   0  0  0  0  0  0  0  0  0  0  0  0
   58.1340   27.1110   43.6750 C   0  0  0  0  0  0  0  0  0  0  0  0
   58.7641   26.5566   42.9640 H   0  0  0  0  0  0  0  0  0  0  0  0
   57.1894   27.4162   43.2011 H   0  0  0  0  0  0  0  0  0  0  0  0
   57.8090   26.2080   44.8600 C   0  0  0  0  0  0  0  0  0  0  0  0
   58.0038   26.7492   45.7976 H   0  0  0  0  0  0  0  0  0  0  0  0
   56.7493   25.9159   44.8186 H   0  0  0  0  0  0  0  0  0  0  0  0
   58.4395   25.3076   44.8186 H   0  0  0  0  0  0  0  0  0  0  0  0
   58.4930   29.5530   46.3470 C   0  0  0  0  0  0  0  0  0  0  0  0
   57.7022   30.1307   46.8479 H   0  0  0  0  0  0  0  0  0  0  0  0
   58.7099   28.6144   46.8781 H   0  0  0  0  0  0  0  0  0  0  0  0
   59.7860   30.3920   46.3380 C   0  0  0  0  0  0  0  0  0  0  0  0
   60.4890   29.9404   45.6225 H   0  0  0  0  0  0  0  0  0  0  0  0
   59.5042   31.4172   46.0560 H   0  0  0  0  0  0  0  0  0  0  0  0
   60.4750   30.4740   47.7120 C   0  0  0  0  0  0  0  0  0  0  0  0
   59.7338   30.2491   48.4931 H   0  0  0  0  0  0  0  0  0  0  0  0
   61.2997   29.7461   47.7182 H   0  0  0  0  0  0  0  0  0  0  0  0
   61.0510   31.8120   47.9740 N   0  0  0  0  0  0  0  0  0  0  0  0
   61.0470   32.6630   46.7590 C   0  0  0  0  0  0  0  0  0  0  0  0
   61.1996   32.0257   45.8755 H   0  0  0  0  0  0  0  0  0  0  0  0
   60.0789   33.1823   46.7041 H   0  0  0  0  0  0  0  0  0  0  0  0
   62.1600   33.7210   46.8100 C   0  0  0  0  0  0  0  0  0  0  0  0
   62.0936   34.3403   45.9034 H   0  0  0  0  0  0  0  0  0  0  0  0
   62.0072   34.3077   47.7278 H   0  0  0  0  0  0  0  0  0  0  0  0
   63.4660   33.1660   46.8810 O   0  0  0  0  0  0  0  0  0  0  0  0
   63.5160   31.9080   47.5410 C   0  0  0  0  0  0  0  0  0  0  0  0
   63.4292   31.1152   46.7834 H   0  0  0  0  0  0  0  0  0  0  0  0
   64.4719   31.8688   48.0839 H   0  0  0  0  0  0  0  0  0  0  0  0
   62.4000   31.7080   48.5830 C   0  0  0  0  0  0  0  0  0  0  0  0
   62.5102   30.7115   49.0357 H   0  0  0  0  0  0  0  0  0  0  0  0
   62.4945   32.4997   49.3408 H   0  0  0  0  0  0  0  0  0  0  0  0
   57.6280   31.6650   43.3570 C   0  0  0  0  0  0  0  0  0  0  0  0
   58.2028   31.6504   42.4192 H   0  0  0  0  0  0  0  0  0  0  0  0
   57.9780   32.6900   44.3720 C   0  0  0  0  0  0  0  0  0  0  0  0
   57.3640   32.6180   45.6350 C   0  0  0  0  0  0  0  0  0  0  0  0
   56.6485   31.8103   45.8488 H   0  0  0  0  0  0  0  0  0  0  0  0
   57.6560   33.5650   46.6210 C   0  0  0  0  0  0  0  0  0  0  0  0
   57.1741   33.4958   47.6074 H   0  0  0  0  0  0  0  0  0  0  0  0
   58.5570   34.5980   46.3580 C   0  0  0  0  0  0  0  0  0  0  0  0
   58.7886   35.3386   47.1376 H   0  0  0  0  0  0  0  0  0  0  0  0
   59.1640   34.6900   45.1040 C   0  0  0  0  0  0  0  0  0  0  0  0
   59.8709   35.5066   44.8956 H   0  0  0  0  0  0  0  0  0  0  0  0
   58.8760   33.7470   44.1120 C   0  0  0  0  0  0  0  0  0  0  0  0
   59.3521   33.8298   43.1238 H   0  0  0  0  0  0  0  0  0  0  0  0
  1  2  1  0
  2  3  1  0
  3  4  2  0
  3  5  1  0
  5  6  1  0
  6  7  1  0
  6  8  1  0
  6  9  1  0
  9 10  1  0
  9 11  1  0
  9 12  1  0
 12 13  1  0
 12 14  1  0
 12 15  1  0
  5 16  1  0
 16 17  1  0
 16 18  1  0
 16 19  1  0
 19 20  1  0
 19 21  1  0
 19 22  1  0
 22 23  1  0
 22 24  1  0
 22 25  1  0
 25 26  1  0
 26 27  1  0
 26 28  1  0
 26 29  1  0
 29 30  1  0
 29 31  1  0
 29 32  1  0
 32 33  1  0
 33 34  1  0
 33 35  1  0
 33 36  1  0
 36 37  1  0
 36 38  1  0
  2 39  2  0
 39 40  1  0
 39 41  1  0
 41 42  2  0
 42 43  1  0
 42 44  1  0
 44 45  1  0
 44 46  2  0
 46 47  1  0
 46 48  1  0
 48 49  1  0
 48 50  2  0
 50 51  1  0
 36 25  1  0
 50 41  1  0
M  END
>  <UniqueID>  (19) 
18

>  <SMILES>  (19) 
CCCN(CCCN1CCOCC1)C(=O)/C=C/c1ccccc1

>  <Energy>  (19) 
60.86394077584977

>  <Genealogy>  (19) 
CCCN(CCCN1CCOCC1)C(=O)/C=C/c1ccccc1 (cis-trans isomerization)
CCCN(CCCN1CCOCC1)C(=O)/C=C/c1ccccc1 (3D coordinates assigned)
CCCN(CCCN1CCOCC1)C(=O)/C=C/c1ccccc1 (nonaromatic ring conformer: 60.86394077584977 kcal/mol)

>  <smiles>  (19) 
CCCN(CCCN1CCOCC1)C(=O)C=Cc1ccccc1

>  <score_type>  (19) 
oracle

>  <origin>  (19) 
adg

>  <m_score__min__energy>  (19) 
-7.6399999999999997

>  <m_primary>  (19) 
energy

$$$$
19:0
     RDKit          3D

 49 51  0  0  0  0  0  0  0  0999 V2000
   59.1910   28.2150   45.4590 C   0  0  0  0  0  0  0  0  0  0  0  0
   57.7260   28.6760   45.5100 C   0  0  0  0  0  0  0  0  0  0  0  0
   57.6410   30.0500   44.9470 C   0  0  0  0  0  0  0  0  0  0  0  0
   57.8070   30.3080   43.6410 N   0  0  0  0  0  0  0  0  0  0  0  0
   57.6730   31.6400   43.4400 C   0  0  0  0  0  0  0  0  0  0  0  0
   57.7810   32.3590   42.1350 C   0  0  0  0  0  0  0  0  0  0  0  0
   57.4180   32.1690   44.6920 C   0  0  0  0  0  0  0  0  0  0  0  0
   57.2060   33.6270   44.9170 C   0  0  0  0  0  0  0  0  0  0  0  0
   58.2580   34.2260   45.7150 N   0  0  0  0  0  0  0  0  0  0  0  0
   58.1280   33.7490   47.0550 C   0  0  0  0  0  0  0  0  0  0  0  0
   59.2440   32.8900   47.5500 C   0  0  0  0  0  0  0  0  0  0  0  0
   60.5100   33.4940   47.2650 N   0  0  0  0  0  0  0  0  0  0  0  0
   61.5400   33.3800   48.2400 C   0  0  0  0  0  0  0  0  0  0  0  0
   61.6650   34.2560   49.2890 C   0  0  0  0  0  0  0  0  0  0  0  0
   62.6570   34.1720   50.2470 C   0  0  0  0  0  0  0  0  0  0  0  0
   63.5910   33.1440   50.1570 C   0  0  0  0  0  0  0  0  0  0  0  0
   63.4790   32.2470   49.0970 C   0  0  0  0  0  0  0  0  0  0  0  0
   62.4800   32.3510   48.1520 C   0  0  0  0  0  0  0  0  0  0  0  0
   62.3350   31.4800   47.0890 O   0  0  0  0  0  0  0  0  0  0  0  0
   61.3830   30.4680   46.9760 C   0  0  0  0  0  0  0  0  0  0  0  0
   60.7030   34.1990   46.0010 C   0  0  0  0  0  0  0  0  0  0  0  0
   59.5110   33.8210   45.1460 C   0  0  0  0  0  0  0  0  0  0  0  0
   57.4000   31.1760   45.6190 N   0  0  0  0  0  0  0  0  0  0  0  0
   59.5734   28.0947   46.4834 H   0  0  0  0  0  0  0  0  0  0  0  0
   59.2546   27.2534   44.9286 H   0  0  0  0  0  0  0  0  0  0  0  0
   59.7937   28.9669   44.9286 H   0  0  0  0  0  0  0  0  0  0  0  0
   57.1016   27.9927   44.9157 H   0  0  0  0  0  0  0  0  0  0  0  0
   57.3671   28.6731   46.5498 H   0  0  0  0  0  0  0  0  0  0  0  0
   57.9421   33.4314   42.3194 H   0  0  0  0  0  0  0  0  0  0  0  0
   58.6284   31.9541   41.5623 H   0  0  0  0  0  0  0  0  0  0  0  0
   56.8520   32.2209   41.5623 H   0  0  0  0  0  0  0  0  0  0  0  0
   57.1725   34.1331   43.9409 H   0  0  0  0  0  0  0  0  0  0  0  0
   56.2611   33.7456   45.4676 H   0  0  0  0  0  0  0  0  0  0  0  0
   58.0550   34.6231   47.7188 H   0  0  0  0  0  0  0  0  0  0  0  0
   57.2338   33.1084   47.0586 H   0  0  0  0  0  0  0  0  0  0  0  0
   59.1433   32.7577   48.6374 H   0  0  0  0  0  0  0  0  0  0  0  0
   59.1937   31.9158   47.0416 H   0  0  0  0  0  0  0  0  0  0  0  0
   60.9327   35.0726   49.3719 H   0  0  0  0  0  0  0  0  0  0  0  0
   62.7077   34.9044   51.0661 H   0  0  0  0  0  0  0  0  0  0  0  0
   64.3945   33.0427   50.9014 H   0  0  0  0  0  0  0  0  0  0  0  0
   64.2105   31.4300   49.0111 H   0  0  0  0  0  0  0  0  0  0  0  0
   61.0750   30.1406   47.9800 H   0  0  0  0  0  0  0  0  0  0  0  0
   60.5072   30.8478   46.4294 H   0  0  0  0  0  0  0  0  0  0  0  0
   61.8156   29.6170   46.4294 H   0  0  0  0  0  0  0  0  0  0  0  0
   60.7292   35.2862   46.1664 H   0  0  0  0  0  0  0  0  0  0  0  0
   61.6546   33.9269   45.5210 H   0  0  0  0  0  0  0  0  0  0  0  0
   59.6199   34.3008   44.1622 H   0  0  0  0  0  0  0  0  0  0  0  0
   59.4970   32.7237   45.0704 H   0  0  0  0  0  0  0  0  0  0  0  0
   57.2310   31.2920   46.6450 H   0  0  0  0  0  0  0  0  0  0  0  0
  1  2  1  0
  2  3  1  0
  3  4  2  0
  4  5  1  0
  5  6  1  0
  5  7  2  0
  7  8  1  0
  8  9  1  0
  9 10  1  0
 10 11  1  0
 11 12  1  0
 12 13  1  0
 13 14  2  0
 14 15  1  0
 15 16  2  0
 16 17  1  0
 17 18  2  0
 18 19  1  0
 19 20  1  0
 12 21  1  0
 21 22  1  0
  7 23  1  0
 23  3  1  0
 22  9  1  0
 18 13  1  0
  1 24  1  0
  1 25  1  0
  1 26  1  0
  2 27  1  0
  2 28  1  0
  6 29  1  0
  6 30  1  0
  6 31  1  0
  8 32  1  0
  8 33  1  0
 10 34  1  0
 10 35  1  0
 11 36  1  0
 11 37  1  0
 14 38  1  0
 15 39  1  0
 16 40  1  0
 17 41  1  0
 20 42  1  0
 20 43  1  0
 20 44  1  0
 21 45  1  0
 21 46  1  0
 22 47  1  0
 22 48  1  0
 23 49  1  0
M  END
>  <smiles>  (20) 
CCc1nc(C)c(CN2CCN(c3ccccc3OC)CC2)[nH]1

>  <score_type>  (20) 
oracle

>  <origin>  (20) 
adg

>  <m_score__min__energy>  (20) 
-6.7999999999999998

>  <m_primary>  (20) 
energy

$$$$
20:0
     RDKit          3D

 44 47  0  0  0  0  0  0  0  0999 V2000
   63.7770   33.0000   47.3580 C   0  0  0  0  0  0  0  0  0  0  0  0
   63.2050   33.8440   46.4020 C   0  0  0  0  0  0  0  0  0  0  0  0
   61.8210   34.0440   46.3760 C   0  0  0  0  0  0  0  0  0  0  0  0
   60.9960   33.3950   47.3120 C   0  0  0  0  0  0  0  0  0  0  0  0
   59.5960   33.5480   47.3390 C   0  0  0  0  0  0  0  0  0  0  0  0
   58.7190   34.5960   46.1660 S   0  0  0  0  0  0  0  0  0  0  0  0
   57.2970   33.4630   45.9790 C   0  0  0  0  0  0  0  0  0  0  0  0
   57.3940   32.6740   44.6700 C   0  0  0  0  0  0  0  0  0  0  0  0
   56.9880   31.2710   44.8750 N   0  0  0  0  0  0  0  0  0  0  0  0
   56.7040   30.5700   43.6140 C   0  0  0  0  0  0  0  0  0  0  0  0
   57.0630   29.1030   43.8190 C   0  0  0  0  0  0  0  0  0  0  0  0
   57.8220   29.0480   45.1340 C   0  0  0  0  0  0  0  0  0  0  0  0
   58.0530   30.4970   45.5150 C   0  0  0  0  0  0  0  0  0  0  0  0
   58.8690   32.8900   48.2780 N   0  0  0  0  0  0  0  0  0  0  0  0
   59.4490   32.0700   49.1950 C   0  0  0  0  0  0  0  0  0  0  0  0
   58.6150   31.3560   50.1910 C   0  0  0  0  0  0  0  0  0  0  0  0
   58.9440   30.0530   50.6020 C   0  0  0  0  0  0  0  0  0  0  0  0
   58.1470   29.4000   51.5460 C   0  0  0  0  0  0  0  0  0  0  0  0
   57.0570   30.0220   52.0660 N   0  0  0  0  0  0  0  0  0  0  0  0
   56.7110   31.2820   51.6920 C   0  0  0  0  0  0  0  0  0  0  0  0
   57.4810   31.9710   50.7510 C   0  0  0  0  0  0  0  0  0  0  0  0
   60.7990   31.9050   49.1830 N   0  0  0  0  0  0  0  0  0  0  0  0
   61.5810   32.5420   48.2750 C   0  0  0  0  0  0  0  0  0  0  0  0
   62.9680   32.3490   48.2920 C   0  0  0  0  0  0  0  0  0  0  0  0
   64.8663   32.8482   47.3748 H   0  0  0  0  0  0  0  0  0  0  0  0
   63.8459   34.3530   45.6671 H   0  0  0  0  0  0  0  0  0  0  0  0
   61.3768   34.7103   45.6219 H   0  0  0  0  0  0  0  0  0  0  0  0
   57.2845   32.7586   46.8238 H   0  0  0  0  0  0  0  0  0  0  0  0
   56.3729   34.0594   45.9617 H   0  0  0  0  0  0  0  0  0  0  0  0
   56.7336   33.1351   43.9208 H   0  0  0  0  0  0  0  0  0  0  0  0
   58.4375   32.6928   44.3225 H   0  0  0  0  0  0  0  0  0  0  0  0
   55.6373   30.6648   43.3628 H   0  0  0  0  0  0  0  0  0  0  0  0
   57.2888   31.0019   42.7885 H   0  0  0  0  0  0  0  0  0  0  0  0
   56.1520   28.4890   43.8755 H   0  0  0  0  0  0  0  0  0  0  0  0
   57.6641   28.7107   42.9854 H   0  0  0  0  0  0  0  0  0  0  0  0
   57.2254   28.5363   45.9036 H   0  0  0  0  0  0  0  0  0  0  0  0
   58.7652   28.4893   45.0434 H   0  0  0  0  0  0  0  0  0  0  0  0
   58.0042   30.6149   46.6076 H   0  0  0  0  0  0  0  0  0  0  0  0
   59.0454   30.8405   45.1878 H   0  0  0  0  0  0  0  0  0  0  0  0
   59.8265   29.5485   50.1817 H   0  0  0  0  0  0  0  0  0  0  0  0
   58.4028   28.3800   51.8688 H   0  0  0  0  0  0  0  0  0  0  0  0
   55.8230   31.7605   52.1309 H   0  0  0  0  0  0  0  0  0  0  0  0
   57.2010   32.9911   50.4493 H   0  0  0  0  0  0  0  0  0  0  0  0
   63.4209   31.6838   49.0420 H   0  0  0  0  0  0  0  0  0  0  0  0
  1  2  2  0
  2  3  1  0
  3  4  2  0
  4  5  1  0
  5  6  1  0
  6  7  1  0
  7  8  1  0
  8  9  1  0
  9 10  1  0
 10 11  1  0
 11 12  1  0
 12 13  1  0
  5 14  2  0
 14 15  1  0
 15 16  1  0
 16 17  2  0
 17 18  1  0
 18 19  2  0
 19 20  1  0
 20 21  2  0
 15 22  2  0
 22 23  1  0
 23 24  2  0
 24  1  1  0
 23  4  1  0
 13  9  1  0
 21 16  1  0
  1 25  1  0
  2 26  1  0
  3 27  1  0
  7 28  1  0
  7 29  1  0
  8 30  1  0
  8 31  1  0
 10 32  1  0
 10 33  1  0
 11 34  1  0
 11 35  1  0
 12 36  1  0
 12 37  1  0
 13 38  1  0
 13 39  1  0
 17 40  1  0
 18 41  1  0
 20 42  1  0
 21 43  1  0
 24 44  1  0
M  END
>  <UniqueID>  (21) 
19

>  <SMILES>  (21) 
c1ccc2c(SCCN3CCCC3)nc(-c3ccncc3)nc2c1

>  <Energy>  (21) 
50.36742582460503

>  <Genealogy>  (21) 
c1ccc2c(SCCN3CCCC3)nc(-c3ccncc3)nc2c1 (3D coordinates assigned)
c1ccc2c(SCCN3CCCC3)nc(-c3ccncc3)nc2c1 (nonaromatic ring conformer: 50.36742582460503 kcal/mol)

>  <smiles>  (21) 
c1ccc2c(SCCN3CCCC3)nc(-c3ccncc3)nc2c1

>  <score_type>  (21) 
oracle

>  <origin>  (21) 
adg

>  <m_score__min__energy>  (21) 
-8.1799999999999997

>  <m_primary>  (21) 
energy

$$$$
21:0
     RDKit          3D

 37 39  0  0  0  0  0  0  0  0999 V2000
   63.4140   33.0730   47.2320 C   0  0  0  0  0  0  0  0  0  0  0  0
   62.1390   33.0280   47.8620 O   0  0  0  0  0  0  0  0  0  0  0  0
   60.9150   33.1050   47.1790 C   0  0  0  0  0  0  0  0  0  0  0  0
   60.6130   34.1540   46.2900 C   0  0  0  0  0  0  0  0  0  0  0  0
   59.3750   34.1940   45.6430 C   0  0  0  0  0  0  0  0  0  0  0  0
   58.4150   33.1970   45.8840 C   0  0  0  0  0  0  0  0  0  0  0  0
   57.0540   33.2770   45.2430 C   0  0  0  0  0  0  0  0  0  0  0  0
   56.5070   31.9440   44.9940 N   0  0  0  0  0  0  0  0  0  0  0  0
   57.0870   30.9500   44.1380 C   0  0  0  0  0  0  0  0  0  0  0  0
   57.3190   31.2400   42.9350 O   0  0  0  0  0  0  0  0  0  0  0  0
   57.4760   29.6230   44.6430 C   0  0  0  0  0  0  0  0  0  0  0  0
   58.8380   29.3110   44.7700 C   0  0  0  0  0  0  0  0  0  0  0  0
   59.2370   28.0910   45.3210 C   0  0  0  0  0  0  0  0  0  0  0  0
   58.2740   27.1640   45.7410 C   0  0  0  0  0  0  0  0  0  0  0  0
   58.6480   25.9400   46.3100 C   0  0  0  0  0  0  0  0  0  0  0  0
   57.6650   25.0350   46.7160 C   0  0  0  0  0  0  0  0  0  0  0  0
   56.3180   25.3630   46.5490 C   0  0  0  0  0  0  0  0  0  0  0  0
   55.9680   26.5550   45.9970 N   0  0  0  0  0  0  0  0  0  0  0  0
   56.9000   27.4600   45.5930 C   0  0  0  0  0  0  0  0  0  0  0  0
   56.5040   28.6850   45.0380 C   0  0  0  0  0  0  0  0  0  0  0  0
   55.1500   28.9660   44.8770 O   0  0  0  0  0  0  0  0  0  0  0  0
   58.7260   32.1420   46.7550 C   0  0  0  0  0  0  0  0  0  0  0  0
   59.9670   32.1000   47.3970 C   0  0  0  0  0  0  0  0  0  0  0  0
   64.2015   33.1008   47.9995 H   0  0  0  0  0  0  0  0  0  0  0  0
   63.5448   32.1789   46.6047 H   0  0  0  0  0  0  0  0  0  0  0  0
   63.4814   33.9741   46.6047 H   0  0  0  0  0  0  0  0  0  0  0  0
   61.3543   34.9451   46.1040 H   0  0  0  0  0  0  0  0  0  0  0  0
   59.1509   35.0107   44.9411 H   0  0  0  0  0  0  0  0  0  0  0  0
   56.3740   33.8245   45.9122 H   0  0  0  0  0  0  0  0  0  0  0  0
   57.1532   33.7981   44.2794 H   0  0  0  0  0  0  0  0  0  0  0  0
   59.5971   30.0323   44.4332 H   0  0  0  0  0  0  0  0  0  0  0  0
   60.3070   27.8581   45.4251 H   0  0  0  0  0  0  0  0  0  0  0  0
   59.7123   25.6925   46.4366 H   0  0  0  0  0  0  0  0  0  0  0  0
   57.9495   24.0714   47.1638 H   0  0  0  0  0  0  0  0  0  0  0  0
   55.5379   24.6548   46.8650 H   0  0  0  0  0  0  0  0  0  0  0  0
   57.9899   31.3443   46.9335 H   0  0  0  0  0  0  0  0  0  0  0  0
   60.2000   31.2694   48.0795 H   0  0  0  0  0  0  0  0  0  0  0  0
  1  2  1  0
  2  3  1  0
  3  4  2  0
  4  5  1  0
  5  6  2  0
  6  7  1  0
  7  8  1  0
  8  9  1  0
  9 10  2  0
  9 11  1  0
 11 12  2  0
 12 13  1  0
 13 14  2  0
 14 15  1  0
 15 16  2  0
 16 17  1  0
 17 18  2  0
 18 19  1  0
 19 20  2  0
 20 21  1  0
  6 22  1  0
 22 23  2  0
 23  3  1  0
 20 11  1  0
 19 14  1  0
  1 24  1  0
  1 25  1  0
  1 26  1  0
  4 27  1  0
  5 28  1  0
  7 29  1  0
  7 30  1  0
 12 31  1  0
 13 32  1  0
 15 33  1  0
 16 34  1  0
 17 35  1  0
 22 36  1  0
 23 37  1  0
M  CHG  2   8  -1  21  -1
M  END
>  <UniqueID>  (22) 
20

>  <SMILES>  (22) 
COc1ccc(C[N-]C(=O)c2ccc3cccnc3c2[O-])cc1

>  <Energy>  (22) 
45.233160653655474

>  <Genealogy>  (22) 
COc1ccc(C[N-]C(=O)c2ccc3cccnc3c2[O-])cc1 (protonated)
COc1ccc(C[N-]C(=O)c2ccc3cccnc3c2[O-])cc1 (3D coordinates assigned)
COc1ccc(C[N-]C(=O)c2ccc3cccnc3c2[O-])cc1 (optimized conformer: 45.233160653655474 kcal/mol)

>  <smiles>  (22) 
COc1ccc(CNC(=O)c2ccc3cccnc3c2O)cc1

>  <score_type>  (22) 
oracle

>  <origin>  (22) 
adg

>  <m_score__min__energy>  (22) 
-12.94

>  <m_primary>  (22) 
energy

$$$$
22:0
     RDKit          3D

 42 45  0  0  0  0  0  0  0  0999 V2000
   63.3540   32.4430   47.0770 C   0  0  0  0  0  0  0  0  0  0  0  0
   61.9560   32.5270   47.5090 N   0  0  0  0  0  0  0  0  0  0  0  0
   61.4440   33.9030   47.4250 C   0  0  0  0  0  0  0  0  0  0  0  0
   60.8170   34.1920   46.0510 C   0  0  0  0  0  0  0  0  0  0  0  0
   59.8100   33.1630   45.6970 N   0  0  0  0  0  0  0  0  0  0  0  0
   58.7500   33.6950   44.8400 C   0  0  2  0  0  0  0  0  0  0  0  0
   57.6360   34.2270   45.7390 C   0  0  0  0  0  0  0  0  0  0  0  0
   57.7880   33.4510   47.0280 C   0  0  0  0  0  0  0  0  0  0  0  0
   59.0920   32.6530   46.8680 C   0  0  1  0  0  0  0  0  0  0  0  0
   58.8310   31.2000   46.6900 N   0  0  0  0  0  0  0  0  0  0  0  0
   59.4190   30.3290   47.5860 C   0  0  0  0  0  0  0  0  0  0  0  0
   60.3700   30.7010   48.3280 O   0  0  0  0  0  0  0  0  0  0  0  0
   58.9730   29.0180   47.7080 C   0  0  0  0  0  0  0  0  0  0  0  0
   57.9100   28.5800   46.9420 C   0  0  0  0  0  0  0  0  0  0  0  0
   57.3640   29.4120   45.9620 C   0  0  0  0  0  0  0  0  0  0  0  0
   56.2850   28.9580   45.1830 C   0  0  0  0  0  0  0  0  0  0  0  0
   55.7090   27.7120   45.4090 O   0  0  0  0  0  0  0  0  0  0  0  0
   55.7750   29.7560   44.1700 C   0  0  0  0  0  0  0  0  0  0  0  0
   56.3790   30.9680   43.8650 C   0  0  0  0  0  0  0  0  0  0  0  0
   57.4750   31.4510   44.6050 C   0  0  0  0  0  0  0  0  0  0  0  0
   57.9180   30.7130   45.7570 C   0  0  0  0  0  0  0  0  0  0  0  0
   58.2700   32.5650   43.9310 C   0  0  0  0  0  0  0  0  0  0  0  0
   64.0089   32.4037   47.9599 H   0  0  0  0  0  0  0  0  0  0  0  0
   63.4973   31.5346   46.4734 H   0  0  0  0  0  0  0  0  0  0  0  0
   63.6050   33.3277   46.4734 H   0  0  0  0  0  0  0  0  0  0  0  0
   61.3930   31.9400   46.8500 H   0  0  0  0  0  0  0  0  0  0  0  0
   60.6802   34.0476   48.2032 H   0  0  0  0  0  0  0  0  0  0  0  0
   62.2883   34.5931   47.5694 H   0  0  0  0  0  0  0  0  0  0  0  0
   60.3292   35.1775   46.0788 H   0  0  0  0  0  0  0  0  0  0  0  0
   61.6139   34.1764   45.2929 H   0  0  0  0  0  0  0  0  0  0  0  0
   59.0999   34.5224   44.2051 H   0  0  0  0  0  0  0  0  0  0  0  0
   57.7613   35.3052   45.9170 H   0  0  0  0  0  0  0  0  0  0  0  0
   56.6397   34.1017   45.2899 H   0  0  0  0  0  0  0  0  0  0  0  0
   57.8585   34.1370   47.8850 H   0  0  0  0  0  0  0  0  0  0  0  0
   56.9255   32.7948   47.2165 H   0  0  0  0  0  0  0  0  0  0  0  0
   59.6910   32.7764   47.7823 H   0  0  0  0  0  0  0  0  0  0  0  0
   59.4651   28.3313   48.4125 H   0  0  0  0  0  0  0  0  0  0  0  0
   57.4932   27.5750   47.1041 H   0  0  0  0  0  0  0  0  0  0  0  0
   54.8892   29.4276   43.6065 H   0  0  0  0  0  0  0  0  0  0  0  0
   55.9924   31.5648   43.0258 H   0  0  0  0  0  0  0  0  0  0  0  0
   59.1562   32.1101   43.4644 H   0  0  0  0  0  0  0  0  0  0  0  0
   57.5747   33.0343   43.2195 H   0  0  0  0  0  0  0  0  0  0  0  0
  1  2  1  0
  2  3  1  0
  3  4  1  0
  4  5  1  0
  5  6  1  0
  6  7  1  0
  7  8  1  0
  8  9  1  0
  9 10  1  0
 10 11  1  0
 11 12  2  0
 11 13  1  0
 13 14  2  0
 14 15  1  0
 15 16  1  0
 16 17  1  0
 16 18  2  0
 18 19  1  0
 19 20  2  0
 20 21  1  0
 20 22  1  0
  9  5  1  0
 21 10  1  0
 22  6  1  0
 21 15  2  0
  1 23  1  0
  1 24  1  0
  1 25  1  0
  2 26  1  0
  3 27  1  0
  3 28  1  0
  4 29  1  0
  4 30  1  0
  6 31  1  6
  7 32  1  0
  7 33  1  0
  8 34  1  0
  8 35  1  0
  9 36  1  1
 13 37  1  0
 14 38  1  0
 18 39  1  0
 19 40  1  0
 22 41  1  0
 22 42  1  0
M  CHG  1  17  -1
M  END
>  <UniqueID>  (23) 
21

>  <SMILES>  (23) 
CNCCN1[C@@H]2CC[C@H]1n1c(=O)ccc3c([O-])ccc(c31)C2

>  <Energy>  (23) 
76.26020746971164

>  <Genealogy>  (23) 
CNCCN1C2CCC1n1c(=O)ccc3c([O-])ccc(c31)C2 (protonated)
CNCCN1[C@@H]2CC[C@H]1n1c(=O)ccc3c([O-])ccc(c31)C2 (chirality)
CNCCN1[C@@H]2CC[C@H]1n1c(=O)ccc3c([O-])ccc(c31)C2 (3D coordinates assigned)
CNCCN1[C@@H]2CC[C@H]1n1c(=O)ccc3c([O-])ccc(c31)C2 (nonaromatic ring conformer: 76.26020746971164 kcal/mol)

>  <smiles>  (23) 
CNCCN1C2CCC1n1c(=O)ccc3c(O)ccc(c31)C2

>  <score_type>  (23) 
oracle

>  <origin>  (23) 
adg

>  <m_score__min__energy>  (23) 
-9.2699999999999996

>  <m_primary>  (23) 
energy

$$$$
23:0
     RDKit          3D

 48 51  0  0  0  0  0  0  0  0999 V2000
   55.1660   26.7130   45.9890 O   0  0  0  0  0  0  0  0  0  0  0  0
   56.0230   25.8990   46.4310 C   0  0  0  0  0  0  0  0  0  0  0  0
   57.4710   26.2840   46.4580 C   0  0  0  0  0  0  0  0  0  0  0  0
   57.8980   26.9870   45.1600 C   0  0  0  0  0  0  0  0  0  0  0  0
   57.0550   28.1640   44.8970 N   0  0  0  0  0  0  0  0  0  0  0  0
   57.4660   29.5460   45.0110 C   0  0  0  0  0  0  0  0  0  0  0  0
   56.6490   30.5400   44.4410 C   0  0  0  0  0  0  0  0  0  0  0  0
   56.9830   31.8910   44.5550 C   0  0  0  0  0  0  0  0  0  0  0  0
   58.1290   32.2730   45.2530 C   0  0  0  0  0  0  0  0  0  0  0  0
   58.9560   31.3020   45.8480 C   0  0  0  0  0  0  0  0  0  0  0  0
   60.1480   31.7070   46.6250 C   0  0  0  0  0  0  0  0  0  0  0  0
   60.8250   32.8640   46.3940 N   0  0  0  0  0  0  0  0  0  0  0  0
   61.8130   32.8120   47.3010 C   0  0  0  0  0  0  0  0  0  0  0  0
   62.8420   33.7320   47.4920 C   0  0  0  0  0  0  0  0  0  0  0  0
   63.7920   33.4500   48.4940 C   0  0  0  0  0  0  0  0  0  0  0  0
   63.6950   32.2640   49.2600 C   0  0  0  0  0  0  0  0  0  0  0  0
   62.6420   31.3570   49.0300 C   0  0  0  0  0  0  0  0  0  0  0  0
   61.7220   31.6700   48.0320 C   0  0  0  0  0  0  0  0  0  0  0  0
   60.6670   30.9470   47.6300 N   0  0  0  0  0  0  0  0  0  0  0  0
   58.6280   29.9410   45.7100 C   0  0  0  0  0  0  0  0  0  0  0  0
   55.6190   24.6130   46.9160 N   0  0  0  0  0  0  0  0  0  0  0  0
   54.7390   23.7140   46.1770 C   0  0  0  0  0  0  0  0  0  0  0  0
   55.4950   23.0220   45.0750 C   0  0  0  0  0  0  0  0  0  0  0  0
   55.5220   23.5760   43.7850 C   0  0  0  0  0  0  0  0  0  0  0  0
   56.2700   22.9680   42.7670 C   0  0  0  0  0  0  0  0  0  0  0  0
   56.9910   21.8000   43.0350 C   0  0  0  0  0  0  0  0  0  0  0  0
   56.9350   21.2180   44.3060 C   0  0  0  0  0  0  0  0  0  0  0  0
   56.1850   21.8230   45.3220 C   0  0  0  0  0  0  0  0  0  0  0  0
   57.6429   26.9646   47.3049 H   0  0  0  0  0  0  0  0  0  0  0  0
   58.0675   25.3656   46.5620 H   0  0  0  0  0  0  0  0  0  0  0  0
   58.9459   27.3083   45.2527 H   0  0  0  0  0  0  0  0  0  0  0  0
   57.7845   26.2804   44.3246 H   0  0  0  0  0  0  0  0  0  0  0  0
   56.1270   27.9660   44.4580 H   0  0  0  0  0  0  0  0  0  0  0  0
   55.7368   30.2493   43.8994 H   0  0  0  0  0  0  0  0  0  0  0  0
   56.3411   32.6558   44.0934 H   0  0  0  0  0  0  0  0  0  0  0  0
   58.3876   33.3387   45.3387 H   0  0  0  0  0  0  0  0  0  0  0  0
   62.9103   34.6453   46.8827 H   0  0  0  0  0  0  0  0  0  0  0  0
   64.6141   34.1562   48.6819 H   0  0  0  0  0  0  0  0  0  0  0  0
   64.4437   32.0499   50.0369 H   0  0  0  0  0  0  0  0  0  0  0  0
   62.5493   30.4325   49.6188 H   0  0  0  0  0  0  0  0  0  0  0  0
   59.2837   29.1760   46.1513 H   0  0  0  0  0  0  0  0  0  0  0  0
   54.3320   22.9591   46.8658 H   0  0  0  0  0  0  0  0  0  0  0  0
   53.9226   24.3022   45.7325 H   0  0  0  0  0  0  0  0  0  0  0  0
   54.9527   24.4928   43.5719 H   0  0  0  0  0  0  0  0  0  0  0  0
   56.2898   23.4088   41.7594 H   0  0  0  0  0  0  0  0  0  0  0  0
   57.6027   21.3385   42.2458 H   0  0  0  0  0  0  0  0  0  0  0  0
   57.4806   20.2843   44.5074 H   0  0  0  0  0  0  0  0  0  0  0  0
   56.1358   21.3578   46.3176 H   0  0  0  0  0  0  0  0  0  0  0  0
  1  2  2  0
  2  3  1  0
  3  4  1  0
  4  5  1  0
  5  6  1  0
  6  7  2  0
  7  8  1  0
  8  9  2  0
  9 10  1  0
 10 11  1  0
 11 12  2  0
 12 13  1  0
 13 14  2  0
 14 15  1  0
 15 16  2  0
 16 17  1  0
 17 18  2  0
 18 19  1  0
 10 20  2  0
  2 21  1  0
 21 22  1  0
 22 23  1  0
 23 24  2  0
 24 25  1  0
 25 26  2  0
 26 27  1  0
 27 28  2  0
 20  6  1  0
 28 23  1  0
 19 11  1  0
 18 13  1  0
  3 29  1  0
  3 30  1  0
  4 31  1  0
  4 32  1  0
  5 33  1  0
  7 34  1  0
  8 35  1  0
  9 36  1  0
 14 37  1  0
 15 38  1  0
 16 39  1  0
 17 40  1  0
 20 41  1  0
 22 42  1  0
 22 43  1  0
 24 44  1  0
 25 45  1  0
 26 46  1  0
 27 47  1  0
 28 48  1  0
M  CHG  2  19  -1  21  -1
M  END
>  <UniqueID>  (24) 
22

>  <SMILES>  (24) 
O=C(CCNc1cccc(-c2nc3ccccc3[n-]2)c1)[N-]Cc1ccccc1

>  <Energy>  (24) 
79.50365596464864

>  <Genealogy>  (24) 
O=C(CCNc1cccc(-c2nc3ccccc3[n-]2)c1)[N-]Cc1ccccc1 (protonated)
O=C(CCNc1cccc(-c2nc3ccccc3[n-]2)c1)[N-]Cc1ccccc1 (3D coordinates assigned)
O=C(CCNc1cccc(-c2nc3ccccc3[n-]2)c1)[N-]Cc1ccccc1 (optimized conformer: 79.50365596464864 kcal/mol)

>  <smiles>  (24) 
O=C(CCNc1cccc(-c2nc3ccccc3[nH]2)c1)NCc1ccccc1

>  <score_type>  (24) 
oracle

>  <origin>  (24) 
adg

>  <m_score__min__energy>  (24) 
-11.75

>  <m_primary>  (24) 
energy

$$$$
24:0
     RDKit          3D

 52 55  0  0  0  0  0  0  0  0999 V2000
   56.0730   30.1720   44.0670 C   0  0  0  0  0  0  0  0  0  0  0  0
   57.0490   30.9250   44.8750 N   0  0  0  0  0  0  0  0  0  0  0  0
   56.7550   32.3770   44.8740 C   0  0  0  0  0  0  0  0  0  0  0  0
   57.7940   33.2070   45.6030 C   0  0  0  0  0  0  0  0  0  0  0  0
   57.9250   33.1210   46.9980 C   0  0  0  0  0  0  0  0  0  0  0  0
   58.8820   33.9040   47.6500 C   0  0  0  0  0  0  0  0  0  0  0  0
   59.6850   34.7360   46.9350 N   0  0  0  0  0  0  0  0  0  0  0  0
   59.5870   34.8320   45.5830 C   0  0  0  0  0  0  0  0  0  0  0  0
   58.6400   34.0730   44.8930 C   0  0  0  0  0  0  0  0  0  0  0  0
   58.4580   30.6430   44.5000 C   0  0  0  0  0  0  0  0  0  0  0  0
   59.0950   29.4690   45.3110 C   0  0  2  0  0  0  0  0  0  0  0  0
   59.1710   28.1690   44.4670 C   0  0  0  0  0  0  0  0  0  0  0  0
   58.5010   27.1320   45.1430 O   0  0  0  0  0  0  0  0  0  0  0  0
   57.5760   27.7570   45.9910 C   0  0  0  0  0  0  0  0  0  0  0  0
   58.1980   29.0600   46.4610 C   0  0  1  0  0  0  0  0  0  0  0  0
   59.1170   28.8630   47.6650 C   0  0  0  0  0  0  0  0  0  0  0  0
   60.3200   29.6630   47.4380 N   0  0  0  0  0  0  0  0  0  0  0  0
   60.3850   30.9070   48.2460 C   0  0  0  0  0  0  0  0  0  0  0  0
   61.6090   31.7670   47.9900 C   0  0  0  0  0  0  0  0  0  0  0  0
   62.7560   31.6190   48.7900 C   0  0  0  0  0  0  0  0  0  0  0  0
   63.8730   32.4190   48.5480 C   0  0  0  0  0  0  0  0  0  0  0  0
   63.8380   33.3690   47.5300 C   0  0  0  0  0  0  0  0  0  0  0  0
   62.6770   33.5120   46.7690 C   0  0  0  0  0  0  0  0  0  0  0  0
   61.5930   32.7260   47.0170 N   0  0  0  0  0  0  0  0  0  0  0  0
   60.4400   29.8590   45.9850 C   0  0  0  0  0  0  0  0  0  0  0  0
   55.3801   29.6374   44.7334 H   0  0  0  0  0  0  0  0  0  0  0  0
   55.5066   30.8694   43.4323 H   0  0  0  0  0  0  0  0  0  0  0  0
   56.6039   29.4472   43.4323 H   0  0  0  0  0  0  0  0  0  0  0  0
   56.7048   32.7210   43.8304 H   0  0  0  0  0  0  0  0  0  0  0  0
   55.8018   32.5136   45.4057 H   0  0  0  0  0  0  0  0  0  0  0  0
   57.2790   32.4421   47.5741 H   0  0  0  0  0  0  0  0  0  0  0  0
   58.9855   33.8469   48.7436 H   0  0  0  0  0  0  0  0  0  0  0  0
   60.2553   35.5093   45.0311 H   0  0  0  0  0  0  0  0  0  0  0  0
   58.5574   34.1532   43.7990 H   0  0  0  0  0  0  0  0  0  0  0  0
   58.4890   30.3851   43.4311 H   0  0  0  0  0  0  0  0  0  0  0  0
   59.0410   31.5476   44.7275 H   0  0  0  0  0  0  0  0  0  0  0  0
   58.6948   28.3376   43.4899 H   0  0  0  0  0  0  0  0  0  0  0  0
   60.2243   27.8894   44.3176 H   0  0  0  0  0  0  0  0  0  0  0  0
   56.6434   27.9613   45.4446 H   0  0  0  0  0  0  0  0  0  0  0  0
   57.3362   27.1102   46.8478 H   0  0  0  0  0  0  0  0  0  0  0  0
   57.4131   29.7777   46.7417 H   0  0  0  0  0  0  0  0  0  0  0  0
   58.6109   29.1985   48.5822 H   0  0  0  0  0  0  0  0  0  0  0  0
   59.3761   27.8006   47.7838 H   0  0  0  0  0  0  0  0  0  0  0  0
   59.4913   31.5079   48.0221 H   0  0  0  0  0  0  0  0  0  0  0  0
   60.4421   30.5911   49.2981 H   0  0  0  0  0  0  0  0  0  0  0  0
   62.7724   30.8769   49.6018 H   0  0  0  0  0  0  0  0  0  0  0  0
   64.7794   32.2998   49.1598 H   0  0  0  0  0  0  0  0  0  0  0  0
   64.7162   33.9999   47.3280 H   0  0  0  0  0  0  0  0  0  0  0  0
   62.6373   34.2625   45.9658 H   0  0  0  0  0  0  0  0  0  0  0  0
   60.7330   32.8860   46.4490 H   0  0  0  0  0  0  0  0  0  0  0  0
   60.6672   30.9141   45.7724 H   0  0  0  0  0  0  0  0  0  0  0  0
   61.2509   29.2294   45.5900 H   0  0  0  0  0  0  0  0  0  0  0  0
  1  2  1  0
  2  3  1  0
  3  4  1  0
  4  5  2  0
  5  6  1  0
  6  7  2  0
  7  8  1  0
  8  9  2  0
  2 10  1  0
 11 10  1  6
 11 12  1  0
 12 13  1  0
 13 14  1  0
 14 15  1  0
 15 16  1  0
 16 17  1  0
 17 18  1  0
 18 19  1  0
 19 20  2  0
 20 21  1  0
 21 22  2  0
 22 23  1  0
 23 24  2  0
 17 25  1  0
  9  4  1  0
 15 11  1  0
 24 19  1  0
 25 11  1  0
  1 26  1  0
  1 27  1  0
  1 28  1  0
  3 29  1  0
  3 30  1  0
  5 31  1  0
  6 32  1  0
  8 33  1  0
  9 34  1  0
 10 35  1  0
 10 36  1  0
 12 37  1  0
 12 38  1  0
 14 39  1  0
 14 40  1  0
 15 41  1  1
 16 42  1  0
 16 43  1  0
 18 44  1  0
 18 45  1  0
 20 46  1  0
 21 47  1  0
 22 48  1  0
 23 49  1  0
 24 50  1  0
 25 51  1  0
 25 52  1  0
M  CHG  1  24   1
M  END
>  <UniqueID>  (25) 
23

>  <SMILES>  (25) 
CN(Cc1ccncc1)C[C@]12COC[C@H]1CN(Cc1cccc[nH+]1)C2

>  <Energy>  (25) 
69.25233238340681

>  <Genealogy>  (25) 
CN(Cc1ccncc1)CC12COCC1CN(Cc1cccc[nH+]1)C2 (protonated)
CN(Cc1ccncc1)C[C@]12COC[C@H]1CN(Cc1cccc[nH+]1)C2 (chirality)
CN(Cc1ccncc1)C[C@]12COC[C@H]1CN(Cc1cccc[nH+]1)C2 (3D coordinates assigned)
CN(Cc1ccncc1)C[C@]12COC[C@H]1CN(Cc1cccc[nH+]1)C2 (nonaromatic ring conformer: 69.25233238340681 kcal/mol)

>  <smiles>  (25) 
CN(Cc1ccncc1)CC12COCC1CN(Cc1ccccn1)C2

>  <score_type>  (25) 
oracle

>  <origin>  (25) 
adg

>  <m_score__min__energy>  (25) 
-6.3399999999999999

>  <m_primary>  (25) 
energy

$$$$
25:0
     RDKit          3D

 33 33  0  0  0  0  0  0  0  0999 V2000
   57.7342   33.2727   46.6685 H   0  0  0  0  0  0  0  0  0  0  0  0
   57.5710   33.1230   45.5910 C   0  0  0  0  0  0  0  0  0  0  0  0
   56.6340   32.3240   45.1840 N   0  0  0  0  0  0  0  0  0  0  0  0
   56.8880   31.1220   44.4510 C   0  0  0  0  0  0  0  0  0  0  0  0
   57.6150   31.1740   43.4240 O   0  0  0  0  0  0  0  0  0  0  0  0
   56.3340   29.9050   44.8710 O   0  0  0  0  0  0  0  0  0  0  0  0
   57.0430   28.6690   44.8400 C   0  0  0  0  0  0  0  0  0  0  0  0
   57.5274   28.5534   43.8592 H   0  0  0  0  0  0  0  0  0  0  0  0
   56.3333   27.8460   45.0102 H   0  0  0  0  0  0  0  0  0  0  0  0
   58.1130   28.6390   45.9390 C   0  0  0  0  0  0  0  0  0  0  0  0
   58.2701   27.5953   46.2490 H   0  0  0  0  0  0  0  0  0  0  0  0
   57.7518   29.2604   46.7717 H   0  0  0  0  0  0  0  0  0  0  0  0
   59.4560   29.2210   45.4740 C   0  0  0  0  0  0  0  0  0  0  0  0
   59.3423   29.5899   44.4440 H   0  0  0  0  0  0  0  0  0  0  0  0
   60.2063   28.4191   45.5374 H   0  0  0  0  0  0  0  0  0  0  0  0
   59.9350   30.3740   46.3570 C   0  0  0  0  0  0  0  0  0  0  0  0
   59.8201   30.0974   47.4154 H   0  0  0  0  0  0  0  0  0  0  0  0
   60.9941   30.5824   46.1454 H   0  0  0  0  0  0  0  0  0  0  0  0
   59.3353   31.2715   46.1454 H   0  0  0  0  0  0  0  0  0  0  0  0
   58.4320   33.8430   44.5980 C   0  0  0  0  0  0  0  0  0  0  0  0
   59.1089   33.1177   44.1228 H   0  0  0  0  0  0  0  0  0  0  0  0
   57.7722   34.3164   43.8560 H   0  0  0  0  0  0  0  0  0  0  0  0
   59.2710   34.9450   45.2580 C   0  0  0  0  0  0  0  0  0  0  0  0
   59.9820   35.3433   44.5192 H   0  0  0  0  0  0  0  0  0  0  0  0
   58.5887   35.7325   45.6106 H   0  0  0  0  0  0  0  0  0  0  0  0
   60.0360   34.4240   46.4380 C   0  0  0  0  0  0  0  0  0  0  0  0
   59.5560   34.5600   48.0440 S   0  0  0  0  0  0  0  0  0  0  0  0
   60.9300   33.8490   48.7050 C   0  0  0  0  0  0  0  0  0  0  0  0
   61.1173   33.6825   49.7761 H   0  0  0  0  0  0  0  0  0  0  0  0
   61.7880   33.5080   47.6660 C   0  0  0  0  0  0  0  0  0  0  0  0
   62.7646   33.0273   47.8250 H   0  0  0  0  0  0  0  0  0  0  0  0
   61.2920   33.8340   46.3980 C   0  0  0  0  0  0  0  0  0  0  0  0
   61.8417   33.6421   45.4647 H   0  0  0  0  0  0  0  0  0  0  0  0
  1  2  1  0
  2  3  2  0
  3  4  1  0
  4  5  2  0
  4  6  1  0
  6  7  1  0
  7  8  1  0
  7  9  1  0
  7 10  1  0
 10 11  1  0
 10 12  1  0
 10 13  1  0
 13 14  1  0
 13 15  1  0
 13 16  1  0
 16 17  1  0
 16 18  1  0
 16 19  1  0
  2 20  1  0
 20 21  1  0
 20 22  1  0
 20 23  1  0
 23 24  1  0
 23 25  1  0
 23 26  1  0
 26 27  1  0
 27 28  1  0
 28 29  1  0
 28 30  2  0
 30 31  1  0
 30 32  1  0
 32 33  1  0
 32 26  2  0
M  END
>  <UniqueID>  (26) 
24

>  <SMILES>  (26) 
CCCCOC(=O)/N=C/CCc1cccs1

>  <Energy>  (26) 
42.59534663750974

>  <Genealogy>  (26) 
CCCCOC(=O)/N=C/CCc1cccs1 (cis-trans isomerization)
CCCCOC(=O)/N=C/CCc1cccs1 (3D coordinates assigned)
CCCCOC(=O)/N=C/CCc1cccs1 (optimized conformer: 42.59534663750974 kcal/mol)

>  <smiles>  (26) 
CCCCOC(=O)N=CCCc1cccs1

>  <score_type>  (26) 
oracle

>  <origin>  (26) 
adg

>  <m_score__min__energy>  (26) 
-6

>  <m_primary>  (26) 
energy

$$$$
26:0
     RDKit          3D

 32 34  0  0  0  0  0  0  0  0999 V2000
   56.8570   22.5390   46.0970 C   0  0  0  0  0  0  0  0  0  0  0  0
   56.1680   23.5710   46.9840 C   0  0  0  0  0  0  0  0  0  0  0  0
   56.6710   24.9210   46.6880 N   0  0  0  0  0  0  0  0  0  0  0  0
   57.9140   25.2810   47.1270 C   0  0  0  0  0  0  0  0  0  0  0  0
   58.4110   26.5590   46.8840 C   0  0  0  0  0  0  0  0  0  0  0  0
   57.6130   27.4670   46.1840 C   0  0  0  0  0  0  0  0  0  0  0  0
   58.0820   28.8460   45.9230 C   0  0  0  0  0  0  0  0  0  0  0  0
   58.8980   29.4760   46.8780 C   0  0  0  0  0  0  0  0  0  0  0  0
   59.2980   30.7620   46.7080 N   0  0  0  0  0  0  0  0  0  0  0  0
   58.9380   31.4880   45.6200 C   0  0  0  0  0  0  0  0  0  0  0  0
   58.1400   30.9140   44.6260 C   0  0  0  0  0  0  0  0  0  0  0  0
   57.7710   31.6430   43.4890 C   0  0  0  0  0  0  0  0  0  0  0  0
   56.9980   31.0400   42.5000 C   0  0  0  0  0  0  0  0  0  0  0  0
   56.6090   29.7090   42.6510 C   0  0  0  0  0  0  0  0  0  0  0  0
   56.9690   29.0040   43.7590 N   0  0  0  0  0  0  0  0  0  0  0  0
   57.7080   29.5730   44.7640 C   0  0  0  0  0  0  0  0  0  0  0  0
   56.3720   27.0880   45.7830 N   0  0  0  0  0  0  0  0  0  0  0  0
   55.8960   25.8380   46.0250 C   0  0  0  0  0  0  0  0  0  0  0  0
   54.7350   25.5400   45.6350 O   0  0  0  0  0  0  0  0  0  0  0  0
   57.3575   21.7893   46.7275 H   0  0  0  0  0  0  0  0  0  0  0  0
   56.1082   22.0430   45.4619 H   0  0  0  0  0  0  0  0  0  0  0  0
   57.6022   23.0404   45.4619 H   0  0  0  0  0  0  0  0  0  0  0  0
   55.0838   23.5401   46.8006 H   0  0  0  0  0  0  0  0  0  0  0  0
   56.3808   23.3345   48.0370 H   0  0  0  0  0  0  0  0  0  0  0  0
   58.5284   24.5538   47.6780 H   0  0  0  0  0  0  0  0  0  0  0  0
   59.4122   26.8478   47.2363 H   0  0  0  0  0  0  0  0  0  0  0  0
   59.2160   28.9211   47.7729 H   0  0  0  0  0  0  0  0  0  0  0  0
   59.2747   32.5304   45.5197 H   0  0  0  0  0  0  0  0  0  0  0  0
   58.0909   32.6895   43.3772 H   0  0  0  0  0  0  0  0  0  0  0  0
   56.6968   31.6083   41.6076 H   0  0  0  0  0  0  0  0  0  0  0  0
   56.0064   29.2248   41.8685 H   0  0  0  0  0  0  0  0  0  0  0  0
   56.6770   28.0050   43.7990 H   0  0  0  0  0  0  0  0  0  0  0  0
  1  2  1  0
  2  3  1  0
  3  4  1  0
  4  5  2  0
  5  6  1  0
  6  7  1  0
  7  8  2  0
  8  9  1  0
  9 10  2  0
 10 11  1  0
 11 12  2  0
 12 13  1  0
 13 14  2  0
 14 15  1  0
 15 16  2  0
  6 17  2  0
 17 18  1  0
 18 19  2  0
 18  3  1  0
 16  7  1  0
 16 11  1  0
  1 20  1  0
  1 21  1  0
  1 22  1  0
  2 23  1  0
  2 24  1  0
  4 25  1  0
  5 26  1  0
  8 27  1  0
 10 28  1  0
 12 29  1  0
 13 30  1  0
 14 31  1  0
 15 32  1  0
M  CHG  1  15   1
M  END
>  <UniqueID>  (27) 
25

>  <SMILES>  (27) 
CCn1ccc(-c2cncc3ccc[nH+]c23)nc1=O

>  <Energy>  (27) 
45.86930921018796

>  <Genealogy>  (27) 
CCn1ccc(-c2cncc3ccc[nH+]c23)nc1=O (protonated)
CCn1ccc(-c2cncc3ccc[nH+]c23)nc1=O (3D coordinates assigned)
CCn1ccc(-c2cncc3ccc[nH+]c23)nc1=O (optimized conformer: 45.86930921018796 kcal/mol)

>  <smiles>  (27) 
CCn1ccc(-c2cncc3cccnc23)nc1=O

>  <score_type>  (27) 
oracle

>  <origin>  (27) 
adg

>  <m_score__min__energy>  (27) 
-4.8399999999999999

>  <m_primary>  (27) 
energy

$$$$
27:0
     RDKit          3D

 50 52  0  0  0  0  0  0  0  0999 V2000
   55.1370   25.0840   45.6360 C   0  0  0  0  0  0  0  0  0  0  0  0
   55.3100   26.4620   45.9440 O   0  0  0  0  0  0  0  0  0  0  0  0
   56.5540   27.1070   46.0130 C   0  0  0  0  0  0  0  0  0  0  0  0
   56.7360   28.2830   45.2740 C   0  0  0  0  0  0  0  0  0  0  0  0
   57.9540   28.9690   45.3160 C   0  0  0  0  0  0  0  0  0  0  0  0
   59.0160   28.4760   46.0900 C   0  0  0  0  0  0  0  0  0  0  0  0
   60.3150   29.2330   46.1650 C   0  0  0  0  0  0  0  0  0  0  0  0
   60.5240   29.8060   47.5800 C   0  0  0  0  0  0  0  0  0  0  0  0
   60.8680   31.2500   47.5660 N   0  0  0  0  0  0  0  0  0  0  0  0
   60.3910   31.9330   48.7880 C   0  0  0  0  0  0  0  0  0  0  0  0
   60.6520   33.4550   48.7240 C   0  0  0  0  0  0  0  0  0  0  0  0
   61.7740   33.8220   47.8300 N   0  0  0  0  0  0  0  0  0  0  0  0
   61.3530   34.2110   46.4610 C   0  0  0  0  0  0  0  0  0  0  0  0
   59.9580   34.8340   46.5000 C   0  0  0  0  0  0  0  0  0  0  0  0
   58.9460   33.9570   45.8270 C   0  0  0  0  0  0  0  0  0  0  0  0
   58.7810   33.8100   44.4560 C   0  0  0  0  0  0  0  0  0  0  0  0
   57.7250   32.9580   44.1140 C   0  0  0  0  0  0  0  0  0  0  0  0
   57.0500   32.4420   45.2140 C   0  0  0  0  0  0  0  0  0  0  0  0
   57.7640   33.0550   46.6120 S   0  0  0  0  0  0  0  0  0  0  0  0
   62.8430   32.8090   47.8450 C   0  0  0  0  0  0  0  0  0  0  0  0
   62.3370   31.4110   47.4230 C   0  0  0  0  0  0  0  0  0  0  0  0
   58.8340   27.3020   46.8380 C   0  0  0  0  0  0  0  0  0  0  0  0
   57.6140   26.6190   46.7990 C   0  0  0  0  0  0  0  0  0  0  0  0
   55.0644   24.5060   46.5691 H   0  0  0  0  0  0  0  0  0  0  0  0
   54.2152   24.9521   45.0504 H   0  0  0  0  0  0  0  0  0  0  0  0
   55.9975   24.7283   45.0504 H   0  0  0  0  0  0  0  0  0  0  0  0
   55.9134   28.6705   44.6550 H   0  0  0  0  0  0  0  0  0  0  0  0
   58.0801   29.8980   44.7406 H   0  0  0  0  0  0  0  0  0  0  0  0
   61.1450   28.5527   45.9236 H   0  0  0  0  0  0  0  0  0  0  0  0
   60.2848   30.0642   45.4452 H   0  0  0  0  0  0  0  0  0  0  0  0
   59.5965   29.6704   48.1556 H   0  0  0  0  0  0  0  0  0  0  0  0
   61.3672   29.2670   48.0365 H   0  0  0  0  0  0  0  0  0  0  0  0
   60.4090   31.6840   46.7310 H   0  0  0  0  0  0  0  0  0  0  0  0
   59.3101   31.7598   48.8956 H   0  0  0  0  0  0  0  0  0  0  0  0
   60.9404   31.5243   49.6489 H   0  0  0  0  0  0  0  0  0  0  0  0
   59.7397   33.9502   48.3600 H   0  0  0  0  0  0  0  0  0  0  0  0
   60.9252   33.7807   49.7386 H   0  0  0  0  0  0  0  0  0  0  0  0
   62.0672   34.9421   46.0543 H   0  0  0  0  0  0  0  0  0  0  0  0
   61.3308   33.3158   45.8222 H   0  0  0  0  0  0  0  0  0  0  0  0
   59.6617   34.9818   47.5490 H   0  0  0  0  0  0  0  0  0  0  0  0
   59.9936   35.7940   45.9642 H   0  0  0  0  0  0  0  0  0  0  0  0
   59.4171   34.3132   43.7129 H   0  0  0  0  0  0  0  0  0  0  0  0
   57.4550   32.7196   43.0746 H   0  0  0  0  0  0  0  0  0  0  0  0
   56.1950   31.7509   45.1781 H   0  0  0  0  0  0  0  0  0  0  0  0
   63.6360   33.1221   47.1499 H   0  0  0  0  0  0  0  0  0  0  0  0
   63.2176   32.7325   48.8764 H   0  0  0  0  0  0  0  0  0  0  0  0
   62.6053   31.2461   46.3690 H   0  0  0  0  0  0  0  0  0  0  0  0
   62.8116   30.6774   48.0913 H   0  0  0  0  0  0  0  0  0  0  0  0
   59.6563   26.9167   47.4588 H   0  0  0  0  0  0  0  0  0  0  0  0
   57.4828   25.6972   47.3848 H   0  0  0  0  0  0  0  0  0  0  0  0
  1  2  1  0
  2  3  1  0
  3  4  2  0
  4  5  1  0
  5  6  2  0
  6  7  1  0
  7  8  1  0
  8  9  1  0
  9 10  1  0
 10 11  1  0
 11 12  1  0
 12 13  1  0
 13 14  1  0
 14 15  1  0
 15 16  2  0
 16 17  1  0
 17 18  2  0
 18 19  1  0
 12 20  1  0
 20 21  1  0
  6 22  1  0
 22 23  2  0
 23  3  1  0
 21  9  1  0
 19 15  1  0
  1 24  1  0
  1 25  1  0
  1 26  1  0
  4 27  1  0
  5 28  1  0
  7 29  1  0
  7 30  1  0
  8 31  1  0
  8 32  1  0
  9 33  1  0
 10 34  1  0
 10 35  1  0
 11 36  1  0
 11 37  1  0
 13 38  1  0
 13 39  1  0
 14 40  1  0
 14 41  1  0
 16 42  1  0
 17 43  1  0
 18 44  1  0
 20 45  1  0
 20 46  1  0
 21 47  1  0
 21 48  1  0
 22 49  1  0
 23 50  1  0
M  CHG  1   9   1
M  END
>  <UniqueID>  (28) 
26

>  <SMILES>  (28) 
COc1ccc(CC[NH+]2CCN(CCc3cccs3)CC2)cc1

>  <Energy>  (28) 
85.8840633842748

>  <Genealogy>  (28) 
COc1ccc(CC[NH+]2CCN(CCc3cccs3)CC2)cc1 (protonated)
COc1ccc(CC[NH+]2CCN(CCc3cccs3)CC2)cc1 (3D coordinates assigned)
COc1ccc(CC[NH+]2CCN(CCc3cccs3)CC2)cc1 (nonaromatic ring conformer: 85.8840633842748 kcal/mol)

>  <smiles>  (28) 
COc1ccc(CCN2CCN(CCc3cccs3)CC2)cc1

>  <score_type>  (28) 
oracle

>  <origin>  (28) 
adg

>  <m_score__min__energy>  (28) 
-6.4100000000000001

>  <m_primary>  (28) 
energy

$$$$
28:0
     RDKit          3D

 30 33  0  0  0  0  0  0  0  0999 V2000
   61.5580   29.6960   50.4380 F   0  0  0  0  0  0  0  0  0  0  0  0
   60.9120   30.1070   49.3190 C   0  0  0  0  0  0  0  0  0  0  0  0
   61.6370   30.6360   48.2480 C   0  0  0  0  0  0  0  0  0  0  0  0
   60.9710   31.0620   47.0940 C   0  0  0  0  0  0  0  0  0  0  0  0
   59.5720   30.9760   47.0140 C   0  0  0  0  0  0  0  0  0  0  0  0
   58.8710   31.3870   45.7850 C   0  0  0  0  0  0  0  0  0  0  0  0
   58.8180   32.7330   45.4080 C   0  0  0  0  0  0  0  0  0  0  0  0
   57.8100   32.9050   44.0650 S   0  0  0  0  0  0  0  0  0  0  0  0
   57.4530   31.2750   43.9510 C   0  0  0  0  0  0  0  0  0  0  0  0
   56.6450   30.6970   43.0330 N   0  0  0  0  0  0  0  0  0  0  0  0
   56.4700   29.3500   43.0670 C   0  0  0  0  0  0  0  0  0  0  0  0
   57.1200   28.5910   43.9960 N   0  0  0  0  0  0  0  0  0  0  0  0
   57.9550   29.1500   44.9240 C   0  0  0  0  0  0  0  0  0  0  0  0
   58.8830   28.0540   46.0050 S   0  0  0  0  0  0  0  0  0  0  0  0
   57.5990   26.8100   45.9840 C   0  0  0  0  0  0  0  0  0  0  0  0
   56.2800   27.0950   46.0160 N   0  0  0  0  0  0  0  0  0  0  0  0
   55.5100   26.0090   45.9880 N   0  0  0  0  0  0  0  0  0  0  0  0
   56.2070   24.8510   45.9350 C   0  0  0  0  0  0  0  0  0  0  0  0
   57.8650   25.1510   45.9210 S   0  0  0  0  0  0  0  0  0  0  0  0
   58.1060   30.5530   44.9340 C   0  0  0  0  0  0  0  0  0  0  0  0
   58.8520   30.4170   48.0810 C   0  0  0  0  0  0  0  0  0  0  0  0
   59.5210   29.9940   49.2350 C   0  0  0  0  0  0  0  0  0  0  0  0
   62.7321   30.7175   48.3124 H   0  0  0  0  0  0  0  0  0  0  0  0
   61.5450   31.4655   46.2468 H   0  0  0  0  0  0  0  0  0  0  0  0
   59.3515   33.5537   45.9099 H   0  0  0  0  0  0  0  0  0  0  0  0
   55.7995   28.8680   42.3403 H   0  0  0  0  0  0  0  0  0  0  0  0
   56.9920   27.5540   43.9760 H   0  0  0  0  0  0  0  0  0  0  0  0
   55.7531   23.8495   45.9051 H   0  0  0  0  0  0  0  0  0  0  0  0
   57.7594   30.3111   48.0101 H   0  0  0  0  0  0  0  0  0  0  0  0
   58.9520   29.5723   50.0767 H   0  0  0  0  0  0  0  0  0  0  0  0
  1  2  1  0
  2  3  2  0
  3  4  1  0
  4  5  2  0
  5  6  1  0
  6  7  2  0
  7  8  1  0
  8  9  1  0
  9 10  2  0
 10 11  1  0
 11 12  2  0
 12 13  1  0
 13 14  1  0
 14 15  1  0
 15 16  2  0
 16 17  1  0
 17 18  2  0
 18 19  1  0
 13 20  2  0
  5 21  1  0
 21 22  2  0
 22  2  1  0
 20  6  1  0
 20  9  1  0
 19 15  1  0
  3 23  1  0
  4 24  1  0
  7 25  1  0
 11 26  1  0
 12 27  1  0
 18 28  1  0
 21 29  1  0
 22 30  1  0
M  CHG  1  12   1
M  END
>  <UniqueID>  (29) 
27

>  <SMILES>  (29) 
Fc1ccc(-c2csc3nc[nH+]c(Sc4nncs4)c23)cc1

>  <Energy>  (29) 
106.03301333734034

>  <Genealogy>  (29) 
Fc1ccc(-c2csc3nc[nH+]c(Sc4nncs4)c23)cc1 (protonated)
Fc1ccc(-c2csc3nc[nH+]c(Sc4nncs4)c23)cc1 (3D coordinates assigned)
Fc1ccc(-c2csc3nc[nH+]c(Sc4nncs4)c23)cc1 (optimized conformer: 106.03301333734034 kcal/mol)

>  <smiles>  (29) 
Fc1ccc(-c2csc3ncnc(Sc4nncs4)c23)cc1

>  <score_type>  (29) 
oracle

>  <origin>  (29) 
adg

>  <m_score__min__energy>  (29) 
-6.0899999999999999

>  <m_primary>  (29) 
energy

$$$$
29:0
     RDKit          3D

 34 35  0  0  0  0  0  0  0  0999 V2000
   54.1840   23.4940   45.9600 C   0  0  0  0  0  0  0  0  0  0  0  0
   53.5860   24.8370   45.5550 C   0  0  0  0  0  0  0  0  0  0  0  0
   54.5630   25.9040   45.7290 N   0  0  0  0  0  0  0  0  0  0  0  0
   55.9520   25.6770   45.9970 C   0  0  0  0  0  0  0  0  0  0  0  0
   56.3570   25.5840   47.1880 O   0  0  0  0  0  0  0  0  0  0  0  0
   56.9530   25.6050   44.8690 C   0  0  0  0  0  0  0  0  0  0  0  0
   58.1750   26.4640   45.1440 C   0  0  0  0  0  0  0  0  0  0  0  0
   58.9610   26.2760   46.3000 C   0  0  0  0  0  0  0  0  0  0  0  0
   60.0690   27.0930   46.5440 C   0  0  0  0  0  0  0  0  0  0  0  0
   60.4020   28.1090   45.6470 C   0  0  0  0  0  0  0  0  0  0  0  0
   59.6250   28.3140   44.5050 C   0  0  0  0  0  0  0  0  0  0  0  0
   58.5150   27.5010   44.2540 C   0  0  0  0  0  0  0  0  0  0  0  0
   57.3420   24.1770   44.5150 C   0  0  0  0  0  0  0  0  0  0  0  0
   56.6460   23.5150   43.4870 C   0  0  0  0  0  0  0  0  0  0  0  0
   57.0020   22.2160   43.1100 C   0  0  0  0  0  0  0  0  0  0  0  0
   58.0610   21.5680   43.7470 C   0  0  0  0  0  0  0  0  0  0  0  0
   58.7720   22.2180   44.7580 C   0  0  0  0  0  0  0  0  0  0  0  0
   58.4220   23.5180   45.1380 C   0  0  0  0  0  0  0  0  0  0  0  0
   54.2157   23.4227   47.0572 H   0  0  0  0  0  0  0  0  0  0  0  0
   53.5633   22.6799   45.5575 H   0  0  0  0  0  0  0  0  0  0  0  0
   55.2043   23.4106   45.5575 H   0  0  0  0  0  0  0  0  0  0  0  0
   53.2813   24.7939   44.4989 H   0  0  0  0  0  0  0  0  0  0  0  0
   52.7144   25.0452   46.1930 H   0  0  0  0  0  0  0  0  0  0  0  0
   56.4476   26.0187   43.9839 H   0  0  0  0  0  0  0  0  0  0  0  0
   58.7005   25.4812   47.0144 H   0  0  0  0  0  0  0  0  0  0  0  0
   60.6797   26.9346   47.4451 H   0  0  0  0  0  0  0  0  0  0  0  0
   61.2763   28.7481   45.8396 H   0  0  0  0  0  0  0  0  0  0  0  0
   59.8867   29.1174   43.8007 H   0  0  0  0  0  0  0  0  0  0  0  0
   57.9037   27.6727   43.3557 H   0  0  0  0  0  0  0  0  0  0  0  0
   55.8152   24.0231   42.9756 H   0  0  0  0  0  0  0  0  0  0  0  0
   56.4464   21.7045   42.3102 H   0  0  0  0  0  0  0  0  0  0  0  0
   58.3360   20.5444   43.4526 H   0  0  0  0  0  0  0  0  0  0  0  0
   59.6088   21.7068   45.2565 H   0  0  0  0  0  0  0  0  0  0  0  0
   58.9925   24.0292   45.9274 H   0  0  0  0  0  0  0  0  0  0  0  0
  1  2  1  0
  2  3  1  0
  3  4  1  0
  4  5  2  0
  4  6  1  0
  6  7  1  0
  7  8  2  0
  8  9  1  0
  9 10  2  0
 10 11  1  0
 11 12  2  0
  6 13  1  0
 13 14  2  0
 14 15  1  0
 15 16  2  0
 16 17  1  0
 17 18  2  0
 12  7  1  0
 18 13  1  0
  1 19  1  0
  1 20  1  0
  1 21  1  0
  2 22  1  0
  2 23  1  0
  6 24  1  0
  8 25  1  0
  9 26  1  0
 10 27  1  0
 11 28  1  0
 12 29  1  0
 14 30  1  0
 15 31  1  0
 16 32  1  0
 17 33  1  0
 18 34  1  0
M  CHG  1   3  -1
M  END
>  <UniqueID>  (30) 
28

>  <SMILES>  (30) 
CC[N-]C(=O)C(c1ccccc1)c1ccccc1

>  <Energy>  (30) 
32.28736513513304

>  <Genealogy>  (30) 
CC[N-]C(=O)C(c1ccccc1)c1ccccc1 (protonated)
CC[N-]C(=O)C(c1ccccc1)c1ccccc1 (3D coordinates assigned)
CC[N-]C(=O)C(c1ccccc1)c1ccccc1 (optimized conformer: 32.28736513513304 kcal/mol)

>  <smiles>  (30) 
CCNC(=O)C(c1ccccc1)c1ccccc1

>  <score_type>  (30) 
oracle

>  <origin>  (30) 
adg

>  <m_score__min__energy>  (30) 
-8.5199999999999996

>  <m_primary>  (30) 
energy

$$$$
30:0
     RDKit          3D

 27 28  0  0  0  0  0  0  0  0999 V2000
   55.8810   30.7490   44.5000 O   0  0  0  0  0  0  0  0  0  0  0  0
   57.1980   31.1470   43.8980 S   0  0  0  0  0  0  0  0  0  0  0  0
   56.9760   31.5740   42.4740 O   0  0  0  0  0  0  0  0  0  0  0  0
   58.2730   29.7830   43.9190 N   0  0  0  0  0  0  0  0  0  0  0  0
   58.7560   29.1580   45.1220 C   0  0  0  0  0  0  0  0  0  0  0  0
   59.8830   29.6970   45.7660 C   0  0  0  0  0  0  0  0  0  0  0  0
   60.3810   29.1100   46.9340 C   0  0  0  0  0  0  0  0  0  0  0  0
   59.7600   27.9810   47.4720 C   0  0  0  0  0  0  0  0  0  0  0  0
   60.4440   27.1800   49.0650 Br  0  0  0  0  0  0  0  0  0  0  0  0
   58.6340   27.4400   46.8430 C   0  0  0  0  0  0  0  0  0  0  0  0
   58.1320   28.0230   45.6760 C   0  0  0  0  0  0  0  0  0  0  0  0
   57.8790   32.4660   44.8460 C   0  0  0  0  0  0  0  0  0  0  0  0
   58.5270   33.5290   44.2020 C   0  0  0  0  0  0  0  0  0  0  0  0
   59.0600   34.5830   44.9500 C   0  0  0  0  0  0  0  0  0  0  0  0
   58.9510   34.5780   46.3440 C   0  0  0  0  0  0  0  0  0  0  0  0
   58.3100   33.5170   46.9910 C   0  0  0  0  0  0  0  0  0  0  0  0
   57.7760   32.4620   46.2450 C   0  0  0  0  0  0  0  0  0  0  0  0
   58.5210   29.3640   42.9950 H   0  0  0  0  0  0  0  0  0  0  0  0
   60.3770   30.5868   45.3486 H   0  0  0  0  0  0  0  0  0  0  0  0
   61.2642   29.5390   47.4300 H   0  0  0  0  0  0  0  0  0  0  0  0
   58.1419   26.5528   47.2681 H   0  0  0  0  0  0  0  0  0  0  0  0
   57.2450   27.5933   45.1876 H   0  0  0  0  0  0  0  0  0  0  0  0
   58.6164   33.5339   43.1056 H   0  0  0  0  0  0  0  0  0  0  0  0
   59.5656   35.4171   44.4414 H   0  0  0  0  0  0  0  0  0  0  0  0
   59.3694   35.4085   46.9315 H   0  0  0  0  0  0  0  0  0  0  0  0
   58.2258   33.5124   48.0878 H   0  0  0  0  0  0  0  0  0  0  0  0
   57.2741   31.6272   46.7561 H   0  0  0  0  0  0  0  0  0  0  0  0
  1  2  2  0
  2  3  2  0
  2  4  1  0
  4  5  1  0
  5  6  2  0
  6  7  1  0
  7  8  2  0
  8  9  1  0
  8 10  1  0
 10 11  2  0
  2 12  1  0
 12 13  2  0
 13 14  1  0
 14 15  2  0
 15 16  1  0
 16 17  2  0
 11  5  1  0
 17 12  1  0
  4 18  1  0
  6 19  1  0
  7 20  1  0
 10 21  1  0
 11 22  1  0
 13 23  1  0
 14 24  1  0
 15 25  1  0
 16 26  1  0
 17 27  1  0
M  END
>  <UniqueID>  (31) 
29

>  <SMILES>  (31) 
O=S(=O)(Nc1ccc(Br)cc1)c1ccccc1

>  <Energy>  (31) 
30.188539115504618

>  <Genealogy>  (31) 
O=S(=O)(Nc1ccc(Br)cc1)c1ccccc1 (3D coordinates assigned)
O=S(=O)(Nc1ccc(Br)cc1)c1ccccc1 (optimized conformer: 30.188539115504618 kcal/mol)

>  <smiles>  (31) 
O=S(=O)(Nc1ccc(Br)cc1)c1ccccc1

>  <score_type>  (31) 
oracle

>  <origin>  (31) 
adg

>  <m_score__min__energy>  (31) 
-7.4400000000000004

>  <m_primary>  (31) 
energy

$$$$
31:0
     RDKit          3D

 70 72  0  0  0  0  0  0  0  0999 V2000
   56.6880   30.6340   44.1940 C   0  0  0  0  0  0  0  0  0  0  0  0
   57.8640   31.6020   44.1000 C   0  0  0  0  0  0  0  0  0  0  0  0
   57.9450   32.5020   45.3420 C   0  0  0  0  0  0  0  0  0  0  0  0
   59.3810   32.5240   45.9120 C   0  0  0  0  0  0  0  0  0  0  0  0
   59.5360   32.8890   47.4430 C   0  0  2  0  0  0  0  0  0  0  0  0
   59.1730   34.4220   47.5560 C   0  0  0  0  0  0  0  0  0  0  0  0
   59.6190   35.3660   46.4310 C   0  0  0  0  0  0  0  0  0  0  0  0
   61.0150   32.6980   47.9300 C   0  0  0  0  0  0  0  0  0  0  0  0
   61.7930   31.1090   47.6150 S   0  0  0  0  0  0  0  0  0  0  0  0
   63.0600   31.2330   46.8170 O   0  0  0  0  0  0  0  0  0  0  0  0
   62.1580   30.5380   48.9570 O   0  0  0  0  0  0  0  0  0  0  0  0
   60.6660   30.0110   46.8020 C   0  0  0  0  0  0  0  0  0  0  0  0
   61.1110   29.3210   45.6660 C   0  0  0  0  0  0  0  0  0  0  0  0
   60.2870   28.4060   45.0160 C   0  0  0  0  0  0  0  0  0  0  0  0
   58.9870   28.1520   45.4820 C   0  0  0  0  0  0  0  0  0  0  0  0
   58.1290   27.1940   44.8080 N   0  0  0  0  0  0  0  0  0  0  0  0
   57.2820   26.2730   45.5780 C   0  0  0  0  0  0  0  0  0  0  0  0
   58.0940   27.1260   43.3420 C   0  0  0  0  0  0  0  0  0  0  0  0
   58.5380   28.8480   46.6210 C   0  0  0  0  0  0  0  0  0  0  0  0
   59.3540   29.7910   47.2880 C   0  0  0  0  0  0  0  0  0  0  0  0
   58.8680   30.5160   48.5500 C   0  0  1  0  0  0  0  0  0  0  0  0
   59.8140   30.3600   49.7440 C   0  0  0  0  0  0  0  0  0  0  0  0
   60.1970   31.4920   50.4830 C   0  0  0  0  0  0  0  0  0  0  0  0
   61.0400   31.3710   51.5880 C   0  0  0  0  0  0  0  0  0  0  0  0
   61.5100   30.1080   51.9910 C   0  0  0  0  0  0  0  0  0  0  0  0
   62.3550   29.9460   53.1010 O   0  0  0  0  0  0  0  0  0  0  0  0
   63.7290   29.5800   53.0240 C   0  0  0  0  0  0  0  0  0  0  0  0
   61.1240   28.9650   51.2750 C   0  0  0  0  0  0  0  0  0  0  0  0
   61.5910   27.7150   51.7140 O   0  0  0  0  0  0  0  0  0  0  0  0
   61.0540   26.9940   52.8180 C   0  0  0  0  0  0  0  0  0  0  0  0
   60.2830   29.0950   50.1540 C   0  0  0  0  0  0  0  0  0  0  0  0
   58.5010   32.0240   48.2860 C   0  0  1  0  0  0  0  0  0  0  0  0
   58.1240   32.6380   49.4970 O   0  0  0  0  0  0  0  0  0  0  0  0
   56.4548   30.4420   45.2517 H   0  0  0  0  0  0  0  0  0  0  0  0
   55.8100   31.0746   43.6990 H   0  0  0  0  0  0  0  0  0  0  0  0
   56.9516   29.6877   43.6990 H   0  0  0  0  0  0  0  0  0  0  0  0
   58.7969   31.0256   44.0135 H   0  0  0  0  0  0  0  0  0  0  0  0
   57.7187   32.2409   43.2164 H   0  0  0  0  0  0  0  0  0  0  0  0
   57.6512   33.5253   45.0654 H   0  0  0  0  0  0  0  0  0  0  0  0
   57.2669   32.1031   46.1108 H   0  0  0  0  0  0  0  0  0  0  0  0
   59.8133   31.5235   45.7632 H   0  0  0  0  0  0  0  0  0  0  0  0
   59.8928   33.3331   45.3704 H   0  0  0  0  0  0  0  0  0  0  0  0
   58.0773   34.4920   47.6231 H   0  0  0  0  0  0  0  0  0  0  0  0
   59.7358   34.7674   48.4357 H   0  0  0  0  0  0  0  0  0  0  0  0
   60.0503   36.2788   46.8677 H   0  0  0  0  0  0  0  0  0  0  0  0
   60.3753   34.8642   45.8095 H   0  0  0  0  0  0  0  0  0  0  0  0
   58.7511   35.6315   45.8095 H   0  0  0  0  0  0  0  0  0  0  0  0
   61.6265   33.4679   47.4367 H   0  0  0  0  0  0  0  0  0  0  0  0
   60.9610   32.7714   49.0262 H   0  0  0  0  0  0  0  0  0  0  0  0
   62.1255   29.5049   45.2826 H   0  0  0  0  0  0  0  0  0  0  0  0
   60.6589   27.8758   44.1268 H   0  0  0  0  0  0  0  0  0  0  0  0
   57.4385   26.4432   46.6534 H   0  0  0  0  0  0  0  0  0  0  0  0
   56.2256   26.4511   45.3285 H   0  0  0  0  0  0  0  0  0  0  0  0
   57.5477   25.2351   45.3285 H   0  0  0  0  0  0  0  0  0  0  0  0
   57.6113   26.1881   43.0299 H   0  0  0  0  0  0  0  0  0  0  0  0
   57.5237   27.9805   42.9488 H   0  0  0  0  0  0  0  0  0  0  0  0
   59.1208   27.1584   42.9488 H   0  0  0  0  0  0  0  0  0  0  0  0
   57.5248   28.6528   47.0023 H   0  0  0  0  0  0  0  0  0  0  0  0
   57.9347   30.0056   48.8300 H   0  0  0  0  0  0  0  0  0  0  0  0
   59.8279   32.4850   50.1869 H   0  0  0  0  0  0  0  0  0  0  0  0
   61.3391   32.2694   52.1479 H   0  0  0  0  0  0  0  0  0  0  0  0
   64.1370   29.4713   54.0397 H   0  0  0  0  0  0  0  0  0  0  0  0
   63.8245   28.6251   52.4864 H   0  0  0  0  0  0  0  0  0  0  0  0
   64.2869   30.3609   52.4864 H   0  0  0  0  0  0  0  0  0  0  0  0
   61.3961   27.4533   53.7572 H   0  0  0  0  0  0  0  0  0  0  0  0
   59.9552   27.0223   52.7749 H   0  0  0  0  0  0  0  0  0  0  0  0
   61.3958   25.9493   52.7749 H   0  0  0  0  0  0  0  0  0  0  0  0
   59.9876   28.1978   49.5902 H   0  0  0  0  0  0  0  0  0  0  0  0
   57.6451   31.9939   47.5956 H   0  0  0  0  0  0  0  0  0  0  0  0
   57.1370   32.6370   49.5590 H   0  0  0  0  0  0  0  0  0  0  0  0
  1  2  1  0
  2  3  1  0
  3  4  1  0
  5  4  1  6
  5  6  1  0
  6  7  1  0
  5  8  1  0
  8  9  1  0
  9 10  2  0
  9 11  2  0
  9 12  1  0
 12 13  2  0
 13 14  1  0
 14 15  2  0
 15 16  1  0
 16 17  1  0
 16 18  1  0
 15 19  1  0
 19 20  2  0
 20 21  1  0
 21 22  1  0
 22 23  2  0
 23 24  1  0
 24 25  2  0
 25 26  1  0
 26 27  1  0
 25 28  1  0
 28 29  1  0
 29 30  1  0
 28 31  2  0
 21 32  1  0
 32 33  1  0
 32  5  1  0
 20 12  1  0
 31 22  1  0
  1 34  1  0
  1 35  1  0
  1 36  1  0
  2 37  1  0
  2 38  1  0
  3 39  1  0
  3 40  1  0
  4 41  1  0
  4 42  1  0
  6 43  1  0
  6 44  1  0
  7 45  1  0
  7 46  1  0
  7 47  1  0
  8 48  1  0
  8 49  1  0
 13 50  1  0
 14 51  1  0
 17 52  1  0
 17 53  1  0
 17 54  1  0
 18 55  1  0
 18 56  1  0
 18 57  1  0
 19 58  1  0
 21 59  1  1
 23 60  1  0
 24 61  1  0
 27 62  1  0
 27 63  1  0
 27 64  1  0
 30 65  1  0
 30 66  1  0
 30 67  1  0
 31 68  1  0
 32 69  1  6
 33 70  1  0
M  END
>  <UniqueID>  (32) 
30

>  <SMILES>  (32) 
CCCC[C@]1(CC)CS(=O)(=O)c2ccc(N(C)C)cc2[C@@H](c2ccc(OC)c(OC)c2)C1O

>  <Energy>  (32) 
91.58383569776099

>  <Genealogy>  (32) 
CCCC[C@]1(CC)CS(=O)(=O)c2ccc(N(C)C)cc2[C@@H](c2ccc(OC)c(OC)c2)C1O (chirality)
CCCC[C@]1(CC)CS(=O)(=O)c2ccc(N(C)C)cc2[C@@H](c2ccc(OC)c(OC)c2)C1O (3D coordinates assigned)
CCCC[C@]1(CC)CS(=O)(=O)c2ccc(N(C)C)cc2[C@@H](c2ccc(OC)c(OC)c2)C1O (nonaromatic ring conformer: 91.58383569776099 kcal/mol)

>  <smiles>  (32) 
CCCCC1(CC)CS(=O)(=O)c2ccc(N(C)C)cc2C(c2ccc(OC)c(OC)c2)C1O

>  <score_type>  (32) 
oracle

>  <origin>  (32) 
adg

>  <m_score__min__energy>  (32) 
-6.6200000000000001

>  <m_primary>  (32) 
energy

$$$$
32:0
     RDKit          3D

 44 46  0  0  0  0  0  0  0  0999 V2000
   65.5380   33.0910   50.4060 C   0  0  0  0  0  0  0  0  0  0  0  0
   64.9550   32.2970   49.3780 O   0  0  0  0  0  0  0  0  0  0  0  0
   63.7210   32.5680   48.7680 C   0  0  0  0  0  0  0  0  0  0  0  0
   63.1980   33.8600   48.8770 C   0  0  0  0  0  0  0  0  0  0  0  0
   61.9730   34.1820   48.2900 C   0  0  0  0  0  0  0  0  0  0  0  0
   61.2480   33.2100   47.5890 C   0  0  0  0  0  0  0  0  0  0  0  0
   59.9930   33.5590   46.9850 N   0  0  0  0  0  0  0  0  0  0  0  0
   59.9830   34.2570   45.6970 C   0  0  0  0  0  0  0  0  0  0  0  0
   58.5480   34.5690   45.2400 C   0  0  0  0  0  0  0  0  0  0  0  0
   57.6300   33.4120   45.3810 N   0  0  0  0  0  0  0  0  0  0  0  0
   57.3970   32.6500   44.1350 C   0  0  0  0  0  0  0  0  0  0  0  0
   57.4560   31.1580   44.3270 C   0  0  0  0  0  0  0  0  0  0  0  0
   58.6160   30.3960   44.4100 C   0  0  0  0  0  0  0  0  0  0  0  0
   58.3690   29.0310   44.6000 C   0  0  0  0  0  0  0  0  0  0  0  0
   57.0180   28.7120   44.6600 C   0  0  0  0  0  0  0  0  0  0  0  0
   56.1340   30.1290   44.4750 S   0  0  0  0  0  0  0  0  0  0  0  0
   57.8090   32.5590   46.5820 C   0  0  0  0  0  0  0  0  0  0  0  0
   58.7310   33.1900   47.6250 C   0  0  0  0  0  0  0  0  0  0  0  0
   61.7620   31.9080   47.4590 C   0  0  0  0  0  0  0  0  0  0  0  0
   61.0270   30.9660   46.7220 O   0  0  0  0  0  0  0  0  0  0  0  0
   60.4000   29.8140   47.2770 C   0  0  0  0  0  0  0  0  0  0  0  0
   62.9990   31.5910   48.0560 C   0  0  0  0  0  0  0  0  0  0  0  0
   65.2450   32.6919   51.3883 H   0  0  0  0  0  0  0  0  0  0  0  0
   66.6337   33.0657   50.3120 H   0  0  0  0  0  0  0  0  0  0  0  0
   65.1858   34.1288   50.3120 H   0  0  0  0  0  0  0  0  0  0  0  0
   63.7566   34.6295   49.4301 H   0  0  0  0  0  0  0  0  0  0  0  0
   61.5753   35.2038   48.3784 H   0  0  0  0  0  0  0  0  0  0  0  0
   60.5401   35.2002   45.7966 H   0  0  0  0  0  0  0  0  0  0  0  0
   60.4519   33.6047   44.9456 H   0  0  0  0  0  0  0  0  0  0  0  0
   58.1599   35.4003   45.8468 H   0  0  0  0  0  0  0  0  0  0  0  0
   58.5917   34.8259   44.1713 H   0  0  0  0  0  0  0  0  0  0  0  0
   56.4019   32.9125   43.7466 H   0  0  0  0  0  0  0  0  0  0  0  0
   58.2010   32.9194   43.4343 H   0  0  0  0  0  0  0  0  0  0  0  0
   59.6269   30.8229   44.3340 H   0  0  0  0  0  0  0  0  0  0  0  0
   59.1690   28.2818   44.6930 H   0  0  0  0  0  0  0  0  0  0  0  0
   56.5992   27.7051   44.8039 H   0  0  0  0  0  0  0  0  0  0  0  0
   56.8242   32.3877   47.0412 H   0  0  0  0  0  0  0  0  0  0  0  0
   58.2755   31.6185   46.2535 H   0  0  0  0  0  0  0  0  0  0  0  0
   58.2536   34.0882   48.0438 H   0  0  0  0  0  0  0  0  0  0  0  0
   58.9219   32.4710   48.4353 H   0  0  0  0  0  0  0  0  0  0  0  0
   60.4318   29.8724   48.3750 H   0  0  0  0  0  0  0  0  0  0  0  0
   59.3531   29.7693   46.9423 H   0  0  0  0  0  0  0  0  0  0  0  0
   60.9308   28.9106   46.9423 H   0  0  0  0  0  0  0  0  0  0  0  0
   63.4035   30.5722   47.9649 H   0  0  0  0  0  0  0  0  0  0  0  0
  1  2  1  0
  2  3  1  0
  3  4  2  0
  4  5  1  0
  5  6  2  0
  6  7  1  0
  7  8  1  0
  8  9  1  0
  9 10  1  0
 10 11  1  0
 11 12  1  0
 12 13  2  0
 13 14  1  0
 14 15  2  0
 15 16  1  0
 10 17  1  0
 17 18  1  0
  6 19  1  0
 19 20  1  0
 20 21  1  0
 19 22  2  0
 22  3  1  0
 18  7  1  0
 16 12  1  0
  1 23  1  0
  1 24  1  0
  1 25  1  0
  4 26  1  0
  5 27  1  0
  8 28  1  0
  8 29  1  0
  9 30  1  0
  9 31  1  0
 11 32  1  0
 11 33  1  0
 13 34  1  0
 14 35  1  0
 15 36  1  0
 17 37  1  0
 17 38  1  0
 18 39  1  0
 18 40  1  0
 21 41  1  0
 21 42  1  0
 21 43  1  0
 22 44  1  0
M  END
>  <UniqueID>  (33) 
31

>  <SMILES>  (33) 
COc1ccc(N2CCN(Cc3cccs3)CC2)c(OC)c1

>  <Energy>  (33) 
82.28877710414149

>  <Genealogy>  (33) 
COc1ccc(N2CCN(Cc3cccs3)CC2)c(OC)c1 (3D coordinates assigned)
COc1ccc(N2CCN(Cc3cccs3)CC2)c(OC)c1 (nonaromatic ring conformer: 82.28877710414149 kcal/mol)

>  <smiles>  (33) 
COc1ccc(N2CCN(Cc3cccs3)CC2)c(OC)c1

>  <score_type>  (33) 
oracle

>  <origin>  (33) 
adg

>  <m_score__min__energy>  (33) 
-7

>  <m_primary>  (33) 
energy

$$$$
33:0
     RDKit          3D

 38 39  0  0  0  0  0  0  0  0999 V2000
   59.6430   33.7880   49.7320 C   0  0  0  0  0  0  0  0  0  0  0  0
   60.1020   34.5160   48.5050 C   0  0  0  0  0  0  0  0  0  0  0  0
   60.9720   33.6860   47.6930 N   0  0  0  0  0  0  0  0  0  0  0  0
   62.2160   33.4530   48.3530 C   0  0  0  0  0  0  0  0  0  0  0  0
   63.4290   33.4520   47.4750 C   0  0  0  0  0  0  0  0  0  0  0  0
   61.1890   34.2130   46.3860 C   0  0  0  0  0  0  0  0  0  0  0  0
   59.9630   34.8980   45.8660 C   0  0  0  0  0  0  0  0  0  0  0  0
   59.3760   34.2650   44.6500 C   0  0  0  0  0  0  0  0  0  0  0  0
   58.5180   33.1460   44.9690 N   0  0  0  0  0  0  0  0  0  0  0  0
   58.2240   32.6930   46.1990 C   0  0  0  0  0  0  0  0  0  0  0  0
   57.3900   31.6250   46.1070 N   0  0  0  0  0  0  0  0  0  0  0  0
   57.1480   31.3890   44.8130 C   0  0  0  0  0  0  0  0  0  0  0  0
   56.3770   30.4310   44.1950 C   0  0  0  0  0  0  0  0  0  0  0  0
   55.7320   29.5580   44.8950 N   0  0  0  0  0  0  0  0  0  0  0  0
   56.3350   30.4560   42.8500 N   0  0  0  0  0  0  0  0  0  0  0  0
   57.0260   31.3900   42.1510 C   0  0  0  0  0  0  0  0  0  0  0  0
   57.7830   32.3300   42.7460 N   0  0  0  0  0  0  0  0  0  0  0  0
   57.8550   32.3430   44.0860 C   0  0  0  0  0  0  0  0  0  0  0  0
   59.9835   34.3281   50.6277 H   0  0  0  0  0  0  0  0  0  0  0  0
   58.5445   33.7298   49.7344 H   0  0  0  0  0  0  0  0  0  0  0  0
   60.0640   32.7718   49.7344 H   0  0  0  0  0  0  0  0  0  0  0  0
   59.2231   34.8035   47.9093 H   0  0  0  0  0  0  0  0  0  0  0  0
   60.6668   35.4056   48.8205 H   0  0  0  0  0  0  0  0  0  0  0  0
   62.3485   34.2392   49.1109 H   0  0  0  0  0  0  0  0  0  0  0  0
   62.1477   32.4372   48.7696 H   0  0  0  0  0  0  0  0  0  0  0  0
   64.3341   33.4513   48.1001 H   0  0  0  0  0  0  0  0  0  0  0  0
   63.4212   32.5539   46.8400 H   0  0  0  0  0  0  0  0  0  0  0  0
   63.4227   34.3502   46.8400 H   0  0  0  0  0  0  0  0  0  0  0  0
   62.0156   34.9378   46.4244 H   0  0  0  0  0  0  0  0  0  0  0  0
   61.4340   33.3794   45.7114 H   0  0  0  0  0  0  0  0  0  0  0  0
   59.2015   34.8911   46.6598 H   0  0  0  0  0  0  0  0  0  0  0  0
   60.2687   35.9141   45.5760 H   0  0  0  0  0  0  0  0  0  0  0  0
   58.7857   35.0195   44.1093 H   0  0  0  0  0  0  0  0  0  0  0  0
   60.2063   33.8858   44.0361 H   0  0  0  0  0  0  0  0  0  0  0  0
   58.6017   33.1222   47.1388 H   0  0  0  0  0  0  0  0  0  0  0  0
   55.6800   29.7420   45.9270 H   0  0  0  0  0  0  0  0  0  0  0  0
   55.7450   29.7240   42.3750 H   0  0  0  0  0  0  0  0  0  0  0  0
   56.9653   31.3789   41.0527 H   0  0  0  0  0  0  0  0  0  0  0  0
  1  2  1  0
  2  3  1  0
  3  4  1  0
  4  5  1  0
  3  6  1  0
  6  7  1  0
  7  8  1  0
  8  9  1  0
  9 10  1  0
 10 11  2  0
 11 12  1  0
 12 13  1  0
 13 14  2  3
 13 15  1  0
 15 16  1  0
 16 17  2  0
 17 18  1  0
 18  9  1  0
 18 12  2  0
  1 19  1  0
  1 20  1  0
  1 21  1  0
  2 22  1  0
  2 23  1  0
  4 24  1  0
  4 25  1  0
  5 26  1  0
  5 27  1  0
  5 28  1  0
  6 29  1  0
  6 30  1  0
  7 31  1  0
  7 32  1  0
  8 33  1  0
  8 34  1  0
 10 35  1  0
 14 36  1  0
 15 37  1  0
 16 38  1  0
M  END
>  <smiles>  (34) 
CCN(CC)CCCn1cnc2c(=N)[nH]cnc21

>  <score_type>  (34) 
oracle

>  <origin>  (34) 
adg

>  <m_score__min__energy>  (34) 
-5.96

>  <m_primary>  (34) 
energy

$$$$
34:0
     RDKit          3D

 27 27  0  0  0  0  0  0  0  0999 V2000
   56.6800   30.2900   43.5280 C   0  0  0  0  0  0  0  0  0  0  0  0
   56.6550   30.8510   44.8370 O   0  0  0  0  0  0  0  0  0  0  0  0
   57.4380   31.9400   45.2470 C   0  0  0  0  0  0  0  0  0  0  0  0
   57.3940   33.1120   44.4930 C   0  0  0  0  0  0  0  0  0  0  0  0
   58.1590   34.2150   44.8750 C   0  0  0  0  0  0  0  0  0  0  0  0
   58.9460   34.1670   45.9930 N   0  0  0  0  0  0  0  0  0  0  0  0
   59.7340   35.3500   46.3590 C   0  0  0  0  0  0  0  0  0  0  0  0
   59.0240   33.0160   46.7380 C   0  0  0  0  0  0  0  0  0  0  0  0
   59.8860   32.9410   47.8850 N   0  0  0  0  0  0  0  0  0  0  0  0
   61.2350   32.4050   47.7180 C   0  0  0  0  0  0  0  0  0  0  0  0
   59.2950   32.9500   49.2220 C   0  0  0  0  0  0  0  0  0  0  0  0
   58.2630   31.8940   46.3800 C   0  0  0  0  0  0  0  0  0  0  0  0
   56.7289   29.1934   43.5999 H   0  0  0  0  0  0  0  0  0  0  0  0
   55.7680   30.5817   42.9866 H   0  0  0  0  0  0  0  0  0  0  0  0
   57.5625   30.6616   42.9866 H   0  0  0  0  0  0  0  0  0  0  0  0
   56.7570   33.1672   43.5979 H   0  0  0  0  0  0  0  0  0  0  0  0
   58.1288   35.1334   44.2703 H   0  0  0  0  0  0  0  0  0  0  0  0
   59.7875   35.4303   47.4548 H   0  0  0  0  0  0  0  0  0  0  0  0
   60.7500   35.2552   45.9483 H   0  0  0  0  0  0  0  0  0  0  0  0
   59.2550   36.2510   45.9483 H   0  0  0  0  0  0  0  0  0  0  0  0
   61.6837   32.2267   48.7064 H   0  0  0  0  0  0  0  0  0  0  0  0
   61.1868   31.4577   47.1609 H   0  0  0  0  0  0  0  0  0  0  0  0
   61.8501   33.1270   47.1609 H   0  0  0  0  0  0  0  0  0  0  0  0
   60.0952   32.9378   49.9767 H   0  0  0  0  0  0  0  0  0  0  0  0
   58.6862   33.8575   49.3477 H   0  0  0  0  0  0  0  0  0  0  0  0
   58.6589   32.0614   49.3477 H   0  0  0  0  0  0  0  0  0  0  0  0
   58.3131   30.9783   46.9875 H   0  0  0  0  0  0  0  0  0  0  0  0
  1  2  1  0
  2  3  1  0
  3  4  2  0
  4  5  1  0
  5  6  2  0
  6  7  1  0
  6  8  1  0
  8  9  1  0
  9 10  1  0
  9 11  1  0
  8 12  2  0
 12  3  1  0
  1 13  1  0
  1 14  1  0
  1 15  1  0
  4 16  1  0
  5 17  1  0
  7 18  1  0
  7 19  1  0
  7 20  1  0
 10 21  1  0
 10 22  1  0
 10 23  1  0
 11 24  1  0
 11 25  1  0
 11 26  1  0
 12 27  1  0
M  CHG  1   6   1
M  END
>  <UniqueID>  (35) 
32

>  <SMILES>  (35) 
COc1cc[n+](C)c(N(C)C)c1

>  <Energy>  (35) 
29.42442612819681

>  <Genealogy>  (35) 
COc1cc[n+](C)c(N(C)C)c1 (3D coordinates assigned)
COc1cc[n+](C)c(N(C)C)c1 (optimized conformer: 29.42442612819681 kcal/mol)

>  <smiles>  (35) 
COc1cc[n+](C)c(N(C)C)c1

>  <score_type>  (35) 
oracle

>  <origin>  (35) 
adg

>  <m_score__min__energy>  (35) 
-2.8700000000000001

>  <m_primary>  (35) 
energy

$$$$
35:0
     RDKit          3D

 46 47  0  0  0  0  0  0  0  0999 V2000
   55.8760   29.3390   44.4820 C   0  0  0  0  0  0  0  0  0  0  0  0
   56.6700   30.5210   44.0110 C   0  0  0  0  0  0  0  0  0  0  0  0
   56.7180   30.8480   42.6490 C   0  0  0  0  0  0  0  0  0  0  0  0
   57.4660   31.9510   42.2080 C   0  0  0  0  0  0  0  0  0  0  0  0
   57.4360   32.3430   40.7590 C   0  0  0  0  0  0  0  0  0  0  0  0
   58.1680   32.7280   43.1420 C   0  0  0  0  0  0  0  0  0  0  0  0
   58.1610   32.3860   44.5060 C   0  0  0  0  0  0  0  0  0  0  0  0
   58.8370   33.1920   45.4870 N   0  0  0  0  0  0  0  0  0  0  0  0
   59.8650   32.7100   46.3750 C   0  0  0  0  0  0  0  0  0  0  0  0
   59.7260   31.2080   47.0350 S   0  0  0  0  0  0  0  0  0  0  0  0
   60.8580   33.6270   46.9030 N   0  0  2  0  0  0  0  0  0  0  0  0
   62.1750   32.9540   46.9720 C   0  0  0  0  0  0  0  0  0  0  0  0
   63.1940   33.7940   47.7560 C   0  0  0  0  0  0  0  0  0  0  0  0
   62.7420   34.0980   49.2220 C   0  0  2  0  0  0  0  0  0  0  0  0
   63.6050   33.3880   50.2210 N   0  0  0  0  0  0  0  0  0  0  0  0
   64.8330   32.8560   49.5820 C   0  0  0  0  0  0  0  0  0  0  0  0
   64.0170   34.2660   51.3350 C   0  0  0  0  0  0  0  0  0  0  0  0
   61.2330   33.7690   49.4010 C   0  0  0  0  0  0  0  0  0  0  0  0
   60.4080   34.2280   48.1910 C   0  0  0  0  0  0  0  0  0  0  0  0
   57.4010   31.2870   44.9310 C   0  0  0  0  0  0  0  0  0  0  0  0
   55.8635   29.3204   45.5818 H   0  0  0  0  0  0  0  0  0  0  0  0
   54.8455   29.4157   44.1048 H   0  0  0  0  0  0  0  0  0  0  0  0
   56.3366   28.4140   44.1048 H   0  0  0  0  0  0  0  0  0  0  0  0
   56.1657   30.2361   41.9206 H   0  0  0  0  0  0  0  0  0  0  0  0
   57.3523   33.4367   40.6767 H   0  0  0  0  0  0  0  0  0  0  0  0
   58.3624   32.0083   40.2693 H   0  0  0  0  0  0  0  0  0  0  0  0
   56.5713   31.8712   40.2693 H   0  0  0  0  0  0  0  0  0  0  0  0
   58.7286   33.6122   42.8044 H   0  0  0  0  0  0  0  0  0  0  0  0
   58.6010   34.2110   45.5120 H   0  0  0  0  0  0  0  0  0  0  0  0
   60.9580   34.4170   46.2200 H   0  0  0  0  0  0  0  0  0  0  0  0
   62.0539   31.9812   47.4709 H   0  0  0  0  0  0  0  0  0  0  0  0
   62.5507   32.8231   45.9465 H   0  0  0  0  0  0  0  0  0  0  0  0
   64.1469   33.2456   47.7903 H   0  0  0  0  0  0  0  0  0  0  0  0
   63.2917   34.7588   47.2367 H   0  0  0  0  0  0  0  0  0  0  0  0
   62.8714   35.1736   49.4125 H   0  0  0  0  0  0  0  0  0  0  0  0
   65.5466   32.5468   50.3599 H   0  0  0  0  0  0  0  0  0  0  0  0
   64.5746   31.9892   48.9561 H   0  0  0  0  0  0  0  0  0  0  0  0
   65.2886   33.6374   48.9561 H   0  0  0  0  0  0  0  0  0  0  0  0
   63.7870   33.7759   52.2925 H   0  0  0  0  0  0  0  0  0  0  0  0
   65.0985   34.4565   51.2711 H   0  0  0  0  0  0  0  0  0  0  0  0
   63.4723   35.2195   51.2711 H   0  0  0  0  0  0  0  0  0  0  0  0
   61.1163   32.6818   49.5211 H   0  0  0  0  0  0  0  0  0  0  0  0
   60.8671   34.3036   50.2900 H   0  0  0  0  0  0  0  0  0  0  0  0
   59.3578   33.9468   48.3585 H   0  0  0  0  0  0  0  0  0  0  0  0
   60.5391   35.3167   48.1038 H   0  0  0  0  0  0  0  0  0  0  0  0
   57.3778   31.0224   45.9985 H   0  0  0  0  0  0  0  0  0  0  0  0
  1  2  1  0
  2  3  2  0
  3  4  1  0
  4  5  1  0
  4  6  2  0
  6  7  1  0
  7  8  1  0
  8  9  1  0
  9 10  2  0
  9 11  1  0
 11 12  1  0
 12 13  1  0
 13 14  1  0
 14 15  1  0
 15 16  1  0
 15 17  1  0
 14 18  1  0
 18 19  1  0
  7 20  2  0
 20  2  1  0
 19 11  1  0
  1 21  1  0
  1 22  1  0
  1 23  1  0
  3 24  1  0
  5 25  1  0
  5 26  1  0
  5 27  1  0
  6 28  1  0
  8 29  1  0
 11 30  1  6
 12 31  1  0
 12 32  1  0
 13 33  1  0
 13 34  1  0
 14 35  1  1
 16 36  1  0
 16 37  1  0
 16 38  1  0
 17 39  1  0
 17 40  1  0
 17 41  1  0
 18 42  1  0
 18 43  1  0
 19 44  1  0
 19 45  1  0
 20 46  1  0
M  CHG  1  11   1
M  END
>  <UniqueID>  (36) 
33

>  <SMILES>  (36) 
Cc1cc(C)cc(NC(=S)[NH+]2CCC(N(C)C)CC2)c1

>  <Energy>  (36) 
65.04082259174143

>  <Genealogy>  (36) 
Cc1cc(C)cc(NC(=S)[NH+]2CCC(N(C)C)CC2)c1 (protonated)
Cc1cc(C)cc(NC(=S)[NH+]2CCC(N(C)C)CC2)c1 (3D coordinates assigned)
Cc1cc(C)cc(NC(=S)[NH+]2CCC(N(C)C)CC2)c1 (nonaromatic ring conformer: 65.04082259174143 kcal/mol)

>  <smiles>  (36) 
Cc1cc(C)cc(NC(=S)N2CCC(N(C)C)CC2)c1

>  <score_type>  (36) 
oracle

>  <origin>  (36) 
adg

>  <m_score__min__energy>  (36) 
-5.6399999999999997

>  <m_primary>  (36) 
energy

$$$$
36:0
     RDKit          3D

 29 30  0  0  0  0  0  0  0  0999 V2000
   60.3650   26.9300   46.3750 C   0  0  0  0  0  0  0  0  0  0  0  0
   59.5930   27.9540   45.6500 N   0  0  0  0  0  0  0  0  0  0  0  0
   60.5130   28.8300   44.9080 C   0  0  0  0  0  0  0  0  0  0  0  0
   58.7720   28.7560   46.5800 C   0  0  0  0  0  0  0  0  0  0  0  0
   57.9850   29.7630   45.8420 N   0  0  0  0  0  0  0  0  0  0  0  0
   56.8170   29.3130   45.1230 C   0  0  0  0  0  0  0  0  0  0  0  0
   56.3710   28.1440   45.2870 O   0  0  0  0  0  0  0  0  0  0  0  0
   56.1680   30.2070   44.1140 C   0  0  0  0  0  0  0  0  0  0  0  0
   56.2870   31.5730   44.4990 O   0  0  0  0  0  0  0  0  0  0  0  0
   57.3990   32.0680   45.1830 C   0  0  0  0  0  0  0  0  0  0  0  0
   57.6110   33.4500   45.2190 C   0  0  0  0  0  0  0  0  0  0  0  0
   58.7100   33.9760   45.8980 C   0  0  0  0  0  0  0  0  0  0  0  0
   59.5970   33.1220   46.5530 C   0  0  0  0  0  0  0  0  0  0  0  0
   61.0940   33.8480   47.4940 Br  0  0  0  0  0  0  0  0  0  0  0  0
   59.3870   31.7390   46.5350 C   0  0  0  0  0  0  0  0  0  0  0  0
   58.2810   31.1870   45.8470 C   0  0  0  0  0  0  0  0  0  0  0  0
   60.2499   27.0827   47.4583 H   0  0  0  0  0  0  0  0  0  0  0  0
   59.9936   25.9307   46.1040 H   0  0  0  0  0  0  0  0  0  0  0  0
   61.4279   27.0120   46.1040 H   0  0  0  0  0  0  0  0  0  0  0  0
   61.1211   29.4090   45.6186 H   0  0  0  0  0  0  0  0  0  0  0  0
   61.1722   28.2175   44.2753 H   0  0  0  0  0  0  0  0  0  0  0  0
   59.9336   29.5184   44.2753 H   0  0  0  0  0  0  0  0  0  0  0  0
   58.0867   28.0894   47.1241 H   0  0  0  0  0  0  0  0  0  0  0  0
   59.4387   29.2741   47.2851 H   0  0  0  0  0  0  0  0  0  0  0  0
   56.6553   30.0634   43.1383 H   0  0  0  0  0  0  0  0  0  0  0  0
   55.1003   29.9501   44.0498 H   0  0  0  0  0  0  0  0  0  0  0  0
   56.9078   34.1252   44.7095 H   0  0  0  0  0  0  0  0  0  0  0  0
   58.8769   35.0631   45.9168 H   0  0  0  0  0  0  0  0  0  0  0  0
   60.0885   31.0745   47.0608 H   0  0  0  0  0  0  0  0  0  0  0  0
  1  2  1  0
  2  3  1  0
  2  4  1  0
  4  5  1  0
  5  6  1  0
  6  7  2  0
  6  8  1  0
  8  9  1  0
  9 10  1  0
 10 11  2  0
 11 12  1  0
 12 13  2  0
 13 14  1  0
 13 15  1  0
 15 16  2  0
 16  5  1  0
 16 10  1  0
  1 17  1  0
  1 18  1  0
  1 19  1  0
  3 20  1  0
  3 21  1  0
  3 22  1  0
  4 23  1  0
  4 24  1  0
  8 25  1  0
  8 26  1  0
 11 27  1  0
 12 28  1  0
 15 29  1  0
M  END
>  <UniqueID>  (37) 
34

>  <SMILES>  (37) 
CN(C)CN1C(=O)COc2ccc(Br)cc21

>  <Energy>  (37) 
34.58622438154184

>  <Genealogy>  (37) 
CN(C)CN1C(=O)COc2ccc(Br)cc21 (3D coordinates assigned)
CN(C)CN1C(=O)COc2ccc(Br)cc21 (nonaromatic ring conformer: 34.58622438154184 kcal/mol)

>  <smiles>  (37) 
CN(C)CN1C(=O)COc2ccc(Br)cc21

>  <score_type>  (37) 
oracle

>  <origin>  (37) 
adg

>  <m_score__min__energy>  (37) 
-5.8300000000000001

>  <m_primary>  (37) 
energy

$$$$
37:0
     RDKit          3D

 52 55  0  0  0  0  0  0  0  0999 V2000
   61.0940   26.6270   50.1990 C   0  0  0  0  0  0  0  0  0  0  0  0
   60.0260   26.3040   49.3140 O   0  0  0  0  0  0  0  0  0  0  0  0
   59.6170   27.1050   48.2390 C   0  0  0  0  0  0  0  0  0  0  0  0
   59.2710   26.5570   46.9880 C   0  0  0  0  0  0  0  0  0  0  0  0
   58.9030   27.3890   45.9290 C   0  0  0  0  0  0  0  0  0  0  0  0
   58.5580   26.8510   44.7320 N   0  0  0  0  0  0  0  0  0  0  0  0
   58.2050   27.6400   43.6840 C   0  0  0  0  0  0  0  0  0  0  0  0
   58.2190   28.9920   43.8090 N   0  0  0  0  0  0  0  0  0  0  0  0
   58.5730   29.5870   44.9810 C   0  0  0  0  0  0  0  0  0  0  0  0
   58.6420   31.0170   45.0480 N   0  0  0  0  0  0  0  0  0  0  0  0
   57.8090   31.8900   44.2380 C   0  0  0  0  0  0  0  0  0  0  0  0
   58.2240   33.3080   44.6180 C   0  0  0  0  0  0  0  0  0  0  0  0
   58.9240   33.1620   45.9720 C   0  0  2  0  0  0  0  0  0  0  0  0
   59.9330   34.2080   46.2150 N   0  0  0  0  0  0  0  0  0  0  0  0
   59.6540   35.5770   45.7830 C   0  0  0  0  0  0  0  0  0  0  0  0
   61.1020   33.9670   47.0130 C   0  0  0  0  0  0  0  0  0  0  0  0
   61.0350   34.0720   48.4100 C   0  0  0  0  0  0  0  0  0  0  0  0
   62.1890   33.8620   49.1680 C   0  0  0  0  0  0  0  0  0  0  0  0
   63.3970   33.5620   48.5280 C   0  0  0  0  0  0  0  0  0  0  0  0
   64.5970   33.3560   49.2960 C   0  0  0  0  0  0  0  0  0  0  0  0
   65.5610   33.1910   49.9150 N   0  0  0  0  0  0  0  0  0  0  0  0
   63.4270   33.4700   47.1300 C   0  0  0  0  0  0  0  0  0  0  0  0
   62.2910   33.6720   46.4120 N   0  0  0  0  0  0  0  0  0  0  0  0
   59.4900   31.7400   45.9810 C   0  0  0  0  0  0  0  0  0  0  0  0
   58.8920   28.7870   46.0980 C   0  0  0  0  0  0  0  0  0  0  0  0
   59.1750   29.3290   47.3630 C   0  0  0  0  0  0  0  0  0  0  0  0
   59.5520   28.4940   48.4310 C   0  0  0  0  0  0  0  0  0  0  0  0
   59.8740   29.0100   49.6970 O   0  0  0  0  0  0  0  0  0  0  0  0
   60.6340   30.1940   49.9170 C   0  0  0  0  0  0  0  0  0  0  0  0
   60.7521   26.5236   51.2394 H   0  0  0  0  0  0  0  0  0  0  0  0
   61.9374   25.9438   50.0206 H   0  0  0  0  0  0  0  0  0  0  0  0
   61.4174   27.6631   50.0206 H   0  0  0  0  0  0  0  0  0  0  0  0
   59.2909   25.4665   46.8447 H   0  0  0  0  0  0  0  0  0  0  0  0
   57.9064   27.1815   42.7297 H   0  0  0  0  0  0  0  0  0  0  0  0
   57.9680   29.5810   42.9830 H   0  0  0  0  0  0  0  0  0  0  0  0
   57.9884   31.7097   43.1678 H   0  0  0  0  0  0  0  0  0  0  0  0
   56.7376   31.7148   44.4149 H   0  0  0  0  0  0  0  0  0  0  0  0
   58.9133   33.7239   43.8684 H   0  0  0  0  0  0  0  0  0  0  0  0
   57.3645   33.9928   44.6670 H   0  0  0  0  0  0  0  0  0  0  0  0
   58.2240   33.3071   46.8080 H   0  0  0  0  0  0  0  0  0  0  0  0
   59.5229   36.2204   46.6655 H   0  0  0  0  0  0  0  0  0  0  0  0
   60.4947   35.9495   45.1793 H   0  0  0  0  0  0  0  0  0  0  0  0
   58.7346   35.5908   45.1793 H   0  0  0  0  0  0  0  0  0  0  0  0
   60.0831   34.3173   48.9036 H   0  0  0  0  0  0  0  0  0  0  0  0
   62.1486   33.9322   50.2650 H   0  0  0  0  0  0  0  0  0  0  0  0
   64.3695   33.2344   46.6141 H   0  0  0  0  0  0  0  0  0  0  0  0
   60.5368   31.7339   45.6431 H   0  0  0  0  0  0  0  0  0  0  0  0
   59.4917   31.2918   46.9856 H   0  0  0  0  0  0  0  0  0  0  0  0
   59.1012   30.4153   47.5198 H   0  0  0  0  0  0  0  0  0  0  0  0
   60.7431   30.3640   50.9983 H   0  0  0  0  0  0  0  0  0  0  0  0
   61.6288   30.0811   49.4613 H   0  0  0  0  0  0  0  0  0  0  0  0
   60.1171   31.0514   49.4613 H   0  0  0  0  0  0  0  0  0  0  0  0
  1  2  1  0
  2  3  1  0
  3  4  2  0
  4  5  1  0
  5  6  2  0
  6  7  1  0
  7  8  2  0
  8  9  1  0
  9 10  1  0
 10 11  1  0
 11 12  1  0
 12 13  1  0
 13 14  1  0
 14 15  1  0
 14 16  1  0
 16 17  2  0
 17 18  1  0
 18 19  2  0
 19 20  1  0
 20 21  3  0
 19 22  1  0
 22 23  2  0
 13 24  1  0
  9 25  2  0
 25 26  1  0
 26 27  2  0
 27 28  1  0
 28 29  1  0
 27  3  1  0
 25  5  1  0
 24 10  1  0
 23 16  1  0
  1 30  1  0
  1 31  1  0
  1 32  1  0
  4 33  1  0
  7 34  1  0
  8 35  1  0
 11 36  1  0
 11 37  1  0
 12 38  1  0
 12 39  1  0
 13 40  1  1
 15 41  1  0
 15 42  1  0
 15 43  1  0
 17 44  1  0
 18 45  1  0
 22 46  1  0
 24 47  1  0
 24 48  1  0
 26 49  1  0
 29 50  1  0
 29 51  1  0
 29 52  1  0
M  CHG  1   8   1
M  END
>  <UniqueID>  (38) 
35

>  <SMILES>  (38) 
COc1cc2nc[nH+]c(N3CC[C@H](N(C)c4ccc(C#N)cn4)C3)c2cc1OC

>  <Energy>  (38) 
71.2542742322734

>  <Genealogy>  (38) 
COc1cc2nc[nH+]c(N3CCC(N(C)c4ccc(C#N)cn4)C3)c2cc1OC (protonated)
COc1cc2nc[nH+]c(N3CC[C@H](N(C)c4ccc(C#N)cn4)C3)c2cc1OC (chirality)
COc1cc2nc[nH+]c(N3CC[C@H](N(C)c4ccc(C#N)cn4)C3)c2cc1OC (3D coordinates assigned)
COc1cc2nc[nH+]c(N3CC[C@H](N(C)c4ccc(C#N)cn4)C3)c2cc1OC (nonaromatic ring conformer: 71.2542742322734 kcal/mol)

>  <smiles>  (38) 
COc1cc2ncnc(N3CCC(N(C)c4ccc(C#N)cn4)C3)c2cc1OC

>  <score_type>  (38) 
oracle

>  <origin>  (38) 
adg

>  <m_score__min__energy>  (38) 
-6.2800000000000002

>  <m_primary>  (38) 
energy

$$$$
38:0
     RDKit          3D

 46 47  0  0  1  0  0  0  0  0999 V2000
   56.2430   29.7610   42.5740 C   0  0  0  0  0  0  0  0  0  0  0  0
   56.9110   29.8330   43.9240 C   0  0  0  0  0  0  0  0  0  0  0  0
   56.9610   28.7470   44.7130 N   0  0  0  0  0  0  0  0  0  0  0  0
   57.5460   28.7750   45.9130 C   0  0  0  0  0  0  0  0  0  0  0  0
   57.5700   27.7080   46.6160 N   0  0  0  0  0  0  0  0  0  0  0  0
   58.7750   27.0010   46.9770 C   0  0  0  0  0  0  0  0  0  0  0  0
   58.6950   25.6880   46.1760 C   0  0  0  0  0  0  0  0  0  0  0  0
   57.6950   25.7810   45.1740 N   0  0  0  0  0  0  0  0  0  0  0  0
   56.7920   24.6830   45.1100 C   0  0  0  0  0  0  0  0  0  0  0  0
   55.4810   25.0680   45.7990 C   0  0  0  0  0  0  0  0  0  0  0  0
   55.3670   26.4940   45.9910 N   0  0  0  0  0  0  0  0  0  0  0  0
   58.1210   29.9350   46.3810 C   0  0  0  0  0  0  0  0  0  0  0  0
   58.0670   31.0390   45.5720 C   0  0  0  0  0  0  0  0  0  0  0  0
   58.6100   32.3040   45.9340 N   0  0  0  0  0  0  0  0  0  0  0  0
   57.9010   33.4710   45.4140 C   0  0  0  0  0  0  0  0  0  0  0  0
   58.8300   34.6270   45.1870 C   0  0  0  0  0  0  0  0  0  0  0  0
   59.4870   34.9270   46.5030 C   0  0  0  0  0  0  0  0  0  0  0  0
   60.3210   33.7700   46.9630 C   0  0  0  0  0  0  0  0  0  0  0  0
   59.7740   32.4240   46.7540 C   0  0  0  0  0  0  0  0  0  0  0  0
   57.4640   30.9970   44.3430 N   0  0  0  0  0  0  0  0  0  0  0  0
   55.1575   29.6440   42.7078 H   0  0  0  0  0  0  0  0  0  0  0  0
   56.4459   30.6862   42.0147 H   0  0  0  0  0  0  0  0  0  0  0  0
   56.6384   28.9003   42.0147 H   0  0  0  0  0  0  0  0  0  0  0  0
   59.6668   27.5785   46.6919 H   0  0  0  0  0  0  0  0  0  0  0  0
   58.8554   26.8300   48.0607 H   0  0  0  0  0  0  0  0  0  0  0  0
   59.6677   25.4935   45.7006 H   0  0  0  0  0  0  0  0  0  0  0  0
   58.4387   24.8666   46.8613 H   0  0  0  0  0  0  0  0  0  0  0  0
   57.1310   26.6600   45.2930 H   0  0  0  0  0  0  0  0  0  0  0  0
   56.5941   24.4304   44.0578 H   0  0  0  0  0  0  0  0  0  0  0  0
   57.2334   23.8119   45.6164 H   0  0  0  0  0  0  0  0  0  0  0  0
   54.6401   24.7253   45.1782 H   0  0  0  0  0  0  0  0  0  0  0  0
   55.4661   24.5905   46.7898 H   0  0  0  0  0  0  0  0  0  0  0  0
   55.8920   27.0550   45.2950 H   0  0  0  0  0  0  0  0  0  0  0  0
   55.6370   26.7310   46.9460 H   0  0  0  0  0  0  0  0  0  0  0  0
   58.6057   29.9738   47.3677 H   0  0  0  0  0  0  0  0  0  0  0  0
   57.4249   33.2031   44.4592 H   0  0  0  0  0  0  0  0  0  0  0  0
   57.1489   33.7753   46.1568 H   0  0  0  0  0  0  0  0  0  0  0  0
   59.5897   34.3596   44.4378 H   0  0  0  0  0  0  0  0  0  0  0  0
   58.2813   35.5040   44.8132 H   0  0  0  0  0  0  0  0  0  0  0  0
   60.1305   35.8120   46.3903 H   0  0  0  0  0  0  0  0  0  0  0  0
   58.7030   35.1134   47.2517 H   0  0  0  0  0  0  0  0  0  0  0  0
   61.2824   33.8228   46.4311 H   0  0  0  0  0  0  0  0  0  0  0  0
   60.3856   33.8835   48.0552 H   0  0  0  0  0  0  0  0  0  0  0  0
   60.5656   31.8147   46.2933 H   0  0  0  0  0  0  0  0  0  0  0  0
   59.4481   32.0963   47.7522 H   0  0  0  0  0  0  0  0  0  0  0  0
   57.4360   31.8590   43.7310 H   0  0  0  0  0  0  0  0  0  0  0  0
  1  2  1  0
  2  3  2  0
  3  4  1  0
  4  5  2  0
  5  6  1  0
  6  7  1  0
  7  8  1  0
  8  9  1  0
  9 10  1  0
 10 11  1  0
  4 12  1  0
 12 13  2  0
 13 14  1  0
 14 15  1  0
 15 16  1  0
 16 17  1  0
 17 18  1  0
 18 19  1  0
 13 20  1  0
 20  2  1  0
 19 14  1  0
  1 21  1  0
  1 22  1  0
  1 23  1  0
  6 24  1  0
  6 25  1  0
  7 26  1  0
  7 27  1  0
  8 28  1  0
  9 29  1  0
  9 30  1  0
 10 31  1  0
 10 32  1  0
 11 33  1  0
 11 34  1  0
 12 35  1  0
 15 36  1  0
 15 37  1  0
 16 38  1  0
 16 39  1  0
 17 40  1  0
 17 41  1  0
 18 42  1  0
 18 43  1  0
 19 44  1  0
 19 45  1  0
 20 46  1  0
M  END
>  <smiles>  (39) 
Cc1nc(=NCCNCCN)cc(N2CCCCC2)[nH]1

>  <score_type>  (39) 
oracle

>  <origin>  (39) 
adg

>  <m_score__min__energy>  (39) 
-6.1299999999999999

>  <m_primary>  (39) 
energy

$$$$
39:0
     RDKit          3D

 54 58  0  0  0  0  0  0  0  0999 V2000
   61.1880   30.7080   49.6520 C   0  0  0  0  0  0  0  0  0  0  0  0
   62.5960   30.9880   50.1010 C   0  0  0  0  0  0  0  0  0  0  0  0
   63.1920   30.1670   51.0740 C   0  0  0  0  0  0  0  0  0  0  0  0
   64.4980   30.4150   51.5050 C   0  0  0  0  0  0  0  0  0  0  0  0
   65.2180   31.4880   50.9770 C   0  0  0  0  0  0  0  0  0  0  0  0
   64.6320   32.3220   50.0220 C   0  0  0  0  0  0  0  0  0  0  0  0
   63.3200   32.0860   49.5860 C   0  0  0  0  0  0  0  0  0  0  0  0
   62.7280   32.9680   48.6210 N   0  0  0  0  0  0  0  0  0  0  0  0
   61.9120   34.0990   49.0740 C   0  0  0  0  0  0  0  0  0  0  0  0
   60.6920   34.3040   48.1530 C   0  0  0  0  0  0  0  0  0  0  0  0
   60.9150   33.8190   46.7700 N   0  0  0  0  0  0  0  0  0  0  0  0
   59.9930   34.4280   45.7860 C   0  0  0  0  0  0  0  0  0  0  0  0
   58.5300   33.9580   45.9180 C   0  0  0  0  0  0  0  0  0  0  0  0
   58.4310   32.5180   45.6090 N   0  0  0  0  0  0  0  0  0  0  0  0
   58.3080   32.0950   44.2990 C   0  0  0  0  0  0  0  0  0  0  0  0
   58.2650   32.9350   43.3570 O   0  0  0  0  0  0  0  0  0  0  0  0
   58.2380   30.7630   43.9990 N   0  0  0  0  0  0  0  0  0  0  0  0
   58.3000   29.8410   44.9940 C   0  0  0  0  0  0  0  0  0  0  0  0
   58.4400   30.2430   46.3080 C   0  0  0  0  0  0  0  0  0  0  0  0
   58.5010   28.9010   47.3340 S   0  0  0  0  0  0  0  0  0  0  0  0
   58.3440   27.7870   46.0740 C   0  0  0  0  0  0  0  0  0  0  0  0
   58.3110   26.3980   46.1670 C   0  0  0  0  0  0  0  0  0  0  0  0
   58.1740   25.6560   44.9840 C   0  0  0  0  0  0  0  0  0  0  0  0
   58.0740   26.3090   43.7410 C   0  0  0  0  0  0  0  0  0  0  0  0
   58.1090   27.7110   43.6660 C   0  0  0  0  0  0  0  0  0  0  0  0
   58.2450   28.4470   44.8510 C   0  0  0  0  0  0  0  0  0  0  0  0
   58.5150   31.5920   46.6240 C   0  0  0  0  0  0  0  0  0  0  0  0
   58.6610   31.9490   47.8250 O   0  0  0  0  0  0  0  0  0  0  0  0
   62.3290   33.8450   46.3540 C   0  0  0  0  0  0  0  0  0  0  0  0
   63.1150   32.8530   47.2120 C   0  0  0  0  0  0  0  0  0  0  0  0
   60.5411   30.5794   50.5324 H   0  0  0  0  0  0  0  0  0  0  0  0
   60.8214   31.5508   49.0476 H   0  0  0  0  0  0  0  0  0  0  0  0
   61.1718   29.7890   49.0476 H   0  0  0  0  0  0  0  0  0  0  0  0
   62.6269   29.3242   51.4987 H   0  0  0  0  0  0  0  0  0  0  0  0
   64.9595   29.7635   52.2617 H   0  0  0  0  0  0  0  0  0  0  0  0
   66.2481   31.6770   51.3134 H   0  0  0  0  0  0  0  0  0  0  0  0
   65.2021   33.1677   49.6100 H   0  0  0  0  0  0  0  0  0  0  0  0
   61.5609   33.9021   50.0977 H   0  0  0  0  0  0  0  0  0  0  0  0
   62.5288   35.0094   49.0467 H   0  0  0  0  0  0  0  0  0  0  0  0
   59.8364   33.7604   48.5802 H   0  0  0  0  0  0  0  0  0  0  0  0
   60.5063   35.3866   48.0933 H   0  0  0  0  0  0  0  0  0  0  0  0
   60.0183   35.5197   45.9187 H   0  0  0  0  0  0  0  0  0  0  0  0
   60.3386   34.1125   44.7905 H   0  0  0  0  0  0  0  0  0  0  0  0
   58.1824   34.1343   46.9467 H   0  0  0  0  0  0  0  0  0  0  0  0
   57.9049   34.5223   45.2103 H   0  0  0  0  0  0  0  0  0  0  0  0
   58.1400   30.4650   43.0030 H   0  0  0  0  0  0  0  0  0  0  0  0
   58.3903   25.8956   47.1424 H   0  0  0  0  0  0  0  0  0  0  0  0
   58.1446   24.5573   45.0282 H   0  0  0  0  0  0  0  0  0  0  0  0
   57.9675   25.7162   42.8206 H   0  0  0  0  0  0  0  0  0  0  0  0
   58.0311   28.2221   42.6951 H   0  0  0  0  0  0  0  0  0  0  0  0
   62.4076   33.5603   45.2944 H   0  0  0  0  0  0  0  0  0  0  0  0
   62.7380   34.8577   46.4853 H   0  0  0  0  0  0  0  0  0  0  0  0
   62.9084   31.8305   46.8629 H   0  0  0  0  0  0  0  0  0  0  0  0
   64.1879   33.0777   47.1200 H   0  0  0  0  0  0  0  0  0  0  0  0
  1  2  1  0
  2  3  2  0
  3  4  1  0
  4  5  2  0
  5  6  1  0
  6  7  2  0
  7  8  1  0
  8  9  1  0
  9 10  1  0
 10 11  1  0
 11 12  1  0
 12 13  1  0
 13 14  1  0
 14 15  1  0
 15 16  2  0
 15 17  1  0
 17 18  1  0
 18 19  2  0
 19 20  1  0
 20 21  1  0
 21 22  2  0
 22 23  1  0
 23 24  2  0
 24 25  1  0
 25 26  2  0
 19 27  1  0
 27 28  2  0
 11 29  1  0
 29 30  1  0
  7  2  1  0
 30  8  1  0
 27 14  1  0
 26 18  1  0
 26 21  1  0
  1 31  1  0
  1 32  1  0
  1 33  1  0
  3 34  1  0
  4 35  1  0
  5 36  1  0
  6 37  1  0
  9 38  1  0
  9 39  1  0
 10 40  1  0
 10 41  1  0
 12 42  1  0
 12 43  1  0
 13 44  1  0
 13 45  1  0
 17 46  1  0
 22 47  1  0
 23 48  1  0
 24 49  1  0
 25 50  1  0
 29 51  1  0
 29 52  1  0
 30 53  1  0
 30 54  1  0
M  END
>  <UniqueID>  (40) 
36

>  <SMILES>  (40) 
Cc1ccccc1N1CCN(CCn2c(=O)[nH]c3c(sc4ccccc43)c2=O)CC1

>  <Energy>  (40) 
112.6159999568575

>  <Genealogy>  (40) 
Cc1ccccc1N1CCN(CCn2c(=O)[nH]c3c(sc4ccccc43)c2=O)CC1 (3D coordinates assigned)
Cc1ccccc1N1CCN(CCn2c(=O)[nH]c3c(sc4ccccc43)c2=O)CC1 (nonaromatic ring conformer: 112.6159999568575 kcal/mol)

>  <smiles>  (40) 
Cc1ccccc1N1CCN(CCn2c(=O)[nH]c3c(sc4ccccc43)c2=O)CC1

>  <score_type>  (40) 
oracle

>  <origin>  (40) 
adg

>  <m_score__min__energy>  (40) 
-9.6099999999999994

>  <m_primary>  (40) 
energy

$$$$
40:0
     RDKit          3D

 46 47  0  0  0  0  0  0  0  0999 V2000
   54.7240   24.6500   45.5200 C   0  0  0  0  0  0  0  0  0  0  0  0
   56.1370   24.3530   46.0340 C   0  0  0  0  0  0  0  0  0  0  0  0
   56.1500   23.0710   46.8750 C   0  0  0  0  0  0  0  0  0  0  0  0
   56.7290   25.5500   46.8060 C   0  0  0  0  0  0  0  0  0  0  0  0
   56.7650   26.7660   45.9890 N   0  0  0  0  0  0  0  0  0  0  0  0
   57.4500   26.8440   44.7330 C   0  0  0  0  0  0  0  0  0  0  0  0
   58.1120   25.8600   44.3060 O   0  0  0  0  0  0  0  0  0  0  0  0
   57.3740   28.0500   43.9680 N   0  0  0  0  0  0  0  0  0  0  0  0
   56.5890   29.4940   44.5180 S   0  0  0  0  0  0  0  0  0  0  0  0
   55.1070   29.3420   44.3210 O   0  0  0  0  0  0  0  0  0  0  0  0
   56.8500   29.7180   45.9810 O   0  0  0  0  0  0  0  0  0  0  0  0
   57.1560   30.8670   43.5820 C   0  0  0  0  0  0  0  0  0  0  0  0
   56.9110   31.0180   42.2650 N   0  0  0  0  0  0  0  0  0  0  0  0
   57.5130   32.1310   41.8780 N   0  0  0  0  0  0  0  0  0  0  0  0
   57.4170   32.6810   40.5330 C   0  0  0  0  0  0  0  0  0  0  0  0
   58.1300   32.7150   42.9230 C   0  0  0  0  0  0  0  0  0  0  0  0
   57.9430   31.9140   44.0340 C   0  0  0  0  0  0  0  0  0  0  0  0
   58.3670   32.1820   45.4220 C   0  0  0  0  0  0  0  0  0  0  0  0
   59.4400   31.6390   46.0150 C   0  0  0  0  0  0  0  0  0  0  0  0
   59.6260   30.1990   46.2950 C   0  0  0  0  0  0  0  0  0  0  0  0
   60.1500   29.3710   45.2900 C   0  0  0  0  0  0  0  0  0  0  0  0
   60.3770   28.0140   45.5400 C   0  0  0  0  0  0  0  0  0  0  0  0
   60.1020   27.4780   46.8020 C   0  0  0  0  0  0  0  0  0  0  0  0
   60.3250   26.1620   47.0430 F   0  0  0  0  0  0  0  0  0  0  0  0
   59.6090   28.3000   47.8170 C   0  0  0  0  0  0  0  0  0  0  0  0
   59.3810   29.6570   47.5710 C   0  0  0  0  0  0  0  0  0  0  0  0
   54.0456   24.7926   46.3741 H   0  0  0  0  0  0  0  0  0  0  0  0
   54.7409   25.5642   44.9085 H   0  0  0  0  0  0  0  0  0  0  0  0
   54.3714   23.8063   44.9085 H   0  0  0  0  0  0  0  0  0  0  0  0
   56.7853   24.1894   45.1605 H   0  0  0  0  0  0  0  0  0  0  0  0
   56.1473   23.3332   47.9433 H   0  0  0  0  0  0  0  0  0  0  0  0
   55.2579   22.4709   46.6425 H   0  0  0  0  0  0  0  0  0  0  0  0
   57.0541   22.4891   46.6425 H   0  0  0  0  0  0  0  0  0  0  0  0
   56.1116   25.7386   47.6967 H   0  0  0  0  0  0  0  0  0  0  0  0
   57.7626   25.2971   47.0848 H   0  0  0  0  0  0  0  0  0  0  0  0
   56.2280   27.6000   46.3140 H   0  0  0  0  0  0  0  0  0  0  0  0
   57.2281   33.7631   40.5920 H   0  0  0  0  0  0  0  0  0  0  0  0
   58.3599   32.5021   39.9955 H   0  0  0  0  0  0  0  0  0  0  0  0
   56.5904   32.1933   39.9955 H   0  0  0  0  0  0  0  0  0  0  0  0
   58.6858   33.6639   42.8970 H   0  0  0  0  0  0  0  0  0  0  0  0
   57.7569   32.8796   46.0145 H   0  0  0  0  0  0  0  0  0  0  0  0
   60.2483   32.3207   46.3181 H   0  0  0  0  0  0  0  0  0  0  0  0
   60.3833   29.7917   44.3008 H   0  0  0  0  0  0  0  0  0  0  0  0
   60.7724   27.3673   44.7429 H   0  0  0  0  0  0  0  0  0  0  0  0
   59.3997   27.8793   48.8116 H   0  0  0  0  0  0  0  0  0  0  0  0
   59.0083   30.3045   48.3784 H   0  0  0  0  0  0  0  0  0  0  0  0
  1  2  1  0
  2  3  1  0
  2  4  1  0
  4  5  1  0
  5  6  1  0
  6  7  2  0
  6  8  1  0
  8  9  1  0
  9 10  2  0
  9 11  2  0
  9 12  1  0
 12 13  2  0
 13 14  1  0
 14 15  1  0
 14 16  1  0
 16 17  2  0
 17 18  1  0
 18 19  2  3
 19 20  1  0
 20 21  2  0
 21 22  1  0
 22 23  2  0
 23 24  1  0
 23 25  1  0
 25 26  2  0
 17 12  1  0
 26 20  1  0
  1 27  1  0
  1 28  1  0
  1 29  1  0
  2 30  1  0
  3 31  1  0
  3 32  1  0
  3 33  1  0
  4 34  1  0
  4 35  1  0
  5 36  1  0
 15 37  1  0
 15 38  1  0
 15 39  1  0
 16 40  1  0
 18 41  1  0
 19 42  1  0
 21 43  1  0
 22 44  1  0
 25 45  1  0
 26 46  1  0
M  CHG  1   8  -1
M  END
>  <UniqueID>  (41) 
37

>  <SMILES>  (41) 
CC(C)CNC(=O)[N-]S(=O)(=O)c1nn(C)cc1C=Cc1ccc(F)cc1

>  <Energy>  (41) 
75.44280240107112

>  <Genealogy>  (41) 
CC(C)CNC(=O)[N-]S(=O)(=O)c1nn(C)cc1C=Cc1ccc(F)cc1 (protonated)
CC(C)CNC(=O)[N-]S(=O)(=O)c1nn(C)cc1C=Cc1ccc(F)cc1 (3D coordinates assigned)
CC(C)CNC(=O)[N-]S(=O)(=O)c1nn(C)cc1C=Cc1ccc(F)cc1 (optimized conformer: 75.44280240107112 kcal/mol)

>  <smiles>  (41) 
CC(C)CNC(=O)NS(=O)(=O)c1nn(C)cc1C=Cc1ccc(F)cc1

>  <score_type>  (41) 
oracle

>  <origin>  (41) 
adg

>  <m_score__min__energy>  (41) 
-10.08

>  <m_primary>  (41) 
energy

$$$$
41:0
     RDKit          3D

 48 49  0  0  0  0  0  0  0  0999 V2000
   59.2550   34.5660   45.2780 C   0  0  0  0  0  0  0  0  0  0  0  0
   58.1940   33.8430   46.1040 C   0  0  0  0  0  0  0  0  0  0  0  0
   57.2240   33.0660   45.2030 C   0  0  0  0  0  0  0  0  0  0  0  0
   57.7640   32.8620   43.7750 C   0  0  0  0  0  0  0  0  0  0  0  0
   58.1790   31.4190   43.4410 C   0  0  0  0  0  0  0  0  0  0  0  0
   56.9800   30.4950   43.1970 C   0  0  0  0  0  0  0  0  0  0  0  0
   56.6690   29.4440   44.6140 S   0  0  0  0  0  0  0  0  0  0  0  0
   55.1800   29.3410   44.7990 O   0  0  0  0  0  0  0  0  0  0  0  0
   57.2580   30.0980   45.8320 O   0  0  0  0  0  0  0  0  0  0  0  0
   57.3290   27.8310   44.4120 N   0  0  2  0  0  0  0  0  0  0  0  0
   57.3090   27.0840   45.7040 C   0  0  0  0  0  0  0  0  0  0  0  0
   58.6730   26.5050   46.1090 C   0  0  0  0  0  0  0  0  0  0  0  0
   59.7640   27.5950   46.0720 C   0  0  2  0  0  0  0  0  0  0  0  0
   59.5540   28.5880   47.1470 N   0  0  0  0  0  0  0  0  0  0  0  0
   60.5500   29.6750   47.0680 C   0  0  0  0  0  0  0  0  0  0  0  0
   60.2960   30.8150   48.0470 C   0  0  0  0  0  0  0  0  0  0  0  0
   60.0260   31.0120   46.5620 C   0  0  0  0  0  0  0  0  0  0  0  0
   59.7950   28.2880   44.6780 C   0  0  0  0  0  0  0  0  0  0  0  0
   58.6510   27.8540   43.7430 C   0  0  0  0  0  0  0  0  0  0  0  0
   59.9735   35.0556   45.9518 H   0  0  0  0  0  0  0  0  0  0  0  0
   59.7837   33.8395   44.6435 H   0  0  0  0  0  0  0  0  0  0  0  0
   58.7722   35.3239   44.6435 H   0  0  0  0  0  0  0  0  0  0  0  0
   58.6901   33.1391   46.7884 H   0  0  0  0  0  0  0  0  0  0  0  0
   57.6205   34.5932   46.6682 H   0  0  0  0  0  0  0  0  0  0  0  0
   57.0411   32.0792   45.6532 H   0  0  0  0  0  0  0  0  0  0  0  0
   56.3004   33.6583   45.1248 H   0  0  0  0  0  0  0  0  0  0  0  0
   56.9793   33.1649   43.0661 H   0  0  0  0  0  0  0  0  0  0  0  0
   58.6767   33.4714   43.6997 H   0  0  0  0  0  0  0  0  0  0  0  0
   58.8012   31.4337   42.5340 H   0  0  0  0  0  0  0  0  0  0  0  0
   58.7289   31.0244   44.3081 H   0  0  0  0  0  0  0  0  0  0  0  0
   56.0880   31.1090   43.0036 H   0  0  0  0  0  0  0  0  0  0  0  0
   57.2062   29.8539   42.3322 H   0  0  0  0  0  0  0  0  0  0  0  0
   56.6750   27.3390   43.7590 H   0  0  0  0  0  0  0  0  0  0  0  0
   56.9752   27.7706   46.4960 H   0  0  0  0  0  0  0  0  0  0  0  0
   56.6272   26.2313   45.5695 H   0  0  0  0  0  0  0  0  0  0  0  0
   58.6038   26.0986   47.1288 H   0  0  0  0  0  0  0  0  0  0  0  0
   58.9440   25.7108   45.3978 H   0  0  0  0  0  0  0  0  0  0  0  0
   60.7383   27.1132   46.2414 H   0  0  0  0  0  0  0  0  0  0  0  0
   58.5900   28.9890   47.0530 H   0  0  0  0  0  0  0  0  0  0  0  0
   61.4044   29.0336   46.8060 H   0  0  0  0  0  0  0  0  0  0  0  0
   59.4567   30.7549   48.7555 H   0  0  0  0  0  0  0  0  0  0  0  0
   60.8978   31.3386   48.8045 H   0  0  0  0  0  0  0  0  0  0  0  0
   58.9914   31.0947   46.1975 H   0  0  0  0  0  0  0  0  0  0  0  0
   60.3520   31.7375   45.8021 H   0  0  0  0  0  0  0  0  0  0  0  0
   59.7256   29.3753   44.8295 H   0  0  0  0  0  0  0  0  0  0  0  0
   60.7361   27.9900   44.1927 H   0  0  0  0  0  0  0  0  0  0  0  0
   58.6035   28.5572   42.8984 H   0  0  0  0  0  0  0  0  0  0  0  0
   58.8691   26.8275   43.4133 H   0  0  0  0  0  0  0  0  0  0  0  0
  1  2  1  0
  2  3  1  0
  3  4  1  0
  4  5  1  0
  5  6  1  0
  6  7  1  0
  7  8  2  0
  7  9  2  0
  7 10  1  0
 10 11  1  0
 11 12  1  0
 12 13  1  0
 13 14  1  0
 14 15  1  0
 15 16  1  0
 16 17  1  0
 13 18  1  0
 18 19  1  0
 19 10  1  0
 17 15  1  0
  1 20  1  0
  1 21  1  0
  1 22  1  0
  2 23  1  0
  2 24  1  0
  3 25  1  0
  3 26  1  0
  4 27  1  0
  4 28  1  0
  5 29  1  0
  5 30  1  0
  6 31  1  0
  6 32  1  0
 10 33  1  6
 11 34  1  0
 11 35  1  0
 12 36  1  0
 12 37  1  0
 13 38  1  1
 14 39  1  0
 15 40  1  0
 16 41  1  0
 16 42  1  0
 17 43  1  0
 17 44  1  0
 18 45  1  0
 18 46  1  0
 19 47  1  0
 19 48  1  0
M  CHG  1  10   1
M  END
>  <UniqueID>  (42) 
38

>  <SMILES>  (42) 
CCCCCCS(=O)(=O)[NH+]1CCC(NC2CC2)CC1

>  <Energy>  (42) 
307.878463852646

>  <Genealogy>  (42) 
CCCCCCS(=O)(=O)[NH+]1CCC(NC2CC2)CC1 (protonated)
CCCCCCS(=O)(=O)[NH+]1CCC(NC2CC2)CC1 (3D coordinates assigned)
CCCCCCS(=O)(=O)[NH+]1CCC(NC2CC2)CC1 (nonaromatic ring conformer: 307.878463852646 kcal/mol)

>  <smiles>  (42) 
CCCCCCS(=O)(=O)N1CCC(NC2CC2)CC1

>  <score_type>  (42) 
oracle

>  <origin>  (42) 
adg

>  <m_score__min__energy>  (42) 
-6.1900000000000004

>  <m_primary>  (42) 
energy

$$$$
42:0
     RDKit          3D

 44 47  0  0  0  0  0  0  0  0999 V2000
   57.4140   32.9120   44.4390 C   0  0  0  0  0  0  0  0  0  0  0  0
   58.3230   33.4930   45.4810 C   0  0  0  0  0  0  0  0  0  0  0  0
   58.8590   34.7790   45.3130 C   0  0  0  0  0  0  0  0  0  0  0  0
   59.6720   35.3370   46.3020 C   0  0  0  0  0  0  0  0  0  0  0  0
   59.9510   34.6200   47.4690 C   0  0  0  0  0  0  0  0  0  0  0  0
   59.4220   33.3310   47.6500 C   0  0  0  0  0  0  0  0  0  0  0  0
   59.6900   32.5740   48.8900 C   0  0  0  0  0  0  0  0  0  0  0  0
   59.4140   33.1700   50.0800 N   0  0  0  0  0  0  0  0  0  0  0  0
   59.6590   32.5500   51.2610 C   0  0  0  0  0  0  0  0  0  0  0  0
   60.1950   31.3020   51.2790 N   0  0  0  0  0  0  0  0  0  0  0  0
   60.4650   30.6460   50.1170 C   0  0  0  0  0  0  0  0  0  0  0  0
   60.2100   31.2620   48.8850 C   0  0  0  0  0  0  0  0  0  0  0  0
   60.4920   30.4710   47.6300 C   0  0  0  0  0  0  0  0  0  0  0  0
   60.1050   29.0650   47.8270 N   0  0  0  0  0  0  0  0  0  0  0  0
   59.3720   28.3720   46.8010 C   0  0  0  0  0  0  0  0  0  0  0  0
   59.8360   28.3630   45.4780 C   0  0  0  0  0  0  0  0  0  0  0  0
   59.1120   27.6790   44.5000 C   0  0  0  0  0  0  0  0  0  0  0  0
   57.9670   27.0260   44.8310 N   0  0  0  0  0  0  0  0  0  0  0  0
   57.4880   27.0080   46.1050 C   0  0  0  0  0  0  0  0  0  0  0  0
   56.2440   26.2800   46.4040 C   0  0  0  0  0  0  0  0  0  0  0  0
   55.1390   26.7200   45.9840 O   0  0  0  0  0  0  0  0  0  0  0  0
   56.2690   25.1070   47.1490 O   0  0  0  0  0  0  0  0  0  0  0  0
   58.1910   27.6830   47.1150 C   0  0  0  0  0  0  0  0  0  0  0  0
   60.4000   28.3620   49.0910 C   0  0  0  0  0  0  0  0  0  0  0  0
   61.0770   29.2720   50.1300 C   0  0  0  0  0  0  0  0  0  0  0  0
   58.5890   32.7830   46.6620 C   0  0  0  0  0  0  0  0  0  0  0  0
   56.5847   32.3819   44.9302 H   0  0  0  0  0  0  0  0  0  0  0  0
   57.0116   33.7207   43.8113 H   0  0  0  0  0  0  0  0  0  0  0  0
   57.9790   32.2072   43.8113 H   0  0  0  0  0  0  0  0  0  0  0  0
   58.6380   35.3497   44.3989 H   0  0  0  0  0  0  0  0  0  0  0  0
   60.0938   36.3432   46.1622 H   0  0  0  0  0  0  0  0  0  0  0  0
   60.5866   35.0662   48.2480 H   0  0  0  0  0  0  0  0  0  0  0  0
   59.4230   33.0592   52.2071 H   0  0  0  0  0  0  0  0  0  0  0  0
   60.3930   30.8490   52.2000 H   0  0  0  0  0  0  0  0  0  0  0  0
   59.9152   30.8945   46.7945 H   0  0  0  0  0  0  0  0  0  0  0  0
   61.5671   30.5225   47.4032 H   0  0  0  0  0  0  0  0  0  0  0  0
   60.7638   28.8911   45.2126 H   0  0  0  0  0  0  0  0  0  0  0  0
   59.4689   27.6685   43.4595 H   0  0  0  0  0  0  0  0  0  0  0  0
   57.8171   27.6718   48.1495 H   0  0  0  0  0  0  0  0  0  0  0  0
   59.4565   27.9860   49.5135 H   0  0  0  0  0  0  0  0  0  0  0  0
   61.0969   27.5424   48.8616 H   0  0  0  0  0  0  0  0  0  0  0  0
   60.9530   28.8315   51.1303 H   0  0  0  0  0  0  0  0  0  0  0  0
   62.1445   29.3594   49.8795 H   0  0  0  0  0  0  0  0  0  0  0  0
   58.1414   31.7898   46.8145 H   0  0  0  0  0  0  0  0  0  0  0  0
  1  2  1  0
  2  3  2  0
  3  4  1  0
  4  5  2  0
  5  6  1  0
  6  7  1  0
  7  8  2  0
  8  9  1  0
  9 10  2  0
 10 11  1  0
 11 12  2  0
 12 13  1  0
 13 14  1  0
 14 15  1  0
 15 16  2  0
 16 17  1  0
 17 18  2  0
 18 19  1  0
 19 20  1  0
 20 21  2  0
 20 22  1  0
 19 23  2  0
 14 24  1  0
 24 25  1  0
  6 26  2  0
 26  2  1  0
 12  7  1  0
 23 15  1  0
 25 11  1  0
  1 27  1  0
  1 28  1  0
  1 29  1  0
  3 30  1  0
  4 31  1  0
  5 32  1  0
  9 33  1  0
 10 34  1  0
 13 35  1  0
 13 36  1  0
 16 37  1  0
 17 38  1  0
 23 39  1  0
 24 40  1  0
 24 41  1  0
 25 42  1  0
 25 43  1  0
 26 44  1  0
M  CHG  2  10   1  22  -1
M  END
>  <UniqueID>  (43) 
39

>  <SMILES>  (43) 
Cc1cccc(-c2nc[nH+]c3c2CN(c2ccnc(C(=O)[O-])c2)CC3)c1

>  <Energy>  (43) 
62.38677537587245

>  <Genealogy>  (43) 
Cc1cccc(-c2nc[nH+]c3c2CN(c2ccnc(C(=O)[O-])c2)CC3)c1 (protonated)
Cc1cccc(-c2nc[nH+]c3c2CN(c2ccnc(C(=O)[O-])c2)CC3)c1 (3D coordinates assigned)
Cc1cccc(-c2nc[nH+]c3c2CN(c2ccnc(C(=O)[O-])c2)CC3)c1 (nonaromatic ring conformer: 62.38677537587245 kcal/mol)

>  <smiles>  (43) 
Cc1cccc(-c2ncnc3c2CN(c2ccnc(C(=O)O)c2)CC3)c1

>  <score_type>  (43) 
oracle

>  <origin>  (43) 
adg

>  <m_score__min__energy>  (43) 
-9.9800000000000004

>  <m_primary>  (43) 
energy

$$$$
43:0
     RDKit          3D

 36 38  0  0  0  0  0  0  0  0999 V2000
   59.4471   35.5679   47.2171 H   0  0  0  0  0  0  0  0  0  0  0  0
   59.0820   34.7200   46.6190 C   0  0  0  0  0  0  0  0  0  0  0  0
   59.1310   34.7760   45.2610 N   0  0  0  0  0  0  0  0  0  0  0  0
   58.6950   33.7450   44.4870 C   0  0  0  0  0  0  0  0  0  0  0  0
   58.7412   33.8249   43.3909 H   0  0  0  0  0  0  0  0  0  0  0  0
   58.1870   32.5810   45.0820 C   0  0  0  0  0  0  0  0  0  0  0  0
   57.6670   31.4550   44.2380 C   0  0  0  0  0  0  0  0  0  0  0  0
   58.5114   30.9189   43.7801 H   0  0  0  0  0  0  0  0  0  0  0  0
   57.0179   31.8576   43.4464 H   0  0  0  0  0  0  0  0  0  0  0  0
   56.9030   30.5360   45.0760 N   0  0  0  0  0  0  0  0  0  0  0  0
   57.3120   29.3530   45.4200 C   0  0  0  0  0  0  0  0  0  0  0  0
   58.5050   29.0150   46.5610 S   0  0  0  0  0  0  0  0  0  0  0  0
   58.3780   27.3480   46.3500 C   0  0  0  0  0  0  0  0  0  0  0  0
   58.9691   26.5857   46.8787 H   0  0  0  0  0  0  0  0  0  0  0  0
   57.3930   27.0980   45.3880 C   0  0  0  0  0  0  0  0  0  0  0  0
   57.0070   25.7330   44.9530 C   0  0  0  0  0  0  0  0  0  0  0  0
   56.2500   24.9020   45.7990 C   0  0  0  0  0  0  0  0  0  0  0  0
   55.9419   25.2677   46.7896 H   0  0  0  0  0  0  0  0  0  0  0  0
   55.8860   23.6150   45.3910 C   0  0  0  0  0  0  0  0  0  0  0  0
   55.2955   22.9746   46.0627 H   0  0  0  0  0  0  0  0  0  0  0  0
   56.2710   23.1350   44.1260 C   0  0  0  0  0  0  0  0  0  0  0  0
   55.9290   21.8530   43.6710 O   0  0  0  0  0  0  0  0  0  0  0  0
   56.8250   20.9720   43.0010 C   0  0  0  0  0  0  0  0  0  0  0  0
   57.4036   20.4031   43.7436 H   0  0  0  0  0  0  0  0  0  0  0  0
   56.2520   20.2758   42.3709 H   0  0  0  0  0  0  0  0  0  0  0  0
   57.5114   21.5566   42.3709 H   0  0  0  0  0  0  0  0  0  0  0  0
   57.0240   23.9600   43.2850 C   0  0  0  0  0  0  0  0  0  0  0  0
   57.3312   23.5933   42.2945 H   0  0  0  0  0  0  0  0  0  0  0  0
   57.3900   25.2460   43.6910 C   0  0  0  0  0  0  0  0  0  0  0  0
   57.9827   25.8826   43.0176 H   0  0  0  0  0  0  0  0  0  0  0  0
   56.8100   28.2230   44.8800 N   0  0  0  0  0  0  0  0  0  0  0  0
   56.0750   28.2240   44.1380 H   0  0  0  0  0  0  0  0  0  0  0  0
   58.1150   32.5170   46.4820 C   0  0  0  0  0  0  0  0  0  0  0  0
   57.7008   31.6229   46.9708 H   0  0  0  0  0  0  0  0  0  0  0  0
   58.5690   33.5880   47.2550 C   0  0  0  0  0  0  0  0  0  0  0  0
   58.5229   33.5401   48.3530 H   0  0  0  0  0  0  0  0  0  0  0  0
  1  2  1  0
  2  3  2  0
  3  4  1  0
  4  5  1  0
  4  6  2  0
  6  7  1  0
  7  8  1  0
  7  9  1  0
  7 10  1  0
 10 11  2  0
 11 12  1  0
 12 13  1  0
 13 14  1  0
 13 15  2  0
 15 16  1  0
 16 17  2  0
 17 18  1  0
 17 19  1  0
 19 20  1  0
 19 21  2  0
 21 22  1  0
 22 23  1  0
 23 24  1  0
 23 25  1  0
 23 26  1  0
 21 27  1  0
 27 28  1  0
 27 29  2  0
 29 30  1  0
 15 31  1  0
 31 32  1  0
  6 33  1  0
 33 34  1  0
 33 35  2  0
 35 36  1  0
 35  2  1  0
 31 11  1  0
 29 16  1  0
M  END
>  <UniqueID>  (44) 
40

>  <SMILES>  (44) 
COc1ccc(-c2cs/c(=N\Cc3cccnc3)[nH]2)cc1

>  <Energy>  (44) 
70.80413586600955

>  <Genealogy>  (44) 
COc1ccc(-c2cs/c(=N\Cc3cccnc3)[nH]2)cc1 (cis-trans isomerization)
COc1ccc(-c2cs/c(=N\Cc3cccnc3)[nH]2)cc1 (3D coordinates assigned)
COc1ccc(-c2cs/c(=N\Cc3cccnc3)[nH]2)cc1 (optimized conformer: 70.80413586600955 kcal/mol)

>  <smiles>  (44) 
COc1ccc(-c2csc(=NCc3cccnc3)[nH]2)cc1

>  <score_type>  (44) 
oracle

>  <origin>  (44) 
adg

>  <m_score__min__energy>  (44) 
-7.4100000000000001

>  <m_primary>  (44) 
energy

$$$$
44:0
     RDKit          3D

 69 72  0  0  0  0  0  0  0  0999 V2000
   64.7800   31.5740   53.1710 C   0  0  0  0  0  0  0  0  0  0  0  0
   64.5920   31.4950   51.7070 N   0  0  1  0  0  0  0  0  0  0  0  0
   65.8810   31.5140   50.9570 C   0  0  0  0  0  0  0  0  0  0  0  0
   66.2110   32.8190   50.2060 C   0  0  0  0  0  0  0  0  0  0  0  0
   65.1130   33.7270   50.2320 O   0  0  0  0  0  0  0  0  0  0  0  0
   63.9370   33.5450   49.4890 C   0  0  0  0  0  0  0  0  0  0  0  0
   62.7590   34.2680   49.7590 C   0  0  0  0  0  0  0  0  0  0  0  0
   61.6150   34.0800   48.9830 C   0  0  0  0  0  0  0  0  0  0  0  0
   61.6160   33.1570   47.9150 C   0  0  0  0  0  0  0  0  0  0  0  0
   60.4330   32.9700   47.0130 C   0  0  0  0  0  0  0  0  0  0  0  0
   59.8730   34.0250   46.2580 C   0  0  0  0  0  0  0  0  0  0  0  0
   58.8020   33.7570   45.4020 C   0  0  0  0  0  0  0  0  0  0  0  0
   58.3070   34.6950   44.7210 O   0  0  0  0  0  0  0  0  0  0  0  0
   58.2980   32.4500   45.3230 C   0  0  0  0  0  0  0  0  0  0  0  0
   57.2380   32.1190   44.4580 C   0  0  0  0  0  0  0  0  0  0  0  0
   56.7880   30.8030   44.3840 C   0  0  0  0  0  0  0  0  0  0  0  0
   57.3640   29.8000   45.1680 C   0  0  0  0  0  0  0  0  0  0  0  0
   56.8510   28.4910   45.0250 O   0  0  0  0  0  0  0  0  0  0  0  0
   57.6110   27.3090   44.7690 C   0  0  0  0  0  0  0  0  0  0  0  0
   57.2910   26.1960   45.7950 C   0  0  1  0  0  0  0  0  0  0  0  0
   57.2350   26.7500   47.0890 O   0  0  0  0  0  0  0  0  0  0  0  0
   55.9540   25.4510   45.5180 C   0  0  2  0  0  0  0  0  0  0  0  0
   54.9050   26.2730   45.9770 O   0  0  0  0  0  0  0  0  0  0  0  0
   55.8650   24.0810   46.2280 C   0  0  0  0  0  0  0  0  0  0  0  0
   55.5150   24.2320   47.5800 O   0  0  0  0  0  0  0  0  0  0  0  0
   58.4180   30.1300   46.0580 C   0  0  0  0  0  0  0  0  0  0  0  0
   58.8880   31.4490   46.1170 C   0  0  0  0  0  0  0  0  0  0  0  0
   59.9110   31.7460   46.9250 O   0  0  0  0  0  0  0  0  0  0  0  0
   62.7970   32.4270   47.6640 C   0  0  0  0  0  0  0  0  0  0  0  0
   63.9390   32.6230   48.4430 C   0  0  0  0  0  0  0  0  0  0  0  0
   63.7430   30.3340   51.3180 C   0  0  0  0  0  0  0  0  0  0  0  0
   62.3350   30.7540   50.9650 C   0  0  0  0  0  0  0  0  0  0  0  0
   61.6890   31.7590   51.7100 C   0  0  0  0  0  0  0  0  0  0  0  0
   60.3630   32.1070   51.4270 C   0  0  0  0  0  0  0  0  0  0  0  0
   59.6710   31.4440   50.4120 C   0  0  0  0  0  0  0  0  0  0  0  0
   60.3020   30.4300   49.6780 C   0  0  0  0  0  0  0  0  0  0  0  0
   61.6240   30.0770   49.9590 C   0  0  0  0  0  0  0  0  0  0  0  0
   63.8797   31.1957   53.6772 H   0  0  0  0  0  0  0  0  0  0  0  0
   65.6481   30.9645   53.4626 H   0  0  0  0  0  0  0  0  0  0  0  0
   64.9522   32.6206   53.4626 H   0  0  0  0  0  0  0  0  0  0  0  0
   64.0840   32.3660   51.4170 H   0  0  0  0  0  0  0  0  0  0  0  0
   66.6913   31.3268   51.6770 H   0  0  0  0  0  0  0  0  0  0  0  0
   65.7806   30.7432   50.1787 H   0  0  0  0  0  0  0  0  0  0  0  0
   67.0806   33.2956   50.6821 H   0  0  0  0  0  0  0  0  0  0  0  0
   66.4279   32.5688   49.1570 H   0  0  0  0  0  0  0  0  0  0  0  0
   62.7407   34.9883   50.5902 H   0  0  0  0  0  0  0  0  0  0  0  0
   60.7045   34.6559   49.2053 H   0  0  0  0  0  0  0  0  0  0  0  0
   60.2756   35.0451   46.3433 H   0  0  0  0  0  0  0  0  0  0  0  0
   56.7659   32.8982   43.8416 H   0  0  0  0  0  0  0  0  0  0  0  0
   55.9665   30.5493   43.6978 H   0  0  0  0  0  0  0  0  0  0  0  0
   57.3737   26.9432   43.7591 H   0  0  0  0  0  0  0  0  0  0  0  0
   58.6786   27.5600   44.8537 H   0  0  0  0  0  0  0  0  0  0  0  0
   58.0998   25.4559   45.7047 H   0  0  0  0  0  0  0  0  0  0  0  0
   56.5100   27.4340   47.0640 H   0  0  0  0  0  0  0  0  0  0  0  0
   55.8892   25.2539   44.4378 H   0  0  0  0  0  0  0  0  0  0  0  0
   55.0250   26.3670   46.9710 H   0  0  0  0  0  0  0  0  0  0  0  0
   55.1034   23.4657   45.7266 H   0  0  0  0  0  0  0  0  0  0  0  0
   56.8510   23.5963   46.1752 H   0  0  0  0  0  0  0  0  0  0  0  0
   55.5150   25.2100   47.7500 H   0  0  0  0  0  0  0  0  0  0  0  0
   58.8641   29.3548   46.6984 H   0  0  0  0  0  0  0  0  0  0  0  0
   62.8183   31.6940   46.8441 H   0  0  0  0  0  0  0  0  0  0  0  0
   64.8496   32.0441   48.2294 H   0  0  0  0  0  0  0  0  0  0  0  0
   64.1954   29.8401   50.4454 H   0  0  0  0  0  0  0  0  0  0  0  0
   63.6876   29.6508   52.1783 H   0  0  0  0  0  0  0  0  0  0  0  0
   62.2291   32.2733   52.5186 H   0  0  0  0  0  0  0  0  0  0  0  0
   59.8670   32.9017   52.0036 H   0  0  0  0  0  0  0  0  0  0  0  0
   58.6294   31.7175   50.1879 H   0  0  0  0  0  0  0  0  0  0  0  0
   59.7542   29.9105   48.8780 H   0  0  0  0  0  0  0  0  0  0  0  0
   62.1091   29.2685   49.3925 H   0  0  0  0  0  0  0  0  0  0  0  0
  1  2  1  0
  2  3  1  0
  3  4  1  0
  4  5  1  0
  5  6  1  0
  6  7  2  0
  7  8  1  0
  8  9  2  0
  9 10  1  0
 10 11  2  0
 11 12  1  0
 12 13  2  0
 12 14  1  0
 14 15  2  0
 15 16  1  0
 16 17  2  0
 17 18  1  0
 18 19  1  0
 19 20  1  0
 20 21  1  0
 20 22  1  0
 22 23  1  0
 22 24  1  0
 24 25  1  0
 17 26  1  0
 26 27  2  0
 27 28  1  0
  9 29  1  0
 29 30  2  0
  2 31  1  0
 31 32  1  0
 32 33  2  0
 33 34  1  0
 34 35  2  0
 35 36  1  0
 36 37  2  0
 30  6  1  0
 37 32  1  0
 28 10  1  0
 27 14  1  0
  1 38  1  0
  1 39  1  0
  1 40  1  0
  2 41  1  6
  3 42  1  0
  3 43  1  0
  4 44  1  0
  4 45  1  0
  7 46  1  0
  8 47  1  0
 11 48  1  0
 15 49  1  0
 16 50  1  0
 19 51  1  0
 19 52  1  0
 20 53  1  1
 21 54  1  0
 22 55  1  6
 23 56  1  0
 24 57  1  0
 24 58  1  0
 25 59  1  0
 26 60  1  0
 29 61  1  0
 30 62  1  0
 31 63  1  0
 31 64  1  0
 33 65  1  0
 34 66  1  0
 35 67  1  0
 36 68  1  0
 37 69  1  0
M  CHG  1   2   1
M  END
>  <UniqueID>  (45) 
41

>  <SMILES>  (45) 
C[N@@H+](CCOc1ccc(-c2cc(=O)c3ccc(OC[C@@H](O)C(O)CO)cc3o2)cc1)Cc1ccccc1

>  <Energy>  (45) 
87.44874375865705

>  <Genealogy>  (45) 
C[NH+](CCOc1ccc(-c2cc(=O)c3ccc(OCC(O)C(O)CO)cc3o2)cc1)Cc1ccccc1 (protonated)
C[N@@H+](CCOc1ccc(-c2cc(=O)c3ccc(OC[C@@H](O)C(O)CO)cc3o2)cc1)Cc1ccccc1 (chirality)
C[N@@H+](CCOc1ccc(-c2cc(=O)c3ccc(OC[C@@H](O)C(O)CO)cc3o2)cc1)Cc1ccccc1 (3D coordinates assigned)
C[N@@H+](CCOc1ccc(-c2cc(=O)c3ccc(OC[C@@H](O)C(O)CO)cc3o2)cc1)Cc1ccccc1 (optimized conformer: 87.44874375865705 kcal/mol)

>  <smiles>  (45) 
CN(CCOc1ccc(-c2cc(=O)c3ccc(OCC(O)C(O)CO)cc3o2)cc1)Cc1ccccc1

>  <score_type>  (45) 
oracle

>  <origin>  (45) 
adg

>  <m_score__min__energy>  (45) 
-8.0999999999999996

>  <m_primary>  (45) 
energy

$$$$
45:0
     RDKit          3D

 42 42  0  0  0  0  0  0  0  0999 V2000
   60.7580   30.3710   46.9390 C   0  0  0  0  0  0  0  0  0  0  0  0
   61.5610   30.8770   48.1520 C   0  0  0  0  0  0  0  0  0  0  0  0
   62.0400   32.2890   48.0770 N   0  0  0  0  0  0  0  0  0  0  0  0
   63.1860   32.4760   47.1490 C   0  0  0  0  0  0  0  0  0  0  0  0
   63.2540   33.8480   46.4730 C   0  0  0  0  0  0  0  0  0  0  0  0
   62.2540   32.9610   49.3870 C   0  0  0  0  0  0  0  0  0  0  0  0
   60.9790   33.6340   49.9410 C   0  0  0  0  0  0  0  0  0  0  0  0
   59.7880   33.3150   49.1310 N   0  0  0  0  0  0  0  0  0  0  0  0
   59.3320   34.4430   48.3050 C   0  0  0  0  0  0  0  0  0  0  0  0
   58.9540   33.9850   46.9210 C   0  0  0  0  0  0  0  0  0  0  0  0
   59.4340   34.6640   45.7900 C   0  0  0  0  0  0  0  0  0  0  0  0
   59.1020   34.2170   44.5100 C   0  0  0  0  0  0  0  0  0  0  0  0
   58.2940   33.0900   44.3470 C   0  0  0  0  0  0  0  0  0  0  0  0
   57.8040   32.4000   45.4620 C   0  0  0  0  0  0  0  0  0  0  0  0
   57.0130   31.2620   45.2480 O   0  0  0  0  0  0  0  0  0  0  0  0
   56.9760   30.5270   44.0290 C   0  0  0  0  0  0  0  0  0  0  0  0
   58.1270   32.8620   46.7530 C   0  0  0  0  0  0  0  0  0  0  0  0
   59.8758   29.8151   47.2893 H   0  0  0  0  0  0  0  0  0  0  0  0
   60.4335   31.2281   46.3307 H   0  0  0  0  0  0  0  0  0  0  0  0
   61.3912   29.7084   46.3307 H   0  0  0  0  0  0  0  0  0  0  0  0
   60.9203   30.7858   49.0415 H   0  0  0  0  0  0  0  0  0  0  0  0
   62.4691   30.2572   48.1858 H   0  0  0  0  0  0  0  0  0  0  0  0
   61.2670   32.8100   47.6000 H   0  0  0  0  0  0  0  0  0  0  0  0
   64.1148   32.3306   47.7201 H   0  0  0  0  0  0  0  0  0  0  0  0
   63.0504   31.7417   46.3413 H   0  0  0  0  0  0  0  0  0  0  0  0
   63.2930   34.6339   47.2416 H   0  0  0  0  0  0  0  0  0  0  0  0
   64.1560   33.9034   45.8458 H   0  0  0  0  0  0  0  0  0  0  0  0
   62.3619   33.9924   45.8458 H   0  0  0  0  0  0  0  0  0  0  0  0
   62.5966   32.2095   50.1136 H   0  0  0  0  0  0  0  0  0  0  0  0
   63.0001   33.7538   49.2297 H   0  0  0  0  0  0  0  0  0  0  0  0
   60.8120   33.2846   50.9706 H   0  0  0  0  0  0  0  0  0  0  0  0
   61.1291   34.7232   49.9093 H   0  0  0  0  0  0  0  0  0  0  0  0
   59.0090   33.0840   49.7920 H   0  0  0  0  0  0  0  0  0  0  0  0
   58.4555   34.9060   48.7819 H   0  0  0  0  0  0  0  0  0  0  0  0
   60.1547   35.1682   48.2200 H   0  0  0  0  0  0  0  0  0  0  0  0
   60.0734   35.5506   45.9128 H   0  0  0  0  0  0  0  0  0  0  0  0
   59.4781   34.7543   43.6269 H   0  0  0  0  0  0  0  0  0  0  0  0
   58.0406   32.7418   43.3348 H   0  0  0  0  0  0  0  0  0  0  0  0
   56.9218   29.4510   44.2511 H   0  0  0  0  0  0  0  0  0  0  0  0
   56.0918   30.8262   43.4471 H   0  0  0  0  0  0  0  0  0  0  0  0
   57.8858   30.7359   43.4471 H   0  0  0  0  0  0  0  0  0  0  0  0
   57.7289   32.3398   47.6355 H   0  0  0  0  0  0  0  0  0  0  0  0
  1  2  1  0
  2  3  1  0
  3  4  1  0
  4  5  1  0
  3  6  1  0
  6  7  1  0
  7  8  1  0
  8  9  1  0
  9 10  1  0
 10 11  2  0
 11 12  1  0
 12 13  2  0
 13 14  1  0
 14 15  1  0
 15 16  1  0
 14 17  2  0
 17 10  1  0
  1 18  1  0
  1 19  1  0
  1 20  1  0
  2 21  1  0
  2 22  1  0
  3 23  1  0
  4 24  1  0
  4 25  1  0
  5 26  1  0
  5 27  1  0
  5 28  1  0
  6 29  1  0
  6 30  1  0
  7 31  1  0
  7 32  1  0
  8 33  1  0
  9 34  1  0
  9 35  1  0
 11 36  1  0
 12 37  1  0
 13 38  1  0
 16 39  1  0
 16 40  1  0
 16 41  1  0
 17 42  1  0
M  CHG  1   3   1
M  END
>  <UniqueID>  (46) 
42

>  <SMILES>  (46) 
CC[NH+](CC)CCNCc1cccc(OC)c1

>  <Energy>  (46) 
43.992329352383514

>  <Genealogy>  (46) 
CC[NH+](CC)CCNCc1cccc(OC)c1 (protonated)
CC[NH+](CC)CCNCc1cccc(OC)c1 (3D coordinates assigned)
CC[NH+](CC)CCNCc1cccc(OC)c1 (optimized conformer: 43.992329352383514 kcal/mol)

>  <smiles>  (46) 
CCN(CC)CCNCc1cccc(OC)c1

>  <score_type>  (46) 
oracle

>  <origin>  (46) 
adg

>  <m_score__min__energy>  (46) 
-3.7799999999999998

>  <m_primary>  (46) 
energy

$$$$
46:0
     RDKit          3D

 43 44  0  0  0  0  0  0  0  0999 V2000
   54.9820   25.0760   45.6350 C   0  0  0  0  0  0  0  0  0  0  0  0
   55.2260   26.4460   45.9360 O   0  0  0  0  0  0  0  0  0  0  0  0
   56.5000   27.0330   45.9920 C   0  0  0  0  0  0  0  0  0  0  0  0
   57.6070   26.3660   46.5540 C   0  0  0  0  0  0  0  0  0  0  0  0
   58.8590   26.9800   46.5860 C   0  0  0  0  0  0  0  0  0  0  0  0
   59.0290   28.2710   46.0670 C   0  0  0  0  0  0  0  0  0  0  0  0
   60.3940   28.9130   46.0560 C   0  0  0  0  0  0  0  0  0  0  0  0
   60.7450   29.5160   47.4230 C   0  0  0  0  0  0  0  0  0  0  0  0
   60.1460   30.8490   47.5910 N   0  0  0  0  0  0  0  0  0  0  0  0
   61.0810   31.7920   48.2170 C   0  0  0  0  0  0  0  0  0  0  0  0
   60.9140   33.1700   47.5850 C   0  0  0  0  0  0  0  0  0  0  0  0
   59.2490   33.8250   47.9560 S   0  0  0  0  0  0  0  0  0  0  0  0
   58.4750   33.1110   46.5010 C   0  0  0  0  0  0  0  0  0  0  0  0
   57.8190   31.9370   46.4860 N   0  0  0  0  0  0  0  0  0  0  0  0
   57.3690   31.8150   45.2430 N   0  0  0  0  0  0  0  0  0  0  0  0
   57.7280   32.8680   44.5200 N   0  0  0  0  0  0  0  0  0  0  0  0
   58.4310   33.6810   45.2860 N   0  0  0  0  0  0  0  0  0  0  0  0
   58.9310   34.9890   44.8820 C   0  0  0  0  0  0  0  0  0  0  0  0
   57.9300   28.9370   45.5050 C   0  0  0  0  0  0  0  0  0  0  0  0
   56.6630   28.3230   45.4630 C   0  0  0  0  0  0  0  0  0  0  0  0
   55.5460   28.9570   44.8960 O   0  0  0  0  0  0  0  0  0  0  0  0
   55.5860   29.7780   43.7340 C   0  0  0  0  0  0  0  0  0  0  0  0
   54.8807   24.5073   46.5711 H   0  0  0  0  0  0  0  0  0  0  0  0
   54.0542   24.9886   45.0507 H   0  0  0  0  0  0  0  0  0  0  0  0
   55.8226   24.6736   45.0507 H   0  0  0  0  0  0  0  0  0  0  0  0
   57.4829   25.3552   46.9699 H   0  0  0  0  0  0  0  0  0  0  0  0
   59.7179   26.4481   47.0210 H   0  0  0  0  0  0  0  0  0  0  0  0
   61.1447   28.1515   45.7982 H   0  0  0  0  0  0  0  0  0  0  0  0
   60.3869   29.7244   45.3133 H   0  0  0  0  0  0  0  0  0  0  0  0
   60.3680   28.8518   48.2147 H   0  0  0  0  0  0  0  0  0  0  0  0
   61.8385   29.6172   47.4865 H   0  0  0  0  0  0  0  0  0  0  0  0
   59.9150   31.2180   46.6380 H   0  0  0  0  0  0  0  0  0  0  0  0
   60.8710   31.8553   49.2949 H   0  0  0  0  0  0  0  0  0  0  0  0
   62.1123   31.4413   48.0639 H   0  0  0  0  0  0  0  0  0  0  0  0
   61.6740   33.8529   47.9925 H   0  0  0  0  0  0  0  0  0  0  0  0
   61.0363   33.0863   46.4950 H   0  0  0  0  0  0  0  0  0  0  0  0
   59.1594   35.5866   45.7768 H   0  0  0  0  0  0  0  0  0  0  0  0
   59.8444   34.8631   44.2821 H   0  0  0  0  0  0  0  0  0  0  0  0
   58.1665   35.5045   44.2821 H   0  0  0  0  0  0  0  0  0  0  0  0
   58.0588   29.9488   45.0930 H   0  0  0  0  0  0  0  0  0  0  0  0
   55.6375   30.8352   44.0336 H   0  0  0  0  0  0  0  0  0  0  0  0
   56.4728   29.5230   43.1352 H   0  0  0  0  0  0  0  0  0  0  0  0
   54.6786   29.6104   43.1352 H   0  0  0  0  0  0  0  0  0  0  0  0
  1  2  1  0
  2  3  1  0
  3  4  2  0
  4  5  1  0
  5  6  2  0
  6  7  1  0
  7  8  1  0
  8  9  1  0
  9 10  1  0
 10 11  1  0
 11 12  1  0
 12 13  1  0
 13 14  2  0
 14 15  1  0
 15 16  2  0
 16 17  1  0
 17 18  1  0
  6 19  1  0
 19 20  2  0
 20 21  1  0
 21 22  1  0
 20  3  1  0
 17 13  1  0
  1 23  1  0
  1 24  1  0
  1 25  1  0
  4 26  1  0
  5 27  1  0
  7 28  1  0
  7 29  1  0
  8 30  1  0
  8 31  1  0
  9 32  1  0
 10 33  1  0
 10 34  1  0
 11 35  1  0
 11 36  1  0
 18 37  1  0
 18 38  1  0
 18 39  1  0
 19 40  1  0
 22 41  1  0
 22 42  1  0
 22 43  1  0
M  END
>  <UniqueID>  (47) 
43

>  <SMILES>  (47) 
COc1ccc(CCNCCSc2nnnn2C)cc1OC

>  <Energy>  (47) 
70.3451746349844

>  <Genealogy>  (47) 
COc1ccc(CCNCCSc2nnnn2C)cc1OC (3D coordinates assigned)
COc1ccc(CCNCCSc2nnnn2C)cc1OC (optimized conformer: 70.3451746349844 kcal/mol)

>  <smiles>  (47) 
COc1ccc(CCNCCSc2nnnn2C)cc1OC

>  <score_type>  (47) 
oracle

>  <origin>  (47) 
adg

>  <m_score__min__energy>  (47) 
-7.29

>  <m_primary>  (47) 
energy

$$$$
47:0
     RDKit          3D

 44 46  0  0  0  0  0  0  0  0999 V2000
   64.1400   32.3430   48.9470 C   0  0  0  0  0  0  0  0  0  0  0  0
   62.8350   32.1350   49.7260 C   0  0  0  0  0  0  0  0  0  0  0  0
   61.7670   31.5120   48.8910 N   0  0  2  0  0  0  0  0  0  0  0  0
   61.8840   31.7470   47.4510 C   0  0  2  0  0  0  0  0  0  0  0  0
   61.6350   33.2900   47.1320 C   0  0  0  0  0  0  0  0  0  0  0  0
   60.9820   34.1930   48.2720 C   0  0  0  0  0  0  0  0  0  0  0  0
   60.2530   33.4320   49.4530 C   0  0  0  0  0  0  0  0  0  0  0  0
   60.3700   31.9190   49.2150 C   0  0  2  0  0  0  0  0  0  0  0  0
   59.4490   30.7010   49.0510 C   0  0  0  0  0  0  0  0  0  0  0  0
   59.8190   29.9900   47.6700 C   0  0  1  0  0  0  0  0  0  0  0  0
   58.6110   29.6010   46.9350 N   0  0  0  0  0  0  0  0  0  0  0  0
   57.7760   30.3860   46.0640 C   0  0  0  0  0  0  0  0  0  0  0  0
   56.8390   29.8110   45.4530 O   0  0  0  0  0  0  0  0  0  0  0  0
   57.9800   31.8280   45.8310 C   0  0  0  0  0  0  0  0  0  0  0  0
   58.0510   32.7050   46.9240 C   0  0  0  0  0  0  0  0  0  0  0  0
   58.2100   34.0790   46.7200 C   0  0  0  0  0  0  0  0  0  0  0  0
   58.2620   34.5920   45.4230 C   0  0  0  0  0  0  0  0  0  0  0  0
   58.1300   33.7340   44.3270 C   0  0  0  0  0  0  0  0  0  0  0  0
   57.9670   32.3580   44.5230 C   0  0  0  0  0  0  0  0  0  0  0  0
   57.7380   31.3270   43.1140 Cl  0  0  0  0  0  0  0  0  0  0  0  0
   60.8670   30.7550   46.7240 C   0  0  0  0  0  0  0  0  0  0  0  0
   64.9720   32.4756   49.6542 H   0  0  0  0  0  0  0  0  0  0  0  0
   64.3333   31.4643   48.3141 H   0  0  0  0  0  0  0  0  0  0  0  0
   64.0505   33.2382   48.3141 H   0  0  0  0  0  0  0  0  0  0  0  0
   63.0377   31.4802   50.5863 H   0  0  0  0  0  0  0  0  0  0  0  0
   62.4753   33.1235   50.0476 H   0  0  0  0  0  0  0  0  0  0  0  0
   61.8780   30.4840   49.0660 H   0  0  0  0  0  0  0  0  0  0  0  0
   62.8940   31.5329   47.0714 H   0  0  0  0  0  0  0  0  0  0  0  0
   62.6097   33.7338   46.8811 H   0  0  0  0  0  0  0  0  0  0  0  0
   60.8899   33.2869   46.3228 H   0  0  0  0  0  0  0  0  0  0  0  0
   61.7836   34.8032   48.7136 H   0  0  0  0  0  0  0  0  0  0  0  0
   60.1912   34.7676   47.7674 H   0  0  0  0  0  0  0  0  0  0  0  0
   60.7282   33.6934   50.4100 H   0  0  0  0  0  0  0  0  0  0  0  0
   59.1929   33.7237   49.4870 H   0  0  0  0  0  0  0  0  0  0  0  0
   60.3405   32.0876   48.1284 H   0  0  0  0  0  0  0  0  0  0  0  0
   59.6030   30.0007   49.8852 H   0  0  0  0  0  0  0  0  0  0  0  0
   58.3946   31.0145   49.0507 H   0  0  0  0  0  0  0  0  0  0  0  0
   60.3711   29.0902   47.9790 H   0  0  0  0  0  0  0  0  0  0  0  0
   57.9811   32.3090   47.9479 H   0  0  0  0  0  0  0  0  0  0  0  0
   58.2942   34.7564   47.5826 H   0  0  0  0  0  0  0  0  0  0  0  0
   58.4067   35.6707   45.2632 H   0  0  0  0  0  0  0  0  0  0  0  0
   58.1544   34.1424   43.3059 H   0  0  0  0  0  0  0  0  0  0  0  0
   61.4608   29.9934   46.1973 H   0  0  0  0  0  0  0  0  0  0  0  0
   60.2571   31.3914   46.0659 H   0  0  0  0  0  0  0  0  0  0  0  0
  1  2  1  0
  2  3  1  0
  3  4  1  0
  4  5  1  0
  5  6  1  0
  6  7  1  0
  7  8  1  0
  8  9  1  0
  9 10  1  0
 10 11  1  0
 11 12  1  0
 12 13  2  0
 12 14  1  0
 14 15  2  0
 15 16  1  0
 16 17  2  0
 17 18  1  0
 18 19  2  0
 19 20  1  0
 10 21  1  0
  8  3  1  0
 19 14  1  0
 21  4  1  0
  1 22  1  0
  1 23  1  0
  1 24  1  0
  2 25  1  0
  2 26  1  0
  3 27  1  6
  4 28  1  6
  5 29  1  0
  5 30  1  0
  6 31  1  0
  6 32  1  0
  7 33  1  0
  7 34  1  0
  8 35  1  1
  9 36  1  0
  9 37  1  0
 10 38  1  1
 15 39  1  0
 16 40  1  0
 17 41  1  0
 18 42  1  0
 21 43  1  0
 21 44  1  0
M  CHG  2   3   1  11  -1
M  END
>  <UniqueID>  (48) 
44

>  <SMILES>  (48) 
CC[NH+]1[C@@H]2CCC[C@@H]1CC([N-]C(=O)c1ccccc1Cl)C2

>  <Energy>  (48) 
169.1195152371112

>  <Genealogy>  (48) 
CC[NH+]1C2CCCC1CC([N-]C(=O)c1ccccc1Cl)C2 (protonated)
CC[NH+]1[C@@H]2CCC[C@@H]1CC([N-]C(=O)c1ccccc1Cl)C2 (chirality)
CC[NH+]1[C@@H]2CCC[C@@H]1CC([N-]C(=O)c1ccccc1Cl)C2 (3D coordinates assigned)
CC[NH+]1[C@@H]2CCC[C@@H]1CC([N-]C(=O)c1ccccc1Cl)C2 (nonaromatic ring conformer: 169.1195152371112 kcal/mol)

>  <smiles>  (48) 
CCN1C2CCCC1CC(NC(=O)c1ccccc1Cl)C2

>  <score_type>  (48) 
oracle

>  <origin>  (48) 
adg

>  <m_score__min__energy>  (48) 
-7.6100000000000003

>  <m_primary>  (48) 
energy

$$$$
