0:0
     RDKit          3D

 57 59  0  0  0  0  0  0  0  0999 V2000
   56.0480   24.1580   46.5720 C   0  0  0  0  0  0  0  0  0  0  0  0
   55.2430   25.0310   45.6160 C   0  0  0  0  0  0  0  0  0  0  0  0
   55.3270   26.3920   45.9980 O   0  0  0  0  0  0  0  0  0  0  0  0
   56.6690   26.7910   46.2090 C   0  0  0  0  0  0  0  0  0  0  0  0
   57.4340   26.7970   44.8770 C   0  0  0  0  0  0  0  0  0  0  0  0
   58.1010   28.0980   44.6410 N   0  0  0  0  0  0  0  0  0  0  0  0
   57.3170   28.9470   43.7050 C   0  0  0  0  0  0  0  0  0  0  0  0
   56.4830   30.0070   44.4420 C   0  0  0  0  0  0  0  0  0  0  0  0
   57.3290   30.9290   45.2430 N   0  0  0  0  0  0  0  0  0  0  0  0
   57.5950   32.1930   44.5150 C   0  0  0  0  0  0  0  0  0  0  0  0
   57.0180   33.4130   45.2490 C   0  0  0  0  0  0  0  0  0  0  0  0
   57.4580   33.4620   46.7170 C   0  0  0  0  0  0  0  0  0  0  0  0
   58.8980   33.7140   46.8040 N   0  0  0  0  0  0  0  0  0  0  0  0
   59.5850   34.6610   46.1180 C   0  0  0  0  0  0  0  0  0  0  0  0
   60.9260   34.6050   46.3220 N   0  0  0  0  0  0  0  0  0  0  0  0
   61.0570   33.5660   47.1720 C   0  0  0  0  0  0  0  0  0  0  0  0
   59.8510   33.0220   47.4570 C   0  0  0  0  0  0  0  0  0  0  0  0
   59.7640   31.9060   48.2840 C   0  0  0  0  0  0  0  0  0  0  0  0
   58.6460   31.3790   48.5380 O   0  0  0  0  0  0  0  0  0  0  0  0
   60.9260   31.3910   48.8080 N   0  0  0  0  0  0  0  0  0  0  0  0
   60.8770   30.1890   49.6610 C   0  0  0  0  0  0  0  0  0  0  0  0
   62.1500   31.9490   48.4760 C   0  0  0  0  0  0  0  0  0  0  0  0
   63.2160   31.4250   48.9070 O   0  0  0  0  0  0  0  0  0  0  0  0
   62.2190   33.0660   47.6720 N   0  0  0  0  0  0  0  0  0  0  0  0
   63.5120   33.6500   47.2900 C   0  0  0  0  0  0  0  0  0  0  0  0
   58.5870   30.2970   45.7150 C   0  0  0  0  0  0  0  0  0  0  0  0
   58.4250   28.7850   45.9150 C   0  0  0  0  0  0  0  0  0  0  0  0
   55.8007   24.4261   47.6098 H   0  0  0  0  0  0  0  0  0  0  0  0
   55.8018   23.1001   46.3980 H   0  0  0  0  0  0  0  0  0  0  0  0
   57.1223   24.3178   46.3980 H   0  0  0  0  0  0  0  0  0  0  0  0
   55.6418   24.9156   44.5974 H   0  0  0  0  0  0  0  0  0  0  0  0
   54.1894   24.7166   45.6484 H   0  0  0  0  0  0  0  0  0  0  0  0
   56.6841   27.8022   46.6417 H   0  0  0  0  0  0  0  0  0  0  0  0
   57.1512   26.0817   46.8977 H   0  0  0  0  0  0  0  0  0  0  0  0
   58.1954   26.0034   44.8984 H   0  0  0  0  0  0  0  0  0  0  0  0
   56.7133   26.6257   44.0639 H   0  0  0  0  0  0  0  0  0  0  0  0
   58.0125   29.4559   43.0214 H   0  0  0  0  0  0  0  0  0  0  0  0
   56.6231   28.2929   43.1566 H   0  0  0  0  0  0  0  0  0  0  0  0
   55.9221   30.5949   43.7006 H   0  0  0  0  0  0  0  0  0  0  0  0
   55.8058   29.4836   45.1330 H   0  0  0  0  0  0  0  0  0  0  0  0
   58.6827   32.3218   44.4129 H   0  0  0  0  0  0  0  0  0  0  0  0
   57.1077   32.1271   43.5310 H   0  0  0  0  0  0  0  0  0  0  0  0
   57.3635   34.3272   44.7441 H   0  0  0  0  0  0  0  0  0  0  0  0
   55.9210   33.3356   45.2258 H   0  0  0  0  0  0  0  0  0  0  0  0
   56.9160   34.2686   47.2323 H   0  0  0  0  0  0  0  0  0  0  0  0
   57.2328   32.4958   47.1922 H   0  0  0  0  0  0  0  0  0  0  0  0
   59.1035   35.4008   45.4616 H   0  0  0  0  0  0  0  0  0  0  0  0
   60.8892   30.4895   50.7191 H   0  0  0  0  0  0  0  0  0  0  0  0
   59.9552   29.6270   49.4501 H   0  0  0  0  0  0  0  0  0  0  0  0
   61.7500   29.5539   49.4501 H   0  0  0  0  0  0  0  0  0  0  0  0
   64.0804   33.9067   48.1961 H   0  0  0  0  0  0  0  0  0  0  0  0
   64.0815   32.9217   46.6940 H   0  0  0  0  0  0  0  0  0  0  0  0
   63.3421   34.5588   46.6940 H   0  0  0  0  0  0  0  0  0  0  0  0
   59.3762   30.4750   44.9697 H   0  0  0  0  0  0  0  0  0  0  0  0
   58.8509   30.7437   46.6849 H   0  0  0  0  0  0  0  0  0  0  0  0
   59.3648   28.3747   46.3130 H   0  0  0  0  0  0  0  0  0  0  0  0
   57.5951   28.6175   46.6173 H   0  0  0  0  0  0  0  0  0  0  0  0
  1  2  1  0
  2  3  1  0
  3  4  1  0
  4  5  1  0
  5  6  1  0
  6  7  1  0
  7  8  1  0
  8  9  1  0
  9 10  1  0
 10 11  1  0
 11 12  1  0
 12 13  1  0
 13 14  1  0
 14 15  2  0
 15 16  1  0
 16 17  2  0
 17 18  1  0
 18 19  2  0
 18 20  1  0
 20 21  1  0
 20 22  1  0
 22 23  2  0
 22 24  1  0
 24 25  1  0
  9 26  1  0
 26 27  1  0
 27  6  1  0
 17 13  1  0
 24 16  1  0
  1 28  1  0
  1 29  1  0
  1 30  1  0
  2 31  1  0
  2 32  1  0
  4 33  1  0
  4 34  1  0
  5 35  1  0
  5 36  1  0
  7 37  1  0
  7 38  1  0
  8 39  1  0
  8 40  1  0
 10 41  1  0
 10 42  1  0
 11 43  1  0
 11 44  1  0
 12 45  1  0
 12 46  1  0
 14 47  1  0
 21 48  1  0
 21 49  1  0
 21 50  1  0
 25 51  1  0
 25 52  1  0
 25 53  1  0
 26 54  1  0
 26 55  1  0
 27 56  1  0
 27 57  1  0
M  END
>  <UniqueID>  (1) 
1

>  <SMILES>  (1) 
CCOCCN1CCN(CCCn2cnc3c2c(=O)n(C)c(=O)n3C)CC1

>  <Energy>  (1) 
112.13068614522517

>  <Genealogy>  (1) 
CCOCCN1CCN(CCCn2cnc3c2c(=O)n(C)c(=O)n3C)CC1 (3D coordinates assigned)
CCOCCN1CCN(CCCn2cnc3c2c(=O)n(C)c(=O)n3C)CC1 (nonaromatic ring conformer: 112.13068614522517 kcal/mol)

>  <smiles>  (1) 
CCOCCN1CCN(CCCn2cnc3c2c(=O)n(C)c(=O)n3C)CC1

>  <score_type>  (1) 
oracle

>  <origin>  (1) 
adg

>  <m_score__min__energy>  (1) 
-7.5599999999999996

>  <m_primary>  (1) 
energy

$$$$
1:0
     RDKit          3D

 46 49  0  0  0  0  0  0  0  0999 V2000
   57.6670   33.1670   45.5310 C   0  0  0  0  0  0  0  0  0  0  0  0
   57.3890   31.8260   45.9220 O   0  0  0  0  0  0  0  0  0  0  0  0
   57.3940   30.7240   45.0500 C   0  0  0  0  0  0  0  0  0  0  0  0
   56.4120   30.5640   44.0510 C   0  0  0  0  0  0  0  0  0  0  0  0
   56.4370   29.4510   43.2060 C   0  0  0  0  0  0  0  0  0  0  0  0
   57.4360   28.4890   43.3450 C   0  0  0  0  0  0  0  0  0  0  0  0
   58.4190   28.6390   44.3250 C   0  0  0  0  0  0  0  0  0  0  0  0
   58.4090   29.7520   45.1820 C   0  0  0  0  0  0  0  0  0  0  0  0
   59.4990   29.9100   46.2200 C   0  0  0  0  0  0  0  0  0  0  0  0
   60.0490   28.6120   46.6540 N   0  0  0  0  0  0  0  0  0  0  0  0
   59.1370   27.8720   47.5380 C   0  0  0  0  0  0  0  0  0  0  0  0
   58.3370   26.8440   46.7560 C   0  0  0  0  0  0  0  0  0  0  0  0
   56.9510   27.0390   46.6850 C   0  0  0  0  0  0  0  0  0  0  0  0
   56.1370   26.1280   46.0320 C   0  0  0  0  0  0  0  0  0  0  0  0
   54.8910   26.3300   45.9900 O   0  0  0  0  0  0  0  0  0  0  0  0
   56.7030   24.9950   45.4360 C   0  0  0  0  0  0  0  0  0  0  0  0
   55.8840   24.0440   44.7790 C   0  0  0  0  0  0  0  0  0  0  0  0
   56.4890   22.9280   44.2250 C   0  0  0  0  0  0  0  0  0  0  0  0
   57.8250   22.7290   44.2910 C   0  0  0  0  0  0  0  0  0  0  0  0
   58.6770   23.6300   44.9150 C   0  0  0  0  0  0  0  0  0  0  0  0
   58.1240   24.8050   45.5080 C   0  0  0  0  0  0  0  0  0  0  0  0
   58.9190   25.7430   46.1490 N   0  0  0  0  0  0  0  0  0  0  0  0
   60.3840   25.5360   46.1890 C   0  0  0  0  0  0  0  0  0  0  0  0
   58.1450   21.5390   43.6660 O   0  0  0  0  0  0  0  0  0  0  0  0
   56.9300   20.9530   43.1800 C   0  0  0  0  0  0  0  0  0  0  0  0
   55.8960   21.8750   43.5540 O   0  0  0  0  0  0  0  0  0  0  0  0
   57.7964   33.7910   46.4276 H   0  0  0  0  0  0  0  0  0  0  0  0
   58.5891   33.1905   44.9317 H   0  0  0  0  0  0  0  0  0  0  0  0
   56.8302   33.5552   44.9317 H   0  0  0  0  0  0  0  0  0  0  0  0
   55.6212   31.3199   43.9359 H   0  0  0  0  0  0  0  0  0  0  0  0
   55.6666   29.3340   42.4296 H   0  0  0  0  0  0  0  0  0  0  0  0
   57.4499   27.6112   42.6822 H   0  0  0  0  0  0  0  0  0  0  0  0
   59.2079   27.8793   44.4269 H   0  0  0  0  0  0  0  0  0  0  0  0
   60.3123   30.5133   45.7903 H   0  0  0  0  0  0  0  0  0  0  0  0
   59.0579   30.4006   47.1002 H   0  0  0  0  0  0  0  0  0  0  0  0
   60.2520   28.0200   45.8140 H   0  0  0  0  0  0  0  0  0  0  0  0
   59.7250   27.3574   48.3122 H   0  0  0  0  0  0  0  0  0  0  0  0
   58.4372   28.5859   47.9971 H   0  0  0  0  0  0  0  0  0  0  0  0
   56.5034   27.9276   47.1542 H   0  0  0  0  0  0  0  0  0  0  0  0
   54.7956   24.1881   44.7106 H   0  0  0  0  0  0  0  0  0  0  0  0
   59.7601   23.4417   44.9519 H   0  0  0  0  0  0  0  0  0  0  0  0
   60.7192   25.4886   47.2356 H   0  0  0  0  0  0  0  0  0  0  0  0
   60.6351   24.5934   45.6806 H   0  0  0  0  0  0  0  0  0  0  0  0
   60.8865   26.3721   45.6806 H   0  0  0  0  0  0  0  0  0  0  0  0
   56.9673   20.8369   42.0868 H   0  0  0  0  0  0  0  0  0  0  0  0
   56.7595   19.9500   43.5982 H   0  0  0  0  0  0  0  0  0  0  0  0
  1  2  1  0
  2  3  1  0
  3  4  2  0
  4  5  1  0
  5  6  2  0
  6  7  1  0
  7  8  2  0
  8  9  1  0
  9 10  1  0
 10 11  1  0
 11 12  1  0
 12 13  2  0
 13 14  1  0
 14 15  2  0
 14 16  1  0
 16 17  2  0
 17 18  1  0
 18 19  2  0
 19 20  1  0
 20 21  2  0
 21 22  1  0
 22 23  1  0
 19 24  1  0
 24 25  1  0
 25 26  1  0
  8  3  1  0
 22 12  1  0
 21 16  1  0
 26 18  1  0
  1 27  1  0
  1 28  1  0
  1 29  1  0
  4 30  1  0
  5 31  1  0
  6 32  1  0
  7 33  1  0
  9 34  1  0
  9 35  1  0
 10 36  1  0
 11 37  1  0
 11 38  1  0
 13 39  1  0
 17 40  1  0
 20 41  1  0
 23 42  1  0
 23 43  1  0
 23 44  1  0
 25 45  1  0
 25 46  1  0
M  END
>  <UniqueID>  (2) 
2

>  <SMILES>  (2) 
COc1ccccc1CNCc1cc(=O)c2cc3c(cc2n1C)OCO3

>  <Energy>  (2) 
91.12734092700595

>  <Genealogy>  (2) 
COc1ccccc1CNCc1cc(=O)c2cc3c(cc2n1C)OCO3 (3D coordinates assigned)
COc1ccccc1CNCc1cc(=O)c2cc3c(cc2n1C)OCO3 (nonaromatic ring conformer: 91.12734092700595 kcal/mol)

>  <smiles>  (2) 
COc1ccccc1CNCc1cc(=O)c2cc3c(cc2n1C)OCO3

>  <score_type>  (2) 
oracle

>  <origin>  (2) 
adg

>  <m_score__min__energy>  (2) 
-8.0500000000000007

>  <m_primary>  (2) 
energy

$$$$
2:0
     RDKit          3D

 52 55  0  0  0  0  0  0  0  0999 V2000
   56.0050   29.1740   45.2040 O   0  0  0  0  0  0  0  0  0  0  0  0
   56.6170   28.0740   45.2450 C   0  0  0  0  0  0  0  0  0  0  0  0
   57.9860   27.9650   44.6000 C   0  0  0  0  0  0  0  0  0  0  0  0
   59.0910   28.5080   45.4340 N   0  0  0  0  0  0  0  0  0  0  0  0
   58.9730   28.1310   46.8700 C   0  0  0  0  0  0  0  0  0  0  0  0
   58.5950   29.3250   47.7560 C   0  0  0  0  0  0  0  0  0  0  0  0
   59.6210   30.3930   47.6720 N   0  0  0  0  0  0  0  0  0  0  0  0
   59.1180   31.6690   48.2210 C   0  0  0  0  0  0  0  0  0  0  0  0
   58.9360   32.6940   47.1250 C   0  0  0  0  0  0  0  0  0  0  0  0
   57.7690   32.6710   46.3350 C   0  0  0  0  0  0  0  0  0  0  0  0
   57.5690   33.6340   45.3400 C   0  0  0  0  0  0  0  0  0  0  0  0
   58.5270   34.6280   45.1240 C   0  0  0  0  0  0  0  0  0  0  0  0
   59.6890   34.6620   45.9030 C   0  0  0  0  0  0  0  0  0  0  0  0
   59.9000   33.7070   46.9050 C   0  0  0  0  0  0  0  0  0  0  0  0
   61.3610   33.8250   47.8830 Cl  0  0  0  0  0  0  0  0  0  0  0  0
   60.1900   30.5640   46.3080 C   0  0  0  0  0  0  0  0  0  0  0  0
   59.2940   29.9620   45.2150 C   0  0  0  0  0  0  0  0  0  0  0  0
   56.0330   26.9940   45.9810 N   0  0  0  0  0  0  0  0  0  0  0  0
   55.9980   25.6170   45.5780 C   0  0  0  0  0  0  0  0  0  0  0  0
   54.7550   24.9750   45.4670 C   0  0  0  0  0  0  0  0  0  0  0  0
   54.6840   23.6390   45.0570 C   0  0  0  0  0  0  0  0  0  0  0  0
   55.8540   22.9450   44.7400 C   0  0  0  0  0  0  0  0  0  0  0  0
   57.0930   23.5960   44.7990 C   0  0  0  0  0  0  0  0  0  0  0  0
   57.1680   24.9280   45.2140 C   0  0  0  0  0  0  0  0  0  0  0  0
   58.2470   22.8960   44.4360 O   0  0  0  0  0  0  0  0  0  0  0  0
   58.1720   21.6310   43.7710 C   0  0  0  0  0  0  0  0  0  0  0  0
   56.9950   20.8070   44.3130 C   0  0  0  0  0  0  0  0  0  0  0  0
   55.8070   21.6010   44.3570 O   0  0  0  0  0  0  0  0  0  0  0  0
   58.1917   26.9027   44.4018 H   0  0  0  0  0  0  0  0  0  0  0  0
   57.9543   28.5682   43.6807 H   0  0  0  0  0  0  0  0  0  0  0  0
   59.9600   28.0390   45.0780 H   0  0  0  0  0  0  0  0  0  0  0  0
   58.1979   27.3569   46.9700 H   0  0  0  0  0  0  0  0  0  0  0  0
   59.9544   27.7621   47.2029 H   0  0  0  0  0  0  0  0  0  0  0  0
   57.6273   29.7284   47.4230 H   0  0  0  0  0  0  0  0  0  0  0  0
   58.5300   28.9817   48.7990 H   0  0  0  0  0  0  0  0  0  0  0  0
   58.1502   31.4926   48.7133 H   0  0  0  0  0  0  0  0  0  0  0  0
   59.8524   32.0542   48.9437 H   0  0  0  0  0  0  0  0  0  0  0  0
   57.0111   31.8914   46.5017 H   0  0  0  0  0  0  0  0  0  0  0  0
   56.6561   33.6086   44.7268 H   0  0  0  0  0  0  0  0  0  0  0  0
   58.3677   35.3842   44.3412 H   0  0  0  0  0  0  0  0  0  0  0  0
   60.4419   35.4444   45.7269 H   0  0  0  0  0  0  0  0  0  0  0  0
   60.3136   31.6389   46.1099 H   0  0  0  0  0  0  0  0  0  0  0  0
   61.1530   30.0332   46.2795 H   0  0  0  0  0  0  0  0  0  0  0  0
   58.3174   30.4680   45.2314 H   0  0  0  0  0  0  0  0  0  0  0  0
   59.7856   30.1043   44.2413 H   0  0  0  0  0  0  0  0  0  0  0  0
   53.8320   25.5247   45.7035 H   0  0  0  0  0  0  0  0  0  0  0  0
   53.7084   23.1361   44.9845 H   0  0  0  0  0  0  0  0  0  0  0  0
   58.1421   25.4373   45.2559 H   0  0  0  0  0  0  0  0  0  0  0  0
   58.0316   21.7968   42.6927 H   0  0  0  0  0  0  0  0  0  0  0  0
   59.1059   21.0785   43.9515 H   0  0  0  0  0  0  0  0  0  0  0  0
   56.8272   19.9403   43.6568 H   0  0  0  0  0  0  0  0  0  0  0  0
   57.2358   20.4698   45.3320 H   0  0  0  0  0  0  0  0  0  0  0  0
  1  2  2  0
  2  3  1  0
  3  4  1  0
  4  5  1  0
  5  6  1  0
  6  7  1  0
  7  8  1  0
  8  9  1  0
  9 10  2  0
 10 11  1  0
 11 12  2  0
 12 13  1  0
 13 14  2  0
 14 15  1  0
  7 16  1  0
 16 17  1  0
  2 18  1  0
 18 19  1  0
 19 20  2  0
 20 21  1  0
 21 22  2  0
 22 23  1  0
 23 24  2  0
 23 25  1  0
 25 26  1  0
 26 27  1  0
 27 28  1  0
 17  4  1  0
 24 19  1  0
 14  9  1  0
 28 22  1  0
  3 29  1  0
  3 30  1  0
  4 31  1  0
  5 32  1  0
  5 33  1  0
  6 34  1  0
  6 35  1  0
  8 36  1  0
  8 37  1  0
 10 38  1  0
 11 39  1  0
 12 40  1  0
 13 41  1  0
 16 42  1  0
 16 43  1  0
 17 44  1  0
 17 45  1  0
 20 46  1  0
 21 47  1  0
 24 48  1  0
 26 49  1  0
 26 50  1  0
 27 51  1  0
 27 52  1  0
M  CHG  2   4   1  18  -1
M  END
>  <UniqueID>  (3) 
3

>  <SMILES>  (3) 
O=C(C[NH+]1CCN(Cc2ccccc2Cl)CC1)[N-]c1ccc2c(c1)OCCO2

>  <Energy>  (3) 
77.33481655446415

>  <Genealogy>  (3) 
O=C(C[NH+]1CCN(Cc2ccccc2Cl)CC1)[N-]c1ccc2c(c1)OCCO2 (protonated)
O=C(C[NH+]1CCN(Cc2ccccc2Cl)CC1)[N-]c1ccc2c(c1)OCCO2 (3D coordinates assigned)
O=C(C[NH+]1CCN(Cc2ccccc2Cl)CC1)[N-]c1ccc2c(c1)OCCO2 (nonaromatic ring conformer: 77.33481655446415 kcal/mol)

>  <smiles>  (3) 
O=C(CN1CCN(Cc2ccccc2Cl)CC1)Nc1ccc2c(c1)OCCO2

>  <score_type>  (3) 
oracle

>  <origin>  (3) 
adg

>  <m_score__min__energy>  (3) 
-8.9499999999999993

>  <m_primary>  (3) 
energy

$$$$
3:0
     RDKit          3D

 35 36  0  0  0  0  0  0  0  0999 V2000
   55.7870   23.8970   44.3560 C   0  0  0  0  0  0  0  0  0  0  0  0
   54.8430   24.5370   45.3690 C   0  0  0  0  0  0  0  0  0  0  0  0
   55.4820   25.6950   46.0100 N   0  0  0  0  0  0  0  0  0  0  0  0
   56.6550   25.2920   46.7980 C   0  0  0  0  0  0  0  0  0  0  0  0
   57.6740   26.4280   46.8450 C   0  0  0  0  0  0  0  0  0  0  0  0
   57.1320   27.5650   46.2060 O   0  0  0  0  0  0  0  0  0  0  0  0
   58.0060   28.0240   45.1910 C   0  0  0  0  0  0  0  0  0  0  0  0
   58.1850   29.5310   45.2730 C   0  0  0  0  0  0  0  0  0  0  0  0
   57.4890   30.3850   44.3830 C   0  0  0  0  0  0  0  0  0  0  0  0
   56.2920   29.7370   43.0250 Br  0  0  0  0  0  0  0  0  0  0  0  0
   57.6590   31.7700   44.4540 C   0  0  0  0  0  0  0  0  0  0  0  0
   58.5170   32.3380   45.3920 C   0  0  0  0  0  0  0  0  0  0  0  0
   58.7080   34.2450   45.4380 Br  0  0  0  0  0  0  0  0  0  0  0  0
   59.2260   31.5200   46.2770 C   0  0  0  0  0  0  0  0  0  0  0  0
   60.0710   32.0810   47.1860 N   0  0  0  0  0  0  0  0  0  0  0  0
   60.7880   31.3350   48.0640 C   0  0  0  0  0  0  0  0  0  0  0  0
   60.6750   29.9470   48.0540 C   0  0  0  0  0  0  0  0  0  0  0  0
   59.8200   29.3340   47.1380 C   0  0  0  0  0  0  0  0  0  0  0  0
   59.0720   30.1090   46.2260 C   0  0  0  0  0  0  0  0  0  0  0  0
   56.5840   23.3567   44.8879 H   0  0  0  0  0  0  0  0  0  0  0  0
   55.2249   23.1930   43.7248 H   0  0  0  0  0  0  0  0  0  0  0  0
   56.2329   24.6798   43.7248 H   0  0  0  0  0  0  0  0  0  0  0  0
   53.9292   24.8675   44.8534 H   0  0  0  0  0  0  0  0  0  0  0  0
   54.5956   23.7947   46.1422 H   0  0  0  0  0  0  0  0  0  0  0  0
   55.8180   26.3340   45.2500 H   0  0  0  0  0  0  0  0  0  0  0  0
   56.3377   25.0459   47.8221 H   0  0  0  0  0  0  0  0  0  0  0  0
   57.1190   24.4128   46.3271 H   0  0  0  0  0  0  0  0  0  0  0  0
   57.9065   26.6705   47.8924 H   0  0  0  0  0  0  0  0  0  0  0  0
   58.5957   26.1191   46.3302 H   0  0  0  0  0  0  0  0  0  0  0  0
   58.9852   27.5375   45.3113 H   0  0  0  0  0  0  0  0  0  0  0  0
   57.5714   27.7735   44.2120 H   0  0  0  0  0  0  0  0  0  0  0  0
   57.1074   32.4206   43.7593 H   0  0  0  0  0  0  0  0  0  0  0  0
   61.4587   31.8268   48.7839 H   0  0  0  0  0  0  0  0  0  0  0  0
   61.2556   29.3386   48.7631 H   0  0  0  0  0  0  0  0  0  0  0  0
   59.7280   28.2379   47.1264 H   0  0  0  0  0  0  0  0  0  0  0  0
  1  2  1  0
  2  3  1  0
  3  4  1  0
  4  5  1  0
  5  6  1  0
  6  7  1  0
  7  8  1  0
  8  9  2  0
  9 10  1  0
  9 11  1  0
 11 12  2  0
 12 13  1  0
 12 14  1  0
 14 15  2  0
 15 16  1  0
 16 17  2  0
 17 18  1  0
 18 19  2  0
 19  8  1  0
 19 14  1  0
  1 20  1  0
  1 21  1  0
  1 22  1  0
  2 23  1  0
  2 24  1  0
  3 25  1  0
  4 26  1  0
  4 27  1  0
  5 28  1  0
  5 29  1  0
  7 30  1  0
  7 31  1  0
 11 32  1  0
 16 33  1  0
 17 34  1  0
 18 35  1  0
M  END
>  <UniqueID>  (4) 
4

>  <SMILES>  (4) 
CCNCCOCc1c(Br)cc(Br)c2ncccc12

>  <Energy>  (4) 
39.71053317063099

>  <Genealogy>  (4) 
CCNCCOCc1c(Br)cc(Br)c2ncccc12 (3D coordinates assigned)
CCNCCOCc1c(Br)cc(Br)c2ncccc12 (optimized conformer: 39.71053317063099 kcal/mol)

>  <smiles>  (4) 
CCNCCOCc1c(Br)cc(Br)c2ncccc12

>  <score_type>  (4) 
oracle

>  <origin>  (4) 
adg

>  <m_score__min__energy>  (4) 
-7.0999999999999996

>  <m_primary>  (4) 
energy

$$$$
4:0
     RDKit          3D

 50 52  0  0  0  0  0  0  0  0999 V2000
   65.2590   32.6850   49.9600 C   0  0  0  0  0  0  0  0  0  0  0  0
   63.9900   31.9820   49.4610 C   0  0  0  0  0  0  0  0  0  0  0  0
   63.7830   32.1650   47.9990 N   0  0  0  0  0  0  0  0  0  0  0  0
   63.7050   33.6140   47.6660 C   0  0  0  0  0  0  0  0  0  0  0  0
   63.0030   33.8640   46.3250 C   0  0  0  0  0  0  0  0  0  0  0  0
   62.5420   31.4670   47.5630 C   0  0  0  0  0  0  0  0  0  0  0  0
   61.7250   30.9430   48.7570 C   0  0  0  0  0  0  0  0  0  0  0  0
   60.3140   31.2980   48.6130 N   0  0  0  0  0  0  0  0  0  0  0  0
   59.7410   31.4830   47.3140 C   0  0  0  0  0  0  0  0  0  0  0  0
   59.4200   30.3650   46.5100 C   0  0  0  0  0  0  0  0  0  0  0  0
   59.7440   29.0590   46.9310 C   0  0  0  0  0  0  0  0  0  0  0  0
   59.4250   27.9570   46.1420 C   0  0  0  0  0  0  0  0  0  0  0  0
   58.7870   28.1340   44.9190 C   0  0  0  0  0  0  0  0  0  0  0  0
   58.4670   29.4150   44.4700 C   0  0  0  0  0  0  0  0  0  0  0  0
   58.7750   30.5590   45.2480 C   0  0  0  0  0  0  0  0  0  0  0  0
   58.4700   31.8340   44.8110 N   0  0  0  0  0  0  0  0  0  0  0  0
   57.7880   32.0510   43.5200 C   0  0  0  0  0  0  0  0  0  0  0  0
   58.8320   32.9010   45.5920 C   0  0  0  0  0  0  0  0  0  0  0  0
   58.6090   34.5390   45.2560 S   0  0  0  0  0  0  0  0  0  0  0  0
   59.3190   35.1070   46.6680 C   0  0  0  0  0  0  0  0  0  0  0  0
   59.7490   34.0220   47.4310 C   0  0  0  0  0  0  0  0  0  0  0  0
   60.4570   34.2260   48.7390 C   0  0  0  0  0  0  0  0  0  0  0  0
   59.4640   32.7690   46.8230 C   0  0  0  0  0  0  0  0  0  0  0  0
   65.2672   32.6896   51.0600 H   0  0  0  0  0  0  0  0  0  0  0  0
   66.1451   32.1491   49.5889 H   0  0  0  0  0  0  0  0  0  0  0  0
   65.2746   33.7204   49.5889 H   0  0  0  0  0  0  0  0  0  0  0  0
   64.0738   30.9062   49.6748 H   0  0  0  0  0  0  0  0  0  0  0  0
   63.1301   32.4284   49.9819 H   0  0  0  0  0  0  0  0  0  0  0  0
   64.6000   31.7480   47.4880 H   0  0  0  0  0  0  0  0  0  0  0  0
   63.1458   34.1303   48.4602 H   0  0  0  0  0  0  0  0  0  0  0  0
   64.7328   33.9976   47.5855 H   0  0  0  0  0  0  0  0  0  0  0  0
   61.9812   34.2279   46.5083 H   0  0  0  0  0  0  0  0  0  0  0  0
   63.5635   34.6178   45.7526 H   0  0  0  0  0  0  0  0  0  0  0  0
   62.9609   32.9256   45.7526 H   0  0  0  0  0  0  0  0  0  0  0  0
   61.9212   32.1713   46.9898 H   0  0  0  0  0  0  0  0  0  0  0  0
   62.8362   30.6038   46.9479 H   0  0  0  0  0  0  0  0  0  0  0  0
   61.8187   29.8481   48.8060 H   0  0  0  0  0  0  0  0  0  0  0  0
   62.1126   31.4008   49.6790 H   0  0  0  0  0  0  0  0  0  0  0  0
   59.7080   31.4460   49.4520 H   0  0  0  0  0  0  0  0  0  0  0  0
   60.2546   28.9090   47.8937 H   0  0  0  0  0  0  0  0  0  0  0  0
   59.6783   26.9437   46.4869 H   0  0  0  0  0  0  0  0  0  0  0  0
   58.5334   27.2590   44.3025 H   0  0  0  0  0  0  0  0  0  0  0  0
   57.9681   29.5394   43.4976 H   0  0  0  0  0  0  0  0  0  0  0  0
   56.7543   32.3799   43.7022 H   0  0  0  0  0  0  0  0  0  0  0  0
   58.3231   32.8233   42.9479 H   0  0  0  0  0  0  0  0  0  0  0  0
   57.7784   31.1115   42.9479 H   0  0  0  0  0  0  0  0  0  0  0  0
   59.4275   36.1656   46.9464 H   0  0  0  0  0  0  0  0  0  0  0  0
   59.7617   34.0256   49.5675 H   0  0  0  0  0  0  0  0  0  0  0  0
   61.3127   33.5379   48.8040 H   0  0  0  0  0  0  0  0  0  0  0  0
   60.8154   35.2640   48.8040 H   0  0  0  0  0  0  0  0  0  0  0  0
  1  2  1  0
  2  3  1  0
  3  4  1  0
  4  5  1  0
  3  6  1  0
  6  7  1  0
  7  8  1  0
  8  9  1  0
  9 10  2  0
 10 11  1  0
 11 12  2  0
 12 13  1  0
 13 14  2  0
 14 15  1  0
 15 16  2  0
 16 17  1  0
 16 18  1  0
 18 19  1  0
 19 20  1  0
 20 21  2  0
 21 22  1  0
 21 23  1  0
 23  9  1  0
 15 10  1  0
 23 18  2  0
  1 24  1  0
  1 25  1  0
  1 26  1  0
  2 27  1  0
  2 28  1  0
  3 29  1  0
  4 30  1  0
  4 31  1  0
  5 32  1  0
  5 33  1  0
  5 34  1  0
  6 35  1  0
  6 36  1  0
  7 37  1  0
  7 38  1  0
  8 39  1  0
 11 40  1  0
 12 41  1  0
 13 42  1  0
 14 43  1  0
 17 44  1  0
 17 45  1  0
 17 46  1  0
 20 47  1  0
 22 48  1  0
 22 49  1  0
 22 50  1  0
M  CHG  2   3   1  16   1
M  END
>  <UniqueID>  (5) 
5

>  <SMILES>  (5) 
CC[NH+](CC)CCNc1c2ccccc2[n+](C)c2scc(C)c12

>  <Energy>  (5) 
99.42424926264023

>  <Genealogy>  (5) 
CC[NH+](CC)CCNc1c2ccccc2[n+](C)c2scc(C)c12 (protonated)
CC[NH+](CC)CCNc1c2ccccc2[n+](C)c2scc(C)c12 (3D coordinates assigned)
CC[NH+](CC)CCNc1c2ccccc2[n+](C)c2scc(C)c12 (optimized conformer: 99.42424926264023 kcal/mol)

>  <smiles>  (5) 
CCN(CC)CCNc1c2ccccc2[n+](C)c2scc(C)c12

>  <score_type>  (5) 
oracle

>  <origin>  (5) 
adg

>  <m_score__min__energy>  (5) 
-4.6799999999999997

>  <m_primary>  (5) 
energy

$$$$
5:0
     RDKit          3D

 71 73  0  0  0  0  0  0  0  0999 V2000
   58.2100   33.6210   52.6290 C   0  0  0  0  0  0  0  0  0  0  0  0
   59.6040   33.0290   52.3840 C   0  0  0  0  0  0  0  0  0  0  0  0
   59.6890   32.2100   51.1480 N   0  0  0  0  0  0  0  0  0  0  0  0
   59.2570   32.9350   49.9210 C   0  0  0  0  0  0  0  0  0  0  0  0
   60.0520   34.2140   49.6190 C   0  0  0  0  0  0  0  0  0  0  0  0
   58.9450   30.9300   51.2930 C   0  0  0  0  0  0  0  0  0  0  0  0
   59.8530   29.6870   51.2290 C   0  0  0  0  0  0  0  0  0  0  0  0
   60.9670   29.9490   50.3990 O   0  0  0  0  0  0  0  0  0  0  0  0
   62.1300   30.0780   51.1890 C   0  0  0  0  0  0  0  0  0  0  0  0
   62.9460   31.2820   50.7240 C   0  0  0  0  0  0  0  0  0  0  0  0
   62.3200   31.9240   49.5570 N   0  0  0  0  0  0  0  0  0  0  0  0
   63.0750   31.6600   48.3240 C   0  0  0  0  0  0  0  0  0  0  0  0
   62.1290   31.5430   47.1230 C   0  0  0  0  0  0  0  0  0  0  0  0
   60.8160   31.0380   47.5250 N   0  0  0  0  0  0  0  0  0  0  0  0
   59.7510   30.9540   46.5680 C   0  0  0  0  0  0  0  0  0  0  0  0
   59.2110   32.1490   46.0600 C   0  0  0  0  0  0  0  0  0  0  0  0
   59.5710   33.3990   46.6100 C   0  0  0  0  0  0  0  0  0  0  0  0
   58.9910   34.5760   46.1470 C   0  0  0  0  0  0  0  0  0  0  0  0
   58.0440   34.5290   45.1300 C   0  0  0  0  0  0  0  0  0  0  0  0
   57.6950   33.3080   44.5530 C   0  0  0  0  0  0  0  0  0  0  0  0
   58.2980   32.0990   44.9810 C   0  0  0  0  0  0  0  0  0  0  0  0
   58.0260   30.8940   44.3680 N   0  0  0  0  0  0  0  0  0  0  0  0
   57.3850   30.8810   43.0330 C   0  0  0  0  0  0  0  0  0  0  0  0
   58.3760   29.7050   44.9840 C   0  0  0  0  0  0  0  0  0  0  0  0
   57.8640   28.4700   44.5160 C   0  0  0  0  0  0  0  0  0  0  0  0
   58.2440   27.2570   45.0860 C   0  0  0  0  0  0  0  0  0  0  0  0
   57.7480   25.9630   44.5050 C   0  0  0  0  0  0  0  0  0  0  0  0
   59.1170   27.2520   46.1670 C   0  0  0  0  0  0  0  0  0  0  0  0
   59.5910   28.4490   46.7260 C   0  0  0  0  0  0  0  0  0  0  0  0
   60.3990   28.3170   47.9960 C   0  0  0  0  0  0  0  0  0  0  0  0
   59.2550   29.7020   46.1130 C   0  0  0  0  0  0  0  0  0  0  0  0
   58.0293   33.6977   53.7113 H   0  0  0  0  0  0  0  0  0  0  0  0
   58.1517   34.6215   52.1757 H   0  0  0  0  0  0  0  0  0  0  0  0
   57.4495   32.9682   52.1757 H   0  0  0  0  0  0  0  0  0  0  0  0
   60.3248   33.8561   52.3043 H   0  0  0  0  0  0  0  0  0  0  0  0
   59.8268   32.3628   53.2305 H   0  0  0  0  0  0  0  0  0  0  0  0
   60.6990   31.9730   50.9980 H   0  0  0  0  0  0  0  0  0  0  0  0
   59.3653   32.2537   49.0642 H   0  0  0  0  0  0  0  0  0  0  0  0
   58.2172   33.2488   50.0950 H   0  0  0  0  0  0  0  0  0  0  0  0
   60.3494   34.6925   50.5638 H   0  0  0  0  0  0  0  0  0  0  0  0
   60.9508   33.9586   49.0385 H   0  0  0  0  0  0  0  0  0  0  0  0
   59.4252   34.9069   49.0385 H   0  0  0  0  0  0  0  0  0  0  0  0
   58.4276   30.9349   52.2637 H   0  0  0  0  0  0  0  0  0  0  0  0
   58.2423   30.8641   50.4493 H   0  0  0  0  0  0  0  0  0  0  0  0
   60.2029   29.4380   52.2417 H   0  0  0  0  0  0  0  0  0  0  0  0
   59.2829   28.8421   50.8152 H   0  0  0  0  0  0  0  0  0  0  0  0
   61.8419   30.2176   52.2414 H   0  0  0  0  0  0  0  0  0  0  0  0
   62.7390   29.1677   51.0867 H   0  0  0  0  0  0  0  0  0  0  0  0
   63.0103   32.0117   51.5446 H   0  0  0  0  0  0  0  0  0  0  0  0
   63.9498   30.9355   50.4371 H   0  0  0  0  0  0  0  0  0  0  0  0
   61.3680   31.5050   49.4380 H   0  0  0  0  0  0  0  0  0  0  0  0
   63.7803   32.4857   48.1488 H   0  0  0  0  0  0  0  0  0  0  0  0
   63.6190   30.7109   48.4391 H   0  0  0  0  0  0  0  0  0  0  0  0
   62.0060   32.5361   46.6662 H   0  0  0  0  0  0  0  0  0  0  0  0
   62.5674   30.8346   46.4047 H   0  0  0  0  0  0  0  0  0  0  0  0
   60.5770   30.9440   48.5360 H   0  0  0  0  0  0  0  0  0  0  0  0
   60.3196   33.4427   47.4148 H   0  0  0  0  0  0  0  0  0  0  0  0
   59.2813   35.5424   46.5850 H   0  0  0  0  0  0  0  0  0  0  0  0
   57.5688   35.4571   44.7796 H   0  0  0  0  0  0  0  0  0  0  0  0
   56.9400   33.2831   43.7534 H   0  0  0  0  0  0  0  0  0  0  0  0
   56.2916   30.8588   43.1515 H   0  0  0  0  0  0  0  0  0  0  0  0
   57.6754   31.7852   42.4780 H   0  0  0  0  0  0  0  0  0  0  0  0
   57.7118   29.9893   42.4780 H   0  0  0  0  0  0  0  0  0  0  0  0
   57.1479   28.4687   43.6810 H   0  0  0  0  0  0  0  0  0  0  0  0
   57.4835   25.2728   45.3197 H   0  0  0  0  0  0  0  0  0  0  0  0
   56.8601   26.1559   43.8850 H   0  0  0  0  0  0  0  0  0  0  0  0
   58.5374   25.5130   43.8850 H   0  0  0  0  0  0  0  0  0  0  0  0
   59.4429   26.2915   46.5928 H   0  0  0  0  0  0  0  0  0  0  0  0
   59.7348   28.4255   48.8661 H   0  0  0  0  0  0  0  0  0  0  0  0
   60.8804   27.3283   48.0232 H   0  0  0  0  0  0  0  0  0  0  0  0
   61.1700   29.1011   48.0232 H   0  0  0  0  0  0  0  0  0  0  0  0
  1  2  1  0
  2  3  1  0
  3  4  1  0
  4  5  1  0
  3  6  1  0
  6  7  1  0
  7  8  1  0
  8  9  1  0
  9 10  1  0
 10 11  1  0
 11 12  1  0
 12 13  1  0
 13 14  1  0
 14 15  1  0
 15 16  2  0
 16 17  1  0
 17 18  2  0
 18 19  1  0
 19 20  2  0
 20 21  1  0
 21 22  2  0
 22 23  1  0
 22 24  1  0
 24 25  2  0
 25 26  1  0
 26 27  1  0
 26 28  2  0
 28 29  1  0
 29 30  1  0
 29 31  2  0
 31 15  1  0
 21 16  1  0
 31 24  1  0
  1 32  1  0
  1 33  1  0
  1 34  1  0
  2 35  1  0
  2 36  1  0
  3 37  1  0
  4 38  1  0
  4 39  1  0
  5 40  1  0
  5 41  1  0
  5 42  1  0
  6 43  1  0
  6 44  1  0
  7 45  1  0
  7 46  1  0
  9 47  1  0
  9 48  1  0
 10 49  1  0
 10 50  1  0
 11 51  1  0
 12 52  1  0
 12 53  1  0
 13 54  1  0
 13 55  1  0
 14 56  1  0
 17 57  1  0
 18 58  1  0
 19 59  1  0
 20 60  1  0
 23 61  1  0
 23 62  1  0
 23 63  1  0
 25 64  1  0
 27 65  1  0
 27 66  1  0
 27 67  1  0
 28 68  1  0
 30 69  1  0
 30 70  1  0
 30 71  1  0
M  CHG  2   3   1  22   1
M  END
>  <UniqueID>  (6) 
6

>  <SMILES>  (6) 
CC[NH+](CC)CCOCCNCCNc1c2ccccc2[n+](C)c2cc(C)cc(C)c12

>  <Energy>  (6) 
100.74459785880057

>  <Genealogy>  (6) 
CC[NH+](CC)CCOCCNCCNc1c2ccccc2[n+](C)c2cc(C)cc(C)c12 (protonated)
CC[NH+](CC)CCOCCNCCNc1c2ccccc2[n+](C)c2cc(C)cc(C)c12 (3D coordinates assigned)
CC[NH+](CC)CCOCCNCCNc1c2ccccc2[n+](C)c2cc(C)cc(C)c12 (optimized conformer: 100.74459785880057 kcal/mol)

>  <smiles>  (6) 
CCN(CC)CCOCCNCCNc1c2ccccc2[n+](C)c2cc(C)cc(C)c12

>  <score_type>  (6) 
oracle

>  <origin>  (6) 
adg

>  <m_score__min__energy>  (6) 
-4.1399999999999997

>  <m_primary>  (6) 
energy

$$$$
6:0
     RDKit          3D

 49 51  0  0  0  0  0  0  0  0999 V2000
   62.8930   30.9510   50.4320 C   0  0  0  0  0  0  0  0  0  0  0  0
   64.3460   31.2380   50.6330 C   0  0  0  0  0  0  0  0  0  0  0  0
   65.1790   30.4670   51.3570 N   0  0  0  0  0  0  0  0  0  0  0  0
   66.3820   31.0200   51.3480 N   0  0  0  0  0  0  0  0  0  0  0  0
   67.5490   30.4480   52.0160 C   0  0  0  0  0  0  0  0  0  0  0  0
   66.3450   32.1490   50.6050 C   0  0  0  0  0  0  0  0  0  0  0  0
   67.5060   33.0720   50.3810 C   0  0  0  0  0  0  0  0  0  0  0  0
   65.0440   32.3400   50.1620 C   0  0  0  0  0  0  0  0  0  0  0  0
   64.5200   33.4410   49.2870 C   0  0  0  0  0  0  0  0  0  0  0  0
   63.8920   32.8630   48.0940 N   0  0  0  0  0  0  0  0  0  0  0  0
   62.9890   33.8360   47.4710 C   0  0  0  0  0  0  0  0  0  0  0  0
   61.7570   33.1350   46.9720 C   0  0  0  0  0  0  0  0  0  0  0  0
   60.7050   33.8630   46.4020 C   0  0  0  0  0  0  0  0  0  0  0  0
   59.5490   33.2070   45.9750 C   0  0  0  0  0  0  0  0  0  0  0  0
   59.4410   31.8130   46.1350 C   0  0  0  0  0  0  0  0  0  0  0  0
   58.2640   31.0930   45.7080 N   0  0  0  0  0  0  0  0  0  0  0  0
   57.9100   29.7980   46.3070 C   0  0  0  0  0  0  0  0  0  0  0  0
   57.0740   28.9690   45.3260 C   0  0  0  0  0  0  0  0  0  0  0  0
   55.9820   29.7200   44.8320 O   0  0  0  0  0  0  0  0  0  0  0  0
   56.4650   30.7960   44.0530 C   0  0  0  0  0  0  0  0  0  0  0  0
   57.2390   31.7920   44.9200 C   0  0  0  0  0  0  0  0  0  0  0  0
   60.4760   31.1310   46.7020 N   0  0  0  0  0  0  0  0  0  0  0  0
   61.6110   31.7490   47.1230 C   0  0  0  0  0  0  0  0  0  0  0  0
   62.3997   30.8536   51.4104 H   0  0  0  0  0  0  0  0  0  0  0  0
   62.4309   31.7752   49.8689 H   0  0  0  0  0  0  0  0  0  0  0  0
   62.7790   30.0130   49.8689 H   0  0  0  0  0  0  0  0  0  0  0  0
   64.9320   29.5770   51.8470 H   0  0  0  0  0  0  0  0  0  0  0  0
   67.4161   30.5131   53.1060 H   0  0  0  0  0  0  0  0  0  0  0  0
   67.6594   29.3937   51.7224 H   0  0  0  0  0  0  0  0  0  0  0  0
   68.4500   31.0066   51.7224 H   0  0  0  0  0  0  0  0  0  0  0  0
   67.9110   33.3940   51.3517 H   0  0  0  0  0  0  0  0  0  0  0  0
   68.2881   32.5464   49.8135 H   0  0  0  0  0  0  0  0  0  0  0  0
   67.1703   33.9525   49.8135 H   0  0  0  0  0  0  0  0  0  0  0  0
   63.7759   34.0290   49.8442 H   0  0  0  0  0  0  0  0  0  0  0  0
   65.3515   34.0938   48.9829 H   0  0  0  0  0  0  0  0  0  0  0  0
   64.6500   32.6430   47.4060 H   0  0  0  0  0  0  0  0  0  0  0  0
   62.7023   34.5961   48.2126 H   0  0  0  0  0  0  0  0  0  0  0  0
   63.5009   34.3196   46.6260 H   0  0  0  0  0  0  0  0  0  0  0  0
   60.7898   34.9540   46.2905 H   0  0  0  0  0  0  0  0  0  0  0  0
   58.7273   33.7764   45.5161 H   0  0  0  0  0  0  0  0  0  0  0  0
   58.8305   29.2486   46.5537 H   0  0  0  0  0  0  0  0  0  0  0  0
   57.3207   29.9747   47.2189 H   0  0  0  0  0  0  0  0  0  0  0  0
   57.7095   28.6605   44.4828 H   0  0  0  0  0  0  0  0  0  0  0  0
   56.6830   28.0877   45.8556 H   0  0  0  0  0  0  0  0  0  0  0  0
   57.1324   30.4040   43.2714 H   0  0  0  0  0  0  0  0  0  0  0  0
   55.6076   31.3155   43.6002 H   0  0  0  0  0  0  0  0  0  0  0  0
   57.7245   32.5365   44.2720 H   0  0  0  0  0  0  0  0  0  0  0  0
   56.5378   32.2898   45.6060 H   0  0  0  0  0  0  0  0  0  0  0  0
   62.4175   31.1597   47.5837 H   0  0  0  0  0  0  0  0  0  0  0  0
  1  2  1  0
  2  3  2  0
  3  4  1  0
  4  5  1  0
  4  6  1  0
  6  7  1  0
  6  8  2  0
  8  9  1  0
  9 10  1  0
 10 11  1  0
 11 12  1  0
 12 13  2  0
 13 14  1  0
 14 15  2  0
 15 16  1  0
 16 17  1  0
 17 18  1  0
 18 19  1  0
 19 20  1  0
 20 21  1  0
 15 22  1  0
 22 23  2  0
  8  2  1  0
 23 12  1  0
 21 16  1  0
  1 24  1  0
  1 25  1  0
  1 26  1  0
  3 27  1  0
  5 28  1  0
  5 29  1  0
  5 30  1  0
  7 31  1  0
  7 32  1  0
  7 33  1  0
  9 34  1  0
  9 35  1  0
 10 36  1  0
 11 37  1  0
 11 38  1  0
 13 39  1  0
 14 40  1  0
 17 41  1  0
 17 42  1  0
 18 43  1  0
 18 44  1  0
 20 45  1  0
 20 46  1  0
 21 47  1  0
 21 48  1  0
 23 49  1  0
M  CHG  1   3   1
M  END
>  <UniqueID>  (7) 
7

>  <SMILES>  (7) 
Cc1[nH+]n(C)c(C)c1CNCc1ccc(N2CCOCC2)nc1

>  <Energy>  (7) 
79.46738163067148

>  <Genealogy>  (7) 
Cc1[nH+]n(C)c(C)c1CNCc1ccc(N2CCOCC2)nc1 (protonated)
Cc1[nH+]n(C)c(C)c1CNCc1ccc(N2CCOCC2)nc1 (3D coordinates assigned)
Cc1[nH+]n(C)c(C)c1CNCc1ccc(N2CCOCC2)nc1 (nonaromatic ring conformer: 79.46738163067148 kcal/mol)

>  <smiles>  (7) 
Cc1nn(C)c(C)c1CNCc1ccc(N2CCOCC2)nc1

>  <score_type>  (7) 
oracle

>  <origin>  (7) 
adg

>  <m_score__min__energy>  (7) 
-6.2999999999999998

>  <m_primary>  (7) 
energy

$$$$
7:0
     RDKit          3D

 42 43  0  0  0  0  0  0  0  0999 V2000
   59.8360   28.1880   48.4180 C   0  0  0  0  0  0  0  0  0  0  0  0
   58.8080   28.0810   47.2960 C   0  0  0  0  0  0  0  0  0  0  0  0
   59.3530   27.2820   46.1750 N   0  0  0  0  0  0  0  0  0  0  0  0
   60.5870   27.8920   45.6320 C   0  0  0  0  0  0  0  0  0  0  0  0
   60.3160   29.3210   45.1700 C   0  0  0  0  0  0  0  0  0  0  0  0
   58.3380   27.0560   45.1150 C   0  0  0  0  0  0  0  0  0  0  0  0
   56.9310   27.1000   45.7180 C   0  0  0  0  0  0  0  0  0  0  0  0
   56.1530   28.2120   45.1750 N   0  0  0  0  0  0  0  0  0  0  0  0
   56.7320   29.5130   44.9640 C   0  0  0  0  0  0  0  0  0  0  0  0
   57.1900   30.1870   46.0160 O   0  0  0  0  0  0  0  0  0  0  0  0
   57.7410   31.3910   45.9290 C   0  0  0  0  0  0  0  0  0  0  0  0
   58.1940   32.0290   47.0880 C   0  0  0  0  0  0  0  0  0  0  0  0
   58.7770   33.2960   47.0110 C   0  0  0  0  0  0  0  0  0  0  0  0
   58.9120   33.9330   45.7730 C   0  0  0  0  0  0  0  0  0  0  0  0
   59.6450   35.5230   45.6810 Cl  0  0  0  0  0  0  0  0  0  0  0  0
   58.4600   33.3030   44.6070 C   0  0  0  0  0  0  0  0  0  0  0  0
   57.8710   32.0270   44.6760 C   0  0  0  0  0  0  0  0  0  0  0  0
   57.4010   31.3560   43.5360 C   0  0  0  0  0  0  0  0  0  0  0  0
   57.5020   31.8940   42.3990 O   0  0  0  0  0  0  0  0  0  0  0  0
   56.8140   30.0810   43.6700 C   0  0  0  0  0  0  0  0  0  0  0  0
   56.2800   29.3430   42.4660 C   0  0  0  0  0  0  0  0  0  0  0  0
   59.3244   28.1347   49.3903 H   0  0  0  0  0  0  0  0  0  0  0  0
   60.5554   27.3599   48.3364 H   0  0  0  0  0  0  0  0  0  0  0  0
   60.3694   29.1465   48.3364 H   0  0  0  0  0  0  0  0  0  0  0  0
   57.8999   27.5941   47.6810 H   0  0  0  0  0  0  0  0  0  0  0  0
   58.5683   29.0911   46.9324 H   0  0  0  0  0  0  0  0  0  0  0  0
   61.3597   27.9047   46.4148 H   0  0  0  0  0  0  0  0  0  0  0  0
   60.9296   27.2981   44.7718 H   0  0  0  0  0  0  0  0  0  0  0  0
   60.1924   29.9728   46.0474 H   0  0  0  0  0  0  0  0  0  0  0  0
   61.1626   29.6775   44.5648 H   0  0  0  0  0  0  0  0  0  0  0  0
   59.3977   29.3428   44.5648 H   0  0  0  0  0  0  0  0  0  0  0  0
   58.4306   27.8401   44.3491 H   0  0  0  0  0  0  0  0  0  0  0  0
   58.5049   26.0683   44.6604 H   0  0  0  0  0  0  0  0  0  0  0  0
   56.4140   26.1563   45.4897 H   0  0  0  0  0  0  0  0  0  0  0  0
   57.0242   27.2407   46.8050 H   0  0  0  0  0  0  0  0  0  0  0  0
   55.1660   28.0170   44.8980 H   0  0  0  0  0  0  0  0  0  0  0  0
   58.0909   31.5314   48.0636 H   0  0  0  0  0  0  0  0  0  0  0  0
   59.1307   33.7939   47.9259 H   0  0  0  0  0  0  0  0  0  0  0  0
   58.5656   33.8068   43.6349 H   0  0  0  0  0  0  0  0  0  0  0  0
   55.6655   28.4937   42.7993 H   0  0  0  0  0  0  0  0  0  0  0  0
   55.6651   30.0253   41.8607 H   0  0  0  0  0  0  0  0  0  0  0  0
   57.1204   28.9723   41.8607 H   0  0  0  0  0  0  0  0  0  0  0  0
  1  2  1  0
  2  3  1  0
  3  4  1  0
  4  5  1  0
  3  6  1  0
  6  7  1  0
  7  8  1  0
  8  9  1  0
  9 10  1  0
 10 11  1  0
 11 12  2  0
 12 13  1  0
 13 14  2  0
 14 15  1  0
 14 16  1  0
 16 17  2  0
 17 18  1  0
 18 19  2  0
 18 20  1  0
 20 21  1  0
 20  9  2  0
 17 11  1  0
  1 22  1  0
  1 23  1  0
  1 24  1  0
  2 25  1  0
  2 26  1  0
  4 27  1  0
  4 28  1  0
  5 29  1  0
  5 30  1  0
  5 31  1  0
  6 32  1  0
  6 33  1  0
  7 34  1  0
  7 35  1  0
  8 36  1  0
 12 37  1  0
 13 38  1  0
 16 39  1  0
 21 40  1  0
 21 41  1  0
 21 42  1  0
M  END
>  <UniqueID>  (8) 
8

>  <SMILES>  (8) 
CCN(CC)CCNc1oc2ccc(Cl)cc2c(=O)c1C

>  <Energy>  (8) 
43.238277771353836

>  <Genealogy>  (8) 
CCN(CC)CCNc1oc2ccc(Cl)cc2c(=O)c1C (3D coordinates assigned)
CCN(CC)CCNc1oc2ccc(Cl)cc2c(=O)c1C (optimized conformer: 43.238277771353836 kcal/mol)

>  <smiles>  (8) 
CCN(CC)CCNc1oc2ccc(Cl)cc2c(=O)c1C

>  <score_type>  (8) 
oracle

>  <origin>  (8) 
adg

>  <m_score__min__energy>  (8) 
-7.1399999999999997

>  <m_primary>  (8) 
energy

$$$$
8:0
     RDKit          3D

 41 43  0  0  0  0  0  0  0  0999 V2000
   56.7090   30.4510   43.0800 C   0  0  0  0  0  0  0  0  0  0  0  0
   55.5200   29.7160   43.6850 C   0  0  0  0  0  0  0  0  0  0  0  0
   55.8510   29.2050   44.9630 O   0  0  0  0  0  0  0  0  0  0  0  0
   56.9510   28.3210   44.8730 C   0  0  0  0  0  0  0  0  0  0  0  0
   58.1600   28.9280   45.5850 C   0  0  0  0  0  0  0  0  0  0  0  0
   57.7880   30.1160   46.3560 N   0  0  0  0  0  0  0  0  0  0  0  0
   58.7700   31.0520   46.8380 C   0  0  0  0  0  0  0  0  0  0  0  0
   58.8240   32.3540   46.3090 C   0  0  0  0  0  0  0  0  0  0  0  0
   57.8610   32.7960   45.3780 C   0  0  0  0  0  0  0  0  0  0  0  0
   57.9130   34.0870   44.8580 C   0  0  0  0  0  0  0  0  0  0  0  0
   58.9230   34.9560   45.2510 C   0  0  0  0  0  0  0  0  0  0  0  0
   59.8880   34.5430   46.1690 C   0  0  0  0  0  0  0  0  0  0  0  0
   59.8650   33.2350   46.7170 C   0  0  0  0  0  0  0  0  0  0  0  0
   60.8180   32.8120   47.6250 N   0  0  0  0  0  0  0  0  0  0  0  0
   61.9400   33.7030   47.9930 C   0  0  0  0  0  0  0  0  0  0  0  0
   60.7080   31.5740   48.2200 C   0  0  0  0  0  0  0  0  0  0  0  0
   61.5880   31.1940   49.1930 N   0  0  0  0  0  0  0  0  0  0  0  0
   61.5070   29.9990   49.8310 C   0  0  0  0  0  0  0  0  0  0  0  0
   60.4850   29.1100   49.5150 C   0  0  0  0  0  0  0  0  0  0  0  0
   59.5650   29.4540   48.5280 C   0  0  0  0  0  0  0  0  0  0  0  0
   59.6750   30.6810   47.8470 C   0  0  0  0  0  0  0  0  0  0  0  0
   57.3456   30.8445   43.8861 H   0  0  0  0  0  0  0  0  0  0  0  0
   57.2923   29.7557   42.4585 H   0  0  0  0  0  0  0  0  0  0  0  0
   56.3478   31.2836   42.4585 H   0  0  0  0  0  0  0  0  0  0  0  0
   54.6746   30.4131   43.7817 H   0  0  0  0  0  0  0  0  0  0  0  0
   55.2472   28.8781   43.0266 H   0  0  0  0  0  0  0  0  0  0  0  0
   56.6902   27.3634   45.3473 H   0  0  0  0  0  0  0  0  0  0  0  0
   57.1981   28.1538   43.8142 H   0  0  0  0  0  0  0  0  0  0  0  0
   58.5866   28.1781   46.2674 H   0  0  0  0  0  0  0  0  0  0  0  0
   58.8949   29.2271   44.8231 H   0  0  0  0  0  0  0  0  0  0  0  0
   56.7760   30.3230   46.5090 H   0  0  0  0  0  0  0  0  0  0  0  0
   57.0597   32.1132   45.0590 H   0  0  0  0  0  0  0  0  0  0  0  0
   57.1532   34.4190   44.1351 H   0  0  0  0  0  0  0  0  0  0  0  0
   58.9617   35.9741   44.8363 H   0  0  0  0  0  0  0  0  0  0  0  0
   60.6801   35.2431   46.4731 H   0  0  0  0  0  0  0  0  0  0  0  0
   62.0161   33.7634   49.0887 H   0  0  0  0  0  0  0  0  0  0  0  0
   62.8777   33.3007   47.5820 H   0  0  0  0  0  0  0  0  0  0  0  0
   61.7606   34.7074   47.5820 H   0  0  0  0  0  0  0  0  0  0  0  0
   62.2495   29.7335   50.5979 H   0  0  0  0  0  0  0  0  0  0  0  0
   60.4045   28.1461   50.0389 H   0  0  0  0  0  0  0  0  0  0  0  0
   58.7468   28.7623   48.2788 H   0  0  0  0  0  0  0  0  0  0  0  0
  1  2  1  0
  2  3  1  0
  3  4  1  0
  4  5  1  0
  5  6  1  0
  6  7  1  0
  7  8  2  0
  8  9  1  0
  9 10  2  0
 10 11  1  0
 11 12  2  0
 12 13  1  0
 13 14  2  0
 14 15  1  0
 14 16  1  0
 16 17  2  0
 17 18  1  0
 18 19  2  0
 19 20  1  0
 20 21  2  0
 21  7  1  0
 13  8  1  0
 21 16  1  0
  1 22  1  0
  1 23  1  0
  1 24  1  0
  2 25  1  0
  2 26  1  0
  4 27  1  0
  4 28  1  0
  5 29  1  0
  5 30  1  0
  6 31  1  0
  9 32  1  0
 10 33  1  0
 11 34  1  0
 12 35  1  0
 15 36  1  0
 15 37  1  0
 15 38  1  0
 18 39  1  0
 19 40  1  0
 20 41  1  0
M  CHG  1  14   1
M  END
>  <UniqueID>  (9) 
9

>  <SMILES>  (9) 
CCOCCNc1c2ccccc2[n+](C)c2ncccc12

>  <Energy>  (9) 
60.234060953368385

>  <Genealogy>  (9) 
CCOCCNc1c2ccccc2[n+](C)c2ncccc12 (3D coordinates assigned)
CCOCCNc1c2ccccc2[n+](C)c2ncccc12 (optimized conformer: 60.234060953368385 kcal/mol)

>  <smiles>  (9) 
CCOCCNc1c2ccccc2[n+](C)c2ncccc12

>  <score_type>  (9) 
oracle

>  <origin>  (9) 
adg

>  <m_score__min__energy>  (9) 
-5.2800000000000002

>  <m_primary>  (9) 
energy

$$$$
9:0
     RDKit          3D

 50 52  0  0  0  0  0  0  0  0999 V2000
   65.5140   32.6810   49.7680 C   0  0  0  0  0  0  0  0  0  0  0  0
   64.1850   33.1290   49.1390 C   0  0  0  0  0  0  0  0  0  0  0  0
   63.7830   32.2630   47.9960 N   0  0  0  0  0  0  0  0  0  0  0  0
   63.6460   33.0590   46.7470 C   0  0  0  0  0  0  0  0  0  0  0  0
   62.3470   33.8720   46.7040 C   0  0  0  0  0  0  0  0  0  0  0  0
   62.5650   31.4680   48.3200 C   0  0  0  0  0  0  0  0  0  0  0  0
   61.8570   30.8330   47.0960 C   0  0  0  0  0  0  0  0  0  0  0  0
   60.4870   30.4330   47.4250 N   0  0  0  0  0  0  0  0  0  0  0  0
   59.4360   30.5450   46.4530 C   0  0  0  0  0  0  0  0  0  0  0  0
   58.9040   31.8120   46.1640 C   0  0  0  0  0  0  0  0  0  0  0  0
   59.1570   32.9160   47.0070 C   0  0  0  0  0  0  0  0  0  0  0  0
   58.6010   34.1640   46.7350 C   0  0  0  0  0  0  0  0  0  0  0  0
   57.7750   34.3310   45.6300 C   0  0  0  0  0  0  0  0  0  0  0  0
   57.5200   33.2580   44.7760 C   0  0  0  0  0  0  0  0  0  0  0  0
   58.1060   31.9860   45.0050 C   0  0  0  0  0  0  0  0  0  0  0  0
   57.9250   30.9340   44.1310 N   0  0  0  0  0  0  0  0  0  0  0  0
   57.3900   31.1890   42.7730 C   0  0  0  0  0  0  0  0  0  0  0  0
   58.2440   29.6450   44.5230 C   0  0  0  0  0  0  0  0  0  0  0  0
   57.8140   28.5230   43.7730 C   0  0  0  0  0  0  0  0  0  0  0  0
   58.1380   27.2280   44.1630 C   0  0  0  0  0  0  0  0  0  0  0  0
   58.8470   27.0070   45.3330 C   0  0  0  0  0  0  0  0  0  0  0  0
   59.2570   28.0770   46.1290 C   0  0  0  0  0  0  0  0  0  0  0  0
   59.9690   27.5630   47.8460 Br  0  0  0  0  0  0  0  0  0  0  0  0
   58.9990   29.4200   45.7160 C   0  0  0  0  0  0  0  0  0  0  0  0
   65.4289   32.7097   50.8643 H   0  0  0  0  0  0  0  0  0  0  0  0
   65.7452   31.6553   49.4449 H   0  0  0  0  0  0  0  0  0  0  0  0
   66.3190   33.3574   49.4449 H   0  0  0  0  0  0  0  0  0  0  0  0
   63.3985   33.0895   49.9071 H   0  0  0  0  0  0  0  0  0  0  0  0
   64.3203   34.1515   48.7565 H   0  0  0  0  0  0  0  0  0  0  0  0
   64.5470   31.5600   47.8430 H   0  0  0  0  0  0  0  0  0  0  0  0
   64.4974   33.7518   46.6759 H   0  0  0  0  0  0  0  0  0  0  0  0
   63.6248   32.3533   45.9035 H   0  0  0  0  0  0  0  0  0  0  0  0
   62.0117   34.0819   47.7304 H   0  0  0  0  0  0  0  0  0  0  0  0
   62.5251   34.8201   46.1754 H   0  0  0  0  0  0  0  0  0  0  0  0
   61.5721   33.2974   46.1754 H   0  0  0  0  0  0  0  0  0  0  0  0
   62.8575   30.6578   49.0042 H   0  0  0  0  0  0  0  0  0  0  0  0
   61.8450   32.1721   48.7626 H   0  0  0  0  0  0  0  0  0  0  0  0
   61.8296   31.5667   46.2769 H   0  0  0  0  0  0  0  0  0  0  0  0
   62.4188   29.9364   46.7952 H   0  0  0  0  0  0  0  0  0  0  0  0
   60.2480   30.1570   48.4030 H   0  0  0  0  0  0  0  0  0  0  0  0
   59.8012   32.7891   47.8896 H   0  0  0  0  0  0  0  0  0  0  0  0
   58.8158   35.0174   47.3950 H   0  0  0  0  0  0  0  0  0  0  0  0
   57.3209   35.3124   45.4282 H   0  0  0  0  0  0  0  0  0  0  0  0
   56.8545   33.4000   43.9118 H   0  0  0  0  0  0  0  0  0  0  0  0
   56.3996   31.6611   42.8518 H   0  0  0  0  0  0  0  0  0  0  0  0
   58.0731   31.8584   42.2295 H   0  0  0  0  0  0  0  0  0  0  0  0
   57.3002   30.2369   42.2295 H   0  0  0  0  0  0  0  0  0  0  0  0
   57.2126   28.6788   42.8652 H   0  0  0  0  0  0  0  0  0  0  0  0
   57.8301   26.3753   43.5400 H   0  0  0  0  0  0  0  0  0  0  0  0
   59.0889   25.9779   45.6371 H   0  0  0  0  0  0  0  0  0  0  0  0
  1  2  1  0
  2  3  1  0
  3  4  1  0
  4  5  1  0
  3  6  1  0
  6  7  1  0
  7  8  1  0
  8  9  1  0
  9 10  2  0
 10 11  1  0
 11 12  2  0
 12 13  1  0
 13 14  2  0
 14 15  1  0
 15 16  2  0
 16 17  1  0
 16 18  1  0
 18 19  2  0
 19 20  1  0
 20 21  2  0
 21 22  1  0
 22 23  1  0
 22 24  2  0
 24  9  1  0
 15 10  1  0
 24 18  1  0
  1 25  1  0
  1 26  1  0
  1 27  1  0
  2 28  1  0
  2 29  1  0
  3 30  1  0
  4 31  1  0
  4 32  1  0
  5 33  1  0
  5 34  1  0
  5 35  1  0
  6 36  1  0
  6 37  1  0
  7 38  1  0
  7 39  1  0
  8 40  1  0
 11 41  1  0
 12 42  1  0
 13 43  1  0
 14 44  1  0
 17 45  1  0
 17 46  1  0
 17 47  1  0
 19 48  1  0
 20 49  1  0
 21 50  1  0
M  CHG  2   3   1  16   1
M  END
>  <UniqueID>  (10) 
10

>  <SMILES>  (10) 
CC[NH+](CC)CCNc1c2ccccc2[n+](C)c2cccc(Br)c12

>  <Energy>  (10) 
90.37368901157205

>  <Genealogy>  (10) 
CC[NH+](CC)CCNc1c2ccccc2[n+](C)c2cccc(Br)c12 (protonated)
CC[NH+](CC)CCNc1c2ccccc2[n+](C)c2cccc(Br)c12 (3D coordinates assigned)
CC[NH+](CC)CCNc1c2ccccc2[n+](C)c2cccc(Br)c12 (optimized conformer: 90.37368901157205 kcal/mol)

>  <smiles>  (10) 
CCN(CC)CCNc1c2ccccc2[n+](C)c2cccc(Br)c12

>  <score_type>  (10) 
oracle

>  <origin>  (10) 
adg

>  <m_score__min__energy>  (10) 
-5.2000000000000002

>  <m_primary>  (10) 
energy

$$$$
10:0
     RDKit          3D

 41 44  0  0  0  0  0  0  0  0999 V2000
   57.7270   32.3410   41.2570 C   0  0  0  0  0  0  0  0  0  0  0  0
   57.8360   32.3090   42.7480 C   0  0  0  0  0  0  0  0  0  0  0  0
   57.5840   31.1230   43.4480 C   0  0  0  0  0  0  0  0  0  0  0  0
   57.6880   31.0970   44.8510 C   0  0  0  0  0  0  0  0  0  0  0  0
   57.4520   29.9260   45.5940 O   0  0  0  0  0  0  0  0  0  0  0  0
   58.4010   28.8820   45.8140 C   0  0  0  0  0  0  0  0  0  0  0  0
   59.5620   29.3830   46.6220 C   0  0  0  0  0  0  0  0  0  0  0  0
   60.2290   30.5220   46.3710 N   0  0  0  0  0  0  0  0  0  0  0  0
   61.1530   30.5980   47.3510 C   0  0  0  0  0  0  0  0  0  0  0  0
   62.1360   31.6810   47.4850 C   0  0  0  0  0  0  0  0  0  0  0  0
   63.3110   31.6460   48.2280 C   0  0  0  0  0  0  0  0  0  0  0  0
   64.0400   32.8390   48.1610 C   0  0  0  0  0  0  0  0  0  0  0  0
   63.4450   33.8130   47.3690 C   0  0  0  0  0  0  0  0  0  0  0  0
   62.0110   33.1890   46.7530 S   0  0  0  0  0  0  0  0  0  0  0  0
   61.0750   29.5810   48.1820 O   0  0  0  0  0  0  0  0  0  0  0  0
   60.0950   28.8140   47.7630 C   0  0  0  0  0  0  0  0  0  0  0  0
   59.6680   27.5470   48.4260 C   0  0  0  0  0  0  0  0  0  0  0  0
   58.0410   32.2800   45.5290 C   0  0  0  0  0  0  0  0  0  0  0  0
   58.1630   32.3210   46.9300 C   0  0  0  0  0  0  0  0  0  0  0  0
   58.5180   33.5120   47.5700 C   0  0  0  0  0  0  0  0  0  0  0  0
   58.7550   34.6700   46.8240 C   0  0  0  0  0  0  0  0  0  0  0  0
   58.6380   34.6430   45.4330 C   0  0  0  0  0  0  0  0  0  0  0  0
   58.2840   33.4570   44.7810 C   0  0  0  0  0  0  0  0  0  0  0  0
   58.1760   33.4370   43.4270 N   0  0  0  0  0  0  0  0  0  0  0  0
   56.7081   32.6402   40.9702 H   0  0  0  0  0  0  0  0  0  0  0  0
   58.4494   33.0650   40.8520 H   0  0  0  0  0  0  0  0  0  0  0  0
   57.9434   31.3414   40.8520 H   0  0  0  0  0  0  0  0  0  0  0  0
   57.3045   30.2107   42.9007 H   0  0  0  0  0  0  0  0  0  0  0  0
   57.9128   28.0583   46.3554 H   0  0  0  0  0  0  0  0  0  0  0  0
   58.7729   28.5308   44.8402 H   0  0  0  0  0  0  0  0  0  0  0  0
   60.0620   31.1930   45.5880 H   0  0  0  0  0  0  0  0  0  0  0  0
   63.6346   30.7699   48.8092 H   0  0  0  0  0  0  0  0  0  0  0  0
   64.9945   32.9911   48.6862 H   0  0  0  0  0  0  0  0  0  0  0  0
   63.8440   34.8201   47.1778 H   0  0  0  0  0  0  0  0  0  0  0  0
   59.7102   27.6723   49.5180 H   0  0  0  0  0  0  0  0  0  0  0  0
   58.6384   27.3042   48.1243 H   0  0  0  0  0  0  0  0  0  0  0  0
   60.3406   26.7306   48.1243 H   0  0  0  0  0  0  0  0  0  0  0  0
   57.9785   31.4133   47.5234 H   0  0  0  0  0  0  0  0  0  0  0  0
   58.6113   33.5380   48.6657 H   0  0  0  0  0  0  0  0  0  0  0  0
   59.0341   35.6040   47.3336 H   0  0  0  0  0  0  0  0  0  0  0  0
   58.8245   35.5561   44.8486 H   0  0  0  0  0  0  0  0  0  0  0  0
  1  2  1  0
  2  3  2  0
  3  4  1  0
  4  5  1  0
  5  6  1  0
  6  7  1  0
  7  8  1  0
  8  9  2  0
  9 10  1  0
 10 11  2  0
 11 12  1  0
 12 13  2  0
 13 14  1  0
  9 15  1  0
 15 16  1  0
 16 17  1  0
  4 18  2  0
 18 19  1  0
 19 20  2  0
 20 21  1  0
 21 22  2  0
 22 23  1  0
 23 24  2  0
 24  2  1  0
 16  7  2  0
 23 18  1  0
 14 10  1  0
  1 25  1  0
  1 26  1  0
  1 27  1  0
  3 28  1  0
  6 29  1  0
  6 30  1  0
  8 31  1  0
 11 32  1  0
 12 33  1  0
 13 34  1  0
 17 35  1  0
 17 36  1  0
 17 37  1  0
 19 38  1  0
 20 39  1  0
 21 40  1  0
 22 41  1  0
M  CHG  1   8   1
M  END
>  <UniqueID>  (11) 
11

>  <SMILES>  (11) 
Cc1cc(OCc2[nH+]c(-c3cccs3)oc2C)c2ccccc2n1

>  <Energy>  (11) 
101.50243955222786

>  <Genealogy>  (11) 
Cc1cc(OCc2[nH+]c(-c3cccs3)oc2C)c2ccccc2n1 (protonated)
Cc1cc(OCc2[nH+]c(-c3cccs3)oc2C)c2ccccc2n1 (3D coordinates assigned)
Cc1cc(OCc2[nH+]c(-c3cccs3)oc2C)c2ccccc2n1 (optimized conformer: 101.50243955222786 kcal/mol)

>  <smiles>  (11) 
Cc1cc(OCc2nc(-c3cccs3)oc2C)c2ccccc2n1

>  <score_type>  (11) 
oracle

>  <origin>  (11) 
adg

>  <m_score__min__energy>  (11) 
-6.3300000000000001

>  <m_primary>  (11) 
energy

$$$$
11:0
     RDKit          3D

 48 50  0  0  0  0  0  0  0  0999 V2000
   57.8800   26.0560   47.0550 C   0  0  0  0  0  0  0  0  0  0  0  0
   56.7710   26.2330   46.0250 C   0  0  0  0  0  0  0  0  0  0  0  0
   56.9810   27.4740   45.2700 N   0  0  0  0  0  0  0  0  0  0  0  0
   58.3150   27.5080   44.6540 C   0  0  0  0  0  0  0  0  0  0  0  0
   59.1500   28.6450   45.2570 C   0  0  0  0  0  0  0  0  0  0  0  0
   58.4170   29.3130   46.3500 N   0  0  0  0  0  0  0  0  0  0  0  0
   59.0660   30.5540   46.7410 C   0  0  0  0  0  0  0  0  0  0  0  0
   60.0230   30.5450   47.7950 C   0  0  0  0  0  0  0  0  0  0  0  0
   60.2100   29.4130   48.6310 C   0  0  0  0  0  0  0  0  0  0  0  0
   61.1240   29.4350   49.6820 C   0  0  0  0  0  0  0  0  0  0  0  0
   61.8670   30.5770   49.9350 C   0  0  0  0  0  0  0  0  0  0  0  0
   61.7210   31.6970   49.1220 C   0  0  0  0  0  0  0  0  0  0  0  0
   60.8240   31.6950   48.0220 C   0  0  0  0  0  0  0  0  0  0  0  0
   60.7250   32.7810   47.1840 N   0  0  0  0  0  0  0  0  0  0  0  0
   61.7980   33.8020   47.1740 C   0  0  0  0  0  0  0  0  0  0  0  0
   59.6350   32.9130   46.3480 C   0  0  0  0  0  0  0  0  0  0  0  0
   59.3430   34.1610   45.7490 C   0  0  0  0  0  0  0  0  0  0  0  0
   58.2870   34.3100   44.8690 C   0  0  0  0  0  0  0  0  0  0  0  0
   57.4650   33.2370   44.5810 C   0  0  0  0  0  0  0  0  0  0  0  0
   57.6670   31.9860   45.1910 C   0  0  0  0  0  0  0  0  0  0  0  0
   56.7540   30.9510   44.9350 O   0  0  0  0  0  0  0  0  0  0  0  0
   56.4180   30.4330   43.6490 C   0  0  0  0  0  0  0  0  0  0  0  0
   58.7760   31.7980   46.0860 C   0  0  0  0  0  0  0  0  0  0  0  0
   57.4546   26.1239   48.0671 H   0  0  0  0  0  0  0  0  0  0  0  0
   58.3514   25.0712   46.9207 H   0  0  0  0  0  0  0  0  0  0  0  0
   58.6345   26.8451   46.9207 H   0  0  0  0  0  0  0  0  0  0  0  0
   56.7781   25.3791   45.3316 H   0  0  0  0  0  0  0  0  0  0  0  0
   55.8019   26.2848   46.5429 H   0  0  0  0  0  0  0  0  0  0  0  0
   56.2720   27.4970   44.4990 H   0  0  0  0  0  0  0  0  0  0  0  0
   58.8229   26.5492   44.8348 H   0  0  0  0  0  0  0  0  0  0  0  0
   58.2060   27.6781   43.5727 H   0  0  0  0  0  0  0  0  0  0  0  0
   60.0892   28.2314   45.6531 H   0  0  0  0  0  0  0  0  0  0  0  0
   59.3582   29.3844   44.4696 H   0  0  0  0  0  0  0  0  0  0  0  0
   58.2820   28.6900   47.1750 H   0  0  0  0  0  0  0  0  0  0  0  0
   57.4320   29.4930   46.0500 H   0  0  0  0  0  0  0  0  0  0  0  0
   59.6224   28.5018   48.4455 H   0  0  0  0  0  0  0  0  0  0  0  0
   61.2563   28.5435   50.3127 H   0  0  0  0  0  0  0  0  0  0  0  0
   62.5724   30.5983   50.7787 H   0  0  0  0  0  0  0  0  0  0  0  0
   62.3114   32.6002   49.3357 H   0  0  0  0  0  0  0  0  0  0  0  0
   62.0687   34.0596   48.2086 H   0  0  0  0  0  0  0  0  0  0  0  0
   62.6802   33.4017   46.6530 H   0  0  0  0  0  0  0  0  0  0  0  0
   61.4420   34.7030   46.6530 H   0  0  0  0  0  0  0  0  0  0  0  0
   59.9701   35.0323   45.9887 H   0  0  0  0  0  0  0  0  0  0  0  0
   58.1005   35.2857   44.3966 H   0  0  0  0  0  0  0  0  0  0  0  0
   56.6404   33.3633   43.8640 H   0  0  0  0  0  0  0  0  0  0  0  0
   55.8229   29.5155   43.7673 H   0  0  0  0  0  0  0  0  0  0  0  0
   55.8325   31.1808   43.0940 H   0  0  0  0  0  0  0  0  0  0  0  0
   57.3395   30.2033   43.0940 H   0  0  0  0  0  0  0  0  0  0  0  0
  1  2  1  0
  2  3  1  0
  3  4  1  0
  4  5  1  0
  5  6  1  0
  6  7  1  0
  7  8  2  0
  8  9  1  0
  9 10  2  0
 10 11  1  0
 11 12  2  0
 12 13  1  0
 13 14  2  0
 14 15  1  0
 14 16  1  0
 16 17  2  0
 17 18  1  0
 18 19  2  0
 19 20  1  0
 20 21  1  0
 21 22  1  0
 20 23  2  0
 23  7  1  0
 13  8  1  0
 23 16  1  0
  1 24  1  0
  1 25  1  0
  1 26  1  0
  2 27  1  0
  2 28  1  0
  3 29  1  0
  4 30  1  0
  4 31  1  0
  5 32  1  0
  5 33  1  0
  6 34  1  0
  6 35  1  0
  9 36  1  0
 10 37  1  0
 11 38  1  0
 12 39  1  0
 15 40  1  0
 15 41  1  0
 15 42  1  0
 17 43  1  0
 18 44  1  0
 19 45  1  0
 22 46  1  0
 22 47  1  0
 22 48  1  0
M  CHG  2   6   1  14   1
M  END
>  <UniqueID>  (12) 
12

>  <SMILES>  (12) 
CCNCC[NH2+]c1c2ccccc2[n+](C)c2cccc(OC)c12

>  <Energy>  (12) 
78.26150107952124

>  <Genealogy>  (12) 
CCNCC[NH2+]c1c2ccccc2[n+](C)c2cccc(OC)c12 (protonated)
CCNCC[NH2+]c1c2ccccc2[n+](C)c2cccc(OC)c12 (3D coordinates assigned)
CCNCC[NH2+]c1c2ccccc2[n+](C)c2cccc(OC)c12 (optimized conformer: 78.26150107952124 kcal/mol)

>  <smiles>  (12) 
CCNCCNc1c2ccccc2[n+](C)c2cccc(OC)c12

>  <score_type>  (12) 
oracle

>  <origin>  (12) 
adg

>  <m_score__min__energy>  (12) 
-3.6099999999999999

>  <m_primary>  (12) 
energy

$$$$
12:0
     RDKit          3D

 50 52  0  0  0  0  0  0  0  0999 V2000
   59.9750   33.5040   50.1390 C   0  0  0  0  0  0  0  0  0  0  0  0
   61.0380   33.6740   49.2080 O   0  0  0  0  0  0  0  0  0  0  0  0
   62.3980   33.4910   49.5060 C   0  0  0  0  0  0  0  0  0  0  0  0
   62.9970   34.1050   50.6240 C   0  0  0  0  0  0  0  0  0  0  0  0
   64.3460   33.8900   50.9120 C   0  0  0  0  0  0  0  0  0  0  0  0
   65.1120   33.0560   50.0980 C   0  0  0  0  0  0  0  0  0  0  0  0
   64.5330   32.4420   48.9870 C   0  0  0  0  0  0  0  0  0  0  0  0
   63.1840   32.6680   48.6670 C   0  0  0  0  0  0  0  0  0  0  0  0
   62.5960   31.9860   47.4540 C   0  0  0  0  0  0  0  0  0  0  0  0
   61.2220   31.6460   47.6660 O   0  0  0  0  0  0  0  0  0  0  0  0
   60.4380   30.8300   46.8290 C   0  0  0  0  0  0  0  0  0  0  0  0
   60.9340   29.6220   46.3060 C   0  0  0  0  0  0  0  0  0  0  0  0
   60.1540   28.8320   45.4640 C   0  0  0  0  0  0  0  0  0  0  0  0
   58.8620   29.2390   45.1010 C   0  0  0  0  0  0  0  0  0  0  0  0
   58.0450   28.4790   44.2300 C   0  0  0  0  0  0  0  0  0  0  0  0
   58.5020   27.1680   43.6450 C   0  0  0  0  0  0  0  0  0  0  0  0
   56.7750   28.9690   43.9010 C   0  0  0  0  0  0  0  0  0  0  0  0
   56.3520   30.1840   44.4350 C   0  0  0  0  0  0  0  0  0  0  0  0
   55.2130   30.6370   44.1430 O   0  0  0  0  0  0  0  0  0  0  0  0
   57.1400   30.8700   45.2520 O   0  0  0  0  0  0  0  0  0  0  0  0
   58.3530   30.4590   45.6110 C   0  0  0  0  0  0  0  0  0  0  0  0
   59.1280   31.2440   46.4950 C   0  0  0  0  0  0  0  0  0  0  0  0
   58.5690   32.5550   47.0420 C   0  0  0  0  0  0  0  0  0  0  0  0
   59.5020   33.7080   46.9510 N   0  0  0  0  0  0  0  0  0  0  0  0
   58.8960   34.9610   47.4250 C   0  0  0  0  0  0  0  0  0  0  0  0
   60.0640   33.8810   45.6000 C   0  0  0  0  0  0  0  0  0  0  0  0
   60.3710   33.5673   51.1633 H   0  0  0  0  0  0  0  0  0  0  0  0
   59.2244   34.2935   49.9866 H   0  0  0  0  0  0  0  0  0  0  0  0
   59.5080   32.5198   49.9866 H   0  0  0  0  0  0  0  0  0  0  0  0
   62.3973   34.7585   51.2746 H   0  0  0  0  0  0  0  0  0  0  0  0
   64.8059   34.3796   51.7831 H   0  0  0  0  0  0  0  0  0  0  0  0
   66.1727   32.8823   50.3319 H   0  0  0  0  0  0  0  0  0  0  0  0
   65.1384   31.7748   48.3559 H   0  0  0  0  0  0  0  0  0  0  0  0
   62.6687   32.6640   46.5908 H   0  0  0  0  0  0  0  0  0  0  0  0
   63.1592   31.0595   47.2684 H   0  0  0  0  0  0  0  0  0  0  0  0
   61.9522   29.2964   46.5655 H   0  0  0  0  0  0  0  0  0  0  0  0
   60.5547   27.8818   45.0811 H   0  0  0  0  0  0  0  0  0  0  0  0
   58.7458   26.4687   44.4583 H   0  0  0  0  0  0  0  0  0  0  0  0
   57.6989   26.7434   43.0248 H   0  0  0  0  0  0  0  0  0  0  0  0
   59.3950   27.3347   43.0248 H   0  0  0  0  0  0  0  0  0  0  0  0
   56.1177   28.3998   43.2272 H   0  0  0  0  0  0  0  0  0  0  0  0
   57.6593   32.8035   46.4757 H   0  0  0  0  0  0  0  0  0  0  0  0
   58.3776   32.3911   48.1127 H   0  0  0  0  0  0  0  0  0  0  0  0
   60.3070   33.4970   47.5890 H   0  0  0  0  0  0  0  0  0  0  0  0
   58.8904   34.9725   48.5249 H   0  0  0  0  0  0  0  0  0  0  0  0
   59.4806   35.8150   47.0523 H   0  0  0  0  0  0  0  0  0  0  0  0
   57.8635   35.0329   47.0523 H   0  0  0  0  0  0  0  0  0  0  0  0
   61.1127   34.2038   45.6777 H   0  0  0  0  0  0  0  0  0  0  0  0
   60.0137   32.9258   45.0569 H   0  0  0  0  0  0  0  0  0  0  0  0
   59.4852   34.6426   45.0569 H   0  0  0  0  0  0  0  0  0  0  0  0
  1  2  1  0
  2  3  1  0
  3  4  2  0
  4  5  1  0
  5  6  2  0
  6  7  1  0
  7  8  2  0
  8  9  1  0
  9 10  1  0
 10 11  1  0
 11 12  2  0
 12 13  1  0
 13 14  2  0
 14 15  1  0
 15 16  1  0
 15 17  2  0
 17 18  1  0
 18 19  2  0
 18 20  1  0
 20 21  1  0
 21 22  2  0
 22 23  1  0
 23 24  1  0
 24 25  1  0
 24 26  1  0
  8  3  1  0
 22 11  1  0
 21 14  1  0
  1 27  1  0
  1 28  1  0
  1 29  1  0
  4 30  1  0
  5 31  1  0
  6 32  1  0
  7 33  1  0
  9 34  1  0
  9 35  1  0
 12 36  1  0
 13 37  1  0
 16 38  1  0
 16 39  1  0
 16 40  1  0
 17 41  1  0
 23 42  1  0
 23 43  1  0
 24 44  1  0
 25 45  1  0
 25 46  1  0
 25 47  1  0
 26 48  1  0
 26 49  1  0
 26 50  1  0
M  CHG  1  24   1
M  END
>  <UniqueID>  (13) 
13

>  <SMILES>  (13) 
COc1ccccc1COc1ccc2c(C)cc(=O)oc2c1C[NH+](C)C

>  <Energy>  (13) 
60.230390052207994

>  <Genealogy>  (13) 
COc1ccccc1COc1ccc2c(C)cc(=O)oc2c1C[NH+](C)C (protonated)
COc1ccccc1COc1ccc2c(C)cc(=O)oc2c1C[NH+](C)C (3D coordinates assigned)
COc1ccccc1COc1ccc2c(C)cc(=O)oc2c1C[NH+](C)C (optimized conformer: 60.230390052207994 kcal/mol)

>  <smiles>  (13) 
COc1ccccc1COc1ccc2c(C)cc(=O)oc2c1CN(C)C

>  <score_type>  (13) 
oracle

>  <origin>  (13) 
adg

>  <m_score__min__energy>  (13) 
-6.0899999999999999

>  <m_primary>  (13) 
energy

$$$$
13:0
     RDKit          3D

 53 55  0  0  0  0  0  0  0  0999 V2000
   65.3630   33.0000   49.7310 C   0  0  0  0  0  0  0  0  0  0  0  0
   64.0750   32.2500   49.3650 C   0  0  0  0  0  0  0  0  0  0  0  0
   63.7650   32.3150   47.9090 N   0  0  0  0  0  0  0  0  0  0  0  0
   63.5440   33.7180   47.4700 C   0  0  0  0  0  0  0  0  0  0  0  0
   62.4460   33.8330   46.4030 C   0  0  0  0  0  0  0  0  0  0  0  0
   62.6880   31.3590   47.5010 C   0  0  0  0  0  0  0  0  0  0  0  0
   61.4180   31.2720   48.3930 C   0  0  0  0  0  0  0  0  0  0  0  0
   60.5870   29.9870   48.2810 C   0  0  0  0  0  0  0  0  0  0  0  0
   59.1790   30.2760   47.9950 N   0  0  0  0  0  0  0  0  0  0  0  0
   58.6970   30.4050   46.6440 C   0  0  0  0  0  0  0  0  0  0  0  0
   58.5200   31.6780   46.0720 C   0  0  0  0  0  0  0  0  0  0  0  0
   58.7580   32.8500   46.8220 C   0  0  0  0  0  0  0  0  0  0  0  0
   58.6480   34.1080   46.2330 C   0  0  0  0  0  0  0  0  0  0  0  0
   58.3060   34.2200   44.8910 C   0  0  0  0  0  0  0  0  0  0  0  0
   58.0290   33.0780   44.1400 C   0  0  0  0  0  0  0  0  0  0  0  0
   58.0820   31.7860   44.7240 C   0  0  0  0  0  0  0  0  0  0  0  0
   57.7300   30.6520   44.0150 N   0  0  0  0  0  0  0  0  0  0  0  0
   57.0100   30.7780   42.7270 C   0  0  0  0  0  0  0  0  0  0  0  0
   58.0160   29.3990   44.5250 C   0  0  0  0  0  0  0  0  0  0  0  0
   57.8990   28.2270   43.7340 C   0  0  0  0  0  0  0  0  0  0  0  0
   58.1390   26.9640   44.2750 C   0  0  0  0  0  0  0  0  0  0  0  0
   58.5110   26.8340   45.6080 C   0  0  0  0  0  0  0  0  0  0  0  0
   58.7370   25.6040   46.1300 F   0  0  0  0  0  0  0  0  0  0  0  0
   58.6790   27.9690   46.3980 C   0  0  0  0  0  0  0  0  0  0  0  0
   58.4590   29.2580   45.8680 C   0  0  0  0  0  0  0  0  0  0  0  0
   65.4570   33.0547   50.8256 H   0  0  0  0  0  0  0  0  0  0  0  0
   66.2295   32.4653   49.3149 H   0  0  0  0  0  0  0  0  0  0  0  0
   65.3256   34.0176   49.3149 H   0  0  0  0  0  0  0  0  0  0  0  0
   64.1883   31.1946   49.6538 H   0  0  0  0  0  0  0  0  0  0  0  0
   63.2456   32.7325   49.9029 H   0  0  0  0  0  0  0  0  0  0  0  0
   64.6360   32.0020   47.4140 H   0  0  0  0  0  0  0  0  0  0  0  0
   63.2517   34.3193   48.3435 H   0  0  0  0  0  0  0  0  0  0  0  0
   64.4822   34.0813   47.0253 H   0  0  0  0  0  0  0  0  0  0  0  0
   61.4670   33.9355   46.8939 H   0  0  0  0  0  0  0  0  0  0  0  0
   62.6357   34.7162   45.7753 H   0  0  0  0  0  0  0  0  0  0  0  0
   62.4486   32.9297   45.7753 H   0  0  0  0  0  0  0  0  0  0  0  0
   62.3601   31.6462   46.4910 H   0  0  0  0  0  0  0  0  0  0  0  0
   63.1535   30.3659   47.5854 H   0  0  0  0  0  0  0  0  0  0  0  0
   61.7383   31.3721   49.4405 H   0  0  0  0  0  0  0  0  0  0  0  0
   60.7577   32.0766   48.0371 H   0  0  0  0  0  0  0  0  0  0  0  0
   60.9959   29.3675   47.4692 H   0  0  0  0  0  0  0  0  0  0  0  0
   60.6401   29.4589   49.2445 H   0  0  0  0  0  0  0  0  0  0  0  0
   58.4810   30.2510   48.7700 H   0  0  0  0  0  0  0  0  0  0  0  0
   59.0335   32.7692   47.8839 H   0  0  0  0  0  0  0  0  0  0  0  0
   58.8320   35.0129   46.8308 H   0  0  0  0  0  0  0  0  0  0  0  0
   58.2536   35.2124   44.4195 H   0  0  0  0  0  0  0  0  0  0  0  0
   57.7650   33.1806   43.0771 H   0  0  0  0  0  0  0  0  0  0  0  0
   55.9433   30.9647   42.9200 H   0  0  0  0  0  0  0  0  0  0  0  0
   57.4308   31.6162   42.1522 H   0  0  0  0  0  0  0  0  0  0  0  0
   57.1211   29.8468   42.1522 H   0  0  0  0  0  0  0  0  0  0  0  0
   57.6140   28.3160   42.6753 H   0  0  0  0  0  0  0  0  0  0  0  0
   58.0336   26.0684   43.6451 H   0  0  0  0  0  0  0  0  0  0  0  0
   58.9871   27.8589   47.4482 H   0  0  0  0  0  0  0  0  0  0  0  0
  1  2  1  0
  2  3  1  0
  3  4  1  0
  4  5  1  0
  3  6  1  0
  6  7  1  0
  7  8  1  0
  8  9  1  0
  9 10  1  0
 10 11  2  0
 11 12  1  0
 12 13  2  0
 13 14  1  0
 14 15  2  0
 15 16  1  0
 16 17  2  0
 17 18  1  0
 17 19  1  0
 19 20  2  0
 20 21  1  0
 21 22  2  0
 22 23  1  0
 22 24  1  0
 24 25  2  0
 25 10  1  0
 16 11  1  0
 25 19  1  0
  1 26  1  0
  1 27  1  0
  1 28  1  0
  2 29  1  0
  2 30  1  0
  3 31  1  0
  4 32  1  0
  4 33  1  0
  5 34  1  0
  5 35  1  0
  5 36  1  0
  6 37  1  0
  6 38  1  0
  7 39  1  0
  7 40  1  0
  8 41  1  0
  8 42  1  0
  9 43  1  0
 12 44  1  0
 13 45  1  0
 14 46  1  0
 15 47  1  0
 18 48  1  0
 18 49  1  0
 18 50  1  0
 20 51  1  0
 21 52  1  0
 24 53  1  0
M  CHG  2   3   1  17   1
M  END
>  <UniqueID>  (14) 
14

>  <SMILES>  (14) 
CC[NH+](CC)CCCNc1c2ccccc2[n+](C)c2ccc(F)cc12

>  <Energy>  (14) 
87.38766410073892

>  <Genealogy>  (14) 
CC[NH+](CC)CCCNc1c2ccccc2[n+](C)c2ccc(F)cc12 (protonated)
CC[NH+](CC)CCCNc1c2ccccc2[n+](C)c2ccc(F)cc12 (3D coordinates assigned)
CC[NH+](CC)CCCNc1c2ccccc2[n+](C)c2ccc(F)cc12 (optimized conformer: 87.38766410073892 kcal/mol)

>  <smiles>  (14) 
CCN(CC)CCCNc1c2ccccc2[n+](C)c2ccc(F)cc12

>  <score_type>  (14) 
oracle

>  <origin>  (14) 
adg

>  <m_score__min__energy>  (14) 
-4.7199999999999998

>  <m_primary>  (14) 
energy

$$$$
14:0
     RDKit          3D

 54 57  0  0  0  0  0  0  0  0999 V2000
   57.5340   32.3490   51.9550 C   0  0  0  0  0  0  0  0  0  0  0  0
   58.0140   31.2340   51.0720 C   0  0  0  0  0  0  0  0  0  0  0  0
   57.5170   30.0860   51.2380 O   0  0  0  0  0  0  0  0  0  0  0  0
   59.0250   31.4510   50.0600 N   0  0  0  0  0  0  0  0  0  0  0  0
   60.0170   30.3880   49.7850 C   0  0  0  0  0  0  0  0  0  0  0  0
   61.4030   30.9770   49.4860 C   0  0  0  0  0  0  0  0  0  0  0  0
   61.2760   32.0640   48.4690 C   0  0  0  0  0  0  0  0  0  0  0  0
   60.1280   32.7960   48.3070 C   0  0  0  0  0  0  0  0  0  0  0  0
   60.4200   33.8060   47.4000 C   0  0  0  0  0  0  0  0  0  0  0  0
   59.4980   34.9110   46.9380 C   0  0  0  0  0  0  0  0  0  0  0  0
   58.5210   34.4860   45.9080 N   0  0  0  0  0  0  0  0  0  0  0  0
   57.4170   33.6360   46.4120 C   0  0  0  0  0  0  0  0  0  0  0  0
   57.5550   32.1830   45.9370 C   0  0  0  0  0  0  0  0  0  0  0  0
   57.5350   32.0890   44.4580 N   0  0  0  0  0  0  0  0  0  0  0  0
   58.1400   30.8170   44.0140 C   0  0  0  0  0  0  0  0  0  0  0  0
   58.5880   30.0080   45.1960 C   0  0  0  0  0  0  0  0  0  0  0  0
   59.8960   30.0440   45.7070 C   0  0  0  0  0  0  0  0  0  0  0  0
   60.0870   29.2110   46.7990 C   0  0  0  0  0  0  0  0  0  0  0  0
   58.6310   28.4350   47.1250 S   0  0  0  0  0  0  0  0  0  0  0  0
   57.7450   29.1440   45.8860 C   0  0  0  0  0  0  0  0  0  0  0  0
   58.1420   33.2650   43.7790 C   0  0  0  0  0  0  0  0  0  0  0  0
   59.1590   33.9940   44.6680 C   0  0  0  0  0  0  0  0  0  0  0  0
   61.7640   33.6580   47.0830 C   0  0  0  0  0  0  0  0  0  0  0  0
   62.2740   32.5880   47.7300 N   0  0  0  0  0  0  0  0  0  0  0  0
   63.6720   32.1670   47.7220 C   0  0  0  0  0  0  0  0  0  0  0  0
   58.8920   32.6020   49.1390 C   0  0  0  0  0  0  0  0  0  0  0  0
   57.6580   32.0610   53.0094 H   0  0  0  0  0  0  0  0  0  0  0  0
   58.1211   33.2567   51.7513 H   0  0  0  0  0  0  0  0  0  0  0  0
   56.4712   32.5464   51.7513 H   0  0  0  0  0  0  0  0  0  0  0  0
   60.0898   29.7307   50.6640 H   0  0  0  0  0  0  0  0  0  0  0  0
   59.6832   29.8240   48.9015 H   0  0  0  0  0  0  0  0  0  0  0  0
   61.8330   31.3891   50.4108 H   0  0  0  0  0  0  0  0  0  0  0  0
   62.0600   30.1859   49.0955 H   0  0  0  0  0  0  0  0  0  0  0  0
   58.9415   35.2850   47.8100 H   0  0  0  0  0  0  0  0  0  0  0  0
   60.1312   35.6840   46.4781 H   0  0  0  0  0  0  0  0  0  0  0  0
   57.4274   33.6537   47.5118 H   0  0  0  0  0  0  0  0  0  0  0  0
   56.4705   34.0360   46.0195 H   0  0  0  0  0  0  0  0  0  0  0  0
   58.5068   31.7749   46.3079 H   0  0  0  0  0  0  0  0  0  0  0  0
   56.7024   31.6098   46.3301 H   0  0  0  0  0  0  0  0  0  0  0  0
   57.3962   30.2422   43.4427 H   0  0  0  0  0  0  0  0  0  0  0  0
   59.0132   31.0392   43.3830 H   0  0  0  0  0  0  0  0  0  0  0  0
   60.6922   30.6726   45.2817 H   0  0  0  0  0  0  0  0  0  0  0  0
   61.0271   29.0805   47.3551 H   0  0  0  0  0  0  0  0  0  0  0  0
   56.6847   28.9575   45.6604 H   0  0  0  0  0  0  0  0  0  0  0  0
   58.6523   32.9217   42.8670 H   0  0  0  0  0  0  0  0  0  0  0  0
   57.3325   33.9724   43.5462 H   0  0  0  0  0  0  0  0  0  0  0  0
   59.9698   33.2990   44.9318 H   0  0  0  0  0  0  0  0  0  0  0  0
   59.5565   34.8560   44.1121 H   0  0  0  0  0  0  0  0  0  0  0  0
   62.3292   34.3149   46.4055 H   0  0  0  0  0  0  0  0  0  0  0  0
   64.0285   32.0596   48.7571 H   0  0  0  0  0  0  0  0  0  0  0  0
   63.7614   31.2021   47.2015 H   0  0  0  0  0  0  0  0  0  0  0  0
   64.2794   32.9221   47.2015 H   0  0  0  0  0  0  0  0  0  0  0  0
   58.7141   33.5124   49.7301 H   0  0  0  0  0  0  0  0  0  0  0  0
   58.0504   32.4012   48.4597 H   0  0  0  0  0  0  0  0  0  0  0  0
  1  2  1  0
  2  3  2  0
  2  4  1  0
  4  5  1  0
  5  6  1  0
  6  7  1  0
  7  8  2  0
  8  9  1  0
  9 10  1  0
 10 11  1  0
 11 12  1  0
 12 13  1  0
 13 14  1  0
 14 15  1  0
 15 16  1  0
 16 17  1  0
 17 18  2  0
 18 19  1  0
 19 20  1  0
 14 21  1  0
 21 22  1  0
  9 23  2  0
 23 24  1  0
 24 25  1  0
  8 26  1  0
 26  4  1  0
 24  7  1  0
 22 11  1  0
 20 16  2  0
  1 27  1  0
  1 28  1  0
  1 29  1  0
  5 30  1  0
  5 31  1  0
  6 32  1  0
  6 33  1  0
 10 34  1  0
 10 35  1  0
 12 36  1  0
 12 37  1  0
 13 38  1  0
 13 39  1  0
 15 40  1  0
 15 41  1  0
 17 42  1  0
 18 43  1  0
 20 44  1  0
 21 45  1  0
 21 46  1  0
 22 47  1  0
 22 48  1  0
 23 49  1  0
 25 50  1  0
 25 51  1  0
 25 52  1  0
 26 53  1  0
 26 54  1  0
M  END
>  <UniqueID>  (15) 
15

>  <SMILES>  (15) 
CC(=O)N1CCc2c(c(CN3CCN(Cc4ccsc4)CC3)cn2C)C1

>  <Energy>  (15) 
123.08480545211488

>  <Genealogy>  (15) 
CC(=O)N1CCc2c(c(CN3CCN(Cc4ccsc4)CC3)cn2C)C1 (3D coordinates assigned)
CC(=O)N1CCc2c(c(CN3CCN(Cc4ccsc4)CC3)cn2C)C1 (nonaromatic ring conformer: 123.08480545211488 kcal/mol)

>  <smiles>  (15) 
CC(=O)N1CCc2c(c(CN3CCN(Cc4ccsc4)CC3)cn2C)C1

>  <score_type>  (15) 
oracle

>  <origin>  (15) 
adg

>  <m_score__min__energy>  (15) 
-8.4000000000000004

>  <m_primary>  (15) 
energy

$$$$
15:0
     RDKit          3D

 51 52  0  0  0  0  0  0  0  0999 V2000
   58.5270   31.8850   49.9050 C   0  0  0  0  0  0  0  0  0  0  0  0
   58.9700   30.7380   49.0010 C   0  0  0  0  0  0  0  0  0  0  0  0
   59.2020   31.2090   47.6300 N   0  0  0  0  0  0  0  0  0  0  0  0
   59.7350   30.1410   46.7740 C   0  0  0  0  0  0  0  0  0  0  0  0
   58.6380   29.1240   46.4260 C   0  0  0  0  0  0  0  0  0  0  0  0
   57.8010   29.5450   45.2090 C   0  0  0  0  0  0  0  0  0  0  0  0
   57.4120   30.9600   45.3040 N   0  0  0  0  0  0  0  0  0  0  0  0
   57.3720   31.5970   43.9790 C   0  0  0  0  0  0  0  0  0  0  0  0
   57.7620   33.0750   44.0840 C   0  0  0  0  0  0  0  0  0  0  0  0
   57.0470   33.7730   45.2460 C   0  0  0  0  0  0  0  0  0  0  0  0
   57.7410   33.4720   46.5110 N   0  0  0  0  0  0  0  0  0  0  0  0
   58.5540   34.6010   46.9900 C   0  0  0  0  0  0  0  0  0  0  0  0
   59.9780   34.1720   47.2320 C   0  0  0  0  0  0  0  0  0  0  0  0
   60.8240   33.8770   46.1520 C   0  0  0  0  0  0  0  0  0  0  0  0
   62.1600   33.5350   46.3710 C   0  0  0  0  0  0  0  0  0  0  0  0
   62.6710   33.4850   47.6760 C   0  0  0  0  0  0  0  0  0  0  0  0
   64.0130   33.1460   47.9080 C   0  0  0  0  0  0  0  0  0  0  0  0
   64.5100   33.1030   49.2130 C   0  0  0  0  0  0  0  0  0  0  0  0
   63.6740   33.3960   50.2940 C   0  0  0  0  0  0  0  0  0  0  0  0
   62.3360   33.7340   50.0770 C   0  0  0  0  0  0  0  0  0  0  0  0
   61.8240   33.7810   48.7710 C   0  0  0  0  0  0  0  0  0  0  0  0
   60.4830   34.1240   48.5410 C   0  0  0  0  0  0  0  0  0  0  0  0
   58.6419   31.5875   50.9578 H   0  0  0  0  0  0  0  0  0  0  0  0
   59.1477   32.7707   49.7044 H   0  0  0  0  0  0  0  0  0  0  0  0
   57.4721   32.1235   49.7044 H   0  0  0  0  0  0  0  0  0  0  0  0
   59.9020   30.3077   49.3962 H   0  0  0  0  0  0  0  0  0  0  0  0
   58.1737   29.9794   48.9812 H   0  0  0  0  0  0  0  0  0  0  0  0
   58.2760   31.4930   47.2350 H   0  0  0  0  0  0  0  0  0  0  0  0
   60.1246   30.5835   45.8453 H   0  0  0  0  0  0  0  0  0  0  0  0
   60.5387   29.6217   47.3165 H   0  0  0  0  0  0  0  0  0  0  0  0
   59.1125   28.1558   46.2083 H   0  0  0  0  0  0  0  0  0  0  0  0
   57.9591   29.0606   47.2892 H   0  0  0  0  0  0  0  0  0  0  0  0
   58.3940   29.3951   44.2947 H   0  0  0  0  0  0  0  0  0  0  0  0
   56.8889   28.9308   45.1802 H   0  0  0  0  0  0  0  0  0  0  0  0
   58.1360   31.4570   45.8740 H   0  0  0  0  0  0  0  0  0  0  0  0
   58.0766   31.0831   43.3086 H   0  0  0  0  0  0  0  0  0  0  0  0
   56.3494   31.5256   43.5799 H   0  0  0  0  0  0  0  0  0  0  0  0
   58.8485   33.1459   44.2408 H   0  0  0  0  0  0  0  0  0  0  0  0
   57.4629   33.5739   43.1504 H   0  0  0  0  0  0  0  0  0  0  0  0
   57.0504   34.8599   45.0771 H   0  0  0  0  0  0  0  0  0  0  0  0
   56.0100   33.4108   45.3050 H   0  0  0  0  0  0  0  0  0  0  0  0
   58.3940   32.6720   46.3420 H   0  0  0  0  0  0  0  0  0  0  0  0
   58.5419   35.4001   46.2342 H   0  0  0  0  0  0  0  0  0  0  0  0
   58.1296   34.9632   47.9380 H   0  0  0  0  0  0  0  0  0  0  0  0
   60.4317   33.9155   45.1250 H   0  0  0  0  0  0  0  0  0  0  0  0
   62.8138   33.3040   45.5171 H   0  0  0  0  0  0  0  0  0  0  0  0
   64.6748   32.9137   47.0607 H   0  0  0  0  0  0  0  0  0  0  0  0
   65.5627   32.8377   49.3903 H   0  0  0  0  0  0  0  0  0  0  0  0
   64.0710   33.3603   51.3193 H   0  0  0  0  0  0  0  0  0  0  0  0
   61.6824   33.9638   50.9314 H   0  0  0  0  0  0  0  0  0  0  0  0
   59.8241   34.3564   49.3906 H   0  0  0  0  0  0  0  0  0  0  0  0
  1  2  1  0
  2  3  1  0
  3  4  1  0
  4  5  1  0
  5  6  1  0
  6  7  1  0
  7  8  1  0
  8  9  1  0
  9 10  1  0
 10 11  1  0
 11 12  1  0
 12 13  1  0
 13 14  2  0
 14 15  1  0
 15 16  2  0
 16 17  1  0
 17 18  2  0
 18 19  1  0
 19 20  2  0
 20 21  1  0
 21 22  2  0
 22 13  1  0
 21 16  1  0
  1 23  1  0
  1 24  1  0
  1 25  1  0
  2 26  1  0
  2 27  1  0
  3 28  1  0
  4 29  1  0
  4 30  1  0
  5 31  1  0
  5 32  1  0
  6 33  1  0
  6 34  1  0
  7 35  1  0
  8 36  1  0
  8 37  1  0
  9 38  1  0
  9 39  1  0
 10 40  1  0
 10 41  1  0
 11 42  1  0
 12 43  1  0
 12 44  1  0
 14 45  1  0
 15 46  1  0
 17 47  1  0
 18 48  1  0
 19 49  1  0
 20 50  1  0
 22 51  1  0
M  END
>  <UniqueID>  (16) 
16

>  <SMILES>  (16) 
CCNCCCNCCCNCc1ccc2ccccc2c1

>  <Energy>  (16) 
39.42061320984983

>  <Genealogy>  (16) 
CCNCCCNCCCNCc1ccc2ccccc2c1 (3D coordinates assigned)
CCNCCCNCCCNCc1ccc2ccccc2c1 (optimized conformer: 39.42061320984983 kcal/mol)

>  <smiles>  (16) 
CCNCCCNCCCNCc1ccc2ccccc2c1

>  <score_type>  (16) 
oracle

>  <origin>  (16) 
adg

>  <m_score__min__energy>  (16) 
-6.3899999999999997

>  <m_primary>  (16) 
energy

$$$$
16:0
     RDKit          3D

 37 38  0  0  0  0  0  0  0  0999 V2000
   62.8040   32.3060   47.1340 C   0  0  0  0  0  0  0  0  0  0  0  0
   61.8150   33.3610   46.9120 C   0  0  0  0  0  0  0  0  0  0  0  0
   60.9980   34.2280   46.7290 C   0  0  0  0  0  0  0  0  0  0  0  0
   60.0080   35.2880   46.5120 C   0  0  0  0  0  0  0  0  0  0  0  0
   59.1910   34.9830   45.3820 O   0  0  0  0  0  0  0  0  0  0  0  0
   58.6420   33.7230   45.0940 C   0  0  0  0  0  0  0  0  0  0  0  0
   58.3080   32.7910   46.0970 C   0  0  0  0  0  0  0  0  0  0  0  0
   57.7670   31.5490   45.7540 C   0  0  0  0  0  0  0  0  0  0  0  0
   57.5470   31.2220   44.4090 C   0  0  0  0  0  0  0  0  0  0  0  0
   56.8860   29.6530   43.9580 S   0  0  0  0  0  0  0  0  0  0  0  0
   56.3400   29.7510   42.5610 O   0  0  0  0  0  0  0  0  0  0  0  0
   55.7630   29.2850   44.8880 O   0  0  0  0  0  0  0  0  0  0  0  0
   58.1620   28.4550   44.0280 N   0  0  0  0  0  0  0  0  0  0  0  0
   59.4380   29.0340   44.5030 C   0  0  0  0  0  0  0  0  0  0  0  0
   59.7030   28.7500   45.9930 C   0  0  0  0  0  0  0  0  0  0  0  0
   58.4880   28.7030   46.7050 O   0  0  0  0  0  0  0  0  0  0  0  0
   57.7480   27.5530   46.3340 C   0  0  0  0  0  0  0  0  0  0  0  0
   57.7560   27.2740   44.8110 C   0  0  0  0  0  0  0  0  0  0  0  0
   57.8790   32.1460   43.4110 C   0  0  0  0  0  0  0  0  0  0  0  0
   58.4200   33.3870   43.7530 C   0  0  0  0  0  0  0  0  0  0  0  0
   62.9442   32.1564   48.2147 H   0  0  0  0  0  0  0  0  0  0  0  0
   62.4504   31.3699   46.6771 H   0  0  0  0  0  0  0  0  0  0  0  0
   63.7609   32.5984   46.6771 H   0  0  0  0  0  0  0  0  0  0  0  0
   59.3721   35.3782   47.4050 H   0  0  0  0  0  0  0  0  0  0  0  0
   60.5351   36.2353   46.3256 H   0  0  0  0  0  0  0  0  0  0  0  0
   58.4740   33.0424   47.1549 H   0  0  0  0  0  0  0  0  0  0  0  0
   57.5129   30.8254   46.5425 H   0  0  0  0  0  0  0  0  0  0  0  0
   60.2604   28.6052   43.9116 H   0  0  0  0  0  0  0  0  0  0  0  0
   59.3732   30.1252   44.3798 H   0  0  0  0  0  0  0  0  0  0  0  0
   60.2194   27.7838   46.0921 H   0  0  0  0  0  0  0  0  0  0  0  0
   60.3286   29.5554   46.4052 H   0  0  0  0  0  0  0  0  0  0  0  0
   58.1784   26.6816   46.8492 H   0  0  0  0  0  0  0  0  0  0  0  0
   56.7024   27.7360   46.6224 H   0  0  0  0  0  0  0  0  0  0  0  0
   58.4599   26.4541   44.6053 H   0  0  0  0  0  0  0  0  0  0  0  0
   56.7313   27.0082   44.5122 H   0  0  0  0  0  0  0  0  0  0  0  0
   57.7130   31.8934   42.3533 H   0  0  0  0  0  0  0  0  0  0  0  0
   58.6741   34.1074   42.9615 H   0  0  0  0  0  0  0  0  0  0  0  0
  1  2  1  0
  2  3  3  0
  3  4  1  0
  4  5  1  0
  5  6  1  0
  6  7  2  0
  7  8  1  0
  8  9  2  0
  9 10  1  0
 10 11  2  0
 10 12  2  0
 10 13  1  0
 13 14  1  0
 14 15  1  0
 15 16  1  0
 16 17  1  0
 17 18  1  0
  9 19  1  0
 19 20  2  0
 20  6  1  0
 18 13  1  0
  1 21  1  0
  1 22  1  0
  1 23  1  0
  4 24  1  0
  4 25  1  0
  7 26  1  0
  8 27  1  0
 14 28  1  0
 14 29  1  0
 15 30  1  0
 15 31  1  0
 17 32  1  0
 17 33  1  0
 18 34  1  0
 18 35  1  0
 19 36  1  0
 20 37  1  0
M  END
>  <UniqueID>  (17) 
17

>  <SMILES>  (17) 
CC#CCOc1ccc(S(=O)(=O)N2CCOCC2)cc1

>  <Energy>  (17) 
41.447472133857126

>  <Genealogy>  (17) 
CC#CCOc1ccc(S(=O)(=O)N2CCOCC2)cc1 (3D coordinates assigned)
CC#CCOc1ccc(S(=O)(=O)N2CCOCC2)cc1 (nonaromatic ring conformer: 41.447472133857126 kcal/mol)

>  <smiles>  (17) 
CC#CCOc1ccc(S(=O)(=O)N2CCOCC2)cc1

>  <score_type>  (17) 
oracle

>  <origin>  (17) 
adg

>  <m_score__min__energy>  (17) 
-6.6600000000000001

>  <m_primary>  (17) 
energy

$$$$
17:0
     RDKit          3D

 51 53  0  0  0  0  0  0  0  0999 V2000
   58.0223   35.4391   46.3231 H   0  0  0  0  0  0  0  0  0  0  0  0
   58.5090   34.4900   46.5920 C   0  0  0  0  0  0  0  0  0  0  0  0
   59.9490   34.5410   46.9100 C   0  0  0  0  0  0  0  0  0  0  0  0
   60.8250   34.2170   46.0630 O   0  0  0  0  0  0  0  0  0  0  0  0
   60.3260   35.0090   48.1750 O   0  0  0  0  0  0  0  0  0  0  0  0
   60.0300   34.3400   49.3980 C   0  0  0  0  0  0  0  0  0  0  0  0
   59.0386   33.8698   49.3208 H   0  0  0  0  0  0  0  0  0  0  0  0
   60.0424   35.0771   50.2144 H   0  0  0  0  0  0  0  0  0  0  0  0
   61.0820   33.2540   49.6980 C   0  0  0  0  0  0  0  0  0  0  0  0
   60.5509   32.3556   50.0457 H   0  0  0  0  0  0  0  0  0  0  0  0
   61.7582   33.6901   50.4480 H   0  0  0  0  0  0  0  0  0  0  0  0
   61.9480   32.8590   48.5500 N   0  0  0  0  0  0  0  0  0  0  0  0
   61.4380   33.1830   47.6940 H   0  0  0  0  0  0  0  0  0  0  0  0
   62.0990   31.3810   48.4540 C   0  0  0  0  0  0  0  0  0  0  0  0
   61.3642   30.9070   49.1214 H   0  0  0  0  0  0  0  0  0  0  0  0
   63.1297   31.1302   48.7451 H   0  0  0  0  0  0  0  0  0  0  0  0
   61.8770   30.8610   47.0300 C   0  0  0  0  0  0  0  0  0  0  0  0
   61.4454   29.8501   47.0719 H   0  0  0  0  0  0  0  0  0  0  0  0
   61.1871   31.5324   46.4979 H   0  0  0  0  0  0  0  0  0  0  0  0
   62.8391   30.8272   46.4979 H   0  0  0  0  0  0  0  0  0  0  0  0
   63.2780   33.5270   48.5390 C   0  0  0  0  0  0  0  0  0  0  0  0
   63.2023   34.4649   49.1087 H   0  0  0  0  0  0  0  0  0  0  0  0
   63.9980   32.8266   48.9873 H   0  0  0  0  0  0  0  0  0  0  0  0
   63.7810   33.8540   47.1280 C   0  0  0  0  0  0  0  0  0  0  0  0
   64.7015   34.4524   47.1964 H   0  0  0  0  0  0  0  0  0  0  0  0
   63.9907   32.9191   46.5877 H   0  0  0  0  0  0  0  0  0  0  0  0
   63.0117   34.4251   46.5877 H   0  0  0  0  0  0  0  0  0  0  0  0
   57.7400   33.3920   46.6010 C   0  0  0  0  0  0  0  0  0  0  0  0
   56.6608   33.5253   46.4351 H   0  0  0  0  0  0  0  0  0  0  0  0
   58.2310   32.0230   46.8160 C   0  0  0  0  0  0  0  0  0  0  0  0
   58.6750   31.5060   48.0260 C   0  0  0  0  0  0  0  0  0  0  0  0
   58.8368   32.0543   48.9658 H   0  0  0  0  0  0  0  0  0  0  0  0
   58.8700   30.1600   47.8000 C   0  0  0  0  0  0  0  0  0  0  0  0
   59.3260   29.2020   48.7030 C   0  0  0  0  0  0  0  0  0  0  0  0
   59.5675   29.4703   49.7421 H   0  0  0  0  0  0  0  0  0  0  0  0
   59.4670   27.8850   48.2440 C   0  0  0  0  0  0  0  0  0  0  0  0
   59.8212   27.1007   48.9291 H   0  0  0  0  0  0  0  0  0  0  0  0
   59.1570   27.5630   46.9100 C   0  0  0  0  0  0  0  0  0  0  0  0
   59.3690   25.7730   46.2780 Br  0  0  0  0  0  0  0  0  0  0  0  0
   58.6990   28.5670   46.0450 C   0  0  0  0  0  0  0  0  0  0  0  0
   58.4601   28.3383   44.9959 H   0  0  0  0  0  0  0  0  0  0  0  0
   58.5560   29.8320   46.5310 N   0  0  0  0  0  0  0  0  0  0  0  0
   58.1450   30.9640   45.9150 C   0  0  0  0  0  0  0  0  0  0  0  0
   57.6870   31.0680   44.5140 C   0  0  0  0  0  0  0  0  0  0  0  0
   58.1230   32.2660   43.4150 S   0  0  0  0  0  0  0  0  0  0  0  0
   57.2690   31.6440   42.1080 C   0  0  0  0  0  0  0  0  0  0  0  0
   57.2200   32.0849   41.1014 H   0  0  0  0  0  0  0  0  0  0  0  0
   56.6360   30.4780   42.5170 C   0  0  0  0  0  0  0  0  0  0  0  0
   56.0059   29.8700   41.8512 H   0  0  0  0  0  0  0  0  0  0  0  0
   56.8750   30.1490   43.8560 C   0  0  0  0  0  0  0  0  0  0  0  0
   56.4617   29.2522   44.3408 H   0  0  0  0  0  0  0  0  0  0  0  0
  1  2  1  0
  2  3  1  0
  3  4  2  0
  3  5  1  0
  5  6  1  0
  6  7  1  0
  6  8  1  0
  6  9  1  0
  9 10  1  0
  9 11  1  0
  9 12  1  0
 12 13  1  0
 12 14  1  0
 14 15  1  0
 14 16  1  0
 14 17  1  0
 17 18  1  0
 17 19  1  0
 17 20  1  0
 12 21  1  0
 21 22  1  0
 21 23  1  0
 21 24  1  0
 24 25  1  0
 24 26  1  0
 24 27  1  0
  2 28  2  0
 28 29  1  0
 28 30  1  0
 30 31  1  0
 31 32  1  0
 31 33  2  0
 33 34  1  0
 34 35  1  0
 34 36  2  0
 36 37  1  0
 36 38  1  0
 38 39  1  0
 38 40  2  0
 40 41  1  0
 40 42  1  0
 42 43  1  0
 43 44  1  0
 44 45  1  0
 45 46  1  0
 46 47  1  0
 46 48  2  0
 48 49  1  0
 48 50  1  0
 50 51  1  0
 43 30  2  0
 50 44  2  0
 42 33  1  0
M  CHG  1  12   1
M  END
>  <UniqueID>  (18) 
18

>  <SMILES>  (18) 
CC[NH+](CC)CCOC(=O)/C=C\c1cc2ccc(Br)cn2c1-c1cccs1

>  <Energy>  (18) 
124.4512331489424

>  <Genealogy>  (18) 
CC[NH+](CC)CCOC(=O)C=Cc1cc2ccc(Br)cn2c1-c1cccs1 (protonated)
CC[NH+](CC)CCOC(=O)/C=C\c1cc2ccc(Br)cn2c1-c1cccs1 (cis-trans isomerization)
CC[NH+](CC)CCOC(=O)/C=C\c1cc2ccc(Br)cn2c1-c1cccs1 (3D coordinates assigned)
CC[NH+](CC)CCOC(=O)/C=C\c1cc2ccc(Br)cn2c1-c1cccs1 (optimized conformer: 124.4512331489424 kcal/mol)

>  <smiles>  (18) 
CCN(CC)CCOC(=O)C=Cc1cc2ccc(Br)cn2c1-c1cccs1

>  <score_type>  (18) 
oracle

>  <origin>  (18) 
adg

>  <m_score__min__energy>  (18) 
-6.5300000000000002

>  <m_primary>  (18) 
energy

$$$$
18:0
     RDKit          3D

 67 70  0  0  0  0  0  0  0  0999 V2000
   57.6940   31.4340   51.1640 C   0  0  0  0  0  0  0  0  0  0  0  0
   58.5700   31.4080   49.9110 C   0  0  0  0  0  0  0  0  0  0  0  0
   59.9820   31.7060   50.2600 N   0  0  0  0  0  0  0  0  0  0  0  0
   60.1060   33.0560   50.8590 C   0  0  0  0  0  0  0  0  0  0  0  0
   59.7160   34.1230   49.8390 C   0  0  0  0  0  0  0  0  0  0  0  0
   60.5360   30.6700   51.1620 C   0  0  0  0  0  0  0  0  0  0  0  0
   62.0530   30.8530   51.3120 C   0  0  0  0  0  0  0  0  0  0  0  0
   62.5610   31.6890   50.2900 O   0  0  0  0  0  0  0  0  0  0  0  0
   63.5370   32.5720   50.8010 C   0  0  0  0  0  0  0  0  0  0  0  0
   63.5990   33.8200   49.9250 C   0  0  0  0  0  0  0  0  0  0  0  0
   62.8380   33.6350   48.7460 O   0  0  0  0  0  0  0  0  0  0  0  0
   63.5460   32.8470   47.8120 C   0  0  0  0  0  0  0  0  0  0  0  0
   62.7220   31.6100   47.4460 C   0  0  0  0  0  0  0  0  0  0  0  0
   61.3930   31.6310   48.0860 N   0  0  0  0  0  0  0  0  0  0  0  0
   60.3580   31.5550   47.0730 C   0  0  0  0  0  0  0  0  0  0  0  0
   59.8900   32.7000   46.3730 C   0  0  0  0  0  0  0  0  0  0  0  0
   60.4040   33.9940   46.6380 C   0  0  0  0  0  0  0  0  0  0  0  0
   59.9610   35.1010   45.9190 C   0  0  0  0  0  0  0  0  0  0  0  0
   59.0150   34.9470   44.9140 C   0  0  0  0  0  0  0  0  0  0  0  0
   58.4820   33.6890   44.6340 C   0  0  0  0  0  0  0  0  0  0  0  0
   58.8800   32.5460   45.3680 C   0  0  0  0  0  0  0  0  0  0  0  0
   58.3240   31.3030   45.1130 N   0  0  0  0  0  0  0  0  0  0  0  0
   57.0270   31.2100   44.4180 C   0  0  0  0  0  0  0  0  0  0  0  0
   58.9210   30.1820   45.6440 C   0  0  0  0  0  0  0  0  0  0  0  0
   59.8760   30.3110   46.6530 C   0  0  0  0  0  0  0  0  0  0  0  0
   60.3430   28.7910   47.2200 S   0  0  0  0  0  0  0  0  0  0  0  0
   59.3770   27.9390   46.1490 C   0  0  0  0  0  0  0  0  0  0  0  0
   59.3090   26.5560   46.0130 C   0  0  0  0  0  0  0  0  0  0  0  0
   58.5340   26.0250   44.9760 C   0  0  0  0  0  0  0  0  0  0  0  0
   57.8770   26.8800   44.0790 C   0  0  0  0  0  0  0  0  0  0  0  0
   57.9580   28.2740   44.2290 C   0  0  0  0  0  0  0  0  0  0  0  0
   58.6790   28.8140   45.3140 C   0  0  0  0  0  0  0  0  0  0  0  0
   58.3334   31.4150   52.0589 H   0  0  0  0  0  0  0  0  0  0  0  0
   57.0858   32.3506   51.1673 H   0  0  0  0  0  0  0  0  0  0  0  0
   57.0326   30.5551   51.1673 H   0  0  0  0  0  0  0  0  0  0  0  0
   58.5134   30.4109   49.4499 H   0  0  0  0  0  0  0  0  0  0  0  0
   58.2079   32.1715   49.2067 H   0  0  0  0  0  0  0  0  0  0  0  0
   59.4416   33.1283   51.7327 H   0  0  0  0  0  0  0  0  0  0  0  0
   61.1496   33.2178   51.1666 H   0  0  0  0  0  0  0  0  0  0  0  0
   59.3845   35.0300   50.3657 H   0  0  0  0  0  0  0  0  0  0  0  0
   60.5848   34.3622   49.2082 H   0  0  0  0  0  0  0  0  0  0  0  0
   58.8977   33.7455   49.2082 H   0  0  0  0  0  0  0  0  0  0  0  0
   60.0602   30.7565   52.1500 H   0  0  0  0  0  0  0  0  0  0  0  0
   60.3351   29.6769   50.7338 H   0  0  0  0  0  0  0  0  0  0  0  0
   62.2664   31.3086   52.2902 H   0  0  0  0  0  0  0  0  0  0  0  0
   62.5366   29.8680   51.2351 H   0  0  0  0  0  0  0  0  0  0  0  0
   63.2708   32.8581   51.8292 H   0  0  0  0  0  0  0  0  0  0  0  0
   64.5181   32.0746   50.8023 H   0  0  0  0  0  0  0  0  0  0  0  0
   63.1960   34.6764   50.4856 H   0  0  0  0  0  0  0  0  0  0  0  0
   64.6465   34.0085   49.6470 H   0  0  0  0  0  0  0  0  0  0  0  0
   63.7374   33.4395   46.9052 H   0  0  0  0  0  0  0  0  0  0  0  0
   64.5009   32.5287   48.2556 H   0  0  0  0  0  0  0  0  0  0  0  0
   62.5915   31.5788   46.3542 H   0  0  0  0  0  0  0  0  0  0  0  0
   63.2611   30.7205   47.8040 H   0  0  0  0  0  0  0  0  0  0  0  0
   61.2700   32.4800   48.6850 H   0  0  0  0  0  0  0  0  0  0  0  0
   61.3110   30.8190   48.7420 H   0  0  0  0  0  0  0  0  0  0  0  0
   61.1636   34.1256   47.4227 H   0  0  0  0  0  0  0  0  0  0  0  0
   60.3612   36.0998   46.1475 H   0  0  0  0  0  0  0  0  0  0  0  0
   58.6842   35.8222   44.3355 H   0  0  0  0  0  0  0  0  0  0  0  0
   57.7397   33.5832   43.8291 H   0  0  0  0  0  0  0  0  0  0  0  0
   56.2168   31.1519   45.1598 H   0  0  0  0  0  0  0  0  0  0  0  0
   56.8840   32.1002   43.7878 H   0  0  0  0  0  0  0  0  0  0  0  0
   57.0125   30.3085   43.7878 H   0  0  0  0  0  0  0  0  0  0  0  0
   59.8520   25.8952   46.7048 H   0  0  0  0  0  0  0  0  0  0  0  0
   58.4398   24.9348   44.8640 H   0  0  0  0  0  0  0  0  0  0  0  0
   57.2926   26.4545   43.2499 H   0  0  0  0  0  0  0  0  0  0  0  0
   57.4631   28.9392   43.5061 H   0  0  0  0  0  0  0  0  0  0  0  0
  1  2  1  0
  2  3  1  0
  3  4  1  0
  4  5  1  0
  3  6  1  0
  6  7  1  0
  7  8  1  0
  8  9  1  0
  9 10  1  0
 10 11  1  0
 11 12  1  0
 12 13  1  0
 13 14  1  0
 14 15  1  0
 15 16  2  0
 16 17  1  0
 17 18  2  0
 18 19  1  0
 19 20  2  0
 20 21  1  0
 21 22  2  0
 22 23  1  0
 22 24  1  0
 24 25  2  0
 25 26  1  0
 26 27  1  0
 27 28  2  0
 28 29  1  0
 29 30  2  0
 30 31  1  0
 31 32  2  0
 25 15  1  0
 32 27  1  0
 21 16  1  0
 32 24  1  0
  1 33  1  0
  1 34  1  0
  1 35  1  0
  2 36  1  0
  2 37  1  0
  4 38  1  0
  4 39  1  0
  5 40  1  0
  5 41  1  0
  5 42  1  0
  6 43  1  0
  6 44  1  0
  7 45  1  0
  7 46  1  0
  9 47  1  0
  9 48  1  0
 10 49  1  0
 10 50  1  0
 12 51  1  0
 12 52  1  0
 13 53  1  0
 13 54  1  0
 14 55  1  0
 14 56  1  0
 17 57  1  0
 18 58  1  0
 19 59  1  0
 20 60  1  0
 23 61  1  0
 23 62  1  0
 23 63  1  0
 28 64  1  0
 29 65  1  0
 30 66  1  0
 31 67  1  0
M  CHG  2  14   1  22   1
M  END
>  <UniqueID>  (19) 
19

>  <SMILES>  (19) 
CCN(CC)CCOCCOCC[NH2+]c1c2ccccc2[n+](C)c2c1sc1ccccc12

>  <Energy>  (19) 
126.49285695003928

>  <Genealogy>  (19) 
CCN(CC)CCOCCOCC[NH2+]c1c2ccccc2[n+](C)c2c1sc1ccccc12 (protonated)
CCN(CC)CCOCCOCC[NH2+]c1c2ccccc2[n+](C)c2c1sc1ccccc12 (3D coordinates assigned)
CCN(CC)CCOCCOCC[NH2+]c1c2ccccc2[n+](C)c2c1sc1ccccc12 (optimized conformer: 126.49285695003928 kcal/mol)

>  <smiles>  (19) 
CCN(CC)CCOCCOCCNc1c2ccccc2[n+](C)c2c1sc1ccccc12

>  <score_type>  (19) 
oracle

>  <origin>  (19) 
adg

>  <m_score__min__energy>  (19) 
-5.1900000000000004

>  <m_primary>  (19) 
energy

$$$$
19:0
     RDKit          3D

 52 55  0  0  0  0  0  0  0  0999 V2000
   59.9960   34.1890   49.6780 C   0  0  0  0  0  0  0  0  0  0  0  0
   59.4150   33.0460   50.5050 C   0  0  0  0  0  0  0  0  0  0  0  0
   59.5170   31.7680   49.7880 N   0  0  0  0  0  0  0  0  0  0  0  0
   58.8350   30.6620   50.4860 C   0  0  0  0  0  0  0  0  0  0  0  0
   59.2600   29.3040   49.8950 C   0  0  0  0  0  0  0  0  0  0  0  0
   60.3660   29.4150   48.9190 N   0  0  0  0  0  0  0  0  0  0  0  0
   59.8880   29.5520   47.5460 C   0  0  0  0  0  0  0  0  0  0  0  0
   59.0360   28.5650   46.9900 C   0  0  0  0  0  0  0  0  0  0  0  0
   59.0300   27.2420   47.4870 C   0  0  0  0  0  0  0  0  0  0  0  0
   58.1440   26.2920   46.9870 C   0  0  0  0  0  0  0  0  0  0  0  0
   57.2410   26.6400   45.9940 C   0  0  0  0  0  0  0  0  0  0  0  0
   57.2360   27.9320   45.4740 C   0  0  0  0  0  0  0  0  0  0  0  0
   58.1570   28.9120   45.9270 C   0  0  0  0  0  0  0  0  0  0  0  0
   58.1720   30.1910   45.4010 N   0  0  0  0  0  0  0  0  0  0  0  0
   57.3610   30.5080   44.2040 C   0  0  0  0  0  0  0  0  0  0  0  0
   58.9970   31.1550   45.9480 C   0  0  0  0  0  0  0  0  0  0  0  0
   58.8310   32.5260   45.6530 C   0  0  0  0  0  0  0  0  0  0  0  0
   59.7430   33.4900   46.0960 C   0  0  0  0  0  0  0  0  0  0  0  0
   59.4690   34.8790   45.8500 N   0  0  0  0  0  0  0  0  0  0  0  0
   59.6040   35.7190   46.7650 O   0  0  0  0  0  0  0  0  0  0  0  0
   59.2880   35.3270   44.5610 O   0  0  0  0  0  0  0  0  0  0  0  0
   60.9340   33.0700   46.7250 C   0  0  0  0  0  0  0  0  0  0  0  0
   62.0000   33.9680   46.9470 C   0  0  0  0  0  0  0  0  0  0  0  0
   63.2170   33.5130   47.4530 C   0  0  0  0  0  0  0  0  0  0  0  0
   63.4060   32.1590   47.7040 C   0  0  0  0  0  0  0  0  0  0  0  0
   62.3660   31.2550   47.4910 C   0  0  0  0  0  0  0  0  0  0  0  0
   61.0910   31.7000   47.0730 C   0  0  0  0  0  0  0  0  0  0  0  0
   60.0140   30.7920   46.8620 C   0  0  0  0  0  0  0  0  0  0  0  0
   60.3903   34.9648   50.3508 H   0  0  0  0  0  0  0  0  0  0  0  0
   60.8089   33.8062   49.0435 H   0  0  0  0  0  0  0  0  0  0  0  0
   59.2076   34.6201   49.0435 H   0  0  0  0  0  0  0  0  0  0  0  0
   59.9684   32.9712   51.4527 H   0  0  0  0  0  0  0  0  0  0  0  0
   58.3519   33.2567   50.6930 H   0  0  0  0  0  0  0  0  0  0  0  0
   59.0600   31.8960   48.8540 H   0  0  0  0  0  0  0  0  0  0  0  0
   59.0994   30.6904   51.5534 H   0  0  0  0  0  0  0  0  0  0  0  0
   57.7486   30.7793   50.3599 H   0  0  0  0  0  0  0  0  0  0  0  0
   59.5841   28.6503   50.7182 H   0  0  0  0  0  0  0  0  0  0  0  0
   58.3910   28.8935   49.3598 H   0  0  0  0  0  0  0  0  0  0  0  0
   60.9930   28.5840   48.9990 H   0  0  0  0  0  0  0  0  0  0  0  0
   60.9360   30.2240   49.2350 H   0  0  0  0  0  0  0  0  0  0  0  0
   59.7364   26.9587   48.2812 H   0  0  0  0  0  0  0  0  0  0  0  0
   58.1602   25.2647   47.3798 H   0  0  0  0  0  0  0  0  0  0  0  0
   56.5267   25.8937   45.6160 H   0  0  0  0  0  0  0  0  0  0  0  0
   56.5040   28.1979   44.6972 H   0  0  0  0  0  0  0  0  0  0  0  0
   56.3790   30.8918   44.5176 H   0  0  0  0  0  0  0  0  0  0  0  0
   57.8776   31.2704   43.6024 H   0  0  0  0  0  0  0  0  0  0  0  0
   57.2237   29.5974   43.6024 H   0  0  0  0  0  0  0  0  0  0  0  0
   57.9616   32.8444   45.0591 H   0  0  0  0  0  0  0  0  0  0  0  0
   61.8696   35.0361   46.7188 H   0  0  0  0  0  0  0  0  0  0  0  0
   64.0292   34.2271   47.6540 H   0  0  0  0  0  0  0  0  0  0  0  0
   64.3785   31.7997   48.0716 H   0  0  0  0  0  0  0  0  0  0  0  0
   62.5401   30.1806   47.6504 H   0  0  0  0  0  0  0  0  0  0  0  0
  1  2  1  0
  2  3  1  0
  3  4  1  0
  4  5  1  0
  5  6  1  0
  6  7  1  0
  7  8  2  0
  8  9  1  0
  9 10  2  0
 10 11  1  0
 11 12  2  0
 12 13  1  0
 13 14  2  0
 14 15  1  0
 14 16  1  0
 16 17  2  0
 17 18  1  0
 18 19  1  0
 19 20  2  0
 19 21  1  0
 18 22  2  0
 22 23  1  0
 23 24  2  0
 24 25  1  0
 25 26  2  0
 26 27  1  0
 27 28  2  0
 28  7  1  0
 13  8  1  0
 28 16  1  0
 27 22  1  0
  1 29  1  0
  1 30  1  0
  1 31  1  0
  2 32  1  0
  2 33  1  0
  3 34  1  0
  4 35  1  0
  4 36  1  0
  5 37  1  0
  5 38  1  0
  6 39  1  0
  6 40  1  0
  9 41  1  0
 10 42  1  0
 11 43  1  0
 12 44  1  0
 15 45  1  0
 15 46  1  0
 15 47  1  0
 17 48  1  0
 23 49  1  0
 24 50  1  0
 25 51  1  0
 26 52  1  0
M  CHG  4   6   1  14   1  19   1  21  -1
M  END
>  <UniqueID>  (20) 
20

>  <SMILES>  (20) 
CCNCC[NH2+]c1c2ccccc2[n+](C)c2cc([N+](=O)[O-])c3ccccc3c12

>  <Energy>  (20) 
107.85557863459914

>  <Genealogy>  (20) 
CCNCC[NH2+]c1c2ccccc2[n+](C)c2cc([N+](=O)[O-])c3ccccc3c12 (protonated)
CCNCC[NH2+]c1c2ccccc2[n+](C)c2cc([N+](=O)[O-])c3ccccc3c12 (3D coordinates assigned)
CCNCC[NH2+]c1c2ccccc2[n+](C)c2cc([N+](=O)[O-])c3ccccc3c12 (optimized conformer: 107.85557863459914 kcal/mol)

>  <smiles>  (20) 
CCNCCNc1c2ccccc2[n+](C)c2cc([N+](=O)[O-])c3ccccc3c12

>  <score_type>  (20) 
oracle

>  <origin>  (20) 
adg

>  <m_score__min__energy>  (20) 
-5.7000000000000002

>  <m_primary>  (20) 
energy

$$$$
20:0
     RDKit          3D

 27 28  0  0  0  0  0  0  0  0999 V2000
   63.4350   33.4210   47.1260 C   0  0  0  0  0  0  0  0  0  0  0  0
   62.6180   32.1860   47.4890 C   0  0  0  0  0  0  0  0  0  0  0  0
   61.2490   32.5520   47.8590 N   0  0  0  0  0  0  0  0  0  0  0  0
   60.3450   33.1920   46.9360 C   0  0  0  0  0  0  0  0  0  0  0  0
   60.4170   34.5850   46.7450 C   0  0  0  0  0  0  0  0  0  0  0  0
   59.5180   35.2400   45.9060 C   0  0  0  0  0  0  0  0  0  0  0  0
   58.5260   34.5240   45.2410 C   0  0  0  0  0  0  0  0  0  0  0  0
   58.4340   33.1350   45.3960 C   0  0  0  0  0  0  0  0  0  0  0  0
   57.4420   32.4190   44.7080 C   0  0  0  0  0  0  0  0  0  0  0  0
   57.3570   31.0290   44.8340 C   0  0  0  0  0  0  0  0  0  0  0  0
   56.3390   30.3020   44.1230 C   0  0  0  0  0  0  0  0  0  0  0  0
   55.5190   29.7170   43.5510 N   0  0  0  0  0  0  0  0  0  0  0  0
   58.2700   30.3470   45.6400 C   0  0  0  0  0  0  0  0  0  0  0  0
   59.2620   31.0440   46.3330 C   0  0  0  0  0  0  0  0  0  0  0  0
   59.3520   32.4510   46.2410 C   0  0  0  0  0  0  0  0  0  0  0  0
   63.7677   33.9239   48.0460 H   0  0  0  0  0  0  0  0  0  0  0  0
   64.3124   33.1195   46.5351 H   0  0  0  0  0  0  0  0  0  0  0  0
   62.8143   34.1106   46.5351 H   0  0  0  0  0  0  0  0  0  0  0  0
   62.5875   31.5078   46.6235 H   0  0  0  0  0  0  0  0  0  0  0  0
   63.0932   31.6921   48.3493 H   0  0  0  0  0  0  0  0  0  0  0  0
   60.9230   32.3380   48.8280 H   0  0  0  0  0  0  0  0  0  0  0  0
   61.1939   35.1643   47.2654 H   0  0  0  0  0  0  0  0  0  0  0  0
   59.5923   36.3288   45.7682 H   0  0  0  0  0  0  0  0  0  0  0  0
   57.8118   35.0513   44.5914 H   0  0  0  0  0  0  0  0  0  0  0  0
   56.7272   32.9545   44.0659 H   0  0  0  0  0  0  0  0  0  0  0  0
   58.2076   29.2525   45.7300 H   0  0  0  0  0  0  0  0  0  0  0  0
   59.9805   30.4921   46.9568 H   0  0  0  0  0  0  0  0  0  0  0  0
  1  2  1  0
  2  3  1  0
  3  4  1  0
  4  5  2  0
  5  6  1  0
  6  7  2  0
  7  8  1  0
  8  9  2  0
  9 10  1  0
 10 11  1  0
 11 12  3  0
 10 13  2  0
 13 14  1  0
 14 15  2  0
 15  4  1  0
 15  8  1  0
  1 16  1  0
  1 17  1  0
  1 18  1  0
  2 19  1  0
  2 20  1  0
  3 21  1  0
  5 22  1  0
  6 23  1  0
  7 24  1  0
  9 25  1  0
 13 26  1  0
 14 27  1  0
M  END
>  <UniqueID>  (21) 
21

>  <SMILES>  (21) 
CCNc1cccc2cc(C#N)ccc12

>  <Energy>  (21) 
30.851398832026806

>  <Genealogy>  (21) 
CCNc1cccc2cc(C#N)ccc12 (3D coordinates assigned)
CCNc1cccc2cc(C#N)ccc12 (optimized conformer: 30.851398832026806 kcal/mol)

>  <smiles>  (21) 
CCNc1cccc2cc(C#N)ccc12

>  <score_type>  (21) 
oracle

>  <origin>  (21) 
adg

>  <m_score__min__energy>  (21) 
-6.0999999999999996

>  <m_primary>  (21) 
energy

$$$$
21:0
     RDKit          3D

 59 62  0  0  0  0  0  0  0  0999 V2000
   60.7770   27.3910   50.1420 C   0  0  0  0  0  0  0  0  0  0  0  0
   61.4730   28.5630   50.8480 C   0  0  0  0  0  0  0  0  0  0  0  0
   61.2810   29.8710   50.1780 N   0  0  0  0  0  0  0  0  0  0  0  0
   62.3540   30.8290   50.5040 C   0  0  0  0  0  0  0  0  0  0  0  0
   59.9320   30.4360   50.4120 C   0  0  0  0  0  0  0  0  0  0  0  0
   59.0170   30.2270   49.2010 C   0  0  0  0  0  0  0  0  0  0  0  0
   59.7880   29.7820   48.0390 N   0  0  0  0  0  0  0  0  0  0  0  0
   59.1900   29.6780   46.7360 C   0  0  0  0  0  0  0  0  0  0  0  0
   58.8110   28.4070   46.2620 C   0  0  0  0  0  0  0  0  0  0  0  0
   59.1860   27.2350   46.9550 C   0  0  0  0  0  0  0  0  0  0  0  0
   58.7830   25.9800   46.5090 C   0  0  0  0  0  0  0  0  0  0  0  0
   57.9820   25.8530   45.3780 C   0  0  0  0  0  0  0  0  0  0  0  0
   57.5870   24.5640   44.9890 O   0  0  0  0  0  0  0  0  0  0  0  0
   57.0230   24.2420   43.7240 C   0  0  0  0  0  0  0  0  0  0  0  0
   57.5940   27.0080   44.6790 C   0  0  0  0  0  0  0  0  0  0  0  0
   58.0200   28.3000   45.0900 C   0  0  0  0  0  0  0  0  0  0  0  0
   57.6370   29.4390   44.4090 N   0  0  0  0  0  0  0  0  0  0  0  0
   57.0040   29.3250   43.0750 C   0  0  0  0  0  0  0  0  0  0  0  0
   57.8770   30.6870   44.9510 C   0  0  0  0  0  0  0  0  0  0  0  0
   57.1910   31.8320   44.4810 C   0  0  0  0  0  0  0  0  0  0  0  0
   57.4860   33.1000   44.9640 C   0  0  0  0  0  0  0  0  0  0  0  0
   58.5340   33.2840   45.8640 C   0  0  0  0  0  0  0  0  0  0  0  0
   58.9010   34.5860   46.2420 C   0  0  0  0  0  0  0  0  0  0  0  0
   60.0080   34.7980   47.0610 C   0  0  0  0  0  0  0  0  0  0  0  0
   60.7780   33.7130   47.4940 C   0  0  0  0  0  0  0  0  0  0  0  0
   62.0340   33.9480   48.2820 C   0  0  0  0  0  0  0  0  0  0  0  0
   60.4210   32.4110   47.1110 C   0  0  0  0  0  0  0  0  0  0  0  0
   59.2450   32.1620   46.3640 C   0  0  0  0  0  0  0  0  0  0  0  0
   58.7980   30.8420   46.0240 C   0  0  0  0  0  0  0  0  0  0  0  0
   60.3672   26.7010   50.8943 H   0  0  0  0  0  0  0  0  0  0  0  0
   59.9603   27.7747   49.5129 H   0  0  0  0  0  0  0  0  0  0  0  0
   61.5048   26.8575   49.5129 H   0  0  0  0  0  0  0  0  0  0  0  0
   61.0745   28.6365   51.8706 H   0  0  0  0  0  0  0  0  0  0  0  0
   62.5521   28.3508   50.8278 H   0  0  0  0  0  0  0  0  0  0  0  0
   62.4498   30.9145   51.5965 H   0  0  0  0  0  0  0  0  0  0  0  0
   63.3044   30.4735   50.0793 H   0  0  0  0  0  0  0  0  0  0  0  0
   62.1081   31.8135   50.0793 H   0  0  0  0  0  0  0  0  0  0  0  0
   59.4847   29.9421   51.2872 H   0  0  0  0  0  0  0  0  0  0  0  0
   60.0361   31.5177   50.5829 H   0  0  0  0  0  0  0  0  0  0  0  0
   58.2621   29.4655   49.4463 H   0  0  0  0  0  0  0  0  0  0  0  0
   58.5305   31.1829   48.9569 H   0  0  0  0  0  0  0  0  0  0  0  0
   60.7370   29.3710   48.1970 H   0  0  0  0  0  0  0  0  0  0  0  0
   59.8056   27.3154   47.8604 H   0  0  0  0  0  0  0  0  0  0  0  0
   59.1005   25.0798   47.0556 H   0  0  0  0  0  0  0  0  0  0  0  0
   56.0763   23.7015   43.8715 H   0  0  0  0  0  0  0  0  0  0  0  0
   56.8329   25.1677   43.1610 H   0  0  0  0  0  0  0  0  0  0  0  0
   57.7235   23.6077   43.1610 H   0  0  0  0  0  0  0  0  0  0  0  0
   56.9468   26.9104   43.7949 H   0  0  0  0  0  0  0  0  0  0  0  0
   55.9279   29.1312   43.1951 H   0  0  0  0  0  0  0  0  0  0  0  0
   57.1478   30.2635   42.5195 H   0  0  0  0  0  0  0  0  0  0  0  0
   57.4662   28.4956   42.5195 H   0  0  0  0  0  0  0  0  0  0  0  0
   56.4080   31.7152   43.7173 H   0  0  0  0  0  0  0  0  0  0  0  0
   56.8895   33.9635   44.6346 H   0  0  0  0  0  0  0  0  0  0  0  0
   58.3104   35.4442   45.8890 H   0  0  0  0  0  0  0  0  0  0  0  0
   60.2769   35.8196   47.3676 H   0  0  0  0  0  0  0  0  0  0  0  0
   61.8057   33.9053   49.3572 H   0  0  0  0  0  0  0  0  0  0  0  0
   62.7735   33.1726   48.0331 H   0  0  0  0  0  0  0  0  0  0  0  0
   62.4431   34.9383   48.0331 H   0  0  0  0  0  0  0  0  0  0  0  0
   61.0674   31.5681   47.3968 H   0  0  0  0  0  0  0  0  0  0  0  0
  1  2  1  0
  2  3  1  0
  3  4  1  0
  3  5  1  0
  5  6  1  0
  6  7  1  0
  7  8  1  0
  8  9  2  0
  9 10  1  0
 10 11  2  0
 11 12  1  0
 12 13  1  0
 13 14  1  0
 12 15  2  0
 15 16  1  0
 16 17  2  0
 17 18  1  0
 17 19  1  0
 19 20  2  0
 20 21  1  0
 21 22  2  0
 22 23  1  0
 23 24  2  0
 24 25  1  0
 25 26  1  0
 25 27  2  0
 27 28  1  0
 28 29  2  0
 29  8  1  0
 16  9  1  0
 29 19  1  0
 28 22  1  0
  1 30  1  0
  1 31  1  0
  1 32  1  0
  2 33  1  0
  2 34  1  0
  4 35  1  0
  4 36  1  0
  4 37  1  0
  5 38  1  0
  5 39  1  0
  6 40  1  0
  6 41  1  0
  7 42  1  0
 10 43  1  0
 11 44  1  0
 14 45  1  0
 14 46  1  0
 14 47  1  0
 15 48  1  0
 18 49  1  0
 18 50  1  0
 18 51  1  0
 20 52  1  0
 21 53  1  0
 23 54  1  0
 24 55  1  0
 26 56  1  0
 26 57  1  0
 26 58  1  0
 27 59  1  0
M  CHG  1  17   1
M  END
>  <UniqueID>  (22) 
22

>  <SMILES>  (22) 
CCN(C)CCNc1c2ccc(OC)cc2[n+](C)c2ccc3ccc(C)cc3c12

>  <Energy>  (22) 
100.80004345245388

>  <Genealogy>  (22) 
CCN(C)CCNc1c2ccc(OC)cc2[n+](C)c2ccc3ccc(C)cc3c12 (3D coordinates assigned)
CCN(C)CCNc1c2ccc(OC)cc2[n+](C)c2ccc3ccc(C)cc3c12 (optimized conformer: 100.80004345245388 kcal/mol)

>  <smiles>  (22) 
CCN(C)CCNc1c2ccc(OC)cc2[n+](C)c2ccc3ccc(C)cc3c12

>  <score_type>  (22) 
oracle

>  <origin>  (22) 
adg

>  <m_score__min__energy>  (22) 
-6.04

>  <m_primary>  (22) 
energy

$$$$
22:0
     RDKit          3D

 56 58  0  0  0  0  0  0  0  0999 V2000
   59.3340   33.0170   49.6440 C   0  0  0  0  0  0  0  0  0  0  0  0
   60.3070   33.8370   48.7880 C   0  0  0  0  0  0  0  0  0  0  0  0
   60.5260   33.2280   47.4410 N   0  0  0  0  0  0  0  0  0  0  0  0
   61.7180   32.3400   47.4290 C   0  0  0  0  0  0  0  0  0  0  0  0
   63.0410   33.0640   47.1290 C   0  0  0  0  0  0  0  0  0  0  0  0
   60.6100   34.2450   46.3600 C   0  0  0  0  0  0  0  0  0  0  0  0
   59.2370   34.6180   45.7880 C   0  0  0  0  0  0  0  0  0  0  0  0
   58.2620   33.7950   46.3880 O   0  0  0  0  0  0  0  0  0  0  0  0
   57.1830   33.6010   45.5000 C   0  0  0  0  0  0  0  0  0  0  0  0
   57.5340   32.5050   44.4940 C   0  0  0  0  0  0  0  0  0  0  0  0
   56.9590   31.2550   44.8800 O   0  0  0  0  0  0  0  0  0  0  0  0
   57.6640   30.1310   45.3440 C   0  0  0  0  0  0  0  0  0  0  0  0
   58.7000   30.2160   46.2940 C   0  0  0  0  0  0  0  0  0  0  0  0
   59.3790   29.0660   46.7070 C   0  0  0  0  0  0  0  0  0  0  0  0
   59.0260   27.8110   46.1850 C   0  0  0  0  0  0  0  0  0  0  0  0
   59.6740   26.6280   46.5700 C   0  0  0  0  0  0  0  0  0  0  0  0
   60.6110   26.6450   47.4140 O   0  0  0  0  0  0  0  0  0  0  0  0
   59.2720   25.4130   46.0120 C   0  0  0  0  0  0  0  0  0  0  0  0
   58.2260   25.3990   45.0720 C   0  0  0  0  0  0  0  0  0  0  0  0
   57.7540   24.1380   44.4450 C   0  0  0  0  0  0  0  0  0  0  0  0
   56.6520   24.1140   43.5670 C   0  0  0  0  0  0  0  0  0  0  0  0
   56.2240   22.9080   43.0020 C   0  0  0  0  0  0  0  0  0  0  0  0
   56.8810   21.7170   43.3090 C   0  0  0  0  0  0  0  0  0  0  0  0
   57.9660   21.7250   44.1880 C   0  0  0  0  0  0  0  0  0  0  0  0
   58.3990   22.9260   44.7580 C   0  0  0  0  0  0  0  0  0  0  0  0
   57.6280   26.5420   44.7390 O   0  0  0  0  0  0  0  0  0  0  0  0
   57.9780   27.7210   45.2440 C   0  0  0  0  0  0  0  0  0  0  0  0
   57.3040   28.8770   44.8370 C   0  0  0  0  0  0  0  0  0  0  0  0
   59.5440   33.1940   50.7092 H   0  0  0  0  0  0  0  0  0  0  0  0
   58.3012   33.3212   49.4184 H   0  0  0  0  0  0  0  0  0  0  0  0
   59.4588   31.9476   49.4184 H   0  0  0  0  0  0  0  0  0  0  0  0
   59.8966   34.8491   48.6566 H   0  0  0  0  0  0  0  0  0  0  0  0
   61.2757   33.8619   49.3085 H   0  0  0  0  0  0  0  0  0  0  0  0
   59.7210   32.5970   47.2100 H   0  0  0  0  0  0  0  0  0  0  0  0
   61.8023   31.8626   48.4164 H   0  0  0  0  0  0  0  0  0  0  0  0
   61.5635   31.6148   46.6165 H   0  0  0  0  0  0  0  0  0  0  0  0
   63.5340   33.3338   48.0746 H   0  0  0  0  0  0  0  0  0  0  0  0
   63.6989   32.4002   46.5489 H   0  0  0  0  0  0  0  0  0  0  0  0
   62.8366   33.9760   46.5489 H   0  0  0  0  0  0  0  0  0  0  0  0
   61.0797   35.1526   46.7669 H   0  0  0  0  0  0  0  0  0  0  0  0
   61.2032   33.8108   45.5417 H   0  0  0  0  0  0  0  0  0  0  0  0
   59.0179   35.6732   46.0082 H   0  0  0  0  0  0  0  0  0  0  0  0
   59.2319   34.4735   44.6975 H   0  0  0  0  0  0  0  0  0  0  0  0
   56.2902   33.3026   46.0691 H   0  0  0  0  0  0  0  0  0  0  0  0
   56.9815   34.5387   44.9614 H   0  0  0  0  0  0  0  0  0  0  0  0
   57.1482   32.7883   43.5036 H   0  0  0  0  0  0  0  0  0  0  0  0
   58.6279   32.3939   44.4630 H   0  0  0  0  0  0  0  0  0  0  0  0
   58.9769   31.1942   46.7140 H   0  0  0  0  0  0  0  0  0  0  0  0
   60.1925   29.1444   47.4433 H   0  0  0  0  0  0  0  0  0  0  0  0
   59.7684   24.4760   46.3047 H   0  0  0  0  0  0  0  0  0  0  0  0
   56.1254   25.0488   43.3246 H   0  0  0  0  0  0  0  0  0  0  0  0
   55.3663   22.8992   42.3133 H   0  0  0  0  0  0  0  0  0  0  0  0
   56.5447   20.7714   42.8588 H   0  0  0  0  0  0  0  0  0  0  0  0
   58.4812   20.7843   44.4325 H   0  0  0  0  0  0  0  0  0  0  0  0
   59.2494   22.9241   45.4558 H   0  0  0  0  0  0  0  0  0  0  0  0
   56.4818   28.7998   44.1103 H   0  0  0  0  0  0  0  0  0  0  0  0
  1  2  1  0
  2  3  1  0
  3  4  1  0
  4  5  1  0
  3  6  1  0
  6  7  1  0
  7  8  1  0
  8  9  1  0
  9 10  1  0
 10 11  1  0
 11 12  1  0
 12 13  2  0
 13 14  1  0
 14 15  2  0
 15 16  1  0
 16 17  2  0
 16 18  1  0
 18 19  2  0
 19 20  1  0
 20 21  2  0
 21 22  1  0
 22 23  2  0
 23 24  1  0
 24 25  2  0
 19 26  1  0
 26 27  1  0
 27 28  2  0
 28 12  1  0
 27 15  1  0
 25 20  1  0
  1 29  1  0
  1 30  1  0
  1 31  1  0
  2 32  1  0
  2 33  1  0
  3 34  1  0
  4 35  1  0
  4 36  1  0
  5 37  1  0
  5 38  1  0
  5 39  1  0
  6 40  1  0
  6 41  1  0
  7 42  1  0
  7 43  1  0
  9 44  1  0
  9 45  1  0
 10 46  1  0
 10 47  1  0
 13 48  1  0
 14 49  1  0
 18 50  1  0
 21 51  1  0
 22 52  1  0
 23 53  1  0
 24 54  1  0
 25 55  1  0
 28 56  1  0
M  CHG  1   3   1
M  END
>  <UniqueID>  (23) 
23

>  <SMILES>  (23) 
CC[NH+](CC)CCOCCOc1ccc2c(=O)cc(-c3ccccc3)oc2c1

>  <Energy>  (23) 
68.46750840051325

>  <Genealogy>  (23) 
CC[NH+](CC)CCOCCOc1ccc2c(=O)cc(-c3ccccc3)oc2c1 (protonated)
CC[NH+](CC)CCOCCOc1ccc2c(=O)cc(-c3ccccc3)oc2c1 (3D coordinates assigned)
CC[NH+](CC)CCOCCOc1ccc2c(=O)cc(-c3ccccc3)oc2c1 (optimized conformer: 68.46750840051325 kcal/mol)

>  <smiles>  (23) 
CCN(CC)CCOCCOc1ccc2c(=O)cc(-c3ccccc3)oc2c1

>  <score_type>  (23) 
oracle

>  <origin>  (23) 
adg

>  <m_score__min__energy>  (23) 
-5.4500000000000002

>  <m_primary>  (23) 
energy

$$$$
23:0
     RDKit          3D

 57 60  0  0  0  0  0  0  0  0999 V2000
   59.0660   32.7010   49.8420 C   0  0  0  0  0  0  0  0  0  0  0  0
   59.9950   33.8710   49.5310 C   0  0  0  0  0  0  0  0  0  0  0  0
   61.5060   33.5200   49.5550 C   0  0  0  0  0  0  0  0  0  0  0  0
   62.0420   32.8070   48.3600 N   0  0  1  0  0  0  0  0  0  0  0  0
   63.3350   33.3910   47.8850 C   0  0  0  0  0  0  0  0  0  0  0  0
   63.2860   33.8150   46.4120 C   0  0  0  0  0  0  0  0  0  0  0  0
   62.1220   31.3380   48.5760 C   0  0  0  0  0  0  0  0  0  0  0  0
   61.5160   30.5210   47.4190 C   0  0  0  0  0  0  0  0  0  0  0  0
   60.0550   30.4620   47.5090 N   0  0  0  0  0  0  0  0  0  0  0  0
   59.2490   30.5580   46.3290 C   0  0  0  0  0  0  0  0  0  0  0  0
   58.8250   31.8070   45.8190 C   0  0  0  0  0  0  0  0  0  0  0  0
   59.2850   33.0090   46.3930 C   0  0  0  0  0  0  0  0  0  0  0  0
   58.8330   34.2390   45.9230 C   0  0  0  0  0  0  0  0  0  0  0  0
   57.9210   34.2960   44.8750 C   0  0  0  0  0  0  0  0  0  0  0  0
   57.4680   33.1240   44.2690 C   0  0  0  0  0  0  0  0  0  0  0  0
   57.9250   31.8540   44.7010 C   0  0  0  0  0  0  0  0  0  0  0  0
   57.5160   30.6830   44.0780 N   0  0  0  0  0  0  0  0  0  0  0  0
   56.6570   30.7170   42.8790 C   0  0  0  0  0  0  0  0  0  0  0  0
   57.9320   29.4860   44.6030 C   0  0  0  0  0  0  0  0  0  0  0  0
   57.5720   28.2460   44.1830 N   0  0  0  0  0  0  0  0  0  0  0  0
   58.2330   27.3940   44.9910 C   0  0  0  0  0  0  0  0  0  0  0  0
   58.1920   26.0010   44.9490 C   0  0  0  0  0  0  0  0  0  0  0  0
   58.9690   25.2890   45.8790 C   0  0  0  0  0  0  0  0  0  0  0  0
   59.7670   25.9760   46.8190 C   0  0  0  0  0  0  0  0  0  0  0  0
   59.7930   27.3820   46.8410 C   0  0  0  0  0  0  0  0  0  0  0  0
   59.0000   28.0660   45.9180 C   0  0  0  0  0  0  0  0  0  0  0  0
   58.7950   29.4140   45.6800 C   0  0  0  0  0  0  0  0  0  0  0  0
   58.9742   32.5854   50.9321 H   0  0  0  0  0  0  0  0  0  0  0  0
   58.0737   32.8956   49.4091 H   0  0  0  0  0  0  0  0  0  0  0  0
   59.4804   31.7786   49.4091 H   0  0  0  0  0  0  0  0  0  0  0  0
   59.7465   34.2493   48.5284 H   0  0  0  0  0  0  0  0  0  0  0  0
   59.8352   34.6155   50.3249 H   0  0  0  0  0  0  0  0  0  0  0  0
   62.0661   34.4607   49.6621 H   0  0  0  0  0  0  0  0  0  0  0  0
   61.6287   32.8176   50.3926 H   0  0  0  0  0  0  0  0  0  0  0  0
   61.3150   32.9610   47.6210 H   0  0  0  0  0  0  0  0  0  0  0  0
   63.5688   34.2739   48.4980 H   0  0  0  0  0  0  0  0  0  0  0  0
   64.1068   32.6133   47.9818 H   0  0  0  0  0  0  0  0  0  0  0  0
   63.1599   34.9059   46.3485 H   0  0  0  0  0  0  0  0  0  0  0  0
   64.2237   33.5247   45.9155 H   0  0  0  0  0  0  0  0  0  0  0  0
   62.4393   33.3185   45.9155 H   0  0  0  0  0  0  0  0  0  0  0  0
   63.1801   31.0577   48.6853 H   0  0  0  0  0  0  0  0  0  0  0  0
   61.5384   31.1080   49.4796 H   0  0  0  0  0  0  0  0  0  0  0  0
   61.7963   30.9909   46.4648 H   0  0  0  0  0  0  0  0  0  0  0  0
   61.9066   29.4945   47.4806 H   0  0  0  0  0  0  0  0  0  0  0  0
   59.5750   30.3340   48.4300 H   0  0  0  0  0  0  0  0  0  0  0  0
   60.0086   32.9750   47.2208 H   0  0  0  0  0  0  0  0  0  0  0  0
   59.1987   35.1692   46.3824 H   0  0  0  0  0  0  0  0  0  0  0  0
   57.5545   35.2711   44.5216 H   0  0  0  0  0  0  0  0  0  0  0  0
   56.7446   33.1866   43.4427 H   0  0  0  0  0  0  0  0  0  0  0  0
   55.6013   30.7588   43.1853 H   0  0  0  0  0  0  0  0  0  0  0  0
   56.9001   31.6062   42.2789 H   0  0  0  0  0  0  0  0  0  0  0  0
   56.8291   29.8113   42.2789 H   0  0  0  0  0  0  0  0  0  0  0  0
   56.9110   27.9690   43.4250 H   0  0  0  0  0  0  0  0  0  0  0  0
   57.5700   25.4748   44.2099 H   0  0  0  0  0  0  0  0  0  0  0  0
   58.9551   24.1891   45.8743 H   0  0  0  0  0  0  0  0  0  0  0  0
   60.3731   25.4075   47.5397 H   0  0  0  0  0  0  0  0  0  0  0  0
   60.4191   27.9261   47.5635 H   0  0  0  0  0  0  0  0  0  0  0  0
  1  2  1  0
  2  3  1  0
  3  4  1  0
  4  5  1  0
  5  6  1  0
  4  7  1  0
  7  8  1  0
  8  9  1  0
  9 10  1  0
 10 11  2  0
 11 12  1  0
 12 13  2  0
 13 14  1  0
 14 15  2  0
 15 16  1  0
 16 17  2  0
 17 18  1  0
 17 19  1  0
 19 20  1  0
 20 21  1  0
 21 22  2  0
 22 23  1  0
 23 24  2  0
 24 25  1  0
 25 26  2  0
 26 27  1  0
 27 10  1  0
 16 11  1  0
 27 19  2  0
 26 21  1  0
  1 28  1  0
  1 29  1  0
  1 30  1  0
  2 31  1  0
  2 32  1  0
  3 33  1  0
  3 34  1  0
  4 35  1  6
  5 36  1  0
  5 37  1  0
  6 38  1  0
  6 39  1  0
  6 40  1  0
  7 41  1  0
  7 42  1  0
  8 43  1  0
  8 44  1  0
  9 45  1  0
 12 46  1  0
 13 47  1  0
 14 48  1  0
 15 49  1  0
 18 50  1  0
 18 51  1  0
 18 52  1  0
 20 53  1  0
 22 54  1  0
 23 55  1  0
 24 56  1  0
 25 57  1  0
M  CHG  2   4   1  17   1
M  END
>  <UniqueID>  (24) 
24

>  <SMILES>  (24) 
CCC[N@@H+](CC)CCNc1c2ccccc2[n+](C)c2[nH]c3ccccc3c12

>  <Energy>  (24) 
122.53203531160109

>  <Genealogy>  (24) 
CCC[NH+](CC)CCNc1c2ccccc2[n+](C)c2[nH]c3ccccc3c12 (protonated)
CCC[N@@H+](CC)CCNc1c2ccccc2[n+](C)c2[nH]c3ccccc3c12 (chirality)
CCC[N@@H+](CC)CCNc1c2ccccc2[n+](C)c2[nH]c3ccccc3c12 (3D coordinates assigned)
CCC[N@@H+](CC)CCNc1c2ccccc2[n+](C)c2[nH]c3ccccc3c12 (optimized conformer: 122.53203531160109 kcal/mol)

>  <smiles>  (24) 
CCCN(CC)CCNc1c2ccccc2[n+](C)c2[nH]c3ccccc3c12

>  <score_type>  (24) 
oracle

>  <origin>  (24) 
adg

>  <m_score__min__energy>  (24) 
-5.2400000000000002

>  <m_primary>  (24) 
energy

$$$$
24:0
     RDKit          3D

 40 43  0  0  0  0  0  0  0  0999 V2000
   61.2854   34.2739   51.5026 H   0  0  0  0  0  0  0  0  0  0  0  0
   61.6610   33.8360   50.5660 C   0  0  0  0  0  0  0  0  0  0  0  0
   60.8520   32.9640   49.8300 C   0  0  0  0  0  0  0  0  0  0  0  0
   59.8428   32.7196   50.1930 H   0  0  0  0  0  0  0  0  0  0  0  0
   61.3180   32.3960   48.6280 C   0  0  0  0  0  0  0  0  0  0  0  0
   60.4550   31.4700   47.8520 C   0  0  0  0  0  0  0  0  0  0  0  0
   60.8360   29.8480   47.4990 S   0  0  0  0  0  0  0  0  0  0  0  0
   59.4220   29.5480   46.6490 C   0  0  0  0  0  0  0  0  0  0  0  0
   58.6420   30.6820   46.6250 C   0  0  0  0  0  0  0  0  0  0  0  0
   57.4370   30.6770   45.9910 N   0  0  0  0  0  0  0  0  0  0  0  0
   56.9680   29.5530   45.3610 C   0  0  0  0  0  0  0  0  0  0  0  0
   55.8050   29.6350   44.7770 N   0  0  0  0  0  0  0  0  0  0  0  0
   55.4770   29.7290   43.3600 C   0  0  0  0  0  0  0  0  0  0  0  0
   54.5685   30.3360   43.2327 H   0  0  0  0  0  0  0  0  0  0  0  0
   55.3024   28.7214   42.9548 H   0  0  0  0  0  0  0  0  0  0  0  0
   56.6330   30.3830   42.6180 C   0  0  0  0  0  0  0  0  0  0  0  0
   57.3518   30.7897   43.3446 H   0  0  0  0  0  0  0  0  0  0  0  0
   57.1337   29.6344   41.9865 H   0  0  0  0  0  0  0  0  0  0  0  0
   56.2492   31.1978   41.9865 H   0  0  0  0  0  0  0  0  0  0  0  0
   57.7970   28.3840   45.4000 C   0  0  0  0  0  0  0  0  0  0  0  0
   58.9870   28.4210   46.0350 N   0  0  0  0  0  0  0  0  0  0  0  0
   59.4920   27.1770   45.8850 C   0  0  0  0  0  0  0  0  0  0  0  0
   60.7790   26.6630   46.4610 C   0  0  0  0  0  0  0  0  0  0  0  0
   60.9320   25.6245   46.1321 H   0  0  0  0  0  0  0  0  0  0  0  0
   61.6027   27.3013   46.1089 H   0  0  0  0  0  0  0  0  0  0  0  0
   60.7450   26.7050   47.9850 C   0  0  0  0  0  0  0  0  0  0  0  0
   61.3890   25.9095   48.3882 H   0  0  0  0  0  0  0  0  0  0  0  0
   61.1088   27.6830   48.3331 H   0  0  0  0  0  0  0  0  0  0  0  0
   59.7127   26.5528   48.3331 H   0  0  0  0  0  0  0  0  0  0  0  0
   58.6340   26.3980   45.1930 N   0  0  0  0  0  0  0  0  0  0  0  0
   57.5860   27.1510   44.8860 N   0  0  0  0  0  0  0  0  0  0  0  0
   56.7770   26.7820   44.3500 H   0  0  0  0  0  0  0  0  0  0  0  0
   59.2020   31.7720   47.2940 C   0  0  0  0  0  0  0  0  0  0  0  0
   58.7168   32.7559   47.3749 H   0  0  0  0  0  0  0  0  0  0  0  0
   62.6170   32.7220   48.1870 C   0  0  0  0  0  0  0  0  0  0  0  0
   63.0010   32.2865   47.2527 H   0  0  0  0  0  0  0  0  0  0  0  0
   63.4210   33.5940   48.9270 C   0  0  0  0  0  0  0  0  0  0  0  0
   64.4325   33.8414   48.5724 H   0  0  0  0  0  0  0  0  0  0  0  0
   62.9440   34.1520   50.1150 C   0  0  0  0  0  0  0  0  0  0  0  0
   63.7260   34.9970   50.8310 F   0  0  0  0  0  0  0  0  0  0  0  0
  1  2  1  0
  2  3  2  0
  3  4  1  0
  3  5  1  0
  5  6  1  0
  6  7  1  0
  7  8  1  0
  8  9  2  0
  9 10  1  0
 10 11  1  0
 11 12  2  0
 12 13  1  0
 13 14  1  0
 13 15  1  0
 13 16  1  0
 16 17  1  0
 16 18  1  0
 16 19  1  0
 11 20  1  0
 20 21  1  0
 21 22  1  0
 22 23  1  0
 23 24  1  0
 23 25  1  0
 23 26  1  0
 26 27  1  0
 26 28  1  0
 26 29  1  0
 22 30  2  0
 30 31  1  0
 31 32  1  0
  9 33  1  0
 33 34  1  0
  5 35  2  0
 35 36  1  0
 35 37  1  0
 37 38  1  0
 37 39  2  0
 39 40  1  0
 39  2  1  0
 33  6  2  0
 21  8  1  0
 31 20  2  0
M  CHG  2  10  -1  31   1
M  END
>  <UniqueID>  (25) 
25

>  <SMILES>  (25) 
CC/N=c1/[n-]c2cc(-c3ccc(F)cc3)sc2n2c(CC)n[nH+]c12

>  <Energy>  (25) 
125.12744608788051

>  <Genealogy>  (25) 
CCN=c1[n-]c2cc(-c3ccc(F)cc3)sc2n2c(CC)n[nH+]c12 (protonated)
CC/N=c1/[n-]c2cc(-c3ccc(F)cc3)sc2n2c(CC)n[nH+]c12 (cis-trans isomerization)
CC/N=c1/[n-]c2cc(-c3ccc(F)cc3)sc2n2c(CC)n[nH+]c12 (3D coordinates assigned)
CC/N=c1/[n-]c2cc(-c3ccc(F)cc3)sc2n2c(CC)n[nH+]c12 (optimized conformer: 125.12744608788051 kcal/mol)

>  <smiles>  (25) 
CCN=c1[nH]c2cc(-c3ccc(F)cc3)sc2n2c(CC)nnc12

>  <score_type>  (25) 
oracle

>  <origin>  (25) 
adg

>  <m_score__min__energy>  (25) 
-7.96

>  <m_primary>  (25) 
energy

$$$$
25:0
     RDKit          3D

 51 54  0  0  0  0  0  0  0  0999 V2000
   63.3490   33.4970   51.0490 C   0  0  0  0  0  0  0  0  0  0  0  0
   63.0130   34.5760   50.0250 C   0  0  0  0  0  0  0  0  0  0  0  0
   63.0580   34.0480   48.6990 O   0  0  0  0  0  0  0  0  0  0  0  0
   62.3040   32.9630   48.2210 C   0  0  0  0  0  0  0  0  0  0  0  0
   62.8830   31.8990   47.5030 C   0  0  0  0  0  0  0  0  0  0  0  0
   62.0910   30.8490   47.0320 C   0  0  0  0  0  0  0  0  0  0  0  0
   60.7110   30.8340   47.2760 C   0  0  0  0  0  0  0  0  0  0  0  0
   59.8650   29.7300   46.7540 C   0  0  0  0  0  0  0  0  0  0  0  0
   58.6370   30.0140   46.1420 C   0  0  0  0  0  0  0  0  0  0  0  0
   57.8250   28.9810   45.6560 C   0  0  0  0  0  0  0  0  0  0  0  0
   56.5050   29.3520   45.0950 C   0  0  0  0  0  0  0  0  0  0  0  0
   55.5200   28.5720   45.1880 O   0  0  0  0  0  0  0  0  0  0  0  0
   56.3200   30.6070   44.5280 O   0  0  0  0  0  0  0  0  0  0  0  0
   58.2900   27.6430   45.7460 C   0  0  0  0  0  0  0  0  0  0  0  0
   57.5860   26.5500   45.1960 C   0  0  0  0  0  0  0  0  0  0  0  0
   58.0800   25.2490   45.3210 C   0  0  0  0  0  0  0  0  0  0  0  0
   59.2870   25.0150   45.9800 C   0  0  0  0  0  0  0  0  0  0  0  0
   60.0150   26.0840   46.5020 C   0  0  0  0  0  0  0  0  0  0  0  0
   59.5360   27.3990   46.3820 C   0  0  0  0  0  0  0  0  0  0  0  0
   60.2770   28.4360   46.8670 N   0  0  0  0  0  0  0  0  0  0  0  0
   60.1370   31.8850   48.0110 C   0  0  0  0  0  0  0  0  0  0  0  0
   60.9230   32.9600   48.4650 C   0  0  0  0  0  0  0  0  0  0  0  0
   60.3660   34.0510   49.1570 O   0  0  0  0  0  0  0  0  0  0  0  0
   59.3900   34.9530   48.6310 C   0  0  0  0  0  0  0  0  0  0  0  0
   58.9500   34.5240   47.2550 C   0  0  0  0  0  0  0  0  0  0  0  0
   59.6760   34.9310   46.1240 C   0  0  0  0  0  0  0  0  0  0  0  0
   59.2810   34.5210   44.8460 C   0  0  0  0  0  0  0  0  0  0  0  0
   58.1540   33.7090   44.6890 C   0  0  0  0  0  0  0  0  0  0  0  0
   57.4190   33.3090   45.8080 C   0  0  0  0  0  0  0  0  0  0  0  0
   57.8090   33.7190   47.0860 C   0  0  0  0  0  0  0  0  0  0  0  0
   63.2227   33.9025   52.0637 H   0  0  0  0  0  0  0  0  0  0  0  0
   62.6758   32.6381   50.9109 H   0  0  0  0  0  0  0  0  0  0  0  0
   64.3908   33.1722   50.9109 H   0  0  0  0  0  0  0  0  0  0  0  0
   62.0025   34.9615   50.2256 H   0  0  0  0  0  0  0  0  0  0  0  0
   63.7545   35.3842   50.1081 H   0  0  0  0  0  0  0  0  0  0  0  0
   63.9662   31.8946   47.3117 H   0  0  0  0  0  0  0  0  0  0  0  0
   62.5540   30.0277   46.4653 H   0  0  0  0  0  0  0  0  0  0  0  0
   58.3072   31.0586   46.0421 H   0  0  0  0  0  0  0  0  0  0  0  0
   56.6392   26.7243   44.6638 H   0  0  0  0  0  0  0  0  0  0  0  0
   57.5146   24.4056   44.8979 H   0  0  0  0  0  0  0  0  0  0  0  0
   59.6646   23.9875   46.0880 H   0  0  0  0  0  0  0  0  0  0  0  0
   60.9715   25.8959   47.0115 H   0  0  0  0  0  0  0  0  0  0  0  0
   61.1830   28.2310   47.3480 H   0  0  0  0  0  0  0  0  0  0  0  0
   59.0600   31.8671   48.2342 H   0  0  0  0  0  0  0  0  0  0  0  0
   58.5169   34.9694   49.2998 H   0  0  0  0  0  0  0  0  0  0  0  0
   59.8382   35.9551   48.5609 H   0  0  0  0  0  0  0  0  0  0  0  0
   60.5595   35.5753   46.2434 H   0  0  0  0  0  0  0  0  0  0  0  0
   59.8575   34.8377   43.9644 H   0  0  0  0  0  0  0  0  0  0  0  0
   57.8457   33.3848   43.6841 H   0  0  0  0  0  0  0  0  0  0  0  0
   56.5321   32.6704   45.6829 H   0  0  0  0  0  0  0  0  0  0  0  0
   57.2212   33.4109   47.9633 H   0  0  0  0  0  0  0  0  0  0  0  0
  1  2  1  0
  2  3  1  0
  3  4  1  0
  4  5  2  0
  5  6  1  0
  6  7  2  0
  7  8  1  0
  8  9  2  0
  9 10  1  0
 10 11  1  0
 11 12  2  0
 11 13  1  0
 10 14  2  0
 14 15  1  0
 15 16  2  0
 16 17  1  0
 17 18  2  0
 18 19  1  0
 19 20  2  0
  7 21  1  0
 21 22  2  0
 22 23  1  0
 23 24  1  0
 24 25  1  0
 25 26  2  0
 26 27  1  0
 27 28  2  0
 28 29  1  0
 29 30  2  0
 22  4  1  0
 30 25  1  0
 20  8  1  0
 19 14  1  0
  1 31  1  0
  1 32  1  0
  1 33  1  0
  2 34  1  0
  2 35  1  0
  5 36  1  0
  6 37  1  0
  9 38  1  0
 15 39  1  0
 16 40  1  0
 17 41  1  0
 18 42  1  0
 20 43  1  0
 21 44  1  0
 24 45  1  0
 24 46  1  0
 26 47  1  0
 27 48  1  0
 28 49  1  0
 29 50  1  0
 30 51  1  0
M  CHG  2  13  -1  20   1
M  END
>  <UniqueID>  (26) 
26

>  <SMILES>  (26) 
CCOc1ccc(-c2cc(C(=O)[O-])c3ccccc3[nH+]2)cc1OCc1ccccc1

>  <Energy>  (26) 
67.7500099423656

>  <Genealogy>  (26) 
CCOc1ccc(-c2cc(C(=O)[O-])c3ccccc3[nH+]2)cc1OCc1ccccc1 (protonated)
CCOc1ccc(-c2cc(C(=O)[O-])c3ccccc3[nH+]2)cc1OCc1ccccc1 (3D coordinates assigned)
CCOc1ccc(-c2cc(C(=O)[O-])c3ccccc3[nH+]2)cc1OCc1ccccc1 (optimized conformer: 67.7500099423656 kcal/mol)

>  <smiles>  (26) 
CCOc1ccc(-c2cc(C(=O)O)c3ccccc3n2)cc1OCc1ccccc1

>  <score_type>  (26) 
oracle

>  <origin>  (26) 
adg

>  <m_score__min__energy>  (26) 
-9.7200000000000006

>  <m_primary>  (26) 
energy

$$$$
26:0
     RDKit          3D

 73 76  0  0  0  0  0  0  0  0999 V2000
   58.8700   34.3190   45.6610 C   0  0  0  0  0  0  0  0  0  0  0  0
   59.3870   33.7800   46.9920 C   0  0  0  0  0  0  0  0  0  0  0  0
   60.7430   34.3110   47.2690 N   0  0  0  0  0  0  0  0  0  0  0  0
   61.0760   34.1930   48.7060 C   0  0  0  0  0  0  0  0  0  0  0  0
   59.8790   33.6550   49.4920 C   0  0  0  0  0  0  0  0  0  0  0  0
   61.7590   33.6370   46.4230 C   0  0  0  0  0  0  0  0  0  0  0  0
   63.1710   33.8170   47.0070 C   0  0  0  0  0  0  0  0  0  0  0  0
   63.7520   32.5450   47.4420 N   0  0  0  0  0  0  0  0  0  0  0  0
   63.4340   32.0140   48.7380 C   0  0  0  0  0  0  0  0  0  0  0  0
   64.2170   32.3530   49.8530 C   0  0  0  0  0  0  0  0  0  0  0  0
   65.3210   33.2200   49.7220 C   0  0  0  0  0  0  0  0  0  0  0  0
   66.1330   33.5110   50.8150 C   0  0  0  0  0  0  0  0  0  0  0  0
   65.8660   32.9370   52.0520 C   0  0  0  0  0  0  0  0  0  0  0  0
   64.7650   32.0950   52.2100 C   0  0  0  0  0  0  0  0  0  0  0  0
   63.8920   31.8160   51.1270 C   0  0  0  0  0  0  0  0  0  0  0  0
   62.7600   31.0370   51.2830 N   0  0  0  0  0  0  0  0  0  0  0  0
   62.2650   30.7140   52.6400 C   0  0  0  0  0  0  0  0  0  0  0  0
   62.0730   30.5850   50.1710 C   0  0  0  0  0  0  0  0  0  0  0  0
   61.0740   29.5840   50.2670 C   0  0  0  0  0  0  0  0  0  0  0  0
   60.3540   29.1700   49.1470 C   0  0  0  0  0  0  0  0  0  0  0  0
   60.6120   29.7330   47.8900 C   0  0  0  0  0  0  0  0  0  0  0  0
   59.9090   29.3640   46.7310 O   0  0  0  0  0  0  0  0  0  0  0  0
   60.4950   29.0080   45.4770 C   0  0  0  0  0  0  0  0  0  0  0  0
   59.4030   28.5280   44.4930 C   0  0  0  0  0  0  0  0  0  0  0  0
   58.0720   29.1980   44.6470 N   0  0  0  0  0  0  0  0  0  0  0  0
   57.4170   28.7120   45.8950 C   0  0  0  0  0  0  0  0  0  0  0  0
   57.2090   28.9260   43.4510 C   0  0  0  0  0  0  0  0  0  0  0  0
   56.2330   30.0740   43.1230 C   0  0  0  0  0  0  0  0  0  0  0  0
   55.8930   30.7900   44.2870 O   0  0  0  0  0  0  0  0  0  0  0  0
   57.0200   31.5040   44.7590 C   0  0  0  0  0  0  0  0  0  0  0  0
   58.3230   30.6640   44.7660 C   0  0  0  0  0  0  0  0  0  0  0  0
   61.6210   30.6880   47.7680 C   0  0  0  0  0  0  0  0  0  0  0  0
   62.3720   31.1060   48.8860 C   0  0  0  0  0  0  0  0  0  0  0  0
   58.1197   35.1012   45.8487 H   0  0  0  0  0  0  0  0  0  0  0  0
   59.7070   34.7439   45.0875 H   0  0  0  0  0  0  0  0  0  0  0  0
   58.4107   33.5004   45.0875 H   0  0  0  0  0  0  0  0  0  0  0  0
   58.7048   34.0880   47.7981 H   0  0  0  0  0  0  0  0  0  0  0  0
   59.4359   32.6823   46.9393 H   0  0  0  0  0  0  0  0  0  0  0  0
   61.9259   33.5049   48.8251 H   0  0  0  0  0  0  0  0  0  0  0  0
   61.3367   35.1890   49.0933 H   0  0  0  0  0  0  0  0  0  0  0  0
   60.0781   33.7445   50.5701 H   0  0  0  0  0  0  0  0  0  0  0  0
   58.9809   34.2360   49.2355 H   0  0  0  0  0  0  0  0  0  0  0  0
   59.7173   32.5976   49.2355 H   0  0  0  0  0  0  0  0  0  0  0  0
   61.5266   32.5632   46.3686 H   0  0  0  0  0  0  0  0  0  0  0  0
   61.7347   34.0882   45.4201 H   0  0  0  0  0  0  0  0  0  0  0  0
   63.8201   34.2587   46.2366 H   0  0  0  0  0  0  0  0  0  0  0  0
   63.0934   34.4731   47.8865 H   0  0  0  0  0  0  0  0  0  0  0  0
   64.5910   32.1570   46.9540 H   0  0  0  0  0  0  0  0  0  0  0  0
   65.5436   33.6721   48.7442 H   0  0  0  0  0  0  0  0  0  0  0  0
   66.9862   34.1956   50.6992 H   0  0  0  0  0  0  0  0  0  0  0  0
   66.5240   33.1469   52.9082 H   0  0  0  0  0  0  0  0  0  0  0  0
   64.5702   31.6392   53.1920 H   0  0  0  0  0  0  0  0  0  0  0  0
   62.9387   31.1536   53.3903 H   0  0  0  0  0  0  0  0  0  0  0  0
   61.2534   31.1264   52.7691 H   0  0  0  0  0  0  0  0  0  0  0  0
   62.2350   29.6220   52.7691 H   0  0  0  0  0  0  0  0  0  0  0  0
   60.8627   29.1249   51.2440 H   0  0  0  0  0  0  0  0  0  0  0  0
   59.5787   28.3967   49.2508 H   0  0  0  0  0  0  0  0  0  0  0  0
   61.0059   29.8850   45.0529 H   0  0  0  0  0  0  0  0  0  0  0  0
   61.2165   28.1933   45.6370 H   0  0  0  0  0  0  0  0  0  0  0  0
   59.7613   28.7124   43.4695 H   0  0  0  0  0  0  0  0  0  0  0  0
   59.2379   27.4630   44.7132 H   0  0  0  0  0  0  0  0  0  0  0  0
   57.9531   29.1098   46.7693 H   0  0  0  0  0  0  0  0  0  0  0  0
   56.3721   29.0551   45.9183 H   0  0  0  0  0  0  0  0  0  0  0  0
   57.4425   27.6125   45.9183 H   0  0  0  0  0  0  0  0  0  0  0  0
   57.8615   28.7643   42.5803 H   0  0  0  0  0  0  0  0  0  0  0  0
   56.6000   28.0407   43.6860 H   0  0  0  0  0  0  0  0  0  0  0  0
   56.7092   30.7580   42.4052 H   0  0  0  0  0  0  0  0  0  0  0  0
   55.3160   29.6448   42.6929 H   0  0  0  0  0  0  0  0  0  0  0  0
   57.1736   32.3802   44.1120 H   0  0  0  0  0  0  0  0  0  0  0  0
   56.8113   31.7878   45.8011 H   0  0  0  0  0  0  0  0  0  0  0  0
   58.9498   30.9822   43.9199 H   0  0  0  0  0  0  0  0  0  0  0  0
   58.8199   30.8355   45.7323 H   0  0  0  0  0  0  0  0  0  0  0  0
   61.8351   31.1235   46.7808 H   0  0  0  0  0  0  0  0  0  0  0  0
  1  2  1  0
  2  3  1  0
  3  4  1  0
  4  5  1  0
  3  6  1  0
  6  7  1  0
  7  8  1  0
  8  9  1  0
  9 10  2  0
 10 11  1  0
 11 12  2  0
 12 13  1  0
 13 14  2  0
 14 15  1  0
 15 16  2  0
 16 17  1  0
 16 18  1  0
 18 19  2  0
 19 20  1  0
 20 21  2  0
 21 22  1  0
 22 23  1  0
 23 24  1  0
 24 25  1  0
 25 26  1  0
 25 27  1  0
 27 28  1  0
 28 29  1  0
 29 30  1  0
 30 31  1  0
 21 32  1  0
 32 33  2  0
 33  9  1  0
 15 10  1  0
 33 18  1  0
 31 25  1  0
  1 34  1  0
  1 35  1  0
  1 36  1  0
  2 37  1  0
  2 38  1  0
  4 39  1  0
  4 40  1  0
  5 41  1  0
  5 42  1  0
  5 43  1  0
  6 44  1  0
  6 45  1  0
  7 46  1  0
  7 47  1  0
  8 48  1  0
 11 49  1  0
 12 50  1  0
 13 51  1  0
 14 52  1  0
 17 53  1  0
 17 54  1  0
 17 55  1  0
 19 56  1  0
 20 57  1  0
 23 58  1  0
 23 59  1  0
 24 60  1  0
 24 61  1  0
 26 62  1  0
 26 63  1  0
 26 64  1  0
 27 65  1  0
 27 66  1  0
 28 67  1  0
 28 68  1  0
 30 69  1  0
 30 70  1  0
 31 71  1  0
 31 72  1  0
 32 73  1  0
M  CHG  2  16   1  25   1
M  END
>  <UniqueID>  (27) 
27

>  <SMILES>  (27) 
CCN(CC)CCNc1c2ccccc2[n+](C)c2ccc(OCC[N+]3(C)CCOCC3)cc12

>  <Energy>  (27) 
119.33653690440256

>  <Genealogy>  (27) 
CCN(CC)CCNc1c2ccccc2[n+](C)c2ccc(OCC[N+]3(C)CCOCC3)cc12 (3D coordinates assigned)
CCN(CC)CCNc1c2ccccc2[n+](C)c2ccc(OCC[N+]3(C)CCOCC3)cc12 (nonaromatic ring conformer: 119.33653690440256 kcal/mol)

>  <smiles>  (27) 
CCN(CC)CCNc1c2ccccc2[n+](C)c2ccc(OCC[N+]3(C)CCOCC3)cc12

>  <score_type>  (27) 
oracle

>  <origin>  (27) 
adg

>  <m_score__min__energy>  (27) 
-5.5800000000000001

>  <m_primary>  (27) 
energy

$$$$
27:0
     RDKit          3D

 47 48  0  0  0  0  0  0  0  0999 V2000
   57.1540   31.2170   42.9960 C   0  0  0  0  0  0  0  0  0  0  0  0
   56.1740   30.1430   43.4440 C   0  0  0  0  0  0  0  0  0  0  0  0
   56.1390   30.1080   44.8550 O   0  0  0  0  0  0  0  0  0  0  0  0
   57.1010   29.1970   45.3540 C   0  0  0  0  0  0  0  0  0  0  0  0
   58.3730   29.9310   45.7960 C   0  0  0  0  0  0  0  0  0  0  0  0
   59.6290   29.3500   45.1380 C   0  0  0  0  0  0  0  0  0  0  0  0
   60.7990   29.5840   46.0040 N   0  0  0  0  0  0  0  0  0  0  0  0
   60.5070   30.5050   47.1140 C   0  0  0  0  0  0  0  0  0  0  0  0
   61.4740   31.6680   47.1240 C   0  0  0  0  0  0  0  0  0  0  0  0
   62.8280   31.4340   47.4210 C   0  0  0  0  0  0  0  0  0  0  0  0
   63.7300   32.4510   47.3840 N   0  0  0  0  0  0  0  0  0  0  0  0
   63.3620   33.7160   47.0530 C   0  0  0  0  0  0  0  0  0  0  0  0
   62.0320   34.0030   46.7450 C   0  0  0  0  0  0  0  0  0  0  0  0
   61.0750   32.9810   46.7810 C   0  0  0  0  0  0  0  0  0  0  0  0
   59.6740   33.3070   46.4320 C   0  0  0  0  0  0  0  0  0  0  0  0
   59.3680   33.7670   45.1430 C   0  0  0  0  0  0  0  0  0  0  0  0
   58.0510   34.0780   44.7990 C   0  0  0  0  0  0  0  0  0  0  0  0
   57.0290   33.9230   45.7370 C   0  0  0  0  0  0  0  0  0  0  0  0
   57.3190   33.4520   47.0190 C   0  0  0  0  0  0  0  0  0  0  0  0
   58.6440   33.1350   47.3800 C   0  0  0  0  0  0  0  0  0  0  0  0
   58.9710   32.6580   48.6590 O   0  0  0  0  0  0  0  0  0  0  0  0
   59.5750   33.4400   49.6840 C   0  0  0  0  0  0  0  0  0  0  0  0
   57.5960   31.7014   43.8791 H   0  0  0  0  0  0  0  0  0  0  0  0
   57.9507   30.7577   42.3925 H   0  0  0  0  0  0  0  0  0  0  0  0
   56.6238   31.9684   42.3925 H   0  0  0  0  0  0  0  0  0  0  0  0
   55.1710   30.3750   43.0565 H   0  0  0  0  0  0  0  0  0  0  0  0
   56.4948   29.1645   43.0572 H   0  0  0  0  0  0  0  0  0  0  0  0
   56.6765   28.6613   46.2159 H   0  0  0  0  0  0  0  0  0  0  0  0
   57.3637   28.4900   44.5533 H   0  0  0  0  0  0  0  0  0  0  0  0
   58.2853   30.9919   45.5189 H   0  0  0  0  0  0  0  0  0  0  0  0
   58.4735   29.8112   46.8848 H   0  0  0  0  0  0  0  0  0  0  0  0
   59.4959   28.2684   44.9881 H   0  0  0  0  0  0  0  0  0  0  0  0
   59.7912   29.8411   44.1672 H   0  0  0  0  0  0  0  0  0  0  0  0
   61.5510   30.0260   45.4260 H   0  0  0  0  0  0  0  0  0  0  0  0
   59.4828   30.8901   47.0016 H   0  0  0  0  0  0  0  0  0  0  0  0
   60.6111   29.9554   48.0612 H   0  0  0  0  0  0  0  0  0  0  0  0
   63.1607   30.4195   47.6856 H   0  0  0  0  0  0  0  0  0  0  0  0
   64.7310   32.2530   47.6080 H   0  0  0  0  0  0  0  0  0  0  0  0
   64.1155   34.5170   47.0277 H   0  0  0  0  0  0  0  0  0  0  0  0
   61.7362   35.0275   46.4750 H   0  0  0  0  0  0  0  0  0  0  0  0
   60.1698   33.8834   44.3990 H   0  0  0  0  0  0  0  0  0  0  0  0
   57.8188   34.4453   43.7885 H   0  0  0  0  0  0  0  0  0  0  0  0
   55.9926   34.1725   45.4655 H   0  0  0  0  0  0  0  0  0  0  0  0
   56.5082   33.3276   47.7519 H   0  0  0  0  0  0  0  0  0  0  0  0
   59.2741   33.0505   50.6677 H   0  0  0  0  0  0  0  0  0  0  0  0
   60.6696   33.3878   49.5881 H   0  0  0  0  0  0  0  0  0  0  0  0
   59.2480   34.4859   49.5881 H   0  0  0  0  0  0  0  0  0  0  0  0
  1  2  1  0
  2  3  1  0
  3  4  1  0
  4  5  1  0
  5  6  1  0
  6  7  1  0
  7  8  1  0
  8  9  1  0
  9 10  2  0
 10 11  1  0
 11 12  2  0
 12 13  1  0
 13 14  2  0
 14 15  1  0
 15 16  2  0
 16 17  1  0
 17 18  2  0
 18 19  1  0
 19 20  2  0
 20 21  1  0
 21 22  1  0
 14  9  1  0
 20 15  1  0
  1 23  1  0
  1 24  1  0
  1 25  1  0
  2 26  1  0
  2 27  1  0
  4 28  1  0
  4 29  1  0
  5 30  1  0
  5 31  1  0
  6 32  1  0
  6 33  1  0
  7 34  1  0
  8 35  1  0
  8 36  1  0
 10 37  1  0
 11 38  1  0
 12 39  1  0
 13 40  1  0
 16 41  1  0
 17 42  1  0
 18 43  1  0
 19 44  1  0
 22 45  1  0
 22 46  1  0
 22 47  1  0
M  CHG  1  11   1
M  END
>  <UniqueID>  (28) 
28

>  <SMILES>  (28) 
CCOCCCNCc1c[nH+]ccc1-c1ccccc1OC

>  <Energy>  (28) 
47.93089192225515

>  <Genealogy>  (28) 
CCOCCCNCc1c[nH+]ccc1-c1ccccc1OC (protonated)
CCOCCCNCc1c[nH+]ccc1-c1ccccc1OC (3D coordinates assigned)
CCOCCCNCc1c[nH+]ccc1-c1ccccc1OC (optimized conformer: 47.93089192225515 kcal/mol)

>  <smiles>  (28) 
CCOCCCNCc1cnccc1-c1ccccc1OC

>  <score_type>  (28) 
oracle

>  <origin>  (28) 
adg

>  <m_score__min__energy>  (28) 
-5.5700000000000003

>  <m_primary>  (28) 
energy

$$$$
28:0
     RDKit          3D

 42 43  0  0  0  0  0  0  0  0999 V2000
   57.2480   33.7940   44.9400 C   0  0  0  0  0  0  0  0  0  0  0  0
   57.9650   32.4820   44.6340 C   0  0  0  0  0  0  0  0  0  0  0  0
   57.3000   31.3810   45.2490 O   0  0  0  0  0  0  0  0  0  0  0  0
   57.5180   30.0280   44.9470 C   0  0  0  0  0  0  0  0  0  0  0  0
   58.3670   29.2040   45.6640 C   0  0  0  0  0  0  0  0  0  0  0  0
   59.2100   29.5710   46.8580 C   0  0  0  0  0  0  0  0  0  0  0  0
   58.5640   30.5590   47.7410 N   0  0  0  0  0  0  0  0  0  0  0  0
   59.5110   31.3450   48.5490 C   0  0  0  0  0  0  0  0  0  0  0  0
   59.8200   32.6750   47.9140 C   0  0  0  0  0  0  0  0  0  0  0  0
   58.9260   33.7230   47.7880 C   0  0  0  0  0  0  0  0  0  0  0  0
   59.5840   34.7180   47.0910 C   0  0  0  0  0  0  0  0  0  0  0  0
   60.8460   34.2340   46.8050 C   0  0  0  0  0  0  0  0  0  0  0  0
   60.9820   32.9890   47.2990 N   0  0  0  0  0  0  0  0  0  0  0  0
   62.1640   32.1410   47.1590 C   0  0  0  0  0  0  0  0  0  0  0  0
   58.2730   27.9720   45.0330 C   0  0  0  0  0  0  0  0  0  0  0  0
   58.9360   26.6970   45.4500 C   0  0  0  0  0  0  0  0  0  0  0  0
   57.4000   28.0690   44.0120 N   0  0  0  0  0  0  0  0  0  0  0  0
   56.9390   29.3100   43.9540 N   0  0  0  0  0  0  0  0  0  0  0  0
   55.9060   29.7360   43.0150 C   0  0  0  0  0  0  0  0  0  0  0  0
   57.1755   33.9267   46.0295 H   0  0  0  0  0  0  0  0  0  0  0  0
   57.8140   34.6312   44.5055 H   0  0  0  0  0  0  0  0  0  0  0  0
   56.2377   33.7697   44.5055 H   0  0  0  0  0  0  0  0  0  0  0  0
   57.9841   32.3280   43.5450 H   0  0  0  0  0  0  0  0  0  0  0  0
   58.9885   32.5405   45.0329 H   0  0  0  0  0  0  0  0  0  0  0  0
   59.4087   28.6588   47.4398 H   0  0  0  0  0  0  0  0  0  0  0  0
   60.1359   30.0272   46.4777 H   0  0  0  0  0  0  0  0  0  0  0  0
   58.0040   31.2210   47.1560 H   0  0  0  0  0  0  0  0  0  0  0  0
   59.0724   31.5185   49.5427 H   0  0  0  0  0  0  0  0  0  0  0  0
   60.4496   30.7763   48.6243 H   0  0  0  0  0  0  0  0  0  0  0  0
   57.8943   33.7574   48.1679 H   0  0  0  0  0  0  0  0  0  0  0  0
   59.1812   35.7042   46.8169 H   0  0  0  0  0  0  0  0  0  0  0  0
   61.6240   34.7841   46.2554 H   0  0  0  0  0  0  0  0  0  0  0  0
   62.5413   31.8703   48.1562 H   0  0  0  0  0  0  0  0  0  0  0  0
   61.8966   31.2274   46.6077 H   0  0  0  0  0  0  0  0  0  0  0  0
   62.9437   32.6870   46.6077 H   0  0  0  0  0  0  0  0  0  0  0  0
   58.9651   26.6410   46.5482 H   0  0  0  0  0  0  0  0  0  0  0  0
   58.3683   25.8420   45.0542 H   0  0  0  0  0  0  0  0  0  0  0  0
   59.9620   26.6707   45.0542 H   0  0  0  0  0  0  0  0  0  0  0  0
   57.1020   27.2910   43.3810 H   0  0  0  0  0  0  0  0  0  0  0  0
   55.0297   30.0974   43.5731 H   0  0  0  0  0  0  0  0  0  0  0  0
   56.2973   30.5461   42.3821 H   0  0  0  0  0  0  0  0  0  0  0  0
   55.6125   28.8855   42.3821 H   0  0  0  0  0  0  0  0  0  0  0  0
  1  2  1  0
  2  3  1  0
  3  4  1  0
  4  5  2  0
  5  6  1  0
  6  7  1  0
  7  8  1  0
  8  9  1  0
  9 10  2  0
 10 11  1  0
 11 12  2  0
 12 13  1  0
 13 14  1  0
  5 15  1  0
 15 16  1  0
 15 17  2  0
 17 18  1  0
 18 19  1  0
 18  4  1  0
 13  9  1  0
  1 20  1  0
  1 21  1  0
  1 22  1  0
  2 23  1  0
  2 24  1  0
  6 25  1  0
  6 26  1  0
  7 27  1  0
  8 28  1  0
  8 29  1  0
 10 30  1  0
 11 31  1  0
 12 32  1  0
 14 33  1  0
 14 34  1  0
 14 35  1  0
 16 36  1  0
 16 37  1  0
 16 38  1  0
 17 39  1  0
 19 40  1  0
 19 41  1  0
 19 42  1  0
M  CHG  1  17   1
M  END
>  <UniqueID>  (29) 
29

>  <SMILES>  (29) 
CCOc1c(CNCc2cccn2C)c(C)[nH+]n1C

>  <Energy>  (29) 
95.33766815309744

>  <Genealogy>  (29) 
CCOc1c(CNCc2cccn2C)c(C)[nH+]n1C (protonated)
CCOc1c(CNCc2cccn2C)c(C)[nH+]n1C (3D coordinates assigned)
CCOc1c(CNCc2cccn2C)c(C)[nH+]n1C (optimized conformer: 95.33766815309744 kcal/mol)

>  <smiles>  (29) 
CCOc1c(CNCc2cccn2C)c(C)nn1C

>  <score_type>  (29) 
oracle

>  <origin>  (29) 
adg

>  <m_score__min__energy>  (29) 
-4.4800000000000004

>  <m_primary>  (29) 
energy

$$$$
29:0
     RDKit          3D

 53 56  0  0  0  0  0  0  0  0999 V2000
   56.9719   34.5069   44.5817 H   0  0  0  0  0  0  0  0  0  0  0  0
   57.8810   33.9450   44.8420 C   0  0  0  0  0  0  0  0  0  0  0  0
   58.9890   34.6400   45.1480 C   0  0  0  0  0  0  0  0  0  0  0  0
   59.3053   35.4378   44.4599 H   0  0  0  0  0  0  0  0  0  0  0  0
   59.8130   34.3960   46.3600 C   0  0  0  0  0  0  0  0  0  0  0  0
   59.2970   34.5520   47.6630 C   0  0  0  0  0  0  0  0  0  0  0  0
   58.2515   34.8618   47.8078 H   0  0  0  0  0  0  0  0  0  0  0  0
   60.1140   34.3130   48.7680 C   0  0  0  0  0  0  0  0  0  0  0  0
   59.7152   34.4408   49.7852 H   0  0  0  0  0  0  0  0  0  0  0  0
   61.4400   33.9110   48.5820 C   0  0  0  0  0  0  0  0  0  0  0  0
   62.2840   33.6680   49.6770 C   0  0  0  0  0  0  0  0  0  0  0  0
   61.9055   33.7954   50.7020 H   0  0  0  0  0  0  0  0  0  0  0  0
   63.6060   33.2640   49.4650 C   0  0  0  0  0  0  0  0  0  0  0  0
   64.2663   33.0746   50.3241 H   0  0  0  0  0  0  0  0  0  0  0  0
   64.0910   33.1000   48.1620 C   0  0  0  0  0  0  0  0  0  0  0  0
   65.1318   32.7828   48.0005 H   0  0  0  0  0  0  0  0  0  0  0  0
   63.2570   33.3380   47.0650 C   0  0  0  0  0  0  0  0  0  0  0  0
   63.6432   33.2060   46.0435 H   0  0  0  0  0  0  0  0  0  0  0  0
   61.9280   33.7450   47.2640 C   0  0  0  0  0  0  0  0  0  0  0  0
   61.1060   33.9830   46.1990 N   0  0  0  0  0  0  0  0  0  0  0  0
   61.4820   33.8590   45.2270 H   0  0  0  0  0  0  0  0  0  0  0  0
   57.8130   32.4610   44.8350 C   0  0  0  0  0  0  0  0  0  0  0  0
   57.3910   31.8180   43.6590 C   0  0  0  0  0  0  0  0  0  0  0  0
   57.0925   32.4196   42.7878 H   0  0  0  0  0  0  0  0  0  0  0  0
   57.3460   30.4230   43.5830 C   0  0  0  0  0  0  0  0  0  0  0  0
   57.0068   29.9356   42.6570 H   0  0  0  0  0  0  0  0  0  0  0  0
   57.7310   29.6430   44.6810 C   0  0  0  0  0  0  0  0  0  0  0  0
   57.7080   28.2420   44.6070 C   0  0  0  0  0  0  0  0  0  0  0  0
   57.3665   27.7506   43.6840 H   0  0  0  0  0  0  0  0  0  0  0  0
   58.1160   27.4630   45.6980 C   0  0  0  0  0  0  0  0  0  0  0  0
   58.1010   26.0670   45.5620 O   0  0  0  0  0  0  0  0  0  0  0  0
   57.4170   25.3700   44.5200 C   0  0  0  0  0  0  0  0  0  0  0  0
   58.0471   24.5428   44.1612 H   0  0  0  0  0  0  0  0  0  0  0  0
   57.2103   26.0683   43.6956 H   0  0  0  0  0  0  0  0  0  0  0  0
   56.0990   24.8100   45.0410 C   0  0  0  0  0  0  0  0  0  0  0  0
   56.1624   23.7130   45.0923 H   0  0  0  0  0  0  0  0  0  0  0  0
   55.2848   25.1011   44.3610 H   0  0  0  0  0  0  0  0  0  0  0  0
   55.8290   25.3480   46.3840 N   0  0  0  0  0  0  0  0  0  0  0  0
   56.2910   26.2880   46.4560 H   0  0  0  0  0  0  0  0  0  0  0  0
   56.3670   24.4840   47.4500 C   0  0  0  0  0  0  0  0  0  0  0  0
   56.2445   24.9848   48.4217 H   0  0  0  0  0  0  0  0  0  0  0  0
   57.4340   24.2965   47.2595 H   0  0  0  0  0  0  0  0  0  0  0  0
   55.6180   23.1510   47.4690 C   0  0  0  0  0  0  0  0  0  0  0  0
   55.4447   22.8426   48.5106 H   0  0  0  0  0  0  0  0  0  0  0  0
   54.6522   23.2657   46.9551 H   0  0  0  0  0  0  0  0  0  0  0  0
   56.2182   22.3858   46.9551 H   0  0  0  0  0  0  0  0  0  0  0  0
   58.5330   28.1020   46.8840 C   0  0  0  0  0  0  0  0  0  0  0  0
   58.8409   27.4980   47.7502 H   0  0  0  0  0  0  0  0  0  0  0  0
   58.5580   29.4960   46.9670 C   0  0  0  0  0  0  0  0  0  0  0  0
   58.8886   29.9836   47.8959 H   0  0  0  0  0  0  0  0  0  0  0  0
   58.1630   30.2770   45.8700 C   0  0  0  0  0  0  0  0  0  0  0  0
   58.2060   31.6780   45.9390 C   0  0  0  0  0  0  0  0  0  0  0  0
   58.5490   32.1688   46.8618 H   0  0  0  0  0  0  0  0  0  0  0  0
  1  2  1  0
  2  3  2  0
  3  4  1  0
  3  5  1  0
  5  6  2  0
  6  7  1  0
  6  8  1  0
  8  9  1  0
  8 10  2  0
 10 11  1  0
 11 12  1  0
 11 13  2  0
 13 14  1  0
 13 15  1  0
 15 16  1  0
 15 17  2  0
 17 18  1  0
 17 19  1  0
 19 20  2  0
 20 21  1  0
  2 22  1  0
 22 23  2  0
 23 24  1  0
 23 25  1  0
 25 26  1  0
 25 27  2  0
 27 28  1  0
 28 29  1  0
 28 30  2  0
 30 31  1  0
 31 32  1  0
 32 33  1  0
 32 34  1  0
 32 35  1  0
 35 36  1  0
 35 37  1  0
 35 38  1  0
 38 39  1  0
 38 40  1  0
 40 41  1  0
 40 42  1  0
 40 43  1  0
 43 44  1  0
 43 45  1  0
 43 46  1  0
 30 47  1  0
 47 48  1  0
 47 49  2  0
 49 50  1  0
 49 51  1  0
 51 52  2  0
 52 53  1  0
 20  5  1  0
 52 22  1  0
 19 10  1  0
 51 27  1  0
M  CHG  1  20   1
M  END
>  <UniqueID>  (30) 
30

>  <SMILES>  (30) 
CCNCCOc1ccc2cc(/C=C/c3ccc4ccccc4[nH+]3)ccc2c1

>  <Energy>  (30) 
64.06001414584982

>  <Genealogy>  (30) 
CCNCCOc1ccc2cc(C=Cc3ccc4ccccc4[nH+]3)ccc2c1 (protonated)
CCNCCOc1ccc2cc(/C=C/c3ccc4ccccc4[nH+]3)ccc2c1 (cis-trans isomerization)
CCNCCOc1ccc2cc(/C=C/c3ccc4ccccc4[nH+]3)ccc2c1 (3D coordinates assigned)
CCNCCOc1ccc2cc(/C=C/c3ccc4ccccc4[nH+]3)ccc2c1 (optimized conformer: 64.06001414584982 kcal/mol)

>  <smiles>  (30) 
CCNCCOc1ccc2cc(C=Cc3ccc4ccccc4n3)ccc2c1

>  <score_type>  (30) 
oracle

>  <origin>  (30) 
adg

>  <m_score__min__energy>  (30) 
-7.7599999999999998

>  <m_primary>  (30) 
energy

$$$$
30:0
     RDKit          3D

 48 50  0  0  0  0  0  0  0  0999 V2000
   63.3770   33.8160   46.3760 C   0  0  0  0  0  0  0  0  0  0  0  0
   63.3920   33.1600   47.7540 C   0  0  0  0  0  0  0  0  0  0  0  0
   62.0170   32.9960   48.2850 N   0  0  0  0  0  0  0  0  0  0  0  0
   61.5740   34.2230   48.9850 C   0  0  0  0  0  0  0  0  0  0  0  0
   60.0690   34.1760   49.2430 C   0  0  0  0  0  0  0  0  0  0  0  0
   61.8940   31.7830   49.1380 C   0  0  0  0  0  0  0  0  0  0  0  0
   61.0390   30.7220   48.4260 C   0  0  0  0  0  0  0  0  0  0  0  0
   61.2180   30.7350   46.9570 N   0  0  0  0  0  0  0  0  0  0  0  0
   59.9540   30.5480   46.2580 C   0  0  0  0  0  0  0  0  0  0  0  0
   59.1290   31.6600   45.9190 C   0  0  0  0  0  0  0  0  0  0  0  0
   59.5030   32.9870   46.2370 C   0  0  0  0  0  0  0  0  0  0  0  0
   58.6920   34.0670   45.8900 C   0  0  0  0  0  0  0  0  0  0  0  0
   57.4960   33.8530   45.2150 C   0  0  0  0  0  0  0  0  0  0  0  0
   57.1010   32.5590   44.8830 C   0  0  0  0  0  0  0  0  0  0  0  0
   57.8980   31.4480   45.2330 C   0  0  0  0  0  0  0  0  0  0  0  0
   57.4930   30.1400   44.8880 C   0  0  0  0  0  0  0  0  0  0  0  0
   56.2530   29.9250   44.1980 N   0  0  0  0  0  0  0  0  0  0  0  0
   56.1450   30.2340   42.9930 O   0  0  0  0  0  0  0  0  0  0  0  0
   55.1690   29.4120   44.8700 O   0  0  0  0  0  0  0  0  0  0  0  0
   58.3110   29.0420   45.2180 C   0  0  0  0  0  0  0  0  0  0  0  0
   57.9310   27.7210   44.9040 C   0  0  0  0  0  0  0  0  0  0  0  0
   58.7550   26.6500   45.2460 C   0  0  0  0  0  0  0  0  0  0  0  0
   59.9530   26.8970   45.9060 C   0  0  0  0  0  0  0  0  0  0  0  0
   60.3070   28.1700   46.2150 N   0  0  0  0  0  0  0  0  0  0  0  0
   59.5350   29.2470   45.8980 C   0  0  0  0  0  0  0  0  0  0  0  0
   63.3520   34.9097   46.4908 H   0  0  0  0  0  0  0  0  0  0  0  0
   64.2820   33.5261   45.8220 H   0  0  0  0  0  0  0  0  0  0  0  0
   62.4862   33.4850   45.8220 H   0  0  0  0  0  0  0  0  0  0  0  0
   63.8666   32.1708   47.6753 H   0  0  0  0  0  0  0  0  0  0  0  0
   63.9560   33.8072   48.4417 H   0  0  0  0  0  0  0  0  0  0  0  0
   62.1039   34.3034   49.9456 H   0  0  0  0  0  0  0  0  0  0  0  0
   61.8004   35.0949   48.3538 H   0  0  0  0  0  0  0  0  0  0  0  0
   59.8828   34.1702   50.3271 H   0  0  0  0  0  0  0  0  0  0  0  0
   59.5922   35.0597   48.7938 H   0  0  0  0  0  0  0  0  0  0  0  0
   59.6483   33.2643   48.7938 H   0  0  0  0  0  0  0  0  0  0  0  0
   62.8956   31.3723   49.3333 H   0  0  0  0  0  0  0  0  0  0  0  0
   61.4109   32.0575   50.0873 H   0  0  0  0  0  0  0  0  0  0  0  0
   61.3219   29.7293   48.8061 H   0  0  0  0  0  0  0  0  0  0  0  0
   59.9836   30.9520   48.6339 H   0  0  0  0  0  0  0  0  0  0  0  0
   61.8820   29.9790   46.6750 H   0  0  0  0  0  0  0  0  0  0  0  0
   61.7000   31.6120   46.6550 H   0  0  0  0  0  0  0  0  0  0  0  0
   60.4495   33.1698   46.7669 H   0  0  0  0  0  0  0  0  0  0  0  0
   58.9994   35.0904   46.1510 H   0  0  0  0  0  0  0  0  0  0  0  0
   56.8596   34.7077   44.9422 H   0  0  0  0  0  0  0  0  0  0  0  0
   56.1566   32.4012   44.3415 H   0  0  0  0  0  0  0  0  0  0  0  0
   56.9786   27.5345   44.3861 H   0  0  0  0  0  0  0  0  0  0  0  0
   58.4602   25.6201   44.9962 H   0  0  0  0  0  0  0  0  0  0  0  0
   60.6140   26.0608   46.1778 H   0  0  0  0  0  0  0  0  0  0  0  0
  1  2  1  0
  2  3  1  0
  3  4  1  0
  4  5  1  0
  3  6  1  0
  6  7  1  0
  7  8  1  0
  8  9  1  0
  9 10  2  0
 10 11  1  0
 11 12  2  0
 12 13  1  0
 13 14  2  0
 14 15  1  0
 15 16  2  0
 16 17  1  0
 17 18  2  0
 17 19  1  0
 16 20  1  0
 20 21  2  0
 21 22  1  0
 22 23  2  0
 23 24  1  0
 24 25  2  0
 25  9  1  0
 15 10  1  0
 25 20  1  0
  1 26  1  0
  1 27  1  0
  1 28  1  0
  2 29  1  0
  2 30  1  0
  4 31  1  0
  4 32  1  0
  5 33  1  0
  5 34  1  0
  5 35  1  0
  6 36  1  0
  6 37  1  0
  7 38  1  0
  7 39  1  0
  8 40  1  0
  8 41  1  0
 11 42  1  0
 12 43  1  0
 13 44  1  0
 14 45  1  0
 21 46  1  0
 22 47  1  0
 23 48  1  0
M  CHG  3   8   1  17   1  19  -1
M  END
>  <UniqueID>  (31) 
31

>  <SMILES>  (31) 
CCN(CC)CC[NH2+]c1c2ccccc2c([N+](=O)[O-])c2cccnc12

>  <Energy>  (31) 
73.01036447659486

>  <Genealogy>  (31) 
CCN(CC)CC[NH2+]c1c2ccccc2c([N+](=O)[O-])c2cccnc12 (protonated)
CCN(CC)CC[NH2+]c1c2ccccc2c([N+](=O)[O-])c2cccnc12 (3D coordinates assigned)
CCN(CC)CC[NH2+]c1c2ccccc2c([N+](=O)[O-])c2cccnc12 (optimized conformer: 73.01036447659486 kcal/mol)

>  <smiles>  (31) 
CCN(CC)CCNc1c2ccccc2c([N+](=O)[O-])c2cccnc12

>  <score_type>  (31) 
oracle

>  <origin>  (31) 
adg

>  <m_score__min__energy>  (31) 
-6.6600000000000001

>  <m_primary>  (31) 
energy

$$$$
31:0
     RDKit          3D

 45 46  0  0  0  0  0  0  0  0999 V2000
   59.4990   28.2560   44.8800 C   0  0  0  0  0  0  0  0  0  0  0  0
   58.2330   27.6980   44.2390 C   0  0  0  0  0  0  0  0  0  0  0  0
   57.0790   28.1280   44.9560 O   0  0  0  0  0  0  0  0  0  0  0  0
   56.3950   29.3160   44.6720 C   0  0  0  0  0  0  0  0  0  0  0  0
   55.1520   29.4070   44.8640 O   0  0  0  0  0  0  0  0  0  0  0  0
   57.1500   30.4910   44.1400 C   0  0  0  0  0  0  0  0  0  0  0  0
   56.8320   31.6670   44.8830 O   0  0  0  0  0  0  0  0  0  0  0  0
   57.7390   32.4010   45.6680 C   0  0  0  0  0  0  0  0  0  0  0  0
   58.6850   31.7930   46.5140 C   0  0  0  0  0  0  0  0  0  0  0  0
   59.5180   32.5340   47.2390 O   0  0  0  0  0  0  0  0  0  0  0  0
   59.5120   33.8630   47.2110 C   0  0  0  0  0  0  0  0  0  0  0  0
   60.4950   34.6170   48.0580 C   0  0  0  0  0  0  0  0  0  0  0  0
   61.4490   33.6820   48.6880 N   0  0  0  0  0  0  0  0  0  0  0  0
   61.9230   34.2250   49.9790 C   0  0  0  0  0  0  0  0  0  0  0  0
   63.1040   33.4070   50.5490 C   0  0  0  0  0  0  0  0  0  0  0  0
   63.2430   32.1130   49.8520 N   0  0  0  0  0  0  0  0  0  0  0  0
   64.3220   31.3160   50.4580 C   0  0  0  0  0  0  0  0  0  0  0  0
   63.5040   32.3200   48.4080 C   0  0  0  0  0  0  0  0  0  0  0  0
   62.5970   33.4110   47.8010 C   0  0  0  0  0  0  0  0  0  0  0  0
   58.6020   34.5410   46.3880 C   0  0  0  0  0  0  0  0  0  0  0  0
   57.7120   33.7990   45.6120 C   0  0  0  0  0  0  0  0  0  0  0  0
   56.8870   34.3890   44.8650 O   0  0  0  0  0  0  0  0  0  0  0  0
   59.4045   28.2143   45.9751 H   0  0  0  0  0  0  0  0  0  0  0  0
   60.3651   27.6562   44.5636 H   0  0  0  0  0  0  0  0  0  0  0  0
   59.6407   29.3000   44.5636 H   0  0  0  0  0  0  0  0  0  0  0  0
   58.1667   28.0530   43.2000 H   0  0  0  0  0  0  0  0  0  0  0  0
   58.2772   26.5991   44.2623 H   0  0  0  0  0  0  0  0  0  0  0  0
   58.2293   30.2937   44.2189 H   0  0  0  0  0  0  0  0  0  0  0  0
   56.8692   30.6478   43.0881 H   0  0  0  0  0  0  0  0  0  0  0  0
   58.7359   30.6959   46.5761 H   0  0  0  0  0  0  0  0  0  0  0  0
   61.0472   35.3290   47.4270 H   0  0  0  0  0  0  0  0  0  0  0  0
   59.9494   35.1575   48.8455 H   0  0  0  0  0  0  0  0  0  0  0  0
   62.2499   35.2646   49.8291 H   0  0  0  0  0  0  0  0  0  0  0  0
   61.0920   34.1705   50.6977 H   0  0  0  0  0  0  0  0  0  0  0  0
   64.0327   33.9832   50.4245 H   0  0  0  0  0  0  0  0  0  0  0  0
   62.9095   33.2100   51.6136 H   0  0  0  0  0  0  0  0  0  0  0  0
   62.3510   31.5720   49.9620 H   0  0  0  0  0  0  0  0  0  0  0  0
   64.2473   31.3711   51.5541 H   0  0  0  0  0  0  0  0  0  0  0  0
   64.2289   30.2682   50.1364 H   0  0  0  0  0  0  0  0  0  0  0  0
   65.2961   31.7131   50.1364 H   0  0  0  0  0  0  0  0  0  0  0  0
   64.5543   32.6198   48.2775 H   0  0  0  0  0  0  0  0  0  0  0  0
   63.2892   31.3750   47.8877 H   0  0  0  0  0  0  0  0  0  0  0  0
   63.1797   34.3348   47.6708 H   0  0  0  0  0  0  0  0  0  0  0  0
   62.2202   33.0598   46.8291 H   0  0  0  0  0  0  0  0  0  0  0  0
   58.5901   35.6404   46.3548 H   0  0  0  0  0  0  0  0  0  0  0  0
  1  2  1  0
  2  3  1  0
  3  4  1  0
  4  5  2  0
  4  6  1  0
  6  7  1  0
  7  8  1  0
  8  9  2  0
  9 10  1  0
 10 11  1  0
 11 12  1  0
 12 13  1  0
 13 14  1  0
 14 15  1  0
 15 16  1  0
 16 17  1  0
 16 18  1  0
 18 19  1  0
 11 20  2  0
 20 21  1  0
 21 22  2  0
 21  8  1  0
 19 13  1  0
  1 23  1  0
  1 24  1  0
  1 25  1  0
  2 26  1  0
  2 27  1  0
  6 28  1  0
  6 29  1  0
  9 30  1  0
 12 31  1  0
 12 32  1  0
 14 33  1  0
 14 34  1  0
 15 35  1  0
 15 36  1  0
 16 37  1  0
 17 38  1  0
 17 39  1  0
 17 40  1  0
 18 41  1  0
 18 42  1  0
 19 43  1  0
 19 44  1  0
 20 45  1  0
M  CHG  1  16   1
M  END
>  <UniqueID>  (32) 
32

>  <SMILES>  (32) 
CCOC(=O)COc1coc(CN2CC[NH+](C)CC2)cc1=O

>  <Energy>  (32) 
47.66187977973793

>  <Genealogy>  (32) 
CCOC(=O)COc1coc(CN2CC[NH+](C)CC2)cc1=O (protonated)
CCOC(=O)COc1coc(CN2CC[NH+](C)CC2)cc1=O (3D coordinates assigned)
CCOC(=O)COc1coc(CN2CC[NH+](C)CC2)cc1=O (nonaromatic ring conformer: 47.66187977973793 kcal/mol)

>  <smiles>  (32) 
CCOC(=O)COc1coc(CN2CCN(C)CC2)cc1=O

>  <score_type>  (32) 
oracle

>  <origin>  (32) 
adg

>  <m_score__min__energy>  (32) 
-5.0499999999999998

>  <m_primary>  (32) 
energy

$$$$
