0:0
     RDKit          3D

 21 21  0  0  0  0  0  0  0  0999 V2000
   56.6500   30.2500   43.0410 C   0  0  0  0  0  0  0  0  0  0  0  0
   56.3020   30.0040   44.4690 C   0  0  0  0  0  0  0  0  0  0  0  0
   55.1720   29.5250   44.7570 O   0  0  0  0  0  0  0  0  0  0  0  0
   57.1910   30.4120   45.4710 O   0  0  0  0  0  0  0  0  0  0  0  0
   57.7660   31.6870   45.5770 C   0  0  0  0  0  0  0  0  0  0  0  0
   57.1200   32.8450   45.1090 C   0  0  0  0  0  0  0  0  0  0  0  0
   57.7280   34.0970   45.2490 C   0  0  0  0  0  0  0  0  0  0  0  0
   58.9770   34.2120   45.8780 C   0  0  0  0  0  0  0  0  0  0  0  0
   59.6460   35.5490   45.9930 C   0  0  0  0  0  0  0  0  0  0  0  0
   59.6190   33.0570   46.3470 C   0  0  0  0  0  0  0  0  0  0  0  0
   59.0100   31.8060   46.2070 C   0  0  0  0  0  0  0  0  0  0  0  0
   57.5471   30.8842   42.9862 H   0  0  0  0  0  0  0  0  0  0  0  0
   56.8483   29.2903   42.5414 H   0  0  0  0  0  0  0  0  0  0  0  0
   55.8114   30.7571   42.5414 H   0  0  0  0  0  0  0  0  0  0  0  0
   56.1325   32.7660   44.6309 H   0  0  0  0  0  0  0  0  0  0  0  0
   57.2244   34.9960   44.8640 H   0  0  0  0  0  0  0  0  0  0  0  0
   59.7740   35.8048   47.0552 H   0  0  0  0  0  0  0  0  0  0  0  0
   60.6306   35.5096   45.5041 H   0  0  0  0  0  0  0  0  0  0  0  0
   59.0242   36.3134   45.5041 H   0  0  0  0  0  0  0  0  0  0  0  0
   60.6057   33.1353   46.8270 H   0  0  0  0  0  0  0  0  0  0  0  0
   59.5129   30.9080   46.5953 H   0  0  0  0  0  0  0  0  0  0  0  0
  1  2  1  0
  2  3  2  0
  2  4  1  0
  4  5  1  0
  5  6  2  0
  6  7  1  0
  7  8  2  0
  8  9  1  0
  8 10  1  0
 10 11  2  0
 11  5  1  0
  1 12  1  0
  1 13  1  0
  1 14  1  0
  6 15  1  0
  7 16  1  0
  9 17  1  0
  9 18  1  0
  9 19  1  0
 10 20  1  0
 11 21  1  0
M  END
>  <UniqueID>  (1) 
1

>  <SMILES>  (1) 
CC(=O)Oc1ccc(C)cc1

>  <Energy>  (1) 
21.073803312937073

>  <Genealogy>  (1) 
CC(=O)Oc1ccc(C)cc1 (3D coordinates assigned)
CC(=O)Oc1ccc(C)cc1 (optimized conformer: 21.073803312937073 kcal/mol)

>  <smiles>  (1) 
CC(=O)Oc1ccc(C)cc1

>  <score_type>  (1) 
oracle

>  <origin>  (1) 
adg

>  <m_score__min__energy>  (1) 
-5.4500000000000002

>  <m_primary>  (1) 
energy

$$$$
1:0
     RDKit          3D

 45 46  0  0  0  0  0  0  0  0999 V2000
   57.2740   34.5230   44.8910 C   0  0  0  0  0  0  0  0  0  0  0  0
   58.2490   34.4610   45.9260 O   0  0  0  0  0  0  0  0  0  0  0  0
   58.8960   33.2870   46.3370 C   0  0  0  0  0  0  0  0  0  0  0  0
   60.2320   33.3700   46.7420 C   0  0  0  0  0  0  0  0  0  0  0  0
   60.9180   32.2300   47.1680 C   0  0  0  0  0  0  0  0  0  0  0  0
   60.2750   30.9810   47.2010 C   0  0  0  0  0  0  0  0  0  0  0  0
   60.9850   29.8060   47.6580 N   0  0  0  0  0  0  0  0  0  0  0  0
   60.0590   28.8000   48.2280 C   0  0  2  0  0  0  0  0  0  0  0  0
   59.9300   29.0020   49.7460 C   0  0  0  0  0  0  0  0  0  0  0  0
   60.5260   27.3460   47.9170 C   0  0  0  0  0  0  0  0  0  0  0  0
   60.1680   26.8990   46.4910 C   0  0  0  0  0  0  0  0  0  0  0  0
   58.6770   26.7360   46.3170 C   0  0  0  0  0  0  0  0  0  0  0  0
   58.0310   25.5680   46.7490 C   0  0  0  0  0  0  0  0  0  0  0  0
   56.6470   25.4400   46.6190 C   0  0  0  0  0  0  0  0  0  0  0  0
   55.8940   26.4750   46.0560 C   0  0  0  0  0  0  0  0  0  0  0  0
   54.5160   26.3350   45.9400 O   0  0  0  0  0  0  0  0  0  0  0  0
   56.5210   27.6480   45.6170 C   0  0  0  0  0  0  0  0  0  0  0  0
   55.7270   28.6650   45.0630 O   0  0  0  0  0  0  0  0  0  0  0  0
   56.2130   29.6810   44.1930 C   0  0  0  0  0  0  0  0  0  0  0  0
   57.9180   27.7730   45.7490 C   0  0  0  0  0  0  0  0  0  0  0  0
   58.9350   30.8950   46.7850 C   0  0  0  0  0  0  0  0  0  0  0  0
   58.2500   32.0360   46.3580 C   0  0  0  0  0  0  0  0  0  0  0  0
   56.2702   34.5868   45.3363 H   0  0  0  0  0  0  0  0  0  0  0  0
   57.4561   35.4114   44.2684 H   0  0  0  0  0  0  0  0  0  0  0  0
   57.3421   33.6187   44.2684 H   0  0  0  0  0  0  0  0  0  0  0  0
   60.7473   34.3417   46.7250 H   0  0  0  0  0  0  0  0  0  0  0  0
   61.9697   32.3107   47.4800 H   0  0  0  0  0  0  0  0  0  0  0  0
   61.6700   30.1120   48.3880 H   0  0  0  0  0  0  0  0  0  0  0  0
   61.5380   29.3800   46.8770 H   0  0  0  0  0  0  0  0  0  0  0  0
   59.0757   28.9431   47.7562 H   0  0  0  0  0  0  0  0  0  0  0  0
   60.4506   28.1868   50.2699 H   0  0  0  0  0  0  0  0  0  0  0  0
   60.3805   29.9653   50.0273 H   0  0  0  0  0  0  0  0  0  0  0  0
   58.8666   28.9985   50.0273 H   0  0  0  0  0  0  0  0  0  0  0  0
   61.6181   27.2939   48.0381 H   0  0  0  0  0  0  0  0  0  0  0  0
   60.0060   26.6740   48.6156 H   0  0  0  0  0  0  0  0  0  0  0  0
   60.5299   27.6549   45.7786 H   0  0  0  0  0  0  0  0  0  0  0  0
   60.6443   25.9248   46.3062 H   0  0  0  0  0  0  0  0  0  0  0  0
   58.6175   24.7496   47.1920 H   0  0  0  0  0  0  0  0  0  0  0  0
   56.1470   24.5217   46.9607 H   0  0  0  0  0  0  0  0  0  0  0  0
   56.6118   30.5147   44.7896 H   0  0  0  0  0  0  0  0  0  0  0  0
   57.0116   29.2692   43.5585 H   0  0  0  0  0  0  0  0  0  0  0  0
   55.3912   30.0444   43.5585 H   0  0  0  0  0  0  0  0  0  0  0  0
   58.4186   28.6899   45.4046 H   0  0  0  0  0  0  0  0  0  0  0  0
   58.4216   29.9222   46.7956 H   0  0  0  0  0  0  0  0  0  0  0  0
   57.2010   31.9563   46.0367 H   0  0  0  0  0  0  0  0  0  0  0  0
  1  2  1  0
  2  3  1  0
  3  4  2  0
  4  5  1  0
  5  6  2  0
  6  7  1  0
  7  8  1  0
  8  9  1  0
  8 10  1  0
 10 11  1  0
 11 12  1  0
 12 13  2  0
 13 14  1  0
 14 15  2  0
 15 16  1  0
 15 17  1  0
 17 18  1  0
 18 19  1  0
 17 20  2  0
  6 21  1  0
 21 22  2  0
 22  3  1  0
 20 12  1  0
  1 23  1  0
  1 24  1  0
  1 25  1  0
  4 26  1  0
  5 27  1  0
  7 28  1  0
  7 29  1  0
  8 30  1  6
  9 31  1  0
  9 32  1  0
  9 33  1  0
 10 34  1  0
 10 35  1  0
 11 36  1  0
 11 37  1  0
 13 38  1  0
 14 39  1  0
 19 40  1  0
 19 41  1  0
 19 42  1  0
 20 43  1  0
 21 44  1  0
 22 45  1  0
M  CHG  2   7   1  16  -1
M  END
>  <UniqueID>  (2) 
2

>  <SMILES>  (2) 
COc1ccc([NH2+][C@H](C)CCc2ccc([O-])c(OC)c2)cc1

>  <Energy>  (2) 
37.798919193985505

>  <Genealogy>  (2) 
COc1ccc([NH2+]C(C)CCc2ccc([O-])c(OC)c2)cc1 (protonated)
COc1ccc([NH2+][C@H](C)CCc2ccc([O-])c(OC)c2)cc1 (chirality)
COc1ccc([NH2+][C@H](C)CCc2ccc([O-])c(OC)c2)cc1 (3D coordinates assigned)
COc1ccc([NH2+][C@H](C)CCc2ccc([O-])c(OC)c2)cc1 (optimized conformer: 37.798919193985505 kcal/mol)

>  <smiles>  (2) 
COc1ccc(NC(C)CCc2ccc(O)c(OC)c2)cc1

>  <score_type>  (2) 
oracle

>  <origin>  (2) 
adg

>  <m_score__min__energy>  (2) 
-9.1199999999999992

>  <m_primary>  (2) 
energy

$$$$
2:0
     RDKit          3D

 28 29  0  0  0  0  0  0  0  0999 V2000
   60.7680   29.6770   46.2440 C   0  0  0  0  0  0  0  0  0  0  0  0
   59.6450   29.1340   45.4210 C   0  0  0  0  0  0  0  0  0  0  0  0
   59.6380   27.7930   45.0240 C   0  0  0  0  0  0  0  0  0  0  0  0
   58.5780   27.3330   44.2450 C   0  0  0  0  0  0  0  0  0  0  0  0
   57.5820   28.1830   43.8820 N   0  0  0  0  0  0  0  0  0  0  0  0
   57.6100   29.4900   44.2650 C   0  0  0  0  0  0  0  0  0  0  0  0
   56.3050   30.6090   43.7540 S   0  0  0  0  0  0  0  0  0  0  0  0
   57.4430   31.9210   43.1870 C   0  0  0  0  0  0  0  0  0  0  0  0
   57.8770   32.7910   44.3350 C   0  0  0  0  0  0  0  0  0  0  0  0
   58.8910   33.7490   44.1600 C   0  0  0  0  0  0  0  0  0  0  0  0
   59.2640   34.5800   45.2200 C   0  0  0  0  0  0  0  0  0  0  0  0
   58.6300   34.4620   46.4600 C   0  0  0  0  0  0  0  0  0  0  0  0
   58.9920   35.2710   47.4870 F   0  0  0  0  0  0  0  0  0  0  0  0
   57.6190   33.5130   46.6420 C   0  0  0  0  0  0  0  0  0  0  0  0
   57.2420   32.6810   45.5830 C   0  0  0  0  0  0  0  0  0  0  0  0
   58.6330   29.9530   45.0280 N   0  0  0  0  0  0  0  0  0  0  0  0
   60.5293   29.5616   47.3116 H   0  0  0  0  0  0  0  0  0  0  0  0
   61.6916   29.1260   46.0131 H   0  0  0  0  0  0  0  0  0  0  0  0
   60.9097   30.7431   46.0131 H   0  0  0  0  0  0  0  0  0  0  0  0
   60.4523   27.1154   45.3205 H   0  0  0  0  0  0  0  0  0  0  0  0
   58.5476   26.2814   43.9238 H   0  0  0  0  0  0  0  0  0  0  0  0
   56.7940   27.8280   43.2950 H   0  0  0  0  0  0  0  0  0  0  0  0
   58.3303   31.4560   42.7325 H   0  0  0  0  0  0  0  0  0  0  0  0
   56.9171   32.5475   42.4516 H   0  0  0  0  0  0  0  0  0  0  0  0
   59.3924   33.8448   43.1856 H   0  0  0  0  0  0  0  0  0  0  0  0
   60.0578   35.3281   45.0781 H   0  0  0  0  0  0  0  0  0  0  0  0
   57.1203   33.4210   47.6181 H   0  0  0  0  0  0  0  0  0  0  0  0
   56.4447   31.9372   45.7281 H   0  0  0  0  0  0  0  0  0  0  0  0
  1  2  1  0
  2  3  2  0
  3  4  1  0
  4  5  2  0
  5  6  1  0
  6  7  1  0
  7  8  1  0
  8  9  1  0
  9 10  2  0
 10 11  1  0
 11 12  2  0
 12 13  1  0
 12 14  1  0
 14 15  2  0
  6 16  2  0
 16  2  1  0
 15  9  1  0
  1 17  1  0
  1 18  1  0
  1 19  1  0
  3 20  1  0
  4 21  1  0
  5 22  1  0
  8 23  1  0
  8 24  1  0
 10 25  1  0
 11 26  1  0
 14 27  1  0
 15 28  1  0
M  CHG  1   5   1
M  END
>  <UniqueID>  (3) 
3

>  <SMILES>  (3) 
Cc1cc[nH+]c(SCc2ccc(F)cc2)n1

>  <Energy>  (3) 
22.175252023124898

>  <Genealogy>  (3) 
Cc1cc[nH+]c(SCc2ccc(F)cc2)n1 (protonated)
Cc1cc[nH+]c(SCc2ccc(F)cc2)n1 (3D coordinates assigned)
Cc1cc[nH+]c(SCc2ccc(F)cc2)n1 (optimized conformer: 22.175252023124898 kcal/mol)

>  <smiles>  (3) 
Cc1ccnc(SCc2ccc(F)cc2)n1

>  <score_type>  (3) 
oracle

>  <origin>  (3) 
adg

>  <m_score__min__energy>  (3) 
-4.9400000000000004

>  <m_primary>  (3) 
energy

$$$$
3:0
     RDKit          3D

 40 42  0  0  0  0  0  0  0  0999 V2000
   55.5920   29.8190   44.8490 O   0  0  0  0  0  0  0  0  0  0  0  0
   56.5440   29.4710   44.1630 C   0  0  0  0  0  0  0  0  0  0  0  0
   57.0090   30.3800   43.0480 C   0  0  0  0  0  0  0  0  0  0  0  0
   58.1290   31.2350   43.4640 N   0  0  0  0  0  0  0  0  0  0  0  0
   57.7070   32.6280   43.6610 C   0  0  0  0  0  0  0  0  0  0  0  0
   58.2660   33.1460   44.9570 C   0  0  0  0  0  0  0  0  0  0  0  0
   58.8410   34.4420   45.0140 C   0  0  0  0  0  0  0  0  0  0  0  0
   59.3280   34.9570   46.2290 C   0  0  0  0  0  0  0  0  0  0  0  0
   59.2140   34.1610   47.3670 C   0  0  0  0  0  0  0  0  0  0  0  0
   59.6010   34.4610   48.6170 N   0  0  0  0  0  0  0  0  0  0  0  0
   59.2780   33.3870   49.3730 C   0  0  0  0  0  0  0  0  0  0  0  0
   58.6800   32.3980   48.5960 C   0  0  0  0  0  0  0  0  0  0  0  0
   58.6480   32.9150   47.3190 C   0  0  0  0  0  0  0  0  0  0  0  0
   58.1570   32.3730   46.1330 C   0  0  0  0  0  0  0  0  0  0  0  0
   57.2410   28.2270   44.4430 N   0  0  0  0  0  0  0  0  0  0  0  0
   58.5510   28.1580   43.7460 C   0  0  0  0  0  0  0  0  0  0  0  0
   59.7310   28.5470   44.6560 C   0  0  0  0  0  0  0  0  0  0  0  0
   59.3220   29.4950   45.6150 O   0  0  0  0  0  0  0  0  0  0  0  0
   58.4490   28.8900   46.5520 C   0  0  0  0  0  0  0  0  0  0  0  0
   57.3640   27.9970   45.8980 C   0  0  0  0  0  0  0  0  0  0  0  0
   57.3315   29.7617   42.1973 H   0  0  0  0  0  0  0  0  0  0  0  0
   56.1687   31.0332   42.7702 H   0  0  0  0  0  0  0  0  0  0  0  0
   58.5260   30.8700   44.3620 H   0  0  0  0  0  0  0  0  0  0  0  0
   58.0793   33.2444   42.8294 H   0  0  0  0  0  0  0  0  0  0  0  0
   56.6085   32.6759   43.6919 H   0  0  0  0  0  0  0  0  0  0  0  0
   58.9065   35.0497   44.0994 H   0  0  0  0  0  0  0  0  0  0  0  0
   59.7844   35.9566   46.2792 H   0  0  0  0  0  0  0  0  0  0  0  0
   60.0580   35.3430   48.9430 H   0  0  0  0  0  0  0  0  0  0  0  0
   59.4625   33.3058   50.4544 H   0  0  0  0  0  0  0  0  0  0  0  0
   58.3126   31.4163   48.9295 H   0  0  0  0  0  0  0  0  0  0  0  0
   57.6985   31.3733   46.1137 H   0  0  0  0  0  0  0  0  0  0  0  0
   56.6540   27.4430   44.0690 H   0  0  0  0  0  0  0  0  0  0  0  0
   58.7060   27.1289   43.3897 H   0  0  0  0  0  0  0  0  0  0  0  0
   58.5225   28.8772   42.9142 H   0  0  0  0  0  0  0  0  0  0  0  0
   60.1030   27.6487   45.1705 H   0  0  0  0  0  0  0  0  0  0  0  0
   60.5276   28.9867   44.0378 H   0  0  0  0  0  0  0  0  0  0  0  0
   59.0472   28.2681   47.2343 H   0  0  0  0  0  0  0  0  0  0  0  0
   57.9260   29.7019   47.0785 H   0  0  0  0  0  0  0  0  0  0  0  0
   57.6266   26.9423   46.0672 H   0  0  0  0  0  0  0  0  0  0  0  0
   56.3987   28.2532   46.3590 H   0  0  0  0  0  0  0  0  0  0  0  0
  1  2  2  0
  2  3  1  0
  3  4  1  0
  4  5  1  0
  5  6  1  0
  6  7  2  0
  7  8  1  0
  8  9  2  0
  9 10  1  0
 10 11  1  0
 11 12  2  0
 12 13  1  0
 13 14  2  0
  2 15  1  0
 15 16  1  0
 16 17  1  0
 17 18  1  0
 18 19  1  0
 19 20  1  0
 14  6  1  0
 20 15  1  0
 13  9  1  0
  3 21  1  0
  3 22  1  0
  4 23  1  0
  5 24  1  0
  5 25  1  0
  7 26  1  0
  8 27  1  0
 10 28  1  0
 11 29  1  0
 12 30  1  0
 14 31  1  0
 15 32  1  0
 16 33  1  0
 16 34  1  0
 17 35  1  0
 17 36  1  0
 19 37  1  0
 19 38  1  0
 20 39  1  0
 20 40  1  0
M  CHG  1  15   1
M  END
>  <UniqueID>  (4) 
4

>  <SMILES>  (4) 
O=C(CNCc1ccc2[nH]ccc2c1)[NH+]1CCOCC1

>  <Energy>  (4) 
84.11054499314669

>  <Genealogy>  (4) 
O=C(CNCc1ccc2[nH]ccc2c1)[NH+]1CCOCC1 (protonated)
O=C(CNCc1ccc2[nH]ccc2c1)[NH+]1CCOCC1 (3D coordinates assigned)
O=C(CNCc1ccc2[nH]ccc2c1)[NH+]1CCOCC1 (nonaromatic ring conformer: 84.11054499314669 kcal/mol)

>  <smiles>  (4) 
O=C(CNCc1ccc2[nH]ccc2c1)N1CCOCC1

>  <score_type>  (4) 
oracle

>  <origin>  (4) 
adg

>  <m_score__min__energy>  (4) 
-5.9900000000000002

>  <m_primary>  (4) 
energy

$$$$
4:0
     RDKit          3D

 46 49  0  0  0  0  0  0  0  0999 V2000
   59.5580   34.8950   45.5870 C   0  0  0  0  0  0  0  0  0  0  0  0
   58.8030   33.6650   45.1800 C   0  0  0  0  0  0  0  0  0  0  0  0
   58.4210   32.7280   46.1500 C   0  0  0  0  0  0  0  0  0  0  0  0
   57.7470   31.5600   45.7760 C   0  0  0  0  0  0  0  0  0  0  0  0
   57.4630   31.3120   44.4260 C   0  0  0  0  0  0  0  0  0  0  0  0
   56.6020   29.8520   43.9430 S   0  0  0  0  0  0  0  0  0  0  0  0
   55.5530   29.5120   44.9620 O   0  0  0  0  0  0  0  0  0  0  0  0
   55.9290   30.0660   42.6160 O   0  0  0  0  0  0  0  0  0  0  0  0
   57.7320   28.5520   43.7980 N   0  0  0  0  0  0  0  0  0  0  0  0
   58.3800   28.0270   44.9530 C   0  0  0  0  0  0  0  0  0  0  0  0
   58.4170   26.6290   45.1760 C   0  0  0  0  0  0  0  0  0  0  0  0
   59.0530   26.1060   46.3170 C   0  0  0  0  0  0  0  0  0  0  0  0
   59.6130   27.0080   47.2180 C   0  0  0  0  0  0  0  0  0  0  0  0
   60.2800   26.7310   48.3510 N   0  0  0  0  0  0  0  0  0  0  0  0
   60.6410   27.8910   48.8920 N   0  0  0  0  0  0  0  0  0  0  0  0
   60.2020   28.9040   48.1070 C   0  0  0  0  0  0  0  0  0  0  0  0
   60.3900   30.3330   48.4250 C   0  0  0  0  0  0  0  0  0  0  0  0
   59.4850   30.9860   49.2750 C   0  0  0  0  0  0  0  0  0  0  0  0
   59.6590   32.3400   49.5810 C   0  0  0  0  0  0  0  0  0  0  0  0
   60.7280   33.0530   49.0330 C   0  0  0  0  0  0  0  0  0  0  0  0
   61.6260   32.4150   48.1650 C   0  0  0  0  0  0  0  0  0  0  0  0
   62.9620   33.3040   47.4390 S   0  0  0  0  0  0  0  0  0  0  0  0
   64.1070   32.1930   46.7710 N   0  0  0  0  0  0  0  0  0  0  0  0
   62.4290   34.2010   46.3570 O   0  0  0  0  0  0  0  0  0  0  0  0
   63.6520   34.1450   48.4750 O   0  0  0  0  0  0  0  0  0  0  0  0
   61.4470   31.0620   47.8550 C   0  0  0  0  0  0  0  0  0  0  0  0
   59.5510   28.3580   47.0190 C   0  0  0  0  0  0  0  0  0  0  0  0
   58.9660   28.9100   45.8790 C   0  0  0  0  0  0  0  0  0  0  0  0
   57.8460   32.2460   43.4560 C   0  0  0  0  0  0  0  0  0  0  0  0
   58.5150   33.4160   43.8280 C   0  0  0  0  0  0  0  0  0  0  0  0
   59.5954   34.9559   46.6847 H   0  0  0  0  0  0  0  0  0  0  0  0
   60.5817   34.8459   45.1874 H   0  0  0  0  0  0  0  0  0  0  0  0
   59.0508   35.7856   45.1874 H   0  0  0  0  0  0  0  0  0  0  0  0
   58.6520   32.9116   47.2097 H   0  0  0  0  0  0  0  0  0  0  0  0
   57.4393   30.8346   46.5435 H   0  0  0  0  0  0  0  0  0  0  0  0
   57.9455   25.9476   44.4526 H   0  0  0  0  0  0  0  0  0  0  0  0
   59.1060   25.0212   46.4914 H   0  0  0  0  0  0  0  0  0  0  0  0
   58.6362   30.4319   49.7021 H   0  0  0  0  0  0  0  0  0  0  0  0
   58.9517   32.8449   50.2554 H   0  0  0  0  0  0  0  0  0  0  0  0
   60.8655   34.1155   49.2824 H   0  0  0  0  0  0  0  0  0  0  0  0
   64.8880   32.7570   46.3660 H   0  0  0  0  0  0  0  0  0  0  0  0
   64.5100   31.6520   47.5670 H   0  0  0  0  0  0  0  0  0  0  0  0
   62.1395   30.5654   47.1594 H   0  0  0  0  0  0  0  0  0  0  0  0
   58.9629   29.9969   45.7100 H   0  0  0  0  0  0  0  0  0  0  0  0
   57.6195   32.0585   42.3960 H   0  0  0  0  0  0  0  0  0  0  0  0
   58.8166   34.1434   43.0599 H   0  0  0  0  0  0  0  0  0  0  0  0
  1  2  1  0
  2  3  2  0
  3  4  1  0
  4  5  2  0
  5  6  1  0
  6  7  2  0
  6  8  2  0
  6  9  1  0
  9 10  1  0
 10 11  1  0
 11 12  2  0
 12 13  1  0
 13 14  2  0
 14 15  1  0
 15 16  1  0
 16 17  1  0
 17 18  2  0
 18 19  1  0
 19 20  2  0
 20 21  1  0
 21 22  1  0
 22 23  1  0
 22 24  2  0
 22 25  2  0
 21 26  2  0
 16 27  2  0
 27 28  1  0
  5 29  1  0
 29 30  2  0
 30  2  1  0
 28 10  2  0
 27 13  1  0
 26 17  1  0
  1 31  1  0
  1 32  1  0
  1 33  1  0
  3 34  1  0
  4 35  1  0
 11 36  1  0
 12 37  1  0
 18 38  1  0
 19 39  1  0
 20 40  1  0
 23 41  1  0
 23 42  1  0
 26 43  1  0
 28 44  1  0
 29 45  1  0
 30 46  1  0
M  CHG  2   9  -1  15  -1
M  END
>  <UniqueID>  (5) 
5

>  <SMILES>  (5) 
Cc1ccc(S(=O)(=O)[N-]c2ccc3n[n-]c(-c4cccc(S(N)(=O)=O)c4)c3c2)cc1

>  <Energy>  (5) 
96.19523540552146

>  <Genealogy>  (5) 
Cc1ccc(S(=O)(=O)[N-]c2ccc3n[n-]c(-c4cccc(S(N)(=O)=O)c4)c3c2)cc1 (protonated)
Cc1ccc(S(=O)(=O)[N-]c2ccc3n[n-]c(-c4cccc(S(N)(=O)=O)c4)c3c2)cc1 (3D coordinates assigned)
Cc1ccc(S(=O)(=O)[N-]c2ccc3n[n-]c(-c4cccc(S(N)(=O)=O)c4)c3c2)cc1 (optimized conformer: 96.19523540552146 kcal/mol)

>  <smiles>  (5) 
Cc1ccc(S(=O)(=O)Nc2ccc3n[nH]c(-c4cccc(S(N)(=O)=O)c4)c3c2)cc1

>  <score_type>  (5) 
oracle

>  <origin>  (5) 
adg

>  <m_score__min__energy>  (5) 
-12.19

>  <m_primary>  (5) 
energy

$$$$
5:0
     RDKit          3D

 51 54  0  0  0  0  0  0  0  0999 V2000
   59.4990   34.7870   47.5400 C   0  0  0  0  0  0  0  0  0  0  0  0
   58.7430   33.6560   47.8600 C   0  0  0  0  0  0  0  0  0  0  0  0
   58.0650   32.9590   46.8550 C   0  0  0  0  0  0  0  0  0  0  0  0
   58.1390   33.3920   45.5200 C   0  0  0  0  0  0  0  0  0  0  0  0
   57.4240   32.6280   44.4350 C   0  0  0  0  0  0  0  0  0  0  0  0
   57.3150   31.1280   44.7540 C   0  0  0  0  0  0  0  0  0  0  0  0
   57.5180   30.2470   43.5080 C   0  0  0  0  0  0  0  0  0  0  0  0
   57.2690   28.8120   43.7900 N   0  0  0  0  0  0  0  0  0  0  0  0
   58.4830   27.9660   43.7500 C   0  0  0  0  0  0  0  0  0  0  0  0
   59.4890   28.3660   44.8400 C   0  0  0  0  0  0  0  0  0  0  0  0
   58.7920   28.7600   46.0720 N   0  0  0  0  0  0  0  0  0  0  0  0
   59.4540   29.5600   47.0780 C   0  0  0  0  0  0  0  0  0  0  0  0
   60.4950   30.4430   46.7430 C   0  0  0  0  0  0  0  0  0  0  0  0
   61.0940   31.2110   47.7550 C   0  0  0  0  0  0  0  0  0  0  0  0
   62.1640   32.1340   47.4740 N   0  0  0  0  0  0  0  0  0  0  0  0
   62.1260   33.2670   46.7380 C   0  0  0  0  0  0  0  0  0  0  0  0
   63.3860   33.8290   46.7400 C   0  0  0  0  0  0  0  0  0  0  0  0
   64.2010   33.0490   47.4710 N   0  0  0  0  0  0  0  0  0  0  0  0
   63.4390   32.0290   47.9060 C   0  0  0  0  0  0  0  0  0  0  0  0
   60.6490   31.0750   49.0340 N   0  0  0  0  0  0  0  0  0  0  0  0
   59.6460   30.2180   49.3480 C   0  0  0  0  0  0  0  0  0  0  0  0
   59.0600   29.4730   48.3780 N   0  0  0  0  0  0  0  0  0  0  0  0
   57.4180   28.2830   46.2750 C   0  0  0  0  0  0  0  0  0  0  0  0
   56.5220   28.6270   45.0630 C   0  0  0  0  0  0  0  0  0  0  0  0
   58.9040   34.5290   45.2070 C   0  0  0  0  0  0  0  0  0  0  0  0
   59.5800   35.2220   46.2150 C   0  0  0  0  0  0  0  0  0  0  0  0
   60.0306   35.3350   48.3319 H   0  0  0  0  0  0  0  0  0  0  0  0
   58.6812   33.3137   48.9036 H   0  0  0  0  0  0  0  0  0  0  0  0
   57.4716   32.0686   47.1103 H   0  0  0  0  0  0  0  0  0  0  0  0
   56.4105   33.0402   44.3209 H   0  0  0  0  0  0  0  0  0  0  0  0
   58.0068   32.7339   43.5081 H   0  0  0  0  0  0  0  0  0  0  0  0
   58.0817   30.8686   45.4989 H   0  0  0  0  0  0  0  0  0  0  0  0
   56.3012   30.9392   45.1368 H   0  0  0  0  0  0  0  0  0  0  0  0
   56.8237   30.5793   42.7222 H   0  0  0  0  0  0  0  0  0  0  0  0
   58.5650   30.3515   43.1873 H   0  0  0  0  0  0  0  0  0  0  0  0
   58.1914   26.9162   43.9016 H   0  0  0  0  0  0  0  0  0  0  0  0
   58.9650   28.1031   42.7708 H   0  0  0  0  0  0  0  0  0  0  0  0
   60.1469   27.5111   45.0552 H   0  0  0  0  0  0  0  0  0  0  0  0
   60.0793   29.2212   44.4792 H   0  0  0  0  0  0  0  0  0  0  0  0
   60.8364   30.5315   45.7011 H   0  0  0  0  0  0  0  0  0  0  0  0
   61.2413   33.6720   46.2249 H   0  0  0  0  0  0  0  0  0  0  0  0
   63.6752   34.7593   46.2291 H   0  0  0  0  0  0  0  0  0  0  0  0
   65.2160   33.2040   47.6620 H   0  0  0  0  0  0  0  0  0  0  0  0
   63.8100   31.2083   48.5375 H   0  0  0  0  0  0  0  0  0  0  0  0
   59.3073   30.1270   50.3906 H   0  0  0  0  0  0  0  0  0  0  0  0
   57.4335   27.1916   46.4114 H   0  0  0  0  0  0  0  0  0  0  0  0
   57.0050   28.7793   47.1655 H   0  0  0  0  0  0  0  0  0  0  0  0
   55.7995   27.8093   44.9241 H   0  0  0  0  0  0  0  0  0  0  0  0
   56.0368   29.5879   45.2892 H   0  0  0  0  0  0  0  0  0  0  0  0
   58.9708   34.8746   44.1648 H   0  0  0  0  0  0  0  0  0  0  0  0
   60.1768   36.1114   45.9646 H   0  0  0  0  0  0  0  0  0  0  0  0
  1  2  2  0
  2  3  1  0
  3  4  2  0
  4  5  1  0
  5  6  1  0
  6  7  1  0
  7  8  1  0
  8  9  1  0
  9 10  1  0
 10 11  1  0
 11 12  1  0
 12 13  2  0
 13 14  1  0
 14 15  1  0
 15 16  1  0
 16 17  2  0
 17 18  1  0
 18 19  2  0
 14 20  2  0
 20 21  1  0
 21 22  2  0
 11 23  1  0
 23 24  1  0
  4 25  1  0
 25 26  2  0
 26  1  1  0
 24  8  1  0
 22 12  1  0
 19 15  1  0
  1 27  1  0
  2 28  1  0
  3 29  1  0
  5 30  1  0
  5 31  1  0
  6 32  1  0
  6 33  1  0
  7 34  1  0
  7 35  1  0
  9 36  1  0
  9 37  1  0
 10 38  1  0
 10 39  1  0
 13 40  1  0
 16 41  1  0
 17 42  1  0
 18 43  1  0
 19 44  1  0
 21 45  1  0
 23 46  1  0
 23 47  1  0
 24 48  1  0
 24 49  1  0
 25 50  1  0
 26 51  1  0
M  CHG  1  18   1
M  END
>  <UniqueID>  (6) 
6

>  <SMILES>  (6) 
c1ccc(CCCN2CCN(c3cc(-n4cc[nH+]c4)ncn3)CC2)cc1

>  <Energy>  (6) 
96.0303767139989

>  <Genealogy>  (6) 
c1ccc(CCCN2CCN(c3cc(-n4cc[nH+]c4)ncn3)CC2)cc1 (protonated)
c1ccc(CCCN2CCN(c3cc(-n4cc[nH+]c4)ncn3)CC2)cc1 (3D coordinates assigned)
c1ccc(CCCN2CCN(c3cc(-n4cc[nH+]c4)ncn3)CC2)cc1 (nonaromatic ring conformer: 96.0303767139989 kcal/mol)

>  <smiles>  (6) 
c1ccc(CCCN2CCN(c3cc(-n4ccnc4)ncn3)CC2)cc1

>  <score_type>  (6) 
oracle

>  <origin>  (6) 
adg

>  <m_score__min__energy>  (6) 
-6.5099999999999998

>  <m_primary>  (6) 
energy

$$$$
6:0
     RDKit          3D

 30 31  0  0  0  0  0  0  0  0999 V2000
   62.1650   33.5790   49.8920 C   0  0  0  0  0  0  0  0  0  0  0  0
   61.1850   33.6480   48.7550 C   0  0  0  0  0  0  0  0  0  0  0  0
   59.8080   33.7500   49.0230 C   0  0  0  0  0  0  0  0  0  0  0  0
   58.8860   33.8190   47.9750 C   0  0  0  0  0  0  0  0  0  0  0  0
   59.3260   33.7910   46.6470 C   0  0  0  0  0  0  0  0  0  0  0  0
   58.1700   33.8970   45.3230 S   0  0  0  0  0  0  0  0  0  0  0  0
   58.4140   35.1330   44.5030 O   0  0  0  0  0  0  0  0  0  0  0  0
   56.7830   33.9550   45.8980 O   0  0  0  0  0  0  0  0  0  0  0  0
   58.3060   32.5030   44.2990 N   0  0  0  0  0  0  0  0  0  0  0  0
   57.7740   31.2070   44.6300 C   0  0  0  0  0  0  0  0  0  0  0  0
   56.5520   30.8050   44.0670 C   0  0  0  0  0  0  0  0  0  0  0  0
   56.0040   29.5570   44.3760 C   0  0  0  0  0  0  0  0  0  0  0  0
   56.6730   28.6940   45.2480 C   0  0  0  0  0  0  0  0  0  0  0  0
   55.9650   27.0850   45.6470 S   0  0  0  0  0  0  0  0  0  0  0  0
   57.8940   29.0790   45.8090 C   0  0  0  0  0  0  0  0  0  0  0  0
   58.4460   30.3270   45.5010 C   0  0  0  0  0  0  0  0  0  0  0  0
   60.6950   33.6820   46.3730 C   0  0  0  0  0  0  0  0  0  0  0  0
   61.6250   33.6150   47.4160 C   0  0  0  0  0  0  0  0  0  0  0  0
   63.4860   33.4800   46.9680 Br  0  0  0  0  0  0  0  0  0  0  0  0
   61.6213   33.6173   50.8475 H   0  0  0  0  0  0  0  0  0  0  0  0
   62.7325   32.6387   49.8304 H   0  0  0  0  0  0  0  0  0  0  0  0
   62.8586   34.4305   49.8304 H   0  0  0  0  0  0  0  0  0  0  0  0
   59.4545   33.7756   50.0643 H   0  0  0  0  0  0  0  0  0  0  0  0
   57.8109   33.8956   48.1948 H   0  0  0  0  0  0  0  0  0  0  0  0
   58.7320   32.6490   43.3550 H   0  0  0  0  0  0  0  0  0  0  0  0
   56.0217   31.4779   43.3771 H   0  0  0  0  0  0  0  0  0  0  0  0
   55.0444   29.2536   43.9320 H   0  0  0  0  0  0  0  0  0  0  0  0
   58.4219   28.3993   46.4941 H   0  0  0  0  0  0  0  0  0  0  0  0
   59.4097   30.6227   45.9412 H   0  0  0  0  0  0  0  0  0  0  0  0
   61.0418   33.6488   45.3296 H   0  0  0  0  0  0  0  0  0  0  0  0
  1  2  1  0
  2  3  2  0
  3  4  1  0
  4  5  2  0
  5  6  1  0
  6  7  2  0
  6  8  2  0
  6  9  1  0
  9 10  1  0
 10 11  2  0
 11 12  1  0
 12 13  2  0
 13 14  1  0
 13 15  1  0
 15 16  2  0
  5 17  1  0
 17 18  2  0
 18 19  1  0
 18  2  1  0
 16 10  1  0
  1 20  1  0
  1 21  1  0
  1 22  1  0
  3 23  1  0
  4 24  1  0
  9 25  1  0
 11 26  1  0
 12 27  1  0
 15 28  1  0
 16 29  1  0
 17 30  1  0
M  CHG  1  14  -1
M  END
>  <UniqueID>  (7) 
7

>  <SMILES>  (7) 
Cc1ccc(S(=O)(=O)Nc2ccc([S-])cc2)cc1Br

>  <Energy>  (7) 
33.22736759340008

>  <Genealogy>  (7) 
Cc1ccc(S(=O)(=O)Nc2ccc([S-])cc2)cc1Br (protonated)
Cc1ccc(S(=O)(=O)Nc2ccc([S-])cc2)cc1Br (3D coordinates assigned)
Cc1ccc(S(=O)(=O)Nc2ccc([S-])cc2)cc1Br (optimized conformer: 33.22736759340008 kcal/mol)

>  <smiles>  (7) 
Cc1ccc(S(=O)(=O)Nc2ccc(S)cc2)cc1Br

>  <score_type>  (7) 
oracle

>  <origin>  (7) 
adg

>  <m_score__min__energy>  (7) 
-9.4499999999999993

>  <m_primary>  (7) 
energy

$$$$
7:0
     RDKit          3D

 63 67  0  0  0  0  0  0  0  0999 V2000
   67.6518   32.3816   50.9062 H   0  0  0  0  0  0  0  0  0  0  0  0
   66.5640   32.5420   50.9390 C   0  0  0  0  0  0  0  0  0  0  0  0
   65.8980   32.4120   52.1090 N   0  0  0  0  0  0  0  0  0  0  0  0
   64.5490   32.5480   52.1870 C   0  0  0  0  0  0  0  0  0  0  0  0
   63.9220   32.3490   53.4200 C   0  0  0  0  0  0  0  0  0  0  0  0
   64.5292   32.1748   54.3205 H   0  0  0  0  0  0  0  0  0  0  0  0
   62.5340   32.3700   53.5150 C   0  0  0  0  0  0  0  0  0  0  0  0
   62.0476   32.2474   54.4940 H   0  0  0  0  0  0  0  0  0  0  0  0
   61.7580   32.5470   52.3660 C   0  0  0  0  0  0  0  0  0  0  0  0
   59.9990   32.4600   52.4500 S   0  0  0  0  0  0  0  0  0  0  0  0
   59.5560   32.3100   53.8790 O   0  0  0  0  0  0  0  0  0  0  0  0
   59.4300   33.7410   51.9030 O   0  0  0  0  0  0  0  0  0  0  0  0
   59.4280   31.1040   51.5060 N   0  0  0  0  0  0  0  0  0  0  0  0
   59.0980   30.3840   52.1910 H   0  0  0  0  0  0  0  0  0  0  0  0
   58.2620   31.4990   50.6670 C   0  0  0  0  0  0  0  0  0  0  0  0
   57.8586   32.4462   51.0544 H   0  0  0  0  0  0  0  0  0  0  0  0
   57.5291   30.6807   50.7238 H   0  0  0  0  0  0  0  0  0  0  0  0
   58.6140   31.6900   49.1850 C   0  0  0  0  0  0  0  0  0  0  0  0
   59.2991   32.5443   49.0810 H   0  0  0  0  0  0  0  0  0  0  0  0
   57.6910   31.8790   48.6173 H   0  0  0  0  0  0  0  0  0  0  0  0
   59.2620   30.4810   48.6600 N   0  0  0  0  0  0  0  0  0  0  0  0
   59.1420   30.1250   47.2650 C   0  0  0  0  0  0  0  0  0  0  0  0
   60.2140   29.5120   46.5880 C   0  0  0  0  0  0  0  0  0  0  0  0
   61.1494   29.2988   47.1262 H   0  0  0  0  0  0  0  0  0  0  0  0
   60.0980   29.1730   45.2390 C   0  0  0  0  0  0  0  0  0  0  0  0
   60.9413   28.6931   44.7209 H   0  0  0  0  0  0  0  0  0  0  0  0
   58.9170   29.4400   44.5440 C   0  0  0  0  0  0  0  0  0  0  0  0
   58.8331   29.1713   43.4806 H   0  0  0  0  0  0  0  0  0  0  0  0
   57.8340   30.0520   45.2010 C   0  0  0  0  0  0  0  0  0  0  0  0
   56.6260   30.3440   44.5490 O   0  0  0  0  0  0  0  0  0  0  0  0
   56.3370   29.9940   43.1990 C   0  0  0  0  0  0  0  0  0  0  0  0
   55.6367   29.1459   43.1820 H   0  0  0  0  0  0  0  0  0  0  0  0
   55.8830   30.8548   42.6862 H   0  0  0  0  0  0  0  0  0  0  0  0
   57.2681   29.7110   42.6862 H   0  0  0  0  0  0  0  0  0  0  0  0
   57.9540   30.3890   46.5550 C   0  0  0  0  0  0  0  0  0  0  0  0
   57.1085   30.8667   47.0717 H   0  0  0  0  0  0  0  0  0  0  0  0
   60.0840   29.6690   49.5670 C   0  0  0  0  0  0  0  0  0  0  0  0
   60.9578   29.2848   49.0203 H   0  0  0  0  0  0  0  0  0  0  0  0
   59.4810   28.8306   49.9458 H   0  0  0  0  0  0  0  0  0  0  0  0
   60.5600   30.5190   50.7500 C   0  0  0  0  0  0  0  0  0  0  0  0
   61.1918   31.3350   50.3692 H   0  0  0  0  0  0  0  0  0  0  0  0
   61.1221   29.8651   51.4330 H   0  0  0  0  0  0  0  0  0  0  0  0
   62.3820   32.7530   51.1280 C   0  0  0  0  0  0  0  0  0  0  0  0
   61.7654   32.8455   50.2218 H   0  0  0  0  0  0  0  0  0  0  0  0
   63.7860   32.8440   51.0220 C   0  0  0  0  0  0  0  0  0  0  0  0
   64.4950   33.1100   49.8040 C   0  0  0  0  0  0  0  0  0  0  0  0
   63.9970   33.6450   48.7170 N   0  0  0  0  0  0  0  0  0  0  0  0
   63.1540   32.9890   47.3450 S   0  0  0  0  0  0  0  0  0  0  0  0
   63.1590   31.4860   47.3870 O   0  0  0  0  0  0  0  0  0  0  0  0
   63.7710   33.4700   46.0610 O   0  0  0  0  0  0  0  0  0  0  0  0
   61.4870   33.5540   47.4140 C   0  0  0  0  0  0  0  0  0  0  0  0
   60.9730   34.1300   48.5860 C   0  0  0  0  0  0  0  0  0  0  0  0
   61.6118   34.2259   49.4764 H   0  0  0  0  0  0  0  0  0  0  0  0
   59.6510   34.5820   48.6240 C   0  0  0  0  0  0  0  0  0  0  0  0
   59.2498   35.0290   49.5455 H   0  0  0  0  0  0  0  0  0  0  0  0
   58.8380   34.4670   47.4930 C   0  0  0  0  0  0  0  0  0  0  0  0
   57.7976   34.8228   47.5256 H   0  0  0  0  0  0  0  0  0  0  0  0
   59.3460   33.9000   46.3200 C   0  0  0  0  0  0  0  0  0  0  0  0
   58.3270   33.7600   44.8990 Cl  0  0  0  0  0  0  0  0  0  0  0  0
   60.6690   33.4450   46.2790 C   0  0  0  0  0  0  0  0  0  0  0  0
   61.0684   33.0011   45.3552 H   0  0  0  0  0  0  0  0  0  0  0  0
   65.8770   32.8780   49.7770 C   0  0  0  0  0  0  0  0  0  0  0  0
   66.4243   32.9625   48.8266 H   0  0  0  0  0  0  0  0  0  0  0  0
  1  2  1  0
  2  3  1  0
  3  4  1  0
  4  5  2  0
  5  6  1  0
  5  7  1  0
  7  8  1  0
  7  9  2  0
  9 10  1  0
 10 11  2  0
 10 12  2  0
 10 13  1  0
 13 14  1  0
 13 15  1  0
 15 16  1  0
 15 17  1  0
 15 18  1  0
 18 19  1  0
 18 20  1  0
 18 21  1  0
 21 22  1  0
 22 23  2  0
 23 24  1  0
 23 25  1  0
 25 26  1  0
 25 27  2  0
 27 28  1  0
 27 29  1  0
 29 30  1  0
 30 31  1  0
 31 32  1  0
 31 33  1  0
 31 34  1  0
 29 35  2  0
 35 36  1  0
 21 37  1  0
 37 38  1  0
 37 39  1  0
 37 40  1  0
 40 41  1  0
 40 42  1  0
  9 43  1  0
 43 44  1  0
 43 45  2  0
 45 46  1  0
 46 47  2  0
 47 48  1  0
 48 49  2  0
 48 50  2  0
 48 51  1  0
 51 52  2  0
 52 53  1  0
 52 54  1  0
 54 55  1  0
 54 56  2  0
 56 57  1  0
 56 58  1  0
 58 59  1  0
 58 60  2  0
 60 61  1  0
 46 62  1  0
 62 63  1  0
 62  2  2  0
 45  4  1  0
 60 51  1  0
 40 13  1  0
 35 22  1  0
M  CHG  2   3  -1  13   1
M  END
>  <UniqueID>  (8) 
8

>  <SMILES>  (8) 
COc1cccc(N2CC[NH+](S(=O)(=O)c3ccc4[n-]cc/c(=N/S(=O)(=O)c5cccc(Cl)c5)c4c3)CC2)c1

>  <Energy>  (8) 
101.61271837101116

>  <Genealogy>  (8) 
COc1cccc(N2CC[NH+](S(=O)(=O)c3ccc4[n-]ccc(=NS(=O)(=O)c5cccc(Cl)c5)c4c3)CC2)c1 (protonated)
COc1cccc(N2CC[NH+](S(=O)(=O)c3ccc4[n-]cc/c(=N/S(=O)(=O)c5cccc(Cl)c5)c4c3)CC2)c1 (cis-trans isomerization)
COc1cccc(N2CC[NH+](S(=O)(=O)c3ccc4[n-]cc/c(=N/S(=O)(=O)c5cccc(Cl)c5)c4c3)CC2)c1 (3D coordinates assigned)
COc1cccc(N2CC[NH+](S(=O)(=O)c3ccc4[n-]cc/c(=N/S(=O)(=O)c5cccc(Cl)c5)c4c3)CC2)c1 (nonaromatic ring conformer: 101.61271837101116 kcal/mol)

>  <smiles>  (8) 
COc1cccc(N2CCN(S(=O)(=O)c3ccc4[nH]ccc(=NS(=O)(=O)c5cccc(Cl)c5)c4c3)CC2)c1

>  <score_type>  (8) 
oracle

>  <origin>  (8) 
adg

>  <m_score__min__energy>  (8) 
-10.630000000000001

>  <m_primary>  (8) 
energy

$$$$
8:0
     RDKit          3D

 47 49  0  0  0  0  0  0  0  0999 V2000
   55.5351   28.8923   44.2774 H   0  0  0  0  0  0  0  0  0  0  0  0
   56.1480   29.7600   43.9920 C   0  0  0  0  0  0  0  0  0  0  0  0
   56.7750   30.4930   44.9500 N   0  0  0  0  0  0  0  0  0  0  0  0
   57.5490   31.5760   44.6490 C   0  0  0  0  0  0  0  0  0  0  0  0
   58.1990   32.3340   45.7490 C   0  0  0  0  0  0  0  0  0  0  0  0
   58.5840   31.7020   46.9460 C   0  0  0  0  0  0  0  0  0  0  0  0
   58.4052   30.6245   47.0762 H   0  0  0  0  0  0  0  0  0  0  0  0
   59.1920   32.4330   47.9710 C   0  0  0  0  0  0  0  0  0  0  0  0
   59.4750   31.9309   48.9079 H   0  0  0  0  0  0  0  0  0  0  0  0
   59.4430   33.8050   47.8100 C   0  0  0  0  0  0  0  0  0  0  0  0
   60.0400   34.5840   48.8600 N   0  0  0  0  0  0  0  0  0  0  0  0
   61.2800   34.8830   48.9580 N   0  0  0  0  0  0  0  0  0  0  0  0
   62.3230   34.0050   49.4110 C   0  0  0  0  0  0  0  0  0  0  0  0
   62.6960   34.0280   50.7580 C   0  0  0  0  0  0  0  0  0  0  0  0
   62.1752   34.6984   51.4575 H   0  0  0  0  0  0  0  0  0  0  0  0
   63.7250   33.2060   51.2220 C   0  0  0  0  0  0  0  0  0  0  0  0
   63.9945   33.2194   52.2884 H   0  0  0  0  0  0  0  0  0  0  0  0
   64.4200   32.3610   50.3380 C   0  0  0  0  0  0  0  0  0  0  0  0
   65.4910   31.5140   50.8200 N   0  0  0  0  0  0  0  0  0  0  0  0
   65.2020   30.3220   51.6330 C   0  0  0  0  0  0  0  0  0  0  0  0
   65.3566   30.5641   52.6948 H   0  0  0  0  0  0  0  0  0  0  0  0
   65.8776   29.5117   51.3216 H   0  0  0  0  0  0  0  0  0  0  0  0
   63.7610   29.8610   51.4300 C   0  0  0  0  0  0  0  0  0  0  0  0
   63.2835   29.7082   52.4091 H   0  0  0  0  0  0  0  0  0  0  0  0
   63.2069   30.6267   50.8673 H   0  0  0  0  0  0  0  0  0  0  0  0
   63.7542   28.9158   50.8673 H   0  0  0  0  0  0  0  0  0  0  0  0
   66.8910   31.8400   50.5060 C   0  0  0  0  0  0  0  0  0  0  0  0
   67.5478   31.3496   51.2396 H   0  0  0  0  0  0  0  0  0  0  0  0
   67.1144   31.4834   49.4897 H   0  0  0  0  0  0  0  0  0  0  0  0
   67.1260   33.3480   50.5550 C   0  0  0  0  0  0  0  0  0  0  0  0
   67.1773   33.6772   51.6033 H   0  0  0  0  0  0  0  0  0  0  0  0
   68.0724   33.5883   50.0485 H   0  0  0  0  0  0  0  0  0  0  0  0
   66.2976   33.8648   50.0485 H   0  0  0  0  0  0  0  0  0  0  0  0
   64.0640   32.3670   48.9770 C   0  0  0  0  0  0  0  0  0  0  0  0
   64.6009   31.7176   48.2699 H   0  0  0  0  0  0  0  0  0  0  0  0
   63.0340   33.1910   48.5160 C   0  0  0  0  0  0  0  0  0  0  0  0
   62.7792   33.2017   47.4460 H   0  0  0  0  0  0  0  0  0  0  0  0
   59.0190   34.4460   46.6430 C   0  0  0  0  0  0  0  0  0  0  0  0
   59.1670   35.5302   46.5308 H   0  0  0  0  0  0  0  0  0  0  0  0
   58.4080   33.7190   45.6170 C   0  0  0  0  0  0  0  0  0  0  0  0
   58.0881   34.2340   44.6992 H   0  0  0  0  0  0  0  0  0  0  0  0
   57.6920   31.9570   43.3020 C   0  0  0  0  0  0  0  0  0  0  0  0
   58.3009   32.8338   43.0366 H   0  0  0  0  0  0  0  0  0  0  0  0
   57.0560   31.2150   42.3040 C   0  0  0  0  0  0  0  0  0  0  0  0
   57.1660   31.5038   41.2483 H   0  0  0  0  0  0  0  0  0  0  0  0
   56.2810   30.1070   42.6480 C   0  0  0  0  0  0  0  0  0  0  0  0
   55.7807   29.5141   41.8681 H   0  0  0  0  0  0  0  0  0  0  0  0
  1  2  1  0
  2  3  2  0
  3  4  1  0
  4  5  1  0
  5  6  2  0
  6  7  1  0
  6  8  1  0
  8  9  1  0
  8 10  2  0
 10 11  1  0
 11 12  2  0
 12 13  1  0
 13 14  2  0
 14 15  1  0
 14 16  1  0
 16 17  1  0
 16 18  2  0
 18 19  1  0
 19 20  1  0
 20 21  1  0
 20 22  1  0
 20 23  1  0
 23 24  1  0
 23 25  1  0
 23 26  1  0
 19 27  1  0
 27 28  1  0
 27 29  1  0
 27 30  1  0
 30 31  1  0
 30 32  1  0
 30 33  1  0
 18 34  1  0
 34 35  1  0
 34 36  2  0
 36 37  1  0
 10 38  1  0
 38 39  1  0
 38 40  2  0
 40 41  1  0
  4 42  2  0
 42 43  1  0
 42 44  1  0
 44 45  1  0
 44 46  2  0
 46 47  1  0
 46  2  1  0
 40  5  1  0
 36 13  1  0
M  END
>  <UniqueID>  (9) 
9

>  <SMILES>  (9) 
CCN(CC)c1ccc(/N=N\c2ccc(-c3ccccn3)cc2)cc1

>  <Energy>  (9) 
64.34207957073035

>  <Genealogy>  (9) 
CCN(CC)c1ccc(/N=N\c2ccc(-c3ccccn3)cc2)cc1 (cis-trans isomerization)
CCN(CC)c1ccc(/N=N\c2ccc(-c3ccccn3)cc2)cc1 (3D coordinates assigned)
CCN(CC)c1ccc(/N=N\c2ccc(-c3ccccn3)cc2)cc1 (optimized conformer: 64.34207957073035 kcal/mol)

>  <smiles>  (9) 
CCN(CC)c1ccc(N=Nc2ccc(-c3ccccn3)cc2)cc1

>  <score_type>  (9) 
oracle

>  <origin>  (9) 
adg

>  <m_score__min__energy>  (9) 
-7.7300000000000004

>  <m_primary>  (9) 
energy

$$$$
9:0
     RDKit          3D

 34 37  0  0  0  0  0  0  0  0999 V2000
   57.3220   25.1760   46.8500 C   0  0  0  0  0  0  0  0  0  0  0  0
   58.6280   25.6230   47.1570 C   0  0  0  0  0  0  0  0  0  0  0  0
   59.0350   26.9250   46.8160 C   0  0  0  0  0  0  0  0  0  0  0  0
   58.1100   27.7470   46.1750 C   0  0  0  0  0  0  0  0  0  0  0  0
   58.1980   29.0440   45.7250 C   0  0  0  0  0  0  0  0  0  0  0  0
   56.9840   29.3240   45.1390 C   0  0  0  0  0  0  0  0  0  0  0  0
   56.1360   28.2750   45.2420 N   0  0  0  0  0  0  0  0  0  0  0  0
   56.8400   27.3140   45.8710 C   0  0  0  0  0  0  0  0  0  0  0  0
   56.4110   26.0280   46.1980 C   0  0  0  0  0  0  0  0  0  0  0  0
   56.6530   30.6650   44.5670 C   0  0  0  0  0  0  0  0  0  0  0  0
   57.8900   31.4410   44.2880 N   0  0  0  0  0  0  0  0  0  0  0  0
   57.5760   32.8300   43.8760 C   0  0  0  0  0  0  0  0  0  0  0  0
   57.6450   33.8380   45.0450 C   0  0  0  0  0  0  0  0  0  0  0  0
   57.3280   33.1780   46.3150 N   0  0  0  0  0  0  0  0  0  0  0  0
   58.3290   32.1520   46.6580 C   0  0  0  0  0  0  0  0  0  0  0  0
   58.8780   31.4220   45.4030 C   0  0  1  0  0  0  0  0  0  0  0  0
   59.3580   29.9830   45.7190 C   0  0  0  0  0  0  0  0  0  0  0  0
   57.0159   24.1552   47.1227 H   0  0  0  0  0  0  0  0  0  0  0  0
   59.3307   24.9472   47.6663 H   0  0  0  0  0  0  0  0  0  0  0  0
   60.0492   27.2826   47.0474 H   0  0  0  0  0  0  0  0  0  0  0  0
   55.1480   28.2240   44.9060 H   0  0  0  0  0  0  0  0  0  0  0  0
   55.3929   25.6902   45.9541 H   0  0  0  0  0  0  0  0  0  0  0  0
   56.0937   30.5289   43.6296 H   0  0  0  0  0  0  0  0  0  0  0  0
   56.0467   31.2198   45.2981 H   0  0  0  0  0  0  0  0  0  0  0  0
   58.2972   33.1381   43.1047 H   0  0  0  0  0  0  0  0  0  0  0  0
   56.5428   32.8351   43.4984 H   0  0  0  0  0  0  0  0  0  0  0  0
   58.6598   34.2590   45.0998 H   0  0  0  0  0  0  0  0  0  0  0  0
   56.9104   34.6373   44.8678 H   0  0  0  0  0  0  0  0  0  0  0  0
   57.3280   33.9020   47.0700 H   0  0  0  0  0  0  0  0  0  0  0  0
   59.1671   32.6362   47.1805 H   0  0  0  0  0  0  0  0  0  0  0  0
   57.8376   31.4022   47.2954 H   0  0  0  0  0  0  0  0  0  0  0  0
   59.7653   31.9813   45.0716 H   0  0  0  0  0  0  0  0  0  0  0  0
   60.0801   29.6641   44.9529 H   0  0  0  0  0  0  0  0  0  0  0  0
   59.8343   29.9724   46.7105 H   0  0  0  0  0  0  0  0  0  0  0  0
  1  2  2  0
  2  3  1  0
  3  4  2  0
  4  5  1  0
  5  6  2  0
  6  7  1  0
  7  8  1  0
  8  9  2  0
  6 10  1  0
 10 11  1  0
 11 12  1  0
 12 13  1  0
 13 14  1  0
 14 15  1  0
 15 16  1  0
 16 17  1  0
  9  1  1  0
 16 11  1  0
  8  4  1  0
 17  5  1  0
  1 18  1  0
  2 19  1  0
  3 20  1  0
  7 21  1  0
  9 22  1  0
 10 23  1  0
 10 24  1  0
 12 25  1  0
 12 26  1  0
 13 27  1  0
 13 28  1  0
 14 29  1  0
 15 30  1  0
 15 31  1  0
 16 32  1  6
 17 33  1  0
 17 34  1  0
M  END
>  <UniqueID>  (10) 
10

>  <SMILES>  (10) 
c1ccc2c3c([nH]c2c1)CN1CCNC[C@H]1C3

>  <Energy>  (10) 
84.2594688002246

>  <Genealogy>  (10) 
c1ccc2c3c([nH]c2c1)CN1CCNC[C@H]1C3 (chirality)
c1ccc2c3c([nH]c2c1)CN1CCNC[C@H]1C3 (3D coordinates assigned)
c1ccc2c3c([nH]c2c1)CN1CCNC[C@H]1C3 (nonaromatic ring conformer: 84.2594688002246 kcal/mol)

>  <smiles>  (10) 
c1ccc2c3c([nH]c2c1)CN1CCNCC1C3

>  <score_type>  (10) 
oracle

>  <origin>  (10) 
adg

>  <m_score__min__energy>  (10) 
-7.0499999999999998

>  <m_primary>  (10) 
energy

$$$$
10:0
     RDKit          3D

 51 52  0  0  0  0  0  0  0  0999 V2000
   65.2650   32.3520   50.2010 C   0  0  0  0  0  0  0  0  0  0  0  0
   64.9030   33.4580   49.3810 O   0  0  0  0  0  0  0  0  0  0  0  0
   63.6760   33.5770   48.7100 C   0  0  0  0  0  0  0  0  0  0  0  0
   62.5360   33.8920   49.4580 C   0  0  0  0  0  0  0  0  0  0  0  0
   61.2900   34.0180   48.8370 C   0  0  0  0  0  0  0  0  0  0  0  0
   61.1660   33.8140   47.4560 C   0  0  0  0  0  0  0  0  0  0  0  0
   59.5920   33.9490   46.6760 S   0  0  0  0  0  0  0  0  0  0  0  0
   58.5950   34.4510   47.6840 O   0  0  0  0  0  0  0  0  0  0  0  0
   59.6760   34.9640   45.5680 O   0  0  0  0  0  0  0  0  0  0  0  0
   59.0360   32.4260   46.0250 N   0  0  0  0  0  0  0  0  0  0  0  0
   58.3550   31.5550   47.0070 C   0  0  0  0  0  0  0  0  0  0  0  0
   58.2790   30.0530   46.6580 C   0  0  0  0  0  0  0  0  0  0  0  0
   58.8820   29.6020   45.3200 C   0  0  0  0  0  0  0  0  0  0  0  0
   58.1230   30.0700   44.1380 N   0  0  0  0  0  0  0  0  0  0  0  0
   57.1190   29.0550   43.7490 C   0  0  0  0  0  0  0  0  0  0  0  0
   56.0300   28.9850   44.7750 C   0  0  0  0  0  0  0  0  0  0  0  0
   55.2010   29.9300   44.8790 O   0  0  0  0  0  0  0  0  0  0  0  0
   55.9280   27.8300   45.6150 N   0  0  0  0  0  0  0  0  0  0  0  0
   56.9290   26.7670   45.6560 C   0  0  0  0  0  0  0  0  0  0  0  0
   56.2240   25.4120   45.6640 C   0  0  0  0  0  0  0  0  0  0  0  0
   57.8110   26.9240   46.8970 C   0  0  0  0  0  0  0  0  0  0  0  0
   57.5010   31.4160   44.2800 C   0  0  0  0  0  0  0  0  0  0  0  0
   58.4870   32.5430   44.6560 C   0  0  0  0  0  0  0  0  0  0  0  0
   62.3080   33.5170   46.6990 C   0  0  0  0  0  0  0  0  0  0  0  0
   63.5530   33.3940   47.3190 C   0  0  0  0  0  0  0  0  0  0  0  0
   65.1724   32.6349   51.2600 H   0  0  0  0  0  0  0  0  0  0  0  0
   64.5976   31.5039   49.9883 H   0  0  0  0  0  0  0  0  0  0  0  0
   66.3047   32.0627   49.9883 H   0  0  0  0  0  0  0  0  0  0  0  0
   62.6212   34.0418   50.5444 H   0  0  0  0  0  0  0  0  0  0  0  0
   60.4037   34.2782   49.4343 H   0  0  0  0  0  0  0  0  0  0  0  0
   58.8887   31.6493   47.9642 H   0  0  0  0  0  0  0  0  0  0  0  0
   57.3114   31.9021   47.0302 H   0  0  0  0  0  0  0  0  0  0  0  0
   58.8001   29.5032   47.4556 H   0  0  0  0  0  0  0  0  0  0  0  0
   57.2034   29.8424   46.5644 H   0  0  0  0  0  0  0  0  0  0  0  0
   59.9077   29.9936   45.2516 H   0  0  0  0  0  0  0  0  0  0  0  0
   58.8512   28.5025   45.3075 H   0  0  0  0  0  0  0  0  0  0  0  0
   56.6845   29.3279   42.7760 H   0  0  0  0  0  0  0  0  0  0  0  0
   57.6098   28.0731   43.6789 H   0  0  0  0  0  0  0  0  0  0  0  0
   57.5730   26.8311   44.7666 H   0  0  0  0  0  0  0  0  0  0  0  0
   56.0573   25.0916   46.7030 H   0  0  0  0  0  0  0  0  0  0  0  0
   55.2568   25.4989   45.1474 H   0  0  0  0  0  0  0  0  0  0  0  0
   56.8503   24.6698   45.1474 H   0  0  0  0  0  0  0  0  0  0  0  0
   57.1944   26.8142   47.8013 H   0  0  0  0  0  0  0  0  0  0  0  0
   58.5936   26.1510   46.8908 H   0  0  0  0  0  0  0  0  0  0  0  0
   58.2788   27.9195   46.8908 H   0  0  0  0  0  0  0  0  0  0  0  0
   57.0289   31.6786   43.3218 H   0  0  0  0  0  0  0  0  0  0  0  0
   56.7819   31.3413   45.1090 H   0  0  0  0  0  0  0  0  0  0  0  0
   59.3249   32.5223   43.9437 H   0  0  0  0  0  0  0  0  0  0  0  0
   57.9235   33.4869   44.6171 H   0  0  0  0  0  0  0  0  0  0  0  0
   62.2228   33.3801   45.6109 H   0  0  0  0  0  0  0  0  0  0  0  0
   64.4422   33.1530   46.7180 H   0  0  0  0  0  0  0  0  0  0  0  0
  1  2  1  0
  2  3  1  0
  3  4  2  0
  4  5  1  0
  5  6  2  0
  6  7  1  0
  7  8  2  0
  7  9  2  0
  7 10  1  0
 10 11  1  0
 11 12  1  0
 12 13  1  0
 13 14  1  0
 14 15  1  0
 15 16  1  0
 16 17  2  0
 16 18  1  0
 18 19  1  0
 19 20  1  0
 19 21  1  0
 14 22  1  0
 22 23  1  0
  6 24  1  0
 24 25  2  0
 25  3  1  0
 23 10  1  0
  1 26  1  0
  1 27  1  0
  1 28  1  0
  4 29  1  0
  5 30  1  0
 11 31  1  0
 11 32  1  0
 12 33  1  0
 12 34  1  0
 13 35  1  0
 13 36  1  0
 15 37  1  0
 15 38  1  0
 19 39  1  0
 20 40  1  0
 20 41  1  0
 20 42  1  0
 21 43  1  0
 21 44  1  0
 21 45  1  0
 22 46  1  0
 22 47  1  0
 23 48  1  0
 23 49  1  0
 24 50  1  0
 25 51  1  0
M  CHG  1  18  -1
M  END
>  <UniqueID>  (11) 
11

>  <SMILES>  (11) 
COc1ccc(S(=O)(=O)N2CCCN(CC(=O)[N-]C(C)C)CC2)cc1

>  <Energy>  (11) 
64.09771938306066

>  <Genealogy>  (11) 
COc1ccc(S(=O)(=O)N2CCCN(CC(=O)[N-]C(C)C)CC2)cc1 (protonated)
COc1ccc(S(=O)(=O)N2CCCN(CC(=O)[N-]C(C)C)CC2)cc1 (3D coordinates assigned)
COc1ccc(S(=O)(=O)N2CCCN(CC(=O)[N-]C(C)C)CC2)cc1 (nonaromatic ring conformer: 64.09771938306066 kcal/mol)

>  <smiles>  (11) 
COc1ccc(S(=O)(=O)N2CCCN(CC(=O)NC(C)C)CC2)cc1

>  <score_type>  (11) 
oracle

>  <origin>  (11) 
adg

>  <m_score__min__energy>  (11) 
-7.8200000000000003

>  <m_primary>  (11) 
energy

$$$$
11:0
     RDKit          3D

 27 29  0  0  0  0  0  0  0  0999 V2000
   55.1190   29.4280   43.1000 O   0  0  0  0  0  0  0  0  0  0  0  0
   55.8550   29.6660   44.0960 C   0  0  0  0  0  0  0  0  0  0  0  0
   55.8800   28.7650   45.2090 N   0  0  0  0  0  0  0  0  0  0  0  0
   56.8940   27.7320   45.3890 C   0  0  0  0  0  0  0  0  0  0  0  0
   58.2190   28.3570   45.6890 C   0  0  0  0  0  0  0  0  0  0  0  0
   59.1660   28.7530   44.7530 C   0  0  0  0  0  0  0  0  0  0  0  0
   60.3350   29.2590   45.3350 C   0  0  0  0  0  0  0  0  0  0  0  0
   60.3130   29.2570   46.7240 C   0  0  0  0  0  0  0  0  0  0  0  0
   58.8400   28.6210   47.2290 S   0  0  0  0  0  0  0  0  0  0  0  0
   56.6720   30.8380   44.1130 N   0  0  0  0  0  0  0  0  0  0  0  0
   57.1440   31.4360   43.0330 N   0  0  0  0  0  0  0  0  0  0  0  0
   57.8560   32.4890   43.4040 N   0  0  0  0  0  0  0  0  0  0  0  0
   57.7880   32.4950   44.7520 C   0  0  0  0  0  0  0  0  0  0  0  0
   58.4350   33.4940   45.6080 C   0  0  0  0  0  0  0  0  0  0  0  0
   59.1690   34.5900   45.1720 C   0  0  0  0  0  0  0  0  0  0  0  0
   59.6680   35.3710   46.2220 C   0  0  0  0  0  0  0  0  0  0  0  0
   59.3290   34.8940   47.4820 C   0  0  0  0  0  0  0  0  0  0  0  0
   58.4070   33.5000   47.2890 S   0  0  0  0  0  0  0  0  0  0  0  0
   57.0500   31.4680   45.2130 N   0  0  0  0  0  0  0  0  0  0  0  0
   56.6028   27.0785   46.2245 H   0  0  0  0  0  0  0  0  0  0  0  0
   56.9757   27.1435   44.4633 H   0  0  0  0  0  0  0  0  0  0  0  0
   59.0134   28.6769   43.6663 H   0  0  0  0  0  0  0  0  0  0  0  0
   61.1904   29.6238   44.7474 H   0  0  0  0  0  0  0  0  0  0  0  0
   61.1209   29.6109   47.3813 H   0  0  0  0  0  0  0  0  0  0  0  0
   59.3407   34.8209   44.1103 H   0  0  0  0  0  0  0  0  0  0  0  0
   60.2716   36.2769   46.0639 H   0  0  0  0  0  0  0  0  0  0  0  0
   59.6145   35.3497   48.4416 H   0  0  0  0  0  0  0  0  0  0  0  0
  1  2  2  0
  2  3  1  0
  3  4  1  0
  4  5  1  0
  5  6  2  0
  6  7  1  0
  7  8  2  0
  8  9  1  0
  2 10  1  0
 10 11  1  0
 11 12  2  0
 12 13  1  0
 13 14  1  0
 14 15  2  0
 15 16  1  0
 16 17  2  0
 17 18  1  0
 13 19  2  0
  9  5  1  0
 19 10  1  0
 18 14  1  0
  4 20  1  0
  4 21  1  0
  6 22  1  0
  7 23  1  0
  8 24  1  0
 15 25  1  0
 16 26  1  0
 17 27  1  0
M  CHG  1   3  -1
M  END
>  <UniqueID>  (12) 
12

>  <SMILES>  (12) 
O=C([N-]Cc1cccs1)n1nnc(-c2cccs2)n1

>  <Energy>  (12) 
114.93750003312475

>  <Genealogy>  (12) 
O=C([N-]Cc1cccs1)n1nnc(-c2cccs2)n1 (protonated)
O=C([N-]Cc1cccs1)n1nnc(-c2cccs2)n1 (3D coordinates assigned)
O=C([N-]Cc1cccs1)n1nnc(-c2cccs2)n1 (optimized conformer: 114.93750003312475 kcal/mol)

>  <smiles>  (12) 
O=C(NCc1cccs1)n1nnc(-c2cccs2)n1

>  <score_type>  (12) 
oracle

>  <origin>  (12) 
adg

>  <m_score__min__energy>  (12) 
-8.8599999999999994

>  <m_primary>  (12) 
energy

$$$$
12:0
     RDKit          3D

 57 60  0  0  1  0  0  0  0  0999 V2000
   58.4500   26.3370   47.1190 C   0  0  0  0  0  0  0  0  0  0  0  0
   57.0620   26.1960   46.5640 C   0  0  0  0  0  0  0  0  0  0  0  0
   56.9050   26.7650   45.2370 N   0  0  0  0  0  0  0  0  0  0  0  0
   57.8140   26.2020   44.2830 C   0  0  0  0  0  0  0  0  0  0  0  0
   58.1280   27.2380   43.2070 C   0  0  0  0  0  0  0  0  0  0  0  0
   57.8130   28.5810   43.7880 C   0  0  0  0  0  0  0  0  0  0  0  0
   58.5770   29.1610   44.7700 C   0  0  0  0  0  0  0  0  0  0  0  0
   58.3070   30.3990   45.3190 C   0  0  0  0  0  0  0  0  0  0  0  0
   57.2080   31.0860   44.8490 C   0  0  0  0  0  0  0  0  0  0  0  0
   56.9570   32.3600   45.4280 N   0  0  0  0  0  0  0  0  0  0  0  0
   57.9420   33.1640   45.5910 C   0  0  0  0  0  0  0  0  0  0  0  0
   58.9420   32.9670   46.4750 N   0  0  0  0  0  0  0  0  0  0  0  0
   59.9190   33.8500   46.5700 C   0  0  0  0  0  0  0  0  0  0  0  0
   61.0500   33.6990   47.5180 C   0  0  0  0  0  0  0  0  0  0  0  0
   62.7160   33.4980   47.0620 S   0  0  0  0  0  0  0  0  0  0  0  0
   63.2920   33.4110   48.8060 C   0  0  0  0  0  0  0  0  0  0  0  0
   64.5190   33.2560   49.1590 N   0  0  0  0  0  0  0  0  0  0  0  0
   64.8840   32.2300   50.1570 C   0  0  0  0  0  0  0  0  0  0  0  0
   66.3920   32.1410   50.1380 C   0  0  0  0  0  0  0  0  0  0  0  0
   67.0300   32.1920   51.5150 C   0  0  0  0  0  0  0  0  0  0  0  0
   67.2620   33.2720   50.4630 C   0  0  0  0  0  0  0  0  0  0  0  0
   62.1600   33.5430   49.5190 N   0  0  0  0  0  0  0  0  0  0  0  0
   61.0440   33.6870   48.8770 C   0  0  0  0  0  0  0  0  0  0  0  0
   59.7050   33.8480   49.6120 C   0  0  0  0  0  0  0  0  0  0  0  0
   59.9470   34.9820   45.7810 C   0  0  0  0  0  0  0  0  0  0  0  0
   58.9260   35.1940   44.8700 C   0  0  0  0  0  0  0  0  0  0  0  0
   57.9430   34.2740   44.7990 N   0  0  0  0  0  0  0  0  0  0  0  0
   56.4150   30.5320   43.8610 C   0  0  0  0  0  0  0  0  0  0  0  0
   56.7030   29.2830   43.3210 C   0  0  0  0  0  0  0  0  0  0  0  0
   58.4076   26.3327   48.2182 H   0  0  0  0  0  0  0  0  0  0  0  0
   59.0704   25.4973   46.7727 H   0  0  0  0  0  0  0  0  0  0  0  0
   58.8889   27.2844   46.7727 H   0  0  0  0  0  0  0  0  0  0  0  0
   56.8145   25.1253   46.5146 H   0  0  0  0  0  0  0  0  0  0  0  0
   56.3891   26.7509   47.2342 H   0  0  0  0  0  0  0  0  0  0  0  0
   55.9360   26.5590   44.8900 H   0  0  0  0  0  0  0  0  0  0  0  0
   58.7440   25.9082   44.7917 H   0  0  0  0  0  0  0  0  0  0  0  0
   57.3555   25.3171   43.8175 H   0  0  0  0  0  0  0  0  0  0  0  0
   59.1915   27.1857   42.9310 H   0  0  0  0  0  0  0  0  0  0  0  0
   57.5345   27.0538   42.2993 H   0  0  0  0  0  0  0  0  0  0  0  0
   59.4533   28.6087   45.1403 H   0  0  0  0  0  0  0  0  0  0  0  0
   58.9480   30.8233   46.1058 H   0  0  0  0  0  0  0  0  0  0  0  0
   64.5322   32.5275   51.1559 H   0  0  0  0  0  0  0  0  0  0  0  0
   64.4223   31.2598   49.9216 H   0  0  0  0  0  0  0  0  0  0  0  0
   66.3794   31.4765   49.2615 H   0  0  0  0  0  0  0  0  0  0  0  0
   66.4185   32.4034   52.4046 H   0  0  0  0  0  0  0  0  0  0  0  0
   67.6630   31.5263   52.1201 H   0  0  0  0  0  0  0  0  0  0  0  0
   66.8286   34.2734   50.6021 H   0  0  0  0  0  0  0  0  0  0  0  0
   68.1538   33.7180   49.9985 H   0  0  0  0  0  0  0  0  0  0  0  0
   62.2330   33.5240   50.5930 H   0  0  0  0  0  0  0  0  0  0  0  0
   59.8781   33.8272   50.6981 H   0  0  0  0  0  0  0  0  0  0  0  0
   59.2462   34.8078   49.3321 H   0  0  0  0  0  0  0  0  0  0  0  0
   59.0318   33.0243   49.3321 H   0  0  0  0  0  0  0  0  0  0  0  0
   60.7696   35.7063   45.8746 H   0  0  0  0  0  0  0  0  0  0  0  0
   58.9172   36.0848   44.2247 H   0  0  0  0  0  0  0  0  0  0  0  0
   57.1710   34.4360   44.1090 H   0  0  0  0  0  0  0  0  0  0  0  0
   55.5401   31.0894   43.4953 H   0  0  0  0  0  0  0  0  0  0  0  0
   56.0630   28.8547   42.5355 H   0  0  0  0  0  0  0  0  0  0  0  0
  1  2  1  0
  2  3  1  0
  3  4  1  0
  4  5  1  0
  5  6  1  0
  6  7  2  0
  7  8  1  0
  8  9  2  0
  9 10  1  0
 10 11  2  0
 11 12  1  0
 12 13  2  0
 13 14  1  0
 14 15  1  0
 15 16  1  0
 16 17  2  0
 17 18  1  0
 18 19  1  0
 19 20  1  0
 20 21  1  0
 16 22  1  0
 22 23  1  0
 23 24  1  0
 13 25  1  0
 25 26  2  0
 26 27  1  0
  9 28  1  0
 28 29  2  0
 29  6  1  0
 27 11  1  0
 23 14  2  0
 21 19  1  0
  1 30  1  0
  1 31  1  0
  1 32  1  0
  2 33  1  0
  2 34  1  0
  3 35  1  0
  4 36  1  0
  4 37  1  0
  5 38  1  0
  5 39  1  0
  7 40  1  0
  8 41  1  0
 18 42  1  0
 18 43  1  0
 19 44  1  0
 20 45  1  0
 20 46  1  0
 21 47  1  0
 21 48  1  0
 22 49  1  0
 24 50  1  0
 24 51  1  0
 24 52  1  0
 25 53  1  0
 26 54  1  0
 27 55  1  0
 28 56  1  0
 29 57  1  0
M  END
>  <smiles>  (13) 
CCNCCc1ccc(N=c2nc(-c3sc(=NCC4CC4)[nH]c3C)cc[nH]2)cc1

>  <score_type>  (13) 
oracle

>  <origin>  (13) 
adg

>  <m_score__min__energy>  (13) 
-8.9199999999999999

>  <m_primary>  (13) 
energy

$$$$
13:0
     RDKit          3D

 38 40  0  0  0  0  0  0  0  0999 V2000
   58.4370   34.5410   47.0480 F   0  0  0  0  0  0  0  0  0  0  0  0
   58.4210   33.3930   46.2800 C   0  0  0  0  0  0  0  0  0  0  0  0
   58.5140   33.7530   44.9460 F   0  0  0  0  0  0  0  0  0  0  0  0
   57.2140   32.7410   46.4540 F   0  0  0  0  0  0  0  0  0  0  0  0
   59.5750   32.4990   46.6840 C   0  0  0  0  0  0  0  0  0  0  0  0
   60.5650   32.9880   47.5550 C   0  0  0  0  0  0  0  0  0  0  0  0
   61.6540   32.1870   47.9330 C   0  0  0  0  0  0  0  0  0  0  0  0
   62.7090   32.7050   48.8390 C   0  0  0  0  0  0  0  0  0  0  0  0
   62.3660   33.4380   49.9890 C   0  0  0  0  0  0  0  0  0  0  0  0
   63.3720   33.9230   50.8240 C   0  0  0  0  0  0  0  0  0  0  0  0
   64.7090   33.6780   50.5150 C   0  0  0  0  0  0  0  0  0  0  0  0
   65.0210   32.9480   49.3680 C   0  0  0  0  0  0  0  0  0  0  0  0
   64.0300   32.4800   48.5610 N   0  0  0  0  0  0  0  0  0  0  0  0
   61.7230   30.8800   47.4340 C   0  0  0  0  0  0  0  0  0  0  0  0
   60.7460   30.4040   46.6220 N   0  0  0  0  0  0  0  0  0  0  0  0
   59.6750   31.1560   46.2490 C   0  0  0  0  0  0  0  0  0  0  0  0
   58.6740   30.5530   45.4160 N   0  0  0  0  0  0  0  0  0  0  0  0
   58.5200   30.9660   44.0180 C   0  0  0  0  0  0  0  0  0  0  0  0
   57.0430   31.2680   43.6920 C   0  0  0  0  0  0  0  0  0  0  0  0
   56.0680   30.4510   44.4470 N   0  0  0  0  0  0  0  0  0  0  0  0
   56.6440   29.2220   45.0080 C   0  0  0  0  0  0  0  0  0  0  0  0
   57.7640   29.5630   45.9950 C   0  0  0  0  0  0  0  0  0  0  0  0
   60.4848   34.0131   47.9458 H   0  0  0  0  0  0  0  0  0  0  0  0
   61.3094   33.6279   50.2287 H   0  0  0  0  0  0  0  0  0  0  0  0
   63.1110   34.4978   51.7248 H   0  0  0  0  0  0  0  0  0  0  0  0
   65.5091   34.0561   51.1684 H   0  0  0  0  0  0  0  0  0  0  0  0
   66.0729   32.7497   49.1146 H   0  0  0  0  0  0  0  0  0  0  0  0
   64.3030   31.9200   47.7220 H   0  0  0  0  0  0  0  0  0  0  0  0
   62.5738   30.2362   47.7019 H   0  0  0  0  0  0  0  0  0  0  0  0
   59.1199   31.8710   43.8418 H   0  0  0  0  0  0  0  0  0  0  0  0
   58.8620   30.1457   43.3698 H   0  0  0  0  0  0  0  0  0  0  0  0
   56.8511   32.3274   43.9177 H   0  0  0  0  0  0  0  0  0  0  0  0
   56.9008   31.0216   42.6294 H   0  0  0  0  0  0  0  0  0  0  0  0
   55.6850   31.0250   45.2370 H   0  0  0  0  0  0  0  0  0  0  0  0
   55.8576   28.6588   45.5318 H   0  0  0  0  0  0  0  0  0  0  0  0
   57.0600   28.6157   44.1899 H   0  0  0  0  0  0  0  0  0  0  0  0
   57.3228   29.9719   46.9160 H   0  0  0  0  0  0  0  0  0  0  0  0
   58.3308   28.6475   46.2200 H   0  0  0  0  0  0  0  0  0  0  0  0
  1  2  1  0
  2  3  1  0
  2  4  1  0
  2  5  1  0
  5  6  2  0
  6  7  1  0
  7  8  1  0
  8  9  2  0
  9 10  1  0
 10 11  2  0
 11 12  1  0
 12 13  2  0
  7 14  2  0
 14 15  1  0
 15 16  2  0
 16 17  1  0
 17 18  1  0
 18 19  1  0
 19 20  1  0
 20 21  1  0
 21 22  1  0
 16  5  1  0
 22 17  1  0
 13  8  1  0
  6 23  1  0
  9 24  1  0
 10 25  1  0
 11 26  1  0
 12 27  1  0
 13 28  1  0
 14 29  1  0
 18 30  1  0
 18 31  1  0
 19 32  1  0
 19 33  1  0
 20 34  1  0
 21 35  1  0
 21 36  1  0
 22 37  1  0
 22 38  1  0
M  CHG  1  13   1
M  END
>  <UniqueID>  (14) 
13

>  <SMILES>  (14) 
FC(F)(F)c1cc(-c2cccc[nH+]2)cnc1N1CCNCC1

>  <Energy>  (14) 
56.68936416402388

>  <Genealogy>  (14) 
FC(F)(F)c1cc(-c2cccc[nH+]2)cnc1N1CCNCC1 (protonated)
FC(F)(F)c1cc(-c2cccc[nH+]2)cnc1N1CCNCC1 (3D coordinates assigned)
FC(F)(F)c1cc(-c2cccc[nH+]2)cnc1N1CCNCC1 (nonaromatic ring conformer: 56.68936416402388 kcal/mol)

>  <smiles>  (14) 
FC(F)(F)c1cc(-c2ccccn2)cnc1N1CCNCC1

>  <score_type>  (14) 
oracle

>  <origin>  (14) 
adg

>  <m_score__min__energy>  (14) 
-5.2199999999999998

>  <m_primary>  (14) 
energy

$$$$
14:0
     RDKit          3D

 29 31  0  0  0  0  0  0  0  0999 V2000
   58.0960   32.3410   41.7760 C   0  0  0  0  0  0  0  0  0  0  0  0
   57.4300   31.9380   42.9680 O   0  0  0  0  0  0  0  0  0  0  0  0
   57.7280   32.4170   44.2540 C   0  0  0  0  0  0  0  0  0  0  0  0
   57.8160   33.7990   44.5190 C   0  0  0  0  0  0  0  0  0  0  0  0
   58.0950   34.2580   45.8070 C   0  0  0  0  0  0  0  0  0  0  0  0
   58.2910   33.3500   46.8450 C   0  0  0  0  0  0  0  0  0  0  0  0
   58.2110   31.9790   46.6020 C   0  0  0  0  0  0  0  0  0  0  0  0
   57.9300   31.4940   45.3090 C   0  0  0  0  0  0  0  0  0  0  0  0
   57.8610   30.0290   45.0740 C   0  0  0  0  0  0  0  0  0  0  0  0
   57.6090   29.1280   46.0640 N   0  0  0  0  0  0  0  0  0  0  0  0
   57.6320   27.9500   45.4160 C   0  0  0  0  0  0  0  0  0  0  0  0
   57.4370   26.6780   45.9510 C   0  0  0  0  0  0  0  0  0  0  0  0
   57.5150   25.5810   45.0710 C   0  0  0  0  0  0  0  0  0  0  0  0
   57.7820   25.7840   43.6970 C   0  0  0  0  0  0  0  0  0  0  0  0
   57.9740   27.0830   43.1910 C   0  0  0  0  0  0  0  0  0  0  0  0
   57.8870   28.1430   44.0930 C   0  0  0  0  0  0  0  0  0  0  0  0
   58.0340   29.4510   43.8560 N   0  0  0  0  0  0  0  0  0  0  0  0
   59.0104   32.8943   42.0361 H   0  0  0  0  0  0  0  0  0  0  0  0
   58.3610   31.4516   41.1855 H   0  0  0  0  0  0  0  0  0  0  0  0
   57.4311   32.9884   41.1855 H   0  0  0  0  0  0  0  0  0  0  0  0
   57.6635   34.5215   43.7037 H   0  0  0  0  0  0  0  0  0  0  0  0
   58.1602   35.3385   46.0028 H   0  0  0  0  0  0  0  0  0  0  0  0
   58.5095   33.7154   47.8593 H   0  0  0  0  0  0  0  0  0  0  0  0
   58.3688   31.2694   47.4276 H   0  0  0  0  0  0  0  0  0  0  0  0
   57.2297   26.5359   47.0219 H   0  0  0  0  0  0  0  0  0  0  0  0
   57.3674   24.5606   45.4545 H   0  0  0  0  0  0  0  0  0  0  0  0
   57.8400   24.9199   43.0188 H   0  0  0  0  0  0  0  0  0  0  0  0
   58.1846   27.2556   42.1252 H   0  0  0  0  0  0  0  0  0  0  0  0
   58.2570   29.9050   42.9430 H   0  0  0  0  0  0  0  0  0  0  0  0
  1  2  1  0
  2  3  1  0
  3  4  2  0
  4  5  1  0
  5  6  2  0
  6  7  1  0
  7  8  2  0
  8  9  1  0
  9 10  2  0
 10 11  1  0
 11 12  2  0
 12 13  1  0
 13 14  2  0
 14 15  1  0
 15 16  2  0
 16 17  1  0
  8  3  1  0
 17  9  1  0
 16 11  1  0
  1 18  1  0
  1 19  1  0
  1 20  1  0
  4 21  1  0
  5 22  1  0
  6 23  1  0
  7 24  1  0
 12 25  1  0
 13 26  1  0
 14 27  1  0
 15 28  1  0
 17 29  1  0
M  END
>  <UniqueID>  (15) 
14

>  <SMILES>  (15) 
COc1ccccc1-c1nc2ccccc2[nH]1

>  <Energy>  (15) 
70.82123075202173

>  <Genealogy>  (15) 
COc1ccccc1-c1nc2ccccc2[nH]1 (3D coordinates assigned)
COc1ccccc1-c1nc2ccccc2[nH]1 (optimized conformer: 70.82123075202173 kcal/mol)

>  <smiles>  (15) 
COc1ccccc1-c1nc2ccccc2[nH]1

>  <score_type>  (15) 
oracle

>  <origin>  (15) 
adg

>  <m_score__min__energy>  (15) 
-6

>  <m_primary>  (15) 
energy

$$$$
15:0
     RDKit          3D

 54 57  0  0  0  0  0  0  0  0999 V2000
   66.9910   32.5190   50.4820 C   0  0  0  0  0  0  0  0  0  0  0  0
   65.5330   32.2050   50.1570 C   0  0  0  0  0  0  0  0  0  0  0  0
   65.1050   32.9410   49.0100 O   0  0  0  0  0  0  0  0  0  0  0  0
   63.8670   32.7490   48.3860 C   0  0  0  0  0  0  0  0  0  0  0  0
   63.1540   33.8710   47.9180 C   0  0  0  0  0  0  0  0  0  0  0  0
   61.9130   33.6770   47.3010 C   0  0  0  0  0  0  0  0  0  0  0  0
   61.4590   32.4040   47.1680 N   0  0  0  0  0  0  0  0  0  0  0  0
   60.3000   31.9120   46.6830 C   0  0  0  0  0  0  0  0  0  0  0  0
   59.1730   32.7260   46.1770 C   0  0  0  0  0  0  0  0  0  0  0  0
   57.9570   32.7650   46.8800 C   0  0  0  0  0  0  0  0  0  0  0  0
   56.8850   33.5160   46.3940 C   0  0  0  0  0  0  0  0  0  0  0  0
   57.0180   34.2370   45.2040 C   0  0  0  0  0  0  0  0  0  0  0  0
   58.2240   34.2050   44.4990 C   0  0  0  0  0  0  0  0  0  0  0  0
   59.3000   33.4520   44.9820 C   0  0  0  0  0  0  0  0  0  0  0  0
   60.3210   30.5250   46.8820 C   0  0  0  0  0  0  0  0  0  0  0  0
   59.2630   29.5530   46.5280 C   0  0  0  0  0  0  0  0  0  0  0  0
   58.1130   29.9670   45.8480 C   0  0  0  0  0  0  0  0  0  0  0  0
   57.0850   29.0560   45.5550 C   0  0  0  0  0  0  0  0  0  0  0  0
   55.9060   29.4560   44.9040 O   0  0  0  0  0  0  0  0  0  0  0  0
   55.8530   29.9780   43.5790 C   0  0  0  0  0  0  0  0  0  0  0  0
   57.2150   27.7070   45.9260 C   0  0  0  0  0  0  0  0  0  0  0  0
   56.1390   26.8550   45.6120 O   0  0  0  0  0  0  0  0  0  0  0  0
   55.9680   25.5070   46.0460 C   0  0  0  0  0  0  0  0  0  0  0  0
   58.3930   27.2690   46.5860 C   0  0  0  0  0  0  0  0  0  0  0  0
   58.5410   25.9160   46.9360 O   0  0  0  0  0  0  0  0  0  0  0  0
   59.1370   24.9200   46.1150 C   0  0  0  0  0  0  0  0  0  0  0  0
   59.4060   28.2050   46.8760 C   0  0  0  0  0  0  0  0  0  0  0  0
   61.4870   30.1830   47.4810 N   0  0  0  0  0  0  0  0  0  0  0  0
   62.1410   31.3470   47.6320 C   0  0  0  0  0  0  0  0  0  0  0  0
   63.3430   31.4940   48.2410 N   0  0  0  0  0  0  0  0  0  0  0  0
   67.1254   32.5479   51.5734 H   0  0  0  0  0  0  0  0  0  0  0  0
   67.6383   31.7397   50.0534 H   0  0  0  0  0  0  0  0  0  0  0  0
   67.2601   33.4957   50.0534 H   0  0  0  0  0  0  0  0  0  0  0  0
   65.4312   31.1286   49.9548 H   0  0  0  0  0  0  0  0  0  0  0  0
   64.9081   32.4909   51.0159 H   0  0  0  0  0  0  0  0  0  0  0  0
   63.5667   34.8838   48.0359 H   0  0  0  0  0  0  0  0  0  0  0  0
   61.3229   34.5300   46.9347 H   0  0  0  0  0  0  0  0  0  0  0  0
   57.8491   32.2009   47.8182 H   0  0  0  0  0  0  0  0  0  0  0  0
   55.9350   33.5403   46.9480 H   0  0  0  0  0  0  0  0  0  0  0  0
   56.1734   34.8295   44.8225 H   0  0  0  0  0  0  0  0  0  0  0  0
   58.3277   34.7728   43.5626 H   0  0  0  0  0  0  0  0  0  0  0  0
   60.2477   33.4288   44.4240 H   0  0  0  0  0  0  0  0  0  0  0  0
   58.0126   31.0180   45.5392 H   0  0  0  0  0  0  0  0  0  0  0  0
   55.7420   31.0716   43.6199 H   0  0  0  0  0  0  0  0  0  0  0  0
   56.7816   29.7234   43.0472 H   0  0  0  0  0  0  0  0  0  0  0  0
   54.9945   29.5419   43.0472 H   0  0  0  0  0  0  0  0  0  0  0  0
   55.9638   25.4735   47.1455 H   0  0  0  0  0  0  0  0  0  0  0  0
   55.0132   25.1170   45.6636 H   0  0  0  0  0  0  0  0  0  0  0  0
   56.7952   24.8909   45.6636 H   0  0  0  0  0  0  0  0  0  0  0  0
   59.5982   24.1492   46.7500 H   0  0  0  0  0  0  0  0  0  0  0  0
   58.3663   24.4589   45.4799 H   0  0  0  0  0  0  0  0  0  0  0  0
   59.9077   25.3813   45.4799 H   0  0  0  0  0  0  0  0  0  0  0  0
   60.3229   27.8710   47.3836 H   0  0  0  0  0  0  0  0  0  0  0  0
   61.8070   29.2340   47.7720 H   0  0  0  0  0  0  0  0  0  0  0  0
  1  2  1  0
  2  3  1  0
  3  4  1  0
  4  5  1  0
  5  6  2  0
  6  7  1  0
  7  8  1  0
  8  9  1  0
  9 10  2  0
 10 11  1  0
 11 12  2  0
 12 13  1  0
 13 14  2  0
  8 15  2  0
 15 16  1  0
 16 17  2  0
 17 18  1  0
 18 19  1  0
 19 20  1  0
 18 21  2  0
 21 22  1  0
 22 23  1  0
 21 24  1  0
 24 25  1  0
 25 26  1  0
 24 27  2  0
 15 28  1  0
 28 29  2  0
 29 30  1  0
 30  4  2  0
 29  7  1  0
 14  9  1  0
 27 16  1  0
  1 31  1  0
  1 32  1  0
  1 33  1  0
  2 34  1  0
  2 35  1  0
  5 36  1  0
  6 37  1  0
 10 38  1  0
 11 39  1  0
 12 40  1  0
 13 41  1  0
 14 42  1  0
 17 43  1  0
 20 44  1  0
 20 45  1  0
 20 46  1  0
 23 47  1  0
 23 48  1  0
 23 49  1  0
 26 50  1  0
 26 51  1  0
 26 52  1  0
 27 53  1  0
 28 54  1  0
M  CHG  1  28   1
M  END
>  <UniqueID>  (16) 
15

>  <SMILES>  (16) 
CCOc1ccn2c(-c3ccccc3)c(-c3cc(OC)c(OC)c(OC)c3)[nH+]c2n1

>  <Energy>  (16) 
101.82115147422927

>  <Genealogy>  (16) 
CCOc1ccn2c(-c3ccccc3)c(-c3cc(OC)c(OC)c(OC)c3)[nH+]c2n1 (protonated)
CCOc1ccn2c(-c3ccccc3)c(-c3cc(OC)c(OC)c(OC)c3)[nH+]c2n1 (3D coordinates assigned)
CCOc1ccn2c(-c3ccccc3)c(-c3cc(OC)c(OC)c(OC)c3)[nH+]c2n1 (optimized conformer: 101.82115147422927 kcal/mol)

>  <smiles>  (16) 
CCOc1ccn2c(-c3ccccc3)c(-c3cc(OC)c(OC)c(OC)c3)nc2n1

>  <score_type>  (16) 
oracle

>  <origin>  (16) 
adg

>  <m_score__min__energy>  (16) 
-6.8300000000000001

>  <m_primary>  (16) 
energy

$$$$
16:0
     RDKit          3D

 48 53  0  0  0  0  0  0  0  0999 V2000
   55.1420   29.9850   43.3890 N   0  0  0  0  0  0  0  0  0  0  0  0
   56.2960   29.7920   43.9390 C   0  0  0  0  0  0  0  0  0  0  0  0
   56.4910   29.6660   45.3300 N   0  0  0  0  0  0  0  0  0  0  0  0
   57.9190   29.4570   45.5590 C   0  0  2  0  0  0  0  0  0  0  0  0
   58.5560   29.4750   44.1250 C   0  0  0  0  0  0  0  0  0  0  0  0
   57.4700   29.6850   43.2280 O   0  0  0  0  0  0  0  0  0  0  0  0
   58.1230   28.0920   46.2120 C   0  0  0  0  0  0  0  0  0  0  0  0
   57.5460   26.9410   45.6410 C   0  0  0  0  0  0  0  0  0  0  0  0
   57.7610   25.6690   46.2010 C   0  0  0  0  0  0  0  0  0  0  0  0
   57.1500   24.4620   45.5880 C   0  0  0  0  0  0  0  0  0  0  0  0
   56.5300   23.4830   46.3850 C   0  0  0  0  0  0  0  0  0  0  0  0
   55.9720   22.3820   45.8130 N   0  0  0  0  0  0  0  0  0  0  0  0
   55.9950   22.1850   44.4690 C   0  0  0  0  0  0  0  0  0  0  0  0
   56.5980   23.1280   43.6350 C   0  0  0  0  0  0  0  0  0  0  0  0
   56.6270   22.9350   42.2940 F   0  0  0  0  0  0  0  0  0  0  0  0
   57.1750   24.2680   44.1960 C   0  0  0  0  0  0  0  0  0  0  0  0
   58.5680   25.5570   47.3450 C   0  0  0  0  0  0  0  0  0  0  0  0
   59.1450   26.6910   47.9160 C   0  0  0  0  0  0  0  0  0  0  0  0
   58.9250   27.9540   47.3600 C   0  0  0  0  0  0  0  0  0  0  0  0
   59.4990   29.0680   47.9700 O   0  0  0  0  0  0  0  0  0  0  0  0
   59.2500   30.3700   47.5360 C   0  0  0  0  0  0  0  0  0  0  0  0
   59.7860   31.4370   48.2590 C   0  0  0  0  0  0  0  0  0  0  0  0
   59.5390   32.7540   47.8680 C   0  0  0  0  0  0  0  0  0  0  0  0
   58.7470   33.0240   46.7330 C   0  0  0  0  0  0  0  0  0  0  0  0
   58.4320   34.4270   46.2390 C   0  0  0  0  0  0  0  0  0  0  0  0
   57.7600   34.5540   44.8790 C   0  0  0  0  0  0  0  0  0  0  0  0
   59.2250   34.9410   45.0450 C   0  0  0  0  0  0  0  0  0  0  0  0
   58.2190   31.9450   46.0080 C   0  0  0  0  0  0  0  0  0  0  0  0
   58.4620   30.6120   46.3960 C   0  0  0  0  0  0  0  0  0  0  0  0
   54.3960   30.5100   43.8990 H   0  0  0  0  0  0  0  0  0  0  0  0
   54.9410   29.6200   42.4310 H   0  0  0  0  0  0  0  0  0  0  0  0
   55.7470   29.7120   46.0620 H   0  0  0  0  0  0  0  0  0  0  0  0
   59.2881   30.2916   44.0399 H   0  0  0  0  0  0  0  0  0  0  0  0
   59.0916   28.5397   43.9050 H   0  0  0  0  0  0  0  0  0  0  0  0
   56.9177   27.0385   44.7434 H   0  0  0  0  0  0  0  0  0  0  0  0
   56.4961   23.6083   47.4773 H   0  0  0  0  0  0  0  0  0  0  0  0
   55.5382   21.2820   44.0378 H   0  0  0  0  0  0  0  0  0  0  0  0
   57.6511   25.0175   43.5466 H   0  0  0  0  0  0  0  0  0  0  0  0
   58.7461   24.5685   47.7935 H   0  0  0  0  0  0  0  0  0  0  0  0
   59.7777   26.5905   48.8102 H   0  0  0  0  0  0  0  0  0  0  0  0
   60.4081   31.2383   49.1441 H   0  0  0  0  0  0  0  0  0  0  0  0
   59.9645   33.5858   48.4485 H   0  0  0  0  0  0  0  0  0  0  0  0
   58.2177   34.8023   47.2506 H   0  0  0  0  0  0  0  0  0  0  0  0
   57.4905   33.6507   44.3121 H   0  0  0  0  0  0  0  0  0  0  0  0
   56.8597   35.0601   44.5003 H   0  0  0  0  0  0  0  0  0  0  0  0
   60.0129   34.3170   44.5980 H   0  0  0  0  0  0  0  0  0  0  0  0
   59.8203   35.8420   44.8359 H   0  0  0  0  0  0  0  0  0  0  0  0
   57.6028   32.1435   45.1186 H   0  0  0  0  0  0  0  0  0  0  0  0
  1  2  2  0
  2  3  1  0
  4  3  1  6
  4  5  1  0
  5  6  1  0
  4  7  1  0
  7  8  2  0
  8  9  1  0
  9 10  1  0
 10 11  2  0
 11 12  1  0
 12 13  2  0
 13 14  1  0
 14 15  1  0
 14 16  2  0
  9 17  2  0
 17 18  1  0
 18 19  2  0
 19 20  1  0
 20 21  1  0
 21 22  2  0
 22 23  1  0
 23 24  2  0
 24 25  1  0
 25 26  1  0
 26 27  1  0
 24 28  1  0
 28 29  2  0
  6  2  1  0
 19  7  1  0
 29 21  1  0
 29  4  1  0
 16 10  1  0
 27 25  1  0
  1 30  1  0
  1 31  1  0
  3 32  1  0
  5 33  1  0
  5 34  1  0
  8 35  1  0
 11 36  1  0
 13 37  1  0
 16 38  1  0
 17 39  1  0
 18 40  1  0
 22 41  1  0
 23 42  1  0
 25 43  1  0
 26 44  1  0
 26 45  1  0
 27 46  1  0
 27 47  1  0
 28 48  1  0
M  CHG  1   1   1
M  END
>  <UniqueID>  (17) 
16

>  <SMILES>  (17) 
[NH2+]=C1N[C@]2(CO1)c1cc(-c3cncc(F)c3)ccc1Oc1ccc(C3CC3)cc12

>  <Energy>  (17) 
347.1868509500611

>  <Genealogy>  (17) 
[NH2+]=C1NC2(CO1)c1cc(-c3cncc(F)c3)ccc1Oc1ccc(C3CC3)cc12 (protonated)
[NH2+]=C1N[C@]2(CO1)c1cc(-c3cncc(F)c3)ccc1Oc1ccc(C3CC3)cc12 (chirality)
[NH2+]=C1N[C@]2(CO1)c1cc(-c3cncc(F)c3)ccc1Oc1ccc(C3CC3)cc12 (3D coordinates assigned)
[NH2+]=C1N[C@]2(CO1)c1cc(-c3cncc(F)c3)ccc1Oc1ccc(C3CC3)cc12 (nonaromatic ring conformer: 347.1868509500611 kcal/mol)

>  <smiles>  (17) 
N=C1NC2(CO1)c1cc(-c3cncc(F)c3)ccc1Oc1ccc(C3CC3)cc12

>  <score_type>  (17) 
oracle

>  <origin>  (17) 
adg

>  <m_score__min__energy>  (17) 
-6.7999999999999998

>  <m_primary>  (17) 
energy

$$$$
17:0
     RDKit          3D

 40 42  0  0  0  0  0  0  0  0999 V2000
   56.9750   34.3970   44.4990 O   0  0  0  0  0  0  0  0  0  0  0  0
   58.0410   33.8300   44.8600 C   0  0  0  0  0  0  0  0  0  0  0  0
   59.2380   34.6810   45.1890 C   0  0  0  0  0  0  0  0  0  0  0  0
   59.4760   34.6950   46.5970 O   0  0  0  0  0  0  0  0  0  0  0  0
   60.6500   34.2430   47.2210 C   0  0  0  0  0  0  0  0  0  0  0  0
   61.7850   33.8280   46.4950 C   0  0  0  0  0  0  0  0  0  0  0  0
   62.9300   33.3910   47.1680 C   0  0  0  0  0  0  0  0  0  0  0  0
   62.9540   33.3590   48.5650 C   0  0  0  0  0  0  0  0  0  0  0  0
   64.5190   32.7610   49.4820 Br  0  0  0  0  0  0  0  0  0  0  0  0
   61.8300   33.7660   49.2910 C   0  0  0  0  0  0  0  0  0  0  0  0
   60.6850   34.2050   48.6210 C   0  0  0  0  0  0  0  0  0  0  0  0
   58.0830   32.3930   44.9660 N   0  0  0  0  0  0  0  0  0  0  0  0
   57.4100   31.5780   43.9490 C   0  0  0  0  0  0  0  0  0  0  0  0
   56.7800   30.3400   44.5870 C   0  0  0  0  0  0  0  0  0  0  0  0
   57.7540   29.6600   45.4540 N   0  0  0  0  0  0  0  0  0  0  0  0
   57.7820   28.2160   45.5340 C   0  0  0  0  0  0  0  0  0  0  0  0
   58.9690   27.5480   45.5580 N   0  0  0  0  0  0  0  0  0  0  0  0
   59.0160   26.1930   45.6360 C   0  0  0  0  0  0  0  0  0  0  0  0
   57.8330   25.4600   45.6930 C   0  0  0  0  0  0  0  0  0  0  0  0
   56.6240   26.1500   45.6680 C   0  0  0  0  0  0  0  0  0  0  0  0
   56.6200   27.5060   45.5900 N   0  0  0  0  0  0  0  0  0  0  0  0
   58.4280   30.4760   46.4750 C   0  0  0  0  0  0  0  0  0  0  0  0
   59.0500   31.7240   45.8450 C   0  0  0  0  0  0  0  0  0  0  0  0
   60.1224   34.2734   44.6774 H   0  0  0  0  0  0  0  0  0  0  0  0
   59.0432   35.7102   44.8531 H   0  0  0  0  0  0  0  0  0  0  0  0
   61.7697   33.8481   45.3953 H   0  0  0  0  0  0  0  0  0  0  0  0
   63.8140   33.0716   46.5966 H   0  0  0  0  0  0  0  0  0  0  0  0
   61.8473   33.7405   50.3906 H   0  0  0  0  0  0  0  0  0  0  0  0
   59.8039   34.5233   49.1975 H   0  0  0  0  0  0  0  0  0  0  0  0
   56.6233   32.1771   43.4672 H   0  0  0  0  0  0  0  0  0  0  0  0
   58.1514   31.2559   43.2029 H   0  0  0  0  0  0  0  0  0  0  0  0
   55.9101   30.6443   45.1876 H   0  0  0  0  0  0  0  0  0  0  0  0
   56.4657   29.6485   43.7913 H   0  0  0  0  0  0  0  0  0  0  0  0
   59.9864   25.6754   45.6541 H   0  0  0  0  0  0  0  0  0  0  0  0
   57.8534   24.3620   45.7563 H   0  0  0  0  0  0  0  0  0  0  0  0
   55.6736   25.5979   45.7113 H   0  0  0  0  0  0  0  0  0  0  0  0
   57.6940   30.7825   47.2348 H   0  0  0  0  0  0  0  0  0  0  0  0
   59.2268   29.8768   46.9363 H   0  0  0  0  0  0  0  0  0  0  0  0
   59.3551   32.4180   46.6420 H   0  0  0  0  0  0  0  0  0  0  0  0
   59.9240   31.4233   45.2486 H   0  0  0  0  0  0  0  0  0  0  0  0
  1  2  2  0
  2  3  1  0
  3  4  1  0
  4  5  1  0
  5  6  2  0
  6  7  1  0
  7  8  2  0
  8  9  1  0
  8 10  1  0
 10 11  2  0
  2 12  1  0
 12 13  1  0
 13 14  1  0
 14 15  1  0
 15 16  1  0
 16 17  2  0
 17 18  1  0
 18 19  2  0
 19 20  1  0
 20 21  2  0
 15 22  1  0
 22 23  1  0
 11  5  1  0
 23 12  1  0
 21 16  1  0
  3 24  1  0
  3 25  1  0
  6 26  1  0
  7 27  1  0
 10 28  1  0
 11 29  1  0
 13 30  1  0
 13 31  1  0
 14 32  1  0
 14 33  1  0
 18 34  1  0
 19 35  1  0
 20 36  1  0
 22 37  1  0
 22 38  1  0
 23 39  1  0
 23 40  1  0
M  END
>  <UniqueID>  (18) 
17

>  <SMILES>  (18) 
O=C(COc1ccc(Br)cc1)N1CCN(c2ncccn2)CC1

>  <Energy>  (18) 
44.121217575443396

>  <Genealogy>  (18) 
O=C(COc1ccc(Br)cc1)N1CCN(c2ncccn2)CC1 (3D coordinates assigned)
O=C(COc1ccc(Br)cc1)N1CCN(c2ncccn2)CC1 (nonaromatic ring conformer: 44.121217575443396 kcal/mol)

>  <smiles>  (18) 
O=C(COc1ccc(Br)cc1)N1CCN(c2ncccn2)CC1

>  <score_type>  (18) 
oracle

>  <origin>  (18) 
adg

>  <m_score__min__energy>  (18) 
-7.0599999999999996

>  <m_primary>  (18) 
energy

$$$$
18:0
     RDKit          3D

 43 46  0  0  0  0  0  0  0  0999 V2000
   54.8970   24.5150   46.0680 O   0  0  0  0  0  0  0  0  0  0  0  0
   55.7520   25.3230   45.6200 C   0  0  0  0  0  0  0  0  0  0  0  0
   55.6220   26.7140   45.9380 N   0  0  0  0  0  0  0  0  0  0  0  0
   56.6360   27.7140   45.7650 C   0  0  0  0  0  0  0  0  0  0  0  0
   57.8090   27.6260   46.5210 C   0  0  0  0  0  0  0  0  0  0  0  0
   58.8080   28.5950   46.3910 C   0  0  0  0  0  0  0  0  0  0  0  0
   58.6450   29.6650   45.5050 C   0  0  0  0  0  0  0  0  0  0  0  0
   59.6750   30.6080   45.3930 O   0  0  0  0  0  0  0  0  0  0  0  0
   60.0350   31.5180   46.3990 C   0  0  0  0  0  0  0  0  0  0  0  0
   59.1010   32.3970   46.9790 C   0  0  0  0  0  0  0  0  0  0  0  0
   59.4960   33.2930   47.9740 C   0  0  0  0  0  0  0  0  0  0  0  0
   60.8320   33.3320   48.3990 C   0  0  0  0  0  0  0  0  0  0  0  0
   61.2390   34.2280   49.4010 C   0  0  0  0  0  0  0  0  0  0  0  0
   62.5740   34.2580   49.8120 C   0  0  0  0  0  0  0  0  0  0  0  0
   63.5100   33.3970   49.2320 C   0  0  0  0  0  0  0  0  0  0  0  0
   63.1160   32.5000   48.2340 C   0  0  0  0  0  0  0  0  0  0  0  0
   61.7790   32.4590   47.8120 C   0  0  0  0  0  0  0  0  0  0  0  0
   61.3710   31.5630   46.8120 C   0  0  0  0  0  0  0  0  0  0  0  0
   57.4430   29.7890   44.7810 C   0  0  0  0  0  0  0  0  0  0  0  0
   57.1270   31.1890   43.7630 Cl  0  0  0  0  0  0  0  0  0  0  0  0
   56.4450   28.8180   44.9150 C   0  0  0  0  0  0  0  0  0  0  0  0
   56.8920   24.8410   44.8910 N   0  0  0  0  0  0  0  0  0  0  0  0
   56.9390   23.5690   44.2230 C   0  0  0  0  0  0  0  0  0  0  0  0
   57.9610   22.6370   44.4740 C   0  0  0  0  0  0  0  0  0  0  0  0
   57.9560   21.4020   43.8250 C   0  0  0  0  0  0  0  0  0  0  0  0
   56.9210   21.1000   42.9390 C   0  0  0  0  0  0  0  0  0  0  0  0
   55.9260   22.0000   42.7200 N   0  0  0  0  0  0  0  0  0  0  0  0
   55.9100   23.2100   43.3400 C   0  0  0  0  0  0  0  0  0  0  0  0
   57.9464   26.7895   47.2220 H   0  0  0  0  0  0  0  0  0  0  0  0
   59.7278   28.5156   46.9890 H   0  0  0  0  0  0  0  0  0  0  0  0
   58.0528   32.3778   46.6460 H   0  0  0  0  0  0  0  0  0  0  0  0
   58.7569   33.9707   48.4262 H   0  0  0  0  0  0  0  0  0  0  0  0
   60.5064   34.9065   49.8624 H   0  0  0  0  0  0  0  0  0  0  0  0
   62.8899   34.9624   50.5956 H   0  0  0  0  0  0  0  0  0  0  0  0
   64.5592   33.4250   49.5614 H   0  0  0  0  0  0  0  0  0  0  0  0
   63.8561   31.8253   47.7791 H   0  0  0  0  0  0  0  0  0  0  0  0
   62.1079   30.8903   46.3489 H   0  0  0  0  0  0  0  0  0  0  0  0
   55.5052   28.9186   44.3522 H   0  0  0  0  0  0  0  0  0  0  0  0
   57.7640   25.4170   44.9180 H   0  0  0  0  0  0  0  0  0  0  0  0
   58.7656   22.8817   45.1830 H   0  0  0  0  0  0  0  0  0  0  0  0
   58.7596   20.6739   44.0098 H   0  0  0  0  0  0  0  0  0  0  0  0
   56.9103   20.1319   42.4168 H   0  0  0  0  0  0  0  0  0  0  0  0
   55.0850   23.9117   43.1479 H   0  0  0  0  0  0  0  0  0  0  0  0
  1  2  2  0
  2  3  1  0
  3  4  1  0
  4  5  2  0
  5  6  1  0
  6  7  2  0
  7  8  1  0
  8  9  1  0
  9 10  2  0
 10 11  1  0
 11 12  2  0
 12 13  1  0
 13 14  2  0
 14 15  1  0
 15 16  2  0
 16 17  1  0
 17 18  2  0
  7 19  1  0
 19 20  1  0
 19 21  2  0
  2 22  1  0
 22 23  1  0
 23 24  2  0
 24 25  1  0
 25 26  2  0
 26 27  1  0
 27 28  2  0
 21  4  1  0
 28 23  1  0
 18  9  1  0
 17 12  1  0
  5 29  1  0
  6 30  1  0
 10 31  1  0
 11 32  1  0
 13 33  1  0
 14 34  1  0
 15 35  1  0
 16 36  1  0
 18 37  1  0
 21 38  1  0
 22 39  1  0
 24 40  1  0
 25 41  1  0
 26 42  1  0
 28 43  1  0
M  CHG  1   3  -1
M  END
>  <UniqueID>  (19) 
18

>  <SMILES>  (19) 
O=C([N-]c1ccc(Oc2ccc3ccccc3c2)c(Cl)c1)Nc1cccnc1

>  <Energy>  (19) 
67.03595720329052

>  <Genealogy>  (19) 
O=C([N-]c1ccc(Oc2ccc3ccccc3c2)c(Cl)c1)Nc1cccnc1 (protonated)
O=C([N-]c1ccc(Oc2ccc3ccccc3c2)c(Cl)c1)Nc1cccnc1 (3D coordinates assigned)
O=C([N-]c1ccc(Oc2ccc3ccccc3c2)c(Cl)c1)Nc1cccnc1 (optimized conformer: 67.03595720329052 kcal/mol)

>  <smiles>  (19) 
O=C(Nc1cccnc1)Nc1ccc(Oc2ccc3ccccc3c2)c(Cl)c1

>  <score_type>  (19) 
oracle

>  <origin>  (19) 
adg

>  <m_score__min__energy>  (19) 
-10.880000000000001

>  <m_primary>  (19) 
energy

$$$$
19:0
     RDKit          3D

 45 47  0  0  0  0  0  0  0  0999 V2000
   55.6400   29.7290   46.0000 H   0  0  0  0  0  0  0  0  0  0  0  0
   56.1860   29.9350   45.1710 O   0  0  0  0  0  0  0  0  0  0  0  0
   57.4980   30.3590   45.2400 N   0  0  0  0  0  0  0  0  0  0  0  0
   58.0500   30.8130   46.3270 C   0  0  0  0  0  0  0  0  0  0  0  0
   58.3960   32.2460   46.4330 C   0  0  0  0  0  0  0  0  0  0  0  0
   58.7610   32.8220   47.6660 C   0  0  0  0  0  0  0  0  0  0  0  0
   58.7930   32.0270   48.8220 O   0  0  0  0  0  0  0  0  0  0  0  0
   58.6670   32.4960   50.1360 C   0  0  0  0  0  0  0  0  0  0  0  0
   59.5260   33.4760   50.6690 C   0  0  0  0  0  0  0  0  0  0  0  0
   60.3240   33.9044   50.0448 H   0  0  0  0  0  0  0  0  0  0  0  0
   59.3670   33.9060   51.9900 C   0  0  0  0  0  0  0  0  0  0  0  0
   60.0346   34.6781   52.4001 H   0  0  0  0  0  0  0  0  0  0  0  0
   58.3620   33.3570   52.7900 C   0  0  0  0  0  0  0  0  0  0  0  0
   58.2339   33.7017   53.8267 H   0  0  0  0  0  0  0  0  0  0  0  0
   57.5190   32.3690   52.2720 C   0  0  0  0  0  0  0  0  0  0  0  0
   56.7316   31.9320   52.9037 H   0  0  0  0  0  0  0  0  0  0  0  0
   57.6760   31.9360   50.9520 C   0  0  0  0  0  0  0  0  0  0  0  0
   57.0174   31.1510   50.5520 H   0  0  0  0  0  0  0  0  0  0  0  0
   59.0040   34.1620   47.7390 N   0  0  0  0  0  0  0  0  0  0  0  0
   58.9110   34.9720   46.6530 C   0  0  0  0  0  0  0  0  0  0  0  0
   59.1288   36.0460   46.7483 H   0  0  0  0  0  0  0  0  0  0  0  0
   58.5400   34.4440   45.4180 C   0  0  0  0  0  0  0  0  0  0  0  0
   58.4564   35.0974   44.5371 H   0  0  0  0  0  0  0  0  0  0  0  0
   58.2760   33.0800   45.3100 C   0  0  0  0  0  0  0  0  0  0  0  0
   57.9726   32.6553   44.3417 H   0  0  0  0  0  0  0  0  0  0  0  0
   58.4280   29.9240   47.3860 N   0  0  0  0  0  0  0  0  0  0  0  0
   57.9270   29.9890   48.3000 H   0  0  0  0  0  0  0  0  0  0  0  0
   59.6860   29.1780   47.3250 C   0  0  0  0  0  0  0  0  0  0  0  0
   59.9149   28.9393   46.2759 H   0  0  0  0  0  0  0  0  0  0  0  0
   59.5797   28.2524   47.9098 H   0  0  0  0  0  0  0  0  0  0  0  0
   60.8140   29.9960   47.9060 C   0  0  0  0  0  0  0  0  0  0  0  0
   61.5560   30.8500   47.0710 C   0  0  0  0  0  0  0  0  0  0  0  0
   61.3626   30.8590   45.9882 H   0  0  0  0  0  0  0  0  0  0  0  0
   62.5360   31.6860   47.6070 C   0  0  0  0  0  0  0  0  0  0  0  0
   63.1145   32.3483   46.9462 H   0  0  0  0  0  0  0  0  0  0  0  0
   62.7830   31.6830   48.9790 C   0  0  0  0  0  0  0  0  0  0  0  0
   63.5577   32.3420   49.3981 H   0  0  0  0  0  0  0  0  0  0  0  0
   62.0500   30.8460   49.8230 C   0  0  0  0  0  0  0  0  0  0  0  0
   62.2508   30.8477   50.9045 H   0  0  0  0  0  0  0  0  0  0  0  0
   61.0540   29.9990   49.2960 C   0  0  0  0  0  0  0  0  0  0  0  0
   60.2760   29.1690   50.1200 O   0  0  0  0  0  0  0  0  0  0  0  0
   60.0880   29.3660   51.5170 C   0  0  0  0  0  0  0  0  0  0  0  0
   60.7423   28.6803   52.0753 H   0  0  0  0  0  0  0  0  0  0  0  0
   60.3379   30.4050   51.7777 H   0  0  0  0  0  0  0  0  0  0  0  0
   59.0384   29.1649   51.7777 H   0  0  0  0  0  0  0  0  0  0  0  0
  1  2  1  0
  2  3  1  0
  3  4  2  0
  4  5  1  0
  5  6  1  0
  6  7  1  0
  7  8  1  0
  8  9  2  0
  9 10  1  0
  9 11  1  0
 11 12  1  0
 11 13  2  0
 13 14  1  0
 13 15  1  0
 15 16  1  0
 15 17  2  0
 17 18  1  0
  6 19  2  0
 19 20  1  0
 20 21  1  0
 20 22  2  0
 22 23  1  0
 22 24  1  0
 24 25  1  0
  4 26  1  0
 26 27  1  0
 26 28  1  0
 28 29  1  0
 28 30  1  0
 28 31  1  0
 31 32  2  0
 32 33  1  0
 32 34  1  0
 34 35  1  0
 34 36  2  0
 36 37  1  0
 36 38  1  0
 38 39  1  0
 38 40  2  0
 40 41  1  0
 41 42  1  0
 42 43  1  0
 42 44  1  0
 42 45  1  0
 24  5  2  0
 40 31  1  0
 17  8  1  0
M  END
>  <UniqueID>  (20) 
19

>  <SMILES>  (20) 
COc1ccccc1CN/C(=N\O)c1cccnc1Oc1ccccc1

>  <Energy>  (20) 
58.642010255338704

>  <Genealogy>  (20) 
COc1ccccc1CN/C(=N\O)c1cccnc1Oc1ccccc1 (cis-trans isomerization)
COc1ccccc1CN/C(=N\O)c1cccnc1Oc1ccccc1 (3D coordinates assigned)
COc1ccccc1CN/C(=N\O)c1cccnc1Oc1ccccc1 (optimized conformer: 58.642010255338704 kcal/mol)

>  <smiles>  (20) 
COc1ccccc1CNC(=NO)c1cccnc1Oc1ccccc1

>  <score_type>  (20) 
oracle

>  <origin>  (20) 
adg

>  <m_score__min__energy>  (20) 
-7.4299999999999997

>  <m_primary>  (20) 
energy

$$$$
20:0
     RDKit          3D

 27 29  0  0  0  0  0  0  0  0999 V2000
   58.3790   27.5020   44.5970 C   0  0  0  0  0  0  0  0  0  0  0  0
   58.0210   26.7400   45.8690 C   0  0  0  0  0  0  0  0  0  0  0  0
   56.6750   26.0950   45.7400 C   0  0  0  0  0  0  0  0  0  0  0  0
   55.5130   26.7180   46.0330 N   0  0  0  0  0  0  0  0  0  0  0  0
   54.5290   25.8300   45.9730 N   0  0  0  0  0  0  0  0  0  0  0  0
   55.0710   24.6480   45.6310 C   0  0  0  0  0  0  0  0  0  0  0  0
   56.4160   24.7660   45.4730 C   0  0  0  0  0  0  0  0  0  0  0  0
   57.3300   23.5860   45.3920 C   0  0  0  0  0  0  0  0  0  0  0  0
   57.4150   22.9180   46.6530 O   0  0  0  0  0  0  0  0  0  0  0  0
   56.3740   22.5630   47.5450 C   0  0  0  0  0  0  0  0  0  0  0  0
   56.7610   22.1390   48.7840 N   0  0  0  0  0  0  0  0  0  0  0  0
   55.8720   21.8580   49.7730 C   0  0  0  0  0  0  0  0  0  0  0  0
   54.5080   21.9970   49.5460 C   0  0  0  0  0  0  0  0  0  0  0  0
   54.0640   22.4020   48.2920 C   0  0  0  0  0  0  0  0  0  0  0  0
   54.9760   22.6650   47.2640 C   0  0  0  0  0  0  0  0  0  0  0  0
   54.2660   23.0660   45.6550 S   0  0  0  0  0  0  0  0  0  0  0  0
   58.8328   28.4679   44.8636 H   0  0  0  0  0  0  0  0  0  0  0  0
   59.0941   26.9119   44.0050 H   0  0  0  0  0  0  0  0  0  0  0  0
   57.4683   27.6757   44.0050 H   0  0  0  0  0  0  0  0  0  0  0  0
   58.7780   25.9625   46.0491 H   0  0  0  0  0  0  0  0  0  0  0  0
   57.9938   27.4489   46.7096 H   0  0  0  0  0  0  0  0  0  0  0  0
   56.9452   22.8837   44.6378 H   0  0  0  0  0  0  0  0  0  0  0  0
   58.3340   23.9382   45.1129 H   0  0  0  0  0  0  0  0  0  0  0  0
   57.7810   22.0510   48.9930 H   0  0  0  0  0  0  0  0  0  0  0  0
   56.2330   21.5197   50.7555 H   0  0  0  0  0  0  0  0  0  0  0  0
   53.7869   21.7888   50.3501 H   0  0  0  0  0  0  0  0  0  0  0  0
   52.9858   22.5167   48.1065 H   0  0  0  0  0  0  0  0  0  0  0  0
  1  2  1  0
  2  3  1  0
  3  4  2  0
  4  5  1  0
  5  6  1  0
  6  7  2  0
  7  8  1  0
  8  9  1  0
  9 10  1  0
 10 11  2  0
 11 12  1  0
 12 13  2  0
 13 14  1  0
 14 15  2  0
 15 16  1  0
  7  3  1  0
 15 10  1  0
 16  6  1  0
  1 17  1  0
  1 18  1  0
  1 19  1  0
  2 20  1  0
  2 21  1  0
  8 22  1  0
  8 23  1  0
 11 24  1  0
 12 25  1  0
 13 26  1  0
 14 27  1  0
M  CHG  2   5  -1  11   1
M  END
>  <UniqueID>  (21) 
20

>  <SMILES>  (21) 
CCc1n[n-]c2c1COc1[nH+]cccc1S2

>  <Energy>  (21) 
66.8969724572985

>  <Genealogy>  (21) 
CCc1n[n-]c2c1COc1[nH+]cccc1S2 (protonated)
CCc1n[n-]c2c1COc1[nH+]cccc1S2 (3D coordinates assigned)
CCc1n[n-]c2c1COc1[nH+]cccc1S2 (nonaromatic ring conformer: 66.8969724572985 kcal/mol)

>  <smiles>  (21) 
CCc1n[nH]c2c1COc1ncccc1S2

>  <score_type>  (21) 
oracle

>  <origin>  (21) 
adg

>  <m_score__min__energy>  (21) 
-6.5300000000000002

>  <m_primary>  (21) 
energy

$$$$
21:0
     RDKit          3D

 49 50  0  0  0  0  0  0  0  0999 V2000
   56.6676   22.9341   46.0797 H   0  0  0  0  0  0  0  0  0  0  0  0
   57.0020   23.9690   45.9150 C   0  0  0  0  0  0  0  0  0  0  0  0
   58.3800   24.2360   45.7270 C   0  0  0  0  0  0  0  0  0  0  0  0
   59.2750   23.1570   45.7530 O   0  0  0  0  0  0  0  0  0  0  0  0
   59.4250   22.2140   44.6970 C   0  0  0  0  0  0  0  0  0  0  0  0
   59.5845   21.2114   45.1206 H   0  0  0  0  0  0  0  0  0  0  0  0
   58.5162   22.2099   44.0772 H   0  0  0  0  0  0  0  0  0  0  0  0
   60.2902   22.4921   44.0772 H   0  0  0  0  0  0  0  0  0  0  0  0
   58.8110   25.5690   45.5220 C   0  0  0  0  0  0  0  0  0  0  0  0
   59.8756   25.8056   45.3784 H   0  0  0  0  0  0  0  0  0  0  0  0
   57.8450   26.5700   45.5080 C   0  0  0  0  0  0  0  0  0  0  0  0
   58.0310   27.8900   45.3340 N   0  0  0  0  0  0  0  0  0  0  0  0
   56.7590   28.3590   45.4140 C   0  0  0  0  0  0  0  0  0  0  0  0
   56.4780   29.6210   45.2980 N   0  0  0  0  0  0  0  0  0  0  0  0
   56.3570   30.3370   44.0260 C   0  0  2  0  0  0  0  0  0  0  0  0
   55.3224   30.6894   43.9019 H   0  0  0  0  0  0  0  0  0  0  0  0
   56.7340   29.3760   42.8940 C   0  0  0  0  0  0  0  0  0  0  0  0
   57.1041   28.4326   43.3219 H   0  0  0  0  0  0  0  0  0  0  0  0
   55.8482   29.1747   42.2737 H   0  0  0  0  0  0  0  0  0  0  0  0
   57.5204   29.8307   42.2737 H   0  0  0  0  0  0  0  0  0  0  0  0
   57.2830   31.5710   43.9980 C   0  0  0  0  0  0  0  0  0  0  0  0
   56.7334   32.4139   43.5536 H   0  0  0  0  0  0  0  0  0  0  0  0
   58.1711   31.3077   43.4047 H   0  0  0  0  0  0  0  0  0  0  0  0
   57.7640   31.9810   45.3990 C   0  0  0  0  0  0  0  0  0  0  0  0
   57.0973   31.5355   46.1520 H   0  0  0  0  0  0  0  0  0  0  0  0
   57.7459   33.0788   45.4664 H   0  0  0  0  0  0  0  0  0  0  0  0
   59.2070   31.4990   45.6560 C   0  0  0  0  0  0  0  0  0  0  0  0
   59.6884   32.2166   46.3367 H   0  0  0  0  0  0  0  0  0  0  0  0
   59.6866   31.4372   44.6680 H   0  0  0  0  0  0  0  0  0  0  0  0
   59.3290   30.1450   46.2560 N   0  0  0  0  0  0  0  0  0  0  0  0
   58.6170   29.5730   45.7400 H   0  0  0  0  0  0  0  0  0  0  0  0
   60.6310   29.4680   46.0100 C   0  0  0  0  0  0  0  0  0  0  0  0
   60.7575   28.6716   46.7582 H   0  0  0  0  0  0  0  0  0  0  0  0
   61.4164   30.2346   46.0844 H   0  0  0  0  0  0  0  0  0  0  0  0
   60.7350   28.8450   44.6140 C   0  0  0  0  0  0  0  0  0  0  0  0
   60.9155   27.7639   44.7074 H   0  0  0  0  0  0  0  0  0  0  0  0
   59.7962   29.0140   44.0662 H   0  0  0  0  0  0  0  0  0  0  0  0
   61.5680   29.3098   44.0662 H   0  0  0  0  0  0  0  0  0  0  0  0
   58.8870   30.0770   47.6790 C   0  0  0  0  0  0  0  0  0  0  0  0
   59.4895   30.7963   48.2531 H   0  0  0  0  0  0  0  0  0  0  0  0
   57.8101   30.3006   47.6657 H   0  0  0  0  0  0  0  0  0  0  0  0
   59.0170   28.7010   48.3630 C   0  0  0  0  0  0  0  0  0  0  0  0
   59.0046   28.8318   49.4551 H   0  0  0  0  0  0  0  0  0  0  0  0
   58.1754   28.0604   48.0609 H   0  0  0  0  0  0  0  0  0  0  0  0
   59.9637   28.2293   48.0609 H   0  0  0  0  0  0  0  0  0  0  0  0
   55.8510   27.4170   45.6180 O   0  0  0  0  0  0  0  0  0  0  0  0
   56.5230   26.2990   45.6820 C   0  0  0  0  0  0  0  0  0  0  0  0
   56.0540   25.0100   45.8940 C   0  0  0  0  0  0  0  0  0  0  0  0
   54.9824   24.8092   46.0401 H   0  0  0  0  0  0  0  0  0  0  0  0
  1  2  1  0
  2  3  2  0
  3  4  1  0
  4  5  1  0
  5  6  1  0
  5  7  1  0
  5  8  1  0
  3  9  1  0
  9 10  1  0
  9 11  2  0
 11 12  1  0
 12 13  1  0
 13 14  2  0
 14 15  1  0
 15 16  1  6
 15 17  1  0
 17 18  1  0
 17 19  1  0
 17 20  1  0
 15 21  1  0
 21 22  1  0
 21 23  1  0
 21 24  1  0
 24 25  1  0
 24 26  1  0
 24 27  1  0
 27 28  1  0
 27 29  1  0
 27 30  1  0
 30 31  1  0
 30 32  1  0
 32 33  1  0
 32 34  1  0
 32 35  1  0
 35 36  1  0
 35 37  1  0
 35 38  1  0
 30 39  1  0
 39 40  1  0
 39 41  1  0
 39 42  1  0
 42 43  1  0
 42 44  1  0
 42 45  1  0
 13 46  1  0
 46 47  1  0
 47 48  2  0
 48 49  1  0
 48  2  1  0
 47 11  1  0
M  CHG  2  12  -1  30   1
M  END
>  <UniqueID>  (22) 
21

>  <SMILES>  (22) 
CC[NH+](CC)CCC[C@@H](C)/N=c1/[n-]c2cc(OC)ccc2o1

>  <Energy>  (22) 
85.98186353920293

>  <Genealogy>  (22) 
CC[NH+](CC)CCCC(C)N=c1[n-]c2cc(OC)ccc2o1 (protonated)
CC[NH+](CC)CCC[C@@H](C)N=c1[n-]c2cc(OC)ccc2o1 (chirality)
CC[NH+](CC)CCC[C@@H](C)/N=c1/[n-]c2cc(OC)ccc2o1 (cis-trans isomerization)
CC[NH+](CC)CCC[C@@H](C)/N=c1/[n-]c2cc(OC)ccc2o1 (3D coordinates assigned)
CC[NH+](CC)CCC[C@@H](C)/N=c1/[n-]c2cc(OC)ccc2o1 (optimized conformer: 85.98186353920293 kcal/mol)

>  <smiles>  (22) 
CCN(CC)CCCC(C)N=c1[nH]c2cc(OC)ccc2o1

>  <score_type>  (22) 
oracle

>  <origin>  (22) 
adg

>  <m_score__min__energy>  (22) 
-5.6399999999999997

>  <m_primary>  (22) 
energy

$$$$
22:0
     RDKit          3D

 44 46  0  0  0  0  0  0  0  0999 V2000
   56.9214   34.8182   44.1517 H   0  0  0  0  0  0  0  0  0  0  0  0
   57.5670   34.2930   44.8710 C   0  0  0  0  0  0  0  0  0  0  0  0
   57.0100   33.3950   45.7840 C   0  0  0  0  0  0  0  0  0  0  0  0
   55.9236   33.2226   45.7917 H   0  0  0  0  0  0  0  0  0  0  0  0
   57.8310   32.7150   46.6880 C   0  0  0  0  0  0  0  0  0  0  0  0
   57.3850   32.0249   47.4194 H   0  0  0  0  0  0  0  0  0  0  0  0
   59.2250   32.9080   46.6680 C   0  0  0  0  0  0  0  0  0  0  0  0
   60.1230   32.1500   47.6180 C   0  0  0  0  0  0  0  0  0  0  0  0
   59.8615   32.4344   48.6479 H   0  0  0  0  0  0  0  0  0  0  0  0
   61.1609   32.4139   47.3669 H   0  0  0  0  0  0  0  0  0  0  0  0
   59.9950   30.6190   47.4850 C   0  0  0  0  0  0  0  0  0  0  0  0
   59.0438   30.3124   47.9446 H   0  0  0  0  0  0  0  0  0  0  0  0
   60.8735   30.1865   47.9862 H   0  0  0  0  0  0  0  0  0  0  0  0
   60.0180   30.1010   46.0360 C   0  0  0  0  0  0  0  0  0  0  0  0
   60.9243   29.4941   45.8935 H   0  0  0  0  0  0  0  0  0  0  0  0
   60.0059   30.9762   45.3698 H   0  0  0  0  0  0  0  0  0  0  0  0
   58.8460   29.2790   45.7100 N   0  0  0  0  0  0  0  0  0  0  0  0
   57.8630   29.5550   44.8110 C   0  0  0  0  0  0  0  0  0  0  0  0
   57.8740   30.6270   44.0690 N   0  0  0  0  0  0  0  0  0  0  0  0
   57.0720   30.9040   42.9110 C   0  0  0  0  0  0  0  0  0  0  0  0
   56.0660   30.1820   42.6840 O   0  0  0  0  0  0  0  0  0  0  0  0
   57.4360   31.9620   41.9140 C   0  0  0  0  0  0  0  0  0  0  0  0
   57.7495   32.8733   42.4444 H   0  0  0  0  0  0  0  0  0  0  0  0
   58.2621   31.6025   41.2829 H   0  0  0  0  0  0  0  0  0  0  0  0
   56.5635   32.1868   41.2829 H   0  0  0  0  0  0  0  0  0  0  0  0
   56.9220   28.5760   44.7400 N   0  0  0  0  0  0  0  0  0  0  0  0
   56.0960   28.4930   44.1110 H   0  0  0  0  0  0  0  0  0  0  0  0
   57.3370   27.6640   45.6340 C   0  0  0  0  0  0  0  0  0  0  0  0
   56.7350   26.4510   45.9600 C   0  0  0  0  0  0  0  0  0  0  0  0
   55.7992   26.1339   45.4764 H   0  0  0  0  0  0  0  0  0  0  0  0
   57.3640   25.6410   46.9310 C   0  0  0  0  0  0  0  0  0  0  0  0
   56.7720   24.3140   47.2970 C   0  0  0  0  0  0  0  0  0  0  0  0
   56.7303   24.2206   48.3922 H   0  0  0  0  0  0  0  0  0  0  0  0
   55.7553   24.2395   46.8837 H   0  0  0  0  0  0  0  0  0  0  0  0
   57.3958   23.5077   46.8837 H   0  0  0  0  0  0  0  0  0  0  0  0
   58.5960   26.0530   47.5030 C   0  0  0  0  0  0  0  0  0  0  0  0
   59.0993   25.4055   48.2361 H   0  0  0  0  0  0  0  0  0  0  0  0
   59.1800   27.2810   47.1420 C   0  0  0  0  0  0  0  0  0  0  0  0
   60.1360   27.6057   47.5787 H   0  0  0  0  0  0  0  0  0  0  0  0
   58.5060   28.0740   46.2110 C   0  0  0  0  0  0  0  0  0  0  0  0
   59.7710   33.8420   45.7700 C   0  0  0  0  0  0  0  0  0  0  0  0
   60.8536   34.0368   45.7745 H   0  0  0  0  0  0  0  0  0  0  0  0
   58.9460   34.5240   44.8720 C   0  0  0  0  0  0  0  0  0  0  0  0
   59.3823   35.2442   44.1643 H   0  0  0  0  0  0  0  0  0  0  0  0
  1  2  1  0
  2  3  2  0
  3  4  1  0
  3  5  1  0
  5  6  1  0
  5  7  2  0
  7  8  1  0
  8  9  1  0
  8 10  1  0
  8 11  1  0
 11 12  1  0
 11 13  1  0
 11 14  1  0
 14 15  1  0
 14 16  1  0
 14 17  1  0
 17 18  1  0
 18 19  2  0
 19 20  1  0
 20 21  2  0
 20 22  1  0
 22 23  1  0
 22 24  1  0
 22 25  1  0
 18 26  1  0
 26 27  1  0
 26 28  1  0
 28 29  2  0
 29 30  1  0
 29 31  1  0
 31 32  1  0
 32 33  1  0
 32 34  1  0
 32 35  1  0
 31 36  2  0
 36 37  1  0
 36 38  1  0
 38 39  1  0
 38 40  2  0
  7 41  1  0
 41 42  1  0
 41 43  2  0
 43 44  1  0
 43  2  1  0
 40 17  1  0
 40 28  1  0
M  END
>  <UniqueID>  (23) 
22

>  <SMILES>  (23) 
CC(=O)/N=c1\[nH]c2cc(C)ccc2n1CCCc1ccccc1

>  <Energy>  (23) 
82.66961354412278

>  <Genealogy>  (23) 
CC(=O)/N=c1\[nH]c2cc(C)ccc2n1CCCc1ccccc1 (cis-trans isomerization)
CC(=O)/N=c1\[nH]c2cc(C)ccc2n1CCCc1ccccc1 (3D coordinates assigned)
CC(=O)/N=c1\[nH]c2cc(C)ccc2n1CCCc1ccccc1 (optimized conformer: 82.66961354412278 kcal/mol)

>  <smiles>  (23) 
CC(=O)N=c1[nH]c2cc(C)ccc2n1CCCc1ccccc1

>  <score_type>  (23) 
oracle

>  <origin>  (23) 
adg

>  <m_score__min__energy>  (23) 
-8.1099999999999994

>  <m_primary>  (23) 
energy

$$$$
23:0
     RDKit          3D

 23 24  0  0  0  0  0  0  0  0999 V2000
   59.9160   28.2940   44.9250 O   0  0  0  0  0  0  0  0  0  0  0  0
   58.6970   27.9940   45.0170 C   0  0  0  0  0  0  0  0  0  0  0  0
   58.3470   26.7200   45.5600 N   0  0  0  0  0  0  0  0  0  0  0  0
   56.9920   26.3800   45.8450 C   0  0  0  0  0  0  0  0  0  0  0  0
   56.6420   24.9090   46.4650 S   0  0  0  0  0  0  0  0  0  0  0  0
   55.9530   27.3370   45.6280 N   0  0  0  0  0  0  0  0  0  0  0  0
   56.2400   28.6160   45.0480 C   0  0  0  0  0  0  0  0  0  0  0  0
   55.2960   29.4340   44.8760 O   0  0  0  0  0  0  0  0  0  0  0  0
   57.6270   28.9590   44.6390 C   0  0  0  0  0  0  0  0  0  0  0  0
   57.8600   30.1200   43.9830 C   0  0  0  0  0  0  0  0  0  0  0  0
   58.2570   31.3940   44.6160 C   0  0  0  0  0  0  0  0  0  0  0  0
   58.9360   31.4090   45.8470 C   0  0  0  0  0  0  0  0  0  0  0  0
   59.3540   32.6210   46.4050 C   0  0  0  0  0  0  0  0  0  0  0  0
   59.1170   33.8220   45.7300 C   0  0  0  0  0  0  0  0  0  0  0  0
   59.6440   35.3420   46.4310 Cl  0  0  0  0  0  0  0  0  0  0  0  0
   58.4690   33.8100   44.4900 C   0  0  0  0  0  0  0  0  0  0  0  0
   58.0500   32.6000   43.9290 C   0  0  0  0  0  0  0  0  0  0  0  0
   54.9680   27.1010   45.8830 H   0  0  0  0  0  0  0  0  0  0  0  0
   57.7442   30.1141   42.8891 H   0  0  0  0  0  0  0  0  0  0  0  0
   59.1390   30.4644   46.3728 H   0  0  0  0  0  0  0  0  0  0  0  0
   59.8700   32.6295   47.3764 H   0  0  0  0  0  0  0  0  0  0  0  0
   58.2889   34.7544   43.9555 H   0  0  0  0  0  0  0  0  0  0  0  0
   57.5565   32.5932   42.9459 H   0  0  0  0  0  0  0  0  0  0  0  0
  1  2  2  0
  2  3  1  0
  3  4  1  0
  4  5  2  0
  4  6  1  0
  6  7  1  0
  7  8  2  0
  7  9  1  0
  9 10  2  3
 10 11  1  0
 11 12  2  0
 12 13  1  0
 13 14  2  0
 14 15  1  0
 14 16  1  0
 16 17  2  0
  9  2  1  0
 17 11  1  0
  6 18  1  0
 10 19  1  0
 12 20  1  0
 13 21  1  0
 16 22  1  0
 17 23  1  0
M  CHG  1   3  -1
M  END
>  <UniqueID>  (24) 
23

>  <SMILES>  (24) 
O=C1[N-]C(=S)NC(=O)C1=Cc1ccc(Cl)cc1

>  <Energy>  (24) 
31.145953298940412

>  <Genealogy>  (24) 
O=C1[N-]C(=S)NC(=O)C1=Cc1ccc(Cl)cc1 (protonated)
O=C1[N-]C(=S)NC(=O)C1=Cc1ccc(Cl)cc1 (3D coordinates assigned)
O=C1[N-]C(=S)NC(=O)C1=Cc1ccc(Cl)cc1 (nonaromatic ring conformer: 31.145953298940412 kcal/mol)

>  <smiles>  (24) 
O=C1NC(=S)NC(=O)C1=Cc1ccc(Cl)cc1

>  <score_type>  (24) 
oracle

>  <origin>  (24) 
adg

>  <m_score__min__energy>  (24) 
-8.8399999999999999

>  <m_primary>  (24) 
energy

$$$$
24:0
     RDKit          3D

 34 36  0  0  1  0  0  0  0  0999 V2000
   55.5770   29.7660   44.8540 O   0  0  0  0  0  0  0  0  0  0  0  0
   56.5060   30.5210   44.4970 C   0  0  0  0  0  0  0  0  0  0  0  0
   57.6490   29.9020   43.7390 C   0  0  0  0  0  0  0  0  0  0  0  0
   58.4410   29.0750   44.6810 C   0  0  0  0  0  0  0  0  0  0  0  0
   57.8010   28.2600   45.6210 C   0  0  0  0  0  0  0  0  0  0  0  0
   58.5610   27.4840   46.5030 C   0  0  0  0  0  0  0  0  0  0  0  0
   59.9580   27.5280   46.4430 C   0  0  0  0  0  0  0  0  0  0  0  0
   60.5870   28.3400   45.5060 C   0  0  0  0  0  0  0  0  0  0  0  0
   59.8350   29.1030   44.6370 C   0  0  0  0  0  0  0  0  0  0  0  0
   56.5780   31.9030   44.7420 N   0  0  0  0  0  0  0  0  0  0  0  0
   57.4470   32.4520   45.5230 C   0  0  0  0  0  0  0  0  0  0  0  0
   57.2330   33.4160   46.4290 N   0  0  0  0  0  0  0  0  0  0  0  0
   58.4010   33.6710   46.9940 N   0  0  0  0  0  0  0  0  0  0  0  0
   59.3480   32.8690   46.4450 C   0  0  0  0  0  0  0  0  0  0  0  0
   60.7660   32.8540   46.8080 C   0  0  0  0  0  0  0  0  0  0  0  0
   61.6410   33.8550   46.3690 C   0  0  0  0  0  0  0  0  0  0  0  0
   62.9830   33.7810   46.7510 C   0  0  0  0  0  0  0  0  0  0  0  0
   63.4090   32.7250   47.5500 C   0  0  0  0  0  0  0  0  0  0  0  0
   62.5520   31.7410   47.9820 C   0  0  0  0  0  0  0  0  0  0  0  0
   61.2140   31.8090   47.6040 C   0  0  0  0  0  0  0  0  0  0  0  0
   60.0930   30.5710   48.1360 Cl  0  0  0  0  0  0  0  0  0  0  0  0
   58.7350   32.1300   45.5430 O   0  0  0  0  0  0  0  0  0  0  0  0
   57.2581   29.2701   42.9279 H   0  0  0  0  0  0  0  0  0  0  0  0
   58.2821   30.6878   43.3011 H   0  0  0  0  0  0  0  0  0  0  0  0
   56.7024   28.2294   45.6666 H   0  0  0  0  0  0  0  0  0  0  0  0
   58.0611   26.8407   47.2421 H   0  0  0  0  0  0  0  0  0  0  0  0
   60.5582   26.9207   47.1365 H   0  0  0  0  0  0  0  0  0  0  0  0
   61.6854   28.3740   45.4576 H   0  0  0  0  0  0  0  0  0  0  0  0
   60.3416   29.7424   43.8991 H   0  0  0  0  0  0  0  0  0  0  0  0
   56.2980   33.8380   46.6010 H   0  0  0  0  0  0  0  0  0  0  0  0
   61.2803   34.6806   45.7379 H   0  0  0  0  0  0  0  0  0  0  0  0
   63.6965   34.5512   46.4227 H   0  0  0  0  0  0  0  0  0  0  0  0
   64.4673   32.6758   47.8461 H   0  0  0  0  0  0  0  0  0  0  0  0
   62.9159   30.9169   48.6133 H   0  0  0  0  0  0  0  0  0  0  0  0
  1  2  2  0
  2  3  1  0
  3  4  1  0
  4  5  2  0
  5  6  1  0
  6  7  2  0
  7  8  1  0
  8  9  2  0
  2 10  1  0
 10 11  2  0
 11 12  1  0
 12 13  1  0
 13 14  2  0
 14 15  1  0
 15 16  2  0
 16 17  1  0
 17 18  2  0
 18 19  1  0
 19 20  2  0
 20 21  1  0
 14 22  1  0
  9  4  1  0
 22 11  1  0
 20 15  1  0
  3 23  1  0
  3 24  1  0
  5 25  1  0
  6 26  1  0
  7 27  1  0
  8 28  1  0
  9 29  1  0
 12 30  1  0
 16 31  1  0
 17 32  1  0
 18 33  1  0
 19 34  1  0
M  END
>  <smiles>  (25) 
O=C(Cc1ccccc1)N=c1[nH]nc(-c2ccccc2Cl)o1

>  <score_type>  (25) 
oracle

>  <origin>  (25) 
adg

>  <m_score__min__energy>  (25) 
-8.7899999999999991

>  <m_primary>  (25) 
energy

$$$$
25:0
     RDKit          3D

 55 55  0  0  0  0  0  0  0  0999 V2000
   59.0005   28.0610   45.1289 H   0  0  0  0  0  0  0  0  0  0  0  0
   58.1660   27.4280   45.4650 C   0  0  0  0  0  0  0  0  0  0  0  0
   58.2910   26.1430   45.9670 C   0  0  0  0  0  0  0  0  0  0  0  0
   59.5610   25.3520   46.0160 C   0  0  0  0  0  0  0  0  0  0  0  0
   59.8433   25.1762   47.0645 H   0  0  0  0  0  0  0  0  0  0  0  0
   59.4116   24.3869   45.5097 H   0  0  0  0  0  0  0  0  0  0  0  0
   60.3613   25.9116   45.5097 H   0  0  0  0  0  0  0  0  0  0  0  0
   57.0090   25.7000   46.2550 C   0  0  0  0  0  0  0  0  0  0  0  0
   56.6060   24.3570   46.7180 C   0  0  0  0  0  0  0  0  0  0  0  0
   55.9280   23.5390   45.9650 N   0  0  0  0  0  0  0  0  0  0  0  0
   55.4190   23.8190   44.6210 C   0  0  0  0  0  0  0  0  0  0  0  0
   54.6119   23.1080   44.3906 H   0  0  0  0  0  0  0  0  0  0  0  0
   55.0497   24.8550   44.6041 H   0  0  0  0  0  0  0  0  0  0  0  0
   56.5190   23.6860   43.5550 C   0  0  0  0  0  0  0  0  0  0  0  0
   56.1370   24.0995   42.6100 H   0  0  0  0  0  0  0  0  0  0  0  0
   57.3960   24.2326   43.9319 H   0  0  0  0  0  0  0  0  0  0  0  0
   56.9710   22.2380   43.3020 C   0  0  0  0  0  0  0  0  0  0  0  0
   56.1565   21.5593   43.5952 H   0  0  0  0  0  0  0  0  0  0  0  0
   57.2119   22.1485   42.2324 H   0  0  0  0  0  0  0  0  0  0  0  0
   58.2260   21.8630   44.0890 C   0  0  0  0  0  0  0  0  0  0  0  0
   58.0154   21.9259   45.1668 H   0  0  0  0  0  0  0  0  0  0  0  0
   58.5259   20.8360   43.8334 H   0  0  0  0  0  0  0  0  0  0  0  0
   59.0402   22.5571   43.8334 H   0  0  0  0  0  0  0  0  0  0  0  0
   56.9040   23.9610   48.1290 C   0  0  0  0  0  0  0  0  0  0  0  0
   56.3887   24.6458   48.8186 H   0  0  0  0  0  0  0  0  0  0  0  0
   56.5536   22.9329   48.3031 H   0  0  0  0  0  0  0  0  0  0  0  0
   57.9889   24.0130   48.3031 H   0  0  0  0  0  0  0  0  0  0  0  0
   56.1630   26.7310   45.9080 C   0  0  0  0  0  0  0  0  0  0  0  0
   54.7760   26.6990   46.0010 O   0  0  0  0  0  0  0  0  0  0  0  0
   56.8650   27.7850   45.4510 N   0  0  0  0  0  0  0  0  0  0  0  0
   56.3200   29.0270   44.9030 C   0  0  0  0  0  0  0  0  0  0  0  0
   56.5006   29.8481   45.6123 H   0  0  0  0  0  0  0  0  0  0  0  0
   55.2390   28.9055   44.7398 H   0  0  0  0  0  0  0  0  0  0  0  0
   56.9970   29.3530   43.5660 C   0  0  0  0  0  0  0  0  0  0  0  0
   56.4578   28.8320   42.7612 H   0  0  0  0  0  0  0  0  0  0  0  0
   58.0438   29.0216   43.6316 H   0  0  0  0  0  0  0  0  0  0  0  0
   57.0020   30.8610   43.2610 C   0  0  0  0  0  0  0  0  0  0  0  0
   55.9588   31.2048   43.2014 H   0  0  0  0  0  0  0  0  0  0  0  0
   57.5472   30.9912   42.3145 H   0  0  0  0  0  0  0  0  0  0  0  0
   57.7320   31.7130   44.3140 C   0  0  0  0  0  0  0  0  0  0  0  0
   58.6444   31.1837   44.6259 H   0  0  0  0  0  0  0  0  0  0  0  0
   57.0443   31.8633   45.1593 H   0  0  0  0  0  0  0  0  0  0  0  0
   58.1250   33.1010   43.7760 C   0  0  0  0  0  0  0  0  0  0  0  0
   57.3523   33.4371   43.0689 H   0  0  0  0  0  0  0  0  0  0  0  0
   59.1058   33.0049   43.2873 H   0  0  0  0  0  0  0  0  0  0  0  0
   58.2600   34.1470   44.8920 C   0  0  0  0  0  0  0  0  0  0  0  0
   57.5408   34.9580   44.7049 H   0  0  0  0  0  0  0  0  0  0  0  0
   59.2960   34.5165   44.8817 H   0  0  0  0  0  0  0  0  0  0  0  0
   57.9870   33.5570   46.2840 C   0  0  0  0  0  0  0  0  0  0  0  0
   58.2258   32.4833   46.2717 H   0  0  0  0  0  0  0  0  0  0  0  0
   56.9261   33.7157   46.5276 H   0  0  0  0  0  0  0  0  0  0  0  0
   58.8350   34.2430   47.3500 C   0  0  0  0  0  0  0  0  0  0  0  0
   58.4753   33.9520   48.3480 H   0  0  0  0  0  0  0  0  0  0  0  0
   59.8855   33.9376   47.2354 H   0  0  0  0  0  0  0  0  0  0  0  0
   58.7558   35.3341   47.2354 H   0  0  0  0  0  0  0  0  0  0  0  0
  1  2  1  0
  2  3  2  0
  3  4  1  0
  4  5  1  0
  4  6  1  0
  4  7  1  0
  3  8  1  0
  8  9  1  0
  9 10  2  0
 10 11  1  0
 11 12  1  0
 11 13  1  0
 11 14  1  0
 14 15  1  0
 14 16  1  0
 14 17  1  0
 17 18  1  0
 17 19  1  0
 17 20  1  0
 20 21  1  0
 20 22  1  0
 20 23  1  0
  9 24  1  0
 24 25  1  0
 24 26  1  0
 24 27  1  0
  8 28  2  0
 28 29  1  0
 28 30  1  0
 30 31  1  0
 31 32  1  0
 31 33  1  0
 31 34  1  0
 34 35  1  0
 34 36  1  0
 34 37  1  0
 37 38  1  0
 37 39  1  0
 37 40  1  0
 40 41  1  0
 40 42  1  0
 40 43  1  0
 43 44  1  0
 43 45  1  0
 43 46  1  0
 46 47  1  0
 46 48  1  0
 46 49  1  0
 49 50  1  0
 49 51  1  0
 49 52  1  0
 52 53  1  0
 52 54  1  0
 52 55  1  0
 30  2  1  0
M  CHG  1  29  -1
M  END
>  <UniqueID>  (26) 
24

>  <SMILES>  (26) 
CCCCCCCCn1cc(C)c(/C(C)=N\CCCC)c1[O-]

>  <Energy>  (26) 
64.30940504170127

>  <Genealogy>  (26) 
CCCCCCCCn1cc(C)c(C(C)=NCCCC)c1[O-] (protonated)
CCCCCCCCn1cc(C)c(/C(C)=N\CCCC)c1[O-] (cis-trans isomerization)
CCCCCCCCn1cc(C)c(/C(C)=N\CCCC)c1[O-] (3D coordinates assigned)
CCCCCCCCn1cc(C)c(/C(C)=N\CCCC)c1[O-] (optimized conformer: 64.30940504170127 kcal/mol)

>  <smiles>  (26) 
CCCCCCCCn1cc(C)c(C(C)=NCCCC)c1O

>  <score_type>  (26) 
oracle

>  <origin>  (26) 
adg

>  <m_score__min__energy>  (26) 
-11.08

>  <m_primary>  (26) 
energy

$$$$
26:0
     RDKit          3D

 31 33  0  0  0  0  0  0  0  0999 V2000
   59.6500   35.8380   46.4130 O   0  0  0  0  0  0  0  0  0  0  0  0
   59.2860   34.6880   46.0440 C   0  0  0  0  0  0  0  0  0  0  0  0
   58.1660   34.5580   45.2260 C   0  0  0  0  0  0  0  0  0  0  0  0
   57.7810   33.2980   44.7910 C   0  0  0  0  0  0  0  0  0  0  0  0
   58.5250   32.1780   45.1800 C   0  0  0  0  0  0  0  0  0  0  0  0
   58.1450   30.8200   44.7180 C   0  0  0  0  0  0  0  0  0  0  0  0
   59.0170   29.7290   44.8790 C   0  0  0  0  0  0  0  0  0  0  0  0
   58.6420   28.4600   44.4360 C   0  0  0  0  0  0  0  0  0  0  0  0
   57.3940   28.2860   43.8360 C   0  0  0  0  0  0  0  0  0  0  0  0
   56.5570   29.3460   43.6880 N   0  0  0  0  0  0  0  0  0  0  0  0
   56.8980   30.5920   44.1080 C   0  0  0  0  0  0  0  0  0  0  0  0
   59.6130   32.3570   45.9880 N   0  0  0  0  0  0  0  0  0  0  0  0
   59.9870   33.5710   46.4200 N   0  0  0  0  0  0  0  0  0  0  0  0
   61.1440   33.6810   47.2730 C   0  0  0  0  0  0  0  0  0  0  0  0
   62.4280   33.4620   46.7490 C   0  0  0  0  0  0  0  0  0  0  0  0
   63.5530   33.5500   47.5750 C   0  0  0  0  0  0  0  0  0  0  0  0
   63.4030   33.8500   48.9320 C   0  0  0  0  0  0  0  0  0  0  0  0
   62.1290   34.0590   49.4650 C   0  0  0  0  0  0  0  0  0  0  0  0
   61.0020   33.9720   48.6410 C   0  0  0  0  0  0  0  0  0  0  0  0
   57.5914   35.4472   44.9273 H   0  0  0  0  0  0  0  0  0  0  0  0
   56.8981   33.1802   44.1456 H   0  0  0  0  0  0  0  0  0  0  0  0
   59.9975   29.8761   45.3555 H   0  0  0  0  0  0  0  0  0  0  0  0
   59.3234   27.6052   44.5585 H   0  0  0  0  0  0  0  0  0  0  0  0
   57.0879   27.2903   43.4828 H   0  0  0  0  0  0  0  0  0  0  0  0
   56.1954   31.4271   43.9704 H   0  0  0  0  0  0  0  0  0  0  0  0
   60.1460   31.5160   46.3080 H   0  0  0  0  0  0  0  0  0  0  0  0
   62.5497   33.2199   45.6829 H   0  0  0  0  0  0  0  0  0  0  0  0
   64.5565   33.3830   47.1566 H   0  0  0  0  0  0  0  0  0  0  0  0
   64.2887   33.9215   49.5804 H   0  0  0  0  0  0  0  0  0  0  0  0
   62.0118   34.2922   50.5336 H   0  0  0  0  0  0  0  0  0  0  0  0
   59.9999   34.1320   49.0655 H   0  0  0  0  0  0  0  0  0  0  0  0
  1  2  2  0
  2  3  1  0
  3  4  2  0
  4  5  1  0
  5  6  1  0
  6  7  2  0
  7  8  1  0
  8  9  2  0
  9 10  1  0
 10 11  2  0
  5 12  2  0
 12 13  1  0
 13 14  1  0
 14 15  2  0
 15 16  1  0
 16 17  2  0
 17 18  1  0
 18 19  2  0
 13  2  1  0
 19 14  1  0
 11  6  1  0
  3 20  1  0
  4 21  1  0
  7 22  1  0
  8 23  1  0
  9 24  1  0
 11 25  1  0
 12 26  1  0
 15 27  1  0
 16 28  1  0
 17 29  1  0
 18 30  1  0
 19 31  1  0
M  CHG  1  12   1
M  END
>  <UniqueID>  (27) 
25

>  <SMILES>  (27) 
O=c1ccc(-c2cccnc2)[nH+]n1-c1ccccc1

>  <Energy>  (27) 
47.9530764227279

>  <Genealogy>  (27) 
O=c1ccc(-c2cccnc2)[nH+]n1-c1ccccc1 (protonated)
O=c1ccc(-c2cccnc2)[nH+]n1-c1ccccc1 (3D coordinates assigned)
O=c1ccc(-c2cccnc2)[nH+]n1-c1ccccc1 (optimized conformer: 47.9530764227279 kcal/mol)

>  <smiles>  (27) 
O=c1ccc(-c2cccnc2)nn1-c1ccccc1

>  <score_type>  (27) 
oracle

>  <origin>  (27) 
adg

>  <m_score__min__energy>  (27) 
-5.6900000000000004

>  <m_primary>  (27) 
energy

$$$$
27:0
     RDKit          3D

 34 36  0  0  0  0  0  0  0  0999 V2000
   57.4940   24.7890   44.7080 C   0  0  0  0  0  0  0  0  0  0  0  0
   57.9160   26.1990   45.0080 C   0  0  0  0  0  0  0  0  0  0  0  0
   58.7810   26.4550   46.0780 C   0  0  0  0  0  0  0  0  0  0  0  0
   59.1410   27.7670   46.3720 C   0  0  0  0  0  0  0  0  0  0  0  0
   58.6310   28.8210   45.6090 C   0  0  0  0  0  0  0  0  0  0  0  0
   58.9890   30.1440   45.9010 C   0  0  0  0  0  0  0  0  0  0  0  0
   58.4740   31.2070   45.1440 C   0  0  0  0  0  0  0  0  0  0  0  0
   58.8560   32.6070   45.4580 C   0  0  0  0  0  0  0  0  0  0  0  0
   59.5440   32.9120   46.6480 C   0  0  0  0  0  0  0  0  0  0  0  0
   59.9020   34.2310   46.9400 C   0  0  0  0  0  0  0  0  0  0  0  0
   59.5790   35.2590   46.0520 C   0  0  0  0  0  0  0  0  0  0  0  0
   59.9280   36.5380   46.3380 F   0  0  0  0  0  0  0  0  0  0  0  0
   58.8960   34.9700   44.8680 C   0  0  0  0  0  0  0  0  0  0  0  0
   58.5360   33.6520   44.5700 C   0  0  0  0  0  0  0  0  0  0  0  0
   57.5920   30.9290   44.0870 C   0  0  0  0  0  0  0  0  0  0  0  0
   57.2190   29.6100   43.7760 C   0  0  0  0  0  0  0  0  0  0  0  0
   56.2730   29.3740   42.6280 C   0  0  0  0  0  0  0  0  0  0  0  0
   57.7420   28.5390   44.5430 C   0  0  0  0  0  0  0  0  0  0  0  0
   57.4070   27.2350   44.2790 N   0  0  0  0  0  0  0  0  0  0  0  0
   57.3316   24.2464   45.6510 H   0  0  0  0  0  0  0  0  0  0  0  0
   56.5602   24.8015   44.1267 H   0  0  0  0  0  0  0  0  0  0  0  0
   58.2811   24.2865   44.1267 H   0  0  0  0  0  0  0  0  0  0  0  0
   59.1739   25.6245   46.6829 H   0  0  0  0  0  0  0  0  0  0  0  0
   59.8277   27.9745   47.2059 H   0  0  0  0  0  0  0  0  0  0  0  0
   59.6801   30.3509   46.7314 H   0  0  0  0  0  0  0  0  0  0  0  0
   59.8013   32.1071   47.3522 H   0  0  0  0  0  0  0  0  0  0  0  0
   60.4397   34.4599   47.8719 H   0  0  0  0  0  0  0  0  0  0  0  0
   58.6411   35.7804   44.1692 H   0  0  0  0  0  0  0  0  0  0  0  0
   57.9993   33.4301   43.6358 H   0  0  0  0  0  0  0  0  0  0  0  0
   57.1853   31.7594   43.4911 H   0  0  0  0  0  0  0  0  0  0  0  0
   55.2757   29.1252   43.0199 H   0  0  0  0  0  0  0  0  0  0  0  0
   56.2088   30.2837   42.0128 H   0  0  0  0  0  0  0  0  0  0  0  0
   56.6436   28.5408   42.0128 H   0  0  0  0  0  0  0  0  0  0  0  0
   56.7460   27.0050   43.5060 H   0  0  0  0  0  0  0  0  0  0  0  0
  1  2  1  0
  2  3  2  0
  3  4  1  0
  4  5  2  0
  5  6  1  0
  6  7  2  0
  7  8  1  0
  8  9  2  0
  9 10  1  0
 10 11  2  0
 11 12  1  0
 11 13  1  0
 13 14  2  0
  7 15  1  0
 15 16  2  0
 16 17  1  0
 16 18  1  0
 18 19  2  0
 19  2  1  0
 18  5  1  0
 14  8  1  0
  1 20  1  0
  1 21  1  0
  1 22  1  0
  3 23  1  0
  4 24  1  0
  6 25  1  0
  9 26  1  0
 10 27  1  0
 13 28  1  0
 14 29  1  0
 15 30  1  0
 17 31  1  0
 17 32  1  0
 17 33  1  0
 19 34  1  0
M  CHG  1  19   1
M  END
>  <UniqueID>  (28) 
26

>  <SMILES>  (28) 
Cc1ccc2cc(-c3ccc(F)cc3)cc(C)c2[nH+]1

>  <Energy>  (28) 
45.60497903554878

>  <Genealogy>  (28) 
Cc1ccc2cc(-c3ccc(F)cc3)cc(C)c2[nH+]1 (protonated)
Cc1ccc2cc(-c3ccc(F)cc3)cc(C)c2[nH+]1 (3D coordinates assigned)
Cc1ccc2cc(-c3ccc(F)cc3)cc(C)c2[nH+]1 (optimized conformer: 45.60497903554878 kcal/mol)

>  <smiles>  (28) 
Cc1ccc2cc(-c3ccc(F)cc3)cc(C)c2n1

>  <score_type>  (28) 
oracle

>  <origin>  (28) 
adg

>  <m_score__min__energy>  (28) 
-6.0700000000000003

>  <m_primary>  (28) 
energy

$$$$
28:0
     RDKit          3D

 53 53  0  0  0  0  0  0  0  0999 V2000
   55.7030   29.7200   45.9680 H   0  0  0  0  0  0  0  0  0  0  0  0
   55.1410   29.4600   45.1920 O   0  0  0  0  0  0  0  0  0  0  0  0
   55.9400   29.6390   44.0550 C   0  0  0  0  0  0  0  0  0  0  0  0
   55.5283   30.4622   43.4527 H   0  0  0  0  0  0  0  0  0  0  0  0
   55.9425   28.7020   43.4788 H   0  0  0  0  0  0  0  0  0  0  0  0
   57.3930   29.9780   44.4450 C   0  0  2  0  0  0  0  0  0  0  0  0
   58.3260   28.7510   44.3250 C   0  0  0  0  0  0  0  0  0  0  0  0
   57.7431   27.8968   43.9502 H   0  0  0  0  0  0  0  0  0  0  0  0
   59.1412   29.0101   43.6334 H   0  0  0  0  0  0  0  0  0  0  0  0
   58.9080   28.3970   45.5810 O   0  0  0  0  0  0  0  0  0  0  0  0
   60.1000   28.9460   46.0710 C   0  0  0  0  0  0  0  0  0  0  0  0
   61.0140   29.3120   45.2820 O   0  0  0  0  0  0  0  0  0  0  0  0
   60.2740   29.1140   47.5550 C   0  0  0  0  0  0  0  0  0  0  0  0
   60.9299   28.3111   47.9227 H   0  0  0  0  0  0  0  0  0  0  0  0
   58.9260   28.9920   48.2690 C   0  0  0  0  0  0  0  0  0  0  0  0
   59.0849   29.0064   49.3574 H   0  0  0  0  0  0  0  0  0  0  0  0
   58.2811   29.8354   47.9814 H   0  0  0  0  0  0  0  0  0  0  0  0
   58.4430   28.0465   47.9814 H   0  0  0  0  0  0  0  0  0  0  0  0
   60.9460   30.4530   47.8730 C   0  0  0  0  0  0  0  0  0  0  0  0
   61.0103   30.5811   48.9636 H   0  0  0  0  0  0  0  0  0  0  0  0
   61.9579   30.4669   47.4419 H   0  0  0  0  0  0  0  0  0  0  0  0
   60.3525   31.2727   47.4419 H   0  0  0  0  0  0  0  0  0  0  0  0
   57.4000   30.3970   45.8030 O   0  0  0  0  0  0  0  0  0  0  0  0
   57.9580   31.6450   45.9590 C   0  0  0  0  0  0  0  0  0  0  0  0
   58.1060   32.1870   47.0860 O   0  0  0  0  0  0  0  0  0  0  0  0
   58.3840   32.2530   44.6800 C   0  0  2  0  0  0  0  0  0  0  0  0
   59.4618   32.4672   44.6307 H   0  0  0  0  0  0  0  0  0  0  0  0
   57.7540   33.6090   44.4590 C   0  0  0  0  0  0  0  0  0  0  0  0
   56.9297   33.6969   43.7359 H   0  0  0  0  0  0  0  0  0  0  0  0
   58.1610   34.7120   45.1110 C   0  0  0  0  0  0  0  0  0  0  0  0
   57.4592   35.5495   45.2375 H   0  0  0  0  0  0  0  0  0  0  0  0
   59.5520   34.8300   45.6720 C   0  0  0  0  0  0  0  0  0  0  0  0
   60.0222   35.7370   45.2643 H   0  0  0  0  0  0  0  0  0  0  0  0
   60.1086   33.9256   45.3851 H   0  0  0  0  0  0  0  0  0  0  0  0
   59.5560   34.9180   47.2060 C   0  0  0  0  0  0  0  0  0  0  0  0
   58.6059   34.5148   47.5864 H   0  0  0  0  0  0  0  0  0  0  0  0
   59.6820   35.9750   47.4832 H   0  0  0  0  0  0  0  0  0  0  0  0
   60.7170   34.1240   47.8310 C   0  0  0  0  0  0  0  0  0  0  0  0
   60.3017   33.3682   48.5138 H   0  0  0  0  0  0  0  0  0  0  0  0
   61.3628   34.8361   48.3656 H   0  0  0  0  0  0  0  0  0  0  0  0
   61.5780   33.4120   46.7670 C   0  0  0  0  0  0  0  0  0  0  0  0
   61.1640   33.6417   45.7741 H   0  0  0  0  0  0  0  0  0  0  0  0
   61.5474   32.3362   46.9946 H   0  0  0  0  0  0  0  0  0  0  0  0
   63.0560   33.8350   46.7870 C   0  0  0  0  0  0  0  0  0  0  0  0
   63.1070   34.9229   46.9414 H   0  0  0  0  0  0  0  0  0  0  0  0
   63.4967   33.5353   45.8247 H   0  0  0  0  0  0  0  0  0  0  0  0
   63.8590   33.1490   47.8900 C   0  0  0  0  0  0  0  0  0  0  0  0
   63.4823   33.4708   48.8721 H   0  0  0  0  0  0  0  0  0  0  0  0
   63.7532   32.0581   47.7962 H   0  0  0  0  0  0  0  0  0  0  0  0
   64.9200   33.4239   47.7962 H   0  0  0  0  0  0  0  0  0  0  0  0
   57.9460   31.2000   43.6410 C   0  0  0  0  0  0  0  0  0  0  0  0
   57.1605   31.6128   42.9909 H   0  0  0  0  0  0  0  0  0  0  0  0
   58.7887   30.9028   42.9995 H   0  0  0  0  0  0  0  0  0  0  0  0
  1  2  1  0
  2  3  1  0
  3  4  1  0
  3  5  1  0
  6  3  1  6
  6  7  1  0
  7  8  1  0
  7  9  1  0
  7 10  1  0
 10 11  1  0
 11 12  2  0
 11 13  1  0
 13 14  1  0
 13 15  1  0
 15 16  1  0
 15 17  1  0
 15 18  1  0
 13 19  1  0
 19 20  1  0
 19 21  1  0
 19 22  1  0
  6 23  1  0
 23 24  1  0
 24 25  2  0
 24 26  1  0
 26 27  1  1
 26 28  1  0
 28 29  1  0
 28 30  2  0
 30 31  1  0
 30 32  1  0
 32 33  1  0
 32 34  1  0
 32 35  1  0
 35 36  1  0
 35 37  1  0
 35 38  1  0
 38 39  1  0
 38 40  1  0
 38 41  1  0
 41 42  1  0
 41 43  1  0
 41 44  1  0
 44 45  1  0
 44 46  1  0
 44 47  1  0
 47 48  1  0
 47 49  1  0
 47 50  1  0
 26 51  1  0
 51 52  1  0
 51 53  1  0
 51  6  1  0
M  END
>  <UniqueID>  (29) 
27

>  <SMILES>  (29) 
CCCCCC/C=C/[C@@H]1C[C@@](CO)(COC(=O)C(C)C)OC1=O

>  <Energy>  (29) 
40.462184305463836

>  <Genealogy>  (29) 
CCCCCCC=C[C@@H]1C[C@@](CO)(COC(=O)C(C)C)OC1=O (chirality)
CCCCCC/C=C/[C@@H]1C[C@@](CO)(COC(=O)C(C)C)OC1=O (cis-trans isomerization)
CCCCCC/C=C/[C@@H]1C[C@@](CO)(COC(=O)C(C)C)OC1=O (3D coordinates assigned)
CCCCCC/C=C/[C@@H]1C[C@@](CO)(COC(=O)C(C)C)OC1=O (nonaromatic ring conformer: 40.462184305463836 kcal/mol)

>  <smiles>  (29) 
CCCCCCC=CC1CC(CO)(COC(=O)C(C)C)OC1=O

>  <score_type>  (29) 
oracle

>  <origin>  (29) 
adg

>  <m_score__min__energy>  (29) 
-7.7800000000000002

>  <m_primary>  (29) 
energy

$$$$
29:0
     RDKit          3D

 34 35  0  0  0  0  0  0  0  0999 V2000
   57.6330   25.4850   46.9310 C   0  0  0  0  0  0  0  0  0  0  0  0
   57.8940   26.7070   46.0990 C   0  0  0  0  0  0  0  0  0  0  0  0
   56.8290   27.4770   45.6290 C   0  0  0  0  0  0  0  0  0  0  0  0
   57.0530   28.6370   44.8700 C   0  0  0  0  0  0  0  0  0  0  0  0
   55.8520   29.4250   44.4060 C   0  0  0  0  0  0  0  0  0  0  0  0
   58.3880   29.0520   44.5890 C   0  0  0  0  0  0  0  0  0  0  0  0
   58.6490   30.2330   43.7810 N   0  0  0  0  0  0  0  0  0  0  0  0
   58.3490   31.4490   44.5030 C   0  0  0  0  0  0  0  0  0  0  0  0
   58.4370   31.4950   45.9100 C   0  0  0  0  0  0  0  0  0  0  0  0
   58.1760   32.6850   46.5980 C   0  0  0  0  0  0  0  0  0  0  0  0
   57.8410   33.8420   45.8930 C   0  0  0  0  0  0  0  0  0  0  0  0
   57.7710   33.8160   44.4990 C   0  0  0  0  0  0  0  0  0  0  0  0
   58.0310   32.6300   43.8050 C   0  0  0  0  0  0  0  0  0  0  0  0
   59.4690   28.2860   45.1160 C   0  0  0  0  0  0  0  0  0  0  0  0
   60.9100   28.6570   44.8680 C   0  0  0  0  0  0  0  0  0  0  0  0
   59.2050   27.1210   45.8550 C   0  0  0  0  0  0  0  0  0  0  0  0
   57.6893   25.7486   47.9975 H   0  0  0  0  0  0  0  0  0  0  0  0
   56.6309   25.0931   46.7026 H   0  0  0  0  0  0  0  0  0  0  0  0
   58.3876   24.7179   46.7026 H   0  0  0  0  0  0  0  0  0  0  0  0
   55.7975   27.1702   45.8568 H   0  0  0  0  0  0  0  0  0  0  0  0
   55.2937   29.7913   45.2802 H   0  0  0  0  0  0  0  0  0  0  0  0
   56.1862   30.2799   43.7998 H   0  0  0  0  0  0  0  0  0  0  0  0
   55.2008   28.7780   43.7998 H   0  0  0  0  0  0  0  0  0  0  0  0
   58.0870   30.1690   42.9020 H   0  0  0  0  0  0  0  0  0  0  0  0
   59.6400   30.2930   43.4610 H   0  0  0  0  0  0  0  0  0  0  0  0
   58.7127   30.5893   46.4701 H   0  0  0  0  0  0  0  0  0  0  0  0
   58.2349   32.7087   47.6962 H   0  0  0  0  0  0  0  0  0  0  0  0
   57.6319   34.7753   46.4363 H   0  0  0  0  0  0  0  0  0  0  0  0
   57.5108   34.7302   43.9453 H   0  0  0  0  0  0  0  0  0  0  0  0
   57.9868   32.6196   42.7059 H   0  0  0  0  0  0  0  0  0  0  0  0
   61.4254   28.7897   45.8307 H   0  0  0  0  0  0  0  0  0  0  0  0
   61.4016   27.8561   44.2962 H   0  0  0  0  0  0  0  0  0  0  0  0
   60.9538   29.5957   44.2962 H   0  0  0  0  0  0  0  0  0  0  0  0
   60.0431   26.5262   46.2472 H   0  0  0  0  0  0  0  0  0  0  0  0
  1  2  1  0
  2  3  2  0
  3  4  1  0
  4  5  1  0
  4  6  2  0
  6  7  1  0
  7  8  1  0
  8  9  2  0
  9 10  1  0
 10 11  2  0
 11 12  1  0
 12 13  2  0
  6 14  1  0
 14 15  1  0
 14 16  2  0
 16  2  1  0
 13  8  1  0
  1 17  1  0
  1 18  1  0
  1 19  1  0
  3 20  1  0
  5 21  1  0
  5 22  1  0
  5 23  1  0
  7 24  1  0
  7 25  1  0
  9 26  1  0
 10 27  1  0
 11 28  1  0
 12 29  1  0
 13 30  1  0
 15 31  1  0
 15 32  1  0
 15 33  1  0
 16 34  1  0
M  CHG  1   7   1
M  END
>  <UniqueID>  (30) 
28

>  <SMILES>  (30) 
Cc1cc(C)c([NH2+]c2ccccc2)c(C)c1

>  <Energy>  (30) 
40.14941903114059

>  <Genealogy>  (30) 
Cc1cc(C)c([NH2+]c2ccccc2)c(C)c1 (protonated)
Cc1cc(C)c([NH2+]c2ccccc2)c(C)c1 (3D coordinates assigned)
Cc1cc(C)c([NH2+]c2ccccc2)c(C)c1 (optimized conformer: 40.14941903114059 kcal/mol)

>  <smiles>  (30) 
Cc1cc(C)c(Nc2ccccc2)c(C)c1

>  <score_type>  (30) 
oracle

>  <origin>  (30) 
adg

>  <m_score__min__energy>  (30) 
-4.9199999999999999

>  <m_primary>  (30) 
energy

$$$$
30:0
     RDKit          3D

 64 68  0  0  0  0  0  0  0  0999 V2000
   57.7940   31.4830   54.5010 C   0  0  0  0  0  0  0  0  0  0  0  0
   58.0020   32.6800   53.7600 O   0  0  0  0  0  0  0  0  0  0  0  0
   58.6050   32.7350   52.4940 C   0  0  0  0  0  0  0  0  0  0  0  0
   59.0720   33.9370   51.9310 C   0  0  0  0  0  0  0  0  0  0  0  0
   59.6690   33.9390   50.6670 C   0  0  0  0  0  0  0  0  0  0  0  0
   59.8000   32.7480   49.9330 C   0  0  0  0  0  0  0  0  0  0  0  0
   60.4800   32.7850   48.5740 C   0  0  1  0  0  0  0  0  0  0  0  0
   61.9910   32.7850   48.6690 C   0  0  0  0  0  0  0  0  0  0  0  0
   62.8840   33.2000   47.6880 C   0  0  0  0  0  0  0  0  0  0  0  0
   62.5340   33.8080   46.3650 C   0  0  0  0  0  0  0  0  0  0  0  0
   64.1470   33.0290   48.1290 N   0  0  0  0  0  0  0  0  0  0  0  0
   64.1100   32.5130   49.3490 N   0  0  0  0  0  0  0  0  0  0  0  0
   65.2770   32.1870   50.1270 C   0  0  0  0  0  0  0  0  0  0  0  0
   65.3190   31.0170   50.9070 C   0  0  0  0  0  0  0  0  0  0  0  0
   66.4530   30.7180   51.6690 C   0  0  0  0  0  0  0  0  0  0  0  0
   67.5520   31.5810   51.6580 C   0  0  0  0  0  0  0  0  0  0  0  0
   67.5180   32.7470   50.8910 C   0  0  0  0  0  0  0  0  0  0  0  0
   66.3860   33.0540   50.1310 C   0  0  0  0  0  0  0  0  0  0  0  0
   62.8170   32.3490   49.6990 C   0  0  0  0  0  0  0  0  0  0  0  0
   62.4360   31.8390   50.7860 O   0  0  0  0  0  0  0  0  0  0  0  0
   59.9440   31.7290   47.6260 C   0  0  0  0  0  0  0  0  0  0  0  0
   60.0860   30.3380   47.6310 C   0  0  0  0  0  0  0  0  0  0  0  0
   60.9480   29.5340   48.5670 C   0  0  0  0  0  0  0  0  0  0  0  0
   59.3580   29.8190   46.6080 N   0  0  0  0  0  0  0  0  0  0  0  0
   59.2170   28.3920   46.2930 C   0  0  0  0  0  0  0  0  0  0  0  0
   58.7650   30.8150   45.9560 N   0  0  0  0  0  0  0  0  0  0  0  0
   57.9270   30.6930   44.7920 C   0  0  0  0  0  0  0  0  0  0  0  0
   56.8540   29.7870   44.7890 C   0  0  0  0  0  0  0  0  0  0  0  0
   56.0280   29.6800   43.6650 C   0  0  0  0  0  0  0  0  0  0  0  0
   56.2690   30.4750   42.5390 C   0  0  0  0  0  0  0  0  0  0  0  0
   57.3300   31.3870   42.5400 C   0  0  0  0  0  0  0  0  0  0  0  0
   58.1530   31.5010   43.6650 C   0  0  0  0  0  0  0  0  0  0  0  0
   59.0930   31.9700   46.5640 C   0  0  0  0  0  0  0  0  0  0  0  0
   58.6900   33.1060   46.1930 O   0  0  0  0  0  0  0  0  0  0  0  0
   59.3430   31.5460   50.5070 C   0  0  0  0  0  0  0  0  0  0  0  0
   58.7480   31.5450   51.7730 C   0  0  0  0  0  0  0  0  0  0  0  0
   57.8329   31.7066   55.5773 H   0  0  0  0  0  0  0  0  0  0  0  0
   56.8093   31.0623   54.2492 H   0  0  0  0  0  0  0  0  0  0  0  0
   58.5791   30.7548   54.2492 H   0  0  0  0  0  0  0  0  0  0  0  0
   58.9668   34.8796   52.4882 H   0  0  0  0  0  0  0  0  0  0  0  0
   60.0403   34.8833   50.2423 H   0  0  0  0  0  0  0  0  0  0  0  0
   60.2144   33.7546   48.1274 H   0  0  0  0  0  0  0  0  0  0  0  0
   61.9912   34.7509   46.5269 H   0  0  0  0  0  0  0  0  0  0  0  0
   63.4552   34.0079   45.7981 H   0  0  0  0  0  0  0  0  0  0  0  0
   61.8985   33.1117   45.7981 H   0  0  0  0  0  0  0  0  0  0  0  0
   65.0190   33.2850   47.6120 H   0  0  0  0  0  0  0  0  0  0  0  0
   64.4564   30.3345   50.9176 H   0  0  0  0  0  0  0  0  0  0  0  0
   66.4798   29.8022   52.2778 H   0  0  0  0  0  0  0  0  0  0  0  0
   68.4448   31.3414   52.2543 H   0  0  0  0  0  0  0  0  0  0  0  0
   68.3839   33.4254   50.8848 H   0  0  0  0  0  0  0  0  0  0  0  0
   66.3615   33.9772   49.5333 H   0  0  0  0  0  0  0  0  0  0  0  0
   60.6864   29.7780   49.6072 H   0  0  0  0  0  0  0  0  0  0  0  0
   60.7812   28.4614   48.3889 H   0  0  0  0  0  0  0  0  0  0  0  0
   62.0064   29.7750   48.3889 H   0  0  0  0  0  0  0  0  0  0  0  0
   59.1599   27.8142   47.2273 H   0  0  0  0  0  0  0  0  0  0  0  0
   58.2989   28.2346   45.7079 H   0  0  0  0  0  0  0  0  0  0  0  0
   60.0865   28.0580   45.7079 H   0  0  0  0  0  0  0  0  0  0  0  0
   56.6626   29.1601   45.6724 H   0  0  0  0  0  0  0  0  0  0  0  0
   55.1879   28.9699   43.6664 H   0  0  0  0  0  0  0  0  0  0  0  0
   55.6240   30.3829   41.6527 H   0  0  0  0  0  0  0  0  0  0  0  0
   57.5169   32.0144   41.6560 H   0  0  0  0  0  0  0  0  0  0  0  0
   58.9803   32.2259   43.6675 H   0  0  0  0  0  0  0  0  0  0  0  0
   59.4548   30.6007   49.9557 H   0  0  0  0  0  0  0  0  0  0  0  0
   58.3892   30.5994   52.2056 H   0  0  0  0  0  0  0  0  0  0  0  0
  1  2  1  0
  2  3  1  0
  3  4  2  0
  4  5  1  0
  5  6  2  0
  6  7  1  0
  7  8  1  0
  8  9  2  0
  9 10  1  0
  9 11  1  0
 11 12  1  0
 12 13  1  0
 13 14  2  0
 14 15  1  0
 15 16  2  0
 16 17  1  0
 17 18  2  0
 12 19  1  0
 19 20  2  0
  7 21  1  0
 21 22  2  0
 22 23  1  0
 22 24  1  0
 24 25  1  0
 24 26  1  0
 26 27  1  0
 27 28  2  0
 28 29  1  0
 29 30  2  0
 30 31  1  0
 31 32  2  0
 26 33  1  0
 33 34  2  0
  6 35  1  0
 35 36  2  0
 36  3  1  0
 19  8  1  0
 33 21  1  0
 18 13  1  0
 32 27  1  0
  1 37  1  0
  1 38  1  0
  1 39  1  0
  4 40  1  0
  5 41  1  0
  7 42  1  6
 10 43  1  0
 10 44  1  0
 10 45  1  0
 11 46  1  0
 14 47  1  0
 15 48  1  0
 16 49  1  0
 17 50  1  0
 18 51  1  0
 23 52  1  0
 23 53  1  0
 23 54  1  0
 25 55  1  0
 25 56  1  0
 25 57  1  0
 28 58  1  0
 29 59  1  0
 30 60  1  0
 31 61  1  0
 32 62  1  0
 35 63  1  0
 36 64  1  0
M  END
>  <UniqueID>  (31) 
29

>  <SMILES>  (31) 
COc1ccc([C@@H](c2c(C)[nH]n(-c3ccccc3)c2=O)c2c(C)n(C)n(-c3ccccc3)c2=O)cc1

>  <Energy>  (31) 
148.600775191337

>  <Genealogy>  (31) 
COc1ccc([C@@H](c2c(C)[nH]n(-c3ccccc3)c2=O)c2c(C)n(C)n(-c3ccccc3)c2=O)cc1 (chirality)
COc1ccc([C@@H](c2c(C)[nH]n(-c3ccccc3)c2=O)c2c(C)n(C)n(-c3ccccc3)c2=O)cc1 (3D coordinates assigned)
COc1ccc([C@@H](c2c(C)[nH]n(-c3ccccc3)c2=O)c2c(C)n(C)n(-c3ccccc3)c2=O)cc1 (optimized conformer: 148.600775191337 kcal/mol)

>  <smiles>  (31) 
COc1ccc(C(c2c(C)[nH]n(-c3ccccc3)c2=O)c2c(C)n(C)n(-c3ccccc3)c2=O)cc1

>  <score_type>  (31) 
oracle

>  <origin>  (31) 
adg

>  <m_score__min__energy>  (31) 
-9.4900000000000002

>  <m_primary>  (31) 
energy

$$$$
31:0
     RDKit          3D

 57 61  0  0  0  0  0  0  0  0999 V2000
   56.6974   32.7197   52.2075 H   0  0  0  0  0  0  0  0  0  0  0  0
   57.3100   31.9160   51.7730 C   0  0  0  0  0  0  0  0  0  0  0  0
   57.3810   30.6720   52.4050 C   0  0  0  0  0  0  0  0  0  0  0  0
   56.8279   30.4991   53.3400 H   0  0  0  0  0  0  0  0  0  0  0  0
   58.1530   29.6470   51.8520 C   0  0  0  0  0  0  0  0  0  0  0  0
   58.2094   28.6711   52.3565 H   0  0  0  0  0  0  0  0  0  0  0  0
   58.8580   29.8570   50.6540 C   0  0  0  0  0  0  0  0  0  0  0  0
   59.6470   28.7350   50.0260 C   0  0  0  0  0  0  0  0  0  0  0  0
   59.4067   27.7949   50.5442 H   0  0  0  0  0  0  0  0  0  0  0  0
   60.7175   28.9701   50.1197 H   0  0  0  0  0  0  0  0  0  0  0  0
   59.3210   28.5850   48.5620 C   0  0  0  0  0  0  0  0  0  0  0  0
   59.8110   29.3510   47.5650 N   0  0  0  0  0  0  0  0  0  0  0  0
   60.7370   30.4420   47.6470 C   0  0  0  0  0  0  0  0  0  0  0  0
   61.6870   30.4880   48.6770 C   0  0  0  0  0  0  0  0  0  0  0  0
   61.7608   29.6549   49.3915 H   0  0  0  0  0  0  0  0  0  0  0  0
   62.5410   31.5880   48.8000 C   0  0  0  0  0  0  0  0  0  0  0  0
   63.2778   31.6217   49.6161 H   0  0  0  0  0  0  0  0  0  0  0  0
   62.4610   32.6510   47.8840 C   0  0  0  0  0  0  0  0  0  0  0  0
   63.3230   33.8710   48.0590 C   0  0  0  0  0  0  0  0  0  0  0  0
   63.1296   34.5722   47.2339 H   0  0  0  0  0  0  0  0  0  0  0  0
   64.3792   33.5637   48.0559 H   0  0  0  0  0  0  0  0  0  0  0  0
   63.0130   34.5590   49.3860 C   0  0  0  0  0  0  0  0  0  0  0  0
   63.3089   33.9023   50.2174 H   0  0  0  0  0  0  0  0  0  0  0  0
   63.5722   35.5042   49.4484 H   0  0  0  0  0  0  0  0  0  0  0  0
   61.9345   34.7663   49.4484 H   0  0  0  0  0  0  0  0  0  0  0  0
   61.5130   32.5990   46.8490 C   0  0  0  0  0  0  0  0  0  0  0  0
   61.4408   33.4291   46.1308 H   0  0  0  0  0  0  0  0  0  0  0  0
   60.6610   31.4980   46.7270 C   0  0  0  0  0  0  0  0  0  0  0  0
   59.9287   31.4594   45.9071 H   0  0  0  0  0  0  0  0  0  0  0  0
   59.1870   28.8780   46.4680 C   0  0  0  0  0  0  0  0  0  0  0  0
   59.4170   29.5180   44.8090 S   0  0  0  0  0  0  0  0  0  0  0  0
   57.9460   28.6680   44.1490 C   0  0  0  0  0  0  0  0  0  0  0  0
   57.9705   28.6970   43.0497 H   0  0  0  0  0  0  0  0  0  0  0  0
   57.9463   27.6233   44.4933 H   0  0  0  0  0  0  0  0  0  0  0  0
   56.6990   29.3500   44.6380 C   0  0  0  0  0  0  0  0  0  0  0  0
   55.8130   28.6500   45.1950 O   0  0  0  0  0  0  0  0  0  0  0  0
   56.4340   30.7490   44.4360 N   0  0  0  0  0  0  0  0  0  0  0  0
   57.1210   31.7670   44.8640 C   0  0  0  0  0  0  0  0  0  0  0  0
   57.3370   32.0510   46.1730 N   0  0  0  0  0  0  0  0  0  0  0  0
   58.0920   33.1700   46.3030 C   0  0  0  0  0  0  0  0  0  0  0  0
   58.4870   33.7150   47.5270 C   0  0  0  0  0  0  0  0  0  0  0  0
   58.1811   33.2487   48.4751 H   0  0  0  0  0  0  0  0  0  0  0  0
   59.2830   34.8710   47.5200 C   0  0  0  0  0  0  0  0  0  0  0  0
   59.6059   35.3172   48.4722 H   0  0  0  0  0  0  0  0  0  0  0  0
   59.6720   35.4650   46.3010 C   0  0  0  0  0  0  0  0  0  0  0  0
   60.3022   36.3665   46.3092 H   0  0  0  0  0  0  0  0  0  0  0  0
   59.2600   34.9130   45.0770 C   0  0  0  0  0  0  0  0  0  0  0  0
   59.5533   35.3717   44.1212 H   0  0  0  0  0  0  0  0  0  0  0  0
   58.4700   33.7690   45.1100 C   0  0  0  0  0  0  0  0  0  0  0  0
   57.8430   32.8900   43.8250 S   0  0  0  0  0  0  0  0  0  0  0  0
   58.3620   27.8540   46.7650 N   0  0  0  0  0  0  0  0  0  0  0  0
   58.4540   27.6780   48.0750 N   0  0  0  0  0  0  0  0  0  0  0  0
   57.9210   26.9610   48.6160 H   0  0  0  0  0  0  0  0  0  0  0  0
   58.7960   31.1190   50.0330 C   0  0  0  0  0  0  0  0  0  0  0  0
   59.3618   31.3029   49.1078 H   0  0  0  0  0  0  0  0  0  0  0  0
   58.0180   32.1390   50.5880 C   0  0  0  0  0  0  0  0  0  0  0  0
   57.9626   33.1191   50.0916 H   0  0  0  0  0  0  0  0  0  0  0  0
  1  2  1  0
  2  3  2  0
  3  4  1  0
  3  5  1  0
  5  6  1  0
  5  7  2  0
  7  8  1  0
  8  9  1  0
  8 10  1  0
  8 11  1  0
 11 12  1  0
 12 13  1  0
 13 14  2  0
 14 15  1  0
 14 16  1  0
 16 17  1  0
 16 18  2  0
 18 19  1  0
 19 20  1  0
 19 21  1  0
 19 22  1  0
 22 23  1  0
 22 24  1  0
 22 25  1  0
 18 26  1  0
 26 27  1  0
 26 28  2  0
 28 29  1  0
 12 30  1  0
 30 31  1  0
 31 32  1  0
 32 33  1  0
 32 34  1  0
 32 35  1  0
 35 36  2  0
 35 37  1  0
 37 38  2  0
 38 39  1  0
 39 40  1  0
 40 41  2  0
 41 42  1  0
 41 43  1  0
 43 44  1  0
 43 45  2  0
 45 46  1  0
 45 47  1  0
 47 48  1  0
 47 49  2  0
 49 50  1  0
 30 51  2  0
 51 52  1  0
 52 53  1  0
  7 54  1  0
 54 55  1  0
 54 56  2  0
 56 57  1  0
 56  2  1  0
 52 11  2  0
 28 13  1  0
 50 38  1  0
 49 40  1  0
M  CHG  2  39  -1  52   1
M  END
>  <UniqueID>  (32) 
30

>  <SMILES>  (32) 
CCc1ccc(-n2c(SCC(=O)/N=c3\[n-]c4ccccc4s3)n[nH+]c2Cc2ccccc2)cc1

>  <Energy>  (32) 
130.74208159186688

>  <Genealogy>  (32) 
CCc1ccc(-n2c(SCC(=O)N=c3[n-]c4ccccc4s3)n[nH+]c2Cc2ccccc2)cc1 (protonated)
CCc1ccc(-n2c(SCC(=O)/N=c3\[n-]c4ccccc4s3)n[nH+]c2Cc2ccccc2)cc1 (cis-trans isomerization)
CCc1ccc(-n2c(SCC(=O)/N=c3\[n-]c4ccccc4s3)n[nH+]c2Cc2ccccc2)cc1 (3D coordinates assigned)
CCc1ccc(-n2c(SCC(=O)/N=c3\[n-]c4ccccc4s3)n[nH+]c2Cc2ccccc2)cc1 (optimized conformer: 130.74208159186688 kcal/mol)

>  <smiles>  (32) 
CCc1ccc(-n2c(Cc3ccccc3)nnc2SCC(=O)N=c2[nH]c3ccccc3s2)cc1

>  <score_type>  (32) 
oracle

>  <origin>  (32) 
adg

>  <m_score__min__energy>  (32) 
-10.5

>  <m_primary>  (32) 
energy

$$$$
32:0
     RDKit          3D

 50 51  0  0  0  0  0  0  0  0999 V2000
   64.1592   31.9777   47.3148 H   0  0  0  0  0  0  0  0  0  0  0  0
   63.4000   32.5040   47.9120 C   0  0  0  0  0  0  0  0  0  0  0  0
   63.7930   33.0980   49.0590 C   0  0  0  0  0  0  0  0  0  0  0  0
   62.9520   34.1600   49.7310 C   0  0  0  0  0  0  0  0  0  0  0  0
   63.0342   34.0562   50.8230 H   0  0  0  0  0  0  0  0  0  0  0  0
   63.3091   35.1557   49.4294 H   0  0  0  0  0  0  0  0  0  0  0  0
   61.9009   34.0406   49.4294 H   0  0  0  0  0  0  0  0  0  0  0  0
   65.0900   32.6700   49.6910 C   0  0  0  0  0  0  0  0  0  0  0  0
   64.9924   32.7022   50.7862 H   0  0  0  0  0  0  0  0  0  0  0  0
   65.3313   31.6446   49.3744 H   0  0  0  0  0  0  0  0  0  0  0  0
   65.8943   33.3504   49.3744 H   0  0  0  0  0  0  0  0  0  0  0  0
   61.9760   32.5200   47.4000 C   0  0  0  0  0  0  0  0  0  0  0  0
   61.8320   31.6658   46.7221 H   0  0  0  0  0  0  0  0  0  0  0  0
   61.3010   32.4563   48.2662 H   0  0  0  0  0  0  0  0  0  0  0  0
   61.6550   33.8210   46.6380 C   0  0  0  0  0  0  0  0  0  0  0  0
   62.4586   34.5495   46.8211 H   0  0  0  0  0  0  0  0  0  0  0  0
   61.5776   33.5823   45.5670 H   0  0  0  0  0  0  0  0  0  0  0  0
   60.3360   34.4200   47.0870 C   0  0  0  0  0  0  0  0  0  0  0  0
   59.6520   35.2240   46.2440 C   0  0  0  0  0  0  0  0  0  0  0  0
   59.5190   36.2767   46.5339 H   0  0  0  0  0  0  0  0  0  0  0  0
   59.0580   34.7750   44.9310 C   0  0  0  0  0  0  0  0  0  0  0  0
   58.3955   35.5653   44.5482 H   0  0  0  0  0  0  0  0  0  0  0  0
   59.8795   34.5814   44.2256 H   0  0  0  0  0  0  0  0  0  0  0  0
   58.2780   33.5290   45.0940 N   0  0  0  0  0  0  0  0  0  0  0  0
   57.0180   33.8260   45.8060 C   0  0  0  0  0  0  0  0  0  0  0  0
   57.1918   33.7850   46.8914 H   0  0  0  0  0  0  0  0  0  0  0  0
   56.6681   34.8312   45.5283 H   0  0  0  0  0  0  0  0  0  0  0  0
   56.2560   33.0829   45.5283 H   0  0  0  0  0  0  0  0  0  0  0  0
   57.9970   32.9210   43.7690 C   0  0  0  0  0  0  0  0  0  0  0  0
   57.0935   33.3838   43.3454 H   0  0  0  0  0  0  0  0  0  0  0  0
   58.8631   33.0947   43.1135 H   0  0  0  0  0  0  0  0  0  0  0  0
   57.7780   31.4330   43.8910 C   0  0  0  0  0  0  0  0  0  0  0  0
   56.9250   30.7540   42.9910 C   0  0  0  0  0  0  0  0  0  0  0  0
   56.4508   31.3077   42.1673 H   0  0  0  0  0  0  0  0  0  0  0  0
   56.6760   29.3730   43.1390 C   0  0  0  0  0  0  0  0  0  0  0  0
   56.0127   28.8583   42.4282 H   0  0  0  0  0  0  0  0  0  0  0  0
   57.2700   28.6500   44.1890 C   0  0  0  0  0  0  0  0  0  0  0  0
   57.0800   27.5740   44.3156 H   0  0  0  0  0  0  0  0  0  0  0  0
   58.1070   29.3400   45.0640 C   0  0  0  0  0  0  0  0  0  0  0  0
   58.8160   28.8950   46.1580 C   0  0  0  0  0  0  0  0  0  0  0  0
   58.8453   27.8740   46.5663 H   0  0  0  0  0  0  0  0  0  0  0  0
   59.4860   30.0150   46.6340 C   0  0  0  0  0  0  0  0  0  0  0  0
   60.1526   30.0186   47.5090 H   0  0  0  0  0  0  0  0  0  0  0  0
   59.2080   31.1010   45.8760 N   0  0  0  0  0  0  0  0  0  0  0  0
   59.5980   32.0620   46.0020 H   0  0  0  0  0  0  0  0  0  0  0  0
   58.3610   30.6810   44.9200 C   0  0  0  0  0  0  0  0  0  0  0  0
   59.8280   34.1170   48.4760 C   0  0  0  0  0  0  0  0  0  0  0  0
   60.5241   34.5322   49.2197 H   0  0  0  0  0  0  0  0  0  0  0  0
   58.8348   34.5704   48.6102 H   0  0  0  0  0  0  0  0  0  0  0  0
   59.7550   33.0277   48.6102 H   0  0  0  0  0  0  0  0  0  0  0  0
  1  2  1  0
  2  3  2  3
  3  4  1  0
  4  5  1  0
  4  6  1  0
  4  7  1  0
  3  8  1  0
  8  9  1  0
  8 10  1  0
  8 11  1  0
  2 12  1  0
 12 13  1  0
 12 14  1  0
 12 15  1  0
 15 16  1  0
 15 17  1  0
 15 18  1  0
 18 19  2  0
 19 20  1  0
 19 21  1  0
 21 22  1  0
 21 23  1  0
 21 24  1  0
 24 25  1  0
 25 26  1  0
 25 27  1  0
 25 28  1  0
 24 29  1  0
 29 30  1  0
 29 31  1  0
 29 32  1  0
 32 33  2  0
 33 34  1  0
 33 35  1  0
 35 36  1  0
 35 37  2  0
 37 38  1  0
 37 39  1  0
 39 40  1  0
 40 41  1  0
 40 42  2  0
 42 43  1  0
 42 44  1  0
 44 45  1  0
 44 46  1  0
 18 47  1  0
 47 48  1  0
 47 49  1  0
 47 50  1  0
 46 32  1  0
 46 39  2  0
M  END
>  <UniqueID>  (33) 
31

>  <SMILES>  (33) 
CC(C)=CCC/C(C)=C/CN(C)Cc1cccc2cc[nH]c12

>  <Energy>  (33) 
74.03836841212421

>  <Genealogy>  (33) 
CC(C)=CCC/C(C)=C/CN(C)Cc1cccc2cc[nH]c12 (cis-trans isomerization)
CC(C)=CCC/C(C)=C/CN(C)Cc1cccc2cc[nH]c12 (3D coordinates assigned)
CC(C)=CCC/C(C)=C/CN(C)Cc1cccc2cc[nH]c12 (optimized conformer: 74.03836841212421 kcal/mol)

>  <smiles>  (33) 
CC(C)=CCCC(C)=CCN(C)Cc1cccc2cc[nH]c12

>  <score_type>  (33) 
oracle

>  <origin>  (33) 
adg

>  <m_score__min__energy>  (33) 
-7.5199999999999996

>  <m_primary>  (33) 
energy

$$$$
33:0
     RDKit          3D

 45 47  0  0  0  0  0  0  0  0999 V2000
   61.6334   29.3775   49.5155 H   0  0  0  0  0  0  0  0  0  0  0  0
   60.9300   29.9770   48.9190 C   0  0  0  0  0  0  0  0  0  0  0  0
   61.1510   30.1560   47.5510 C   0  0  0  0  0  0  0  0  0  0  0  0
   62.0299   29.7004   47.0715 H   0  0  0  0  0  0  0  0  0  0  0  0
   60.2540   30.9150   46.7910 C   0  0  0  0  0  0  0  0  0  0  0  0
   60.4314   31.0588   45.7150 H   0  0  0  0  0  0  0  0  0  0  0  0
   59.1290   31.4930   47.3980 C   0  0  0  0  0  0  0  0  0  0  0  0
   57.9820   32.4940   46.4650 S   0  0  0  0  0  4  0  0  0  0  0  0
   58.8540   33.5520   45.6810 N   0  0  0  0  0  0  0  0  0  0  0  0
   59.6910   34.8000   46.5110 S   0  0  0  0  0  0  0  0  0  0  0  0
   58.8110   35.3380   47.6030 O   0  0  0  0  0  0  0  0  0  0  0  0
   60.0110   35.9160   45.5570 O   0  0  0  0  0  0  0  0  0  0  0  0
   61.1720   34.1700   47.2280 C   0  0  0  0  0  0  0  0  0  0  0  0
   62.2580   33.8300   46.4110 C   0  0  0  0  0  0  0  0  0  0  0  0
   62.1776   33.9406   45.3195 H   0  0  0  0  0  0  0  0  0  0  0  0
   63.4430   33.3510   46.9760 C   0  0  0  0  0  0  0  0  0  0  0  0
   64.2883   33.0771   46.3276 H   0  0  0  0  0  0  0  0  0  0  0  0
   63.5580   33.2180   48.3740 C   0  0  0  0  0  0  0  0  0  0  0  0
   64.7260   32.7450   48.9910 O   0  0  0  0  0  0  0  0  0  0  0  0
   64.7550   32.0470   50.2320 C   0  0  0  0  0  0  0  0  0  0  0  0
   64.7249   32.7702   51.0603 H   0  0  0  0  0  0  0  0  0  0  0  0
   63.8839   31.3785   50.2971 H   0  0  0  0  0  0  0  0  0  0  0  0
   65.6786   31.4531   50.2971 H   0  0  0  0  0  0  0  0  0  0  0  0
   62.4720   33.5680   49.1860 C   0  0  0  0  0  0  0  0  0  0  0  0
   62.5530   33.4683   50.2785 H   0  0  0  0  0  0  0  0  0  0  0  0
   61.2860   34.0430   48.6190 C   0  0  0  0  0  0  0  0  0  0  0  0
   60.4400   34.3178   49.2662 H   0  0  0  0  0  0  0  0  0  0  0  0
   57.2390   31.4490   45.2440 N   0  0  0  0  0  0  0  0  0  0  0  0
   57.6840   31.8810   43.9120 C   0  0  0  0  0  0  0  0  0  0  0  0
   57.3923   32.9298   43.7544 H   0  0  0  0  0  0  0  0  0  0  0  0
   58.7777   31.7807   43.8501 H   0  0  0  0  0  0  0  0  0  0  0  0
   57.0360   31.0020   42.8190 C   0  0  0  0  0  0  0  0  0  0  0  0
   56.3266   31.6167   42.2456 H   0  0  0  0  0  0  0  0  0  0  0  0
   57.8418   30.6141   42.1785 H   0  0  0  0  0  0  0  0  0  0  0  0
   56.3420   29.8920   43.3610 O   0  0  0  0  0  0  0  0  0  0  0  0
   57.1960   29.1770   44.2310 C   0  0  0  0  0  0  0  0  0  0  0  0
   56.6900   28.2563   44.5571 H   0  0  0  0  0  0  0  0  0  0  0  0
   58.1241   28.9335   43.6930 H   0  0  0  0  0  0  0  0  0  0  0  0
   57.5500   30.0250   45.4690 C   0  0  0  0  0  0  0  0  0  0  0  0
   56.9701   29.6624   46.3305 H   0  0  0  0  0  0  0  0  0  0  0  0
   58.6288   29.9292   45.6611 H   0  0  0  0  0  0  0  0  0  0  0  0
   58.9180   31.3170   48.7720 C   0  0  0  0  0  0  0  0  0  0  0  0
   58.0434   31.7764   49.2558 H   0  0  0  0  0  0  0  0  0  0  0  0
   59.8160   30.5590   49.5300 C   0  0  0  0  0  0  0  0  0  0  0  0
   59.6454   30.4208   50.6079 H   0  0  0  0  0  0  0  0  0  0  0  0
  1  2  1  0
  2  3  2  0
  3  4  1  0
  3  5  1  0
  5  6  1  0
  5  7  2  0
  7  8  1  0
  8  9  2  0
  9 10  1  0
 10 11  2  0
 10 12  2  0
 10 13  1  0
 13 14  2  0
 14 15  1  0
 14 16  1  0
 16 17  1  0
 16 18  2  0
 18 19  1  0
 19 20  1  0
 20 21  1  0
 20 22  1  0
 20 23  1  0
 18 24  1  0
 24 25  1  0
 24 26  2  0
 26 27  1  0
  8 28  1  6
 28 29  1  0
 29 30  1  0
 29 31  1  0
 29 32  1  0
 32 33  1  0
 32 34  1  0
 32 35  1  0
 35 36  1  0
 36 37  1  0
 36 38  1  0
 36 39  1  0
 39 40  1  0
 39 41  1  0
  7 42  1  0
 42 43  1  0
 42 44  2  0
 44 45  1  0
 44  2  1  0
 26 13  1  0
 39 28  1  0
M  END
>  <UniqueID>  (34) 
32

>  <SMILES>  (34) 
COc1ccc(S(=O)(=O)/N=[S@](\c2ccccc2)N2CCOCC2)cc1

>  <Energy>  (34) 
53.575307620564836

>  <Genealogy>  (34) 
COc1ccc(S(=O)(=O)N=[S@](c2ccccc2)N2CCOCC2)cc1 (chirality)
COc1ccc(S(=O)(=O)/N=[S@](\c2ccccc2)N2CCOCC2)cc1 (cis-trans isomerization)
COc1ccc(S(=O)(=O)/N=[S@](\c2ccccc2)N2CCOCC2)cc1 (3D coordinates assigned)
COc1ccc(S(=O)(=O)/N=[S@](\c2ccccc2)N2CCOCC2)cc1 (nonaromatic ring conformer: 53.575307620564836 kcal/mol)

>  <smiles>  (34) 
COc1ccc(S(=O)(=O)N=S(c2ccccc2)N2CCOCC2)cc1

>  <score_type>  (34) 
oracle

>  <origin>  (34) 
adg

>  <m_score__min__energy>  (34) 
-7.7599999999999998

>  <m_primary>  (34) 
energy

$$$$
34:0
     RDKit          3D

 58 63  0  0  0  0  0  0  0  0999 V2000
   52.5210   23.6320   43.7620 O   0  0  0  0  0  0  0  0  0  0  0  0
   53.3300   23.3350   44.6660 N   0  0  0  0  0  0  0  0  0  0  0  0
   52.9550   22.3990   45.6010 O   0  0  0  0  0  0  0  0  0  0  0  0
   54.6260   23.9640   44.7220 C   0  0  0  0  0  0  0  0  0  0  0  0
   54.8610   25.0170   45.6420 C   0  0  0  0  0  0  0  0  0  0  0  0
   56.1240   25.6000   45.6690 C   0  0  0  0  0  0  0  0  0  0  0  0
   56.5490   26.5980   46.4560 N   0  0  0  0  0  0  0  0  0  0  0  0
   57.8420   26.7590   46.0620 C   0  0  0  0  0  0  0  0  0  0  0  0
   58.7470   27.7660   46.6620 C   0  0  0  0  0  0  0  0  0  0  0  0
   59.4750   28.6470   45.8440 C   0  0  0  0  0  0  0  0  0  0  0  0
   60.3320   29.5940   46.4110 C   0  0  0  0  0  0  0  0  0  0  0  0
   60.4690   29.6860   47.8050 C   0  0  0  0  0  0  0  0  0  0  0  0
   61.3980   30.7130   48.4200 C   0  0  0  0  0  0  0  0  0  0  0  0
   61.0880   32.1100   48.0390 N   0  0  0  0  0  0  0  0  0  0  0  0
   60.8350   32.9910   49.1900 C   0  0  0  0  0  0  0  0  0  0  0  0
   60.1000   34.2620   48.7320 C   0  0  0  0  0  0  0  0  0  0  0  0
   60.3980   34.6490   47.2620 C   0  0  0  0  0  0  0  0  0  0  0  0
   59.3220   34.1480   46.3290 C   0  0  0  0  0  0  0  0  0  0  0  0
   58.5150   34.9430   45.6010 N   0  0  0  0  0  0  0  0  0  0  0  0
   57.7490   34.1450   44.8770 N   0  0  0  0  0  0  0  0  0  0  0  0
   58.1160   32.8850   45.1750 C   0  0  0  0  0  0  0  0  0  0  0  0
   57.4990   31.6960   44.5660 C   0  0  0  0  0  0  0  0  0  0  0  0
   57.3850   31.5720   43.1720 C   0  0  0  0  0  0  0  0  0  0  0  0
   56.7930   30.4280   42.6310 C   0  0  0  0  0  0  0  0  0  0  0  0
   56.3210   29.4240   43.4770 C   0  0  0  0  0  0  0  0  0  0  0  0
   56.4490   29.5790   44.8590 C   0  0  0  0  0  0  0  0  0  0  0  0
   57.0290   30.6990   45.3670 N   0  0  0  0  0  0  0  0  0  0  0  0
   59.1110   32.8400   46.0830 N   0  0  0  0  0  0  0  0  0  0  0  0
   61.8010   34.1860   46.8190 C   0  0  0  0  0  0  0  0  0  0  0  0
   62.0790   32.6940   47.1110 C   0  0  0  0  0  0  0  0  0  0  0  0
   59.7510   28.7990   48.6220 C   0  0  0  0  0  0  0  0  0  0  0  0
   58.8940   27.8490   48.0560 C   0  0  0  0  0  0  0  0  0  0  0  0
   58.2330   25.9100   45.0730 N   0  0  0  0  0  0  0  0  0  0  0  0
   57.1240   25.1920   44.8470 C   0  0  0  0  0  0  0  0  0  0  0  0
   56.9480   24.1650   43.9270 C   0  0  0  0  0  0  0  0  0  0  0  0
   55.6860   23.5440   43.8640 C   0  0  0  0  0  0  0  0  0  0  0  0
   55.5070   22.5400   42.9700 F   0  0  0  0  0  0  0  0  0  0  0  0
   54.0650   25.3642   46.3172 H   0  0  0  0  0  0  0  0  0  0  0  0
   59.3695   28.5907   44.7505 H   0  0  0  0  0  0  0  0  0  0  0  0
   60.9034   30.2723   45.7602 H   0  0  0  0  0  0  0  0  0  0  0  0
   61.3296   30.6297   49.5147 H   0  0  0  0  0  0  0  0  0  0  0  0
   62.4077   30.4963   48.0410 H   0  0  0  0  0  0  0  0  0  0  0  0
   60.2157   32.4582   49.9266 H   0  0  0  0  0  0  0  0  0  0  0  0
   61.7960   33.2749   49.6438 H   0  0  0  0  0  0  0  0  0  0  0  0
   59.0177   34.0956   48.8362 H   0  0  0  0  0  0  0  0  0  0  0  0
   60.4563   35.0888   49.3641 H   0  0  0  0  0  0  0  0  0  0  0  0
   60.3924   35.7476   47.2075 H   0  0  0  0  0  0  0  0  0  0  0  0
   57.7585   32.3686   42.5117 H   0  0  0  0  0  0  0  0  0  0  0  0
   56.6992   30.3191   41.5404 H   0  0  0  0  0  0  0  0  0  0  0  0
   55.8531   28.5201   43.0600 H   0  0  0  0  0  0  0  0  0  0  0  0
   56.0805   28.7948   45.5367 H   0  0  0  0  0  0  0  0  0  0  0  0
   61.8966   34.3524   45.7359 H   0  0  0  0  0  0  0  0  0  0  0  0
   62.5319   34.7703   47.3972 H   0  0  0  0  0  0  0  0  0  0  0  0
   62.0478   32.1363   46.1634 H   0  0  0  0  0  0  0  0  0  0  0  0
   63.0683   32.6228   47.5867 H   0  0  0  0  0  0  0  0  0  0  0  0
   59.8629   28.8511   49.7151 H   0  0  0  0  0  0  0  0  0  0  0  0
   58.3320   27.1630   48.7068 H   0  0  0  0  0  0  0  0  0  0  0  0
   57.7696   23.8472   43.2683 H   0  0  0  0  0  0  0  0  0  0  0  0
  1  2  2  0
  2  3  1  0
  2  4  1  0
  4  5  2  0
  5  6  1  0
  6  7  1  0
  7  8  2  0
  8  9  1  0
  9 10  2  0
 10 11  1  0
 11 12  2  0
 12 13  1  0
 13 14  1  0
 14 15  1  0
 15 16  1  0
 16 17  1  0
 17 18  1  0
 18 19  2  0
 19 20  1  0
 20 21  1  0
 21 22  1  0
 22 23  2  0
 23 24  1  0
 24 25  2  0
 25 26  1  0
 26 27  2  0
 21 28  2  0
 17 29  1  0
 29 30  1  0
 12 31  1  0
 31 32  2  0
  8 33  1  0
 33 34  1  0
 34 35  1  0
 35 36  2  0
 36 37  1  0
 36  4  1  0
 34  6  2  0
 32  9  1  0
 30 14  1  0
 28 18  1  0
 27 22  1  0
  5 38  1  0
 10 39  1  0
 11 40  1  0
 13 41  1  0
 13 42  1  0
 15 43  1  0
 15 44  1  0
 16 45  1  0
 16 46  1  0
 17 47  1  0
 23 48  1  0
 24 49  1  0
 25 50  1  0
 26 51  1  0
 29 52  1  0
 29 53  1  0
 30 54  1  0
 30 55  1  0
 31 56  1  0
 32 57  1  0
 35 58  1  0
M  CHG  4   2   1   3  -1  20  -1  33  -1
M  END
>  <UniqueID>  (35) 
33

>  <SMILES>  (35) 
O=[N+]([O-])c1cc2nc(-c3ccc(CN4CCC(c5n[n-]c(-c6ccccn6)n5)CC4)cc3)[n-]c2cc1F

>  <Energy>  (35) 
144.96708472313514

>  <Genealogy>  (35) 
O=[N+]([O-])c1cc2nc(-c3ccc(CN4CCC(c5n[n-]c(-c6ccccn6)n5)CC4)cc3)[n-]c2cc1F (protonated)
O=[N+]([O-])c1cc2nc(-c3ccc(CN4CCC(c5n[n-]c(-c6ccccn6)n5)CC4)cc3)[n-]c2cc1F (3D coordinates assigned)
O=[N+]([O-])c1cc2nc(-c3ccc(CN4CCC(c5n[n-]c(-c6ccccn6)n5)CC4)cc3)[n-]c2cc1F (nonaromatic ring conformer: 144.96708472313514 kcal/mol)

>  <smiles>  (35) 
O=[N+]([O-])c1cc2nc(-c3ccc(CN4CCC(c5n[nH]c(-c6ccccn6)n5)CC4)cc3)[nH]c2cc1F

>  <score_type>  (35) 
oracle

>  <origin>  (35) 
adg

>  <m_score__min__energy>  (35) 
-13.58

>  <m_primary>  (35) 
energy

$$$$
35:0
     RDKit          3D

 28 29  0  0  0  0  0  0  0  0999 V2000
   58.3370   28.3420   44.3750 C   0  0  0  0  0  0  0  0  0  0  0  0
   57.3610   28.8670   45.2670 O   0  0  0  0  0  0  0  0  0  0  0  0
   56.3460   29.7320   44.8510 C   0  0  0  0  0  0  0  0  0  0  0  0
   55.1460   29.3470   44.8380 O   0  0  0  0  0  0  0  0  0  0  0  0
   56.6460   31.0830   44.4860 N   0  0  0  0  0  0  0  0  0  0  0  0
   57.4220   32.0130   45.2540 C   0  0  0  0  0  0  0  0  0  0  0  0
   57.0140   33.3450   45.4350 C   0  0  0  0  0  0  0  0  0  0  0  0
   57.7820   34.2180   46.2060 C   0  0  0  0  0  0  0  0  0  0  0  0
   58.9610   33.7750   46.8210 C   0  0  0  0  0  0  0  0  0  0  0  0
   59.7050   34.6370   47.5720 N   0  0  0  0  0  0  0  0  0  0  0  0
   60.8480   34.2390   48.1890 C   0  0  0  0  0  0  0  0  0  0  0  0
   61.2940   32.9240   48.0690 C   0  0  0  0  0  0  0  0  0  0  0  0
   60.5630   32.0000   47.3090 C   0  0  0  0  0  0  0  0  0  0  0  0
   61.0670   30.5840   47.1950 C   0  0  0  0  0  0  0  0  0  0  0  0
   59.3720   32.4270   46.6690 C   0  0  0  0  0  0  0  0  0  0  0  0
   58.5840   31.5560   45.8870 C   0  0  0  0  0  0  0  0  0  0  0  0
   59.1612   27.8986   44.9530 H   0  0  0  0  0  0  0  0  0  0  0  0
   57.8767   27.5697   43.7411 H   0  0  0  0  0  0  0  0  0  0  0  0
   58.7277   29.1517   43.7411 H   0  0  0  0  0  0  0  0  0  0  0  0
   56.0847   33.7013   44.9667 H   0  0  0  0  0  0  0  0  0  0  0  0
   57.4597   35.2621   46.3322 H   0  0  0  0  0  0  0  0  0  0  0  0
   59.4020   35.6300   47.6870 H   0  0  0  0  0  0  0  0  0  0  0  0
   61.4253   34.9593   48.7872 H   0  0  0  0  0  0  0  0  0  0  0  0
   62.2210   32.6106   48.5714 H   0  0  0  0  0  0  0  0  0  0  0  0
   61.2159   30.1657   48.2014 H   0  0  0  0  0  0  0  0  0  0  0  0
   60.3303   29.9753   46.6502 H   0  0  0  0  0  0  0  0  0  0  0  0
   62.0226   30.5777   46.6502 H   0  0  0  0  0  0  0  0  0  0  0  0
   58.8866   30.5046   45.7733 H   0  0  0  0  0  0  0  0  0  0  0  0
  1  2  1  0
  2  3  1  0
  3  4  2  0
  3  5  1  0
  5  6  1  0
  6  7  2  0
  7  8  1  0
  8  9  2  0
  9 10  1  0
 10 11  2  0
 11 12  1  0
 12 13  2  0
 13 14  1  0
 13 15  1  0
 15 16  2  0
 16  6  1  0
 15  9  1  0
  1 17  1  0
  1 18  1  0
  1 19  1  0
  7 20  1  0
  8 21  1  0
 10 22  1  0
 11 23  1  0
 12 24  1  0
 14 25  1  0
 14 26  1  0
 14 27  1  0
 16 28  1  0
M  CHG  2   5  -1  10   1
M  END
>  <UniqueID>  (36) 
34

>  <SMILES>  (36) 
COC(=O)[N-]c1ccc2[nH+]ccc(C)c2c1

>  <Energy>  (36) 
33.56731344353612

>  <Genealogy>  (36) 
COC(=O)[N-]c1ccc2[nH+]ccc(C)c2c1 (protonated)
COC(=O)[N-]c1ccc2[nH+]ccc(C)c2c1 (3D coordinates assigned)
COC(=O)[N-]c1ccc2[nH+]ccc(C)c2c1 (optimized conformer: 33.56731344353612 kcal/mol)

>  <smiles>  (36) 
COC(=O)Nc1ccc2nccc(C)c2c1

>  <score_type>  (36) 
oracle

>  <origin>  (36) 
adg

>  <m_score__min__energy>  (36) 
-6.4400000000000004

>  <m_primary>  (36) 
energy

$$$$
36:0
     RDKit          3D

 49 52  0  0  0  0  0  0  0  0999 V2000
   56.9370   30.5370   43.3460 C   0  0  0  0  0  0  0  0  0  0  0  0
   57.7620   31.8170   43.1290 C   0  0  0  0  0  0  0  0  0  0  0  0
   58.2640   32.4530   44.3730 N   0  0  0  0  0  0  0  0  0  0  0  0
   57.8180   33.8560   44.5200 C   0  0  0  0  0  0  0  0  0  0  0  0
   58.6370   34.5540   45.6130 C   0  0  0  0  0  0  0  0  0  0  0  0
   58.9010   33.6410   46.7260 N   0  0  0  0  0  0  0  0  0  0  0  0
   59.7460   34.0840   47.7940 C   0  0  0  0  0  0  0  0  0  0  0  0
   59.3130   34.9590   48.5920 O   0  0  0  0  0  0  0  0  0  0  0  0
   61.1430   33.5180   47.9840 C   0  0  1  0  0  0  0  0  0  0  0  0
   61.8750   34.1830   49.1870 C   0  0  0  0  0  0  0  0  0  0  0  0
   63.2870   33.5800   49.3520 C   0  0  2  0  0  0  0  0  0  0  0  0
   64.1020   33.8260   48.0630 C   0  0  0  0  0  0  0  0  0  0  0  0
   63.3940   33.1510   46.8670 C   0  0  1  0  0  0  0  0  0  0  0  0
   63.2790   31.6340   47.1260 C   0  0  0  0  0  0  0  0  0  0  0  0
   62.4640   31.3890   48.4160 C   0  0  1  0  0  0  0  0  0  0  0  0
   63.1730   32.0630   49.6090 C   0  0  0  0  0  0  0  0  0  0  0  0
   61.0510   31.9890   48.2510 C   0  0  0  0  0  0  0  0  0  0  0  0
   61.9810   33.7540   46.6990 C   0  0  0  0  0  0  0  0  0  0  0  0
   58.0840   32.4360   46.9000 C   0  0  0  0  0  0  0  0  0  0  0  0
   57.9610   31.6410   45.5810 C   0  0  0  0  0  0  0  0  0  0  0  0
   56.8196   30.3549   44.4244 H   0  0  0  0  0  0  0  0  0  0  0  0
   55.9458   30.6570   42.8844 H   0  0  0  0  0  0  0  0  0  0  0  0
   57.4556   29.6838   42.8844 H   0  0  0  0  0  0  0  0  0  0  0  0
   58.6286   31.5631   42.5008 H   0  0  0  0  0  0  0  0  0  0  0  0
   57.0846   32.5460   42.6603 H   0  0  0  0  0  0  0  0  0  0  0  0
   59.3100   32.4700   44.2750 H   0  0  0  0  0  0  0  0  0  0  0  0
   57.9582   34.3849   43.5657 H   0  0  0  0  0  0  0  0  0  0  0  0
   56.7545   33.8697   44.8008 H   0  0  0  0  0  0  0  0  0  0  0  0
   59.5940   34.8904   45.1875 H   0  0  0  0  0  0  0  0  0  0  0  0
   58.0630   35.4134   45.9898 H   0  0  0  0  0  0  0  0  0  0  0  0
   61.2959   34.0088   50.1059 H   0  0  0  0  0  0  0  0  0  0  0  0
   61.9658   35.2630   48.9991 H   0  0  0  0  0  0  0  0  0  0  0  0
   63.7937   34.0568   50.2040 H   0  0  0  0  0  0  0  0  0  0  0  0
   65.1096   33.4005   48.1799 H   0  0  0  0  0  0  0  0  0  0  0  0
   64.1788   34.9079   47.8796 H   0  0  0  0  0  0  0  0  0  0  0  0
   63.9776   33.3225   45.9505 H   0  0  0  0  0  0  0  0  0  0  0  0
   64.2853   31.2050   47.2416 H   0  0  0  0  0  0  0  0  0  0  0  0
   62.7704   31.1557   46.2760 H   0  0  0  0  0  0  0  0  0  0  0  0
   62.3852   30.3075   48.6010 H   0  0  0  0  0  0  0  0  0  0  0  0
   64.1794   31.6348   49.7265 H   0  0  0  0  0  0  0  0  0  0  0  0
   62.5905   31.8901   50.5259 H   0  0  0  0  0  0  0  0  0  0  0  0
   60.4731   31.8152   49.1707 H   0  0  0  0  0  0  0  0  0  0  0  0
   60.5539   31.5055   47.3971 H   0  0  0  0  0  0  0  0  0  0  0  0
   62.0666   34.8350   46.5141 H   0  0  0  0  0  0  0  0  0  0  0  0
   61.4808   33.2668   45.8490 H   0  0  0  0  0  0  0  0  0  0  0  0
   58.5507   31.7945   47.6620 H   0  0  0  0  0  0  0  0  0  0  0  0
   57.0755   32.7445   47.2127 H   0  0  0  0  0  0  0  0  0  0  0  0
   58.6624   30.7944   45.6172 H   0  0  0  0  0  0  0  0  0  0  0  0
   56.9152   31.3105   45.4968 H   0  0  0  0  0  0  0  0  0  0  0  0
  1  2  1  0
  2  3  1  0
  3  4  1  0
  4  5  1  0
  5  6  1  0
  6  7  1  0
  7  8  2  0
  9  7  1  6
  9 10  1  0
 10 11  1  0
 11 12  1  0
 12 13  1  0
 13 14  1  0
 14 15  1  0
 15 16  1  0
 15 17  1  0
 13 18  1  0
  6 19  1  0
 19 20  1  0
 20  3  1  0
 17  9  1  0
 18  9  1  0
 16 11  1  0
  1 21  1  0
  1 22  1  0
  1 23  1  0
  2 24  1  0
  2 25  1  0
  3 26  1  0
  4 27  1  0
  4 28  1  0
  5 29  1  0
  5 30  1  0
 10 31  1  0
 10 32  1  0
 11 33  1  1
 12 34  1  0
 12 35  1  0
 13 36  1  6
 14 37  1  0
 14 38  1  0
 15 39  1  1
 16 40  1  0
 16 41  1  0
 17 42  1  0
 17 43  1  0
 18 44  1  0
 18 45  1  0
 19 46  1  0
 19 47  1  0
 20 48  1  0
 20 49  1  0
M  CHG  1   3   1
M  END
>  <UniqueID>  (37) 
35

>  <SMILES>  (37) 
CC[NH+]1CCN(C(=O)C23CC4CC(CC(C4)C2)C3)CC1

>  <Energy>  (37) 
59.58321048674187

>  <Genealogy>  (37) 
CC[NH+]1CCN(C(=O)C23CC4CC(CC(C4)C2)C3)CC1 (protonated)
CC[NH+]1CCN(C(=O)C23CC4CC(CC(C4)C2)C3)CC1 (3D coordinates assigned)
CC[NH+]1CCN(C(=O)C23CC4CC(CC(C4)C2)C3)CC1 (nonaromatic ring conformer: 59.58321048674187 kcal/mol)

>  <smiles>  (37) 
CCN1CCN(C(=O)C23CC4CC(CC(C4)C2)C3)CC1

>  <score_type>  (37) 
oracle

>  <origin>  (37) 
adg

>  <m_score__min__energy>  (37) 
-6.0800000000000001

>  <m_primary>  (37) 
energy

$$$$
37:0
     RDKit          3D

 45 48  0  0  0  0  0  0  0  0999 V2000
   59.2800   33.1760   50.7560 C   0  0  0  0  0  0  0  0  0  0  0  0
   60.1560   33.6840   49.7550 O   0  0  0  0  0  0  0  0  0  0  0  0
   60.9210   32.8860   48.8880 C   0  0  0  0  0  0  0  0  0  0  0  0
   62.2820   33.1450   48.6440 C   0  0  0  0  0  0  0  0  0  0  0  0
   62.9870   32.3320   47.7610 C   0  0  0  0  0  0  0  0  0  0  0  0
   62.3470   31.2630   47.1370 C   0  0  0  0  0  0  0  0  0  0  0  0
   60.9990   31.0040   47.4140 C   0  0  0  0  0  0  0  0  0  0  0  0
   60.4300   29.9970   46.8110 N   0  0  0  0  0  0  0  0  0  0  0  0
   59.1360   29.4200   47.0550 C   0  0  0  0  0  0  0  0  0  0  0  0
   58.3290   29.9890   47.8390 O   0  0  0  0  0  0  0  0  0  0  0  0
   58.7920   28.1080   46.4460 C   0  0  0  0  0  0  0  0  0  0  0  0
   59.6780   27.0260   46.6140 C   0  0  0  0  0  0  0  0  0  0  0  0
   59.4030   25.7800   46.0470 C   0  0  0  0  0  0  0  0  0  0  0  0
   58.2360   25.5910   45.3100 C   0  0  0  0  0  0  0  0  0  0  0  0
   57.3400   26.6460   45.1370 C   0  0  0  0  0  0  0  0  0  0  0  0
   57.6120   27.9150   45.6830 C   0  0  0  0  0  0  0  0  0  0  0  0
   56.6590   28.9800   45.5400 N   0  0  0  0  0  0  0  0  0  0  0  0
   56.7330   30.0670   44.6080 C   0  0  0  0  0  0  0  0  0  0  0  0
   56.1650   29.9470   43.4900 O   0  0  0  0  0  0  0  0  0  0  0  0
   57.3950   31.3410   44.9370 C   0  0  0  0  0  0  0  0  0  0  0  0
   58.1130   32.1520   44.0570 C   0  0  0  0  0  0  0  0  0  0  0  0
   58.5440   33.2000   44.8350 C   0  0  0  0  0  0  0  0  0  0  0  0
   59.3080   34.3200   44.5160 C   0  0  0  0  0  0  0  0  0  0  0  0
   59.6000   35.2300   45.5500 C   0  0  0  0  0  0  0  0  0  0  0  0
   59.1300   34.9950   46.8630 C   0  0  0  0  0  0  0  0  0  0  0  0
   58.3620   33.8520   47.1510 C   0  0  0  0  0  0  0  0  0  0  0  0
   58.0880   32.9720   46.1060 C   0  0  0  0  0  0  0  0  0  0  0  0
   57.4050   31.8560   46.1550 O   0  0  0  0  0  0  0  0  0  0  0  0
   60.3160   31.8330   48.2660 N   0  0  0  0  0  0  0  0  0  0  0  0
   59.6851   33.4109   51.7513 H   0  0  0  0  0  0  0  0  0  0  0  0
   58.2885   33.6393   50.6450 H   0  0  0  0  0  0  0  0  0  0  0  0
   59.1896   32.0854   50.6450 H   0  0  0  0  0  0  0  0  0  0  0  0
   62.7854   33.9837   49.1472 H   0  0  0  0  0  0  0  0  0  0  0  0
   64.0488   32.5333   47.5559 H   0  0  0  0  0  0  0  0  0  0  0  0
   62.8982   30.6255   46.4300 H   0  0  0  0  0  0  0  0  0  0  0  0
   60.5988   27.1644   47.1996 H   0  0  0  0  0  0  0  0  0  0  0  0
   60.1084   24.9469   46.1824 H   0  0  0  0  0  0  0  0  0  0  0  0
   58.0209   24.6087   44.8640 H   0  0  0  0  0  0  0  0  0  0  0  0
   56.4121   26.4850   44.5686 H   0  0  0  0  0  0  0  0  0  0  0  0
   58.2932   31.9894   42.9841 H   0  0  0  0  0  0  0  0  0  0  0  0
   59.6709   34.4879   43.4912 H   0  0  0  0  0  0  0  0  0  0  0  0
   60.1970   36.1286   45.3354 H   0  0  0  0  0  0  0  0  0  0  0  0
   59.3665   35.7106   47.6643 H   0  0  0  0  0  0  0  0  0  0  0  0
   57.9899   33.6593   48.1681 H   0  0  0  0  0  0  0  0  0  0  0  0
   59.2950   31.7110   48.4390 H   0  0  0  0  0  0  0  0  0  0  0  0
  1  2  1  0
  2  3  1  0
  3  4  2  0
  4  5  1  0
  5  6  2  0
  6  7  1  0
  7  8  2  3
  8  9  1  0
  9 10  2  0
  9 11  1  0
 11 12  2  0
 12 13  1  0
 13 14  2  0
 14 15  1  0
 15 16  2  0
 16 17  1  0
 17 18  1  0
 18 19  2  0
 18 20  1  0
 20 21  2  0
 21 22  1  0
 22 23  2  0
 23 24  1  0
 24 25  2  0
 25 26  1  0
 26 27  2  0
 27 28  1  0
  7 29  1  0
 29  3  1  0
 16 11  1  0
 28 20  1  0
 27 22  1  0
  1 30  1  0
  1 31  1  0
  1 32  1  0
  4 33  1  0
  5 34  1  0
  6 35  1  0
 12 36  1  0
 13 37  1  0
 14 38  1  0
 15 39  1  0
 21 40  1  0
 23 41  1  0
 24 42  1  0
 25 43  1  0
 26 44  1  0
 29 45  1  0
M  CHG  1  17  -1
M  END
>  <UniqueID>  (38) 
36

>  <SMILES>  (38) 
COc1cccc(=NC(=O)c2ccccc2[N-]C(=O)c2cc3ccccc3o2)[nH]1

>  <Energy>  (38) 
98.800230286323

>  <Genealogy>  (38) 
COc1cccc(=NC(=O)c2ccccc2[N-]C(=O)c2cc3ccccc3o2)[nH]1 (protonated)
COc1cccc(=NC(=O)c2ccccc2[N-]C(=O)c2cc3ccccc3o2)[nH]1 (3D coordinates assigned)
COc1cccc(=NC(=O)c2ccccc2[N-]C(=O)c2cc3ccccc3o2)[nH]1 (optimized conformer: 98.800230286323 kcal/mol)

>  <smiles>  (38) 
COc1cccc(=NC(=O)c2ccccc2NC(=O)c2cc3ccccc3o2)[nH]1

>  <score_type>  (38) 
oracle

>  <origin>  (38) 
adg

>  <m_score__min__energy>  (38) 
-11.119999999999999

>  <m_primary>  (38) 
energy

$$$$
38:0
     RDKit          3D

 50 52  0  0  1  0  0  0  0  0999 V2000
   56.8940   31.2510   51.7600 C   0  0  0  0  0  0  0  0  0  0  0  0
   58.2270   31.5360   51.4380 O   0  0  0  0  0  0  0  0  0  0  0  0
   58.6640   31.3270   50.1400 C   0  0  0  0  0  0  0  0  0  0  0  0
   58.5220   32.2500   49.1260 C   0  0  0  0  0  0  0  0  0  0  0  0
   58.9970   31.9580   47.8310 C   0  0  0  0  0  0  0  0  0  0  0  0
   58.9170   32.9070   46.7430 C   0  0  0  0  0  0  0  0  0  0  0  0
   59.7490   34.0200   46.8530 C   0  0  0  0  0  0  0  0  0  0  0  0
   59.7020   35.0220   45.9330 N   0  0  0  0  0  0  0  0  0  0  0  0
   58.8560   34.9730   44.8920 C   0  0  0  0  0  0  0  0  0  0  0  0
   58.0600   33.9000   44.7910 N   0  0  0  0  0  0  0  0  0  0  0  0
   58.0710   32.8720   45.6850 C   0  0  0  0  0  0  0  0  0  0  0  0
   57.3430   31.8920   45.4430 N   0  0  0  0  0  0  0  0  0  0  0  0
   57.0500   31.2830   44.2260 C   0  0  1  0  0  0  0  0  0  0  0  0
   57.9550   31.6910   43.0710 C   0  0  0  0  0  0  0  0  0  0  0  0
   57.6510   29.8910   44.5440 C   0  0  0  0  0  0  0  0  0  0  0  0
   59.0090   29.6890   44.5120 C   0  0  0  0  0  0  0  0  0  0  0  0
   59.6090   28.4730   44.7970 C   0  0  0  0  0  0  0  0  0  0  0  0
   58.7860   27.4180   45.1260 C   0  0  0  0  0  0  0  0  0  0  0  0
   57.4220   27.5880   45.1660 C   0  0  0  0  0  0  0  0  0  0  0  0
   56.8510   28.8340   44.8730 C   0  0  0  0  0  0  0  0  0  0  0  0
   55.5060   28.9670   44.9240 F   0  0  0  0  0  0  0  0  0  0  0  0
   59.6170   30.7120   47.5930 C   0  0  0  0  0  0  0  0  0  0  0  0
   59.7460   29.8060   48.6270 C   0  0  0  0  0  0  0  0  0  0  0  0
   60.3420   28.5870   48.4290 O   0  0  0  0  0  0  0  0  0  0  0  0
   59.6810   27.3710   48.2450 C   0  0  0  0  0  0  0  0  0  0  0  0
   59.2770   30.1040   49.8890 C   0  0  0  0  0  0  0  0  0  0  0  0
   59.4260   29.1600   50.9110 O   0  0  0  0  0  0  0  0  0  0  0  0
   60.5830   29.1010   51.7110 C   0  0  0  0  0  0  0  0  0  0  0  0
   56.7782   31.2262   52.8536 H   0  0  0  0  0  0  0  0  0  0  0  0
   56.2407   32.0298   51.3396 H   0  0  0  0  0  0  0  0  0  0  0  0
   56.6162   30.2732   51.3396 H   0  0  0  0  0  0  0  0  0  0  0  0
   58.0370   33.2165   49.3276 H   0  0  0  0  0  0  0  0  0  0  0  0
   60.4534   34.0895   47.6951 H   0  0  0  0  0  0  0  0  0  0  0  0
   58.8177   35.7836   44.1494 H   0  0  0  0  0  0  0  0  0  0  0  0
   57.4070   33.8980   43.9580 H   0  0  0  0  0  0  0  0  0  0  0  0
   56.0006   31.4530   43.9434 H   0  0  0  0  0  0  0  0  0  0  0  0
   58.8899   32.1125   43.4689 H   0  0  0  0  0  0  0  0  0  0  0  0
   58.1835   30.8088   42.4549 H   0  0  0  0  0  0  0  0  0  0  0  0
   57.4453   32.4464   42.4549 H   0  0  0  0  0  0  0  0  0  0  0  0
   59.6553   30.5384   44.2458 H   0  0  0  0  0  0  0  0  0  0  0  0
   60.7020   28.3542   44.7619 H   0  0  0  0  0  0  0  0  0  0  0  0
   59.2221   26.4351   45.3577 H   0  0  0  0  0  0  0  0  0  0  0  0
   56.7739   26.7393   45.4301 H   0  0  0  0  0  0  0  0  0  0  0  0
   59.9949   30.4646   46.5900 H   0  0  0  0  0  0  0  0  0  0  0  0
   59.4421   26.9316   49.2247 H   0  0  0  0  0  0  0  0  0  0  0  0
   58.7510   27.5406   47.6827 H   0  0  0  0  0  0  0  0  0  0  0  0
   60.3291   26.6828   47.6827 H   0  0  0  0  0  0  0  0  0  0  0  0
   60.2958   29.1156   52.7727 H   0  0  0  0  0  0  0  0  0  0  0  0
   61.1329   28.1736   51.4927 H   0  0  0  0  0  0  0  0  0  0  0  0
   61.2243   29.9676   51.4927 H   0  0  0  0  0  0  0  0  0  0  0  0
  1  2  1  0
  2  3  1  0
  3  4  2  0
  4  5  1  0
  5  6  1  0
  6  7  2  0
  7  8  1  0
  8  9  2  0
  9 10  1  0
 10 11  1  0
 11 12  2  0
 12 13  1  0
 13 14  1  0
 13 15  1  0
 15 16  2  0
 16 17  1  0
 17 18  2  0
 18 19  1  0
 19 20  2  0
 20 21  1  0
  5 22  2  0
 22 23  1  0
 23 24  1  0
 24 25  1  0
 23 26  2  0
 26 27  1  0
 27 28  1  0
 26  3  1  0
 11  6  1  0
 20 15  1  0
  1 29  1  0
  1 30  1  0
  1 31  1  0
  4 32  1  0
  7 33  1  0
  9 34  1  0
 10 35  1  0
 13 36  1  6
 14 37  1  0
 14 38  1  0
 14 39  1  0
 16 40  1  0
 17 41  1  0
 18 42  1  0
 19 43  1  0
 22 44  1  0
 25 45  1  0
 25 46  1  0
 25 47  1  0
 28 48  1  0
 28 49  1  0
 28 50  1  0
M  END
>  <smiles>  (39) 
COc1cc(-c2cnc[nH]c2=NC(C)c2ccccc2F)cc(OC)c1OC

>  <score_type>  (39) 
oracle

>  <origin>  (39) 
adg

>  <m_score__min__energy>  (39) 
-7

>  <m_primary>  (39) 
energy

$$$$
39:0
     RDKit          3D

 23 23  0  0  0  0  0  0  0  0999 V2000
   57.7980   32.0200   42.7720 C   0  0  0  0  0  0  0  0  0  0  0  0
   56.8140   30.8660   42.6210 C   0  0  0  0  0  0  0  0  0  0  0  0
   56.6110   29.9930   44.1660 S   0  0  0  0  0  0  0  0  0  0  0  0
   57.3570   30.7220   45.2470 O   0  0  0  0  0  0  0  0  0  0  0  0
   55.1470   29.9410   44.5080 O   0  0  0  0  0  0  0  0  0  0  0  0
   57.2420   28.3840   44.0070 N   0  0  0  0  0  0  0  0  0  0  0  0
   57.8280   27.6590   45.1000 C   0  0  0  0  0  0  0  0  0  0  0  0
   59.2230   27.6770   45.2590 C   0  0  0  0  0  0  0  0  0  0  0  0
   59.8270   26.9860   46.3130 C   0  0  0  0  0  0  0  0  0  0  0  0
   59.0410   26.2800   47.2270 C   0  0  0  0  0  0  0  0  0  0  0  0
   57.6510   26.2720   47.0930 C   0  0  0  0  0  0  0  0  0  0  0  0
   57.0400   26.9610   46.0400 C   0  0  0  0  0  0  0  0  0  0  0  0
   55.6870   26.9800   45.9720 F   0  0  0  0  0  0  0  0  0  0  0  0
   57.9681   32.2194   43.8403 H   0  0  0  0  0  0  0  0  0  0  0  0
   58.7515   31.7540   42.2923 H   0  0  0  0  0  0  0  0  0  0  0  0
   57.3846   32.9195   42.2923 H   0  0  0  0  0  0  0  0  0  0  0  0
   55.8394   31.2636   42.3015 H   0  0  0  0  0  0  0  0  0  0  0  0
   57.2082   30.1646   41.8709 H   0  0  0  0  0  0  0  0  0  0  0  0
   56.9850   27.8600   43.1410 H   0  0  0  0  0  0  0  0  0  0  0  0
   59.8457   28.2397   44.5480 H   0  0  0  0  0  0  0  0  0  0  0  0
   60.9214   26.9980   46.4229 H   0  0  0  0  0  0  0  0  0  0  0  0
   59.5171   25.7303   48.0524 H   0  0  0  0  0  0  0  0  0  0  0  0
   57.0340   25.7216   47.8185 H   0  0  0  0  0  0  0  0  0  0  0  0
  1  2  1  0
  2  3  1  0
  3  4  2  0
  3  5  2  0
  3  6  1  0
  6  7  1  0
  7  8  2  0
  8  9  1  0
  9 10  2  0
 10 11  1  0
 11 12  2  0
 12 13  1  0
 12  7  1  0
  1 14  1  0
  1 15  1  0
  1 16  1  0
  2 17  1  0
  2 18  1  0
  6 19  1  0
  8 20  1  0
  9 21  1  0
 10 22  1  0
 11 23  1  0
M  END
>  <UniqueID>  (40) 
37

>  <SMILES>  (40) 
CCS(=O)(=O)Nc1ccccc1F

>  <Energy>  (40) 
19.40815931306731

>  <Genealogy>  (40) 
CCS(=O)(=O)Nc1ccccc1F (3D coordinates assigned)
CCS(=O)(=O)Nc1ccccc1F (optimized conformer: 19.40815931306731 kcal/mol)

>  <smiles>  (40) 
CCS(=O)(=O)Nc1ccccc1F

>  <score_type>  (40) 
oracle

>  <origin>  (40) 
adg

>  <m_score__min__energy>  (40) 
-5.96

>  <m_primary>  (40) 
energy

$$$$
40:0
     RDKit          3D

 50 54  0  0  0  0  0  0  0  0999 V2000
   62.1950   33.8970   48.8800 C   0  0  0  0  0  0  0  0  0  0  0  0
   60.9930   33.9570   48.0560 N   0  0  0  0  0  0  0  0  0  0  0  0
   60.6820   32.9760   47.1830 C   0  0  0  0  0  0  0  0  0  0  0  0
   59.4940   33.3730   46.5930 C   0  0  0  0  0  0  0  0  0  0  0  0
   58.7490   32.6240   45.5630 C   0  0  0  0  0  0  0  0  0  0  0  0
   58.1920   33.3500   44.5210 C   0  0  0  0  0  0  0  0  0  0  0  0
   57.5030   32.6190   43.5740 C   0  0  0  0  0  0  0  0  0  0  0  0
   57.3960   31.2510   43.6930 C   0  0  0  0  0  0  0  0  0  0  0  0
   56.8060   30.3160   42.9460 N   0  0  0  0  0  0  0  0  0  0  0  0
   56.9770   29.1140   43.4690 N   0  0  0  0  0  0  0  0  0  0  0  0
   57.7100   29.2010   44.6210 C   0  0  0  0  0  0  0  0  0  0  0  0
   58.0460   28.0430   45.4010 C   0  0  0  0  0  0  0  0  0  0  0  0
   59.0350   27.8890   46.3190 C   0  0  0  0  0  0  0  0  0  0  0  0
   59.2590   26.6910   47.0190 C   0  0  0  0  0  0  0  0  0  0  0  0
   58.4480   25.6020   46.7770 C   0  0  0  0  0  0  0  0  0  0  0  0
   57.4540   25.7750   45.8460 C   0  0  0  0  0  0  0  0  0  0  0  0
   56.5790   24.7000   45.5440 N   0  0  0  0  0  0  0  0  0  0  0  0
   57.1390   23.4370   45.1070 C   0  0  0  0  0  0  0  0  0  0  0  0
   56.5500   22.3590   46.0190 C   0  0  0  0  0  0  0  0  0  0  0  0
   55.2190   22.0750   45.5640 N   0  0  0  0  0  0  0  0  0  0  0  0
   54.1920   22.8130   46.2590 C   0  0  0  0  0  0  0  0  0  0  0  0
   53.9860   24.1830   45.6400 C   0  0  0  0  0  0  0  0  0  0  0  0
   55.2060   25.0190   45.7170 C   0  0  0  0  0  0  0  0  0  0  0  0
   54.9620   26.2280   45.9860 O   0  0  0  0  0  0  0  0  0  0  0  0
   57.2700   26.9330   45.1970 N   0  0  0  0  0  0  0  0  0  0  0  0
   57.9660   30.5390   44.7510 C   0  0  0  0  0  0  0  0  0  0  0  0
   58.6440   31.2670   45.6790 C   0  0  0  0  0  0  0  0  0  0  0  0
   59.1040   34.6030   47.1280 C   0  0  0  0  0  0  0  0  0  0  0  0
   60.0780   34.8990   48.0220 N   0  0  0  0  0  0  0  0  0  0  0  0
   61.9120   33.9111   49.9429 H   0  0  0  0  0  0  0  0  0  0  0  0
   62.7450   32.9703   48.6593 H   0  0  0  0  0  0  0  0  0  0  0  0
   62.8345   34.7643   48.6593 H   0  0  0  0  0  0  0  0  0  0  0  0
   61.2514   32.0564   46.9827 H   0  0  0  0  0  0  0  0  0  0  0  0
   58.2931   34.4432   44.4531 H   0  0  0  0  0  0  0  0  0  0  0  0
   57.0369   33.1319   42.7198 H   0  0  0  0  0  0  0  0  0  0  0  0
   56.5770   28.2670   43.0100 H   0  0  0  0  0  0  0  0  0  0  0  0
   59.6941   28.7452   46.5251 H   0  0  0  0  0  0  0  0  0  0  0  0
   60.0746   26.6225   47.7540 H   0  0  0  0  0  0  0  0  0  0  0  0
   58.5901   24.6458   47.3020 H   0  0  0  0  0  0  0  0  0  0  0  0
   56.8628   23.2412   44.0604 H   0  0  0  0  0  0  0  0  0  0  0  0
   58.2374   23.4488   45.1648 H   0  0  0  0  0  0  0  0  0  0  0  0
   57.1650   21.4485   45.9669 H   0  0  0  0  0  0  0  0  0  0  0  0
   56.5320   22.7076   47.0621 H   0  0  0  0  0  0  0  0  0  0  0  0
   55.0500   21.0500   45.6820 H   0  0  0  0  0  0  0  0  0  0  0  0
   53.2483   22.2502   46.2069 H   0  0  0  0  0  0  0  0  0  0  0  0
   54.5067   22.9471   47.3045 H   0  0  0  0  0  0  0  0  0  0  0  0
   53.7090   24.0565   44.5830 H   0  0  0  0  0  0  0  0  0  0  0  0
   53.1904   24.6927   46.2032 H   0  0  0  0  0  0  0  0  0  0  0  0
   59.1133   30.7567   46.5330 H   0  0  0  0  0  0  0  0  0  0  0  0
   58.2109   35.1954   46.8803 H   0  0  0  0  0  0  0  0  0  0  0  0
  1  2  1  0
  2  3  1  0
  3  4  2  0
  4  5  1  0
  5  6  1  0
  6  7  2  0
  7  8  1  0
  8  9  2  0
  9 10  1  0
 10 11  1  0
 11 12  1  0
 12 13  2  0
 13 14  1  0
 14 15  2  0
 15 16  1  0
 16 17  1  0
 17 18  1  0
 18 19  1  0
 19 20  1  0
 20 21  1  0
 21 22  1  0
 22 23  1  0
 23 24  2  0
 16 25  2  0
 11 26  2  0
 26 27  1  0
  4 28  1  0
 28 29  2  0
 29  2  1  0
 27  5  2  0
 26  8  1  0
 25 12  1  0
 23 17  1  0
  1 30  1  0
  1 31  1  0
  1 32  1  0
  3 33  1  0
  6 34  1  0
  7 35  1  0
 10 36  1  0
 13 37  1  0
 14 38  1  0
 15 39  1  0
 18 40  1  0
 18 41  1  0
 19 42  1  0
 19 43  1  0
 20 44  1  0
 21 45  1  0
 21 46  1  0
 22 47  1  0
 22 48  1  0
 27 49  1  0
 28 50  1  0
M  END
>  <smiles>  (41) 
Cn1cc(-c2ccc3n[nH]c(-c4cccc(N5CCNCCC5=O)n4)c3c2)cn1

>  <score_type>  (41) 
oracle

>  <origin>  (41) 
adg

>  <m_score__min__energy>  (41) 
-7.8399999999999999

>  <m_primary>  (41) 
energy

$$$$
41:0
     RDKit          3D

 60 63  0  0  0  0  0  0  0  0999 V2000
   67.7770   34.6640   52.7200 C   0  0  0  0  0  0  0  0  0  0  0  0
   66.5060   34.0330   52.8450 O   0  0  0  0  0  0  0  0  0  0  0  0
   65.5670   33.9350   51.8070 C   0  0  0  0  0  0  0  0  0  0  0  0
   65.9080   33.1970   50.6700 C   0  0  0  0  0  0  0  0  0  0  0  0
   65.0090   33.0670   49.6080 C   0  0  0  0  0  0  0  0  0  0  0  0
   63.7430   33.6790   49.6650 C   0  0  0  0  0  0  0  0  0  0  0  0
   62.7820   33.5450   48.5420 C   0  0  0  0  0  0  0  0  0  0  0  0
   61.5140   33.4230   48.7370 N   0  0  0  0  0  0  0  0  0  0  0  0
   60.7620   33.2820   47.5000 C   0  0  1  0  0  0  0  0  0  0  0  0
   61.8220   33.4750   46.3800 C   0  0  0  0  0  0  0  0  0  0  0  0
   63.1650   33.5230   47.1060 C   0  0  0  0  0  0  0  0  0  0  0  0
   60.1100   31.8740   47.4620 C   0  0  0  0  0  0  0  0  0  0  0  0
   58.7590   31.8500   46.7150 C   0  0  0  0  0  0  0  0  0  0  0  0
   58.7070   32.8630   45.6390 N   0  0  1  0  0  0  0  0  0  0  0  0
   57.4810   32.6620   44.8260 C   0  0  0  0  0  0  0  0  0  0  0  0
   57.7540   32.2210   43.3710 C   0  0  0  0  0  0  0  0  0  0  0  0
   57.0820   30.8890   43.0090 C   0  0  0  0  0  0  0  0  0  0  0  0
   56.8300   30.0770   44.2540 C   0  0  0  0  0  0  0  0  0  0  0  0
   55.7120   30.1900   44.8260 O   0  0  0  0  0  0  0  0  0  0  0  0
   57.8680   29.2100   44.8620 C   0  0  0  0  0  0  0  0  0  0  0  0
   59.2190   29.3980   44.5180 C   0  0  0  0  0  0  0  0  0  0  0  0
   60.2130   28.5940   45.0820 C   0  0  0  0  0  0  0  0  0  0  0  0
   59.8740   27.6000   46.0020 C   0  0  0  0  0  0  0  0  0  0  0  0
   60.8400   26.8230   46.5500 F   0  0  0  0  0  0  0  0  0  0  0  0
   58.5380   27.4160   46.3660 C   0  0  0  0  0  0  0  0  0  0  0  0
   57.5390   28.2160   45.8040 C   0  0  0  0  0  0  0  0  0  0  0  0
   58.7750   34.2430   46.1940 C   0  0  0  0  0  0  0  0  0  0  0  0
   59.6710   34.3670   47.4490 C   0  0  0  0  0  0  0  0  0  0  0  0
   63.4010   34.4220   50.8100 C   0  0  0  0  0  0  0  0  0  0  0  0
   64.3020   34.5490   51.8710 C   0  0  0  0  0  0  0  0  0  0  0  0
   68.1857   34.8669   53.7209 H   0  0  0  0  0  0  0  0  0  0  0  0
   68.4628   34.0017   52.1713 H   0  0  0  0  0  0  0  0  0  0  0  0
   67.6640   35.6106   52.1713 H   0  0  0  0  0  0  0  0  0  0  0  0
   66.8942   32.7135   50.6105 H   0  0  0  0  0  0  0  0  0  0  0  0
   65.2930   32.4819   48.7209 H   0  0  0  0  0  0  0  0  0  0  0  0
   61.7950   32.6323   45.6736 H   0  0  0  0  0  0  0  0  0  0  0  0
   61.6388   34.3866   45.7923 H   0  0  0  0  0  0  0  0  0  0  0  0
   63.7696   32.6338   46.8738 H   0  0  0  0  0  0  0  0  0  0  0  0
   63.7800   34.3867   46.8131 H   0  0  0  0  0  0  0  0  0  0  0  0
   60.8008   31.1822   46.9578 H   0  0  0  0  0  0  0  0  0  0  0  0
   59.9138   31.5761   48.5026 H   0  0  0  0  0  0  0  0  0  0  0  0
   58.6147   30.8533   46.2726 H   0  0  0  0  0  0  0  0  0  0  0  0
   57.9641   32.0805   47.4396 H   0  0  0  0  0  0  0  0  0  0  0  0
   59.5330   32.6990   45.0180 H   0  0  0  0  0  0  0  0  0  0  0  0
   56.8673   31.8891   45.3118 H   0  0  0  0  0  0  0  0  0  0  0  0
   56.9731   33.6362   44.7720 H   0  0  0  0  0  0  0  0  0  0  0  0
   57.3757   32.9997   42.6924 H   0  0  0  0  0  0  0  0  0  0  0  0
   58.8400   32.0785   43.2699 H   0  0  0  0  0  0  0  0  0  0  0  0
   56.1244   31.0900   42.5064 H   0  0  0  0  0  0  0  0  0  0  0  0
   57.7461   30.3225   42.3396 H   0  0  0  0  0  0  0  0  0  0  0  0
   59.4950   30.1839   43.7996 H   0  0  0  0  0  0  0  0  0  0  0  0
   61.2656   28.7446   44.8003 H   0  0  0  0  0  0  0  0  0  0  0  0
   58.2712   26.6389   47.0974 H   0  0  0  0  0  0  0  0  0  0  0  0
   56.4897   28.0684   46.0992 H   0  0  0  0  0  0  0  0  0  0  0  0
   59.1735   34.9106   45.4159 H   0  0  0  0  0  0  0  0  0  0  0  0
   57.7544   34.5161   46.5003 H   0  0  0  0  0  0  0  0  0  0  0  0
   60.1550   35.3548   47.4414 H   0  0  0  0  0  0  0  0  0  0  0  0
   59.0294   34.2397   48.3334 H   0  0  0  0  0  0  0  0  0  0  0  0
   62.4157   34.9073   50.8706 H   0  0  0  0  0  0  0  0  0  0  0  0
   64.0211   35.1318   52.7606 H   0  0  0  0  0  0  0  0  0  0  0  0
  1  2  1  0
  2  3  1  0
  3  4  2  0
  4  5  1  0
  5  6  2  0
  6  7  1  0
  7  8  2  0
  8  9  1  0
  9 10  1  6
 10 11  1  0
  9 12  1  0
 12 13  1  0
 13 14  1  0
 14 15  1  0
 15 16  1  0
 16 17  1  0
 17 18  1  0
 18 19  2  0
 18 20  1  0
 20 21  2  0
 21 22  1  0
 22 23  2  0
 23 24  1  0
 23 25  1  0
 25 26  2  0
 14 27  1  0
 27 28  1  0
  6 29  1  0
 29 30  2  0
 30  3  1  0
 11  7  1  0
 26 20  1  0
 28  9  1  0
  1 31  1  0
  1 32  1  0
  1 33  1  0
  4 34  1  0
  5 35  1  0
 10 36  1  0
 10 37  1  0
 11 38  1  0
 11 39  1  0
 12 40  1  0
 12 41  1  0
 13 42  1  0
 13 43  1  0
 14 44  1  6
 15 45  1  0
 15 46  1  0
 16 47  1  0
 16 48  1  0
 17 49  1  0
 17 50  1  0
 21 51  1  0
 22 52  1  0
 25 53  1  0
 26 54  1  0
 27 55  1  0
 27 56  1  0
 28 57  1  0
 28 58  1  0
 29 59  1  0
 30 60  1  0
M  CHG  1  14   1
M  END
>  <UniqueID>  (42) 
38

>  <SMILES>  (42) 
COc1ccc(C2=NC3(CC2)CC[NH+](CCCC(=O)c2ccc(F)cc2)CC3)cc1

>  <Energy>  (42) 
79.22719304501594

>  <Genealogy>  (42) 
COc1ccc(C2=NC3(CC2)CC[NH+](CCCC(=O)c2ccc(F)cc2)CC3)cc1 (protonated)
COc1ccc(C2=NC3(CC2)CC[NH+](CCCC(=O)c2ccc(F)cc2)CC3)cc1 (3D coordinates assigned)
COc1ccc(C2=NC3(CC2)CC[NH+](CCCC(=O)c2ccc(F)cc2)CC3)cc1 (nonaromatic ring conformer: 79.22719304501594 kcal/mol)

>  <smiles>  (42) 
COc1ccc(C2=NC3(CC2)CCN(CCCC(=O)c2ccc(F)cc2)CC3)cc1

>  <score_type>  (42) 
oracle

>  <origin>  (42) 
adg

>  <m_score__min__energy>  (42) 
-7.7300000000000004

>  <m_primary>  (42) 
energy

$$$$
42:0
     RDKit          3D

 32 34  0  0  1  0  0  0  0  0999 V2000
   52.7540   24.4330   45.0360 O   0  0  0  0  0  0  0  0  0  0  0  0
   54.0450   23.9260   44.8400 N   0  0  0  0  0  0  0  0  0  0  0  0
   54.9590   24.7820   45.2500 C   0  0  0  0  0  0  0  0  0  0  0  0
   54.4300   25.9410   45.7580 O   0  0  0  0  0  0  0  0  0  0  0  0
   56.3180   24.3690   45.1090 C   0  0  0  0  0  0  0  0  0  0  0  0
   57.3100   25.0030   44.5620 C   0  0  0  0  0  0  0  0  0  0  0  0
   57.8130   26.3110   44.8360 C   0  0  0  0  0  0  0  0  0  0  0  0
   58.2060   27.2980   43.9980 C   0  0  0  0  0  0  0  0  0  0  0  0
   58.5330   28.5980   44.4110 C   0  0  0  0  0  0  0  0  0  0  0  0
   58.4580   28.9080   45.7520 C   0  0  0  0  0  0  0  0  0  0  0  0
   58.8160   30.2500   46.1660 C   0  0  0  0  0  0  0  0  0  0  0  0
   59.6930   30.5010   47.1820 N   0  0  0  0  0  0  0  0  0  0  0  0
   59.8270   31.7870   47.3220 O   0  0  0  0  0  0  0  0  0  0  0  0
   59.0820   32.4250   46.4490 C   0  0  0  0  0  0  0  0  0  0  0  0
   58.9050   33.7610   46.2250 C   0  0  0  0  0  0  0  0  0  0  0  0
   59.7380   34.9710   47.1800 Cl  0  0  0  0  0  0  0  0  0  0  0  0
   58.0540   34.1840   45.2280 C   0  0  0  0  0  0  0  0  0  0  0  0
   57.4030   33.2120   44.4820 C   0  0  0  0  0  0  0  0  0  0  0  0
   57.5940   31.8610   44.7210 C   0  0  0  0  0  0  0  0  0  0  0  0
   56.9600   30.9530   43.9740 F   0  0  0  0  0  0  0  0  0  0  0  0
   58.4410   31.4790   45.7150 C   0  0  0  0  0  0  0  0  0  0  0  0
   58.0640   27.9000   46.5970 C   0  0  0  0  0  0  0  0  0  0  0  0
   57.7580   26.6730   46.1710 N   0  0  0  0  0  0  0  0  0  0  0  0
   52.5340   25.3930   44.7940 H   0  0  0  0  0  0  0  0  0  0  0  0
   53.6410   25.9380   46.3960 H   0  0  0  0  0  0  0  0  0  0  0  0
   56.5577   23.3773   45.5203 H   0  0  0  0  0  0  0  0  0  0  0  0
   57.8408   24.4519   43.7717 H   0  0  0  0  0  0  0  0  0  0  0  0
   58.2733   27.0662   42.9248 H   0  0  0  0  0  0  0  0  0  0  0  0
   58.8438   29.3567   43.6777 H   0  0  0  0  0  0  0  0  0  0  0  0
   57.8961   35.2545   45.0302 H   0  0  0  0  0  0  0  0  0  0  0  0
   56.7173   33.5223   43.6798 H   0  0  0  0  0  0  0  0  0  0  0  0
   57.9976   28.1136   47.6740 H   0  0  0  0  0  0  0  0  0  0  0  0
  1  2  1  0
  2  3  2  0
  3  4  1  0
  3  5  1  0
  5  6  2  0
  6  7  1  0
  7  8  2  0
  8  9  1  0
  9 10  2  0
 10 11  1  0
 11 12  2  0
 12 13  1  0
 13 14  1  0
 14 15  2  0
 15 16  1  0
 15 17  1  0
 17 18  2  0
 18 19  1  0
 19 20  1  0
 19 21  2  0
 10 22  1  0
 22 23  2  0
 23  7  1  0
 21 11  1  0
 21 14  1  0
  1 24  1  0
  4 25  1  0
  5 26  1  0
  6 27  1  0
  8 28  1  0
  9 29  1  0
 17 30  1  0
 18 31  1  0
 22 32  1  0
M  END
>  <smiles>  (43) 
ON=C(O)C=Cc1ccc(-c2noc3c(Cl)ccc(F)c23)cn1

>  <score_type>  (43) 
oracle

>  <origin>  (43) 
adg

>  <m_score__min__energy>  (43) 
-8.6300000000000008

>  <m_primary>  (43) 
energy

$$$$
43:0
     RDKit          3D

 41 43  0  0  0  0  0  0  0  0999 V2000
   58.9460   28.2110   44.2310 C   0  0  0  0  0  0  0  0  0  0  0  0
   58.0560   29.4010   44.3670 C   0  0  0  0  0  0  0  0  0  0  0  0
   56.7030   29.4490   44.1060 C   0  0  0  0  0  0  0  0  0  0  0  0
   56.2780   30.6530   44.4170 O   0  0  0  0  0  0  0  0  0  0  0  0
   57.3150   31.3290   44.8620 C   0  0  0  0  0  0  0  0  0  0  0  0
   57.2520   32.7520   45.3240 C   0  0  0  0  0  0  0  0  0  0  0  0
   58.4480   33.0800   46.1270 N   0  0  0  0  0  0  0  0  0  0  0  0
   59.0910   34.3210   45.6300 C   0  0  0  0  0  0  0  0  0  0  0  0
   60.4370   34.6300   46.3170 C   0  0  0  0  0  0  0  0  0  0  0  0
   61.2400   33.3680   46.6900 C   0  0  0  0  0  0  0  0  0  0  0  0
   60.5330   32.5070   47.6590 N   0  0  0  0  0  0  0  0  0  0  0  0
   60.7520   31.0800   47.6340 C   0  0  0  0  0  0  0  0  0  0  0  0
   60.7460   30.4710   46.5300 O   0  0  0  0  0  0  0  0  0  0  0  0
   61.0010   30.3090   48.8690 C   0  0  0  0  0  0  0  0  0  0  0  0
   61.8560   30.7600   49.8890 C   0  0  0  0  0  0  0  0  0  0  0  0
   61.9700   29.8750   50.9520 C   0  0  0  0  0  0  0  0  0  0  0  0
   61.0220   28.5310   50.6160 S   0  0  0  0  0  0  0  0  0  0  0  0
   60.4530   29.0540   49.1250 C   0  0  0  0  0  0  0  0  0  0  0  0
   59.4000   33.0380   48.4360 C   0  0  0  0  0  0  0  0  0  0  0  0
   58.1260   33.1590   47.5710 C   0  0  0  0  0  0  0  0  0  0  0  0
   58.4410   30.5900   44.8610 N   0  0  0  0  0  0  0  0  0  0  0  0
   59.2213   27.8429   45.2304 H   0  0  0  0  0  0  0  0  0  0  0  0
   58.4171   27.4185   43.6812 H   0  0  0  0  0  0  0  0  0  0  0  0
   59.8556   28.4944   43.6812 H   0  0  0  0  0  0  0  0  0  0  0  0
   56.0894   28.6270   43.7087 H   0  0  0  0  0  0  0  0  0  0  0  0
   57.2082   33.4168   44.4487 H   0  0  0  0  0  0  0  0  0  0  0  0
   56.3540   32.8891   45.9443 H   0  0  0  0  0  0  0  0  0  0  0  0
   59.2673   34.2139   44.5495 H   0  0  0  0  0  0  0  0  0  0  0  0
   58.4102   35.1541   45.8592 H   0  0  0  0  0  0  0  0  0  0  0  0
   61.0451   35.2403   45.6331 H   0  0  0  0  0  0  0  0  0  0  0  0
   60.2085   35.1575   47.2548 H   0  0  0  0  0  0  0  0  0  0  0  0
   61.4275   32.7872   45.7748 H   0  0  0  0  0  0  0  0  0  0  0  0
   62.1770   33.6985   47.1619 H   0  0  0  0  0  0  0  0  0  0  0  0
   62.3850   31.7236   49.8487 H   0  0  0  0  0  0  0  0  0  0  0  0
   62.5761   30.0277   51.8572 H   0  0  0  0  0  0  0  0  0  0  0  0
   59.7672   28.5019   48.4655 H   0  0  0  0  0  0  0  0  0  0  0  0
   59.1965   32.3612   49.2789 H   0  0  0  0  0  0  0  0  0  0  0  0
   59.6691   34.0422   48.7954 H   0  0  0  0  0  0  0  0  0  0  0  0
   57.4376   32.3411   47.8302 H   0  0  0  0  0  0  0  0  0  0  0  0
   57.6614   34.1358   47.7708 H   0  0  0  0  0  0  0  0  0  0  0  0
   59.3960   30.8750   45.1750 H   0  0  0  0  0  0  0  0  0  0  0  0
  1  2  1  0
  2  3  2  0
  3  4  1  0
  4  5  1  0
  5  6  1  0
  6  7  1  0
  7  8  1  0
  8  9  1  0
  9 10  1  0
 10 11  1  0
 11 12  1  0
 12 13  2  0
 12 14  1  0
 14 15  1  0
 15 16  2  0
 16 17  1  0
 17 18  1  0
 11 19  1  0
 19 20  1  0
  5 21  2  0
 21  2  1  0
 20  7  1  0
 18 14  2  0
  1 22  1  0
  1 23  1  0
  1 24  1  0
  3 25  1  0
  6 26  1  0
  6 27  1  0
  8 28  1  0
  8 29  1  0
  9 30  1  0
  9 31  1  0
 10 32  1  0
 10 33  1  0
 15 34  1  0
 16 35  1  0
 18 36  1  0
 19 37  1  0
 19 38  1  0
 20 39  1  0
 20 40  1  0
 21 41  1  0
M  CHG  1  21   1
M  END
>  <UniqueID>  (44) 
39

>  <SMILES>  (44) 
Cc1coc(CN2CCCN(C(=O)c3ccsc3)CC2)[nH+]1

>  <Energy>  (44) 
108.13036342108458

>  <Genealogy>  (44) 
Cc1coc(CN2CCCN(C(=O)c3ccsc3)CC2)[nH+]1 (protonated)
Cc1coc(CN2CCCN(C(=O)c3ccsc3)CC2)[nH+]1 (3D coordinates assigned)
Cc1coc(CN2CCCN(C(=O)c3ccsc3)CC2)[nH+]1 (nonaromatic ring conformer: 108.13036342108458 kcal/mol)

>  <smiles>  (44) 
Cc1coc(CN2CCCN(C(=O)c3ccsc3)CC2)n1

>  <score_type>  (44) 
oracle

>  <origin>  (44) 
adg

>  <m_score__min__energy>  (44) 
-3.4199999999999999

>  <m_primary>  (44) 
energy

$$$$
44:0
     RDKit          3D

 46 49  0  0  0  0  0  0  0  0999 V2000
   59.4760   35.0820   46.6920 C   0  0  0  0  0  0  0  0  0  0  0  0
   59.4200   34.9590   45.3010 C   0  0  0  0  0  0  0  0  0  0  0  0
   58.6260   33.9680   44.7170 C   0  0  0  0  0  0  0  0  0  0  0  0
   57.8830   33.0900   45.5240 C   0  0  0  0  0  0  0  0  0  0  0  0
   57.0170   32.0350   44.8870 C   0  0  0  0  0  0  0  0  0  0  0  0
   57.5210   30.6880   45.2230 N   0  0  0  0  0  0  0  0  0  0  0  0
   58.8090   30.4120   44.5620 C   0  0  0  0  0  0  0  0  0  0  0  0
   59.4550   29.1460   45.1570 C   0  0  0  0  0  0  0  0  0  0  0  0
   58.4140   28.1260   45.6850 C   0  0  0  0  0  0  0  0  0  0  0  0
   58.1750   28.2950   47.2040 C   0  0  0  0  0  0  0  0  0  0  0  0
   59.3690   28.7000   47.8740 O   0  0  0  0  0  0  0  0  0  0  0  0
   59.4670   29.8640   48.6430 C   0  0  0  0  0  0  0  0  0  0  0  0
   58.6400   30.0920   49.7050 N   0  0  0  0  0  0  0  0  0  0  0  0
   58.7410   31.2320   50.4540 C   0  0  0  0  0  0  0  0  0  0  0  0
   59.6800   32.1760   50.1540 N   0  0  0  0  0  0  0  0  0  0  0  0
   60.5170   31.9720   49.1020 C   0  0  0  0  0  0  0  0  0  0  0  0
   61.5210   32.8480   48.6780 C   0  0  0  0  0  0  0  0  0  0  0  0
   62.2130   32.3640   47.5670 C   0  0  0  0  0  0  0  0  0  0  0  0
   61.5730   30.8590   47.1240 S   0  0  0  0  0  0  0  0  0  0  0  0
   60.4210   30.8250   48.3430 C   0  0  0  0  0  0  0  0  0  0  0  0
   57.1030   28.2270   44.8790 C   0  0  0  0  0  0  0  0  0  0  0  0
   56.5170   29.6570   44.8740 C   0  0  0  0  0  0  0  0  0  0  0  0
   57.9430   33.2210   46.9220 C   0  0  0  0  0  0  0  0  0  0  0  0
   58.7390   34.2140   47.5020 C   0  0  0  0  0  0  0  0  0  0  0  0
   60.1009   35.8630   47.1497 H   0  0  0  0  0  0  0  0  0  0  0  0
   60.0014   35.6428   44.6651 H   0  0  0  0  0  0  0  0  0  0  0  0
   58.5827   33.8751   43.6218 H   0  0  0  0  0  0  0  0  0  0  0  0
   55.9862   32.1396   45.2566 H   0  0  0  0  0  0  0  0  0  0  0  0
   57.0401   32.1640   43.7948 H   0  0  0  0  0  0  0  0  0  0  0  0
   58.6395   30.2613   43.4856 H   0  0  0  0  0  0  0  0  0  0  0  0
   59.4833   31.2664   44.7213 H   0  0  0  0  0  0  0  0  0  0  0  0
   60.0574   28.6595   44.3757 H   0  0  0  0  0  0  0  0  0  0  0  0
   60.0700   29.4615   46.0127 H   0  0  0  0  0  0  0  0  0  0  0  0
   58.8189   27.1135   45.5407 H   0  0  0  0  0  0  0  0  0  0  0  0
   57.3987   29.0581   47.3621 H   0  0  0  0  0  0  0  0  0  0  0  0
   57.8568   27.3259   47.6159 H   0  0  0  0  0  0  0  0  0  0  0  0
   58.0607   31.3891   51.3040 H   0  0  0  0  0  0  0  0  0  0  0  0
   59.7520   33.0440   50.7290 H   0  0  0  0  0  0  0  0  0  0  0  0
   61.7405   33.8096   49.1650 H   0  0  0  0  0  0  0  0  0  0  0  0
   63.0425   32.8781   47.0593 H   0  0  0  0  0  0  0  0  0  0  0  0
   57.3038   27.9249   43.8405 H   0  0  0  0  0  0  0  0  0  0  0  0
   56.3655   27.5665   45.3584 H   0  0  0  0  0  0  0  0  0  0  0  0
   56.1255   29.8732   43.8690 H   0  0  0  0  0  0  0  0  0  0  0  0
   55.7247   29.6937   45.6362 H   0  0  0  0  0  0  0  0  0  0  0  0
   57.3622   32.5405   47.5620 H   0  0  0  0  0  0  0  0  0  0  0  0
   58.7849   34.3118   48.5967 H   0  0  0  0  0  0  0  0  0  0  0  0
  1  2  2  0
  2  3  1  0
  3  4  2  0
  4  5  1  0
  5  6  1  0
  6  7  1  0
  7  8  1  0
  8  9  1  0
  9 10  1  0
 10 11  1  0
 11 12  1  0
 12 13  2  0
 13 14  1  0
 14 15  2  0
 15 16  1  0
 16 17  1  0
 17 18  2  0
 18 19  1  0
 19 20  1  0
  9 21  1  0
 21 22  1  0
  4 23  1  0
 23 24  2  0
 24  1  1  0
 22  6  1  0
 20 12  1  0
 20 16  2  0
  1 25  1  0
  2 26  1  0
  3 27  1  0
  5 28  1  0
  5 29  1  0
  7 30  1  0
  7 31  1  0
  8 32  1  0
  8 33  1  0
  9 34  1  0
 10 35  1  0
 10 36  1  0
 14 37  1  0
 15 38  1  0
 17 39  1  0
 18 40  1  0
 21 41  1  0
 21 42  1  0
 22 43  1  0
 22 44  1  0
 23 45  1  0
 24 46  1  0
M  CHG  1  15   1
M  END
>  <UniqueID>  (45) 
40

>  <SMILES>  (45) 
c1ccc(CN2CCC(COc3nc[nH+]c4ccsc34)CC2)cc1

>  <Energy>  (45) 
85.29480137501994

>  <Genealogy>  (45) 
c1ccc(CN2CCC(COc3nc[nH+]c4ccsc34)CC2)cc1 (protonated)
c1ccc(CN2CCC(COc3nc[nH+]c4ccsc34)CC2)cc1 (3D coordinates assigned)
c1ccc(CN2CCC(COc3nc[nH+]c4ccsc34)CC2)cc1 (nonaromatic ring conformer: 85.29480137501994 kcal/mol)

>  <smiles>  (45) 
c1ccc(CN2CCC(COc3ncnc4ccsc34)CC2)cc1

>  <score_type>  (45) 
oracle

>  <origin>  (45) 
adg

>  <m_score__min__energy>  (45) 
-7.0499999999999998

>  <m_primary>  (45) 
energy

$$$$
45:0
     RDKit          3D

 51 53  0  0  0  0  0  0  0  0999 V2000
   56.6500   28.3830   45.2650 C   0  0  0  0  0  0  0  0  0  0  0  0
   56.0720   29.6560   44.9940 O   0  0  0  0  0  0  0  0  0  0  0  0
   56.6820   30.6530   44.2190 C   0  0  0  0  0  0  0  0  0  0  0  0
   56.7470   30.5840   42.8140 C   0  0  0  0  0  0  0  0  0  0  0  0
   57.3830   31.5930   42.0890 C   0  0  0  0  0  0  0  0  0  0  0  0
   57.9490   32.6850   42.7510 C   0  0  0  0  0  0  0  0  0  0  0  0
   57.8860   32.7710   44.1500 C   0  0  0  0  0  0  0  0  0  0  0  0
   58.4960   33.9450   44.8720 C   0  0  0  0  0  0  0  0  0  0  0  0
   57.9030   34.1210   46.2060 N   0  0  0  0  0  0  0  0  0  0  0  0
   58.9140   34.3820   47.2440 C   0  0  0  0  0  0  0  0  0  0  0  0
   59.9670   33.3060   47.2350 C   0  0  0  0  0  0  0  0  0  0  0  0
   61.3260   33.6540   47.2940 C   0  0  0  0  0  0  0  0  0  0  0  0
   62.3080   32.6620   47.2790 C   0  0  0  0  0  0  0  0  0  0  0  0
   61.9450   31.3150   47.1950 C   0  0  0  0  0  0  0  0  0  0  0  0
   60.5920   30.9510   47.1330 C   0  0  0  0  0  0  0  0  0  0  0  0
   60.2160   29.5590   47.0460 N   0  0  0  0  0  0  0  0  0  0  0  0
   60.0380   28.8060   48.1870 C   0  0  0  0  0  0  0  0  0  0  0  0
   60.1730   29.4050   49.5650 C   0  0  0  0  0  0  0  0  0  0  0  0
   59.7390   27.4400   48.0820 C   0  0  0  0  0  0  0  0  0  0  0  0
   59.5800   26.8480   46.8310 C   0  0  0  0  0  0  0  0  0  0  0  0
   59.2750   25.4790   46.7720 O   0  0  0  0  0  0  0  0  0  0  0  0
   58.4670   24.8780   45.7660 C   0  0  0  0  0  0  0  0  0  0  0  0
   59.7240   27.6380   45.6840 C   0  0  0  0  0  0  0  0  0  0  0  0
   60.0410   28.9920   45.8080 C   0  0  0  0  0  0  0  0  0  0  0  0
   60.1670   29.6830   44.7590 O   0  0  0  0  0  0  0  0  0  0  0  0
   59.6060   31.9510   47.1620 C   0  0  0  0  0  0  0  0  0  0  0  0
   57.2460   31.7540   44.8760 C   0  0  0  0  0  0  0  0  0  0  0  0
   56.7172   28.2349   46.3529 H   0  0  0  0  0  0  0  0  0  0  0  0
   56.0218   27.5941   44.8257 H   0  0  0  0  0  0  0  0  0  0  0  0
   57.6574   28.3367   44.8257 H   0  0  0  0  0  0  0  0  0  0  0  0
   56.2948   29.7316   42.2858 H   0  0  0  0  0  0  0  0  0  0  0  0
   57.4387   31.5280   40.9923 H   0  0  0  0  0  0  0  0  0  0  0  0
   58.4453   33.4794   42.1742 H   0  0  0  0  0  0  0  0  0  0  0  0
   59.5775   33.7759   44.9805 H   0  0  0  0  0  0  0  0  0  0  0  0
   58.3003   34.8534   44.2834 H   0  0  0  0  0  0  0  0  0  0  0  0
   57.2790   34.9600   46.1530 H   0  0  0  0  0  0  0  0  0  0  0  0
   59.3889   35.3552   47.0506 H   0  0  0  0  0  0  0  0  0  0  0  0
   58.4212   34.3900   48.2274 H   0  0  0  0  0  0  0  0  0  0  0  0
   61.6181   34.7129   47.3523 H   0  0  0  0  0  0  0  0  0  0  0  0
   63.3706   32.9413   47.3334 H   0  0  0  0  0  0  0  0  0  0  0  0
   62.7231   30.5377   47.1775 H   0  0  0  0  0  0  0  0  0  0  0  0
   59.9975   28.6265   50.3220 H   0  0  0  0  0  0  0  0  0  0  0  0
   61.1861   29.8152   49.6889 H   0  0  0  0  0  0  0  0  0  0  0  0
   59.4338   30.2101   49.6889 H   0  0  0  0  0  0  0  0  0  0  0  0
   59.6294   26.8325   48.9925 H   0  0  0  0  0  0  0  0  0  0  0  0
   57.6707   24.2857   46.2406 H   0  0  0  0  0  0  0  0  0  0  0  0
   58.0169   25.6626   45.1400 H   0  0  0  0  0  0  0  0  0  0  0  0
   59.0889   24.2213   45.1400 H   0  0  0  0  0  0  0  0  0  0  0  0
   59.5877   27.1928   44.6874 H   0  0  0  0  0  0  0  0  0  0  0  0
   58.5429   31.6705   47.1273 H   0  0  0  0  0  0  0  0  0  0  0  0
   57.1868   31.8225   45.9723 H   0  0  0  0  0  0  0  0  0  0  0  0
  1  2  1  0
  2  3  1  0
  3  4  2  0
  4  5  1  0
  5  6  2  0
  6  7  1  0
  7  8  1  0
  8  9  1  0
  9 10  1  0
 10 11  1  0
 11 12  2  0
 12 13  1  0
 13 14  2  0
 14 15  1  0
 15 16  1  0
 16 17  1  0
 17 18  1  0
 17 19  2  0
 19 20  1  0
 20 21  1  0
 21 22  1  0
 20 23  2  0
 23 24  1  0
 24 25  2  0
 15 26  2  0
  7 27  2  0
 27  3  1  0
 26 11  1  0
 24 16  1  0
  1 28  1  0
  1 29  1  0
  1 30  1  0
  4 31  1  0
  5 32  1  0
  6 33  1  0
  8 34  1  0
  8 35  1  0
  9 36  1  0
 10 37  1  0
 10 38  1  0
 12 39  1  0
 13 40  1  0
 14 41  1  0
 18 42  1  0
 18 43  1  0
 18 44  1  0
 19 45  1  0
 22 46  1  0
 22 47  1  0
 22 48  1  0
 23 49  1  0
 26 50  1  0
 27 51  1  0
M  END
>  <UniqueID>  (46) 
41

>  <SMILES>  (46) 
COc1cccc(CNCc2cccc(-n3c(C)cc(OC)cc3=O)c2)c1

>  <Energy>  (46) 
57.786383386907424

>  <Genealogy>  (46) 
COc1cccc(CNCc2cccc(-n3c(C)cc(OC)cc3=O)c2)c1 (3D coordinates assigned)
COc1cccc(CNCc2cccc(-n3c(C)cc(OC)cc3=O)c2)c1 (optimized conformer: 57.786383386907424 kcal/mol)

>  <smiles>  (46) 
COc1cccc(CNCc2cccc(-n3c(C)cc(OC)cc3=O)c2)c1

>  <score_type>  (46) 
oracle

>  <origin>  (46) 
adg

>  <m_score__min__energy>  (46) 
-8.6300000000000008

>  <m_primary>  (46) 
energy

$$$$
46:0
     RDKit          3D

 65 69  0  0  0  0  0  0  0  0999 V2000
   58.5260   19.7860   47.1090 C   0  0  0  0  0  0  0  0  0  0  0  0
   57.7560   20.9990   46.7940 N   0  0  0  0  0  0  0  0  0  0  0  0
   58.2710   21.6670   45.5700 C   0  0  0  0  0  0  0  0  0  0  0  0
   57.4280   21.3420   44.3240 C   0  0  0  0  0  0  0  0  0  0  0  0
   56.0030   21.7060   44.5070 N   0  0  0  0  0  0  0  0  0  0  0  0
   55.5500   22.8700   43.7110 C   0  0  0  0  0  0  0  0  0  0  0  0
   56.1980   24.1800   44.1140 C   0  0  0  0  0  0  0  0  0  0  0  0
   55.7880   24.8470   45.2800 C   0  0  0  0  0  0  0  0  0  0  0  0
   56.3840   26.0550   45.6540 C   0  0  0  0  0  0  0  0  0  0  0  0
   57.3950   26.6230   44.8620 C   0  0  0  0  0  0  0  0  0  0  0  0
   58.0040   27.8780   45.2120 N   0  0  0  0  0  0  0  0  0  0  0  0
   58.3840   28.2350   46.5500 C   0  0  0  0  0  0  0  0  0  0  0  0
   58.5480   27.3350   47.4190 O   0  0  0  0  0  0  0  0  0  0  0  0
   58.6660   29.6480   46.9030 C   0  0  0  0  0  0  0  0  0  0  0  0
   59.4490   29.9330   48.0280 C   0  0  0  0  0  0  0  0  0  0  0  0
   59.7400   31.2190   48.3990 N   0  0  0  0  0  0  0  0  0  0  0  0
   60.5610   31.4080   49.6150 C   0  0  0  0  0  0  0  0  0  0  0  0
   61.9090   32.0180   49.2940 C   0  0  0  0  0  0  0  0  0  0  0  0
   62.5140   31.7600   48.0500 C   0  0  0  0  0  0  0  0  0  0  0  0
   63.7710   32.2930   47.7500 C   0  0  0  0  0  0  0  0  0  0  0  0
   64.4430   33.0750   48.6910 C   0  0  0  0  0  0  0  0  0  0  0  0
   63.8640   33.3180   49.9370 C   0  0  0  0  0  0  0  0  0  0  0  0
   62.6050   32.7890   50.2450 C   0  0  0  0  0  0  0  0  0  0  0  0
   62.0860   33.0170   51.4760 F   0  0  0  0  0  0  0  0  0  0  0  0
   59.2750   32.2810   47.6460 C   0  0  0  0  0  0  0  0  0  0  0  0
   59.5880   33.6230   47.9690 C   0  0  0  0  0  0  0  0  0  0  0  0
   59.0920   34.6800   47.2040 C   0  0  0  0  0  0  0  0  0  0  0  0
   58.2790   34.4290   46.1040 C   0  0  0  0  0  0  0  0  0  0  0  0
   57.9630   33.1190   45.7520 C   0  0  0  0  0  0  0  0  0  0  0  0
   58.4570   32.0370   46.5090 C   0  0  0  0  0  0  0  0  0  0  0  0
   58.1490   30.7130   46.1500 C   0  0  0  0  0  0  0  0  0  0  0  0
   57.3940   30.4820   45.1640 O   0  0  0  0  0  0  0  0  0  0  0  0
   57.7700   25.9840   43.6730 C   0  0  0  0  0  0  0  0  0  0  0  0
   57.1780   24.7730   43.3010 C   0  0  0  0  0  0  0  0  0  0  0  0
   55.5510   21.7370   45.9150 C   0  0  0  0  0  0  0  0  0  0  0  0
   56.3060   20.6950   46.7460 C   0  0  0  0  0  0  0  0  0  0  0  0
   58.5989   19.6711   48.2006 H   0  0  0  0  0  0  0  0  0  0  0  0
   58.0192   18.9085   46.6810 H   0  0  0  0  0  0  0  0  0  0  0  0
   59.5357   19.8712   46.6810 H   0  0  0  0  0  0  0  0  0  0  0  0
   58.2592   22.7552   45.7302 H   0  0  0  0  0  0  0  0  0  0  0  0
   59.2910   21.2964   45.3902 H   0  0  0  0  0  0  0  0  0  0  0  0
   57.8303   21.9022   43.4671 H   0  0  0  0  0  0  0  0  0  0  0  0
   57.4819   20.2570   44.1510 H   0  0  0  0  0  0  0  0  0  0  0  0
   55.7845   22.6786   42.6535 H   0  0  0  0  0  0  0  0  0  0  0  0
   54.4704   22.9792   43.8914 H   0  0  0  0  0  0  0  0  0  0  0  0
   54.9915   24.4154   45.9040 H   0  0  0  0  0  0  0  0  0  0  0  0
   56.0592   26.5634   46.5738 H   0  0  0  0  0  0  0  0  0  0  0  0
   58.2890   28.5180   44.4380 H   0  0  0  0  0  0  0  0  0  0  0  0
   59.8415   29.1009   48.6309 H   0  0  0  0  0  0  0  0  0  0  0  0
   60.0245   32.0739   50.3069 H   0  0  0  0  0  0  0  0  0  0  0  0
   60.7318   30.4208   50.0691 H   0  0  0  0  0  0  0  0  0  0  0  0
   61.9945   31.1349   47.3088 H   0  0  0  0  0  0  0  0  0  0  0  0
   64.2314   32.0958   46.7706 H   0  0  0  0  0  0  0  0  0  0  0  0
   65.4288   33.4996   48.4503 H   0  0  0  0  0  0  0  0  0  0  0  0
   64.3989   33.9276   50.6802 H   0  0  0  0  0  0  0  0  0  0  0  0
   60.2314   33.8361   48.8354 H   0  0  0  0  0  0  0  0  0  0  0  0
   59.3454   35.7162   47.4725 H   0  0  0  0  0  0  0  0  0  0  0  0
   57.8846   35.2670   45.5106 H   0  0  0  0  0  0  0  0  0  0  0  0
   57.3238   32.9273   44.8776 H   0  0  0  0  0  0  0  0  0  0  0  0
   58.5359   26.4383   43.0272 H   0  0  0  0  0  0  0  0  0  0  0  0
   57.4819   24.2813   42.3651 H   0  0  0  0  0  0  0  0  0  0  0  0
   55.7379   22.7372   46.3329 H   0  0  0  0  0  0  0  0  0  0  0  0
   54.4760   21.5060   45.9478 H   0  0  0  0  0  0  0  0  0  0  0  0
   55.9052   20.6935   47.7704 H   0  0  0  0  0  0  0  0  0  0  0  0
   56.1711   19.7094   46.2765 H   0  0  0  0  0  0  0  0  0  0  0  0
  1  2  1  0
  2  3  1  0
  3  4  1  0
  4  5  1  0
  5  6  1  0
  6  7  1  0
  7  8  2  0
  8  9  1  0
  9 10  2  0
 10 11  1  0
 11 12  1  0
 12 13  2  0
 12 14  1  0
 14 15  2  0
 15 16  1  0
 16 17  1  0
 17 18  1  0
 18 19  2  0
 19 20  1  0
 20 21  2  0
 21 22  1  0
 22 23  2  0
 23 24  1  0
 16 25  1  0
 25 26  2  0
 26 27  1  0
 27 28  2  0
 28 29  1  0
 29 30  2  0
 30 31  1  0
 31 32  2  0
 10 33  1  0
 33 34  2  0
  5 35  1  0
 35 36  1  0
 36  2  1  0
 34  7  1  0
 31 14  1  0
 23 18  1  0
 30 25  1  0
  1 37  1  0
  1 38  1  0
  1 39  1  0
  3 40  1  0
  3 41  1  0
  4 42  1  0
  4 43  1  0
  6 44  1  0
  6 45  1  0
  8 46  1  0
  9 47  1  0
 11 48  1  0
 15 49  1  0
 17 50  1  0
 17 51  1  0
 19 52  1  0
 20 53  1  0
 21 54  1  0
 22 55  1  0
 26 56  1  0
 27 57  1  0
 28 58  1  0
 29 59  1  0
 33 60  1  0
 34 61  1  0
 35 62  1  0
 35 63  1  0
 36 64  1  0
 36 65  1  0
M  END
>  <UniqueID>  (47) 
42

>  <SMILES>  (47) 
CN1CCN(Cc2ccc(NC(=O)c3cn(Cc4ccccc4F)c4ccccc4c3=O)cc2)CC1

>  <Energy>  (47) 
102.98512567441104

>  <Genealogy>  (47) 
CN1CCN(Cc2ccc(NC(=O)c3cn(Cc4ccccc4F)c4ccccc4c3=O)cc2)CC1 (3D coordinates assigned)
CN1CCN(Cc2ccc(NC(=O)c3cn(Cc4ccccc4F)c4ccccc4c3=O)cc2)CC1 (nonaromatic ring conformer: 102.98512567441104 kcal/mol)

>  <smiles>  (47) 
CN1CCN(Cc2ccc(NC(=O)c3cn(Cc4ccccc4F)c4ccccc4c3=O)cc2)CC1

>  <score_type>  (47) 
oracle

>  <origin>  (47) 
adg

>  <m_score__min__energy>  (47) 
-10.17

>  <m_primary>  (47) 
energy

$$$$
47:0
     RDKit          3D

 53 58  0  0  1  0  0  0  0  0999 V2000
   55.5310   29.9110   44.3880 N   0  0  0  0  0  0  0  0  0  0  0  0
   56.6570   30.3290   44.8630 C   0  0  0  0  0  0  0  0  0  0  0  0
   57.1010   31.5550   44.5370 N   0  0  0  0  0  0  0  0  0  0  0  0
   58.2750   31.9370   45.0580 C   0  0  0  0  0  0  0  0  0  0  0  0
   58.7920   33.0710   44.8160 N   0  0  0  0  0  0  0  0  0  0  0  0
   58.5550   34.2320   45.6060 C   0  0  0  0  0  0  0  0  0  0  0  0
   59.7820   34.8630   46.2130 C   0  0  0  0  0  0  0  0  0  0  0  0
   60.3060   34.1500   47.3490 N   0  0  0  0  0  0  0  0  0  0  0  0
   59.4600   33.9290   48.3790 C   0  0  0  0  0  0  0  0  0  0  0  0
   59.9870   33.2550   49.4570 C   0  0  0  0  0  0  0  0  0  0  0  0
   59.0970   33.0030   50.5830 C   0  0  0  0  0  0  0  0  0  0  0  0
   59.0480   33.8220   51.6970 C   0  0  0  0  0  0  0  0  0  0  0  0
   58.1610   33.4790   52.7040 C   0  0  0  0  0  0  0  0  0  0  0  0
   57.3420   32.3710   52.6330 C   0  0  0  0  0  0  0  0  0  0  0  0
   57.3910   31.5500   51.5170 C   0  0  0  0  0  0  0  0  0  0  0  0
   58.2770   31.9020   50.5230 C   0  0  0  0  0  0  0  0  0  0  0  0
   61.2860   32.8230   49.5140 C   0  0  0  0  0  0  0  0  0  0  0  0
   61.6510   32.2200   50.5490 O   0  0  0  0  0  0  0  0  0  0  0  0
   62.1690   33.0560   48.4320 C   0  0  0  0  0  0  0  0  0  0  0  0
   63.4520   32.6920   48.3420 C   0  0  0  0  0  0  0  0  0  0  0  0
   64.1010   32.0530   49.2630 O   0  0  0  0  0  0  0  0  0  0  0  0
   64.1250   33.0060   47.2180 N   0  0  0  0  0  0  0  0  0  0  0  0
   62.8910   33.8870   46.1720 S   0  0  0  0  0  0  0  0  0  0  0  0
   61.6000   33.7290   47.3830 C   0  0  0  0  0  0  0  0  0  0  0  0
   58.9940   31.0850   45.9040 C   0  0  0  0  0  0  0  0  0  0  0  0
   60.1750   31.2220   46.5490 N   0  0  0  0  0  0  0  0  0  0  0  0
   60.4310   30.1000   47.2460 C   0  0  0  0  0  0  0  0  0  0  0  0
   59.3970   29.2700   47.0250 N   0  0  0  0  0  0  0  0  0  0  0  0
   59.2730   27.9320   47.5980 C   0  0  0  0  0  0  0  0  0  0  0  0
   60.2850   26.9510   47.0280 C   0  0  0  0  0  0  0  0  0  0  0  0
   58.8620   26.8510   46.6270 C   0  0  0  0  0  0  0  0  0  0  0  0
   58.4940   29.8380   46.2070 C   0  0  0  0  0  0  0  0  0  0  0  0
   57.3220   29.4850   45.6720 N   0  0  0  0  0  0  0  0  0  0  0  0
   54.6700   30.4970   44.5090 H   0  0  0  0  0  0  0  0  0  0  0  0
   56.5860   32.2110   43.9130 H   0  0  0  0  0  0  0  0  0  0  0  0
   58.0678   34.9834   44.9672 H   0  0  0  0  0  0  0  0  0  0  0  0
   57.9345   33.9013   46.4519 H   0  0  0  0  0  0  0  0  0  0  0  0
   60.5651   34.9084   45.4418 H   0  0  0  0  0  0  0  0  0  0  0  0
   59.4832   35.8588   46.5723 H   0  0  0  0  0  0  0  0  0  0  0  0
   58.4135   34.2673   48.3573 H   0  0  0  0  0  0  0  0  0  0  0  0
   59.6892   34.7119   51.7798 H   0  0  0  0  0  0  0  0  0  0  0  0
   58.1073   34.1171   53.5984 H   0  0  0  0  0  0  0  0  0  0  0  0
   56.6529   32.1399   53.4586 H   0  0  0  0  0  0  0  0  0  0  0  0
   56.7520   30.6589   51.4294 H   0  0  0  0  0  0  0  0  0  0  0  0
   58.3314   31.2642   49.6284 H   0  0  0  0  0  0  0  0  0  0  0  0
   65.1040   32.8470   46.8930 H   0  0  0  0  0  0  0  0  0  0  0  0
   61.3126   29.9011   47.8731 H   0  0  0  0  0  0  0  0  0  0  0  0
   58.9344   28.2471   48.5961 H   0  0  0  0  0  0  0  0  0  0  0  0
   61.0366   27.2968   46.3031 H   0  0  0  0  0  0  0  0  0  0  0  0
   61.0197   26.2557   47.4603 H   0  0  0  0  0  0  0  0  0  0  0  0
   58.5619   27.1203   45.6036 H   0  0  0  0  0  0  0  0  0  0  0  0
   58.1115   26.0469   46.6401 H   0  0  0  0  0  0  0  0  0  0  0  0
   56.9430   28.5280   45.9080 H   0  0  0  0  0  0  0  0  0  0  0  0
  1  2  2  3
  2  3  1  0
  3  4  1  0
  4  5  2  0
  5  6  1  0
  6  7  1  0
  7  8  1  0
  8  9  1  0
  9 10  2  0
 10 11  1  0
 11 12  2  0
 12 13  1  0
 13 14  2  0
 14 15  1  0
 15 16  2  0
 10 17  1  0
 17 18  2  0
 17 19  1  0
 19 20  1  0
 20 21  2  0
 20 22  1  0
 22 23  1  0
 23 24  1  0
  4 25  1  0
 25 26  1  0
 26 27  2  0
 27 28  1  0
 28 29  1  0
 29 30  1  0
 30 31  1  0
 28 32  1  0
 32 33  1  0
 33  2  1  0
 24  8  1  0
 32 25  2  0
 16 11  1  0
 24 19  2  0
 31 29  1  0
  1 34  1  0
  3 35  1  0
  6 36  1  0
  6 37  1  0
  7 38  1  0
  7 39  1  0
  9 40  1  0
 12 41  1  0
 13 42  1  0
 14 43  1  0
 15 44  1  0
 16 45  1  0
 22 46  1  0
 27 47  1  0
 29 48  1  0
 30 49  1  0
 30 50  1  0
 31 51  1  0
 31 52  1  0
 33 53  1  0
M  END
>  <smiles>  (48) 
N=c1[nH]c(=NCCn2cc(-c3ccccc3)c(=O)c3c(=O)[nH]sc32)c2ncn(C3CC3)c2[nH]1

>  <score_type>  (48) 
oracle

>  <origin>  (48) 
adg

>  <m_score__min__energy>  (48) 
-9.5299999999999994

>  <m_primary>  (48) 
energy

$$$$
48:0
     RDKit          2D

 38 40  0  0  0  0  0  0  0  0999 V2000
    6.5260    1.2990    0.0000 C   0  0  0  0  0  0  0  0  0  0  0  0
    5.0260    1.2990    0.0000 C   0  0  0  0  0  0  0  0  0  0  0  0
    3.5260    1.2990    0.0000 O   0  0  0  0  0  0  0  0  0  0  0  0
    2.7760    0.0000    0.0000 C   0  0  0  0  0  0  0  0  0  0  0  0
    3.5260   -1.2990    0.0000 O   0  0  0  0  0  0  0  0  0  0  0  0
    1.2760    0.0000    0.0000 C   0  0  0  0  0  0  0  0  0  0  0  0
    0.3943    1.2135    0.0000 S   0  0  0  0  0  0  0  0  0  0  0  0
   -1.0323    0.7500    0.0000 C   0  0  0  0  0  0  0  0  0  0  0  0
   -1.0323   -0.7500    0.0000 C   0  0  0  0  0  0  0  0  0  0  0  0
    0.3943   -1.2135    0.0000 C   0  0  0  0  0  0  0  0  0  0  0  0
    0.8578   -2.6401    0.0000 N   0  0  0  0  0  0  0  0  0  0  0  0
   -2.2050   -1.6852    0.0000 C   0  0  0  0  0  0  0  0  0  0  0  0
   -1.8713   -3.1476    0.0000 C   0  0  0  0  0  0  0  0  0  0  0  0
   -1.5375   -4.6100    0.0000 C   0  0  0  0  0  0  0  0  0  0  0  0
   -3.6674   -1.3515    0.0000 C   0  0  0  0  0  0  0  0  0  0  0  0
   -4.8402   -0.4162    0.0000 C   0  0  0  0  0  0  0  0  0  0  0  0
   -4.8402    1.0838    0.0000 C   0  0  0  0  0  0  0  0  0  0  0  0
   -3.6674    2.0190    0.0000 C   0  0  0  0  0  0  0  0  0  0  0  0
   -2.2050    1.6852    0.0000 C   0  0  0  0  0  0  0  0  0  0  0  0
   -3.2310    0.8042    0.0000 C   0  0  0  0  0  0  0  0  0  0  0  0
   -3.6183    0.0000    0.0000 C   0  0  0  0  0  0  0  0  0  0  0  0
    8.0260    1.2990    0.0000 H   0  0  0  0  0  0  0  0  0  0  0  0
    6.5260   -0.2010    0.0000 H   0  0  0  0  0  0  0  0  0  0  0  0
    6.5260    2.7990    0.0000 H   0  0  0  0  0  0  0  0  0  0  0  0
    5.0260   -0.2010    0.0000 H   0  0  0  0  0  0  0  0  0  0  0  0
    5.0260    2.7990    0.0000 H   0  0  0  0  0  0  0  0  0  0  0  0
    0.1610   -3.6354    0.0000 H   0  0  0  0  0  0  0  0  0  0  0  0
    2.3250   -2.9520    0.0000 H   0  0  0  0  0  0  0  0  0  0  0  0
   -3.3336   -3.4814    0.0000 H   0  0  0  0  0  0  0  0  0  0  0  0
   -0.4089   -2.8138    0.0000 H   0  0  0  0  0  0  0  0  0  0  0  0
   -1.2037   -6.0724    0.0000 H   0  0  0  0  0  0  0  0  0  0  0  0
   -2.9999   -4.9438    0.0000 H   0  0  0  0  0  0  0  0  0  0  0  0
   -0.3288   -4.4861    0.0000 H   0  0  0  0  0  0  0  0  0  0  0  0
   -6.1916   -1.0670    0.0000 H   0  0  0  0  0  0  0  0  0  0  0  0
   -6.1916    1.7346    0.0000 H   0  0  0  0  0  0  0  0  0  0  0  0
   -4.0012    3.4814    0.0000 H   0  0  0  0  0  0  0  0  0  0  0  0
   -4.6027    2.5242    0.0000 H   0  0  0  0  0  0  0  0  0  0  0  0
   -5.8183    0.0000    0.0000 H   0  0  0  0  0  0  0  0  0  0  0  0
  1  2  1  0
  2  3  1  0
  3  4  1  0
  4  5  2  0
  4  6  1  0
  6  7  1  0
  7  8  1  0
  8  9  2  0
  9 10  1  0
 10 11  1  0
  9 12  1  0
 12 13  1  0
 13 14  1  0
 12 15  2  0
 15 16  1  0
 16 17  2  0
 17 18  1  0
 18 19  2  0
 19 20  1  0
 20 21  2  0
 10  6  2  0
 21 15  1  0
 19  8  1  0
  1 22  1  0
  1 23  1  0
  1 24  1  0
  2 25  1  0
  2 26  1  0
 11 27  1  0
 11 28  1  0
 13 29  1  0
 13 30  1  0
 14 31  1  0
 14 32  1  0
 14 33  1  0
 16 34  1  0
 17 35  1  0
 18 36  1  0
 20 37  1  0
 21 38  1  0
M  END
>  <smiles>  (49) 
CCOC(=O)c1sc2c(c1N)C(CC)=C1C=CC=C2C=C1

>  <m_score__min__energy>  (49) 
nan

>  <m_primary>  (49) 
energy

$$$$
