0:0
     RDKit          3D

 37 39  0  0  0  0  0  0  0  0999 V2000
   53.7060   26.6460   46.3840 H   0  0  0  0  0  0  0  0  0  0  0  0
   54.2130   25.9660   45.7770 N   0  0  0  0  0  0  0  0  0  0  0  0
   55.5390   25.5490   46.0950 C   0  0  0  0  0  0  0  0  0  0  0  0
   55.7190   24.4490   46.6820 O   0  0  0  0  0  0  0  0  0  0  0  0
   56.6850   26.3680   45.6650 C   0  0  0  0  0  0  0  0  0  0  0  0
   56.6620   27.7470   45.5840 C   0  0  0  0  0  0  0  0  0  0  0  0
   55.8755   28.4003   45.9897 H   0  0  0  0  0  0  0  0  0  0  0  0
   57.7640   28.1590   44.9250 N   0  0  0  0  0  0  0  0  0  0  0  0
   58.1010   29.5490   44.6020 C   0  0  1  0  0  0  0  0  0  0  0  0
   58.9343   29.5416   43.8840 H   0  0  0  0  0  0  0  0  0  0  0  0
   56.8900   30.2650   43.9400 C   0  0  0  0  0  0  0  0  0  0  0  0
   55.9969   29.6364   44.0715 H   0  0  0  0  0  0  0  0  0  0  0  0
   57.1366   30.4130   42.8783 H   0  0  0  0  0  0  0  0  0  0  0  0
   56.6280   31.5440   44.4960 O   0  0  0  0  0  0  0  0  0  0  0  0
   57.8070   32.3240   44.4960 C   0  0  0  0  0  0  0  0  0  0  0  0
   57.5504   33.3628   44.7509 H   0  0  0  0  0  0  0  0  0  0  0  0
   58.2601   32.2720   43.4950 H   0  0  0  0  0  0  0  0  0  0  0  0
   58.8250   31.7910   45.5220 C   0  0  0  0  0  0  0  0  0  0  0  0
   58.7492   32.3869   46.4435 H   0  0  0  0  0  0  0  0  0  0  0  0
   59.8311   31.8727   45.0848 H   0  0  0  0  0  0  0  0  0  0  0  0
   58.5630   30.3100   45.8600 C   0  0  2  0  0  0  0  0  0  0  0  0
   57.7597   30.2510   46.6091 H   0  0  0  0  0  0  0  0  0  0  0  0
   59.7720   29.6970   46.4360 C   0  0  0  0  0  0  0  0  0  0  0  0
   60.7220   29.2150   46.8890 N   0  0  0  0  0  0  0  0  0  0  0  0
   58.5050   27.1150   44.5840 N   0  0  0  0  0  0  0  0  0  0  0  0
   57.8830   26.0100   45.0370 C   0  0  0  0  0  0  0  0  0  0  0  0
   58.4110   24.8270   44.8990 N   0  0  0  0  0  0  0  0  0  0  0  0
   57.8030   23.6530   44.3460 C   0  0  0  0  0  0  0  0  0  0  0  0
   56.6780   23.7780   43.5250 C   0  0  0  0  0  0  0  0  0  0  0  0
   56.2348   24.7693   43.3492 H   0  0  0  0  0  0  0  0  0  0  0  0
   56.1300   22.6770   42.9430 N   0  0  0  0  0  0  0  0  0  0  0  0
   56.6610   21.4370   43.1180 C   0  0  0  0  0  0  0  0  0  0  0  0
   56.1878   20.5642   42.6444 H   0  0  0  0  0  0  0  0  0  0  0  0
   57.8070   21.2720   43.8990 C   0  0  0  0  0  0  0  0  0  0  0  0
   58.2464   20.2730   44.0366 H   0  0  0  0  0  0  0  0  0  0  0  0
   58.3890   22.3870   44.5030 C   0  0  0  0  0  0  0  0  0  0  0  0
   59.3053   22.2743   45.1011 H   0  0  0  0  0  0  0  0  0  0  0  0
  1  2  1  0
  2  3  1  0
  3  4  2  0
  3  5  1  0
  5  6  2  0
  6  7  1  0
  6  8  1  0
  8  9  1  0
  9 10  1  6
  9 11  1  0
 11 12  1  0
 11 13  1  0
 11 14  1  0
 14 15  1  0
 15 16  1  0
 15 17  1  0
 15 18  1  0
 18 19  1  0
 18 20  1  0
 18 21  1  0
 21 22  1  1
 21 23  1  0
 23 24  3  0
  8 25  1  0
 25 26  1  0
 26 27  2  0
 27 28  1  0
 28 29  2  0
 29 30  1  0
 29 31  1  0
 31 32  2  0
 32 33  1  0
 32 34  1  0
 34 35  1  0
 34 36  2  0
 36 37  1  0
 26  5  1  0
 36 28  1  0
 21  9  1  0
M  CHG  2   2  -1  25  -1
M  END
>  <UniqueID>  (1) 
1

>  <SMILES>  (1) 
N#C[C@H]1CCOC[C@@H]1n1cc(C([NH-])=O)/c(=N\c2cccnc2)[n-]1

>  <Energy>  (1) 
89.79040664404025

>  <Genealogy>  (1) 
N#CC1CCOCC1n1cc(C([NH-])=O)c(=Nc2cccnc2)[n-]1 (protonated)
N#C[C@H]1CCOC[C@@H]1n1cc(C([NH-])=O)c(=Nc2cccnc2)[n-]1 (chirality)
N#C[C@H]1CCOC[C@@H]1n1cc(C([NH-])=O)/c(=N\c2cccnc2)[n-]1 (cis-trans isomerization)
N#C[C@H]1CCOC[C@@H]1n1cc(C([NH-])=O)/c(=N\c2cccnc2)[n-]1 (3D coordinates assigned)
N#C[C@H]1CCOC[C@@H]1n1cc(C([NH-])=O)/c(=N\c2cccnc2)[n-]1 (nonaromatic ring conformer: 89.79040664404025 kcal/mol)

>  <smiles>  (1) 
N#CC1CCOCC1n1cc(C(N)=O)c(=Nc2cccnc2)[nH]1

>  <score_type>  (1) 
oracle

>  <origin>  (1) 
adg

>  <m_score__min__energy>  (1) 
-11.300000000000001

>  <m_primary>  (1) 
energy

$$$$
1:0
     RDKit          3D

 28 29  0  0  0  0  0  0  0  0999 V2000
   59.5770   29.9650   47.4130 C   0  0  0  0  0  0  0  0  0  0  0  0
   59.8630   30.7910   46.2890 O   0  0  0  0  0  0  0  0  0  0  0  0
   59.6540   32.1800   46.2460 C   0  0  0  0  0  0  0  0  0  0  0  0
   60.4160   33.0680   47.0320 C   0  0  0  0  0  0  0  0  0  0  0  0
   60.1660   34.4410   46.9950 C   0  0  0  0  0  0  0  0  0  0  0  0
   59.1560   34.9470   46.1770 C   0  0  0  0  0  0  0  0  0  0  0  0
   58.3960   34.0820   45.3890 C   0  0  0  0  0  0  0  0  0  0  0  0
   58.6400   32.6970   45.4070 C   0  0  0  0  0  0  0  0  0  0  0  0
   57.8260   31.8030   44.5470 C   0  0  0  0  0  0  0  0  0  0  0  0
   57.7810   32.0070   43.1580 C   0  0  0  0  0  0  0  0  0  0  0  0
   57.0190   31.1630   42.3440 C   0  0  0  0  0  0  0  0  0  0  0  0
   56.3020   30.1050   42.9080 C   0  0  0  0  0  0  0  0  0  0  0  0
   56.3440   29.8830   44.2910 C   0  0  0  0  0  0  0  0  0  0  0  0
   55.6150   28.7960   44.8680 N   0  0  0  0  0  0  0  0  0  0  0  0
   57.1090   30.7310   45.1070 C   0  0  0  0  0  0  0  0  0  0  0  0
   59.7712   30.5259   48.3391 H   0  0  0  0  0  0  0  0  0  0  0  0
   58.5207   29.6594   47.3841 H   0  0  0  0  0  0  0  0  0  0  0  0
   60.2181   29.0716   47.3841 H   0  0  0  0  0  0  0  0  0  0  0  0
   61.2140   32.6760   47.6797 H   0  0  0  0  0  0  0  0  0  0  0  0
   60.7668   35.1251   47.6122 H   0  0  0  0  0  0  0  0  0  0  0  0
   58.9584   36.0288   46.1531 H   0  0  0  0  0  0  0  0  0  0  0  0
   57.5990   34.4868   44.7480 H   0  0  0  0  0  0  0  0  0  0  0  0
   58.3482   32.8351   42.7081 H   0  0  0  0  0  0  0  0  0  0  0  0
   56.9841   31.3325   41.2577 H   0  0  0  0  0  0  0  0  0  0  0  0
   55.7026   29.4442   42.2645 H   0  0  0  0  0  0  0  0  0  0  0  0
   55.9120   27.8080   44.7040 H   0  0  0  0  0  0  0  0  0  0  0  0
   54.7750   28.9710   45.4620 H   0  0  0  0  0  0  0  0  0  0  0  0
   57.1478   30.5556   46.1922 H   0  0  0  0  0  0  0  0  0  0  0  0
  1  2  1  0
  2  3  1  0
  3  4  2  0
  4  5  1  0
  5  6  2  0
  6  7  1  0
  7  8  2  0
  8  9  1  0
  9 10  2  0
 10 11  1  0
 11 12  2  0
 12 13  1  0
 13 14  1  0
 13 15  2  0
  8  3  1  0
 15  9  1  0
  1 16  1  0
  1 17  1  0
  1 18  1  0
  4 19  1  0
  5 20  1  0
  6 21  1  0
  7 22  1  0
 10 23  1  0
 11 24  1  0
 12 25  1  0
 14 26  1  0
 14 27  1  0
 15 28  1  0
M  END
>  <UniqueID>  (2) 
2

>  <SMILES>  (2) 
COc1ccccc1-c1cccc(N)c1

>  <Energy>  (2) 
33.44752755299482

>  <Genealogy>  (2) 
COc1ccccc1-c1cccc(N)c1 (3D coordinates assigned)
COc1ccccc1-c1cccc(N)c1 (optimized conformer: 33.44752755299482 kcal/mol)

>  <smiles>  (2) 
COc1ccccc1-c1cccc(N)c1

>  <score_type>  (2) 
oracle

>  <origin>  (2) 
adg

>  <m_score__min__energy>  (2) 
-6.71

>  <m_primary>  (2) 
energy

$$$$
2:0
     RDKit          3D

 38 40  0  0  1  0  0  0  0  0999 V2000
   58.0860   22.5150   45.6130 C   0  0  0  0  0  0  0  0  0  0  0  0
   58.1390   23.6680   46.3910 O   0  0  0  0  0  0  0  0  0  0  0  0
   58.2740   24.9650   45.9350 C   0  0  0  0  0  0  0  0  0  0  0  0
   57.8010   25.2420   44.6710 C   0  0  0  0  0  0  0  0  0  0  0  0
   57.8660   26.4860   44.0810 C   0  0  0  0  0  0  0  0  0  0  0  0
   58.4430   27.4950   44.8190 C   0  0  0  0  0  0  0  0  0  0  0  0
   58.6330   28.8530   44.3270 C   0  0  0  0  0  0  0  0  0  0  0  0
   57.7300   29.7720   44.7090 C   0  0  0  0  0  0  0  0  0  0  0  0
   56.3320   29.5940   44.5930 C   0  0  0  0  0  0  0  0  0  0  0  0
   55.1500   29.4420   44.4920 N   0  0  0  0  0  0  0  0  0  0  0  0
   58.2970   31.0250   45.2500 C   0  0  0  0  0  0  0  0  0  0  0  0
   58.0850   32.2590   44.7670 N   0  0  0  0  0  0  0  0  0  0  0  0
   58.7240   33.1750   45.5010 C   0  0  0  0  0  0  0  0  0  0  0  0
   58.8170   34.5520   45.4250 C   0  0  0  0  0  0  0  0  0  0  0  0
   59.5740   35.2420   46.3690 C   0  0  0  0  0  0  0  0  0  0  0  0
   60.2430   34.5720   47.3940 C   0  0  0  0  0  0  0  0  0  0  0  0
   60.1030   33.2050   47.4030 C   0  0  0  0  0  0  0  0  0  0  0  0
   59.3780   32.4780   46.5080 C   0  0  0  0  0  0  0  0  0  0  0  0
   59.0960   31.1710   46.3240 N   0  0  0  0  0  0  0  0  0  0  0  0
   58.9290   27.2350   46.1090 C   0  0  0  0  0  0  0  0  0  0  0  0
   59.4980   28.2600   46.8220 O   0  0  0  0  0  0  0  0  0  0  0  0
   59.6130   28.1720   48.2220 C   0  0  0  0  0  0  0  0  0  0  0  0
   58.8510   25.9820   46.6750 C   0  0  0  0  0  0  0  0  0  0  0  0
   58.0454   21.6322   46.2680 H   0  0  0  0  0  0  0  0  0  0  0  0
   57.1881   22.5420   44.9781 H   0  0  0  0  0  0  0  0  0  0  0  0
   58.9825   22.4596   44.9781 H   0  0  0  0  0  0  0  0  0  0  0  0
   57.3442   24.4213   44.0984 H   0  0  0  0  0  0  0  0  0  0  0  0
   57.4753   26.6642   43.0683 H   0  0  0  0  0  0  0  0  0  0  0  0
   59.4775   29.1143   43.6724 H   0  0  0  0  0  0  0  0  0  0  0  0
   58.2970   35.0990   44.6248 H   0  0  0  0  0  0  0  0  0  0  0  0
   59.6459   36.3378   46.3051 H   0  0  0  0  0  0  0  0  0  0  0  0
   60.8438   35.1039   48.1464 H   0  0  0  0  0  0  0  0  0  0  0  0
   60.6201   32.6511   48.2004 H   0  0  0  0  0  0  0  0  0  0  0  0
   59.4590   30.4180   46.9400 H   0  0  0  0  0  0  0  0  0  0  0  0
   58.8237   28.7760   48.6934 H   0  0  0  0  0  0  0  0  0  0  0  0
   59.5068   27.1224   48.5334 H   0  0  0  0  0  0  0  0  0  0  0  0
   60.5984   28.5489   48.5334 H   0  0  0  0  0  0  0  0  0  0  0  0
   59.2369   25.7947   47.6879 H   0  0  0  0  0  0  0  0  0  0  0  0
  1  2  1  0
  2  3  1  0
  3  4  2  0
  4  5  1  0
  5  6  2  0
  6  7  1  0
  7  8  2  0
  8  9  1  0
  9 10  3  0
  8 11  1  0
 11 12  2  0
 12 13  1  0
 13 14  2  0
 14 15  1  0
 15 16  2  0
 16 17  1  0
 17 18  2  0
 18 19  1  0
  6 20  1  0
 20 21  1  0
 21 22  1  0
 20 23  2  0
 23  3  1  0
 19 11  1  0
 18 13  1  0
  1 24  1  0
  1 25  1  0
  1 26  1  0
  4 27  1  0
  5 28  1  0
  7 29  1  0
 14 30  1  0
 15 31  1  0
 16 32  1  0
 17 33  1  0
 19 34  1  0
 22 35  1  0
 22 36  1  0
 22 37  1  0
 23 38  1  0
M  END
>  <smiles>  (3) 
COc1ccc(C=C(C#N)c2nc3ccccc3[nH]2)c(OC)c1

>  <score_type>  (3) 
oracle

>  <origin>  (3) 
adg

>  <m_score__min__energy>  (3) 
-6.9400000000000004

>  <m_primary>  (3) 
energy

$$$$
3:0
     RDKit          3D

 35 37  0  0  0  0  0  0  0  0999 V2000
   54.6420   27.0710   46.6470 H   0  0  0  0  0  0  0  0  0  0  0  0
   55.2640   26.4130   46.1280 N   0  0  0  0  0  0  0  0  0  0  0  0
   56.6590   26.3390   46.4190 C   0  0  0  0  0  0  0  0  0  0  0  0
   57.0920   25.4000   47.1390 O   0  0  0  0  0  0  0  0  0  0  0  0
   57.5820   27.3940   45.9500 C   0  0  0  0  0  0  0  0  0  0  0  0
   58.9450   27.2520   46.2540 C   0  0  0  0  0  0  0  0  0  0  0  0
   59.2961   26.3427   46.7639 H   0  0  0  0  0  0  0  0  0  0  0  0
   59.8580   28.2480   45.9180 C   0  0  0  0  0  0  0  0  0  0  0  0
   60.9220   28.1212   46.1665 H   0  0  0  0  0  0  0  0  0  0  0  0
   59.4320   29.4020   45.2700 C   0  0  0  0  0  0  0  0  0  0  0  0
   60.1591   30.1914   45.0289 H   0  0  0  0  0  0  0  0  0  0  0  0
   58.0770   29.5700   44.9190 C   0  0  0  0  0  0  0  0  0  0  0  0
   57.6340   30.7310   44.2410 C   0  0  0  0  0  0  0  0  0  0  0  0
   58.4870   31.6810   43.9610 N   0  0  0  0  0  0  0  0  0  0  0  0
   58.3220   33.1210   44.1690 C   0  0  0  0  0  0  0  0  0  0  0  0
   58.9675   33.6631   43.4623 H   0  0  0  0  0  0  0  0  0  0  0  0
   57.2662   33.3812   44.0027 H   0  0  0  0  0  0  0  0  0  0  0  0
   58.6970   33.5080   45.5760 C   0  0  0  0  0  0  0  0  0  0  0  0
   59.5330   34.6120   45.8160 C   0  0  0  0  0  0  0  0  0  0  0  0
   59.9127   35.2055   44.9712 H   0  0  0  0  0  0  0  0  0  0  0  0
   59.8840   34.9590   47.1240 C   0  0  0  0  0  0  0  0  0  0  0  0
   60.5336   35.8278   47.3059 H   0  0  0  0  0  0  0  0  0  0  0  0
   59.4110   34.2040   48.2010 C   0  0  0  0  0  0  0  0  0  0  0  0
   59.6856   34.4809   49.2295 H   0  0  0  0  0  0  0  0  0  0  0  0
   58.5890   33.0970   47.9710 C   0  0  0  0  0  0  0  0  0  0  0  0
   58.1360   32.3610   49.0160 F   0  0  0  0  0  0  0  0  0  0  0  0
   58.2360   32.7460   46.6640 C   0  0  0  0  0  0  0  0  0  0  0  0
   57.5949   31.8699   46.4865 H   0  0  0  0  0  0  0  0  0  0  0  0
   56.2780   30.8260   43.8800 C   0  0  0  0  0  0  0  0  0  0  0  0
   55.9088   31.7217   43.3590 H   0  0  0  0  0  0  0  0  0  0  0  0
   55.4040   29.7870   44.1820 C   0  0  0  0  0  0  0  0  0  0  0  0
   54.3475   29.8613   43.8848 H   0  0  0  0  0  0  0  0  0  0  0  0
   55.8400   28.6830   44.8390 N   0  0  0  0  0  0  0  0  0  0  0  0
   55.1430   27.9230   44.9920 H   0  0  0  0  0  0  0  0  0  0  0  0
   57.1400   28.5490   45.2450 C   0  0  0  0  0  0  0  0  0  0  0  0
  1  2  1  0
  2  3  1  0
  3  4  2  0
  3  5  1  0
  5  6  2  0
  6  7  1  0
  6  8  1  0
  8  9  1  0
  8 10  2  0
 10 11  1  0
 10 12  1  0
 12 13  1  0
 13 14  2  0
 14 15  1  0
 15 16  1  0
 15 17  1  0
 15 18  1  0
 18 19  2  0
 19 20  1  0
 19 21  1  0
 21 22  1  0
 21 23  2  0
 23 24  1  0
 23 25  1  0
 25 26  1  0
 25 27  2  0
 27 28  1  0
 13 29  1  0
 29 30  1  0
 29 31  2  0
 31 32  1  0
 31 33  1  0
 33 34  1  0
 33 35  1  0
 35  5  1  0
 35 12  2  0
 27 18  1  0
M  CHG  1   2  -1
M  END
>  <UniqueID>  (4) 
3

>  <SMILES>  (4) 
[NH-]C(=O)c1cccc2/c(=N/Cc3cccc(F)c3)cc[nH]c12

>  <Energy>  (4) 
51.320290248319964

>  <Genealogy>  (4) 
[NH-]C(=O)c1cccc2c(=NCc3cccc(F)c3)cc[nH]c12 (protonated)
[NH-]C(=O)c1cccc2/c(=N/Cc3cccc(F)c3)cc[nH]c12 (cis-trans isomerization)
[NH-]C(=O)c1cccc2/c(=N/Cc3cccc(F)c3)cc[nH]c12 (3D coordinates assigned)
[NH-]C(=O)c1cccc2/c(=N/Cc3cccc(F)c3)cc[nH]c12 (optimized conformer: 51.320290248319964 kcal/mol)

>  <smiles>  (4) 
NC(=O)c1cccc2c(=NCc3cccc(F)c3)cc[nH]c12

>  <score_type>  (4) 
oracle

>  <origin>  (4) 
adg

>  <m_score__min__energy>  (4) 
-12.01

>  <m_primary>  (4) 
energy

$$$$
4:0
     RDKit          3D

 30 31  0  0  0  0  0  0  0  0999 V2000
   54.5555   30.4945   43.7583 H   0  0  0  0  0  0  0  0  0  0  0  0
   55.5140   30.0300   44.0330 C   0  0  0  0  0  0  0  0  0  0  0  0
   55.5360   28.9680   44.8820 N   0  0  0  0  0  0  0  0  0  0  0  0
   56.6930   28.3600   45.2630 C   0  0  0  0  0  0  0  0  0  0  0  0
   56.6100   27.3420   46.0770 N   0  0  0  0  0  0  0  0  0  0  0  0
   56.3300   25.9620   45.7860 C   0  0  0  0  0  0  0  0  0  0  0  0
   55.1880   25.4730   46.0020 O   0  0  0  0  0  0  0  0  0  0  0  0
   57.3570   25.1580   45.1930 N   0  0  0  0  0  0  0  0  0  0  0  0
   58.3400   25.5120   45.2430 H   0  0  0  0  0  0  0  0  0  0  0  0
   57.1420   23.8120   44.7400 C   0  0  0  0  0  0  0  0  0  0  0  0
   56.8370   23.5900   43.3890 C   0  0  0  0  0  0  0  0  0  0  0  0
   56.7700   24.4423   42.6969 H   0  0  0  0  0  0  0  0  0  0  0  0
   56.6180   22.2950   42.9170 C   0  0  0  0  0  0  0  0  0  0  0  0
   56.3892   22.1290   41.8539 H   0  0  0  0  0  0  0  0  0  0  0  0
   56.6890   21.2110   43.7920 C   0  0  0  0  0  0  0  0  0  0  0  0
   56.5287   20.1901   43.4151 H   0  0  0  0  0  0  0  0  0  0  0  0
   56.9630   21.4190   45.1450 C   0  0  0  0  0  0  0  0  0  0  0  0
   57.0123   20.5605   45.8309 H   0  0  0  0  0  0  0  0  0  0  0  0
   57.1770   22.7230   45.6380 C   0  0  0  0  0  0  0  0  0  0  0  0
   57.4000   22.9700   47.0020 O   0  0  0  0  0  0  0  0  0  0  0  0
   56.3780   23.2530   47.9500 C   0  0  0  0  0  0  0  0  0  0  0  0
   56.7807   23.1415   48.9676 H   0  0  0  0  0  0  0  0  0  0  0  0
   56.0212   24.2838   47.8078 H   0  0  0  0  0  0  0  0  0  0  0  0
   55.5418   22.5526   47.8078 H   0  0  0  0  0  0  0  0  0  0  0  0
   57.9140   28.8320   44.7350 C   0  0  0  0  0  0  0  0  0  0  0  0
   58.8613   28.3440   45.0078 H   0  0  0  0  0  0  0  0  0  0  0  0
   57.9100   29.9240   43.8630 C   0  0  0  0  0  0  0  0  0  0  0  0
   58.8575   30.3053   43.4545 H   0  0  0  0  0  0  0  0  0  0  0  0
   56.7050   30.5300   43.5110 C   0  0  0  0  0  0  0  0  0  0  0  0
   56.6946   31.3930   42.8290 H   0  0  0  0  0  0  0  0  0  0  0  0
  1  2  1  0
  2  3  1  0
  3  4  1  0
  4  5  2  0
  5  6  1  0
  6  7  2  0
  6  8  1  0
  8  9  1  0
  8 10  1  0
 10 11  2  0
 11 12  1  0
 11 13  1  0
 13 14  1  0
 13 15  2  0
 15 16  1  0
 15 17  1  0
 17 18  1  0
 17 19  2  0
 19 20  1  0
 20 21  1  0
 21 22  1  0
 21 23  1  0
 21 24  1  0
  4 25  1  0
 25 26  1  0
 25 27  2  0
 27 28  1  0
 27 29  1  0
 29 30  1  0
 29  2  2  0
 19 10  1  0
M  CHG  1   3  -1
M  END
>  <UniqueID>  (5) 
4

>  <SMILES>  (5) 
COc1ccccc1NC(=O)/N=c1\cccc[n-]1

>  <Energy>  (5) 
43.074142350104786

>  <Genealogy>  (5) 
COc1ccccc1NC(=O)N=c1cccc[n-]1 (protonated)
COc1ccccc1NC(=O)/N=c1\cccc[n-]1 (cis-trans isomerization)
COc1ccccc1NC(=O)/N=c1\cccc[n-]1 (3D coordinates assigned)
COc1ccccc1NC(=O)/N=c1\cccc[n-]1 (optimized conformer: 43.074142350104786 kcal/mol)

>  <smiles>  (5) 
COc1ccccc1NC(=O)N=c1cccc[nH]1

>  <score_type>  (5) 
oracle

>  <origin>  (5) 
adg

>  <m_score__min__energy>  (5) 
-8.2899999999999991

>  <m_primary>  (5) 
energy

$$$$
5:0
     RDKit          3D

 39 40  0  0  0  0  0  0  0  0999 V2000
   61.3560   28.6800   44.5230 C   0  0  0  0  0  0  0  0  0  0  0  0
   60.4130   28.9790   45.5180 O   0  0  0  0  0  0  0  0  0  0  0  0
   59.2750   28.2130   45.6480 C   0  0  0  0  0  0  0  0  0  0  0  0
   59.2460   26.9110   46.0720 C   0  0  0  0  0  0  0  0  0  0  0  0
   58.0730   26.1640   46.1910 C   0  0  0  0  0  0  0  0  0  0  0  0
   58.2100   24.7910   46.6750 C   0  0  0  0  0  0  0  0  0  0  0  0
   57.8990   23.7480   45.6870 C   0  0  0  0  0  0  0  0  0  0  0  0
   56.5960   23.7140   45.1850 C   0  0  0  0  0  0  0  0  0  0  0  0
   56.2110   22.7660   44.2890 N   0  0  0  0  0  0  0  0  0  0  0  0
   57.0970   21.8180   43.8580 C   0  0  0  0  0  0  0  0  0  0  0  0
   56.6540   20.9540   43.0090 N   0  0  0  0  0  0  0  0  0  0  0  0
   58.3530   21.8350   44.3270 N   0  0  0  0  0  0  0  0  0  0  0  0
   58.7520   22.7840   45.2270 C   0  0  0  0  0  0  0  0  0  0  0  0
   59.9700   22.7340   45.5870 N   0  0  0  0  0  0  0  0  0  0  0  0
   56.9120   26.8050   45.8580 C   0  0  0  0  0  0  0  0  0  0  0  0
   56.8680   28.1270   45.4210 C   0  0  0  0  0  0  0  0  0  0  0  0
   55.6560   28.7470   45.0890 O   0  0  0  0  0  0  0  0  0  0  0  0
   55.5790   29.6700   44.0190 C   0  0  0  0  0  0  0  0  0  0  0  0
   58.0560   28.8240   45.3190 C   0  0  0  0  0  0  0  0  0  0  0  0
   58.0420   30.1620   44.8800 O   0  0  0  0  0  0  0  0  0  0  0  0
   58.4440   31.2160   45.7720 C   0  0  0  0  0  0  0  0  0  0  0  0
   62.3035   28.3796   44.9942 H   0  0  0  0  0  0  0  0  0  0  0  0
   60.9804   27.8569   43.8974 H   0  0  0  0  0  0  0  0  0  0  0  0
   61.5234   29.5691   43.8974 H   0  0  0  0  0  0  0  0  0  0  0  0
   60.1991   26.4277   46.3330 H   0  0  0  0  0  0  0  0  0  0  0  0
   59.2494   24.6483   47.0056 H   0  0  0  0  0  0  0  0  0  0  0  0
   57.4735   24.6763   47.4840 H   0  0  0  0  0  0  0  0  0  0  0  0
   55.8682   24.4675   45.5204 H   0  0  0  0  0  0  0  0  0  0  0  0
   55.2250   22.7660   43.9300 H   0  0  0  0  0  0  0  0  0  0  0  0
   56.9480   19.9740   42.9230 H   0  0  0  0  0  0  0  0  0  0  0  0
   59.0420   21.1020   43.9930 H   0  0  0  0  0  0  0  0  0  0  0  0
   60.7730   22.3650   45.0530 H   0  0  0  0  0  0  0  0  0  0  0  0
   55.9661   26.2494   45.9392 H   0  0  0  0  0  0  0  0  0  0  0  0
   55.4939   30.6906   44.4205 H   0  0  0  0  0  0  0  0  0  0  0  0
   56.4867   29.5931   43.4024 H   0  0  0  0  0  0  0  0  0  0  0  0
   54.6966   29.4438   43.4024 H   0  0  0  0  0  0  0  0  0  0  0  0
   58.3173   30.8837   46.8129 H   0  0  0  0  0  0  0  0  0  0  0  0
   59.5003   31.4652   45.5927 H   0  0  0  0  0  0  0  0  0  0  0  0
   57.8219   32.1053   45.5927 H   0  0  0  0  0  0  0  0  0  0  0  0
  1  2  1  0
  2  3  1  0
  3  4  2  0
  4  5  1  0
  5  6  1  0
  6  7  1  0
  7  8  2  0
  8  9  1  0
  9 10  1  0
 10 11  2  3
 10 12  1  0
 12 13  1  0
 13 14  2  3
  5 15  2  0
 15 16  1  0
 16 17  1  0
 17 18  1  0
 16 19  2  0
 19 20  1  0
 20 21  1  0
 19  3  1  0
 13  7  1  0
  1 22  1  0
  1 23  1  0
  1 24  1  0
  4 25  1  0
  6 26  1  0
  6 27  1  0
  8 28  1  0
  9 29  1  0
 11 30  1  0
 12 31  1  0
 14 32  1  0
 15 33  1  0
 18 34  1  0
 18 35  1  0
 18 36  1  0
 21 37  1  0
 21 38  1  0
 21 39  1  0
M  END
>  <smiles>  (6) 
COc1cc(Cc2c[nH]c(=N)[nH]c2=N)cc(OC)c1OC

>  <score_type>  (6) 
oracle

>  <origin>  (6) 
adg

>  <m_score__min__energy>  (6) 
-6.0499999999999998

>  <m_primary>  (6) 
energy

$$$$
6:0
     RDKit          3D

 30 31  0  0  0  0  0  0  0  0999 V2000
   59.5950   28.2400   45.2570 C   0  0  0  0  0  0  0  0  0  0  0  0
   58.5870   28.3070   44.1040 C   0  0  0  0  0  0  0  0  0  0  0  0
   57.1850   28.1020   44.5500 N   0  0  1  0  0  0  0  0  0  0  0  0
   57.0660   27.4040   45.8550 C   0  0  0  0  0  0  0  0  0  0  0  0
   56.2430   26.1460   45.7910 C   0  0  0  0  0  0  0  0  0  0  0  0
   56.7300   24.8550   45.8510 C   0  0  0  0  0  0  0  0  0  0  0  0
   55.6280   24.0370   45.7390 C   0  0  0  0  0  0  0  0  0  0  0  0
   54.5380   24.8770   45.6190 C   0  0  0  0  0  0  0  0  0  0  0  0
   54.9370   26.1270   45.6530 O   0  0  0  0  0  0  0  0  0  0  0  0
   56.4620   29.3620   44.5860 C   0  0  0  0  0  0  0  0  0  0  0  0
   55.2270   29.3770   44.8520 O   0  0  0  0  0  0  0  0  0  0  0  0
   57.1230   30.6420   44.2540 C   0  0  0  0  0  0  0  0  0  0  0  0
   57.6850   31.5560   45.1420 C   0  0  0  0  0  0  0  0  0  0  0  0
   58.2510   32.6680   44.5080 C   0  0  0  0  0  0  0  0  0  0  0  0
   58.1450   32.6390   43.1240 C   0  0  0  0  0  0  0  0  0  0  0  0
   57.3450   31.2260   42.6920 S   0  0  0  0  0  0  0  0  0  0  0  0
   59.0578   28.2757   46.2162 H   0  0  0  0  0  0  0  0  0  0  0  0
   60.1657   27.3019   45.1911 H   0  0  0  0  0  0  0  0  0  0  0  0
   60.2848   29.0943   45.1911 H   0  0  0  0  0  0  0  0  0  0  0  0
   58.6630   29.2958   43.6282 H   0  0  0  0  0  0  0  0  0  0  0  0
   58.8326   27.4957   43.4029 H   0  0  0  0  0  0  0  0  0  0  0  0
   56.7310   27.4980   43.8280 H   0  0  0  0  0  0  0  0  0  0  0  0
   58.0761   27.1417   46.2027 H   0  0  0  0  0  0  0  0  0  0  0  0
   56.5526   28.0913   46.5435 H   0  0  0  0  0  0  0  0  0  0  0  0
   57.7793   24.5449   45.9646 H   0  0  0  0  0  0  0  0  0  0  0  0
   55.6177   22.9371   45.7441 H   0  0  0  0  0  0  0  0  0  0  0  0
   53.4938   24.5482   45.5113 H   0  0  0  0  0  0  0  0  0  0  0  0
   57.6841   31.4176   46.2333 H   0  0  0  0  0  0  0  0  0  0  0  0
   58.7354   33.4896   45.0560 H   0  0  0  0  0  0  0  0  0  0  0  0
   58.5194   33.4070   42.4312 H   0  0  0  0  0  0  0  0  0  0  0  0
  1  2  1  0
  2  3  1  0
  3  4  1  0
  4  5  1  0
  5  6  2  0
  6  7  1  0
  7  8  2  0
  8  9  1  0
  3 10  1  0
 10 11  2  0
 10 12  1  0
 12 13  2  0
 13 14  1  0
 14 15  2  0
 15 16  1  0
  9  5  1  0
 16 12  1  0
  1 17  1  0
  1 18  1  0
  1 19  1  0
  2 20  1  0
  2 21  1  0
  3 22  1  6
  4 23  1  0
  4 24  1  0
  6 25  1  0
  7 26  1  0
  8 27  1  0
 13 28  1  0
 14 29  1  0
 15 30  1  0
M  CHG  1   3   1
M  END
>  <UniqueID>  (7) 
5

>  <SMILES>  (7) 
CC[N@@H+](Cc1ccco1)C(=O)c1cccs1

>  <Energy>  (7) 
84.58685481686159

>  <Genealogy>  (7) 
CC[NH+](Cc1ccco1)C(=O)c1cccs1 (protonated)
CC[N@@H+](Cc1ccco1)C(=O)c1cccs1 (chirality)
CC[N@@H+](Cc1ccco1)C(=O)c1cccs1 (3D coordinates assigned)
CC[N@@H+](Cc1ccco1)C(=O)c1cccs1 (optimized conformer: 84.58685481686159 kcal/mol)

>  <smiles>  (7) 
CCN(Cc1ccco1)C(=O)c1cccs1

>  <score_type>  (7) 
oracle

>  <origin>  (7) 
adg

>  <m_score__min__energy>  (7) 
-5.1299999999999999

>  <m_primary>  (7) 
energy

$$$$
7:0
     RDKit          3D

 45 47  0  0  0  0  0  0  0  0999 V2000
   63.3680   33.8260   46.6780 C   0  0  0  0  0  0  0  0  0  0  0  0
   62.9210   32.8490   47.7610 C   0  0  0  0  0  0  0  0  0  0  0  0
   61.4590   32.7160   47.7630 N   0  0  0  0  0  0  0  0  0  0  0  0
   60.5920   33.8610   48.0710 C   0  0  0  0  0  0  0  0  0  0  0  0
   59.4690   33.9590   47.0750 C   0  0  0  0  0  0  0  0  0  0  0  0
   58.2060   33.4160   47.3690 C   0  0  0  0  0  0  0  0  0  0  0  0
   57.1820   33.4630   46.4190 C   0  0  0  0  0  0  0  0  0  0  0  0
   57.4100   34.0510   45.1710 C   0  0  0  0  0  0  0  0  0  0  0  0
   58.6640   34.5920   44.8730 C   0  0  0  0  0  0  0  0  0  0  0  0
   59.6920   34.5460   45.8200 C   0  0  0  0  0  0  0  0  0  0  0  0
   60.8790   31.4090   47.6420 C   0  0  0  0  0  0  0  0  0  0  0  0
   60.1800   31.0470   46.4880 C   0  0  0  0  0  0  0  0  0  0  0  0
   59.6190   29.7660   46.4090 C   0  0  0  0  0  0  0  0  0  0  0  0
   58.8760   29.3610   45.2450 N   0  0  0  0  0  0  0  0  0  0  0  0
   59.2940   28.1900   44.4680 C   0  0  0  0  0  0  0  0  0  0  0  0
   58.0790   27.5820   43.7600 C   0  0  0  0  0  0  0  0  0  0  0  0
   57.3890   28.5660   43.0130 O   0  0  0  0  0  0  0  0  0  0  0  0
   56.8450   29.5390   43.8860 C   0  0  0  0  0  0  0  0  0  0  0  0
   57.9570   30.3080   44.6050 C   0  0  0  0  0  0  0  0  0  0  0  0
   59.7860   28.9010   47.4510 N   0  0  0  0  0  0  0  0  0  0  0  0
   60.4860   29.2650   48.5580 C   0  0  0  0  0  0  0  0  0  0  0  0
   61.0260   30.5090   48.6480 N   0  0  0  0  0  0  0  0  0  0  0  0
   63.7817   34.7303   47.1481 H   0  0  0  0  0  0  0  0  0  0  0  0
   64.1390   33.3524   46.0525 H   0  0  0  0  0  0  0  0  0  0  0  0
   62.5056   34.0997   46.0525 H   0  0  0  0  0  0  0  0  0  0  0  0
   63.3736   31.8649   47.5697 H   0  0  0  0  0  0  0  0  0  0  0  0
   63.2444   33.2317   48.7403 H   0  0  0  0  0  0  0  0  0  0  0  0
   60.1707   33.7344   49.0792 H   0  0  0  0  0  0  0  0  0  0  0  0
   61.1909   34.7823   48.0213 H   0  0  0  0  0  0  0  0  0  0  0  0
   58.0232   32.9527   48.3498 H   0  0  0  0  0  0  0  0  0  0  0  0
   56.1954   33.0369   46.6534 H   0  0  0  0  0  0  0  0  0  0  0  0
   56.6031   34.0878   44.4243 H   0  0  0  0  0  0  0  0  0  0  0  0
   58.8426   35.0550   43.8913 H   0  0  0  0  0  0  0  0  0  0  0  0
   60.6779   34.9710   45.5805 H   0  0  0  0  0  0  0  0  0  0  0  0
   60.0719   31.7567   45.6545 H   0  0  0  0  0  0  0  0  0  0  0  0
   60.0395   28.4950   43.7188 H   0  0  0  0  0  0  0  0  0  0  0  0
   59.7350   27.4421   45.1434 H   0  0  0  0  0  0  0  0  0  0  0  0
   58.4182   26.7857   43.0811 H   0  0  0  0  0  0  0  0  0  0  0  0
   57.3966   27.1725   44.5193 H   0  0  0  0  0  0  0  0  0  0  0  0
   56.2363   30.2461   43.3033 H   0  0  0  0  0  0  0  0  0  0  0  0
   56.2254   29.0297   44.6388 H   0  0  0  0  0  0  0  0  0  0  0  0
   58.5099   30.9188   43.8762 H   0  0  0  0  0  0  0  0  0  0  0  0
   57.5131   30.9606   45.3712 H   0  0  0  0  0  0  0  0  0  0  0  0
   59.3980   27.9330   47.3990 H   0  0  0  0  0  0  0  0  0  0  0  0
   60.6159   28.5501   49.3839 H   0  0  0  0  0  0  0  0  0  0  0  0
  1  2  1  0
  2  3  1  0
  3  4  1  0
  4  5  1  0
  5  6  2  0
  6  7  1  0
  7  8  2  0
  8  9  1  0
  9 10  2  0
  3 11  1  0
 11 12  2  0
 12 13  1  0
 13 14  1  0
 14 15  1  0
 15 16  1  0
 16 17  1  0
 17 18  1  0
 18 19  1  0
 13 20  2  0
 20 21  1  0
 21 22  2  0
 10  5  1  0
 22 11  1  0
 19 14  1  0
  1 23  1  0
  1 24  1  0
  1 25  1  0
  2 26  1  0
  2 27  1  0
  4 28  1  0
  4 29  1  0
  6 30  1  0
  7 31  1  0
  8 32  1  0
  9 33  1  0
 10 34  1  0
 12 35  1  0
 15 36  1  0
 15 37  1  0
 16 38  1  0
 16 39  1  0
 18 40  1  0
 18 41  1  0
 19 42  1  0
 19 43  1  0
 20 44  1  0
 21 45  1  0
M  CHG  1  20   1
M  END
>  <UniqueID>  (8) 
6

>  <SMILES>  (8) 
CCN(Cc1ccccc1)c1cc(N2CCOCC2)[nH+]cn1

>  <Energy>  (8) 
50.471399952614625

>  <Genealogy>  (8) 
CCN(Cc1ccccc1)c1cc(N2CCOCC2)[nH+]cn1 (protonated)
CCN(Cc1ccccc1)c1cc(N2CCOCC2)[nH+]cn1 (3D coordinates assigned)
CCN(Cc1ccccc1)c1cc(N2CCOCC2)[nH+]cn1 (nonaromatic ring conformer: 50.471399952614625 kcal/mol)

>  <smiles>  (8) 
CCN(Cc1ccccc1)c1cc(N2CCOCC2)ncn1

>  <score_type>  (8) 
oracle

>  <origin>  (8) 
adg

>  <m_score__min__energy>  (8) 
-5.5999999999999996

>  <m_primary>  (8) 
energy

$$$$
8:0
     RDKit          3D

 32 32  0  0  0  0  0  0  0  0999 V2000
   64.1310   33.0960   48.5160 C   0  0  0  0  0  0  0  0  0  0  0  0
   63.0670   32.8360   47.8120 C   0  0  0  0  0  0  0  0  0  0  0  0
   62.0020   32.5710   47.1060 C   0  0  0  0  0  0  0  0  0  0  0  0
   61.1600   33.6760   46.5380 C   0  0  0  0  0  0  0  0  0  0  0  0
   59.9220   33.8500   47.3280 N   0  0  0  0  0  0  0  0  0  0  0  0
   60.2480   34.4350   48.6400 C   0  0  0  0  0  0  0  0  0  0  0  0
   58.9520   34.7030   46.6070 C   0  0  0  0  0  0  0  0  0  0  0  0
   58.0600   33.8590   45.7450 C   0  0  0  0  0  0  0  0  0  0  0  0
   57.0750   34.3980   45.1700 O   0  0  0  0  0  0  0  0  0  0  0  0
   58.3220   32.4560   45.5880 N   0  0  0  0  0  0  0  0  0  0  0  0
   57.7150   31.6340   44.5770 C   0  0  0  0  0  0  0  0  0  0  0  0
   57.6570   32.0460   43.2320 C   0  0  0  0  0  0  0  0  0  0  0  0
   57.0830   31.2150   42.2650 C   0  0  0  0  0  0  0  0  0  0  0  0
   56.5780   29.9630   42.6260 C   0  0  0  0  0  0  0  0  0  0  0  0
   56.6530   29.5370   43.9540 C   0  0  0  0  0  0  0  0  0  0  0  0
   57.2260   30.3650   44.9250 C   0  0  0  0  0  0  0  0  0  0  0  0
   64.0801   33.0836   49.6147 H   0  0  0  0  0  0  0  0  0  0  0  0
   65.0808   33.3281   48.0120 H   0  0  0  0  0  0  0  0  0  0  0  0
   61.7176   31.5240   46.9248 H   0  0  0  0  0  0  0  0  0  0  0  0
   61.7348   34.6137   46.5566 H   0  0  0  0  0  0  0  0  0  0  0  0
   60.8861   33.4160   45.5048 H   0  0  0  0  0  0  0  0  0  0  0  0
   59.8795   33.7737   49.4381 H   0  0  0  0  0  0  0  0  0  0  0  0
   61.3385   34.5469   48.7308 H   0  0  0  0  0  0  0  0  0  0  0  0
   59.7694   35.4213   48.7308 H   0  0  0  0  0  0  0  0  0  0  0  0
   58.3386   35.2521   47.3365 H   0  0  0  0  0  0  0  0  0  0  0  0
   59.5015   35.4113   45.9695 H   0  0  0  0  0  0  0  0  0  0  0  0
   58.9400   31.9920   46.2920 H   0  0  0  0  0  0  0  0  0  0  0  0
   58.0648   33.0253   42.9408 H   0  0  0  0  0  0  0  0  0  0  0  0
   57.0288   31.5475   41.2179 H   0  0  0  0  0  0  0  0  0  0  0  0
   56.1217   29.3133   41.8646 H   0  0  0  0  0  0  0  0  0  0  0  0
   56.2609   28.5489   44.2368 H   0  0  0  0  0  0  0  0  0  0  0  0
   57.2938   30.0197   45.9672 H   0  0  0  0  0  0  0  0  0  0  0  0
  1  2  2  0
  2  3  2  0
  3  4  1  0
  4  5  1  0
  5  6  1  0
  5  7  1  0
  7  8  1  0
  8  9  2  0
  8 10  1  0
 10 11  1  0
 11 12  2  0
 12 13  1  0
 13 14  2  0
 14 15  1  0
 15 16  2  0
 16 11  1  0
  1 17  1  0
  1 18  1  0
  3 19  1  0
  4 20  1  0
  4 21  1  0
  6 22  1  0
  6 23  1  0
  6 24  1  0
  7 25  1  0
  7 26  1  0
 10 27  1  0
 12 28  1  0
 13 29  1  0
 14 30  1  0
 15 31  1  0
 16 32  1  0
M  END
>  <UniqueID>  (9) 
7

>  <SMILES>  (9) 
C=C=CCN(C)CC(=O)Nc1ccccc1

>  <Energy>  (9) 
28.367235153157218

>  <Genealogy>  (9) 
C=C=CCN(C)CC(=O)Nc1ccccc1 (3D coordinates assigned)
C=C=CCN(C)CC(=O)Nc1ccccc1 (optimized conformer: 28.367235153157218 kcal/mol)

>  <smiles>  (9) 
C=C=CCN(C)CC(=O)Nc1ccccc1

>  <score_type>  (9) 
oracle

>  <origin>  (9) 
adg

>  <m_score__min__energy>  (9) 
-5.5

>  <m_primary>  (9) 
energy

$$$$
9:0
     RDKit          3D

 37 38  0  0  0  0  0  0  0  0999 V2000
   63.1270   33.8550   46.3930 C   0  0  0  0  0  0  0  0  0  0  0  0
   62.0880   33.1720   47.1810 N   0  0  0  0  0  0  0  0  0  0  0  0
   62.6890   32.4290   48.3180 C   0  0  0  0  0  0  0  0  0  0  0  0
   61.9270   31.1200   48.5350 C   0  0  0  0  0  0  0  0  0  0  0  0
   61.1450   30.7780   47.3480 N   0  0  0  0  0  0  0  0  0  0  0  0
   60.0810   29.8170   47.3780 C   0  0  0  0  0  0  0  0  0  0  0  0
   59.7660   29.2510   48.4600 O   0  0  0  0  0  0  0  0  0  0  0  0
   59.3440   29.4910   46.1480 C   0  0  0  0  0  0  0  0  0  0  0  0
   59.4900   28.3400   45.3960 C   0  0  0  0  0  0  0  0  0  0  0  0
   58.6080   28.4660   44.3440 C   0  0  0  0  0  0  0  0  0  0  0  0
   57.9820   29.6820   44.5220 C   0  0  0  0  0  0  0  0  0  0  0  0
   56.6470   30.4220   43.3810 Br  0  0  0  0  0  0  0  0  0  0  0  0
   58.4390   30.2720   45.6030 O   0  0  0  0  0  0  0  0  0  0  0  0
   61.0730   34.1490   47.6290 C   0  0  0  0  0  0  0  0  0  0  0  0
   59.7940   33.9880   46.8470 C   0  0  0  0  0  0  0  0  0  0  0  0
   58.7120   33.2900   47.4070 C   0  0  0  0  0  0  0  0  0  0  0  0
   57.5100   33.1700   46.7020 C   0  0  0  0  0  0  0  0  0  0  0  0
   57.3810   33.7460   45.4360 C   0  0  0  0  0  0  0  0  0  0  0  0
   58.4530   34.4430   44.8720 C   0  0  0  0  0  0  0  0  0  0  0  0
   59.6570   34.5660   45.5730 C   0  0  0  0  0  0  0  0  0  0  0  0
   63.8497   34.3301   47.0727 H   0  0  0  0  0  0  0  0  0  0  0  0
   63.6472   33.1221   45.7587 H   0  0  0  0  0  0  0  0  0  0  0  0
   62.6605   34.6232   45.7587 H   0  0  0  0  0  0  0  0  0  0  0  0
   63.7427   32.2065   48.0940 H   0  0  0  0  0  0  0  0  0  0  0  0
   62.6281   33.0428   49.2288 H   0  0  0  0  0  0  0  0  0  0  0  0
   62.6457   30.3128   48.7396 H   0  0  0  0  0  0  0  0  0  0  0  0
   61.2427   31.2446   49.3872 H   0  0  0  0  0  0  0  0  0  0  0  0
   61.3400   31.2970   46.4610 H   0  0  0  0  0  0  0  0  0  0  0  0
   60.1692   27.4981   45.5957 H   0  0  0  0  0  0  0  0  0  0  0  0
   58.4385   27.7453   43.5304 H   0  0  0  0  0  0  0  0  0  0  0  0
   60.8652   33.9891   48.6973 H   0  0  0  0  0  0  0  0  0  0  0  0
   61.4628   35.1641   47.4628 H   0  0  0  0  0  0  0  0  0  0  0  0
   58.8101   32.8358   48.4040 H   0  0  0  0  0  0  0  0  0  0  0  0
   56.6655   32.6216   47.1449 H   0  0  0  0  0  0  0  0  0  0  0  0
   56.4351   33.6509   44.8826 H   0  0  0  0  0  0  0  0  0  0  0  0
   58.3496   34.8957   43.8748 H   0  0  0  0  0  0  0  0  0  0  0  0
   60.4984   35.1161   45.1265 H   0  0  0  0  0  0  0  0  0  0  0  0
  1  2  1  0
  2  3  1  0
  3  4  1  0
  4  5  1  0
  5  6  1  0
  6  7  2  0
  6  8  1  0
  8  9  2  0
  9 10  1  0
 10 11  2  0
 11 12  1  0
 11 13  1  0
  2 14  1  0
 14 15  1  0
 15 16  2  0
 16 17  1  0
 17 18  2  0
 18 19  1  0
 19 20  2  0
 13  8  1  0
 20 15  1  0
  1 21  1  0
  1 22  1  0
  1 23  1  0
  3 24  1  0
  3 25  1  0
  4 26  1  0
  4 27  1  0
  5 28  1  0
  9 29  1  0
 10 30  1  0
 14 31  1  0
 14 32  1  0
 16 33  1  0
 17 34  1  0
 18 35  1  0
 19 36  1  0
 20 37  1  0
M  END
>  <UniqueID>  (10) 
8

>  <SMILES>  (10) 
CN(CCNC(=O)c1ccc(Br)o1)Cc1ccccc1

>  <Energy>  (10) 
59.16772174626974

>  <Genealogy>  (10) 
CN(CCNC(=O)c1ccc(Br)o1)Cc1ccccc1 (3D coordinates assigned)
CN(CCNC(=O)c1ccc(Br)o1)Cc1ccccc1 (optimized conformer: 59.16772174626974 kcal/mol)

>  <smiles>  (10) 
CN(CCNC(=O)c1ccc(Br)o1)Cc1ccccc1

>  <score_type>  (10) 
oracle

>  <origin>  (10) 
adg

>  <m_score__min__energy>  (10) 
-6.6399999999999997

>  <m_primary>  (10) 
energy

$$$$
10:0
     RDKit          3D

 39 42  0  0  0  0  0  0  0  0999 V2000
   58.8994   35.4899   44.6144 H   0  0  0  0  0  0  0  0  0  0  0  0
   58.6640   34.5660   45.1630 C   0  0  0  0  0  0  0  0  0  0  0  0
   57.9260   33.5570   44.5410 C   0  0  0  0  0  0  0  0  0  0  0  0
   57.5741   33.6952   43.5080 H   0  0  0  0  0  0  0  0  0  0  0  0
   57.6310   32.3710   45.2230 C   0  0  0  0  0  0  0  0  0  0  0  0
   56.8370   31.3750   44.5560 N   0  0  0  0  0  0  0  0  0  0  0  0
   56.7480   30.1160   44.8710 C   0  0  0  0  0  0  0  0  0  0  0  0
   57.8090   29.3150   45.1190 N   0  0  0  0  0  0  0  0  0  0  0  0
   57.2020   28.1340   45.3430 C   0  0  0  0  0  0  0  0  0  0  0  0
   57.8620   27.0600   45.6660 N   0  0  0  0  0  0  0  0  0  0  0  0
   57.5600   25.7200   45.2480 C   0  0  0  0  0  0  0  0  0  0  0  0
   57.3420   25.4060   43.8930 C   0  0  0  0  0  0  0  0  0  0  0  0
   57.3685   26.2032   43.1355 H   0  0  0  0  0  0  0  0  0  0  0  0
   57.0920   24.0860   43.5050 C   0  0  0  0  0  0  0  0  0  0  0  0
   56.9045   23.8482   42.4475 H   0  0  0  0  0  0  0  0  0  0  0  0
   57.0810   23.0700   44.4640 C   0  0  0  0  0  0  0  0  0  0  0  0
   57.3580   23.3670   45.8050 C   0  0  0  0  0  0  0  0  0  0  0  0
   57.5930   24.6880   46.1960 C   0  0  0  0  0  0  0  0  0  0  0  0
   57.8044   24.9185   47.2506 H   0  0  0  0  0  0  0  0  0  0  0  0
   57.3970   22.3270   46.7380 O   0  0  0  0  0  0  0  0  0  0  0  0
   57.4320   20.9600   46.3180 C   0  0  0  0  0  0  0  0  0  0  0  0
   58.4646   20.6875   46.0545 H   0  0  0  0  0  0  0  0  0  0  0  0
   57.0728   20.3234   47.1400 H   0  0  0  0  0  0  0  0  0  0  0  0
   56.5270   20.7560   45.0960 C   0  0  0  0  0  0  0  0  0  0  0  0
   56.7092   19.7575   44.6721 H   0  0  0  0  0  0  0  0  0  0  0  0
   55.4765   20.8461   45.4095 H   0  0  0  0  0  0  0  0  0  0  0  0
   56.8030   21.7470   44.1040 O   0  0  0  0  0  0  0  0  0  0  0  0
   55.8610   28.2210   45.2440 N   0  0  0  0  0  0  0  0  0  0  0  0
   55.1470   27.4780   45.4120 H   0  0  0  0  0  0  0  0  0  0  0  0
   55.5670   29.4710   44.9390 N   0  0  0  0  0  0  0  0  0  0  0  0
   58.0470   32.2240   46.5600 C   0  0  0  0  0  0  0  0  0  0  0  0
   57.7772   31.3163   47.1198 H   0  0  0  0  0  0  0  0  0  0  0  0
   58.8050   33.2300   47.1840 C   0  0  0  0  0  0  0  0  0  0  0  0
   59.2250   33.0780   48.6180 C   0  0  0  0  0  0  0  0  0  0  0  0
   58.3965   33.3779   49.2765 H   0  0  0  0  0  0  0  0  0  0  0  0
   59.4874   32.0279   48.8139 H   0  0  0  0  0  0  0  0  0  0  0  0
   60.0987   33.7169   48.8139 H   0  0  0  0  0  0  0  0  0  0  0  0
   59.1050   34.4070   46.4800 C   0  0  0  0  0  0  0  0  0  0  0  0
   59.8090   35.4060   47.0710 F   0  0  0  0  0  0  0  0  0  0  0  0
  1  2  1  0
  2  3  2  0
  3  4  1  0
  3  5  1  0
  5  6  1  0
  6  7  2  0
  7  8  1  0
  8  9  1  0
  9 10  2  0
 10 11  1  0
 11 12  2  0
 12 13  1  0
 12 14  1  0
 14 15  1  0
 14 16  2  0
 16 17  1  0
 17 18  2  0
 18 19  1  0
 17 20  1  0
 20 21  1  0
 21 22  1  0
 21 23  1  0
 21 24  1  0
 24 25  1  0
 24 26  1  0
 24 27  1  0
  9 28  1  0
 28 29  1  0
 28 30  1  0
  5 31  2  0
 31 32  1  0
 31 33  1  0
 33 34  1  0
 34 35  1  0
 34 36  1  0
 34 37  1  0
 33 38  2  0
 38 39  1  0
 38  2  1  0
 30  7  1  0
 18 11  1  0
 27 16  1  0
M  CHG  2   8  -1  30  -1
M  END
>  <UniqueID>  (11) 
9

>  <SMILES>  (11) 
Cc1cc(/N=c2/[n-][nH]/c(=N\c3ccc4c(c3)OCCO4)[n-]2)ccc1F

>  <Energy>  (11) 
90.09665955359134

>  <Genealogy>  (11) 
Cc1cc(N=c2[n-][nH]c(=Nc3ccc4c(c3)OCCO4)[n-]2)ccc1F (protonated)
Cc1cc(/N=c2/[n-][nH]/c(=N\c3ccc4c(c3)OCCO4)[n-]2)ccc1F (cis-trans isomerization)
Cc1cc(/N=c2/[n-][nH]/c(=N\c3ccc4c(c3)OCCO4)[n-]2)ccc1F (3D coordinates assigned)
Cc1cc(/N=c2/[n-][nH]/c(=N\c3ccc4c(c3)OCCO4)[n-]2)ccc1F (nonaromatic ring conformer: 90.09665955359134 kcal/mol)

>  <smiles>  (11) 
Cc1cc(N=c2[nH][nH]c(=Nc3ccc4c(c3)OCCO4)[nH]2)ccc1F

>  <score_type>  (11) 
oracle

>  <origin>  (11) 
adg

>  <m_score__min__energy>  (11) 
-11.640000000000001

>  <m_primary>  (11) 
energy

$$$$
11:0
     RDKit          3D

 63 66  0  0  0  0  0  0  0  0999 V2000
   56.1010   23.4550   48.1060 C   0  0  0  0  0  0  0  0  0  0  0  0
   56.7830   24.0760   47.0220 O   0  0  0  0  0  0  0  0  0  0  0  0
   57.3170   25.3750   47.0530 C   0  0  0  0  0  0  0  0  0  0  0  0
   58.5080   25.6710   47.7270 C   0  0  0  0  0  0  0  0  0  0  0  0
   59.0490   26.9650   47.7140 C   0  0  0  0  0  0  0  0  0  0  0  0
   58.3840   27.9940   47.0120 C   0  0  0  0  0  0  0  0  0  0  0  0
   57.1300   27.7130   46.4060 C   0  0  0  0  0  0  0  0  0  0  0  0
   56.3870   28.7540   45.8420 O   0  0  0  0  0  0  0  0  0  0  0  0
   56.4620   29.0620   44.4550 C   0  0  0  0  0  0  0  0  0  0  0  0
   56.6260   26.3900   46.3820 C   0  0  0  0  0  0  0  0  0  0  0  0
   55.4450   26.0100   45.7150 O   0  0  0  0  0  0  0  0  0  0  0  0
   55.2220   24.7890   45.0200 C   0  0  0  0  0  0  0  0  0  0  0  0
   58.9740   29.3600   46.8490 C   0  0  0  0  0  0  0  0  0  0  0  0
   59.1040   29.8450   45.5470 C   0  0  0  0  0  0  0  0  0  0  0  0
   59.2560   31.1750   45.1690 C   0  0  0  0  0  0  0  0  0  0  0  0
   58.8570   32.3050   45.8970 C   0  0  0  0  0  0  0  0  0  0  0  0
   58.8740   33.8650   44.9890 S   0  0  0  0  0  0  0  0  0  0  0  0
   57.0610   34.0210   44.9950 C   0  0  0  0  0  0  0  0  0  0  0  0
   58.3900   32.3290   47.2260 C   0  0  0  0  0  0  0  0  0  0  0  0
   57.7980   33.3740   47.6230 O   0  0  0  0  0  0  0  0  0  0  0  0
   58.6420   31.3430   48.1910 C   0  0  0  0  0  0  0  0  0  0  0  0
   59.3130   30.1370   47.9640 C   0  0  0  0  0  0  0  0  0  0  0  0
   60.4860   29.7000   48.8580 C   0  0  1  0  0  0  0  0  0  0  0  0
   60.8540   30.6700   49.9260 N   0  0  0  0  0  0  0  0  0  0  0  0
   62.2480   31.1620   49.8390 C   0  0  0  0  0  0  0  0  0  0  0  0
   62.4470   32.1030   48.6740 C   0  0  0  0  0  0  0  0  0  0  0  0
   61.4450   33.0240   48.3390 C   0  0  0  0  0  0  0  0  0  0  0  0
   61.6230   33.9020   47.2690 C   0  0  0  0  0  0  0  0  0  0  0  0
   62.7990   33.8560   46.5160 C   0  0  0  0  0  0  0  0  0  0  0  0
   63.8060   32.9400   46.8370 C   0  0  0  0  0  0  0  0  0  0  0  0
   63.6340   32.0680   47.9170 C   0  0  0  0  0  0  0  0  0  0  0  0
   60.2460   28.3020   49.4670 C   0  0  0  0  0  0  0  0  0  0  0  0
   60.3600   27.1950   48.4120 C   0  0  0  0  0  0  0  0  0  0  0  0
   56.5093   23.8268   49.0573 H   0  0  0  0  0  0  0  0  0  0  0  0
   55.0286   23.6932   48.0492 H   0  0  0  0  0  0  0  0  0  0  0  0
   56.2380   22.3650   48.0492 H   0  0  0  0  0  0  0  0  0  0  0  0
   59.0292   24.8737   48.2771 H   0  0  0  0  0  0  0  0  0  0  0  0
   56.7205   30.1237   44.3286 H   0  0  0  0  0  0  0  0  0  0  0  0
   57.2344   28.4377   43.9820 H   0  0  0  0  0  0  0  0  0  0  0  0
   55.4891   28.8627   43.9820 H   0  0  0  0  0  0  0  0  0  0  0  0
   55.0735   23.9758   45.7458 H   0  0  0  0  0  0  0  0  0  0  0  0
   54.3265   24.8849   44.3884 H   0  0  0  0  0  0  0  0  0  0  0  0
   56.0936   24.5621   44.3884 H   0  0  0  0  0  0  0  0  0  0  0  0
   59.0843   29.1002   44.7377 H   0  0  0  0  0  0  0  0  0  0  0  0
   59.7394   31.3594   44.1983 H   0  0  0  0  0  0  0  0  0  0  0  0
   56.6991   34.0521   46.0333 H   0  0  0  0  0  0  0  0  0  0  0  0
   56.7710   34.9474   44.4777 H   0  0  0  0  0  0  0  0  0  0  0  0
   56.6170   33.1577   44.4777 H   0  0  0  0  0  0  0  0  0  0  0  0
   58.2815   31.5343   49.2125 H   0  0  0  0  0  0  0  0  0  0  0  0
   61.3482   29.6615   48.1760 H   0  0  0  0  0  0  0  0  0  0  0  0
   60.1940   31.4790   49.9370 H   0  0  0  0  0  0  0  0  0  0  0  0
   60.7500   30.2120   50.8610 H   0  0  0  0  0  0  0  0  0  0  0  0
   62.4955   31.6929   50.7701 H   0  0  0  0  0  0  0  0  0  0  0  0
   62.9051   30.2928   49.6884 H   0  0  0  0  0  0  0  0  0  0  0  0
   60.5132   33.0549   48.9227 H   0  0  0  0  0  0  0  0  0  0  0  0
   60.8375   34.6302   47.0185 H   0  0  0  0  0  0  0  0  0  0  0  0
   62.9334   34.5429   45.6674 H   0  0  0  0  0  0  0  0  0  0  0  0
   64.7305   32.9055   46.2419 H   0  0  0  0  0  0  0  0  0  0  0  0
   64.4284   31.3526   48.1759 H   0  0  0  0  0  0  0  0  0  0  0  0
   60.9939   28.1229   50.2535 H   0  0  0  0  0  0  0  0  0  0  0  0
   59.2263   28.2786   49.8789 H   0  0  0  0  0  0  0  0  0  0  0  0
   61.1154   27.4867   47.6675 H   0  0  0  0  0  0  0  0  0  0  0  0
   60.6505   26.2628   48.9186 H   0  0  0  0  0  0  0  0  0  0  0  0
  1  2  1  0
  2  3  1  0
  3  4  2  0
  4  5  1  0
  5  6  2  0
  6  7  1  0
  7  8  1  0
  8  9  1  0
  7 10  2  0
 10 11  1  0
 11 12  1  0
  6 13  1  0
 13 14  2  0
 14 15  1  0
 15 16  2  0
 16 17  1  0
 17 18  1  0
 16 19  1  0
 19 20  2  0
 19 21  1  0
 21 22  2  0
 22 23  1  0
 23 24  1  0
 24 25  1  0
 25 26  1  0
 26 27  2  0
 27 28  1  0
 28 29  2  0
 29 30  1  0
 30 31  2  0
 23 32  1  0
 32 33  1  0
 10  3  1  0
 22 13  1  0
 31 26  1  0
 33  5  1  0
  1 34  1  0
  1 35  1  0
  1 36  1  0
  4 37  1  0
  9 38  1  0
  9 39  1  0
  9 40  1  0
 12 41  1  0
 12 42  1  0
 12 43  1  0
 14 44  1  0
 15 45  1  0
 18 46  1  0
 18 47  1  0
 18 48  1  0
 21 49  1  0
 23 50  1  6
 24 51  1  0
 24 52  1  0
 25 53  1  0
 25 54  1  0
 27 55  1  0
 28 56  1  0
 29 57  1  0
 30 58  1  0
 31 59  1  0
 32 60  1  0
 32 61  1  0
 33 62  1  0
 33 63  1  0
M  CHG  1  24   1
M  END
>  <UniqueID>  (12) 
10

>  <SMILES>  (12) 
COc1cc2c(c(OC)c1OC)-c1ccc(SC)c(=O)cc1[C@@H]([NH2+]Cc1ccccc1)CC2

>  <Energy>  (12) 
135.6026183784362

>  <Genealogy>  (12) 
COc1cc2c(c(OC)c1OC)-c1ccc(SC)c(=O)cc1C([NH2+]Cc1ccccc1)CC2 (protonated)
COc1cc2c(c(OC)c1OC)-c1ccc(SC)c(=O)cc1[C@@H]([NH2+]Cc1ccccc1)CC2 (chirality)
COc1cc2c(c(OC)c1OC)-c1ccc(SC)c(=O)cc1[C@@H]([NH2+]Cc1ccccc1)CC2 (3D coordinates assigned)
COc1cc2c(c(OC)c1OC)-c1ccc(SC)c(=O)cc1[C@@H]([NH2+]Cc1ccccc1)CC2 (nonaromatic ring conformer: 135.6026183784362 kcal/mol)

>  <smiles>  (12) 
COc1cc2c(c(OC)c1OC)-c1ccc(SC)c(=O)cc1C(NCc1ccccc1)CC2

>  <score_type>  (12) 
oracle

>  <origin>  (12) 
adg

>  <m_score__min__energy>  (12) 
-5.1200000000000001

>  <m_primary>  (12) 
energy

$$$$
12:0
     RDKit          3D

 29 30  0  0  0  0  0  0  0  0999 V2000
   63.6310   33.4050   49.1710 C   0  0  0  0  0  0  0  0  0  0  0  0
   63.7640   32.4880   48.0220 N   0  0  1  0  0  0  0  0  0  0  0  0
   62.7360   31.4260   48.0470 C   0  0  0  0  0  0  0  0  0  0  0  0
   61.3790   31.9130   47.6150 C   0  0  0  0  0  0  0  0  0  0  0  0
   61.2150   32.9780   46.8120 C   0  0  0  0  0  0  0  0  0  0  0  0
   59.8490   33.3900   46.4020 C   0  0  0  0  0  0  0  0  0  0  0  0
   58.7260   32.9800   47.1450 C   0  0  0  0  0  0  0  0  0  0  0  0
   57.4400   33.3620   46.7520 C   0  0  0  0  0  0  0  0  0  0  0  0
   57.2590   34.1540   45.6160 C   0  0  0  0  0  0  0  0  0  0  0  0
   58.3660   34.5680   44.8700 C   0  0  0  0  0  0  0  0  0  0  0  0
   59.6540   34.1900   45.2590 C   0  0  0  0  0  0  0  0  0  0  0  0
   62.3880   33.8580   46.4400 C   0  0  0  0  0  0  0  0  0  0  0  0
   63.7470   33.2010   46.7290 C   0  0  0  0  0  0  0  0  0  0  0  0
   63.7138   32.8339   50.1074 H   0  0  0  0  0  0  0  0  0  0  0  0
   64.4289   34.1612   49.1309 H   0  0  0  0  0  0  0  0  0  0  0  0
   62.6512   33.9033   49.1309 H   0  0  0  0  0  0  0  0  0  0  0  0
   64.6990   32.0230   48.1100 H   0  0  0  0  0  0  0  0  0  0  0  0
   63.0503   30.6175   47.3706 H   0  0  0  0  0  0  0  0  0  0  0  0
   62.6460   31.0786   49.0868 H   0  0  0  0  0  0  0  0  0  0  0  0
   60.4869   31.3764   47.9703 H   0  0  0  0  0  0  0  0  0  0  0  0
   58.8611   32.3553   48.0402 H   0  0  0  0  0  0  0  0  0  0  0  0
   56.5681   33.0379   47.3392 H   0  0  0  0  0  0  0  0  0  0  0  0
   56.2457   34.4518   45.3086 H   0  0  0  0  0  0  0  0  0  0  0  0
   58.2233   35.1922   43.9755 H   0  0  0  0  0  0  0  0  0  0  0  0
   60.5216   34.5195   44.6685 H   0  0  0  0  0  0  0  0  0  0  0  0
   62.3295   34.0842   45.3651 H   0  0  0  0  0  0  0  0  0  0  0  0
   62.3249   34.7678   47.0551 H   0  0  0  0  0  0  0  0  0  0  0  0
   63.9698   32.4825   45.9264 H   0  0  0  0  0  0  0  0  0  0  0  0
   64.5022   33.9994   46.7763 H   0  0  0  0  0  0  0  0  0  0  0  0
  1  2  1  0
  2  3  1  0
  3  4  1  0
  4  5  2  0
  5  6  1  0
  6  7  2  0
  7  8  1  0
  8  9  2  0
  9 10  1  0
 10 11  2  0
  5 12  1  0
 12 13  1  0
 13  2  1  0
 11  6  1  0
  1 14  1  0
  1 15  1  0
  1 16  1  0
  2 17  1  1
  3 18  1  0
  3 19  1  0
  4 20  1  0
  7 21  1  0
  8 22  1  0
  9 23  1  0
 10 24  1  0
 11 25  1  0
 12 26  1  0
 12 27  1  0
 13 28  1  0
 13 29  1  0
M  CHG  1   2   1
M  END
>  <UniqueID>  (13) 
11

>  <SMILES>  (13) 
C[N@H+]1CC=C(c2ccccc2)CC1

>  <Energy>  (13) 
37.87900118184242

>  <Genealogy>  (13) 
C[NH+]1CC=C(c2ccccc2)CC1 (protonated)
C[N@H+]1CC=C(c2ccccc2)CC1 (chirality)
C[N@H+]1CC=C(c2ccccc2)CC1 (3D coordinates assigned)
C[N@H+]1CC=C(c2ccccc2)CC1 (nonaromatic ring conformer: 37.87900118184242 kcal/mol)

>  <smiles>  (13) 
CN1CC=C(c2ccccc2)CC1

>  <score_type>  (13) 
oracle

>  <origin>  (13) 
adg

>  <m_score__min__energy>  (13) 
-4.6299999999999999

>  <m_primary>  (13) 
energy

$$$$
13:0
     RDKit          3D

 43 45  0  0  0  0  0  0  0  0999 V2000
   57.3220   33.4620   47.0670 C   0  0  0  0  0  0  0  0  0  0  0  0
   58.5970   32.9910   46.5180 N   0  0  0  0  0  0  0  0  0  0  0  0
   58.8460   33.0690   45.0670 C   0  0  0  0  0  0  0  0  0  0  0  0
   58.0340   32.0400   44.3210 C   0  0  0  0  0  0  0  0  0  0  0  0
   57.4450   30.9660   45.0120 C   0  0  0  0  0  0  0  0  0  0  0  0
   56.6790   30.0210   44.3230 C   0  0  0  0  0  0  0  0  0  0  0  0
   56.4800   30.1490   42.9460 C   0  0  0  0  0  0  0  0  0  0  0  0
   57.0510   31.2220   42.2550 C   0  0  0  0  0  0  0  0  0  0  0  0
   57.8290   32.1620   42.9360 C   0  0  0  0  0  0  0  0  0  0  0  0
   59.5480   32.3710   47.4110 C   0  0  0  0  0  0  0  0  0  0  0  0
   59.1330   31.6670   48.3720 O   0  0  0  0  0  0  0  0  0  0  0  0
   61.0060   32.5240   47.2270 C   0  0  0  0  0  0  0  0  0  0  0  0
   61.5470   33.7640   46.8680 C   0  0  0  0  0  0  0  0  0  0  0  0
   62.9250   33.9100   46.7240 C   0  0  0  0  0  0  0  0  0  0  0  0
   63.7570   32.8170   46.9640 C   0  0  0  0  0  0  0  0  0  0  0  0
   63.2250   31.6180   47.3240 N   0  0  0  0  0  0  0  0  0  0  0  0
   61.8740   31.4380   47.4390 C   0  0  0  0  0  0  0  0  0  0  0  0
   61.3400   30.1900   47.7940 O   0  0  0  0  0  0  0  0  0  0  0  0
   60.5460   29.3770   46.9720 C   0  0  0  0  0  0  0  0  0  0  0  0
   60.7590   29.2710   45.5840 C   0  0  0  0  0  0  0  0  0  0  0  0
   59.9180   28.4770   44.8000 C   0  0  0  0  0  0  0  0  0  0  0  0
   58.8570   27.7870   45.3900 C   0  0  0  0  0  0  0  0  0  0  0  0
   58.6320   27.8950   46.7660 C   0  0  0  0  0  0  0  0  0  0  0  0
   59.4710   28.6900   47.5510 C   0  0  0  0  0  0  0  0  0  0  0  0
   57.3674   33.4452   48.1659 H   0  0  0  0  0  0  0  0  0  0  0  0
   57.1321   34.4896   46.7235 H   0  0  0  0  0  0  0  0  0  0  0  0
   56.5097   32.8046   46.7235 H   0  0  0  0  0  0  0  0  0  0  0  0
   58.5714   34.0721   44.7087 H   0  0  0  0  0  0  0  0  0  0  0  0
   59.9127   32.8720   44.8843 H   0  0  0  0  0  0  0  0  0  0  0  0
   57.5875   30.8692   46.0984 H   0  0  0  0  0  0  0  0  0  0  0  0
   56.2322   29.1751   44.8660 H   0  0  0  0  0  0  0  0  0  0  0  0
   55.8746   29.4062   42.4060 H   0  0  0  0  0  0  0  0  0  0  0  0
   56.8873   31.3265   41.1723 H   0  0  0  0  0  0  0  0  0  0  0  0
   58.2824   33.0000   42.3863 H   0  0  0  0  0  0  0  0  0  0  0  0
   60.8830   34.6246   46.6993 H   0  0  0  0  0  0  0  0  0  0  0  0
   63.3525   34.8781   46.4239 H   0  0  0  0  0  0  0  0  0  0  0  0
   64.8469   32.9247   46.8619 H   0  0  0  0  0  0  0  0  0  0  0  0
   63.8780   30.8320   47.5380 H   0  0  0  0  0  0  0  0  0  0  0  0
   61.5914   29.8159   45.1148 H   0  0  0  0  0  0  0  0  0  0  0  0
   60.0919   28.3954   43.7169 H   0  0  0  0  0  0  0  0  0  0  0  0
   58.1983   27.1586   44.7725 H   0  0  0  0  0  0  0  0  0  0  0  0
   57.7944   27.3540   47.2304 H   0  0  0  0  0  0  0  0  0  0  0  0
   59.2861   28.7772   48.6318 H   0  0  0  0  0  0  0  0  0  0  0  0
  1  2  1  0
  2  3  1  0
  3  4  1  0
  4  5  2  0
  5  6  1  0
  6  7  2  0
  7  8  1  0
  8  9  2  0
  2 10  1  0
 10 11  2  0
 10 12  1  0
 12 13  2  0
 13 14  1  0
 14 15  2  0
 15 16  1  0
 16 17  2  0
 17 18  1  0
 18 19  1  0
 19 20  2  0
 20 21  1  0
 21 22  2  0
 22 23  1  0
 23 24  2  0
  9  4  1  0
 17 12  1  0
 24 19  1  0
  1 25  1  0
  1 26  1  0
  1 27  1  0
  3 28  1  0
  3 29  1  0
  5 30  1  0
  6 31  1  0
  7 32  1  0
  8 33  1  0
  9 34  1  0
 13 35  1  0
 14 36  1  0
 15 37  1  0
 16 38  1  0
 20 39  1  0
 21 40  1  0
 22 41  1  0
 23 42  1  0
 24 43  1  0
M  CHG  1  16   1
M  END
>  <UniqueID>  (14) 
12

>  <SMILES>  (14) 
CN(Cc1ccccc1)C(=O)c1ccc[nH+]c1Oc1ccccc1

>  <Energy>  (14) 
51.65926565280699

>  <Genealogy>  (14) 
CN(Cc1ccccc1)C(=O)c1ccc[nH+]c1Oc1ccccc1 (protonated)
CN(Cc1ccccc1)C(=O)c1ccc[nH+]c1Oc1ccccc1 (3D coordinates assigned)
CN(Cc1ccccc1)C(=O)c1ccc[nH+]c1Oc1ccccc1 (optimized conformer: 51.65926565280699 kcal/mol)

>  <smiles>  (14) 
CN(Cc1ccccc1)C(=O)c1cccnc1Oc1ccccc1

>  <score_type>  (14) 
oracle

>  <origin>  (14) 
adg

>  <m_score__min__energy>  (14) 
-5.7999999999999998

>  <m_primary>  (14) 
energy

$$$$
14:0
     RDKit          3D

 27 27  0  0  0  0  0  0  0  0999 V2000
   61.1990   33.8460   46.4430 C   0  0  0  0  0  0  0  0  0  0  0  0
   60.0830   34.9000   46.4070 C   0  0  0  0  0  0  0  0  0  0  0  0
   59.3400   34.9550   47.7480 C   0  0  0  0  0  0  0  0  0  0  0  0
   59.1340   34.7160   45.1960 C   0  0  0  0  0  0  0  0  0  0  0  0
   57.7400   34.1510   45.5230 C   0  0  0  0  0  0  0  0  0  0  0  0
   57.8580   32.5190   46.3370 S   0  0  0  0  0  0  0  0  0  0  0  0
   57.3870   31.6170   44.8640 C   0  0  0  0  0  0  0  0  0  0  0  0
   57.7590   32.0850   43.5990 C   0  0  0  0  0  0  0  0  0  0  0  0
   57.3810   31.3630   42.4650 C   0  0  0  0  0  0  0  0  0  0  0  0
   56.6360   30.1900   42.6060 C   0  0  0  0  0  0  0  0  0  0  0  0
   56.2800   29.7560   43.8850 C   0  0  0  0  0  0  0  0  0  0  0  0
   56.6590   30.4720   44.9770 N   0  0  0  0  0  0  0  0  0  0  0  0
   61.4478   33.6110   47.4884 H   0  0  0  0  0  0  0  0  0  0  0  0
   60.8577   32.9330   45.9332 H   0  0  0  0  0  0  0  0  0  0  0  0
   62.0910   34.2389   45.9332 H   0  0  0  0  0  0  0  0  0  0  0  0
   60.5554   35.8823   46.2588 H   0  0  0  0  0  0  0  0  0  0  0  0
   60.0665   34.9012   48.5722 H   0  0  0  0  0  0  0  0  0  0  0  0
   58.7767   35.8973   47.8167 H   0  0  0  0  0  0  0  0  0  0  0  0
   58.6441   34.1059   47.8167 H   0  0  0  0  0  0  0  0  0  0  0  0
   58.9979   35.6985   44.7204 H   0  0  0  0  0  0  0  0  0  0  0  0
   59.6160   33.9704   44.5466 H   0  0  0  0  0  0  0  0  0  0  0  0
   57.2190   34.8493   46.1945 H   0  0  0  0  0  0  0  0  0  0  0  0
   57.1854   34.0294   44.5809 H   0  0  0  0  0  0  0  0  0  0  0  0
   58.3430   33.0118   43.4988 H   0  0  0  0  0  0  0  0  0  0  0  0
   57.6690   31.7169   41.4641 H   0  0  0  0  0  0  0  0  0  0  0  0
   56.3329   29.6141   41.7192 H   0  0  0  0  0  0  0  0  0  0  0  0
   55.6926   28.8343   44.0089 H   0  0  0  0  0  0  0  0  0  0  0  0
  1  2  1  0
  2  3  1  0
  2  4  1  0
  4  5  1  0
  5  6  1  0
  6  7  1  0
  7  8  2  0
  8  9  1  0
  9 10  2  0
 10 11  1  0
 11 12  2  0
 12  7  1  0
  1 13  1  0
  1 14  1  0
  1 15  1  0
  2 16  1  0
  3 17  1  0
  3 18  1  0
  3 19  1  0
  4 20  1  0
  4 21  1  0
  5 22  1  0
  5 23  1  0
  8 24  1  0
  9 25  1  0
 10 26  1  0
 11 27  1  0
M  END
>  <UniqueID>  (15) 
13

>  <SMILES>  (15) 
CC(C)CCSc1ccccn1

>  <Energy>  (15) 
17.596508066884844

>  <Genealogy>  (15) 
CC(C)CCSc1ccccn1 (3D coordinates assigned)
CC(C)CCSc1ccccn1 (optimized conformer: 17.596508066884844 kcal/mol)

>  <smiles>  (15) 
CC(C)CCSc1ccccn1

>  <score_type>  (15) 
oracle

>  <origin>  (15) 
adg

>  <m_score__min__energy>  (15) 
-5.7000000000000002

>  <m_primary>  (15) 
energy

$$$$
15:0
     RDKit          3D

 40 42  0  0  0  0  0  0  0  0999 V2000
   54.7690   25.5220   45.6420 N   0  0  0  0  0  0  0  0  0  0  0  0
   55.9250   25.2420   46.4310 C   0  0  0  0  0  0  0  0  0  0  0  0
   55.8060   24.5100   47.4510 O   0  0  0  0  0  0  0  0  0  0  0  0
   57.2130   25.7840   46.0740 N   0  0  0  0  0  0  0  0  0  0  0  0
   57.3910   26.5650   44.8400 C   0  0  0  0  0  0  0  0  0  0  0  0
   58.2660   27.8140   45.0720 C   0  0  0  0  0  0  0  0  0  0  0  0
   59.3010   27.6850   46.2400 C   0  0  0  0  0  0  0  0  0  0  0  0
   59.6410   26.1880   46.4580 C   0  0  0  0  0  0  0  0  0  0  0  0
   58.3960   25.3750   46.8460 C   0  0  0  0  0  0  0  0  0  0  0  0
   60.6120   28.4370   45.8720 C   0  0  0  0  0  0  0  0  0  0  0  0
   60.3650   29.9360   45.6220 C   0  0  0  0  0  0  0  0  0  0  0  0
   59.3180   30.4590   46.5090 N   0  0  0  0  0  0  0  0  0  0  0  0
   58.6630   31.6970   46.1780 C   0  0  0  0  0  0  0  0  0  0  0  0
   57.4550   31.6780   45.5510 N   0  0  0  0  0  0  0  0  0  0  0  0
   56.8210   32.8100   45.2460 N   0  0  0  0  0  0  0  0  0  0  0  0
   57.3570   34.0170   45.5560 C   0  0  0  0  0  0  0  0  0  0  0  0
   58.5840   34.0580   46.2120 C   0  0  0  0  0  0  0  0  0  0  0  0
   59.2170   32.8960   46.5180 N   0  0  0  0  0  0  0  0  0  0  0  0
   59.0670   29.7800   47.7840 C   0  0  0  0  0  0  0  0  0  0  0  0
   58.7140   28.2970   47.5610 C   0  0  0  0  0  0  0  0  0  0  0  0
   54.6230   26.4660   45.2200 H   0  0  0  0  0  0  0  0  0  0  0  0
   57.8725   25.9289   44.0827 H   0  0  0  0  0  0  0  0  0  0  0  0
   56.3993   26.9009   44.5027 H   0  0  0  0  0  0  0  0  0  0  0  0
   58.8208   28.0198   44.1447 H   0  0  0  0  0  0  0  0  0  0  0  0
   57.5786   28.6243   45.3564 H   0  0  0  0  0  0  0  0  0  0  0  0
   60.0591   25.7778   45.5269 H   0  0  0  0  0  0  0  0  0  0  0  0
   60.3680   26.1169   47.2804 H   0  0  0  0  0  0  0  0  0  0  0  0
   58.5935   24.3096   46.6568 H   0  0  0  0  0  0  0  0  0  0  0  0
   58.1882   25.5561   47.9109 H   0  0  0  0  0  0  0  0  0  0  0  0
   61.3284   28.3281   46.6996 H   0  0  0  0  0  0  0  0  0  0  0  0
   61.0071   27.9979   44.9441 H   0  0  0  0  0  0  0  0  0  0  0  0
   61.2985   30.4884   45.8048 H   0  0  0  0  0  0  0  0  0  0  0  0
   60.0344   30.0647   44.5808 H   0  0  0  0  0  0  0  0  0  0  0  0
   56.8313   34.9469   45.2936 H   0  0  0  0  0  0  0  0  0  0  0  0
   59.0373   35.0237   46.4804 H   0  0  0  0  0  0  0  0  0  0  0  0
   60.1160   32.9390   47.0460 H   0  0  0  0  0  0  0  0  0  0  0  0
   59.9696   29.8446   48.4095 H   0  0  0  0  0  0  0  0  0  0  0  0
   58.2172   30.2711   48.2807 H   0  0  0  0  0  0  0  0  0  0  0  0
   59.1036   27.7184   48.4116 H   0  0  0  0  0  0  0  0  0  0  0  0
   57.6188   28.2435   47.4735 H   0  0  0  0  0  0  0  0  0  0  0  0
  1  2  1  0
  2  3  2  0
  2  4  1  0
  4  5  1  0
  5  6  1  0
  6  7  1  0
  7  8  1  0
  8  9  1  0
  7 10  1  0
 10 11  1  0
 11 12  1  0
 12 13  1  0
 13 14  2  0
 14 15  1  0
 15 16  2  0
 16 17  1  0
 17 18  2  0
 12 19  1  0
 19 20  1  0
  9  4  1  0
 18 13  1  0
 20  7  1  0
  1 21  1  0
  5 22  1  0
  5 23  1  0
  6 24  1  0
  6 25  1  0
  8 26  1  0
  8 27  1  0
  9 28  1  0
  9 29  1  0
 10 30  1  0
 10 31  1  0
 11 32  1  0
 11 33  1  0
 16 34  1  0
 17 35  1  0
 18 36  1  0
 19 37  1  0
 19 38  1  0
 20 39  1  0
 20 40  1  0
M  CHG  2   1  -1  18   1
M  END
>  <UniqueID>  (16) 
14

>  <SMILES>  (16) 
[NH-]C(=O)N1CCC2(CC1)CCN(c1nncc[nH+]1)CC2

>  <Energy>  (16) 
53.25391870169341

>  <Genealogy>  (16) 
[NH-]C(=O)N1CCC2(CC1)CCN(c1nncc[nH+]1)CC2 (protonated)
[NH-]C(=O)N1CCC2(CC1)CCN(c1nncc[nH+]1)CC2 (3D coordinates assigned)
[NH-]C(=O)N1CCC2(CC1)CCN(c1nncc[nH+]1)CC2 (nonaromatic ring conformer: 53.25391870169341 kcal/mol)

>  <smiles>  (16) 
NC(=O)N1CCC2(CC1)CCN(c1nccnn1)CC2

>  <score_type>  (16) 
oracle

>  <origin>  (16) 
adg

>  <m_score__min__energy>  (16) 
-7.6500000000000004

>  <m_primary>  (16) 
energy

$$$$
16:0
     RDKit          3D

 46 47  0  0  0  0  0  0  0  0999 V2000
   56.4060   24.6550   45.1100 C   0  0  0  0  0  0  0  0  0  0  0  0
   56.1970   25.6140   46.1420 O   0  0  0  0  0  0  0  0  0  0  0  0
   56.9500   26.7880   46.3010 C   0  0  0  0  0  0  0  0  0  0  0  0
   58.0480   26.7560   47.1640 C   0  0  0  0  0  0  0  0  0  0  0  0
   58.8450   27.8970   47.3590 C   0  0  0  0  0  0  0  0  0  0  0  0
   59.9590   27.8910   48.2130 O   0  0  0  0  0  0  0  0  0  0  0  0
   60.0350   28.5980   49.4470 C   0  0  0  0  0  0  0  0  0  0  0  0
   58.5250   29.0860   46.6810 C   0  0  0  0  0  0  0  0  0  0  0  0
   59.3750   30.2360   46.8240 N   0  0  0  0  0  0  0  0  0  0  0  0
   60.7590   30.1770   46.3560 C   0  0  0  0  0  0  0  0  0  0  0  0
   58.9370   31.3520   47.6700 C   0  0  0  0  0  0  0  0  0  0  0  0
   58.9350   32.6360   46.8790 C   0  0  0  0  0  0  0  0  0  0  0  0
   57.8120   32.9600   46.0980 C   0  0  0  0  0  0  0  0  0  0  0  0
   57.8160   34.1020   45.2930 C   0  0  0  0  0  0  0  0  0  0  0  0
   58.9420   34.9230   45.2500 C   0  0  0  0  0  0  0  0  0  0  0  0
   60.0700   34.6070   46.0090 C   0  0  0  0  0  0  0  0  0  0  0  0
   60.0820   33.4590   46.8270 C   0  0  0  0  0  0  0  0  0  0  0  0
   61.2130   33.1020   47.5810 O   0  0  0  0  0  0  0  0  0  0  0  0
   62.5590   33.2800   47.1540 C   0  0  0  0  0  0  0  0  0  0  0  0
   57.4250   29.1310   45.8060 C   0  0  0  0  0  0  0  0  0  0  0  0
   57.1660   30.3280   45.1180 O   0  0  0  0  0  0  0  0  0  0  0  0
   57.0600   30.4420   43.7040 C   0  0  0  0  0  0  0  0  0  0  0  0
   56.6390   27.9800   45.6220 C   0  0  0  0  0  0  0  0  0  0  0  0
   56.6198   23.6739   45.5590 H   0  0  0  0  0  0  0  0  0  0  0  0
   55.5022   24.5840   44.4869 H   0  0  0  0  0  0  0  0  0  0  0  0
   57.2573   24.9665   44.4869 H   0  0  0  0  0  0  0  0  0  0  0  0
   58.2920   25.8257   47.6979 H   0  0  0  0  0  0  0  0  0  0  0  0
   59.9585   27.8866   50.2825 H   0  0  0  0  0  0  0  0  0  0  0  0
   60.9956   29.1307   49.5058 H   0  0  0  0  0  0  0  0  0  0  0  0
   59.2096   29.3227   49.5058 H   0  0  0  0  0  0  0  0  0  0  0  0
   61.4377   30.1481   47.2212 H   0  0  0  0  0  0  0  0  0  0  0  0
   60.9020   29.2719   45.7474 H   0  0  0  0  0  0  0  0  0  0  0  0
   60.9785   31.0666   45.7474 H   0  0  0  0  0  0  0  0  0  0  0  0
   57.9204   31.1510   48.0389 H   0  0  0  0  0  0  0  0  0  0  0  0
   59.6309   31.4537   48.5174 H   0  0  0  0  0  0  0  0  0  0  0  0
   56.9246   32.3104   46.1208 H   0  0  0  0  0  0  0  0  0  0  0  0
   56.9295   34.3537   44.6923 H   0  0  0  0  0  0  0  0  0  0  0  0
   58.9415   35.8221   44.6163 H   0  0  0  0  0  0  0  0  0  0  0  0
   60.9556   35.2582   45.9686 H   0  0  0  0  0  0  0  0  0  0  0  0
   63.2142   33.3666   48.0333 H   0  0  0  0  0  0  0  0  0  0  0  0
   62.8693   32.4151   46.5493 H   0  0  0  0  0  0  0  0  0  0  0  0
   62.6338   34.1959   46.5493 H   0  0  0  0  0  0  0  0  0  0  0  0
   56.3307   31.2263   43.4530 H   0  0  0  0  0  0  0  0  0  0  0  0
   58.0414   30.7055   43.2828 H   0  0  0  0  0  0  0  0  0  0  0  0
   56.7259   29.4823   43.2828 H   0  0  0  0  0  0  0  0  0  0  0  0
   55.7747   28.0118   44.9423 H   0  0  0  0  0  0  0  0  0  0  0  0
  1  2  1  0
  2  3  1  0
  3  4  2  0
  4  5  1  0
  5  6  1  0
  6  7  1  0
  5  8  2  0
  8  9  1  0
  9 10  1  0
  9 11  1  0
 11 12  1  0
 12 13  2  0
 13 14  1  0
 14 15  2  0
 15 16  1  0
 16 17  2  0
 17 18  1  0
 18 19  1  0
  8 20  1  0
 20 21  1  0
 21 22  1  0
 20 23  2  0
 23  3  1  0
 17 12  1  0
  1 24  1  0
  1 25  1  0
  1 26  1  0
  4 27  1  0
  7 28  1  0
  7 29  1  0
  7 30  1  0
 10 31  1  0
 10 32  1  0
 10 33  1  0
 11 34  1  0
 11 35  1  0
 13 36  1  0
 14 37  1  0
 15 38  1  0
 16 39  1  0
 19 40  1  0
 19 41  1  0
 19 42  1  0
 22 43  1  0
 22 44  1  0
 22 45  1  0
 23 46  1  0
M  END
>  <UniqueID>  (17) 
15

>  <SMILES>  (17) 
COc1cc(OC)c(N(C)Cc2ccccc2OC)c(OC)c1

>  <Energy>  (17) 
44.175160633577455

>  <Genealogy>  (17) 
COc1cc(OC)c(N(C)Cc2ccccc2OC)c(OC)c1 (3D coordinates assigned)
COc1cc(OC)c(N(C)Cc2ccccc2OC)c(OC)c1 (optimized conformer: 44.175160633577455 kcal/mol)

>  <smiles>  (17) 
COc1cc(OC)c(N(C)Cc2ccccc2OC)c(OC)c1

>  <score_type>  (17) 
oracle

>  <origin>  (17) 
adg

>  <m_score__min__energy>  (17) 
-5.5

>  <m_primary>  (17) 
energy

$$$$
17:0
     RDKit          3D

 34 38  0  0  0  0  0  0  0  0999 V2000
   54.8060   29.2060   42.8380 H   0  0  0  0  0  0  0  0  0  0  0  0
   54.8250   29.7070   43.7540 N   0  0  0  0  0  0  0  0  0  0  0  0
   55.9420   30.0230   44.3220 C   0  0  0  0  0  0  0  0  0  0  0  0
   56.3110   31.3280   44.5290 N   0  0  0  0  0  0  0  0  0  0  0  0
   57.5170   31.6380   45.1410 C   0  0  0  0  0  0  0  0  0  0  0  0
   57.9160   32.9590   45.3640 C   0  0  0  0  0  0  0  0  0  0  0  0
   57.0550   34.1130   44.9500 C   0  0  0  0  0  0  0  0  0  0  0  0
   56.6729   34.6251   45.8454 H   0  0  0  0  0  0  0  0  0  0  0  0
   57.6498   34.8177   44.3503 H   0  0  0  0  0  0  0  0  0  0  0  0
   56.2101   33.7435   44.3503 H   0  0  0  0  0  0  0  0  0  0  0  0
   59.1110   33.1980   45.9700 N   0  0  0  0  0  0  0  0  0  0  0  0
   59.9400   32.1920   46.3700 C   0  0  0  0  0  0  0  0  0  0  0  0
   61.2180   32.5440   47.0190 C   0  0  0  0  0  0  0  0  0  0  0  0
   62.0930   31.6480   47.4160 O   0  0  0  0  0  0  0  0  0  0  0  0
   63.1200   32.2660   47.9520 C   0  0  0  0  0  0  0  0  0  0  0  0
   64.0085   31.7719   48.3721 H   0  0  0  0  0  0  0  0  0  0  0  0
   62.9150   33.6290   47.9080 C   0  0  0  0  0  0  0  0  0  0  0  0
   63.5938   34.4113   48.2783 H   0  0  0  0  0  0  0  0  0  0  0  0
   61.6890   33.8140   47.3070 C   0  0  0  0  0  0  0  0  0  0  0  0
   61.1885   34.7713   47.0992 H   0  0  0  0  0  0  0  0  0  0  0  0
   59.5790   30.8900   46.1670 N   0  0  0  0  0  0  0  0  0  0  0  0
   60.2020   30.1140   46.4680 H   0  0  0  0  0  0  0  0  0  0  0  0
   58.3950   30.6050   45.5660 C   0  0  0  0  0  0  0  0  0  0  0  0
   57.9590   29.3500   45.3260 N   0  0  0  0  0  0  0  0  0  0  0  0
   58.2080   28.0290   45.4290 C   0  0  0  0  0  0  0  0  0  0  0  0
   59.2770   27.1750   45.9530 C   0  0  0  0  0  0  0  0  0  0  0  0
   60.3320   27.6290   46.6590 N   0  0  0  0  0  0  0  0  0  0  0  0
   61.0330   26.5100   46.9210 C   0  0  0  0  0  0  0  0  0  0  0  0
   61.9759   26.4666   47.4858 H   0  0  0  0  0  0  0  0  0  0  0  0
   60.3840   25.4300   46.3710 C   0  0  0  0  0  0  0  0  0  0  0  0
   60.7135   24.3816   46.4188 H   0  0  0  0  0  0  0  0  0  0  0  0
   59.3030   25.8740   45.7800 O   0  0  0  0  0  0  0  0  0  0  0  0
   57.0270   27.7850   44.8310 N   0  0  0  0  0  0  0  0  0  0  0  0
   56.8120   29.0910   44.7440 N   0  0  0  0  0  0  0  0  0  0  0  0
  1  2  1  0
  2  3  2  0
  3  4  1  0
  4  5  1  0
  5  6  2  0
  6  7  1  0
  7  8  1  0
  7  9  1  0
  7 10  1  0
  6 11  1  0
 11 12  2  0
 12 13  1  0
 13 14  1  0
 14 15  1  0
 15 16  1  0
 15 17  2  0
 17 18  1  0
 17 19  1  0
 19 20  1  0
 12 21  1  0
 21 22  1  0
 21 23  2  0
 23 24  1  0
 24 25  1  0
 25 26  1  0
 26 27  2  0
 27 28  1  0
 28 29  1  0
 28 30  2  0
 30 31  1  0
 30 32  1  0
 25 33  2  0
 33 34  1  0
 34  3  1  0
 23  5  1  0
 34 24  1  0
 19 13  2  0
 32 26  1  0
M  CHG  2   4  -1  21   1
M  END
>  <UniqueID>  (18) 
16

>  <SMILES>  (18) 
[H]/N=c1\[n-]c2c(C)nc(-c3ccco3)[nH+]c2n2c(-c3ncco3)nn12

>  <Energy>  (18) 
113.89680343840215

>  <Genealogy>  (18) 
Cc1nc(-c2ccco2)[nH+]c2c1[n-]c(=N)n1nc(-c3ncco3)n21 (protonated)
[H]/N=c1\[n-]c2c(C)nc(-c3ccco3)[nH+]c2n2c(-c3ncco3)nn12 (cis-trans isomerization)
[H]/N=c1\[n-]c2c(C)nc(-c3ccco3)[nH+]c2n2c(-c3ncco3)nn12 (3D coordinates assigned)
[H]/N=c1\[n-]c2c(C)nc(-c3ccco3)[nH+]c2n2c(-c3ncco3)nn12 (optimized conformer: 113.89680343840215 kcal/mol)

>  <smiles>  (18) 
Cc1nc(-c2ccco2)nc2c1[nH]c(=N)n1nc(-c3ncco3)n21

>  <score_type>  (18) 
oracle

>  <origin>  (18) 
adg

>  <m_score__min__energy>  (18) 
-6.7199999999999998

>  <m_primary>  (18) 
energy

$$$$
18:0
     RDKit          3D

 30 31  0  0  0  0  0  0  0  0999 V2000
   54.3640   28.9670   44.5110 H   0  0  0  0  0  0  0  0  0  0  0  0
   55.1580   29.3260   45.0240 O   0  0  0  0  0  0  0  0  0  0  0  0
   55.8170   30.4470   44.5740 N   0  0  0  0  0  0  0  0  0  0  0  0
   57.1090   30.4770   44.4410 C   0  0  0  0  0  0  0  0  0  0  0  0
   57.9140   31.4270   45.2540 C   0  0  0  0  0  0  0  0  0  0  0  0
   58.4780   31.0310   46.4810 C   0  0  0  0  0  0  0  0  0  0  0  0
   58.3083   30.0109   46.8561 H   0  0  0  0  0  0  0  0  0  0  0  0
   59.2310   31.9000   47.2060 N   0  0  0  0  0  0  0  0  0  0  0  0
   59.4710   33.1670   46.7790 C   0  0  0  0  0  0  0  0  0  0  0  0
   60.0854   33.8455   47.3890 H   0  0  0  0  0  0  0  0  0  0  0  0
   58.9390   33.6080   45.5680 C   0  0  0  0  0  0  0  0  0  0  0  0
   59.2550   35.2380   45.0010 Cl  0  0  0  0  0  0  0  0  0  0  0  0
   58.1570   32.7370   44.8060 C   0  0  0  0  0  0  0  0  0  0  0  0
   57.7295   33.0776   43.8514 H   0  0  0  0  0  0  0  0  0  0  0  0
   57.7540   29.6010   43.5030 N   0  0  0  0  0  0  0  0  0  0  0  0
   58.4810   30.0080   42.8720 H   0  0  0  0  0  0  0  0  0  0  0  0
   57.7930   28.1580   43.7270 C   0  0  0  0  0  0  0  0  0  0  0  0
   56.7716   27.7525   43.6778 H   0  0  0  0  0  0  0  0  0  0  0  0
   58.4154   27.6857   42.9528 H   0  0  0  0  0  0  0  0  0  0  0  0
   58.3810   27.8710   45.0840 C   0  0  0  0  0  0  0  0  0  0  0  0
   59.7530   28.0790   45.3240 C   0  0  0  0  0  0  0  0  0  0  0  0
   60.5550   28.5940   44.3580 F   0  0  0  0  0  0  0  0  0  0  0  0
   60.3100   27.7420   46.5620 C   0  0  0  0  0  0  0  0  0  0  0  0
   61.3807   27.9137   46.7469 H   0  0  0  0  0  0  0  0  0  0  0  0
   59.5100   27.1880   47.5640 C   0  0  0  0  0  0  0  0  0  0  0  0
   59.9503   26.9272   48.5377 H   0  0  0  0  0  0  0  0  0  0  0  0
   58.1510   26.9650   47.3300 C   0  0  0  0  0  0  0  0  0  0  0  0
   57.5235   26.5255   48.1193 H   0  0  0  0  0  0  0  0  0  0  0  0
   57.5860   27.2990   46.0950 C   0  0  0  0  0  0  0  0  0  0  0  0
   56.2690   27.0490   45.8820 F   0  0  0  0  0  0  0  0  0  0  0  0
  1  2  1  0
  2  3  1  0
  3  4  2  0
  4  5  1  0
  5  6  2  0
  6  7  1  0
  6  8  1  0
  8  9  2  0
  9 10  1  0
  9 11  1  0
 11 12  1  0
 11 13  2  0
 13 14  1  0
  4 15  1  0
 15 16  1  0
 15 17  1  0
 17 18  1  0
 17 19  1  0
 17 20  1  0
 20 21  2  0
 21 22  1  0
 21 23  1  0
 23 24  1  0
 23 25  2  0
 25 26  1  0
 25 27  1  0
 27 28  1  0
 27 29  2  0
 29 30  1  0
 13  5  1  0
 29 20  1  0
M  END
>  <UniqueID>  (19) 
17

>  <SMILES>  (19) 
O/N=C(\NCc1c(F)cccc1F)c1cncc(Cl)c1

>  <Energy>  (19) 
34.41558285167795

>  <Genealogy>  (19) 
O/N=C(\NCc1c(F)cccc1F)c1cncc(Cl)c1 (cis-trans isomerization)
O/N=C(\NCc1c(F)cccc1F)c1cncc(Cl)c1 (3D coordinates assigned)
O/N=C(\NCc1c(F)cccc1F)c1cncc(Cl)c1 (optimized conformer: 34.41558285167795 kcal/mol)

>  <smiles>  (19) 
ON=C(NCc1c(F)cccc1F)c1cncc(Cl)c1

>  <score_type>  (19) 
oracle

>  <origin>  (19) 
adg

>  <m_score__min__energy>  (19) 
-8.2100000000000009

>  <m_primary>  (19) 
energy

$$$$
19:0
     RDKit          3D

 25 26  0  0  0  0  0  0  0  0999 V2000
   63.7650   33.7250   47.4870 C   0  0  0  0  0  0  0  0  0  0  0  0
   62.7940   32.7030   48.0670 C   0  0  0  0  0  0  0  0  0  0  0  0
   61.4820   32.7550   47.3510 C   0  0  0  0  0  0  0  0  0  0  0  0
   60.8010   33.9180   46.9920 C   0  0  0  0  0  0  0  0  0  0  0  0
   59.6350   33.6510   46.2670 C   0  0  0  0  0  0  0  0  0  0  0  0
   58.7490   34.6060   45.7670 C   0  0  0  0  0  0  0  0  0  0  0  0
   57.6290   34.1750   45.0400 C   0  0  0  0  0  0  0  0  0  0  0  0
   57.4020   32.8040   44.8190 C   0  0  0  0  0  0  0  0  0  0  0  0
   58.2900   31.8380   45.3340 C   0  0  0  0  0  0  0  0  0  0  0  0
   58.0660   30.3750   45.0690 C   0  0  0  0  0  0  0  0  0  0  0  0
   56.6550   30.1320   44.7540 C   0  0  0  0  0  0  0  0  0  0  0  0
   55.5420   29.9400   44.5060 N   0  0  0  0  0  0  0  0  0  0  0  0
   59.4060   32.2970   46.0490 C   0  0  0  0  0  0  0  0  0  0  0  0
   60.6550   31.4090   46.7490 S   0  0  0  0  0  0  0  0  0  0  0  0
   64.2704   34.2569   48.3066 H   0  0  0  0  0  0  0  0  0  0  0  0
   64.5138   33.2092   46.8679 H   0  0  0  0  0  0  0  0  0  0  0  0
   63.2115   34.4464   46.8679 H   0  0  0  0  0  0  0  0  0  0  0  0
   63.2236   31.6959   47.9609 H   0  0  0  0  0  0  0  0  0  0  0  0
   62.6270   32.9367   49.1288 H   0  0  0  0  0  0  0  0  0  0  0  0
   61.1425   34.9313   47.2500 H   0  0  0  0  0  0  0  0  0  0  0  0
   58.9255   35.6779   45.9397 H   0  0  0  0  0  0  0  0  0  0  0  0
   56.9217   34.9159   44.6390 H   0  0  0  0  0  0  0  0  0  0  0  0
   56.5239   32.4833   44.2393 H   0  0  0  0  0  0  0  0  0  0  0  0
   58.6885   30.0595   44.2187 H   0  0  0  0  0  0  0  0  0  0  0  0
   58.3396   29.7999   45.9659 H   0  0  0  0  0  0  0  0  0  0  0  0
  1  2  1  0
  2  3  1  0
  3  4  2  0
  4  5  1  0
  5  6  2  0
  6  7  1  0
  7  8  2  0
  8  9  1  0
  9 10  1  0
 10 11  1  0
 11 12  3  0
  9 13  2  0
 13 14  1  0
 14  3  1  0
 13  5  1  0
  1 15  1  0
  1 16  1  0
  1 17  1  0
  2 18  1  0
  2 19  1  0
  4 20  1  0
  6 21  1  0
  7 22  1  0
  8 23  1  0
 10 24  1  0
 10 25  1  0
M  END
>  <UniqueID>  (20) 
18

>  <SMILES>  (20) 
CCc1cc2cccc(CC#N)c2s1

>  <Energy>  (20) 
49.94970030854244

>  <Genealogy>  (20) 
CCc1cc2cccc(CC#N)c2s1 (3D coordinates assigned)
CCc1cc2cccc(CC#N)c2s1 (optimized conformer: 49.94970030854244 kcal/mol)

>  <smiles>  (20) 
CCc1cc2cccc(CC#N)c2s1

>  <score_type>  (20) 
oracle

>  <origin>  (20) 
adg

>  <m_score__min__energy>  (20) 
-6.1100000000000003

>  <m_primary>  (20) 
energy

$$$$
20:0
     RDKit          3D

 37 37  0  0  0  0  0  0  0  0999 V2000
   64.5330   32.9770   49.3210 C   0  0  0  0  0  0  0  0  0  0  0  0
   63.9800   33.8060   48.3030 O   0  0  0  0  0  0  0  0  0  0  0  0
   62.6190   33.8460   47.9690 C   0  0  0  0  0  0  0  0  0  0  0  0
   62.1680   33.8260   46.6350 C   0  0  0  0  0  0  0  0  0  0  0  0
   60.7990   33.8680   46.3530 C   0  0  0  0  0  0  0  0  0  0  0  0
   59.8610   33.9310   47.3950 C   0  0  0  0  0  0  0  0  0  0  0  0
   58.3850   34.0030   47.0950 C   0  0  0  0  0  0  0  0  0  0  0  0
   58.0560   33.4990   45.6800 C   0  0  0  0  0  0  0  0  0  0  0  0
   57.7590   31.9930   45.6040 C   0  0  0  0  0  0  0  0  0  0  0  0
   56.6540   31.7260   44.6720 N   0  0  0  0  0  0  0  0  0  0  0  0
   57.0240   30.7090   43.6750 C   0  0  0  0  0  0  0  0  0  0  0  0
   56.4160   29.3470   44.0420 C   0  0  1  0  0  0  0  0  0  0  0  0
   57.4480   28.4750   44.7630 C   0  0  0  0  0  0  0  0  0  0  0  0
   55.3020   29.5460   44.8730 O   0  0  0  0  0  0  0  0  0  0  0  0
   60.3130   33.9570   48.7240 C   0  0  0  0  0  0  0  0  0  0  0  0
   61.6810   33.9120   49.0060 C   0  0  0  0  0  0  0  0  0  0  0  0
   64.2641   33.3802   50.3085 H   0  0  0  0  0  0  0  0  0  0  0  0
   64.1338   31.9570   49.2203 H   0  0  0  0  0  0  0  0  0  0  0  0
   65.6281   32.9538   49.2203 H   0  0  0  0  0  0  0  0  0  0  0  0
   62.8956   33.7771   45.8115 H   0  0  0  0  0  0  0  0  0  0  0  0
   60.4553   33.8516   45.3082 H   0  0  0  0  0  0  0  0  0  0  0  0
   57.8440   33.3845   47.8263 H   0  0  0  0  0  0  0  0  0  0  0  0
   58.0779   35.0574   47.1585 H   0  0  0  0  0  0  0  0  0  0  0  0
   57.1728   34.0442   45.3157 H   0  0  0  0  0  0  0  0  0  0  0  0
   58.9494   33.6778   45.0637 H   0  0  0  0  0  0  0  0  0  0  0  0
   58.6593   31.4648   45.2569 H   0  0  0  0  0  0  0  0  0  0  0  0
   57.4699   31.6394   46.6047 H   0  0  0  0  0  0  0  0  0  0  0  0
   55.8570   31.3370   45.2280 H   0  0  0  0  0  0  0  0  0  0  0  0
   56.6502   31.0177   42.6876 H   0  0  0  0  0  0  0  0  0  0  0  0
   58.1197   30.6146   43.6541 H   0  0  0  0  0  0  0  0  0  0  0  0
   56.1068   28.8332   43.1199 H   0  0  0  0  0  0  0  0  0  0  0  0
   57.3221   28.5814   45.8506 H   0  0  0  0  0  0  0  0  0  0  0  0
   57.3019   27.4226   44.4781 H   0  0  0  0  0  0  0  0  0  0  0  0
   58.4612   28.7947   44.4781 H   0  0  0  0  0  0  0  0  0  0  0  0
   55.6140   30.0840   45.6480 H   0  0  0  0  0  0  0  0  0  0  0  0
   59.5863   34.0131   49.5479 H   0  0  0  0  0  0  0  0  0  0  0  0
   62.0234   33.9286   50.0512 H   0  0  0  0  0  0  0  0  0  0  0  0
  1  2  1  0
  2  3  1  0
  3  4  2  0
  4  5  1  0
  5  6  2  0
  6  7  1  0
  7  8  1  0
  8  9  1  0
  9 10  1  0
 10 11  1  0
 11 12  1  0
 12 13  1  0
 12 14  1  0
  6 15  1  0
 15 16  2  0
 16  3  1  0
  1 17  1  0
  1 18  1  0
  1 19  1  0
  4 20  1  0
  5 21  1  0
  7 22  1  0
  7 23  1  0
  8 24  1  0
  8 25  1  0
  9 26  1  0
  9 27  1  0
 10 28  1  0
 11 29  1  0
 11 30  1  0
 12 31  1  6
 13 32  1  0
 13 33  1  0
 13 34  1  0
 14 35  1  0
 15 36  1  0
 16 37  1  0
M  END
>  <UniqueID>  (21) 
19

>  <SMILES>  (21) 
COc1ccc(CCCNC[C@@H](C)O)cc1

>  <Energy>  (21) 
25.79854679165758

>  <Genealogy>  (21) 
COc1ccc(CCCNC[C@@H](C)O)cc1 (chirality)
COc1ccc(CCCNC[C@@H](C)O)cc1 (3D coordinates assigned)
COc1ccc(CCCNC[C@@H](C)O)cc1 (optimized conformer: 25.79854679165758 kcal/mol)

>  <smiles>  (21) 
COc1ccc(CCCNCC(C)O)cc1

>  <score_type>  (21) 
oracle

>  <origin>  (21) 
adg

>  <m_score__min__energy>  (21) 
-6.8899999999999997

>  <m_primary>  (21) 
energy

$$$$
21:0
     RDKit          3D

 36 38  0  0  0  0  0  0  0  0999 V2000
   59.2830   32.2810   49.0690 O   0  0  0  0  0  0  0  0  0  0  0  0
   59.9700   32.1920   47.8390 C   0  0  1  0  0  0  0  0  0  0  0  0
   59.2020   33.0880   46.8480 C   0  0  0  0  0  0  0  0  0  0  0  0
   57.8320   32.8620   46.5790 C   0  0  0  0  0  0  0  0  0  0  0  0
   57.1570   33.6210   45.6190 C   0  0  0  0  0  0  0  0  0  0  0  0
   57.8420   34.5850   44.8790 C   0  0  0  0  0  0  0  0  0  0  0  0
   59.2080   34.7760   45.0800 C   0  0  0  0  0  0  0  0  0  0  0  0
   59.8900   34.0200   46.0380 C   0  0  0  0  0  0  0  0  0  0  0  0
   61.4380   32.6070   48.0220 C   0  0  0  0  0  0  0  0  0  0  0  0
   61.8090   33.5350   49.0130 C   0  0  0  0  0  0  0  0  0  0  0  0
   63.1510   33.8560   49.2170 C   0  0  0  0  0  0  0  0  0  0  0  0
   64.1280   33.2310   48.4450 C   0  0  0  0  0  0  0  0  0  0  0  0
   63.7740   32.3080   47.5130 N   0  0  0  0  0  0  0  0  0  0  0  0
   62.4710   31.9770   47.2960 C   0  0  0  0  0  0  0  0  0  0  0  0
   60.0010   30.7250   47.3920 C   0  0  0  0  0  0  0  0  0  0  0  0
   59.9610   30.3860   46.0210 C   0  0  0  0  0  0  0  0  0  0  0  0
   60.0470   29.0520   45.6130 C   0  0  0  0  0  0  0  0  0  0  0  0
   60.1970   28.0370   46.5570 C   0  0  0  0  0  0  0  0  0  0  0  0
   60.2690   28.3540   47.9150 C   0  0  0  0  0  0  0  0  0  0  0  0
   60.4340   27.3690   48.8310 F   0  0  0  0  0  0  0  0  0  0  0  0
   60.1830   29.6860   48.3310 C   0  0  0  0  0  0  0  0  0  0  0  0
   59.0070   33.2270   49.2010 H   0  0  0  0  0  0  0  0  0  0  0  0
   57.2914   32.0796   47.1319 H   0  0  0  0  0  0  0  0  0  0  0  0
   56.0829   33.4578   45.4465 H   0  0  0  0  0  0  0  0  0  0  0  0
   57.3044   35.1940   44.1373 H   0  0  0  0  0  0  0  0  0  0  0  0
   59.7509   35.5237   44.4832 H   0  0  0  0  0  0  0  0  0  0  0  0
   60.9749   34.1520   46.1629 H   0  0  0  0  0  0  0  0  0  0  0  0
   61.0342   34.0111   49.6318 H   0  0  0  0  0  0  0  0  0  0  0  0
   63.4352   34.5955   49.9801 H   0  0  0  0  0  0  0  0  0  0  0  0
   65.1883   33.4854   48.5904 H   0  0  0  0  0  0  0  0  0  0  0  0
   64.5190   31.8370   46.9520 H   0  0  0  0  0  0  0  0  0  0  0  0
   62.2213   31.2108   46.5473 H   0  0  0  0  0  0  0  0  0  0  0  0
   59.8611   31.1804   45.2667 H   0  0  0  0  0  0  0  0  0  0  0  0
   59.9961   28.8019   44.5430 H   0  0  0  0  0  0  0  0  0  0  0  0
   60.2585   26.9878   46.2324 H   0  0  0  0  0  0  0  0  0  0  0  0
   60.2579   29.9274   49.4016 H   0  0  0  0  0  0  0  0  0  0  0  0
  2  1  1  1
  2  3  1  0
  3  4  2  0
  4  5  1  0
  5  6  2  0
  6  7  1  0
  7  8  2  0
  2  9  1  0
  9 10  2  0
 10 11  1  0
 11 12  2  0
 12 13  1  0
 13 14  2  0
  2 15  1  0
 15 16  2  0
 16 17  1  0
 17 18  2  0
 18 19  1  0
 19 20  1  0
 19 21  2  0
  8  3  1  0
 14  9  1  0
 21 15  1  0
  1 22  1  0
  4 23  1  0
  5 24  1  0
  6 25  1  0
  7 26  1  0
  8 27  1  0
 10 28  1  0
 11 29  1  0
 12 30  1  0
 13 31  1  0
 14 32  1  0
 16 33  1  0
 17 34  1  0
 18 35  1  0
 21 36  1  0
M  CHG  1  13   1
M  END
>  <UniqueID>  (22) 
20

>  <SMILES>  (22) 
O[C@@](c1ccccc1)(c1ccc[nH+]c1)c1cccc(F)c1

>  <Energy>  (22) 
50.622274749342644

>  <Genealogy>  (22) 
OC(c1ccccc1)(c1ccc[nH+]c1)c1cccc(F)c1 (protonated)
O[C@@](c1ccccc1)(c1ccc[nH+]c1)c1cccc(F)c1 (chirality)
O[C@@](c1ccccc1)(c1ccc[nH+]c1)c1cccc(F)c1 (3D coordinates assigned)
O[C@@](c1ccccc1)(c1ccc[nH+]c1)c1cccc(F)c1 (optimized conformer: 50.622274749342644 kcal/mol)

>  <smiles>  (22) 
OC(c1ccccc1)(c1cccnc1)c1cccc(F)c1

>  <score_type>  (22) 
oracle

>  <origin>  (22) 
adg

>  <m_score__min__energy>  (22) 
-5.4699999999999998

>  <m_primary>  (22) 
energy

$$$$
22:0
     RDKit          3D

 48 51  0  0  0  0  0  0  0  0999 V2000
   58.4240   24.0440   45.5580 C   0  0  0  0  0  0  0  0  0  0  0  0
   57.8770   25.1210   46.3080 O   0  0  0  0  0  0  0  0  0  0  0  0
   57.8160   26.4650   45.9010 C   0  0  0  0  0  0  0  0  0  0  0  0
   59.0350   27.1110   45.6590 C   0  0  0  0  0  0  0  0  0  0  0  0
   59.0770   28.4510   45.2660 C   0  0  0  0  0  0  0  0  0  0  0  0
   57.8930   29.1830   45.1000 C   0  0  0  0  0  0  0  0  0  0  0  0
   57.9310   30.6060   44.6720 C   0  0  0  0  0  0  0  0  0  0  0  0
   57.8120   31.7270   45.4750 C   0  0  0  0  0  0  0  0  0  0  0  0
   57.9060   32.7940   44.6610 N   0  0  0  0  0  0  0  0  0  0  0  0
   57.7920   34.1950   45.0410 C   0  0  0  0  0  0  0  0  0  0  0  0
   59.0510   34.6450   45.7260 C   0  0  0  0  0  0  0  0  0  0  0  0
   59.6520   35.6560   45.2760 O   0  0  0  0  0  0  0  0  0  0  0  0
   59.5610   33.9510   46.8830 N   0  0  0  0  0  0  0  0  0  0  0  0
   58.7190   33.3810   47.9370 C   0  0  0  0  0  0  0  0  0  0  0  0
   59.6440   32.5030   48.8120 C   0  0  0  0  0  0  0  0  0  0  0  0
   60.9790   32.6770   48.1790 C   0  0  0  0  0  0  0  0  0  0  0  0
   62.1960   32.1280   48.5880 C   0  0  0  0  0  0  0  0  0  0  0  0
   63.3540   32.4510   47.8660 C   0  0  0  0  0  0  0  0  0  0  0  0
   63.2790   33.3250   46.7640 C   0  0  0  0  0  0  0  0  0  0  0  0
   62.0450   33.8670   46.3720 C   0  0  0  0  0  0  0  0  0  0  0  0
   60.8980   33.5080   47.0920 C   0  0  0  0  0  0  0  0  0  0  0  0
   58.0610   32.3670   43.4170 N   0  0  0  0  0  0  0  0  0  0  0  0
   58.0850   31.0420   43.4030 N   0  0  0  0  0  0  0  0  0  0  0  0
   56.6630   28.5400   45.3340 C   0  0  0  0  0  0  0  0  0  0  0  0
   56.6080   27.1870   45.7270 C   0  0  0  0  0  0  0  0  0  0  0  0
   55.3770   26.5400   45.9280 O   0  0  0  0  0  0  0  0  0  0  0  0
   55.1030   25.1780   45.6150 C   0  0  0  0  0  0  0  0  0  0  0  0
   58.8128   23.2785   46.2457 H   0  0  0  0  0  0  0  0  0  0  0  0
   57.6404   23.6034   44.9240 H   0  0  0  0  0  0  0  0  0  0  0  0
   59.2420   24.4168   44.9240 H   0  0  0  0  0  0  0  0  0  0  0  0
   59.9755   26.5536   45.7805 H   0  0  0  0  0  0  0  0  0  0  0  0
   60.0476   28.9359   45.0852 H   0  0  0  0  0  0  0  0  0  0  0  0
   57.6686   31.7425   46.5655 H   0  0  0  0  0  0  0  0  0  0  0  0
   57.6294   34.8048   44.1401 H   0  0  0  0  0  0  0  0  0  0  0  0
   56.9431   34.3145   45.7303 H   0  0  0  0  0  0  0  0  0  0  0  0
   58.2728   34.1837   48.5425 H   0  0  0  0  0  0  0  0  0  0  0  0
   57.8952   32.7893   47.5113 H   0  0  0  0  0  0  0  0  0  0  0  0
   59.6527   32.8560   49.8538 H   0  0  0  0  0  0  0  0  0  0  0  0
   59.3229   31.4519   48.8582 H   0  0  0  0  0  0  0  0  0  0  0  0
   62.2453   31.4565   49.4579 H   0  0  0  0  0  0  0  0  0  0  0  0
   64.3226   32.0210   48.1608 H   0  0  0  0  0  0  0  0  0  0  0  0
   64.1920   33.5841   46.2078 H   0  0  0  0  0  0  0  0  0  0  0  0
   61.9799   34.5581   45.5187 H   0  0  0  0  0  0  0  0  0  0  0  0
   58.2130   30.4720   42.5390 H   0  0  0  0  0  0  0  0  0  0  0  0
   55.7269   29.1037   45.2079 H   0  0  0  0  0  0  0  0  0  0  0  0
   54.9875   24.6039   46.5461 H   0  0  0  0  0  0  0  0  0  0  0  0
   54.1744   25.1162   45.0285 H   0  0  0  0  0  0  0  0  0  0  0  0
   55.9354   24.7619   45.0285 H   0  0  0  0  0  0  0  0  0  0  0  0
  1  2  1  0
  2  3  1  0
  3  4  2  0
  4  5  1  0
  5  6  2  0
  6  7  1  0
  7  8  2  0
  8  9  1  0
  9 10  1  0
 10 11  1  0
 11 12  2  0
 11 13  1  0
 13 14  1  0
 14 15  1  0
 15 16  1  0
 16 17  2  0
 17 18  1  0
 18 19  2  0
 19 20  1  0
 20 21  2  0
  9 22  1  0
 22 23  2  0
  6 24  1  0
 24 25  2  0
 25 26  1  0
 26 27  1  0
 25  3  1  0
 23  7  1  0
 21 13  1  0
 21 16  1  0
  1 28  1  0
  1 29  1  0
  1 30  1  0
  4 31  1  0
  5 32  1  0
  8 33  1  0
 10 34  1  0
 10 35  1  0
 14 36  1  0
 14 37  1  0
 15 38  1  0
 15 39  1  0
 17 40  1  0
 18 41  1  0
 19 42  1  0
 20 43  1  0
 23 44  1  0
 24 45  1  0
 27 46  1  0
 27 47  1  0
 27 48  1  0
M  CHG  1  23   1
M  END
>  <UniqueID>  (23) 
21

>  <SMILES>  (23) 
COc1ccc(-c2cn(CC(=O)N3CCc4ccccc43)n[nH+]2)cc1OC

>  <Energy>  (23) 
105.98058840510727

>  <Genealogy>  (23) 
COc1ccc(-c2cn(CC(=O)N3CCc4ccccc43)n[nH+]2)cc1OC (protonated)
COc1ccc(-c2cn(CC(=O)N3CCc4ccccc43)n[nH+]2)cc1OC (3D coordinates assigned)
COc1ccc(-c2cn(CC(=O)N3CCc4ccccc43)n[nH+]2)cc1OC (nonaromatic ring conformer: 105.98058840510727 kcal/mol)

>  <smiles>  (23) 
COc1ccc(-c2cn(CC(=O)N3CCc4ccccc43)nn2)cc1OC

>  <score_type>  (23) 
oracle

>  <origin>  (23) 
adg

>  <m_score__min__energy>  (23) 
-7.5800000000000001

>  <m_primary>  (23) 
energy

$$$$
23:0
     RDKit          3D

 35 38  0  0  0  0  0  0  0  0999 V2000
   57.9980   35.2560   44.6390 F   0  0  0  0  0  0  0  0  0  0  0  0
   58.0600   33.9160   44.8410 C   0  0  0  0  0  0  0  0  0  0  0  0
   58.1120   33.4060   46.1380 C   0  0  0  0  0  0  0  0  0  0  0  0
   58.1770   32.0260   46.3520 C   0  0  0  0  0  0  0  0  0  0  0  0
   58.1910   31.1260   45.2600 C   0  0  0  0  0  0  0  0  0  0  0  0
   58.2590   29.6410   45.4410 C   0  0  0  0  0  0  0  0  0  0  0  0
   57.7670   28.7230   44.4790 C   0  0  0  0  0  0  0  0  0  0  0  0
   57.8820   27.3980   44.7500 N   0  0  0  0  0  0  0  0  0  0  0  0
   57.4900   26.3920   43.9900 N   0  0  0  0  0  0  0  0  0  0  0  0
   57.7940   25.2370   44.6380 C   0  0  0  0  0  0  0  0  0  0  0  0
   57.5150   23.8690   44.1180 C   0  0  0  0  0  0  0  0  0  0  0  0
   56.5440   23.6640   43.1150 C   0  0  0  0  0  0  0  0  0  0  0  0
   56.2830   22.3800   42.6260 C   0  0  0  0  0  0  0  0  0  0  0  0
   56.9830   21.2820   43.1280 C   0  0  0  0  0  0  0  0  0  0  0  0
   57.9470   21.4660   44.1200 C   0  0  0  0  0  0  0  0  0  0  0  0
   58.2130   22.7480   44.6130 C   0  0  0  0  0  0  0  0  0  0  0  0
   58.4060   25.5510   45.8590 C   0  0  0  0  0  0  0  0  0  0  0  0
   58.4330   26.9280   45.8730 C   0  0  0  0  0  0  0  0  0  0  0  0
   58.9230   27.8000   46.8330 C   0  0  0  0  0  0  0  0  0  0  0  0
   58.8210   29.1370   46.5870 N   0  0  0  0  0  0  0  0  0  0  0  0
   58.1380   31.6650   43.9560 C   0  0  0  0  0  0  0  0  0  0  0  0
   58.0740   33.0460   43.7520 C   0  0  0  0  0  0  0  0  0  0  0  0
   58.1018   34.0931   46.9970 H   0  0  0  0  0  0  0  0  0  0  0  0
   58.2177   31.6358   47.3797 H   0  0  0  0  0  0  0  0  0  0  0  0
   57.3069   29.0733   43.5432 H   0  0  0  0  0  0  0  0  0  0  0  0
   57.0290   26.5050   43.0620 H   0  0  0  0  0  0  0  0  0  0  0  0
   55.9865   24.5231   42.7135 H   0  0  0  0  0  0  0  0  0  0  0  0
   55.5237   22.2351   41.8434 H   0  0  0  0  0  0  0  0  0  0  0  0
   56.7752   20.2730   42.7423 H   0  0  0  0  0  0  0  0  0  0  0  0
   58.4992   20.6007   44.5154 H   0  0  0  0  0  0  0  0  0  0  0  0
   58.9747   22.8830   45.3950 H   0  0  0  0  0  0  0  0  0  0  0  0
   58.7785   24.8583   46.6280 H   0  0  0  0  0  0  0  0  0  0  0  0
   59.3786   27.4258   47.7616 H   0  0  0  0  0  0  0  0  0  0  0  0
   58.1472   30.9885   43.0887 H   0  0  0  0  0  0  0  0  0  0  0  0
   58.0345   33.4478   42.7288 H   0  0  0  0  0  0  0  0  0  0  0  0
  1  2  1  0
  2  3  2  0
  3  4  1  0
  4  5  2  0
  5  6  1  0
  6  7  2  0
  7  8  1  0
  8  9  1  0
  9 10  2  0
 10 11  1  0
 11 12  2  0
 12 13  1  0
 13 14  2  0
 14 15  1  0
 15 16  2  0
 10 17  1  0
 17 18  2  0
 18 19  1  0
 19 20  2  0
  5 21  1  0
 21 22  2  0
 22  2  1  0
 20  6  1  0
 18  8  1  0
 16 11  1  0
  3 23  1  0
  4 24  1  0
  7 25  1  0
  9 26  1  0
 12 27  1  0
 13 28  1  0
 14 29  1  0
 15 30  1  0
 16 31  1  0
 17 32  1  0
 19 33  1  0
 21 34  1  0
 22 35  1  0
M  CHG  1   9   1
M  END
>  <UniqueID>  (24) 
22

>  <SMILES>  (24) 
Fc1ccc(-c2cn3[nH+]c(-c4ccccc4)cc3cn2)cc1

>  <Energy>  (24) 
84.94115840259218

>  <Genealogy>  (24) 
Fc1ccc(-c2cn3[nH+]c(-c4ccccc4)cc3cn2)cc1 (protonated)
Fc1ccc(-c2cn3[nH+]c(-c4ccccc4)cc3cn2)cc1 (3D coordinates assigned)
Fc1ccc(-c2cn3[nH+]c(-c4ccccc4)cc3cn2)cc1 (optimized conformer: 84.94115840259218 kcal/mol)

>  <smiles>  (24) 
Fc1ccc(-c2cn3nc(-c4ccccc4)cc3cn2)cc1

>  <score_type>  (24) 
oracle

>  <origin>  (24) 
adg

>  <m_score__min__energy>  (24) 
-6.1299999999999999

>  <m_primary>  (24) 
energy

$$$$
24:0
     RDKit          3D

 41 43  0  0  0  0  0  0  0  0999 V2000
   59.2960   34.9950   46.2530 C   0  0  0  0  0  0  0  0  0  0  0  0
   58.8550   33.8820   45.4230 N   0  0  0  0  0  0  0  0  0  0  0  0
   58.5410   32.6500   45.8620 C   0  0  0  0  0  0  0  0  0  0  0  0
   58.0950   31.9060   44.7850 C   0  0  0  0  0  0  0  0  0  0  0  0
   57.6260   30.5050   44.8140 C   0  0  0  0  0  0  0  0  0  0  0  0
   56.3920   30.2590   44.8940 O   0  0  0  0  0  0  0  0  0  0  0  0
   58.5650   29.4220   44.7140 N   0  0  0  0  0  0  0  0  0  0  0  0
   58.2590   28.0600   45.0640 C   0  0  0  0  0  0  0  0  0  0  0  0
   57.7390   27.7770   46.3350 C   0  0  0  0  0  0  0  0  0  0  0  0
   57.4110   26.4650   46.6910 C   0  0  0  0  0  0  0  0  0  0  0  0
   57.5930   25.4160   45.7770 C   0  0  0  0  0  0  0  0  0  0  0  0
   57.2040   24.0110   46.1450 C   0  0  0  0  0  0  0  0  0  0  0  0
   56.8350   23.2330   44.9110 C   0  0  0  0  0  0  0  0  0  0  0  0
   57.5300   22.0620   44.5750 C   0  0  0  0  0  0  0  0  0  0  0  0
   57.1950   21.3740   43.4060 C   0  0  0  0  0  0  0  0  0  0  0  0
   56.2090   21.8440   42.5980 N   0  0  0  0  0  0  0  0  0  0  0  0
   55.5250   22.9810   42.8930 C   0  0  0  0  0  0  0  0  0  0  0  0
   55.8280   23.7000   44.0520 C   0  0  0  0  0  0  0  0  0  0  0  0
   58.0800   25.7020   44.4920 C   0  0  0  0  0  0  0  0  0  0  0  0
   58.4090   27.0140   44.1370 C   0  0  0  0  0  0  0  0  0  0  0  0
   58.1540   32.7850   43.7060 C   0  0  0  0  0  0  0  0  0  0  0  0
   57.7670   32.5150   42.2850 C   0  0  0  0  0  0  0  0  0  0  0  0
   58.8480   32.7300   41.4510 F   0  0  0  0  0  0  0  0  0  0  0  0
   57.3290   31.2110   42.1560 F   0  0  0  0  0  0  0  0  0  0  0  0
   58.6130   33.9810   44.1260 N   0  0  0  0  0  0  0  0  0  0  0  0
   59.1893   34.7258   47.3142 H   0  0  0  0  0  0  0  0  0  0  0  0
   60.3508   35.2190   46.0358 H   0  0  0  0  0  0  0  0  0  0  0  0
   58.6808   35.8807   46.0358 H   0  0  0  0  0  0  0  0  0  0  0  0
   58.6246   32.2951   46.8998 H   0  0  0  0  0  0  0  0  0  0  0  0
   59.4910   29.6120   44.2670 H   0  0  0  0  0  0  0  0  0  0  0  0
   57.5880   28.5928   47.0573 H   0  0  0  0  0  0  0  0  0  0  0  0
   57.0083   26.2543   47.6927 H   0  0  0  0  0  0  0  0  0  0  0  0
   58.0512   23.5187   46.6449 H   0  0  0  0  0  0  0  0  0  0  0  0
   56.3366   24.0444   46.8206 H   0  0  0  0  0  0  0  0  0  0  0  0
   58.3330   21.6880   45.2271 H   0  0  0  0  0  0  0  0  0  0  0  0
   57.7302   20.4507   43.1395 H   0  0  0  0  0  0  0  0  0  0  0  0
   54.7318   23.3355   42.2183 H   0  0  0  0  0  0  0  0  0  0  0  0
   55.2817   24.6248   44.2894 H   0  0  0  0  0  0  0  0  0  0  0  0
   58.2035   24.8899   43.7604 H   0  0  0  0  0  0  0  0  0  0  0  0
   58.7873   27.2287   43.1267 H   0  0  0  0  0  0  0  0  0  0  0  0
   56.9533   33.1987   42.0013 H   0  0  0  0  0  0  0  0  0  0  0  0
  1  2  1  0
  2  3  1  0
  3  4  2  0
  4  5  1  0
  5  6  2  0
  5  7  1  0
  7  8  1  0
  8  9  2  0
  9 10  1  0
 10 11  2  0
 11 12  1  0
 12 13  1  0
 13 14  2  0
 14 15  1  0
 15 16  2  0
 16 17  1  0
 17 18  2  0
 11 19  1  0
 19 20  2  0
  4 21  1  0
 21 22  1  0
 22 23  1  0
 22 24  1  0
 21 25  2  0
 25  2  1  0
 20  8  1  0
 18 13  1  0
  1 26  1  0
  1 27  1  0
  1 28  1  0
  3 29  1  0
  7 30  1  0
  9 31  1  0
 10 32  1  0
 12 33  1  0
 12 34  1  0
 14 35  1  0
 15 36  1  0
 17 37  1  0
 18 38  1  0
 19 39  1  0
 20 40  1  0
 22 41  1  0
M  END
>  <UniqueID>  (25) 
23

>  <SMILES>  (25) 
Cn1cc(C(=O)Nc2ccc(Cc3ccncc3)cc2)c(C(F)F)n1

>  <Energy>  (25) 
74.93053151131853

>  <Genealogy>  (25) 
Cn1cc(C(=O)Nc2ccc(Cc3ccncc3)cc2)c(C(F)F)n1 (3D coordinates assigned)
Cn1cc(C(=O)Nc2ccc(Cc3ccncc3)cc2)c(C(F)F)n1 (optimized conformer: 74.93053151131853 kcal/mol)

>  <smiles>  (25) 
Cn1cc(C(=O)Nc2ccc(Cc3ccncc3)cc2)c(C(F)F)n1

>  <score_type>  (25) 
oracle

>  <origin>  (25) 
adg

>  <m_score__min__energy>  (25) 
-7.3700000000000001

>  <m_primary>  (25) 
energy

$$$$
25:0
     RDKit          3D

 32 34  0  0  0  0  0  0  0  0999 V2000
   64.4920   32.6980   49.5900 C   0  0  0  0  0  0  0  0  0  0  0  0
   63.6030   32.9590   48.4620 N   0  0  0  0  0  0  0  0  0  0  0  0
   64.0080   33.1060   47.2110 N   0  0  0  0  0  0  0  0  0  0  0  0
   62.9870   33.2990   46.3920 N   0  0  0  0  0  0  0  0  0  0  0  0
   61.8710   33.2860   47.1530 C   0  0  0  0  0  0  0  0  0  0  0  0
   60.5120   33.4990   46.6120 C   0  0  0  0  0  0  0  0  0  0  0  0
   59.5140   32.5150   46.7400 C   0  0  0  0  0  0  0  0  0  0  0  0
   58.2320   32.7390   46.2290 C   0  0  0  0  0  0  0  0  0  0  0  0
   57.9290   33.9490   45.6000 C   0  0  0  0  0  0  0  0  0  0  0  0
   56.6840   34.1650   45.1070 F   0  0  0  0  0  0  0  0  0  0  0  0
   58.9080   34.9400   45.4860 C   0  0  0  0  0  0  0  0  0  0  0  0
   60.1910   34.7210   45.9950 C   0  0  0  0  0  0  0  0  0  0  0  0
   62.2580   33.0740   48.4740 C   0  0  0  0  0  0  0  0  0  0  0  0
   61.3910   32.8640   49.6510 C   0  0  0  0  0  0  0  0  0  0  0  0
   60.4610   33.8440   50.0340 C   0  0  0  0  0  0  0  0  0  0  0  0
   59.6390   33.6400   51.1460 C   0  0  0  0  0  0  0  0  0  0  0  0
   59.7390   32.4560   51.8840 C   0  0  0  0  0  0  0  0  0  0  0  0
   60.6620   31.4760   51.5100 C   0  0  0  0  0  0  0  0  0  0  0  0
   61.4860   31.6770   50.3980 C   0  0  0  0  0  0  0  0  0  0  0  0
   63.9463   32.8582   50.5316 H   0  0  0  0  0  0  0  0  0  0  0  0
   64.8468   31.6578   49.5442 H   0  0  0  0  0  0  0  0  0  0  0  0
   65.3528   33.3813   49.5442 H   0  0  0  0  0  0  0  0  0  0  0  0
   65.0040   33.0640   46.9000 H   0  0  0  0  0  0  0  0  0  0  0  0
   59.7437   31.5649   47.2446 H   0  0  0  0  0  0  0  0  0  0  0  0
   57.4603   31.9607   46.3225 H   0  0  0  0  0  0  0  0  0  0  0  0
   58.6681   35.8944   44.9946 H   0  0  0  0  0  0  0  0  0  0  0  0
   60.9540   35.5091   45.9125 H   0  0  0  0  0  0  0  0  0  0  0  0
   60.3790   34.7765   49.4563 H   0  0  0  0  0  0  0  0  0  0  0  0
   58.9126   34.4115   51.4411 H   0  0  0  0  0  0  0  0  0  0  0  0
   59.0912   32.2965   52.7586 H   0  0  0  0  0  0  0  0  0  0  0  0
   60.7407   30.5452   52.0909 H   0  0  0  0  0  0  0  0  0  0  0  0
   62.2114   30.9031   50.1067 H   0  0  0  0  0  0  0  0  0  0  0  0
  1  2  1  0
  2  3  1  0
  3  4  2  0
  4  5  1  0
  5  6  1  0
  6  7  2  0
  7  8  1  0
  8  9  2  0
  9 10  1  0
  9 11  1  0
 11 12  2  0
  5 13  2  0
 13 14  1  0
 14 15  2  0
 15 16  1  0
 16 17  2  0
 17 18  1  0
 18 19  2  0
 13  2  1  0
 19 14  1  0
 12  6  1  0
  1 20  1  0
  1 21  1  0
  1 22  1  0
  3 23  1  0
  7 24  1  0
  8 25  1  0
 11 26  1  0
 12 27  1  0
 15 28  1  0
 16 29  1  0
 17 30  1  0
 18 31  1  0
 19 32  1  0
M  CHG  1   3   1
M  END
>  <UniqueID>  (26) 
24

>  <SMILES>  (26) 
Cn1[nH+]nc(-c2ccc(F)cc2)c1-c1ccccc1

>  <Energy>  (26) 
78.083159421272

>  <Genealogy>  (26) 
Cn1[nH+]nc(-c2ccc(F)cc2)c1-c1ccccc1 (protonated)
Cn1[nH+]nc(-c2ccc(F)cc2)c1-c1ccccc1 (3D coordinates assigned)
Cn1[nH+]nc(-c2ccc(F)cc2)c1-c1ccccc1 (optimized conformer: 78.083159421272 kcal/mol)

>  <smiles>  (26) 
Cn1nnc(-c2ccc(F)cc2)c1-c1ccccc1

>  <score_type>  (26) 
oracle

>  <origin>  (26) 
adg

>  <m_score__min__energy>  (26) 
-5.6299999999999999

>  <m_primary>  (26) 
energy

$$$$
26:0
     RDKit          3D

 28 30  0  0  0  0  0  0  0  0999 V2000
   55.1690   30.2730   44.4320 O   0  0  0  0  0  0  0  0  0  0  0  0
   56.2750   29.7330   44.6940 C   0  0  0  0  0  0  0  0  0  0  0  0
   56.4120   28.4270   45.2440 N   0  0  0  0  0  0  0  0  0  0  0  0
   57.6960   28.2780   45.3330 C   0  0  0  0  0  0  0  0  0  0  0  0
   58.3360   27.1350   45.8110 C   0  0  0  0  0  0  0  0  0  0  0  0
   59.7420   27.1140   45.8300 C   0  0  0  0  0  0  0  0  0  0  0  0
   60.4790   28.2250   45.3750 C   0  0  0  0  0  0  0  0  0  0  0  0
   59.8210   29.3700   44.8970 C   0  0  0  0  0  0  0  0  0  0  0  0
   58.4240   29.3750   44.8880 C   0  0  0  0  0  0  0  0  0  0  0  0
   57.5870   30.3250   44.4840 C   0  0  0  0  0  0  0  0  0  0  0  0
   57.9060   31.6400   43.8330 C   0  0  0  0  0  0  0  0  0  0  0  0
   58.2200   32.6770   44.8770 C   0  0  0  0  0  0  0  0  0  0  0  0
   58.9080   33.8500   44.5220 C   0  0  0  0  0  0  0  0  0  0  0  0
   59.2320   34.7990   45.4960 C   0  0  0  0  0  0  0  0  0  0  0  0
   58.8790   34.5820   46.8310 C   0  0  0  0  0  0  0  0  0  0  0  0
   58.2020   33.4140   47.1930 C   0  0  0  0  0  0  0  0  0  0  0  0
   57.8760   32.4630   46.2220 C   0  0  0  0  0  0  0  0  0  0  0  0
   57.7550   26.2705   46.1647 H   0  0  0  0  0  0  0  0  0  0  0  0
   60.2700   26.2239   46.2027 H   0  0  0  0  0  0  0  0  0  0  0  0
   61.5784   28.1955   45.3942 H   0  0  0  0  0  0  0  0  0  0  0  0
   60.3908   30.2402   44.5390 H   0  0  0  0  0  0  0  0  0  0  0  0
   58.7762   31.5159   43.1716 H   0  0  0  0  0  0  0  0  0  0  0  0
   57.0340   31.9716   43.2502 H   0  0  0  0  0  0  0  0  0  0  0  0
   59.1927   34.0220   43.4735 H   0  0  0  0  0  0  0  0  0  0  0  0
   59.7655   35.7179   45.2114 H   0  0  0  0  0  0  0  0  0  0  0  0
   59.1339   35.3300   47.5962 H   0  0  0  0  0  0  0  0  0  0  0  0
   57.9253   33.2430   48.2438 H   0  0  0  0  0  0  0  0  0  0  0  0
   57.3477   31.5429   46.5124 H   0  0  0  0  0  0  0  0  0  0  0  0
  1  2  2  0
  2  3  1  0
  3  4  2  0
  4  5  1  0
  5  6  2  0
  6  7  1  0
  7  8  2  0
  8  9  1  0
  9 10  2  0
 10 11  1  0
 11 12  1  0
 12 13  2  0
 13 14  1  0
 14 15  2  0
 15 16  1  0
 16 17  2  0
 10  2  1  0
 17 12  1  0
  9  4  1  0
  5 18  1  0
  6 19  1  0
  7 20  1  0
  8 21  1  0
 11 22  1  0
 11 23  1  0
 13 24  1  0
 14 25  1  0
 15 26  1  0
 16 27  1  0
 17 28  1  0
M  END
>  <UniqueID>  (27) 
25

>  <SMILES>  (27) 
O=C1N=c2ccccc2=C1Cc1ccccc1

>  <Energy>  (27) 
61.13435160710253

>  <Genealogy>  (27) 
O=C1N=c2ccccc2=C1Cc1ccccc1 (3D coordinates assigned)
O=C1N=c2ccccc2=C1Cc1ccccc1 (nonaromatic ring conformer: 61.13435160710253 kcal/mol)

>  <smiles>  (27) 
O=C1N=c2ccccc2=C1Cc1ccccc1

>  <score_type>  (27) 
oracle

>  <origin>  (27) 
adg

>  <m_score__min__energy>  (27) 
-7.4500000000000002

>  <m_primary>  (27) 
energy

$$$$
27:0
     RDKit          3D

 38 40  0  0  0  0  0  0  0  0999 V2000
   58.5150   32.3390   48.6210 C   0  0  0  0  0  0  0  0  0  0  0  0
   59.0290   33.0450   47.4430 N   0  0  0  0  0  0  0  0  0  0  0  0
   59.9960   34.1420   47.6020 C   0  0  0  0  0  0  0  0  0  0  0  0
   59.6180   35.3070   46.6850 C   0  0  0  0  0  0  0  0  0  0  0  0
   59.4470   34.8420   45.3450 O   0  0  0  0  0  0  0  0  0  0  0  0
   58.8250   33.6210   45.0670 C   0  0  0  0  0  0  0  0  0  0  0  0
   58.4470   33.3140   43.7580 C   0  0  0  0  0  0  0  0  0  0  0  0
   57.8020   32.1080   43.4800 C   0  0  0  0  0  0  0  0  0  0  0  0
   57.5290   31.1990   44.5110 C   0  0  0  0  0  0  0  0  0  0  0  0
   56.7200   29.6730   44.1560 S   0  0  0  0  0  0  0  0  0  0  0  0
   56.4370   29.6050   42.6810 O   0  0  0  0  0  0  0  0  0  0  0  0
   55.3990   29.6460   44.8740 O   0  0  0  0  0  0  0  0  0  0  0  0
   57.6550   28.2690   44.6280 N   0  0  0  0  0  0  0  0  0  0  0  0
   57.4860   27.9010   46.0470 C   0  0  0  0  0  0  0  0  0  0  0  0
   58.5270   28.5650   46.9580 C   0  0  0  0  0  0  0  0  0  0  0  0
   59.8330   28.3220   46.4840 O   0  0  0  0  0  0  0  0  0  0  0  0
   59.9920   28.9490   45.2320 C   0  0  0  0  0  0  0  0  0  0  0  0
   59.0620   28.3210   44.1840 C   0  0  0  0  0  0  0  0  0  0  0  0
   57.9380   31.4900   45.8200 C   0  0  0  0  0  0  0  0  0  0  0  0
   58.5880   32.7060   46.1090 C   0  0  0  0  0  0  0  0  0  0  0  0
   58.8768   32.8360   49.5332 H   0  0  0  0  0  0  0  0  0  0  0  0
   57.4152   32.3543   48.6067 H   0  0  0  0  0  0  0  0  0  0  0  0
   58.8674   31.2971   48.6067 H   0  0  0  0  0  0  0  0  0  0  0  0
   59.9906   34.4842   48.6474 H   0  0  0  0  0  0  0  0  0  0  0  0
   61.0000   33.7813   47.3338 H   0  0  0  0  0  0  0  0  0  0  0  0
   58.6777   35.7566   47.0368 H   0  0  0  0  0  0  0  0  0  0  0  0
   60.4224   36.0570   46.7058 H   0  0  0  0  0  0  0  0  0  0  0  0
   58.6580   34.0240   42.9447 H   0  0  0  0  0  0  0  0  0  0  0  0
   57.5067   31.8700   42.4474 H   0  0  0  0  0  0  0  0  0  0  0  0
   56.4827   28.2114   46.3742 H   0  0  0  0  0  0  0  0  0  0  0  0
   57.6205   26.8122   46.1266 H   0  0  0  0  0  0  0  0  0  0  0  0
   58.3473   29.6500   46.9805 H   0  0  0  0  0  0  0  0  0  0  0  0
   58.4335   28.1411   47.9687 H   0  0  0  0  0  0  0  0  0  0  0  0
   59.7530   30.0181   45.3314 H   0  0  0  0  0  0  0  0  0  0  0  0
   61.0332   28.8177   44.9023 H   0  0  0  0  0  0  0  0  0  0  0  0
   59.1179   28.9175   43.2615 H   0  0  0  0  0  0  0  0  0  0  0  0
   59.3970   27.2861   44.0206 H   0  0  0  0  0  0  0  0  0  0  0  0
   57.7504   30.7650   46.6257 H   0  0  0  0  0  0  0  0  0  0  0  0
  1  2  1  0
  2  3  1  0
  3  4  1  0
  4  5  1  0
  5  6  1  0
  6  7  2  0
  7  8  1  0
  8  9  2  0
  9 10  1  0
 10 11  2  0
 10 12  2  0
 10 13  1  0
 13 14  1  0
 14 15  1  0
 15 16  1  0
 16 17  1  0
 17 18  1  0
  9 19  1  0
 19 20  2  0
 20  2  1  0
 20  6  1  0
 18 13  1  0
  1 21  1  0
  1 22  1  0
  1 23  1  0
  3 24  1  0
  3 25  1  0
  4 26  1  0
  4 27  1  0
  7 28  1  0
  8 29  1  0
 14 30  1  0
 14 31  1  0
 15 32  1  0
 15 33  1  0
 17 34  1  0
 17 35  1  0
 18 36  1  0
 18 37  1  0
 19 38  1  0
M  END
>  <UniqueID>  (28) 
26

>  <SMILES>  (28) 
CN1CCOc2ccc(S(=O)(=O)N3CCOCC3)cc21

>  <Energy>  (28) 
44.23177672763191

>  <Genealogy>  (28) 
CN1CCOc2ccc(S(=O)(=O)N3CCOCC3)cc21 (3D coordinates assigned)
CN1CCOc2ccc(S(=O)(=O)N3CCOCC3)cc21 (nonaromatic ring conformer: 44.23177672763191 kcal/mol)

>  <smiles>  (28) 
CN1CCOc2ccc(S(=O)(=O)N3CCOCC3)cc21

>  <score_type>  (28) 
oracle

>  <origin>  (28) 
adg

>  <m_score__min__energy>  (28) 
-7.1699999999999999

>  <m_primary>  (28) 
energy

$$$$
28:0
     RDKit          3D

 41 43  0  0  0  0  0  0  0  0999 V2000
   59.3250   35.2770   45.6700 C   0  0  0  0  0  0  0  0  0  0  0  0
   58.3120   34.3020   45.7800 O   0  0  0  0  0  0  0  0  0  0  0  0
   58.5440   33.2490   44.8640 C   0  0  0  0  0  0  0  0  0  0  0  0
   58.7330   31.9370   45.5950 C   0  0  0  0  0  0  0  0  0  0  0  0
   57.7870   30.9170   45.4060 C   0  0  0  0  0  0  0  0  0  0  0  0
   57.9370   29.6770   46.0470 C   0  0  0  0  0  0  0  0  0  0  0  0
   56.9960   28.6400   45.8910 C   0  0  0  0  0  0  0  0  0  0  0  0
   55.8430   28.8760   45.1360 O   0  0  0  0  0  0  0  0  0  0  0  0
   57.2300   27.4040   46.5410 C   0  0  0  0  0  0  0  0  0  0  0  0
   56.3680   26.2220   46.3560 C   0  0  0  0  0  0  0  0  0  0  0  0
   55.1720   26.3820   45.9910 O   0  0  0  0  0  0  0  0  0  0  0  0
   56.8510   24.9100   46.6670 N   0  0  0  0  0  0  0  0  0  0  0  0
   57.9890   24.2880   46.0020 C   0  0  0  0  0  0  0  0  0  0  0  0
   57.5220   23.4560   44.8390 C   0  0  0  0  0  0  0  0  0  0  0  0
   56.4100   23.8500   44.0770 C   0  0  0  0  0  0  0  0  0  0  0  0
   55.9700   23.0590   43.0100 C   0  0  0  0  0  0  0  0  0  0  0  0
   56.6350   21.8700   42.7000 C   0  0  0  0  0  0  0  0  0  0  0  0
   57.7400   21.4690   43.4550 C   0  0  0  0  0  0  0  0  0  0  0  0
   58.1820   22.2560   44.5230 C   0  0  0  0  0  0  0  0  0  0  0  0
   58.3170   27.2700   47.3520 N   0  0  0  0  0  0  0  0  0  0  0  0
   59.2160   28.2690   47.5410 C   0  0  0  0  0  0  0  0  0  0  0  0
   59.0540   29.4850   46.8810 C   0  0  0  0  0  0  0  0  0  0  0  0
   59.9640   30.4800   47.0490 N   0  0  0  0  0  0  0  0  0  0  0  0
   59.8410   31.6850   46.4330 C   0  0  0  0  0  0  0  0  0  0  0  0
   60.8630   32.6740   46.6630 C   0  0  0  0  0  0  0  0  0  0  0  0
   61.6830   33.4690   46.8480 N   0  0  0  0  0  0  0  0  0  0  0  0
   59.6467   35.5866   46.6753 H   0  0  0  0  0  0  0  0  0  0  0  0
   60.1821   34.8553   45.1244 H   0  0  0  0  0  0  0  0  0  0  0  0
   58.9364   36.1496   45.1244 H   0  0  0  0  0  0  0  0  0  0  0  0
   57.6822   33.1638   44.1858 H   0  0  0  0  0  0  0  0  0  0  0  0
   59.4578   33.4711   44.2933 H   0  0  0  0  0  0  0  0  0  0  0  0
   56.9211   31.0908   44.7502 H   0  0  0  0  0  0  0  0  0  0  0  0
   55.1430   28.1700   44.9540 H   0  0  0  0  0  0  0  0  0  0  0  0
   58.6694   25.0717   45.6377 H   0  0  0  0  0  0  0  0  0  0  0  0
   58.5124   23.6390   46.7195 H   0  0  0  0  0  0  0  0  0  0  0  0
   55.8828   24.7843   44.3200 H   0  0  0  0  0  0  0  0  0  0  0  0
   55.1000   23.3735   42.4149 H   0  0  0  0  0  0  0  0  0  0  0  0
   56.2883   21.2491   41.8608 H   0  0  0  0  0  0  0  0  0  0  0  0
   58.2630   20.5330   43.2090 H   0  0  0  0  0  0  0  0  0  0  0  0
   59.0495   21.9347   45.1181 H   0  0  0  0  0  0  0  0  0  0  0  0
   60.0722   28.1185   48.2150 H   0  0  0  0  0  0  0  0  0  0  0  0
  1  2  1  0
  2  3  1  0
  3  4  1  0
  4  5  2  0
  5  6  1  0
  6  7  2  0
  7  8  1  0
  7  9  1  0
  9 10  1  0
 10 11  2  0
 10 12  1  0
 12 13  1  0
 13 14  1  0
 14 15  2  0
 15 16  1  0
 16 17  2  0
 17 18  1  0
 18 19  2  0
  9 20  2  0
 20 21  1  0
 21 22  2  0
 22 23  1  0
 23 24  2  0
 24 25  1  0
 25 26  3  0
 24  4  1  0
 22  6  1  0
 19 14  1  0
  1 27  1  0
  1 28  1  0
  1 29  1  0
  3 30  1  0
  3 31  1  0
  5 32  1  0
  8 33  1  0
 13 34  1  0
 13 35  1  0
 15 36  1  0
 16 37  1  0
 17 38  1  0
 18 39  1  0
 19 40  1  0
 21 41  1  0
M  CHG  1  12  -1
M  END
>  <UniqueID>  (29) 
27

>  <SMILES>  (29) 
COCc1cc2c(O)c(C(=O)[N-]Cc3ccccc3)ncc2nc1C#N

>  <Energy>  (29) 
53.28302995037559

>  <Genealogy>  (29) 
COCc1cc2c(O)c(C(=O)[N-]Cc3ccccc3)ncc2nc1C#N (protonated)
COCc1cc2c(O)c(C(=O)[N-]Cc3ccccc3)ncc2nc1C#N (3D coordinates assigned)
COCc1cc2c(O)c(C(=O)[N-]Cc3ccccc3)ncc2nc1C#N (optimized conformer: 53.28302995037559 kcal/mol)

>  <smiles>  (29) 
COCc1cc2c(O)c(C(=O)NCc3ccccc3)ncc2nc1C#N

>  <score_type>  (29) 
oracle

>  <origin>  (29) 
adg

>  <m_score__min__energy>  (29) 
-9.5299999999999994

>  <m_primary>  (29) 
energy

$$$$
29:0
     RDKit          3D

 25 26  0  0  0  0  0  0  0  0999 V2000
   59.6420   35.6580   45.6370 O   0  0  0  0  0  0  0  0  0  0  0  0
   59.6260   34.5150   46.1690 C   0  0  0  0  0  0  0  0  0  0  0  0
   60.2820   34.3380   47.4340 N   0  0  0  0  0  0  0  0  0  0  0  0
   61.5050   33.9280   47.6330 C   0  0  0  0  0  0  0  0  0  0  0  0
   61.9860   33.5530   48.9040 C   0  0  0  0  0  0  0  0  0  0  0  0
   63.3060   33.1180   49.0420 C   0  0  0  0  0  0  0  0  0  0  0  0
   64.1200   33.0460   47.9540 N   0  0  0  0  0  0  0  0  0  0  0  0
   63.6770   33.3860   46.7130 C   0  0  0  0  0  0  0  0  0  0  0  0
   62.3640   33.8260   46.5330 C   0  0  0  0  0  0  0  0  0  0  0  0
   58.8680   33.4160   45.5200 C   0  0  0  0  0  0  0  0  0  0  0  0
   58.4990   33.5140   44.1660 C   0  0  0  0  0  0  0  0  0  0  0  0
   57.7840   32.4810   43.5510 C   0  0  0  0  0  0  0  0  0  0  0  0
   57.4260   31.3430   44.2800 C   0  0  0  0  0  0  0  0  0  0  0  0
   56.5310   30.0490   43.5060 Cl  0  0  0  0  0  0  0  0  0  0  0  0
   57.7790   31.2410   45.6290 C   0  0  0  0  0  0  0  0  0  0  0  0
   58.4930   32.2720   46.2480 C   0  0  0  0  0  0  0  0  0  0  0  0
   61.3254   33.6027   49.7821 H   0  0  0  0  0  0  0  0  0  0  0  0
   63.6887   32.8328   50.0331 H   0  0  0  0  0  0  0  0  0  0  0  0
   65.1050   32.7180   48.0740 H   0  0  0  0  0  0  0  0  0  0  0  0
   64.3548   33.3141   45.8496 H   0  0  0  0  0  0  0  0  0  0  0  0
   62.0054   34.0921   45.5277 H   0  0  0  0  0  0  0  0  0  0  0  0
   58.7744   34.4082   43.5876 H   0  0  0  0  0  0  0  0  0  0  0  0
   57.5026   32.5642   42.4909 H   0  0  0  0  0  0  0  0  0  0  0  0
   57.4945   30.3479   46.2047 H   0  0  0  0  0  0  0  0  0  0  0  0
   58.7631   32.1879   47.3110 H   0  0  0  0  0  0  0  0  0  0  0  0
  1  2  2  0
  2  3  1  0
  3  4  2  3
  4  5  1  0
  5  6  2  0
  6  7  1  0
  7  8  1  0
  8  9  2  0
  2 10  1  0
 10 11  2  0
 11 12  1  0
 12 13  2  0
 13 14  1  0
 13 15  1  0
 15 16  2  0
  9  4  1  0
 16 10  1  0
  5 17  1  0
  6 18  1  0
  7 19  1  0
  8 20  1  0
  9 21  1  0
 11 22  1  0
 12 23  1  0
 15 24  1  0
 16 25  1  0
M  END
>  <UniqueID>  (30) 
28

>  <SMILES>  (30) 
O=C(N=c1cc[nH]cc1)c1ccc(Cl)cc1

>  <Energy>  (30) 
36.330568098994014

>  <Genealogy>  (30) 
O=C(N=c1cc[nH]cc1)c1ccc(Cl)cc1 (3D coordinates assigned)
O=C(N=c1cc[nH]cc1)c1ccc(Cl)cc1 (optimized conformer: 36.330568098994014 kcal/mol)

>  <smiles>  (30) 
O=C(N=c1cc[nH]cc1)c1ccc(Cl)cc1

>  <score_type>  (30) 
oracle

>  <origin>  (30) 
adg

>  <m_score__min__energy>  (30) 
-6.4400000000000004

>  <m_primary>  (30) 
energy

$$$$
30:0
     RDKit          3D

 34 35  0  0  0  0  0  0  0  0999 V2000
   59.9219   35.6927   47.2084 H   0  0  0  0  0  0  0  0  0  0  0  0
   59.3500   34.8930   46.7150 C   0  0  0  0  0  0  0  0  0  0  0  0
   58.7230   33.9080   47.4820 C   0  0  0  0  0  0  0  0  0  0  0  0
   58.8073   33.9290   48.5786 H   0  0  0  0  0  0  0  0  0  0  0  0
   57.9880   32.8950   46.8570 C   0  0  0  0  0  0  0  0  0  0  0  0
   57.5087   32.1121   47.4631 H   0  0  0  0  0  0  0  0  0  0  0  0
   57.8600   32.8740   45.4610 C   0  0  0  0  0  0  0  0  0  0  0  0
   57.1320   31.8070   44.8350 N   0  0  0  0  0  0  0  0  0  0  0  0
   56.1990   31.5860   45.2490 H   0  0  0  0  0  0  0  0  0  0  0  0
   57.5390   31.1440   43.7800 C   0  0  0  0  0  0  0  0  0  0  0  0
   58.3490   29.9650   43.9370 N   0  0  0  0  0  0  0  0  0  0  0  0
   59.0360   29.7450   43.1800 H   0  0  0  0  0  0  0  0  0  0  0  0
   58.2100   29.0330   45.0250 C   0  0  0  0  0  0  0  0  0  0  0  0
   57.2030   28.0500   44.9880 C   0  0  0  0  0  0  0  0  0  0  0  0
   56.5039   28.0171   44.1393 H   0  0  0  0  0  0  0  0  0  0  0  0
   57.0840   27.1160   46.0200 C   0  0  0  0  0  0  0  0  0  0  0  0
   56.2868   26.3588   45.9868 H   0  0  0  0  0  0  0  0  0  0  0  0
   57.9750   27.1430   47.0920 C   0  0  0  0  0  0  0  0  0  0  0  0
   57.8798   26.4064   47.9034 H   0  0  0  0  0  0  0  0  0  0  0  0
   58.9880   28.1030   47.1380 C   0  0  0  0  0  0  0  0  0  0  0  0
   59.6927   28.1129   47.9826 H   0  0  0  0  0  0  0  0  0  0  0  0
   59.1140   29.0570   46.1130 C   0  0  0  0  0  0  0  0  0  0  0  0
   60.2150   30.0780   46.1840 C   0  0  0  0  0  0  0  0  0  0  0  0
   60.4476   30.2937   47.2372 H   0  0  0  0  0  0  0  0  0  0  0  0
   61.1122   29.6851   45.6833 H   0  0  0  0  0  0  0  0  0  0  0  0
   59.8908   31.0023   45.6833 H   0  0  0  0  0  0  0  0  0  0  0  0
   57.2500   31.6170   42.3790 C   0  0  0  0  0  0  0  0  0  0  0  0
   56.6769   32.5550   42.4196 H   0  0  0  0  0  0  0  0  0  0  0  0
   58.1975   31.7889   41.8473 H   0  0  0  0  0  0  0  0  0  0  0  0
   56.6647   30.8524   41.8473 H   0  0  0  0  0  0  0  0  0  0  0  0
   58.5160   33.8510   44.6930 C   0  0  0  0  0  0  0  0  0  0  0  0
   58.4514   33.8200   43.5953 H   0  0  0  0  0  0  0  0  0  0  0  0
   59.2510   34.8630   45.3200 C   0  0  0  0  0  0  0  0  0  0  0  0
   59.7508   35.6348   44.7162 H   0  0  0  0  0  0  0  0  0  0  0  0
  1  2  1  0
  2  3  2  0
  3  4  1  0
  3  5  1  0
  5  6  1  0
  5  7  2  0
  7  8  1  0
  8  9  1  0
  8 10  2  0
 10 11  1  0
 11 12  1  0
 11 13  1  0
 13 14  2  0
 14 15  1  0
 14 16  1  0
 16 17  1  0
 16 18  2  0
 18 19  1  0
 18 20  1  0
 20 21  1  0
 20 22  2  0
 22 23  1  0
 23 24  1  0
 23 25  1  0
 23 26  1  0
 10 27  1  0
 27 28  1  0
 27 29  1  0
 27 30  1  0
  7 31  1  0
 31 32  1  0
 31 33  2  0
 33 34  1  0
 33  2  1  0
 22 13  1  0
M  CHG  1   8   1
M  END
>  <UniqueID>  (31) 
29

>  <SMILES>  (31) 
C/C(Nc1ccccc1C)=[NH+]\c1ccccc1

>  <Energy>  (31) 
46.25104540722831

>  <Genealogy>  (31) 
CC(Nc1ccccc1C)=[NH+]c1ccccc1 (protonated)
C/C(Nc1ccccc1C)=[NH+]\c1ccccc1 (cis-trans isomerization)
C/C(Nc1ccccc1C)=[NH+]\c1ccccc1 (3D coordinates assigned)
C/C(Nc1ccccc1C)=[NH+]\c1ccccc1 (optimized conformer: 46.25104540722831 kcal/mol)

>  <smiles>  (31) 
CC(=Nc1ccccc1)Nc1ccccc1C

>  <score_type>  (31) 
oracle

>  <origin>  (31) 
adg

>  <m_score__min__energy>  (31) 
-5.4400000000000004

>  <m_primary>  (31) 
energy

$$$$
31:0
     RDKit          3D

 42 44  0  0  0  0  0  0  0  0999 V2000
   60.3920   34.2230   45.9820 C   0  0  0  0  0  0  0  0  0  0  0  0
   61.5120   33.8520   46.9180 C   0  0  0  0  0  0  0  0  0  0  0  0
   62.7630   33.4980   46.3800 C   0  0  0  0  0  0  0  0  0  0  0  0
   63.8220   33.1430   47.2170 C   0  0  0  0  0  0  0  0  0  0  0  0
   63.6470   33.1310   48.5990 C   0  0  0  0  0  0  0  0  0  0  0  0
   62.4130   33.4750   49.1510 C   0  0  0  0  0  0  0  0  0  0  0  0
   61.3330   33.8400   48.3250 C   0  0  0  0  0  0  0  0  0  0  0  0
   60.0290   34.2460   48.9730 C   0  0  0  0  0  0  0  0  0  0  0  0
   59.2700   32.8640   49.9030 S   0  0  0  0  0  0  0  0  0  0  0  0
   59.0650   31.8010   48.4690 C   0  0  0  0  0  0  0  0  0  0  0  0
   59.6610   30.5880   48.3650 N   0  0  0  0  0  0  0  0  0  0  0  0
   59.2070   30.1030   47.1940 C   0  0  0  0  0  0  0  0  0  0  0  0
   58.3700   30.9990   46.6160 C   0  0  0  0  0  0  0  0  0  0  0  0
   57.7500   30.6980   45.4100 C   0  0  0  0  0  0  0  0  0  0  0  0
   56.9790   31.5320   44.8610 O   0  0  0  0  0  0  0  0  0  0  0  0
   57.9970   29.4700   44.8380 N   0  0  0  0  0  0  0  0  0  0  0  0
   57.3760   29.1220   43.5480 C   0  0  0  0  0  0  0  0  0  0  0  0
   58.8780   28.5840   45.4360 C   0  0  0  0  0  0  0  0  0  0  0  0
   59.1200   27.4730   44.8830 O   0  0  0  0  0  0  0  0  0  0  0  0
   59.4930   28.8980   46.6310 N   0  0  0  0  0  0  0  0  0  0  0  0
   60.4040   27.9680   47.3130 C   0  0  0  0  0  0  0  0  0  0  0  0
   58.2710   32.0890   47.4020 N   0  0  0  0  0  0  0  0  0  0  0  0
   57.4650   33.2890   47.1730 C   0  0  0  0  0  0  0  0  0  0  0  0
   59.5075   34.5160   46.5666 H   0  0  0  0  0  0  0  0  0  0  0  0
   60.7077   35.0646   45.3479 H   0  0  0  0  0  0  0  0  0  0  0  0
   60.1428   33.3594   45.3479 H   0  0  0  0  0  0  0  0  0  0  0  0
   62.9077   33.5011   45.2896 H   0  0  0  0  0  0  0  0  0  0  0  0
   64.7965   32.8722   46.7846 H   0  0  0  0  0  0  0  0  0  0  0  0
   64.4832   32.8498   49.2560 H   0  0  0  0  0  0  0  0  0  0  0  0
   62.2824   33.4609   50.2431 H   0  0  0  0  0  0  0  0  0  0  0  0
   60.2203   35.0785   49.6661 H   0  0  0  0  0  0  0  0  0  0  0  0
   59.3313   34.5453   48.1770 H   0  0  0  0  0  0  0  0  0  0  0  0
   60.3000   30.1350   49.0540 H   0  0  0  0  0  0  0  0  0  0  0  0
   56.4293   28.5915   43.7280 H   0  0  0  0  0  0  0  0  0  0  0  0
   57.1784   30.0408   42.9764 H   0  0  0  0  0  0  0  0  0  0  0  0
   58.0566   28.4738   42.9764 H   0  0  0  0  0  0  0  0  0  0  0  0
   60.2945   28.0798   48.4018 H   0  0  0  0  0  0  0  0  0  0  0  0
   60.1581   26.9356   47.0238 H   0  0  0  0  0  0  0  0  0  0  0  0
   61.4413   28.1926   47.0238 H   0  0  0  0  0  0  0  0  0  0  0  0
   57.1726   33.7243   48.1399 H   0  0  0  0  0  0  0  0  0  0  0  0
   58.0539   34.0231   46.6035 H   0  0  0  0  0  0  0  0  0  0  0  0
   56.5627   33.0215   46.6035 H   0  0  0  0  0  0  0  0  0  0  0  0
  1  2  1  0
  2  3  2  0
  3  4  1  0
  4  5  2  0
  5  6  1  0
  6  7  2  0
  7  8  1  0
  8  9  1  0
  9 10  1  0
 10 11  2  0
 11 12  1  0
 12 13  2  0
 13 14  1  0
 14 15  2  0
 14 16  1  0
 16 17  1  0
 16 18  1  0
 18 19  2  0
 18 20  1  0
 20 21  1  0
 13 22  1  0
 22 23  1  0
  7  2  1  0
 22 10  1  0
 20 12  1  0
  1 24  1  0
  1 25  1  0
  1 26  1  0
  3 27  1  0
  4 28  1  0
  5 29  1  0
  6 30  1  0
  8 31  1  0
  8 32  1  0
 11 33  1  0
 17 34  1  0
 17 35  1  0
 17 36  1  0
 21 37  1  0
 21 38  1  0
 21 39  1  0
 23 40  1  0
 23 41  1  0
 23 42  1  0
M  CHG  1  11   1
M  END
>  <UniqueID>  (32) 
30

>  <SMILES>  (32) 
Cc1ccccc1CSc1[nH+]c2c(c(=O)n(C)c(=O)n2C)n1C

>  <Energy>  (32) 
85.84956838259333

>  <Genealogy>  (32) 
Cc1ccccc1CSc1[nH+]c2c(c(=O)n(C)c(=O)n2C)n1C (protonated)
Cc1ccccc1CSc1[nH+]c2c(c(=O)n(C)c(=O)n2C)n1C (3D coordinates assigned)
Cc1ccccc1CSc1[nH+]c2c(c(=O)n(C)c(=O)n2C)n1C (optimized conformer: 85.84956838259333 kcal/mol)

>  <smiles>  (32) 
Cc1ccccc1CSc1nc2c(c(=O)n(C)c(=O)n2C)n1C

>  <score_type>  (32) 
oracle

>  <origin>  (32) 
adg

>  <m_score__min__energy>  (32) 
-5.6500000000000004

>  <m_primary>  (32) 
energy

$$$$
32:0
     RDKit          3D

 24 25  0  0  0  0  0  0  0  0999 V2000
   55.5220   29.0190   44.8850 O   0  0  0  0  0  0  0  0  0  0  0  0
   56.5810   29.7040   44.8970 C   0  0  0  0  0  0  0  0  0  0  0  0
   56.5590   31.0840   44.5100 N   0  0  0  0  0  0  0  0  0  0  0  0
   57.3980   32.1290   45.0220 C   0  0  0  0  0  0  0  0  0  0  0  0
   57.7770   32.1900   46.3760 C   0  0  0  0  0  0  0  0  0  0  0  0
   58.6150   33.2150   46.8260 C   0  0  0  0  0  0  0  0  0  0  0  0
   59.0930   34.1770   45.9310 C   0  0  0  0  0  0  0  0  0  0  0  0
   59.9070   35.1670   46.3700 F   0  0  0  0  0  0  0  0  0  0  0  0
   58.7390   34.1080   44.5810 C   0  0  0  0  0  0  0  0  0  0  0  0
   57.9010   33.0840   44.1270 C   0  0  0  0  0  0  0  0  0  0  0  0
   57.8640   29.0740   45.2580 C   0  0  0  0  0  0  0  0  0  0  0  0
   59.0010   29.2030   44.4440 C   0  0  0  0  0  0  0  0  0  0  0  0
   60.1650   28.6030   44.8150 N   0  0  0  0  0  0  0  0  0  0  0  0
   60.2470   27.8820   45.9630 C   0  0  0  0  0  0  0  0  0  0  0  0
   59.1210   27.7510   46.7750 C   0  0  0  0  0  0  0  0  0  0  0  0
   57.9580   28.3480   46.4060 N   0  0  0  0  0  0  0  0  0  0  0  0
   57.4130   31.4293   47.0823 H   0  0  0  0  0  0  0  0  0  0  0  0
   58.8991   33.2646   47.8875 H   0  0  0  0  0  0  0  0  0  0  0  0
   59.1198   34.8600   43.8742 H   0  0  0  0  0  0  0  0  0  0  0  0
   57.6350   33.0276   43.0611 H   0  0  0  0  0  0  0  0  0  0  0  0
   58.9512   29.7854   43.5122 H   0  0  0  0  0  0  0  0  0  0  0  0
   61.0090   28.7000   44.2070 H   0  0  0  0  0  0  0  0  0  0  0  0
   61.1954   27.4045   46.2504 H   0  0  0  0  0  0  0  0  0  0  0  0
   59.1741   27.1689   47.7069 H   0  0  0  0  0  0  0  0  0  0  0  0
  1  2  2  0
  2  3  1  0
  3  4  1  0
  4  5  2  0
  5  6  1  0
  6  7  2  0
  7  8  1  0
  7  9  1  0
  9 10  2  0
  2 11  1  0
 11 12  2  0
 12 13  1  0
 13 14  2  0
 14 15  1  0
 15 16  2  0
 10  4  1  0
 16 11  1  0
  5 17  1  0
  6 18  1  0
  9 19  1  0
 10 20  1  0
 12 21  1  0
 13 22  1  0
 14 23  1  0
 15 24  1  0
M  CHG  2   3  -1  13   1
M  END
>  <UniqueID>  (33) 
31

>  <SMILES>  (33) 
O=C([N-]c1ccc(F)cc1)c1c[nH+]ccn1

>  <Energy>  (33) 
29.284834143328194

>  <Genealogy>  (33) 
O=C([N-]c1ccc(F)cc1)c1c[nH+]ccn1 (protonated)
O=C([N-]c1ccc(F)cc1)c1c[nH+]ccn1 (3D coordinates assigned)
O=C([N-]c1ccc(F)cc1)c1c[nH+]ccn1 (optimized conformer: 29.284834143328194 kcal/mol)

>  <smiles>  (33) 
O=C(Nc1ccc(F)cc1)c1cnccn1

>  <score_type>  (33) 
oracle

>  <origin>  (33) 
adg

>  <m_score__min__energy>  (33) 
-6

>  <m_primary>  (33) 
energy

$$$$
33:0
     RDKit          3D

 53 57  0  0  0  0  0  0  0  0999 V2000
   53.4780   30.4940   51.6450 C   0  0  0  0  0  0  0  0  0  0  0  0
   54.8070   30.1700   52.2370 C   0  0  0  0  0  0  0  0  0  0  0  0
   55.9800   30.4200   51.6180 N   0  0  0  0  0  0  0  0  0  0  0  0
   57.0390   29.9630   52.3410 C   0  0  0  0  0  0  0  0  0  0  0  0
   58.4490   30.1030   51.8520 C   0  0  0  0  0  0  0  0  0  0  0  0
   58.4630   30.6920   50.4950 N   0  0  0  0  0  0  0  0  0  0  0  0
   58.0350   32.1080   50.4650 C   0  0  0  0  0  0  0  0  0  0  0  0
   59.1450   33.0940   50.9160 C   0  0  0  0  0  0  0  0  0  0  0  0
   60.4990   32.9130   50.1400 C   0  0  0  0  0  0  0  0  0  0  0  0
   60.8460   31.4080   50.3480 C   0  0  0  0  0  0  0  0  0  0  0  0
   59.7460   30.4930   49.7940 C   0  0  0  0  0  0  0  0  0  0  0  0
   61.5520   33.8210   50.8260 C   0  0  0  0  0  0  0  0  0  0  0  0
   63.0230   33.5020   50.6010 C   0  0  0  0  0  0  0  0  0  0  0  0
   63.8820   33.8100   51.6810 C   0  0  0  0  0  0  0  0  0  0  0  0
   65.2580   33.6190   51.5950 C   0  0  0  0  0  0  0  0  0  0  0  0
   65.8170   33.1260   50.4240 C   0  0  0  0  0  0  0  0  0  0  0  0
   65.0020   32.8350   49.3340 C   0  0  0  0  0  0  0  0  0  0  0  0
   63.6050   33.0390   49.3780 C   0  0  0  0  0  0  0  0  0  0  0  0
   62.8470   32.6050   48.1310 C   0  0  0  0  0  0  0  0  0  0  0  0
   61.5660   33.3330   47.7950 C   0  0  0  0  0  0  0  0  0  0  0  0
   61.4890   33.8940   46.4990 C   0  0  0  0  0  0  0  0  0  0  0  0
   60.3420   34.5320   46.0530 C   0  0  0  0  0  0  0  0  0  0  0  0
   59.2470   34.6390   46.8910 C   0  0  0  0  0  0  0  0  0  0  0  0
   59.2910   34.0980   48.1740 C   0  0  0  0  0  0  0  0  0  0  0  0
   60.4250   33.3820   48.6560 C   0  0  0  0  0  0  0  0  0  0  0  0
   56.7120   29.3240   53.5340 C   0  0  0  0  0  0  0  0  0  0  0  0
   55.0370   29.3400   53.6820 S   0  0  0  0  0  0  0  0  0  0  0  0
   52.7509   30.6713   52.4512 H   0  0  0  0  0  0  0  0  0  0  0  0
   53.5639   31.3975   51.0235 H   0  0  0  0  0  0  0  0  0  0  0  0
   53.1384   29.6523   51.0235 H   0  0  0  0  0  0  0  0  0  0  0  0
   59.0081   30.7567   52.5376 H   0  0  0  0  0  0  0  0  0  0  0  0
   58.9170   29.1082   51.8163 H   0  0  0  0  0  0  0  0  0  0  0  0
   57.7394   32.3617   49.4363 H   0  0  0  0  0  0  0  0  0  0  0  0
   57.1999   32.2112   51.1734 H   0  0  0  0  0  0  0  0  0  0  0  0
   58.7854   34.1208   50.7534 H   0  0  0  0  0  0  0  0  0  0  0  0
   59.3503   32.8861   51.9765 H   0  0  0  0  0  0  0  0  0  0  0  0
   61.7905   31.1846   49.8303 H   0  0  0  0  0  0  0  0  0  0  0  0
   60.9366   31.2219   51.4284 H   0  0  0  0  0  0  0  0  0  0  0  0
   59.6055   30.7120   48.7252 H   0  0  0  0  0  0  0  0  0  0  0  0
   60.0603   29.4499   49.9459 H   0  0  0  0  0  0  0  0  0  0  0  0
   61.3813   34.8475   50.4695 H   0  0  0  0  0  0  0  0  0  0  0  0
   61.3964   33.6586   51.9027 H   0  0  0  0  0  0  0  0  0  0  0  0
   63.4526   34.2101   52.6113 H   0  0  0  0  0  0  0  0  0  0  0  0
   65.9018   33.8585   52.4541 H   0  0  0  0  0  0  0  0  0  0  0  0
   66.9032   32.9655   50.3576 H   0  0  0  0  0  0  0  0  0  0  0  0
   65.4571   32.4362   48.4154 H   0  0  0  0  0  0  0  0  0  0  0  0
   63.5272   32.7261   47.2750 H   0  0  0  0  0  0  0  0  0  0  0  0
   62.5310   31.5732   48.3445 H   0  0  0  0  0  0  0  0  0  0  0  0
   62.3590   33.8224   45.8297 H   0  0  0  0  0  0  0  0  0  0  0  0
   60.3029   34.9514   45.0368 H   0  0  0  0  0  0  0  0  0  0  0  0
   58.3386   35.1528   46.5434 H   0  0  0  0  0  0  0  0  0  0  0  0
   58.4224   34.2277   48.8364 H   0  0  0  0  0  0  0  0  0  0  0  0
   57.4222   28.8869   54.2513 H   0  0  0  0  0  0  0  0  0  0  0  0
  1  2  1  0
  2  3  2  0
  3  4  1  0
  4  5  1  0
  5  6  1  0
  6  7  1  0
  7  8  1  0
  8  9  1  0
  9 10  1  0
 10 11  1  0
  9 12  1  0
 12 13  1  0
 13 14  2  0
 14 15  1  0
 15 16  2  0
 16 17  1  0
 17 18  2  0
 18 19  1  0
 19 20  1  0
 20 21  2  0
 21 22  1  0
 22 23  2  0
 23 24  1  0
 24 25  2  0
  4 26  2  0
 26 27  1  0
 27  2  1  0
 11  6  1  0
 18 13  1  0
 25 20  1  0
 25  9  1  0
  1 28  1  0
  1 29  1  0
  1 30  1  0
  5 31  1  0
  5 32  1  0
  7 33  1  0
  7 34  1  0
  8 35  1  0
  8 36  1  0
 10 37  1  0
 10 38  1  0
 11 39  1  0
 11 40  1  0
 12 41  1  0
 12 42  1  0
 14 43  1  0
 15 44  1  0
 16 45  1  0
 17 46  1  0
 19 47  1  0
 19 48  1  0
 21 49  1  0
 22 50  1  0
 23 51  1  0
 24 52  1  0
 26 53  1  0
M  END
>  <UniqueID>  (34) 
32

>  <SMILES>  (34) 
Cc1nc(CN2CCC3(CC2)Cc2ccccc2Cc2ccccc23)cs1

>  <Energy>  (34) 
122.4642491366287

>  <Genealogy>  (34) 
Cc1nc(CN2CCC3(CC2)Cc2ccccc2Cc2ccccc23)cs1 (3D coordinates assigned)
Cc1nc(CN2CCC3(CC2)Cc2ccccc2Cc2ccccc23)cs1 (nonaromatic ring conformer: 122.4642491366287 kcal/mol)

>  <smiles>  (34) 
Cc1nc(CN2CCC3(CC2)Cc2ccccc2Cc2ccccc23)cs1

>  <score_type>  (34) 
oracle

>  <origin>  (34) 
adg

>  <m_score__min__energy>  (34) 
-7.96

>  <m_primary>  (34) 
energy

$$$$
34:0
     RDKit          3D

 37 39  0  0  1  0  0  0  0  0999 V2000
   55.2480   28.9830   44.4990 O   0  0  0  0  0  0  0  0  0  0  0  0
   56.2940   29.7820   44.8660 C   0  0  0  0  0  0  0  0  0  0  0  0
   56.5020   31.0410   44.3460 C   0  0  0  0  0  0  0  0  0  0  0  0
   57.5640   31.7580   44.7680 N   0  0  0  0  0  0  0  0  0  0  0  0
   58.4330   31.3120   45.6730 C   0  0  0  0  0  0  0  0  0  0  0  0
   59.5870   32.0580   46.1510 C   0  0  0  0  0  0  0  0  0  0  0  0
   60.6600   31.4230   46.7890 C   0  0  0  0  0  0  0  0  0  0  0  0
   61.7540   32.0920   47.2480 C   0  0  0  0  0  0  0  0  0  0  0  0
   61.8460   33.4700   47.0950 C   0  0  0  0  0  0  0  0  0  0  0  0
   62.9440   34.1100   47.5600 F   0  0  0  0  0  0  0  0  0  0  0  0
   60.8040   34.1270   46.4690 C   0  0  0  0  0  0  0  0  0  0  0  0
   59.7060   33.4240   46.0130 C   0  0  0  0  0  0  0  0  0  0  0  0
   58.2280   30.0820   46.1790 N   0  0  0  0  0  0  0  0  0  0  0  0
   57.1890   29.3120   45.8020 C   0  0  0  0  0  0  0  0  0  0  0  0
   57.0730   28.1650   46.3310 N   0  0  0  0  0  0  0  0  0  0  0  0
   57.8920   27.0370   45.9360 C   0  0  0  0  0  0  0  0  0  0  0  0
   56.8650   25.9990   45.4520 C   0  0  1  0  0  0  0  0  0  0  0  0
   57.1630   24.6200   45.9600 C   0  0  0  0  0  0  0  0  0  0  0  0
   55.8020   23.9470   45.7480 C   0  0  0  0  0  0  0  0  0  0  0  0
   54.8840   25.1520   45.6340 C   0  0  0  0  0  0  0  0  0  0  0  0
   55.6220   26.2500   46.0460 O   0  0  0  0  0  0  0  0  0  0  0  0
   55.1490   28.0700   44.9540 H   0  0  0  0  0  0  0  0  0  0  0  0
   55.8115   31.4558   43.5969 H   0  0  0  0  0  0  0  0  0  0  0  0
   57.6910   32.6910   44.3630 H   0  0  0  0  0  0  0  0  0  0  0  0
   60.6172   30.3324   46.9259 H   0  0  0  0  0  0  0  0  0  0  0  0
   62.5673   31.5397   47.7414 H   0  0  0  0  0  0  0  0  0  0  0  0
   60.8493   35.2176   46.3329 H   0  0  0  0  0  0  0  0  0  0  0  0
   58.8933   33.9771   45.5195 H   0  0  0  0  0  0  0  0  0  0  0  0
   58.5808   27.3162   45.1251 H   0  0  0  0  0  0  0  0  0  0  0  0
   58.5274   26.6625   46.7521 H   0  0  0  0  0  0  0  0  0  0  0  0
   56.8867   26.0659   44.3542 H   0  0  0  0  0  0  0  0  0  0  0  0
   57.9539   24.1320   45.3715 H   0  0  0  0  0  0  0  0  0  0  0  0
   57.5382   24.5822   46.9933 H   0  0  0  0  0  0  0  0  0  0  0  0
   55.7905   23.3444   44.8278 H   0  0  0  0  0  0  0  0  0  0  0  0
   55.5208   23.2422   46.5444 H   0  0  0  0  0  0  0  0  0  0  0  0
   54.5571   25.2833   44.5919 H   0  0  0  0  0  0  0  0  0  0  0  0
   53.9825   25.0247   46.2513 H   0  0  0  0  0  0  0  0  0  0  0  0
  1  2  1  0
  2  3  2  0
  3  4  1  0
  4  5  1  0
  5  6  1  0
  6  7  2  0
  7  8  1  0
  8  9  2  0
  9 10  1  0
  9 11  1  0
 11 12  2  0
  5 13  2  0
 13 14  1  0
 14 15  2  0
 15 16  1  0
 16 17  1  0
 17 18  1  0
 18 19  1  0
 19 20  1  0
 20 21  1  0
 14  2  1  0
 21 17  1  0
 12  6  1  0
  1 22  1  0
  3 23  1  0
  4 24  1  0
  7 25  1  0
  8 26  1  0
 11 27  1  0
 12 28  1  0
 16 29  1  0
 16 30  1  0
 17 31  1  6
 18 32  1  0
 18 33  1  0
 19 34  1  0
 19 35  1  0
 20 36  1  0
 20 37  1  0
M  END
>  <smiles>  (35) 
Oc1c[nH]c(-c2ccc(F)cc2)nc1=NCC1CCCO1

>  <score_type>  (35) 
oracle

>  <origin>  (35) 
adg

>  <m_score__min__energy>  (35) 
-7.3700000000000001

>  <m_primary>  (35) 
energy

$$$$
35:0
     RDKit          3D

 31 33  0  0  0  0  0  0  0  0999 V2000
   63.1870   31.6030   47.5490 C   0  0  0  0  0  0  0  0  0  0  0  0
   63.6420   32.8690   47.1290 C   0  0  0  0  0  0  0  0  0  0  0  0
   62.7130   33.8320   46.7090 C   0  0  0  0  0  0  0  0  0  0  0  0
   61.3960   33.5000   46.7240 N   0  0  0  0  0  0  0  0  0  0  0  0
   60.3230   34.2240   46.3850 C   0  0  0  0  0  0  0  0  0  0  0  0
   59.2160   33.4140   46.5880 C   0  0  0  0  0  0  0  0  0  0  0  0
   57.7870   33.8230   46.3910 C   0  0  0  0  0  0  0  0  0  0  0  0
   57.3740   33.7510   44.9150 C   0  0  0  0  0  0  0  0  0  0  0  0
   58.2050   32.7340   44.1260 C   0  0  0  0  0  0  0  0  0  0  0  0
   57.3860   31.5750   43.7880 N   0  0  0  0  0  0  0  0  0  0  0  0
   57.0850   31.1340   42.5540 C   0  0  0  0  0  0  0  0  0  0  0  0
   56.2520   30.0820   42.6280 N   0  0  0  0  0  0  0  0  0  0  0  0
   56.0580   29.9170   43.9520 C   0  0  0  0  0  0  0  0  0  0  0  0
   56.7430   30.8290   44.6720 N   0  0  0  0  0  0  0  0  0  0  0  0
   59.5930   32.2000   47.0600 N   0  0  0  0  0  0  0  0  0  0  0  0
   60.9360   32.3020   47.1210 C   0  0  0  0  0  0  0  0  0  0  0  0
   61.8130   31.3070   47.5500 C   0  0  0  0  0  0  0  0  0  0  0  0
   63.9108   30.8427   47.8777 H   0  0  0  0  0  0  0  0  0  0  0  0
   64.7175   33.1000   47.1306 H   0  0  0  0  0  0  0  0  0  0  0  0
   63.0416   34.8279   46.3769 H   0  0  0  0  0  0  0  0  0  0  0  0
   60.3197   35.2605   46.0168 H   0  0  0  0  0  0  0  0  0  0  0  0
   57.1404   33.1517   46.9752 H   0  0  0  0  0  0  0  0  0  0  0  0
   57.6794   34.8650   46.7266 H   0  0  0  0  0  0  0  0  0  0  0  0
   56.3143   33.4616   44.8582 H   0  0  0  0  0  0  0  0  0  0  0  0
   57.5450   34.7422   44.4697 H   0  0  0  0  0  0  0  0  0  0  0  0
   58.5721   33.2028   43.2011 H   0  0  0  0  0  0  0  0  0  0  0  0
   59.0558   32.4075   44.7420 H   0  0  0  0  0  0  0  0  0  0  0  0
   57.4655   31.5711   41.6191 H   0  0  0  0  0  0  0  0  0  0  0  0
   55.8410   29.5300   41.8440 H   0  0  0  0  0  0  0  0  0  0  0  0
   55.4202   29.1355   44.3907 H   0  0  0  0  0  0  0  0  0  0  0  0
   61.4426   30.3245   47.8779 H   0  0  0  0  0  0  0  0  0  0  0  0
  1  2  1  0
  2  3  2  0
  3  4  1  0
  4  5  1  0
  5  6  2  0
  6  7  1  0
  7  8  1  0
  8  9  1  0
  9 10  1  0
 10 11  1  0
 11 12  2  0
 12 13  1  0
 13 14  2  0
  6 15  1  0
 15 16  2  0
 16 17  1  0
 17  1  2  0
 16  4  1  0
 14 10  1  0
  1 18  1  0
  2 19  1  0
  3 20  1  0
  5 21  1  0
  7 22  1  0
  7 23  1  0
  8 24  1  0
  8 25  1  0
  9 26  1  0
  9 27  1  0
 11 28  1  0
 12 29  1  0
 13 30  1  0
 17 31  1  0
M  CHG  1  12   1
M  END
>  <UniqueID>  (36) 
33

>  <SMILES>  (36) 
c1ccn2cc(CCCn3c[nH+]cn3)nc2c1

>  <Energy>  (36) 
95.68795514694864

>  <Genealogy>  (36) 
c1ccn2cc(CCCn3c[nH+]cn3)nc2c1 (protonated)
c1ccn2cc(CCCn3c[nH+]cn3)nc2c1 (3D coordinates assigned)
c1ccn2cc(CCCn3c[nH+]cn3)nc2c1 (optimized conformer: 95.68795514694864 kcal/mol)

>  <smiles>  (36) 
c1ccn2cc(CCCn3cncn3)nc2c1

>  <score_type>  (36) 
oracle

>  <origin>  (36) 
adg

>  <m_score__min__energy>  (36) 
-5.3399999999999999

>  <m_primary>  (36) 
energy

$$$$
36:0
     RDKit          3D

 37 37  0  0  0  0  0  0  0  0999 V2000
   56.6120   30.2010   43.2950 C   0  0  0  0  0  0  0  0  0  0  0  0
   56.4550   30.8420   44.5560 O   0  0  0  0  0  0  0  0  0  0  0  0
   57.4040   31.6960   45.1430 C   0  0  0  0  0  0  0  0  0  0  0  0
   57.4440   33.0710   44.8480 C   0  0  0  0  0  0  0  0  0  0  0  0
   58.4120   33.8920   45.4270 C   0  0  0  0  0  0  0  0  0  0  0  0
   59.3590   33.3620   46.3150 C   0  0  0  0  0  0  0  0  0  0  0  0
   60.3540   34.2150   46.9100 N   0  0  0  0  0  0  0  0  0  0  0  0
   60.0620   34.9680   47.8620 O   0  0  0  0  0  0  0  0  0  0  0  0
   61.6480   34.2130   46.4420 O   0  0  0  0  0  0  0  0  0  0  0  0
   59.3190   31.9890   46.6130 C   0  0  0  0  0  0  0  0  0  0  0  0
   58.3510   31.1490   46.0310 C   0  0  0  0  0  0  0  0  0  0  0  0
   58.3180   29.7380   46.3240 N   0  0  0  0  0  0  0  0  0  0  0  0
   59.3320   29.0370   47.1170 C   0  0  0  0  0  0  0  0  0  0  0  0
   59.8300   27.7640   46.4130 C   0  0  0  0  0  0  0  0  0  0  0  0
   59.6550   27.8130   44.8850 C   0  0  0  0  0  0  0  0  0  0  0  0
   58.2440   27.5920   44.4950 N   0  0  0  0  0  0  0  0  0  0  0  0
   57.6030   26.6250   45.4010 C   0  0  0  0  0  0  0  0  0  0  0  0
   58.1400   27.1110   43.1070 C   0  0  0  0  0  0  0  0  0  0  0  0
   56.8710   29.1434   43.4510 H   0  0  0  0  0  0  0  0  0  0  0  0
   55.6708   30.2684   42.7297 H   0  0  0  0  0  0  0  0  0  0  0  0
   57.4155   30.6958   42.7297 H   0  0  0  0  0  0  0  0  0  0  0  0
   56.7062   33.5022   44.1553 H   0  0  0  0  0  0  0  0  0  0  0  0
   58.4325   34.9648   45.1847 H   0  0  0  0  0  0  0  0  0  0  0  0
   60.0552   31.5645   47.3115 H   0  0  0  0  0  0  0  0  0  0  0  0
   57.5790   29.1480   45.8780 H   0  0  0  0  0  0  0  0  0  0  0  0
   60.1859   29.7113   47.2788 H   0  0  0  0  0  0  0  0  0  0  0  0
   58.8739   28.7416   48.0725 H   0  0  0  0  0  0  0  0  0  0  0  0
   60.8986   27.6338   46.6392 H   0  0  0  0  0  0  0  0  0  0  0  0
   59.2254   26.9243   46.7862 H   0  0  0  0  0  0  0  0  0  0  0  0
   59.9770   28.7993   44.5194 H   0  0  0  0  0  0  0  0  0  0  0  0
   60.2660   27.0133   44.4410 H   0  0  0  0  0  0  0  0  0  0  0  0
   57.7960   26.9162   46.4441 H   0  0  0  0  0  0  0  0  0  0  0  0
   56.5184   26.6143   45.2180 H   0  0  0  0  0  0  0  0  0  0  0  0
   58.0156   25.6219   45.2180 H   0  0  0  0  0  0  0  0  0  0  0  0
   57.9075   26.0358   43.1080 H   0  0  0  0  0  0  0  0  0  0  0  0
   57.3395   27.6587   42.5881 H   0  0  0  0  0  0  0  0  0  0  0  0
   59.0953   27.2791   42.5881 H   0  0  0  0  0  0  0  0  0  0  0  0
  1  2  1  0
  2  3  1  0
  3  4  2  0
  4  5  1  0
  5  6  2  0
  6  7  1  0
  7  8  2  0
  7  9  1  0
  6 10  1  0
 10 11  2  0
 11 12  1  0
 12 13  1  0
 13 14  1  0
 14 15  1  0
 15 16  1  0
 16 17  1  0
 16 18  1  0
 11  3  1  0
  1 19  1  0
  1 20  1  0
  1 21  1  0
  4 22  1  0
  5 23  1  0
 10 24  1  0
 12 25  1  0
 13 26  1  0
 13 27  1  0
 14 28  1  0
 14 29  1  0
 15 30  1  0
 15 31  1  0
 17 32  1  0
 17 33  1  0
 17 34  1  0
 18 35  1  0
 18 36  1  0
 18 37  1  0
M  CHG  2   7   1   9  -1
M  END
>  <UniqueID>  (37) 
34

>  <SMILES>  (37) 
COc1ccc([N+](=O)[O-])cc1NCCCN(C)C

>  <Energy>  (37) 
31.248791819926534

>  <Genealogy>  (37) 
COc1ccc([N+](=O)[O-])cc1NCCCN(C)C (3D coordinates assigned)
COc1ccc([N+](=O)[O-])cc1NCCCN(C)C (optimized conformer: 31.248791819926534 kcal/mol)

>  <smiles>  (37) 
COc1ccc([N+](=O)[O-])cc1NCCCN(C)C

>  <score_type>  (37) 
oracle

>  <origin>  (37) 
adg

>  <m_score__min__energy>  (37) 
-5.8499999999999996

>  <m_primary>  (37) 
energy

$$$$
37:0
     RDKit          3D

 41 43  0  0  0  0  0  0  0  0999 V2000
   58.9530   29.3710   47.9440 O   0  0  0  0  0  0  0  0  0  0  0  0
   59.8970   30.0800   47.5010 C   0  0  0  0  0  0  0  0  0  0  0  0
   60.8720   30.6920   48.4600 C   0  0  0  0  0  0  0  0  0  0  0  0
   61.6150   31.7700   47.7980 N   0  0  0  0  0  0  0  0  0  0  0  0
   62.9780   31.6940   47.7030 C   0  0  0  0  0  0  0  0  0  0  0  0
   63.7070   32.7250   47.1060 C   0  0  0  0  0  0  0  0  0  0  0  0
   63.0340   33.8420   46.6100 C   0  0  0  0  0  0  0  0  0  0  0  0
   61.6460   33.9160   46.7210 C   0  0  0  0  0  0  0  0  0  0  0  0
   60.9470   32.8670   47.3240 C   0  0  0  0  0  0  0  0  0  0  0  0
   60.0440   30.3040   46.0910 N   0  0  0  0  0  0  0  0  0  0  0  0
   59.0510   29.9360   45.1180 C   0  0  0  0  0  0  0  0  0  0  0  0
   58.9570   28.6080   44.6640 C   0  0  0  0  0  0  0  0  0  0  0  0
   57.9470   28.2330   43.7740 C   0  0  0  0  0  0  0  0  0  0  0  0
   57.8410   26.5730   43.2160 Cl  0  0  0  0  0  0  0  0  0  0  0  0
   57.0130   29.1760   43.3390 C   0  0  0  0  0  0  0  0  0  0  0  0
   57.0860   30.4940   43.7950 C   0  0  0  0  0  0  0  0  0  0  0  0
   58.1000   30.8830   44.6820 C   0  0  0  0  0  0  0  0  0  0  0  0
   58.1730   32.2490   45.1160 N   0  0  0  0  0  0  0  0  0  0  0  0
   58.5260   33.3460   44.2330 C   0  0  0  0  0  0  0  0  0  0  0  0
   58.5410   34.5850   45.1180 C   0  0  0  0  0  0  0  0  0  0  0  0
   57.7680   34.2080   46.3810 C   0  0  0  0  0  0  0  0  0  0  0  0
   57.7730   32.6850   46.4400 C   0  0  0  0  0  0  0  0  0  0  0  0
   60.3264   31.1017   49.3228 H   0  0  0  0  0  0  0  0  0  0  0  0
   61.5790   29.9204   48.7989 H   0  0  0  0  0  0  0  0  0  0  0  0
   63.5040   30.8134   48.1002 H   0  0  0  0  0  0  0  0  0  0  0  0
   64.8021   32.6569   47.0276 H   0  0  0  0  0  0  0  0  0  0  0  0
   63.5952   34.6597   46.1341 H   0  0  0  0  0  0  0  0  0  0  0  0
   61.1054   34.7935   46.3368 H   0  0  0  0  0  0  0  0  0  0  0  0
   59.8525   32.9230   47.4185 H   0  0  0  0  0  0  0  0  0  0  0  0
   60.9480   30.7020   45.7500 H   0  0  0  0  0  0  0  0  0  0  0  0
   59.6838   27.8592   45.0121 H   0  0  0  0  0  0  0  0  0  0  0  0
   56.2195   28.8804   42.6369 H   0  0  0  0  0  0  0  0  0  0  0  0
   56.3435   31.2315   43.4563 H   0  0  0  0  0  0  0  0  0  0  0  0
   59.5178   33.1784   43.7878 H   0  0  0  0  0  0  0  0  0  0  0  0
   57.8157   33.4462   43.3991 H   0  0  0  0  0  0  0  0  0  0  0  0
   59.5751   34.8619   45.3709 H   0  0  0  0  0  0  0  0  0  0  0  0
   58.0876   35.4491   44.6102 H   0  0  0  0  0  0  0  0  0  0  0  0
   58.2622   34.6262   47.2703 H   0  0  0  0  0  0  0  0  0  0  0  0
   56.7429   34.6062   46.3590 H   0  0  0  0  0  0  0  0  0  0  0  0
   58.4910   32.3316   47.1947 H   0  0  0  0  0  0  0  0  0  0  0  0
   56.7886   32.2836   46.7226 H   0  0  0  0  0  0  0  0  0  0  0  0
  1  2  2  0
  2  3  1  0
  3  4  1  0
  4  5  2  0
  5  6  1  0
  6  7  2  0
  7  8  1  0
  8  9  2  0
  2 10  1  0
 10 11  1  0
 11 12  2  0
 12 13  1  0
 13 14  1  0
 13 15  2  0
 15 16  1  0
 16 17  2  0
 17 18  1  0
 18 19  1  0
 19 20  1  0
 20 21  1  0
 21 22  1  0
  9  4  1  0
 17 11  1  0
 22 18  1  0
  3 23  1  0
  3 24  1  0
  5 25  1  0
  6 26  1  0
  7 27  1  0
  8 28  1  0
  9 29  1  0
 10 30  1  0
 12 31  1  0
 15 32  1  0
 16 33  1  0
 19 34  1  0
 19 35  1  0
 20 36  1  0
 20 37  1  0
 21 38  1  0
 21 39  1  0
 22 40  1  0
 22 41  1  0
M  CHG  1   4   1
M  END
>  <UniqueID>  (38) 
35

>  <SMILES>  (38) 
O=C(C[n+]1ccccc1)Nc1cc(Cl)ccc1N1CCCC1

>  <Energy>  (38) 
49.467038941576156

>  <Genealogy>  (38) 
O=C(C[n+]1ccccc1)Nc1cc(Cl)ccc1N1CCCC1 (3D coordinates assigned)
O=C(C[n+]1ccccc1)Nc1cc(Cl)ccc1N1CCCC1 (nonaromatic ring conformer: 49.467038941576156 kcal/mol)

>  <smiles>  (38) 
O=C(C[n+]1ccccc1)Nc1cc(Cl)ccc1N1CCCC1

>  <score_type>  (38) 
oracle

>  <origin>  (38) 
adg

>  <m_score__min__energy>  (38) 
-5.7800000000000002

>  <m_primary>  (38) 
energy

$$$$
38:0
     RDKit          3D

 28 30  0  0  1  0  0  0  0  0999 V2000
   59.2540   34.6360   48.4580 F   0  0  0  0  0  0  0  0  0  0  0  0
   58.9570   34.2900   47.1610 C   0  0  0  0  0  0  0  0  0  0  0  0
   59.5510   34.9910   46.1380 C   0  0  0  0  0  0  0  0  0  0  0  0
   59.2440   34.6300   44.8400 C   0  0  0  0  0  0  0  0  0  0  0  0
   58.3710   33.6020   44.5390 C   0  0  0  0  0  0  0  0  0  0  0  0
   57.7580   32.8790   45.5950 C   0  0  0  0  0  0  0  0  0  0  0  0
   56.9820   31.8010   45.2610 N   0  0  0  0  0  0  0  0  0  0  0  0
   57.1220   30.7720   44.5780 C   0  0  0  0  0  0  0  0  0  0  0  0
   56.3700   30.5860   43.4910 N   0  0  0  0  0  0  0  0  0  0  0  0
   56.4400   29.5130   42.6860 C   0  0  0  0  0  0  0  0  0  0  0  0
   57.3490   28.5710   43.0300 N   0  0  0  0  0  0  0  0  0  0  0  0
   58.1260   28.7230   44.1180 C   0  0  0  0  0  0  0  0  0  0  0  0
   59.0230   27.7330   44.4090 C   0  0  0  0  0  0  0  0  0  0  0  0
   59.8100   27.8880   45.5130 C   0  0  0  0  0  0  0  0  0  0  0  0
   59.7790   28.9540   46.3620 C   0  0  0  0  0  0  0  0  0  0  0  0
   58.8500   29.9640   46.0470 C   0  0  0  0  0  0  0  0  0  0  0  0
   58.0510   29.8330   44.9500 C   0  0  0  0  0  0  0  0  0  0  0  0
   58.0760   33.2510   46.9300 C   0  0  0  0  0  0  0  0  0  0  0  0
   60.2497   35.8146   46.3467 H   0  0  0  0  0  0  0  0  0  0  0  0
   59.7134   35.1831   44.0131 H   0  0  0  0  0  0  0  0  0  0  0  0
   58.1534   33.3467   43.4914 H   0  0  0  0  0  0  0  0  0  0  0  0
   55.6620   31.3130   43.2170 H   0  0  0  0  0  0  0  0  0  0  0  0
   55.7969   29.4062   41.8000 H   0  0  0  0  0  0  0  0  0  0  0  0
   59.1076   26.8395   43.7731 H   0  0  0  0  0  0  0  0  0  0  0  0
   60.5291   27.0861   45.7363 H   0  0  0  0  0  0  0  0  0  0  0  0
   60.4392   29.0210   47.2393 H   0  0  0  0  0  0  0  0  0  0  0  0
   58.7690   30.8568   46.6845 H   0  0  0  0  0  0  0  0  0  0  0  0
   57.6223   32.7136   47.7758 H   0  0  0  0  0  0  0  0  0  0  0  0
  1  2  1  0
  2  3  2  0
  3  4  1  0
  4  5  2  0
  5  6  1  0
  6  7  1  0
  7  8  2  0
  8  9  1  0
  9 10  1  0
 10 11  2  0
 11 12  1  0
 12 13  2  0
 13 14  1  0
 14 15  2  0
 15 16  1  0
 16 17  2  0
  6 18  2  0
 18  2  1  0
 17  8  1  0
 17 12  1  0
  3 19  1  0
  4 20  1  0
  5 21  1  0
  9 22  1  0
 10 23  1  0
 13 24  1  0
 14 25  1  0
 15 26  1  0
 16 27  1  0
 18 28  1  0
M  END
>  <smiles>  (39) 
Fc1cccc(N=c2[nH]cnc3ccccc23)c1

>  <score_type>  (39) 
oracle

>  <origin>  (39) 
adg

>  <m_score__min__energy>  (39) 
-6.4500000000000002

>  <m_primary>  (39) 
energy

$$$$
39:0
     RDKit          3D

 41 43  0  0  0  0  0  0  0  0999 V2000
   56.1900   22.5950   48.3830 C   0  0  0  0  0  0  0  0  0  0  0  0
   57.2620   22.5700   47.4470 O   0  0  0  0  0  0  0  0  0  0  0  0
   57.1400   22.8980   46.0860 C   0  0  0  0  0  0  0  0  0  0  0  0
   56.8740   21.9190   45.1090 C   0  0  0  0  0  0  0  0  0  0  0  0
   56.7470   22.2760   43.7640 C   0  0  0  0  0  0  0  0  0  0  0  0
   56.8800   23.6090   43.3790 C   0  0  0  0  0  0  0  0  0  0  0  0
   57.1450   24.5900   44.3350 C   0  0  0  0  0  0  0  0  0  0  0  0
   57.2880   24.2460   45.6910 C   0  0  0  0  0  0  0  0  0  0  0  0
   57.5340   25.3330   46.7070 C   0  0  0  0  0  0  0  0  0  0  0  0
   57.4820   26.6830   46.0480 C   0  0  0  0  0  0  0  0  0  0  0  0
   58.6480   27.3050   45.7240 N   0  0  0  0  0  0  0  0  0  0  0  0
   58.6680   28.5100   45.0990 C   0  0  0  0  0  0  0  0  0  0  0  0
   59.7720   29.0460   44.8160 O   0  0  0  0  0  0  0  0  0  0  0  0
   57.4520   29.1390   44.7760 C   0  0  0  0  0  0  0  0  0  0  0  0
   57.4050   30.4500   44.0420 C   0  0  0  0  0  0  0  0  0  0  0  0
   57.8260   31.5700   44.9520 C   0  0  0  0  0  0  0  0  0  0  0  0
   57.8130   32.8990   44.5000 C   0  0  0  0  0  0  0  0  0  0  0  0
   58.1710   33.9410   45.3610 C   0  0  0  0  0  0  0  0  0  0  0  0
   58.5390   33.6680   46.6820 C   0  0  0  0  0  0  0  0  0  0  0  0
   58.8930   34.7160   47.5280 O   0  0  0  0  0  0  0  0  0  0  0  0
   58.5450   32.3450   47.1420 C   0  0  0  0  0  0  0  0  0  0  0  0
   58.1870   31.3010   46.2840 C   0  0  0  0  0  0  0  0  0  0  0  0
   56.2870   28.5110   45.0870 N   0  0  0  0  0  0  0  0  0  0  0  0
   56.2680   27.3060   45.7130 C   0  0  0  0  0  0  0  0  0  0  0  0
   55.0470   26.7120   46.0140 O   0  0  0  0  0  0  0  0  0  0  0  0
   56.5957   22.5855   49.4054 H   0  0  0  0  0  0  0  0  0  0  0  0
   55.5939   23.5073   48.2335 H   0  0  0  0  0  0  0  0  0  0  0  0
   55.5520   21.7115   48.2335 H   0  0  0  0  0  0  0  0  0  0  0  0
   56.7654   20.8657   45.4069 H   0  0  0  0  0  0  0  0  0  0  0  0
   56.5418   21.5039   43.0079 H   0  0  0  0  0  0  0  0  0  0  0  0
   56.7759   23.8879   42.3200 H   0  0  0  0  0  0  0  0  0  0  0  0
   57.2429   25.6410   44.0255 H   0  0  0  0  0  0  0  0  0  0  0  0
   56.7620   25.2807   47.4888 H   0  0  0  0  0  0  0  0  0  0  0  0
   58.5299   25.1893   47.1514 H   0  0  0  0  0  0  0  0  0  0  0  0
   58.0856   30.4078   43.1789 H   0  0  0  0  0  0  0  0  0  0  0  0
   56.3757   30.6331   43.7000 H   0  0  0  0  0  0  0  0  0  0  0  0
   57.5198   33.1217   43.4635 H   0  0  0  0  0  0  0  0  0  0  0  0
   58.1631   34.9793   44.9977 H   0  0  0  0  0  0  0  0  0  0  0  0
   59.3120   35.5660   47.1720 H   0  0  0  0  0  0  0  0  0  0  0  0
   58.8322   32.1269   48.1812 H   0  0  0  0  0  0  0  0  0  0  0  0
   58.1877   30.2646   46.6526 H   0  0  0  0  0  0  0  0  0  0  0  0
  1  2  1  0
  2  3  1  0
  3  4  2  0
  4  5  1  0
  5  6  2  0
  6  7  1  0
  7  8  2  0
  8  9  1  0
  9 10  1  0
 10 11  1  0
 11 12  1  0
 12 13  2  0
 12 14  1  0
 14 15  1  0
 15 16  1  0
 16 17  2  0
 17 18  1  0
 18 19  2  0
 19 20  1  0
 19 21  1  0
 21 22  2  0
 14 23  2  0
 23 24  1  0
 24 25  1  0
  8  3  1  0
 24 10  2  0
 22 16  1  0
  1 26  1  0
  1 27  1  0
  1 28  1  0
  4 29  1  0
  5 30  1  0
  6 31  1  0
  7 32  1  0
  9 33  1  0
  9 34  1  0
 15 35  1  0
 15 36  1  0
 17 37  1  0
 18 38  1  0
 20 39  1  0
 21 40  1  0
 22 41  1  0
M  CHG  2  11  -1  25  -1
M  END
>  <UniqueID>  (40) 
36

>  <SMILES>  (40) 
COc1ccccc1Cc1[n-]c(=O)c(Cc2ccc(O)cc2)nc1[O-]

>  <Energy>  (40) 
43.414181421056554

>  <Genealogy>  (40) 
COc1ccccc1Cc1[n-]c(=O)c(Cc2ccc(O)cc2)nc1[O-] (protonated)
COc1ccccc1Cc1[n-]c(=O)c(Cc2ccc(O)cc2)nc1[O-] (3D coordinates assigned)
COc1ccccc1Cc1[n-]c(=O)c(Cc2ccc(O)cc2)nc1[O-] (optimized conformer: 43.414181421056554 kcal/mol)

>  <smiles>  (40) 
COc1ccccc1Cc1[nH]c(=O)c(Cc2ccc(O)cc2)nc1O

>  <score_type>  (40) 
oracle

>  <origin>  (40) 
adg

>  <m_score__min__energy>  (40) 
-12.18

>  <m_primary>  (40) 
energy

$$$$
40:0
     RDKit          3D

 18 19  0  0  0  0  0  0  0  0999 V2000
   60.4010   30.1240   47.3120 C   0  0  0  0  0  0  0  0  0  0  0  0
   60.0330   29.5470   46.3180 C   0  0  0  0  0  0  0  0  0  0  0  0
   59.5850   28.8490   45.1100 C   0  0  0  0  0  0  0  0  0  0  0  0
   58.1540   28.5460   45.2080 N   0  0  0  0  0  0  0  0  0  0  0  0
   57.0990   29.3850   44.9980 C   0  0  0  0  0  0  0  0  0  0  0  0
   57.2480   30.9480   44.5280 S   0  0  0  0  0  0  0  0  0  0  0  0
   55.8880   28.8170   45.2360 N   0  0  0  0  0  0  0  0  0  0  0  0
   56.2240   27.5730   45.6180 C   0  0  0  0  0  0  0  0  0  0  0  0
   55.3710   26.5930   45.9970 N   0  0  0  0  0  0  0  0  0  0  0  0
   55.8950   25.3920   46.3870 C   0  0  0  0  0  0  0  0  0  0  0  0
   55.1260   24.4600   46.7400 O   0  0  0  0  0  0  0  0  0  0  0  0
   57.2510   25.1970   46.3990 N   0  0  0  0  0  0  0  0  0  0  0  0
   58.1150   26.1850   46.0220 C   0  0  0  0  0  0  0  0  0  0  0  0
   59.3570   25.9870   46.0520 O   0  0  0  0  0  0  0  0  0  0  0  0
   57.5710   27.4030   45.6150 C   0  0  0  0  0  0  0  0  0  0  0  0
   60.7364   30.6499   48.2180 H   0  0  0  0  0  0  0  0  0  0  0  0
   59.7628   29.4883   44.2327 H   0  0  0  0  0  0  0  0  0  0  0  0
   60.1470   27.9091   45.0065 H   0  0  0  0  0  0  0  0  0  0  0  0
  1  2  3  0
  2  3  1  0
  3  4  1  0
  4  5  1  0
  5  6  2  0
  5  7  1  0
  7  8  1  0
  8  9  1  0
  9 10  1  0
 10 11  2  0
 10 12  1  0
 12 13  1  0
 13 14  2  0
 13 15  1  0
 15  4  1  0
 15  8  2  0
  1 16  1  0
  3 17  1  0
  3 18  1  0
M  CHG  3   7  -1   9  -1  12  -1
M  END
>  <UniqueID>  (41) 
37

>  <SMILES>  (41) 
C#CCn1c(=S)[n-]c2[n-]c(=O)[n-]c(=O)c21

>  <Energy>  (41) 
59.126844232137

>  <Genealogy>  (41) 
C#CCn1c(=S)[n-]c2[n-]c(=O)[n-]c(=O)c21 (protonated)
C#CCn1c(=S)[n-]c2[n-]c(=O)[n-]c(=O)c21 (3D coordinates assigned)
C#CCn1c(=S)[n-]c2[n-]c(=O)[n-]c(=O)c21 (optimized conformer: 59.126844232137 kcal/mol)

>  <smiles>  (41) 
C#CCn1c(=S)[nH]c2[nH]c(=O)[nH]c(=O)c21

>  <score_type>  (41) 
oracle

>  <origin>  (41) 
adg

>  <m_score__min__energy>  (41) 
-12.380000000000001

>  <m_primary>  (41) 
energy

$$$$
41:0
     RDKit          3D

 36 37  0  0  0  0  0  0  0  0999 V2000
   59.6040   34.0680   47.8170 C   0  0  0  0  0  0  0  0  0  0  0  0
   58.8390   33.4400   46.6800 C   0  0  0  0  0  0  0  0  0  0  0  0
   58.5250   34.2280   45.5610 C   0  0  0  0  0  0  0  0  0  0  0  0
   57.8410   33.6790   44.4780 C   0  0  0  0  0  0  0  0  0  0  0  0
   57.4380   32.3470   44.5080 C   0  0  0  0  0  0  0  0  0  0  0  0
   57.7030   31.5490   45.6250 C   0  0  0  0  0  0  0  0  0  0  0  0
   57.2160   30.2010   45.6210 N   0  0  0  0  0  0  0  0  0  0  0  0
   56.3920   29.6170   44.6020 C   0  0  0  0  0  0  0  0  0  0  0  0
   55.1850   29.3760   44.8640 O   0  0  0  0  0  0  0  0  0  0  0  0
   56.9330   29.2250   43.2560 C   0  0  0  0  0  0  0  0  0  0  0  0
   57.7770   27.6100   43.3510 S   0  0  0  0  0  0  0  0  0  0  0  0
   58.9980   28.1480   44.5540 C   0  0  0  0  0  0  0  0  0  0  0  0
   59.6690   29.3100   44.4560 N   0  0  0  0  0  0  0  0  0  0  0  0
   60.5220   29.3220   45.4970 C   0  0  0  0  0  0  0  0  0  0  0  0
   60.3610   28.1530   46.2130 C   0  0  0  0  0  0  0  0  0  0  0  0
   59.3910   27.4270   45.6260 N   0  0  0  0  0  0  0  0  0  0  0  0
   58.9740   26.0790   45.9950 C   0  0  0  0  0  0  0  0  0  0  0  0
   58.4720   32.0700   46.6980 C   0  0  0  0  0  0  0  0  0  0  0  0
   58.8930   31.1810   47.8470 C   0  0  0  0  0  0  0  0  0  0  0  0
   59.1855   33.7244   48.7745 H   0  0  0  0  0  0  0  0  0  0  0  0
   60.6623   33.7747   47.7531 H   0  0  0  0  0  0  0  0  0  0  0  0
   59.5225   35.1631   47.7531 H   0  0  0  0  0  0  0  0  0  0  0  0
   58.8213   35.2871   45.5391 H   0  0  0  0  0  0  0  0  0  0  0  0
   57.6191   34.2997   43.5974 H   0  0  0  0  0  0  0  0  0  0  0  0
   56.9065   31.9186   43.6455 H   0  0  0  0  0  0  0  0  0  0  0  0
   56.1025   29.1576   42.5379 H   0  0  0  0  0  0  0  0  0  0  0  0
   57.6570   29.9857   42.9287 H   0  0  0  0  0  0  0  0  0  0  0  0
   59.5630   30.0430   43.7210 H   0  0  0  0  0  0  0  0  0  0  0  0
   61.2297   30.1291   45.7372 H   0  0  0  0  0  0  0  0  0  0  0  0
   60.9283   27.8639   47.1100 H   0  0  0  0  0  0  0  0  0  0  0  0
   58.9467   25.9908   47.0911 H   0  0  0  0  0  0  0  0  0  0  0  0
   57.9724   25.8802   45.5861 H   0  0  0  0  0  0  0  0  0  0  0  0
   59.6884   25.3493   45.5861 H   0  0  0  0  0  0  0  0  0  0  0  0
   58.6579   31.6775   48.8000 H   0  0  0  0  0  0  0  0  0  0  0  0
   58.3519   30.2251   47.7883 H   0  0  0  0  0  0  0  0  0  0  0  0
   59.9754   30.9939   47.7883 H   0  0  0  0  0  0  0  0  0  0  0  0
  1  2  1  0
  2  3  2  0
  3  4  1  0
  4  5  2  0
  5  6  1  0
  6  7  1  0
  7  8  1  0
  8  9  2  0
  8 10  1  0
 10 11  1  0
 11 12  1  0
 12 13  2  0
 13 14  1  0
 14 15  2  0
 15 16  1  0
 16 17  1  0
  6 18  2  0
 18 19  1  0
 18  2  1  0
 16 12  1  0
  1 20  1  0
  1 21  1  0
  1 22  1  0
  3 23  1  0
  4 24  1  0
  5 25  1  0
 10 26  1  0
 10 27  1  0
 13 28  1  0
 14 29  1  0
 15 30  1  0
 17 31  1  0
 17 32  1  0
 17 33  1  0
 19 34  1  0
 19 35  1  0
 19 36  1  0
M  CHG  2   7  -1  13   1
M  END
>  <UniqueID>  (42) 
38

>  <SMILES>  (42) 
Cc1cccc([N-]C(=O)CSc2[nH+]ccn2C)c1C

>  <Energy>  (42) 
66.85622920275837

>  <Genealogy>  (42) 
Cc1cccc([N-]C(=O)CSc2[nH+]ccn2C)c1C (protonated)
Cc1cccc([N-]C(=O)CSc2[nH+]ccn2C)c1C (3D coordinates assigned)
Cc1cccc([N-]C(=O)CSc2[nH+]ccn2C)c1C (optimized conformer: 66.85622920275837 kcal/mol)

>  <smiles>  (42) 
Cc1cccc(NC(=O)CSc2nccn2C)c1C

>  <score_type>  (42) 
oracle

>  <origin>  (42) 
adg

>  <m_score__min__energy>  (42) 
-7.0199999999999996

>  <m_primary>  (42) 
energy

$$$$
42:0
     RDKit          3D

 34 36  0  0  0  0  0  0  0  0999 V2000
   57.4600   26.8160   45.9870 S   0  0  0  0  0  0  0  0  0  0  0  0
   57.2080   28.3540   45.5590 C   0  0  0  0  0  0  0  0  0  0  0  0
   56.0070   28.7620   45.0640 N   0  0  0  0  0  0  0  0  0  0  0  0
   56.1210   30.0500   44.8600 N   0  0  0  0  0  0  0  0  0  0  0  0
   57.3700   30.4560   45.2170 C   0  0  0  0  0  0  0  0  0  0  0  0
   57.7680   31.8450   45.1200 C   0  0  0  0  0  0  0  0  0  0  0  0
   57.4430   32.6480   46.2260 C   0  0  0  0  0  0  0  0  0  0  0  0
   57.7370   33.9810   46.2640 C   0  0  0  0  0  0  0  0  0  0  0  0
   58.3740   34.5770   45.1870 C   0  0  0  0  0  0  0  0  0  0  0  0
   58.6940   33.7840   44.1010 C   0  0  0  0  0  0  0  0  0  0  0  0
   58.3990   32.4230   44.0490 C   0  0  0  0  0  0  0  0  0  0  0  0
   58.0700   29.3670   45.6650 N   0  0  0  0  0  0  0  0  0  0  0  0
   59.3790   29.4500   46.0760 N   0  0  0  0  0  0  0  0  0  0  0  0
   59.9780   29.7560   47.3120 C   0  0  0  0  0  0  0  0  0  0  0  0
   60.2370   31.1470   47.6700 C   0  0  0  0  0  0  0  0  0  0  0  0
   61.1320   32.0110   47.1140 C   0  0  0  0  0  0  0  0  0  0  0  0
   61.3230   33.3280   47.4600 C   0  0  0  0  0  0  0  0  0  0  0  0
   60.5300   33.8550   48.4880 C   0  0  0  0  0  0  0  0  0  0  0  0
   59.6210   33.0220   49.0700 C   0  0  0  0  0  0  0  0  0  0  0  0
   59.4370   31.6870   48.7090 C   0  0  0  0  0  0  0  0  0  0  0  0
   55.1540   28.1900   44.8770 H   0  0  0  0  0  0  0  0  0  0  0  0
   56.9362   32.1890   47.0877 H   0  0  0  0  0  0  0  0  0  0  0  0
   57.4690   34.5800   47.1468 H   0  0  0  0  0  0  0  0  0  0  0  0
   58.6178   35.6496   45.1962 H   0  0  0  0  0  0  0  0  0  0  0  0
   59.2026   34.2464   43.2422 H   0  0  0  0  0  0  0  0  0  0  0  0
   58.6672   31.8243   43.1660 H   0  0  0  0  0  0  0  0  0  0  0  0
   60.1050   29.2410   45.2840 H   0  0  0  0  0  0  0  0  0  0  0  0
   59.3234   29.3429   48.0936 H   0  0  0  0  0  0  0  0  0  0  0  0
   60.9860   29.3255   47.2194 H   0  0  0  0  0  0  0  0  0  0  0  0
   61.7657   31.6149   46.3068 H   0  0  0  0  0  0  0  0  0  0  0  0
   62.0734   33.9473   46.9468 H   0  0  0  0  0  0  0  0  0  0  0  0
   60.6367   34.9005   48.8129 H   0  0  0  0  0  0  0  0  0  0  0  0
   58.9924   33.4286   49.8759 H   0  0  0  0  0  0  0  0  0  0  0  0
   58.6866   31.0658   49.2199 H   0  0  0  0  0  0  0  0  0  0  0  0
  1  2  2  0
  2  3  1  0
  3  4  1  0
  4  5  2  0
  5  6  1  0
  6  7  2  0
  7  8  1  0
  8  9  2  0
  9 10  1  0
 10 11  2  0
  5 12  1  0
 12 13  1  0
 13 14  1  0
 14 15  1  0
 15 16  2  0
 16 17  1  0
 17 18  2  0
 18 19  1  0
 19 20  2  0
 12  2  1  0
 20 15  1  0
 11  6  1  0
  3 21  1  0
  7 22  1  0
  8 23  1  0
  9 24  1  0
 10 25  1  0
 11 26  1  0
 13 27  1  0
 14 28  1  0
 14 29  1  0
 16 30  1  0
 17 31  1  0
 18 32  1  0
 19 33  1  0
 20 34  1  0
M  END
>  <smiles>  (43) 
S=c1[nH]nc(-c2ccccc2)n1NCc1ccccc1

>  <score_type>  (43) 
oracle

>  <origin>  (43) 
adg

>  <m_score__min__energy>  (43) 
-7.3399999999999999

>  <m_primary>  (43) 
energy

$$$$
43:0
     RDKit          3D

 48 52  0  0  0  0  0  0  0  0999 V2000
   59.6610   28.5630   45.7240 C   0  0  0  0  0  0  0  0  0  0  0  0
   58.7070   27.6430   46.2000 C   0  0  0  0  0  0  0  0  0  0  0  0
   57.3470   27.8550   45.9280 C   0  0  0  0  0  0  0  0  0  0  0  0
   56.9980   28.9540   45.2110 N   0  0  0  0  0  0  0  0  0  0  0  0
   55.7720   29.2970   44.8510 N   0  0  0  0  0  0  0  0  0  0  0  0
   55.8800   30.4450   44.1410 C   0  0  0  0  0  0  0  0  0  0  0  0
   57.2140   30.8300   44.0650 C   0  0  0  0  0  0  0  0  0  0  0  0
   57.7830   31.9910   43.3030 C   0  0  0  0  0  0  0  0  0  0  0  0
   57.6810   33.2920   44.1110 C   0  0  0  0  0  0  0  0  0  0  0  0
   58.6900   33.3410   45.1910 N   0  0  0  0  0  0  0  0  0  0  0  0
   58.0870   32.9970   46.4880 C   0  0  0  0  0  0  0  0  0  0  0  0
   59.2060   32.7350   47.4940 C   0  0  0  0  0  0  0  0  0  0  0  0
   60.2540   33.7600   47.4010 N   0  0  0  0  0  0  0  0  0  0  0  0
   61.4250   33.6550   48.2340 C   0  0  0  0  0  0  0  0  0  0  0  0
   61.7760   34.5850   49.1530 N   0  0  0  0  0  0  0  0  0  0  0  0
   62.8950   34.2840   49.8080 N   0  0  0  0  0  0  0  0  0  0  0  0
   63.4430   33.1120   49.4160 C   0  0  0  0  0  0  0  0  0  0  0  0
   64.6510   32.5810   49.9750 N   0  0  0  0  0  0  0  0  0  0  0  0
   64.7660   31.4790   50.7440 C   0  0  0  0  0  0  0  0  0  0  0  0
   66.0880   31.2880   51.0880 C   0  0  0  0  0  0  0  0  0  0  0  0
   66.8020   32.3150   50.5030 C   0  0  0  0  0  0  0  0  0  0  0  0
   65.8880   33.0950   49.8250 C   0  0  0  0  0  0  0  0  0  0  0  0
   62.5320   32.3780   48.2010 S   0  0  0  0  0  0  0  0  0  0  0  0
   60.0090   34.9770   46.6150 C   0  0  0  0  0  0  0  0  0  0  0  0
   59.3750   34.6570   45.2430 C   0  0  0  0  0  0  0  0  0  0  0  0
   57.8900   29.8450   44.7530 C   0  0  0  0  0  0  0  0  0  0  0  0
   59.2560   29.6870   44.9860 C   0  0  0  0  0  0  0  0  0  0  0  0
   60.7290   28.4004   45.9313 H   0  0  0  0  0  0  0  0  0  0  0  0
   59.0257   26.7648   46.7807 H   0  0  0  0  0  0  0  0  0  0  0  0
   56.5832   27.1491   46.2863 H   0  0  0  0  0  0  0  0  0  0  0  0
   55.0379   30.9916   43.6914 H   0  0  0  0  0  0  0  0  0  0  0  0
   58.8412   31.7895   43.0804 H   0  0  0  0  0  0  0  0  0  0  0  0
   57.2064   32.1129   42.3742 H   0  0  0  0  0  0  0  0  0  0  0  0
   57.8392   34.1455   43.4353 H   0  0  0  0  0  0  0  0  0  0  0  0
   56.6823   33.3352   44.5701 H   0  0  0  0  0  0  0  0  0  0  0  0
   57.4619   33.8315   46.8386 H   0  0  0  0  0  0  0  0  0  0  0  0
   57.4593   32.0997   46.3834 H   0  0  0  0  0  0  0  0  0  0  0  0
   58.7845   32.7438   48.5100 H   0  0  0  0  0  0  0  0  0  0  0  0
   59.6548   31.7563   47.2690 H   0  0  0  0  0  0  0  0  0  0  0  0
   63.9318   30.8307   51.0504 H   0  0  0  0  0  0  0  0  0  0  0  0
   66.4946   30.4754   51.7080 H   0  0  0  0  0  0  0  0  0  0  0  0
   67.8879   32.4792   50.5654 H   0  0  0  0  0  0  0  0  0  0  0  0
   66.1319   33.9998   49.2490 H   0  0  0  0  0  0  0  0  0  0  0  0
   59.3281   35.6328   47.1774 H   0  0  0  0  0  0  0  0  0  0  0  0
   60.9764   35.4696   46.4376 H   0  0  0  0  0  0  0  0  0  0  0  0
   58.6388   35.4405   45.0101 H   0  0  0  0  0  0  0  0  0  0  0  0
   60.1961   34.6195   44.5120 H   0  0  0  0  0  0  0  0  0  0  0  0
   59.9881   30.4149   44.6062 H   0  0  0  0  0  0  0  0  0  0  0  0
  1  2  1  0
  2  3  2  0
  3  4  1  0
  4  5  1  0
  5  6  2  0
  6  7  1  0
  7  8  1  0
  8  9  1  0
  9 10  1  0
 10 11  1  0
 11 12  1  0
 12 13  1  0
 13 14  1  0
 14 15  2  0
 15 16  1  0
 16 17  2  0
 17 18  1  0
 18 19  1  0
 19 20  2  0
 20 21  1  0
 21 22  2  0
 17 23  1  0
 13 24  1  0
 24 25  1  0
  7 26  2  0
 26 27  1  0
 27  1  2  0
 26  4  1  0
 25 10  1  0
 23 14  1  0
 22 18  1  0
  1 28  1  0
  2 29  1  0
  3 30  1  0
  6 31  1  0
  8 32  1  0
  8 33  1  0
  9 34  1  0
  9 35  1  0
 11 36  1  0
 11 37  1  0
 12 38  1  0
 12 39  1  0
 19 40  1  0
 20 41  1  0
 21 42  1  0
 22 43  1  0
 24 44  1  0
 24 45  1  0
 25 46  1  0
 25 47  1  0
 27 48  1  0
M  END
>  <UniqueID>  (44) 
39

>  <SMILES>  (44) 
c1ccn2ncc(CCN3CCN(c4nnc(-n5cccc5)s4)CC3)c2c1

>  <Energy>  (44) 
151.6130167893064

>  <Genealogy>  (44) 
c1ccn2ncc(CCN3CCN(c4nnc(-n5cccc5)s4)CC3)c2c1 (3D coordinates assigned)
c1ccn2ncc(CCN3CCN(c4nnc(-n5cccc5)s4)CC3)c2c1 (nonaromatic ring conformer: 151.6130167893064 kcal/mol)

>  <smiles>  (44) 
c1ccn2ncc(CCN3CCN(c4nnc(-n5cccc5)s4)CC3)c2c1

>  <score_type>  (44) 
oracle

>  <origin>  (44) 
adg

>  <m_score__min__energy>  (44) 
-8.8499999999999996

>  <m_primary>  (44) 
energy

$$$$
44:0
     RDKit          3D

 30 32  0  0  1  0  0  0  0  0999 V2000
   63.7760   34.2120   51.2640 C   0  0  0  0  0  0  0  0  0  0  0  0
   63.0530   34.0440   49.9620 C   0  0  0  0  0  0  0  0  0  0  0  0
   63.4560   33.9950   48.7920 N   0  0  0  0  0  0  0  0  0  0  0  0
   62.6950   33.8420   47.7390 C   0  0  0  0  0  0  0  0  0  0  0  0
   63.2840   33.7960   46.3400 C   0  0  0  0  0  0  0  0  0  0  0  0
   61.3620   33.7310   47.9700 C   0  0  0  0  0  0  0  0  0  0  0  0
   60.2010   33.5570   47.1180 C   0  0  0  0  0  0  0  0  0  0  0  0
   59.6180   34.5850   46.3110 C   0  0  0  0  0  0  0  0  0  0  0  0
   58.2070   33.7510   45.4910 S   0  0  0  0  0  0  0  0  0  0  0  0
   58.6250   32.1250   46.3730 C   0  0  0  0  0  0  0  0  0  0  0  0
   57.7880   30.9780   46.1090 N   0  0  0  0  0  0  0  0  0  0  0  0
   57.3480   30.7920   44.9030 C   0  0  0  0  0  0  0  0  0  0  0  0
   57.9380   31.3770   43.7950 C   0  0  0  0  0  0  0  0  0  0  0  0
   57.3910   31.1140   42.5570 C   0  0  0  0  0  0  0  0  0  0  0  0
   56.3140   30.3110   42.4420 N   0  0  0  0  0  0  0  0  0  0  0  0
   55.7650   29.7580   43.5430 C   0  0  0  0  0  0  0  0  0  0  0  0
   56.2600   29.9820   44.7810 N   0  0  0  0  0  0  0  0  0  0  0  0
   59.5340   32.4320   46.9800 N   0  0  0  0  0  0  0  0  0  0  0  0
   61.2850   33.8610   49.7750 S   0  0  0  0  0  0  0  0  0  0  0  0
   63.0753   34.0492   52.0962 H   0  0  0  0  0  0  0  0  0  0  0  0
   64.5950   33.4802   51.3257 H   0  0  0  0  0  0  0  0  0  0  0  0
   64.1884   35.2299   51.3257 H   0  0  0  0  0  0  0  0  0  0  0  0
   64.3787   33.7105   46.4057 H   0  0  0  0  0  0  0  0  0  0  0  0
   62.8800   32.9267   45.8005 H   0  0  0  0  0  0  0  0  0  0  0  0
   63.0199   34.7175   45.8005 H   0  0  0  0  0  0  0  0  0  0  0  0
   59.9412   35.6313   46.2071 H   0  0  0  0  0  0  0  0  0  0  0  0
   58.8160   32.0314   43.8994 H   0  0  0  0  0  0  0  0  0  0  0  0
   57.8364   31.5625   41.6567 H   0  0  0  0  0  0  0  0  0  0  0  0
   55.8970   30.1100   41.5060 H   0  0  0  0  0  0  0  0  0  0  0  0
   54.8874   29.1045   43.4301 H   0  0  0  0  0  0  0  0  0  0  0  0
  1  2  1  0
  2  3  2  0
  3  4  1  0
  4  5  1  0
  4  6  2  0
  6  7  1  0
  7  8  2  0
  8  9  1  0
  9 10  1  0
 10 11  1  0
 11 12  2  0
 12 13  1  0
 13 14  2  0
 14 15  1  0
 15 16  1  0
 16 17  2  0
 10 18  2  0
  6 19  1  0
 19  2  1  0
 18  7  1  0
 17 12  1  0
  1 20  1  0
  1 21  1  0
  1 22  1  0
  5 23  1  0
  5 24  1  0
  5 25  1  0
  8 26  1  0
 13 27  1  0
 14 28  1  0
 15 29  1  0
 16 30  1  0
M  END
>  <smiles>  (45) 
Cc1nc(C)c(-c2csc(N=c3cc[nH]cn3)n2)s1

>  <score_type>  (45) 
oracle

>  <origin>  (45) 
adg

>  <m_score__min__energy>  (45) 
-7.1799999999999997

>  <m_primary>  (45) 
energy

$$$$
45:0
     RDKit          3D

 41 42  0  0  0  0  0  0  0  0999 V2000
   60.0910   27.2230   47.4450 C   0  0  0  0  0  0  0  0  0  0  0  0
   59.8420   26.6880   46.0400 C   0  0  0  0  0  0  0  0  0  0  0  0
   59.3140   25.2800   46.0970 C   0  0  0  0  0  0  0  0  0  0  0  0
   60.1340   24.3260   45.9920 O   0  0  0  0  0  0  0  0  0  0  0  0
   57.9010   24.9920   46.1720 N   0  0  0  0  0  0  0  0  0  0  0  0
   56.9820   25.7890   46.9990 C   0  0  0  0  0  0  0  0  0  0  0  0
   55.8450   26.3430   46.1920 C   0  0  0  0  0  0  0  0  0  0  0  0
   54.8130   25.6490   45.9860 O   0  0  0  0  0  0  0  0  0  0  0  0
   55.9630   27.6490   45.6210 N   0  0  0  0  0  0  0  0  0  0  0  0
   57.1910   28.4330   45.6480 C   0  0  0  0  0  0  0  0  0  0  0  0
   57.1240   29.5360   44.6390 C   0  0  0  0  0  0  0  0  0  0  0  0
   56.5460   29.4540   43.3790 C   0  0  0  0  0  0  0  0  0  0  0  0
   56.6860   30.6310   42.6340 C   0  0  0  0  0  0  0  0  0  0  0  0
   57.3790   31.6340   43.3000 C   0  0  0  0  0  0  0  0  0  0  0  0
   57.8210   31.0550   44.8160 S   0  0  0  0  0  0  0  0  0  0  0  0
   57.3400   24.0970   45.1970 C   0  0  0  0  0  0  0  0  0  0  0  0
   56.8820   22.8370   45.6110 C   0  0  0  0  0  0  0  0  0  0  0  0
   56.3510   21.9370   44.6850 C   0  0  0  0  0  0  0  0  0  0  0  0
   56.2740   22.2870   43.3360 C   0  0  0  0  0  0  0  0  0  0  0  0
   56.7200   23.5410   42.9110 C   0  0  0  0  0  0  0  0  0  0  0  0
   57.2460   24.4610   43.8340 C   0  0  0  0  0  0  0  0  0  0  0  0
   57.7140   25.8070   43.3580 C   0  0  0  0  0  0  0  0  0  0  0  0
   59.7474   26.4848   48.1847 H   0  0  0  0  0  0  0  0  0  0  0  0
   61.1669   27.4062   47.5823 H   0  0  0  0  0  0  0  0  0  0  0  0
   59.5384   28.1642   47.5823 H   0  0  0  0  0  0  0  0  0  0  0  0
   59.1063   27.3301   45.5335 H   0  0  0  0  0  0  0  0  0  0  0  0
   60.7922   26.6890   45.4858 H   0  0  0  0  0  0  0  0  0  0  0  0
   56.5747   25.1496   47.7960 H   0  0  0  0  0  0  0  0  0  0  0  0
   57.5463   26.6341   47.4200 H   0  0  0  0  0  0  0  0  0  0  0  0
   57.3236   28.8657   46.6506 H   0  0  0  0  0  0  0  0  0  0  0  0
   58.0402   27.7771   45.4059 H   0  0  0  0  0  0  0  0  0  0  0  0
   56.0312   28.5568   43.0049 H   0  0  0  0  0  0  0  0  0  0  0  0
   56.2849   30.7504   41.6167 H   0  0  0  0  0  0  0  0  0  0  0  0
   57.6008   32.6358   42.9036 H   0  0  0  0  0  0  0  0  0  0  0  0
   56.9417   22.5562   46.6729 H   0  0  0  0  0  0  0  0  0  0  0  0
   55.9932   20.9518   45.0187 H   0  0  0  0  0  0  0  0  0  0  0  0
   55.8616   21.5745   42.6064 H   0  0  0  0  0  0  0  0  0  0  0  0
   56.6590   23.8101   41.8462 H   0  0  0  0  0  0  0  0  0  0  0  0
   57.9361   26.4458   44.2255 H   0  0  0  0  0  0  0  0  0  0  0  0
   58.6226   25.6854   42.7500 H   0  0  0  0  0  0  0  0  0  0  0  0
   56.9259   26.2753   42.7500 H   0  0  0  0  0  0  0  0  0  0  0  0
  1  2  1  0
  2  3  1  0
  3  4  2  0
  3  5  1  0
  5  6  1  0
  6  7  1  0
  7  8  2  0
  7  9  1  0
  9 10  1  0
 10 11  1  0
 11 12  2  0
 12 13  1  0
 13 14  2  0
 14 15  1  0
  5 16  1  0
 16 17  2  0
 17 18  1  0
 18 19  2  0
 19 20  1  0
 20 21  2  0
 21 22  1  0
 15 11  1  0
 21 16  1  0
  1 23  1  0
  1 24  1  0
  1 25  1  0
  2 26  1  0
  2 27  1  0
  6 28  1  0
  6 29  1  0
 10 30  1  0
 10 31  1  0
 12 32  1  0
 13 33  1  0
 14 34  1  0
 17 35  1  0
 18 36  1  0
 19 37  1  0
 20 38  1  0
 22 39  1  0
 22 40  1  0
 22 41  1  0
M  CHG  1   9  -1
M  END
>  <UniqueID>  (46) 
40

>  <SMILES>  (46) 
CCC(=O)N(CC(=O)[N-]Cc1cccs1)c1ccccc1C

>  <Energy>  (46) 
67.0013292687897

>  <Genealogy>  (46) 
CCC(=O)N(CC(=O)[N-]Cc1cccs1)c1ccccc1C (protonated)
CCC(=O)N(CC(=O)[N-]Cc1cccs1)c1ccccc1C (3D coordinates assigned)
CCC(=O)N(CC(=O)[N-]Cc1cccs1)c1ccccc1C (optimized conformer: 67.0013292687897 kcal/mol)

>  <smiles>  (46) 
CCC(=O)N(CC(=O)NCc1cccs1)c1ccccc1C

>  <score_type>  (46) 
oracle

>  <origin>  (46) 
adg

>  <m_score__min__energy>  (46) 
-9.2300000000000004

>  <m_primary>  (46) 
energy

$$$$
46:0
     RDKit          3D

 39 40  0  0  0  0  0  0  0  0999 V2000
   59.5302   27.3738   48.5242 H   0  0  0  0  0  0  0  0  0  0  0  0
   59.2340   28.2070   47.8700 C   0  0  0  0  0  0  0  0  0  0  0  0
   59.9390   29.4130   47.9150 C   0  0  0  0  0  0  0  0  0  0  0  0
   60.7887   29.5259   48.6044 H   0  0  0  0  0  0  0  0  0  0  0  0
   59.5680   30.4760   47.0870 C   0  0  0  0  0  0  0  0  0  0  0  0
   60.1271   31.4224   47.1283 H   0  0  0  0  0  0  0  0  0  0  0  0
   58.4810   30.3420   46.1990 C   0  0  0  0  0  0  0  0  0  0  0  0
   58.0740   31.3920   45.3440 C   0  0  0  0  0  0  0  0  0  0  0  0
   58.7160   32.5290   45.3680 N   0  0  0  0  0  0  0  0  0  0  0  0
   58.1760   33.8430   45.0210 C   0  0  0  0  0  0  0  0  0  0  0  0
   57.8695   33.8465   43.9646 H   0  0  0  0  0  0  0  0  0  0  0  0
   57.3044   34.0612   45.6556 H   0  0  0  0  0  0  0  0  0  0  0  0
   59.2490   34.9080   45.2440 C   0  0  0  0  0  0  0  0  0  0  0  0
   60.1465   34.6420   44.6663 H   0  0  0  0  0  0  0  0  0  0  0  0
   58.8546   35.8801   44.9133 H   0  0  0  0  0  0  0  0  0  0  0  0
   59.6210   35.0080   46.7400 C   0  0  0  0  0  0  0  0  0  0  0  0
   60.2651   35.8893   46.8756 H   0  0  0  0  0  0  0  0  0  0  0  0
   58.6731   35.0782   47.2937 H   0  0  0  0  0  0  0  0  0  0  0  0
   60.3360   33.8250   47.2770 N   0  0  0  0  0  0  0  0  0  0  0  0
   59.7980   32.9820   46.9610 H   0  0  0  0  0  0  0  0  0  0  0  0
   60.3570   33.7930   48.7490 C   0  0  0  0  0  0  0  0  0  0  0  0
   59.7934   34.6518   49.1425 H   0  0  0  0  0  0  0  0  0  0  0  0
   59.8957   32.8589   49.1021 H   0  0  0  0  0  0  0  0  0  0  0  0
   61.3975   33.8444   49.1021 H   0  0  0  0  0  0  0  0  0  0  0  0
   61.6990   33.6900   46.7300 C   0  0  0  0  0  0  0  0  0  0  0  0
   62.4206   33.6185   47.5571 H   0  0  0  0  0  0  0  0  0  0  0  0
   61.7580   32.7816   46.1124 H   0  0  0  0  0  0  0  0  0  0  0  0
   61.9350   34.5692   46.1124 H   0  0  0  0  0  0  0  0  0  0  0  0
   56.9760   31.1810   44.4840 C   0  0  0  0  0  0  0  0  0  0  0  0
   56.6426   31.9848   43.8112 H   0  0  0  0  0  0  0  0  0  0  0  0
   56.3100   29.9490   44.4860 C   0  0  0  0  0  0  0  0  0  0  0  0
   55.1460   29.7190   43.5760 C   0  0  0  0  0  0  0  0  0  0  0  0
   54.2414   29.5403   44.1758 H   0  0  0  0  0  0  0  0  0  0  0  0
   54.9961   30.6049   42.9414 H   0  0  0  0  0  0  0  0  0  0  0  0
   55.3443   28.8427   42.9414 H   0  0  0  0  0  0  0  0  0  0  0  0
   56.7230   28.9570   45.3170 N   0  0  0  0  0  0  0  0  0  0  0  0
   57.7740   29.1140   46.1620 C   0  0  0  0  0  0  0  0  0  0  0  0
   58.1550   28.0570   46.9970 C   0  0  0  0  0  0  0  0  0  0  0  0
   57.6029   27.1061   46.9652 H   0  0  0  0  0  0  0  0  0  0  0  0
  1  2  1  0
  2  3  2  0
  3  4  1  0
  3  5  1  0
  5  6  1  0
  5  7  2  0
  7  8  1  0
  8  9  2  0
  9 10  1  0
 10 11  1  0
 10 12  1  0
 10 13  1  0
 13 14  1  0
 13 15  1  0
 13 16  1  0
 16 17  1  0
 16 18  1  0
 16 19  1  0
 19 20  1  0
 19 21  1  0
 21 22  1  0
 21 23  1  0
 21 24  1  0
 19 25  1  0
 25 26  1  0
 25 27  1  0
 25 28  1  0
  8 29  1  0
 29 30  1  0
 29 31  2  0
 31 32  1  0
 32 33  1  0
 32 34  1  0
 32 35  1  0
 31 36  1  0
 36 37  1  0
 37 38  2  0
 38 39  1  0
 38  2  1  0
 37  7  1  0
M  CHG  2  19   1  36  -1
M  END
>  <UniqueID>  (47) 
41

>  <SMILES>  (47) 
Cc1c/c(=N\CCC[NH+](C)C)c2ccccc2[n-]1

>  <Energy>  (47) 
42.366520700103194

>  <Genealogy>  (47) 
Cc1cc(=NCCC[NH+](C)C)c2ccccc2[n-]1 (protonated)
Cc1c/c(=N\CCC[NH+](C)C)c2ccccc2[n-]1 (cis-trans isomerization)
Cc1c/c(=N\CCC[NH+](C)C)c2ccccc2[n-]1 (3D coordinates assigned)
Cc1c/c(=N\CCC[NH+](C)C)c2ccccc2[n-]1 (optimized conformer: 42.366520700103194 kcal/mol)

>  <smiles>  (47) 
Cc1cc(=NCCCN(C)C)c2ccccc2[nH]1

>  <score_type>  (47) 
oracle

>  <origin>  (47) 
adg

>  <m_score__min__energy>  (47) 
-6.2300000000000004

>  <m_primary>  (47) 
energy

$$$$
47:0
     RDKit          3D

 31 33  0  0  0  0  0  0  0  0999 V2000
   56.6883   31.5192   42.5079 H   0  0  0  0  0  0  0  0  0  0  0  0
   57.0350   31.1710   43.4920 C   0  0  0  0  0  0  0  0  0  0  0  0
   56.8330   29.8410   43.8760 C   0  0  0  0  0  0  0  0  0  0  0  0
   56.3261   29.1455   43.1909 H   0  0  0  0  0  0  0  0  0  0  0  0
   57.2740   29.3870   45.1330 C   0  0  0  0  0  0  0  0  0  0  0  0
   57.0690   27.9830   45.5400 C   0  0  0  0  0  0  0  0  0  0  0  0
   58.0650   27.1310   45.8710 N   0  0  0  0  0  0  0  0  0  0  0  0
   57.4720   25.9870   46.1690 N   0  0  0  0  0  0  0  0  0  0  0  0
   57.9620   25.1150   46.4680 H   0  0  0  0  0  0  0  0  0  0  0  0
   56.1540   26.1770   46.0120 C   0  0  0  0  0  0  0  0  0  0  0  0
   55.2630   25.2560   46.2210 N   0  0  0  0  0  0  0  0  0  0  0  0
   54.8960   24.2470   45.2300 C   0  0  0  0  0  0  0  0  0  0  0  0
   53.9823   24.5692   44.7092 H   0  0  0  0  0  0  0  0  0  0  0  0
   54.7262   23.2913   45.7474 H   0  0  0  0  0  0  0  0  0  0  0  0
   56.0120   24.0570   44.2090 C   0  0  0  0  0  0  0  0  0  0  0  0
   56.9652   23.8947   44.7336 H   0  0  0  0  0  0  0  0  0  0  0  0
   55.7873   23.1842   43.5784 H   0  0  0  0  0  0  0  0  0  0  0  0
   56.0888   24.9550   43.5784 H   0  0  0  0  0  0  0  0  0  0  0  0
   55.8920   27.4010   45.6260 O   0  0  0  0  0  0  0  0  0  0  0  0
   57.9080   30.2880   46.0070 C   0  0  0  0  0  0  0  0  0  0  0  0
   58.2581   29.9441   46.9915 H   0  0  0  0  0  0  0  0  0  0  0  0
   58.0940   31.6210   45.6260 C   0  0  0  0  0  0  0  0  0  0  0  0
   57.6780   32.0560   44.3610 C   0  0  0  0  0  0  0  0  0  0  0  0
   57.9170   33.3820   43.9850 O   0  0  0  0  0  0  0  0  0  0  0  0
   58.8050   34.2130   44.7370 C   0  0  0  0  0  0  0  0  0  0  0  0
   58.5745   35.2690   44.5325 H   0  0  0  0  0  0  0  0  0  0  0  0
   59.8408   33.9898   44.4416 H   0  0  0  0  0  0  0  0  0  0  0  0
   58.6440   33.9410   46.2390 C   0  0  0  0  0  0  0  0  0  0  0  0
   57.6754   34.3371   46.5779 H   0  0  0  0  0  0  0  0  0  0  0  0
   59.4633   34.4345   46.7823 H   0  0  0  0  0  0  0  0  0  0  0  0
   58.6950   32.5360   46.4960 O   0  0  0  0  0  0  0  0  0  0  0  0
  1  2  1  0
  2  3  2  0
  3  4  1  0
  3  5  1  0
  5  6  1  0
  6  7  2  0
  7  8  1  0
  8  9  1  0
  8 10  1  0
 10 11  2  0
 11 12  1  0
 12 13  1  0
 12 14  1  0
 12 15  1  0
 15 16  1  0
 15 17  1  0
 15 18  1  0
 10 19  1  0
  5 20  2  0
 20 21  1  0
 20 22  1  0
 22 23  2  0
 23 24  1  0
 24 25  1  0
 25 26  1  0
 25 27  1  0
 25 28  1  0
 28 29  1  0
 28 30  1  0
 28 31  1  0
 23  2  1  0
 19  6  1  0
 31 22  1  0
M  END
>  <UniqueID>  (48) 
42

>  <SMILES>  (48) 
CC/N=c1/[nH]nc(-c2ccc3c(c2)OCCO3)o1

>  <Energy>  (48) 
66.02759394340981

>  <Genealogy>  (48) 
CC/N=c1/[nH]nc(-c2ccc3c(c2)OCCO3)o1 (cis-trans isomerization)
CC/N=c1/[nH]nc(-c2ccc3c(c2)OCCO3)o1 (3D coordinates assigned)
CC/N=c1/[nH]nc(-c2ccc3c(c2)OCCO3)o1 (nonaromatic ring conformer: 66.02759394340981 kcal/mol)

>  <smiles>  (48) 
CCN=c1[nH]nc(-c2ccc3c(c2)OCCO3)o1

>  <score_type>  (48) 
oracle

>  <origin>  (48) 
adg

>  <m_score__min__energy>  (48) 
-6.04

>  <m_primary>  (48) 
energy

$$$$
