0:0
     RDKit          3D

 52 54  0  0  0  0  0  0  0  0999 V2000
   55.5410   29.7240   43.9440 C   0  0  0  0  0  0  0  0  0  0  0  0
   56.6420   30.5860   43.3370 C   0  0  0  0  0  0  0  0  0  0  0  0
   57.3900   31.3120   44.4080 C   0  0  0  0  0  0  0  0  0  0  0  0
   57.7480   30.7430   45.5820 N   0  0  0  0  0  0  0  0  0  0  0  0
   58.4740   31.5980   46.3520 C   0  0  0  0  0  0  0  0  0  0  0  0
   58.9750   31.2820   47.6180 C   0  0  0  0  0  0  0  0  0  0  0  0
   58.7160   29.9750   48.1900 N   0  0  0  0  0  0  0  0  0  0  0  0
   59.9730   29.2210   48.3200 C   0  0  0  0  0  0  0  0  0  0  0  0
   59.9960   27.9940   47.4010 C   0  0  0  0  0  0  0  0  0  0  0  0
   58.7710   27.9680   46.5610 N   0  0  0  0  0  0  0  0  0  0  0  0
   59.0930   27.9590   45.1140 C   0  0  0  0  0  0  0  0  0  0  0  0
   60.3470   28.7860   44.8390 C   0  0  0  0  0  0  0  0  0  0  0  0
   57.8760   26.8450   46.9220 C   0  0  0  0  0  0  0  0  0  0  0  0
   56.7040   26.7620   45.9460 C   0  0  0  0  0  0  0  0  0  0  0  0
   59.7680   32.2640   48.2800 C   0  0  0  0  0  0  0  0  0  0  0  0
   60.3680   32.0060   49.5340 C   0  0  0  0  0  0  0  0  0  0  0  0
   61.1340   32.9760   50.1740 C   0  0  0  0  0  0  0  0  0  0  0  0
   61.3280   34.2180   49.5840 C   0  0  0  0  0  0  0  0  0  0  0  0
   60.7630   34.5020   48.3430 C   0  0  0  0  0  0  0  0  0  0  0  0
   59.9770   33.5430   47.6590 C   0  0  0  0  0  0  0  0  0  0  0  0
   59.4300   33.8180   46.4160 N   0  0  0  0  0  0  0  0  0  0  0  0
   59.6290   35.1260   45.7660 C   0  0  0  0  0  0  0  0  0  0  0  0
   58.7080   32.8400   45.7900 C   0  0  0  0  0  0  0  0  0  0  0  0
   57.9830   32.8860   44.2660 S   0  0  0  0  0  0  0  0  0  0  0  0
   55.6013   29.7712   45.0413 H   0  0  0  0  0  0  0  0  0  0  0  0
   54.5599   30.0966   43.6143 H   0  0  0  0  0  0  0  0  0  0  0  0
   55.6673   28.6822   43.6143 H   0  0  0  0  0  0  0  0  0  0  0  0
   57.3398   29.9429   42.7807 H   0  0  0  0  0  0  0  0  0  0  0  0
   56.1842   31.3233   42.6611 H   0  0  0  0  0  0  0  0  0  0  0  0
   58.2300   30.0750   49.1080 H   0  0  0  0  0  0  0  0  0  0  0  0
   58.0590   29.4370   47.5800 H   0  0  0  0  0  0  0  0  0  0  0  0
   60.8130   29.8801   48.0557 H   0  0  0  0  0  0  0  0  0  0  0  0
   60.0576   28.8722   49.3598 H   0  0  0  0  0  0  0  0  0  0  0  0
   60.8826   28.0414   46.7516 H   0  0  0  0  0  0  0  0  0  0  0  0
   60.0331   27.0823   48.0153 H   0  0  0  0  0  0  0  0  0  0  0  0
   59.2644   26.9225   44.7879 H   0  0  0  0  0  0  0  0  0  0  0  0
   58.2499   28.3969   44.5596 H   0  0  0  0  0  0  0  0  0  0  0  0
   60.8040   29.0874   45.7931 H   0  0  0  0  0  0  0  0  0  0  0  0
   61.0646   28.1834   44.2629 H   0  0  0  0  0  0  0  0  0  0  0  0
   60.0757   29.6829   44.2629 H   0  0  0  0  0  0  0  0  0  0  0  0
   58.4439   25.9036   46.8871 H   0  0  0  0  0  0  0  0  0  0  0  0
   57.4842   27.0133   47.9360 H   0  0  0  0  0  0  0  0  0  0  0  0
   55.7616   26.6953   46.5095 H   0  0  0  0  0  0  0  0  0  0  0  0
   56.6897   27.6614   45.3128 H   0  0  0  0  0  0  0  0  0  0  0  0
   56.8166   25.8696   45.3128 H   0  0  0  0  0  0  0  0  0  0  0  0
   60.2274   31.0246   50.0106 H   0  0  0  0  0  0  0  0  0  0  0  0
   61.5879   32.7577   51.1519 H   0  0  0  0  0  0  0  0  0  0  0  0
   61.9305   34.9808   50.0989 H   0  0  0  0  0  0  0  0  0  0  0  0
   60.9303   35.4886   47.8862 H   0  0  0  0  0  0  0  0  0  0  0  0
   59.7473   35.9034   46.5351 H   0  0  0  0  0  0  0  0  0  0  0  0
   60.5320   35.0902   45.1389 H   0  0  0  0  0  0  0  0  0  0  0  0
   58.7562   35.3604   45.1389 H   0  0  0  0  0  0  0  0  0  0  0  0
  1  2  1  0
  2  3  1  0
  3  4  2  0
  4  5  1  0
  5  6  2  0
  6  7  1  0
  7  8  1  0
  8  9  1  0
  9 10  1  0
 10 11  1  0
 11 12  1  0
 10 13  1  0
 13 14  1  0
  6 15  1  0
 15 16  2  0
 16 17  1  0
 17 18  2  0
 18 19  1  0
 19 20  2  0
 20 21  1  0
 21 22  1  0
 21 23  2  0
 23 24  1  0
 24  3  1  0
 23  5  1  0
 20 15  1  0
  1 25  1  0
  1 26  1  0
  1 27  1  0
  2 28  1  0
  2 29  1  0
  7 30  1  0
  7 31  1  0
  8 32  1  0
  8 33  1  0
  9 34  1  0
  9 35  1  0
 11 36  1  0
 11 37  1  0
 12 38  1  0
 12 39  1  0
 12 40  1  0
 13 41  1  0
 13 42  1  0
 14 43  1  0
 14 44  1  0
 14 45  1  0
 16 46  1  0
 17 47  1  0
 18 48  1  0
 19 49  1  0
 22 50  1  0
 22 51  1  0
 22 52  1  0
M  CHG  2   7   1  21   1
M  END
>  <UniqueID>  (1) 
1

>  <SMILES>  (1) 
CCc1nc2c([NH2+]CCN(CC)CC)c3ccccc3[n+](C)c2s1

>  <Energy>  (1) 
94.03133396240631

>  <Genealogy>  (1) 
CCc1nc2c([NH2+]CCN(CC)CC)c3ccccc3[n+](C)c2s1 (protonated)
CCc1nc2c([NH2+]CCN(CC)CC)c3ccccc3[n+](C)c2s1 (3D coordinates assigned)
CCc1nc2c([NH2+]CCN(CC)CC)c3ccccc3[n+](C)c2s1 (optimized conformer: 94.03133396240631 kcal/mol)

>  <smiles>  (1) 
CCc1nc2c(NCCN(CC)CC)c3ccccc3[n+](C)c2s1

>  <score_type>  (1) 
oracle

>  <origin>  (1) 
adg

>  <m_score__min__energy>  (1) 
-3.8399999999999999

>  <m_primary>  (1) 
energy

$$$$
1:0
     RDKit          3D

 66 69  0  0  0  0  0  0  0  0999 V2000
   60.7730   26.9870   50.5290 C   0  0  0  0  0  0  0  0  0  0  0  0
   60.4370   28.0350   49.5530 N   0  0  0  0  0  0  0  0  0  0  0  0
   61.0830   29.3110   49.8970 C   0  0  0  0  0  0  0  0  0  0  0  0
   60.6820   27.6230   48.1520 C   0  0  0  0  0  0  0  0  0  0  0  0
   60.2450   28.6590   47.0980 C   0  0  0  0  0  0  0  0  0  0  0  0
   59.2520   29.5780   47.6560 N   0  0  0  0  0  0  0  0  0  0  0  0
   58.7890   30.7330   46.9330 C   0  0  0  0  0  0  0  0  0  0  0  0
   58.1280   30.5830   45.7000 C   0  0  0  0  0  0  0  0  0  0  0  0
   57.8140   29.3010   45.1980 C   0  0  0  0  0  0  0  0  0  0  0  0
   57.2310   29.1530   43.9420 C   0  0  0  0  0  0  0  0  0  0  0  0
   56.9530   30.2720   43.1670 C   0  0  0  0  0  0  0  0  0  0  0  0
   57.2110   31.5500   43.6630 C   0  0  0  0  0  0  0  0  0  0  0  0
   57.7560   31.7370   44.9600 C   0  0  0  0  0  0  0  0  0  0  0  0
   57.9340   32.9970   45.5010 N   0  0  0  0  0  0  0  0  0  0  0  0
   57.2990   34.1720   44.8620 C   0  0  0  0  0  0  0  0  0  0  0  0
   58.6690   33.1560   46.6630 C   0  0  0  0  0  0  0  0  0  0  0  0
   59.0730   34.4340   47.1210 C   0  0  0  0  0  0  0  0  0  0  0  0
   59.7590   34.5880   48.3250 C   0  0  0  0  0  0  0  0  0  0  0  0
   60.0740   33.4710   49.1100 C   0  0  0  0  0  0  0  0  0  0  0  0
   60.7440   33.5700   50.3410 O   0  0  0  0  0  0  0  0  0  0  0  0
   61.6130   32.5830   50.8980 C   0  0  0  0  0  0  0  0  0  0  0  0
   63.0820   33.0470   50.8100 C   0  0  0  0  0  0  0  0  0  0  0  0
   63.7210   32.8140   49.4800 N   0  0  0  0  0  0  0  0  0  0  0  0
   65.1990   32.7050   49.6130 C   0  0  0  0  0  0  0  0  0  0  0  0
   63.1720   31.6180   48.8010 C   0  0  0  0  0  0  0  0  0  0  0  0
   63.2450   31.8670   47.2990 C   0  0  0  0  0  0  0  0  0  0  0  0
   63.3810   33.3720   47.1440 C   0  0  0  0  0  0  0  0  0  0  0  0
   63.3940   33.9300   48.5620 C   0  0  0  0  0  0  0  0  0  0  0  0
   59.7290   32.2000   48.6500 C   0  0  0  0  0  0  0  0  0  0  0  0
   59.0570   32.0220   47.4220 C   0  0  0  0  0  0  0  0  0  0  0  0
   60.6467   27.3810   51.5482 H   0  0  0  0  0  0  0  0  0  0  0  0
   60.1065   26.1239   50.3843 H   0  0  0  0  0  0  0  0  0  0  0  0
   61.8171   26.6723   50.3843 H   0  0  0  0  0  0  0  0  0  0  0  0
   61.1345   29.4127   50.9911 H   0  0  0  0  0  0  0  0  0  0  0  0
   62.1001   29.3316   49.4786 H   0  0  0  0  0  0  0  0  0  0  0  0
   60.4975   30.1429   49.4786 H   0  0  0  0  0  0  0  0  0  0  0  0
   61.7601   27.4420   48.0302 H   0  0  0  0  0  0  0  0  0  0  0  0
   60.0738   26.7230   47.9785 H   0  0  0  0  0  0  0  0  0  0  0  0
   61.1241   29.2331   46.7700 H   0  0  0  0  0  0  0  0  0  0  0  0
   59.7958   28.1282   46.2457 H   0  0  0  0  0  0  0  0  0  0  0  0
   58.9260   29.4380   48.6390 H   0  0  0  0  0  0  0  0  0  0  0  0
   58.0321   28.4101   45.8053 H   0  0  0  0  0  0  0  0  0  0  0  0
   56.9903   28.1488   43.5630 H   0  0  0  0  0  0  0  0  0  0  0  0
   56.5283   30.1499   42.1596 H   0  0  0  0  0  0  0  0  0  0  0  0
   56.9883   32.4276   43.0383 H   0  0  0  0  0  0  0  0  0  0  0  0
   56.9289   34.8568   45.6393 H   0  0  0  0  0  0  0  0  0  0  0  0
   58.0383   34.6931   44.2360 H   0  0  0  0  0  0  0  0  0  0  0  0
   56.4580   33.8391   44.2360 H   0  0  0  0  0  0  0  0  0  0  0  0
   58.8410   35.3222   46.5150 H   0  0  0  0  0  0  0  0  0  0  0  0
   60.0548   35.5929   48.6608 H   0  0  0  0  0  0  0  0  0  0  0  0
   61.3471   32.4200   51.9529 H   0  0  0  0  0  0  0  0  0  0  0  0
   61.5001   31.6476   50.3304 H   0  0  0  0  0  0  0  0  0  0  0  0
   63.1162   34.1253   51.0246 H   0  0  0  0  0  0  0  0  0  0  0  0
   63.6461   32.4480   51.5401 H   0  0  0  0  0  0  0  0  0  0  0  0
   65.4708   32.6850   50.6787 H   0  0  0  0  0  0  0  0  0  0  0  0
   65.5434   31.7790   49.1293 H   0  0  0  0  0  0  0  0  0  0  0  0
   65.6755   33.5704   49.1293 H   0  0  0  0  0  0  0  0  0  0  0  0
   63.7674   30.7311   49.0636 H   0  0  0  0  0  0  0  0  0  0  0  0
   62.1324   31.4396   49.1131 H   0  0  0  0  0  0  0  0  0  0  0  0
   64.1174   31.3555   46.8663 H   0  0  0  0  0  0  0  0  0  0  0  0
   62.3566   31.4814   46.7775 H   0  0  0  0  0  0  0  0  0  0  0  0
   64.3180   33.6215   46.6245 H   0  0  0  0  0  0  0  0  0  0  0  0
   62.5599   33.7958   46.5471 H   0  0  0  0  0  0  0  0  0  0  0  0
   64.1542   34.7205   48.6470 H   0  0  0  0  0  0  0  0  0  0  0  0
   62.4155   34.3641   48.8151 H   0  0  0  0  0  0  0  0  0  0  0  0
   59.9859   31.3191   49.2566 H   0  0  0  0  0  0  0  0  0  0  0  0
  1  2  1  0
  2  3  1  0
  2  4  1  0
  4  5  1  0
  5  6  1  0
  6  7  1  0
  7  8  2  0
  8  9  1  0
  9 10  2  0
 10 11  1  0
 11 12  2  0
 12 13  1  0
 13 14  2  0
 14 15  1  0
 14 16  1  0
 16 17  2  0
 17 18  1  0
 18 19  2  0
 19 20  1  0
 20 21  1  0
 21 22  1  0
 22 23  1  0
 23 24  1  0
 23 25  1  0
 25 26  1  0
 26 27  1  0
 27 28  1  0
 19 29  1  0
 29 30  2  0
 30  7  1  0
 13  8  1  0
 30 16  1  0
 28 23  1  0
  1 31  1  0
  1 32  1  0
  1 33  1  0
  3 34  1  0
  3 35  1  0
  3 36  1  0
  4 37  1  0
  4 38  1  0
  5 39  1  0
  5 40  1  0
  6 41  1  0
  9 42  1  0
 10 43  1  0
 11 44  1  0
 12 45  1  0
 15 46  1  0
 15 47  1  0
 15 48  1  0
 17 49  1  0
 18 50  1  0
 21 51  1  0
 21 52  1  0
 22 53  1  0
 22 54  1  0
 24 55  1  0
 24 56  1  0
 24 57  1  0
 25 58  1  0
 25 59  1  0
 26 60  1  0
 26 61  1  0
 27 62  1  0
 27 63  1  0
 28 64  1  0
 28 65  1  0
 29 66  1  0
M  CHG  2  14   1  23   1
M  END
>  <UniqueID>  (2) 
2

>  <SMILES>  (2) 
CN(C)CCNc1c2ccccc2[n+](C)c2ccc(OCC[N+]3(C)CCCC3)cc12

>  <Energy>  (2) 
104.19048894893724

>  <Genealogy>  (2) 
CN(C)CCNc1c2ccccc2[n+](C)c2ccc(OCC[N+]3(C)CCCC3)cc12 (3D coordinates assigned)
CN(C)CCNc1c2ccccc2[n+](C)c2ccc(OCC[N+]3(C)CCCC3)cc12 (nonaromatic ring conformer: 104.19048894893724 kcal/mol)

>  <smiles>  (2) 
CN(C)CCNc1c2ccccc2[n+](C)c2ccc(OCC[N+]3(C)CCCC3)cc12

>  <score_type>  (2) 
oracle

>  <origin>  (2) 
adg

>  <m_score__min__energy>  (2) 
-5.1299999999999999

>  <m_primary>  (2) 
energy

$$$$
2:0
     RDKit          3D

 72 76  0  0  0  0  0  0  0  0999 V2000
   56.1210   24.3410   46.7930 C   0  0  0  0  0  0  0  0  0  0  0  0
   55.8710   24.9210   45.3900 C   0  0  0  0  0  0  0  0  0  0  0  0
   57.0920   25.4330   44.7110 N   0  0  0  0  0  0  0  0  0  0  0  0
   57.2840   24.7400   43.4070 C   0  0  0  0  0  0  0  0  0  0  0  0
   56.5580   23.3950   43.3230 C   0  0  0  0  0  0  0  0  0  0  0  0
   58.2880   25.3380   45.6010 C   0  0  0  0  0  0  0  0  0  0  0  0
   59.0420   26.6740   45.7590 C   0  0  0  0  0  0  0  0  0  0  0  0
   58.2200   27.6900   46.4220 N   0  0  0  0  0  0  0  0  0  0  0  0
   58.3850   29.0870   46.1260 C   0  0  0  0  0  0  0  0  0  0  0  0
   57.8580   29.6470   44.9440 C   0  0  0  0  0  0  0  0  0  0  0  0
   57.3340   28.8220   43.9290 C   0  0  0  0  0  0  0  0  0  0  0  0
   56.7320   29.3720   42.8020 C   0  0  0  0  0  0  0  0  0  0  0  0
   56.6330   30.7520   42.6670 C   0  0  0  0  0  0  0  0  0  0  0  0
   57.1700   31.5940   43.6400 C   0  0  0  0  0  0  0  0  0  0  0  0
   57.8320   31.0710   44.7810 C   0  0  0  0  0  0  0  0  0  0  0  0
   58.4240   31.9020   45.7240 N   0  0  0  0  0  0  0  0  0  0  0  0
   58.6760   33.3110   45.3820 C   0  0  0  0  0  0  0  0  0  0  0  0
   58.8730   31.3420   46.9050 C   0  0  0  0  0  0  0  0  0  0  0  0
   58.9190   29.9660   47.0700 C   0  0  0  0  0  0  0  0  0  0  0  0
   59.4960   29.7310   48.3030 C   0  0  0  0  0  0  0  0  0  0  0  0
   59.8730   28.5490   48.9490 C   0  0  0  0  0  0  0  0  0  0  0  0
   60.3880   28.6390   50.2500 C   0  0  0  0  0  0  0  0  0  0  0  0
   60.5150   29.8920   50.8790 C   0  0  0  0  0  0  0  0  0  0  0  0
   60.1630   31.0680   50.1980 C   0  0  0  0  0  0  0  0  0  0  0  0
   59.6890   30.9660   48.8810 C   0  0  0  0  0  0  0  0  0  0  0  0
   59.3240   31.9750   48.0440 N   0  0  0  0  0  0  0  0  0  0  0  0
   59.2350   33.3870   48.4600 C   0  0  0  0  0  0  0  0  0  0  0  0
   60.5360   34.1800   48.2040 C   0  0  0  0  0  0  0  0  0  0  0  0
   61.6920   33.3060   47.9140 N   0  0  0  0  0  0  0  0  0  0  0  0
   62.7500   33.3730   48.9350 C   0  0  0  0  0  0  0  0  0  0  0  0
   64.0840   33.1630   48.2270 C   0  0  0  0  0  0  0  0  0  0  0  0
   63.7640   33.1630   46.7440 C   0  0  0  0  0  0  0  0  0  0  0  0
   62.3440   33.6800   46.6570 C   0  0  0  0  0  0  0  0  0  0  0  0
   55.8062   25.0712   47.5531 H   0  0  0  0  0  0  0  0  0  0  0  0
   55.5430   23.4130   46.9145 H   0  0  0  0  0  0  0  0  0  0  0  0
   57.1925   24.1241   46.9145 H   0  0  0  0  0  0  0  0  0  0  0  0
   55.4348   24.1294   44.7630 H   0  0  0  0  0  0  0  0  0  0  0  0
   55.1996   25.7824   45.5210 H   0  0  0  0  0  0  0  0  0  0  0  0
   56.8940   26.4420   44.5090 H   0  0  0  0  0  0  0  0  0  0  0  0
   56.9050   25.3919   42.6061 H   0  0  0  0  0  0  0  0  0  0  0  0
   58.3599   24.5364   43.3017 H   0  0  0  0  0  0  0  0  0  0  0  0
   56.3571   23.0227   44.3384 H   0  0  0  0  0  0  0  0  0  0  0  0
   55.6073   23.5245   42.7851 H   0  0  0  0  0  0  0  0  0  0  0  0
   57.1880   22.6712   42.7851 H   0  0  0  0  0  0  0  0  0  0  0  0
   57.9568   25.0049   46.5957 H   0  0  0  0  0  0  0  0  0  0  0  0
   58.9842   24.6256   45.1342 H   0  0  0  0  0  0  0  0  0  0  0  0
   59.9479   26.5024   46.3590 H   0  0  0  0  0  0  0  0  0  0  0  0
   59.2959   27.0431   44.7544 H   0  0  0  0  0  0  0  0  0  0  0  0
   57.6860   27.4140   47.2740 H   0  0  0  0  0  0  0  0  0  0  0  0
   57.4019   27.7287   44.0291 H   0  0  0  0  0  0  0  0  0  0  0  0
   56.3335   28.7136   42.0161 H   0  0  0  0  0  0  0  0  0  0  0  0
   56.1288   31.1816   41.7888 H   0  0  0  0  0  0  0  0  0  0  0  0
   57.0788   32.6837   43.5210 H   0  0  0  0  0  0  0  0  0  0  0  0
   58.7812   33.8993   46.3055 H   0  0  0  0  0  0  0  0  0  0  0  0
   59.6017   33.3853   44.7924 H   0  0  0  0  0  0  0  0  0  0  0  0
   57.8335   33.7016   44.7924 H   0  0  0  0  0  0  0  0  0  0  0  0
   59.7682   27.5746   48.4495 H   0  0  0  0  0  0  0  0  0  0  0  0
   60.6943   27.7261   50.7818 H   0  0  0  0  0  0  0  0  0  0  0  0
   60.8924   29.9499   51.9106 H   0  0  0  0  0  0  0  0  0  0  0  0
   60.2568   32.0491   50.6865 H   0  0  0  0  0  0  0  0  0  0  0  0
   58.4180   33.8656   47.9002 H   0  0  0  0  0  0  0  0  0  0  0  0
   59.0539   33.3974   49.5449 H   0  0  0  0  0  0  0  0  0  0  0  0
   60.3768   34.8486   47.3452 H   0  0  0  0  0  0  0  0  0  0  0  0
   60.7673   34.7416   49.1211 H   0  0  0  0  0  0  0  0  0  0  0  0
   62.7363   34.3572   49.4261 H   0  0  0  0  0  0  0  0  0  0  0  0
   62.5946   32.6030   49.7051 H   0  0  0  0  0  0  0  0  0  0  0  0
   64.7800   33.9796   48.4695 H   0  0  0  0  0  0  0  0  0  0  0  0
   64.5668   32.2251   48.5389 H   0  0  0  0  0  0  0  0  0  0  0  0
   64.4521   33.8257   46.1987 H   0  0  0  0  0  0  0  0  0  0  0  0
   63.8715   32.1645   46.2952 H   0  0  0  0  0  0  0  0  0  0  0  0
   62.3435   34.7736   46.5385 H   0  0  0  0  0  0  0  0  0  0  0  0
   61.8161   33.2542   45.7910 H   0  0  0  0  0  0  0  0  0  0  0  0
  1  2  1  0
  2  3  1  0
  3  4  1  0
  4  5  1  0
  3  6  1  0
  6  7  1  0
  7  8  1  0
  8  9  1  0
  9 10  2  0
 10 11  1  0
 11 12  2  0
 12 13  1  0
 13 14  2  0
 14 15  1  0
 15 16  2  0
 16 17  1  0
 16 18  1  0
 18 19  2  0
 19 20  1  0
 20 21  2  0
 21 22  1  0
 22 23  2  0
 23 24  1  0
 24 25  2  0
 25 26  1  0
 26 27  1  0
 27 28  1  0
 28 29  1  0
 29 30  1  0
 30 31  1  0
 31 32  1  0
 32 33  1  0
 19  9  1  0
 25 20  1  0
 33 29  1  0
 15 10  1  0
 26 18  1  0
  1 34  1  0
  1 35  1  0
  1 36  1  0
  2 37  1  0
  2 38  1  0
  3 39  1  0
  4 40  1  0
  4 41  1  0
  5 42  1  0
  5 43  1  0
  5 44  1  0
  6 45  1  0
  6 46  1  0
  7 47  1  0
  7 48  1  0
  8 49  1  0
 11 50  1  0
 12 51  1  0
 13 52  1  0
 14 53  1  0
 17 54  1  0
 17 55  1  0
 17 56  1  0
 21 57  1  0
 22 58  1  0
 23 59  1  0
 24 60  1  0
 27 61  1  0
 27 62  1  0
 28 63  1  0
 28 64  1  0
 30 65  1  0
 30 66  1  0
 31 67  1  0
 31 68  1  0
 32 69  1  0
 32 70  1  0
 33 71  1  0
 33 72  1  0
M  CHG  2   3   1  16   1
M  END
>  <UniqueID>  (3) 
3

>  <SMILES>  (3) 
CC[NH+](CC)CCNc1c2ccccc2[n+](C)c2c1c1ccccc1n2CCN1CCCC1

>  <Energy>  (3) 
149.79713627850302

>  <Genealogy>  (3) 
CC[NH+](CC)CCNc1c2ccccc2[n+](C)c2c1c1ccccc1n2CCN1CCCC1 (protonated)
CC[NH+](CC)CCNc1c2ccccc2[n+](C)c2c1c1ccccc1n2CCN1CCCC1 (3D coordinates assigned)
CC[NH+](CC)CCNc1c2ccccc2[n+](C)c2c1c1ccccc1n2CCN1CCCC1 (nonaromatic ring conformer: 149.79713627850302 kcal/mol)

>  <smiles>  (3) 
CCN(CC)CCNc1c2ccccc2[n+](C)c2c1c1ccccc1n2CCN1CCCC1

>  <score_type>  (3) 
oracle

>  <origin>  (3) 
adg

>  <m_score__min__energy>  (3) 
-5.9800000000000004

>  <m_primary>  (3) 
energy

$$$$
3:0
     RDKit          3D

 44 45  0  0  0  0  0  0  0  0999 V2000
   61.2080   33.8970   47.6150 H   0  0  0  0  0  0  0  0  0  0  0  0
   62.2230   33.7150   47.7820 N   0  0  0  0  0  0  0  0  0  0  0  0
   62.6960   32.5100   47.8620 C   0  0  0  0  0  0  0  0  0  0  0  0
   61.7720   31.3760   48.1180 C   0  0  0  0  0  0  0  0  0  0  0  0
   61.7590   30.7400   49.3750 C   0  0  0  0  0  0  0  0  0  0  0  0
   62.4350   31.0883   50.1698 H   0  0  0  0  0  0  0  0  0  0  0  0
   60.8940   29.6700   49.6200 C   0  0  0  0  0  0  0  0  0  0  0  0
   60.8895   29.1824   50.6060 H   0  0  0  0  0  0  0  0  0  0  0  0
   60.0360   29.2190   48.6160 C   0  0  0  0  0  0  0  0  0  0  0  0
   59.3537   28.3789   48.8125 H   0  0  0  0  0  0  0  0  0  0  0  0
   60.0430   29.8340   47.3610 C   0  0  0  0  0  0  0  0  0  0  0  0
   58.9770   29.2490   46.0970 S   0  0  0  0  0  0  0  0  0  0  0  0
   57.4140   29.0280   46.6760 O   0  0  0  0  0  0  0  0  0  0  0  0
   56.8450   29.0040   45.8660 H   0  0  0  0  0  0  0  0  0  0  0  0
   59.0140   30.3080   44.6590 C   0  0  0  0  0  0  0  0  0  0  0  0
   59.9855   30.8225   44.6199 H   0  0  0  0  0  0  0  0  0  0  0  0
   58.8640   29.6815   43.7674 H   0  0  0  0  0  0  0  0  0  0  0  0
   57.8900   31.3640   44.7000 C   0  0  1  0  0  0  0  0  0  0  0  0
   57.0767   30.9964   45.3430 H   0  0  0  0  0  0  0  0  0  0  0  0
   58.4260   32.6540   45.2960 C   0  0  0  0  0  0  0  0  0  0  0  0
   58.5720   32.8140   46.6860 C   0  0  0  0  0  0  0  0  0  0  0  0
   58.2930   31.9936   47.3635 H   0  0  0  0  0  0  0  0  0  0  0  0
   59.0560   33.9770   47.1960 N   0  0  0  0  0  0  0  0  0  0  0  0
   59.4080   35.0180   46.3960 C   0  0  0  0  0  0  0  0  0  0  0  0
   59.8001   35.9448   46.8401 H   0  0  0  0  0  0  0  0  0  0  0  0
   59.2720   34.9110   45.0120 C   0  0  0  0  0  0  0  0  0  0  0  0
   59.5524   35.7517   44.3604 H   0  0  0  0  0  0  0  0  0  0  0  0
   58.7770   33.7280   44.4610 C   0  0  0  0  0  0  0  0  0  0  0  0
   58.6615   33.6364   43.3709 H   0  0  0  0  0  0  0  0  0  0  0  0
   57.2720   31.5870   43.2950 C   0  0  0  0  0  0  0  0  0  0  0  0
   56.7384   32.5489   43.2985 H   0  0  0  0  0  0  0  0  0  0  0  0
   58.1007   31.5708   42.5719 H   0  0  0  0  0  0  0  0  0  0  0  0
   56.2840   30.4840   42.8740 C   0  0  0  0  0  0  0  0  0  0  0  0
   55.2812   30.9266   42.7811 H   0  0  0  0  0  0  0  0  0  0  0  0
   56.6362   30.0699   41.9177 H   0  0  0  0  0  0  0  0  0  0  0  0
   56.2210   29.3560   43.8600 C   0  0  0  0  0  0  0  0  0  0  0  0
   57.0700   28.4260   43.8110 O   0  0  0  0  0  0  0  0  0  0  0  0
   55.2110   29.3430   44.8650 N   0  0  0  0  0  0  0  0  0  0  0  0
   55.4010   28.9390   45.8090 H   0  0  0  0  0  0  0  0  0  0  0  0
   60.9090   30.9050   47.1110 C   0  0  0  0  0  0  0  0  0  0  0  0
   60.9150   31.3821   46.1199 H   0  0  0  0  0  0  0  0  0  0  0  0
   64.1010   32.2910   47.6860 N   0  0  0  0  0  0  0  0  0  0  0  0
   64.7540   33.0980   47.5720 H   0  0  0  0  0  0  0  0  0  0  0  0
   64.4950   31.3300   47.5870 H   0  0  0  0  0  0  0  0  0  0  0  0
  1  2  1  0
  2  3  2  0
  3  4  1  0
  4  5  2  0
  5  6  1  0
  5  7  1  0
  7  8  1  0
  7  9  2  0
  9 10  1  0
  9 11  1  0
 11 12  1  0
 12 13  1  1
 13 14  1  0
 12 15  1  0
 15 16  1  0
 15 17  1  0
 15 18  1  0
 18 19  1  1
 18 20  1  0
 20 21  2  0
 21 22  1  0
 21 23  1  0
 23 24  2  0
 24 25  1  0
 24 26  1  0
 26 27  1  0
 26 28  2  0
 28 29  1  0
 18 30  1  0
 30 31  1  0
 30 32  1  0
 30 33  1  0
 33 34  1  0
 33 35  1  0
 33 36  1  0
 36 37  2  0
 36 38  1  0
 38 39  1  0
 11 40  2  0
 40 41  1  0
  3 42  1  0
 42 43  1  0
 42 44  1  0
 40  4  1  0
 28 20  1  0
M  CHG  2  12   1  38  -1
M  END
>  <UniqueID>  (4) 
4

>  <SMILES>  (4) 
[H]/N=C(\N)c1cccc([S@@+](O)C[C@H](CCC([NH-])=O)c2cccnc2)c1

>  <Energy>  (4) 
37.460076766081

>  <Genealogy>  (4) 
N=C(N)c1cccc([S+](O)CC(CCC([NH-])=O)c2cccnc2)c1 (protonated)
N=C(N)c1cccc([S@@+](O)C[C@H](CCC([NH-])=O)c2cccnc2)c1 (chirality)
[H]/N=C(\N)c1cccc([S@@+](O)C[C@H](CCC([NH-])=O)c2cccnc2)c1 (cis-trans isomerization)
[H]/N=C(\N)c1cccc([S@@+](O)C[C@H](CCC([NH-])=O)c2cccnc2)c1 (3D coordinates assigned)
[H]/N=C(\N)c1cccc([S@@+](O)C[C@H](CCC([NH-])=O)c2cccnc2)c1 (optimized conformer: 37.460076766081 kcal/mol)

>  <smiles>  (4) 
N=C(N)c1cccc([S+]([O-])CC(CCC(N)=O)c2cccnc2)c1

>  <score_type>  (4) 
oracle

>  <origin>  (4) 
adg

>  <m_score__min__energy>  (4) 
-9.6899999999999995

>  <m_primary>  (4) 
energy

$$$$
4:0
     RDKit          3D

 51 52  0  0  0  0  0  0  0  0999 V2000
   63.0120   31.7620   49.0250 C   0  0  0  0  0  0  0  0  0  0  0  0
   62.6220   33.2300   48.8990 C   0  0  0  0  0  0  0  0  0  0  0  0
   61.4680   33.3600   47.9770 N   0  0  0  0  0  0  0  0  0  0  0  0
   61.8610   33.8140   46.6240 C   0  0  0  0  0  0  0  0  0  0  0  0
   63.3810   33.8380   46.3990 C   0  0  0  0  0  0  0  0  0  0  0  0
   60.3390   34.1400   48.5360 C   0  0  0  0  0  0  0  0  0  0  0  0
   59.6390   34.9580   47.4470 C   0  0  0  0  0  0  0  0  0  0  0  0
   58.5410   34.2340   46.9350 O   0  0  0  0  0  0  0  0  0  0  0  0
   58.5850   34.2380   45.5250 C   0  0  0  0  0  0  0  0  0  0  0  0
   57.3870   33.4560   44.9910 C   0  0  0  0  0  0  0  0  0  0  0  0
   57.3470   32.1450   45.5560 O   0  0  0  0  0  0  0  0  0  0  0  0
   57.3930   30.9300   44.8490 C   0  0  0  0  0  0  0  0  0  0  0  0
   56.6040   30.7410   43.6940 C   0  0  0  0  0  0  0  0  0  0  0  0
   56.6480   29.5460   42.9830 C   0  0  0  0  0  0  0  0  0  0  0  0
   57.4770   28.5130   43.4030 C   0  0  0  0  0  0  0  0  0  0  0  0
   58.2740   28.6660   44.5390 C   0  0  0  0  0  0  0  0  0  0  0  0
   59.0730   27.6350   44.9160 N   0  0  0  0  0  0  0  0  0  0  0  0
   59.8740   27.6990   46.0070 C   0  0  0  0  0  0  0  0  0  0  0  0
   60.7390   26.5330   46.3640 C   0  0  0  0  0  0  0  0  0  0  0  0
   59.8960   28.8590   46.7810 C   0  0  0  0  0  0  0  0  0  0  0  0
   59.0890   29.9580   46.4420 C   0  0  0  0  0  0  0  0  0  0  0  0
   59.1610   31.1730   47.3350 C   0  0  0  0  0  0  0  0  0  0  0  0
   58.2500   29.8760   45.2880 C   0  0  0  0  0  0  0  0  0  0  0  0
   63.0838   31.4917   50.0889 H   0  0  0  0  0  0  0  0  0  0  0  0
   62.2488   31.1368   48.5385 H   0  0  0  0  0  0  0  0  0  0  0  0
   63.9849   31.5980   48.5385 H   0  0  0  0  0  0  0  0  0  0  0  0
   62.3457   33.6218   49.8890 H   0  0  0  0  0  0  0  0  0  0  0  0
   63.4736   33.8017   48.5017 H   0  0  0  0  0  0  0  0  0  0  0  0
   61.4110   33.1346   45.8851 H   0  0  0  0  0  0  0  0  0  0  0  0
   61.5030   34.8484   46.5148 H   0  0  0  0  0  0  0  0  0  0  0  0
   63.8955   33.8461   47.3712 H   0  0  0  0  0  0  0  0  0  0  0  0
   63.6819   32.9445   45.8324 H   0  0  0  0  0  0  0  0  0  0  0  0
   63.6536   34.7406   45.8324 H   0  0  0  0  0  0  0  0  0  0  0  0
   59.6131   33.4476   48.9873 H   0  0  0  0  0  0  0  0  0  0  0  0
   60.7351   34.8334   49.2925 H   0  0  0  0  0  0  0  0  0  0  0  0
   59.2829   35.9066   47.8752 H   0  0  0  0  0  0  0  0  0  0  0  0
   60.3502   35.1619   46.6330 H   0  0  0  0  0  0  0  0  0  0  0  0
   58.5436   35.2738   45.1571 H   0  0  0  0  0  0  0  0  0  0  0  0
   59.5191   33.7709   45.1798 H   0  0  0  0  0  0  0  0  0  0  0  0
   56.4616   33.9902   45.2524 H   0  0  0  0  0  0  0  0  0  0  0  0
   57.4812   33.3674   43.8986 H   0  0  0  0  0  0  0  0  0  0  0  0
   55.9440   31.5513   43.3507 H   0  0  0  0  0  0  0  0  0  0  0  0
   56.0247   29.4185   42.0857 H   0  0  0  0  0  0  0  0  0  0  0  0
   57.5055   27.5699   42.8376 H   0  0  0  0  0  0  0  0  0  0  0  0
   60.8036   26.4459   47.4586 H   0  0  0  0  0  0  0  0  0  0  0  0
   60.3036   25.6125   45.9480 H   0  0  0  0  0  0  0  0  0  0  0  0
   61.7462   26.6827   45.9480 H   0  0  0  0  0  0  0  0  0  0  0  0
   60.5502   28.9139   47.6636 H   0  0  0  0  0  0  0  0  0  0  0  0
   59.1422   30.8557   48.3881 H   0  0  0  0  0  0  0  0  0  0  0  0
   60.0932   31.7212   47.1338 H   0  0  0  0  0  0  0  0  0  0  0  0
   58.3001   31.8275   47.1338 H   0  0  0  0  0  0  0  0  0  0  0  0
  1  2  1  0
  2  3  1  0
  3  4  1  0
  4  5  1  0
  3  6  1  0
  6  7  1  0
  7  8  1  0
  8  9  1  0
  9 10  1  0
 10 11  1  0
 11 12  1  0
 12 13  2  0
 13 14  1  0
 14 15  2  0
 15 16  1  0
 16 17  2  0
 17 18  1  0
 18 19  1  0
 18 20  2  0
 20 21  1  0
 21 22  1  0
 21 23  2  0
 23 12  1  0
 23 16  1  0
  1 24  1  0
  1 25  1  0
  1 26  1  0
  2 27  1  0
  2 28  1  0
  4 29  1  0
  4 30  1  0
  5 31  1  0
  5 32  1  0
  5 33  1  0
  6 34  1  0
  6 35  1  0
  7 36  1  0
  7 37  1  0
  9 38  1  0
  9 39  1  0
 10 40  1  0
 10 41  1  0
 13 42  1  0
 14 43  1  0
 15 44  1  0
 19 45  1  0
 19 46  1  0
 19 47  1  0
 20 48  1  0
 22 49  1  0
 22 50  1  0
 22 51  1  0
M  END
>  <UniqueID>  (5) 
5

>  <SMILES>  (5) 
CCN(CC)CCOCCOc1cccc2nc(C)cc(C)c12

>  <Energy>  (5) 
56.42079028140677

>  <Genealogy>  (5) 
CCN(CC)CCOCCOc1cccc2nc(C)cc(C)c12 (3D coordinates assigned)
CCN(CC)CCOCCOc1cccc2nc(C)cc(C)c12 (optimized conformer: 56.42079028140677 kcal/mol)

>  <smiles>  (5) 
CCN(CC)CCOCCOc1cccc2nc(C)cc(C)c12

>  <score_type>  (5) 
oracle

>  <origin>  (5) 
adg

>  <m_score__min__energy>  (5) 
-7.0499999999999998

>  <m_primary>  (5) 
energy

$$$$
5:0
     RDKit          3D

 59 58  0  0  0  0  0  0  0  0999 V2000
   56.4430   29.7410   42.7360 C   0  0  0  0  0  0  0  0  0  0  0  0
   55.9330   30.1560   44.1160 C   0  0  0  0  0  0  0  0  0  0  0  0
   57.0180   30.7540   44.9270 N   0  0  0  0  0  0  0  0  0  0  0  0
   57.0430   32.2360   44.8080 C   0  0  0  0  0  0  0  0  0  0  0  0
   58.0280   32.6450   43.7190 C   0  0  0  0  0  0  0  0  0  0  0  0
   58.3230   30.1550   44.5660 C   0  0  0  0  0  0  0  0  0  0  0  0
   59.1940   29.9440   45.8130 C   0  0  0  0  0  0  0  0  0  0  0  0
   58.4760   30.3000   46.9800 O   0  0  0  0  0  0  0  0  0  0  0  0
   58.9960   29.6460   48.1250 C   0  0  0  0  0  0  0  0  0  0  0  0
   60.2340   30.3790   48.6470 C   0  0  0  0  0  0  0  0  0  0  0  0
   60.1880   31.7630   48.3060 O   0  0  0  0  0  0  0  0  0  0  0  0
   59.1120   32.5990   48.6220 C   0  0  0  0  0  0  0  0  0  0  0  0
   58.7420   32.7510   49.8190 O   0  0  0  0  0  0  0  0  0  0  0  0
   58.4330   33.3650   47.5320 C   0  0  0  0  0  0  0  0  0  0  0  0
   59.2640   34.5940   47.1470 C   0  0  0  0  0  0  0  0  0  0  0  0
   60.2520   34.2990   46.0120 C   0  0  0  0  0  0  0  0  0  0  0  0
   61.2490   33.3070   46.4410 N   0  0  0  0  0  0  0  0  0  0  0  0
   62.6240   33.8290   46.3680 C   0  0  0  0  0  0  0  0  0  0  0  0
   63.6460   32.8910   47.0330 C   0  0  0  0  0  0  0  0  0  0  0  0
   63.0030   32.1090   48.1000 N   0  0  0  0  0  0  0  0  0  0  0  0
   63.5480   32.4530   49.4210 C   0  0  0  0  0  0  0  0  0  0  0  0
   62.8750   33.7140   49.9640 C   0  0  0  0  0  0  0  0  0  0  0  0
   61.4980   33.8150   49.4880 N   0  0  0  0  0  0  0  0  0  0  0  0
   57.2915   29.0505   42.8511 H   0  0  0  0  0  0  0  0  0  0  0  0
   55.6354   29.2403   42.1819 H   0  0  0  0  0  0  0  0  0  0  0  0
   56.7691   30.6336   42.1819 H   0  0  0  0  0  0  0  0  0  0  0  0
   55.1268   30.8943   43.9941 H   0  0  0  0  0  0  0  0  0  0  0  0
   55.5613   29.2603   44.6353 H   0  0  0  0  0  0  0  0  0  0  0  0
   56.0379   32.5994   44.5478 H   0  0  0  0  0  0  0  0  0  0  0  0
   57.3561   32.6743   45.7671 H   0  0  0  0  0  0  0  0  0  0  0  0
   58.9492   33.0275   44.1827 H   0  0  0  0  0  0  0  0  0  0  0  0
   58.2672   31.7718   43.0942 H   0  0  0  0  0  0  0  0  0  0  0  0
   57.5784   33.4308   43.0942 H   0  0  0  0  0  0  0  0  0  0  0  0
   58.1509   29.1840   44.0787 H   0  0  0  0  0  0  0  0  0  0  0  0
   58.8471   30.8404   43.8837 H   0  0  0  0  0  0  0  0  0  0  0  0
   59.4871   28.8856   45.8760 H   0  0  0  0  0  0  0  0  0  0  0  0
   60.0889   30.5790   45.7359 H   0  0  0  0  0  0  0  0  0  0  0  0
   58.2275   29.6285   48.9118 H   0  0  0  0  0  0  0  0  0  0  0  0
   59.2809   28.6200   47.8491 H   0  0  0  0  0  0  0  0  0  0  0  0
   60.2767   30.2791   49.7416 H   0  0  0  0  0  0  0  0  0  0  0  0
   61.1271   29.9329   48.1851 H   0  0  0  0  0  0  0  0  0  0  0  0
   58.3157   32.7162   46.6515 H   0  0  0  0  0  0  0  0  0  0  0  0
   57.4473   33.6977   47.8895 H   0  0  0  0  0  0  0  0  0  0  0  0
   58.5822   35.3941   46.8229 H   0  0  0  0  0  0  0  0  0  0  0  0
   59.8472   34.8947   48.0299 H   0  0  0  0  0  0  0  0  0  0  0  0
   59.7005   33.9062   45.1451 H   0  0  0  0  0  0  0  0  0  0  0  0
   60.7709   35.2304   45.7414 H   0  0  0  0  0  0  0  0  0  0  0  0
   61.0480   33.0230   47.4280 H   0  0  0  0  0  0  0  0  0  0  0  0
   62.8976   33.9557   45.3101 H   0  0  0  0  0  0  0  0  0  0  0  0
   62.6473   34.7864   46.9091 H   0  0  0  0  0  0  0  0  0  0  0  0
   64.0548   32.2050   46.2765 H   0  0  0  0  0  0  0  0  0  0  0  0
   64.4545   33.4953   47.4701 H   0  0  0  0  0  0  0  0  0  0  0  0
   61.9860   32.3570   48.1030 H   0  0  0  0  0  0  0  0  0  0  0  0
   63.3686   31.6189   50.1154 H   0  0  0  0  0  0  0  0  0  0  0  0
   64.6278   32.6388   49.3239 H   0  0  0  0  0  0  0  0  0  0  0  0
   62.8744   33.6772   51.0634 H   0  0  0  0  0  0  0  0  0  0  0  0
   63.4350   34.5920   49.6097 H   0  0  0  0  0  0  0  0  0  0  0  0
   60.9380   33.0610   49.9480 H   0  0  0  0  0  0  0  0  0  0  0  0
   61.4990   33.6030   48.4640 H   0  0  0  0  0  0  0  0  0  0  0  0
  1  2  1  0
  2  3  1  0
  3  4  1  0
  4  5  1  0
  3  6  1  0
  6  7  1  0
  7  8  1  0
  8  9  1  0
  9 10  1  0
 10 11  1  0
 11 12  1  0
 12 13  2  0
 12 14  1  0
 14 15  1  0
 15 16  1  0
 16 17  1  0
 17 18  1  0
 18 19  1  0
 19 20  1  0
 20 21  1  0
 21 22  1  0
 22 23  1  0
  1 24  1  0
  1 25  1  0
  1 26  1  0
  2 27  1  0
  2 28  1  0
  4 29  1  0
  4 30  1  0
  5 31  1  0
  5 32  1  0
  5 33  1  0
  6 34  1  0
  6 35  1  0
  7 36  1  0
  7 37  1  0
  9 38  1  0
  9 39  1  0
 10 40  1  0
 10 41  1  0
 14 42  1  0
 14 43  1  0
 15 44  1  0
 15 45  1  0
 16 46  1  0
 16 47  1  0
 17 48  1  0
 18 49  1  0
 18 50  1  0
 19 51  1  0
 19 52  1  0
 20 53  1  0
 21 54  1  0
 21 55  1  0
 22 56  1  0
 22 57  1  0
 23 58  1  0
 23 59  1  0
M  END
>  <UniqueID>  (6) 
6

>  <SMILES>  (6) 
CCN(CC)CCOCCOC(=O)CCCNCCNCCN

>  <Energy>  (6) 
41.40375145742501

>  <Genealogy>  (6) 
CCN(CC)CCOCCOC(=O)CCCNCCNCCN (3D coordinates assigned)
CCN(CC)CCOCCOC(=O)CCCNCCNCCN (optimized conformer: 41.40375145742501 kcal/mol)

>  <smiles>  (6) 
CCN(CC)CCOCCOC(=O)CCCNCCNCCN

>  <score_type>  (6) 
oracle

>  <origin>  (6) 
adg

>  <m_score__min__energy>  (6) 
-4.4900000000000002

>  <m_primary>  (6) 
energy

$$$$
6:0
     RDKit          3D

 32 33  0  0  0  0  0  0  0  0999 V2000
   57.8180   28.0740   44.1390 C   0  0  0  0  0  0  0  0  0  0  0  0
   57.0110   28.4540   45.3750 C   0  0  0  0  0  0  0  0  0  0  0  0
   55.8350   29.2440   44.9740 N   0  0  0  0  0  0  0  0  0  0  0  0
   55.9370   29.7650   43.6020 C   0  0  0  0  0  0  0  0  0  0  0  0
   56.7390   31.0730   43.5580 C   0  0  0  0  0  0  0  0  0  0  0  0
   56.9590   31.5860   44.8730 O   0  0  0  0  0  0  0  0  0  0  0  0
   57.9260   32.5390   45.2360 C   0  0  0  0  0  0  0  0  0  0  0  0
   57.8180   33.8930   44.8590 C   0  0  0  0  0  0  0  0  0  0  0  0
   58.7940   34.8170   45.2370 C   0  0  0  0  0  0  0  0  0  0  0  0
   59.8910   34.4120   45.9970 C   0  0  0  0  0  0  0  0  0  0  0  0
   60.0190   33.0720   46.3860 C   0  0  0  0  0  0  0  0  0  0  0  0
   61.1160   32.6500   47.1500 C   0  0  0  0  0  0  0  0  0  0  0  0
   61.2290   31.3470   47.5180 N   0  0  0  0  0  0  0  0  0  0  0  0
   60.3000   30.4200   47.1660 C   0  0  0  0  0  0  0  0  0  0  0  0
   59.1890   30.7900   46.4060 C   0  0  0  0  0  0  0  0  0  0  0  0
   59.0340   32.1290   46.0080 C   0  0  0  0  0  0  0  0  0  0  0  0
   58.7730   27.6243   44.4486 H   0  0  0  0  0  0  0  0  0  0  0  0
   57.2491   27.3492   43.5382 H   0  0  0  0  0  0  0  0  0  0  0  0
   58.0143   28.9743   43.5382 H   0  0  0  0  0  0  0  0  0  0  0  0
   56.6798   27.5407   45.8909 H   0  0  0  0  0  0  0  0  0  0  0  0
   57.6392   29.0521   46.0515 H   0  0  0  0  0  0  0  0  0  0  0  0
   55.7560   30.0660   45.6170 H   0  0  0  0  0  0  0  0  0  0  0  0
   56.4385   29.0163   42.9712 H   0  0  0  0  0  0  0  0  0  0  0  0
   54.9211   29.9691   43.2327 H   0  0  0  0  0  0  0  0  0  0  0  0
   57.7110   30.8825   43.0794 H   0  0  0  0  0  0  0  0  0  0  0  0
   56.1647   31.8158   42.9848 H   0  0  0  0  0  0  0  0  0  0  0  0
   56.9563   34.2248   44.2612 H   0  0  0  0  0  0  0  0  0  0  0  0
   58.6972   35.8700   44.9338 H   0  0  0  0  0  0  0  0  0  0  0  0
   60.6564   35.1452   46.2913 H   0  0  0  0  0  0  0  0  0  0  0  0
   61.8864   33.3748   47.4520 H   0  0  0  0  0  0  0  0  0  0  0  0
   60.4239   29.3735   47.4813 H   0  0  0  0  0  0  0  0  0  0  0  0
   58.4390   30.0377   46.1202 H   0  0  0  0  0  0  0  0  0  0  0  0
  1  2  1  0
  2  3  1  0
  3  4  1  0
  4  5  1  0
  5  6  1  0
  6  7  1  0
  7  8  2  0
  8  9  1  0
  9 10  2  0
 10 11  1  0
 11 12  2  0
 12 13  1  0
 13 14  2  0
 14 15  1  0
 15 16  2  0
 16  7  1  0
 16 11  1  0
  1 17  1  0
  1 18  1  0
  1 19  1  0
  2 20  1  0
  2 21  1  0
  3 22  1  0
  4 23  1  0
  4 24  1  0
  5 25  1  0
  5 26  1  0
  8 27  1  0
  9 28  1  0
 10 29  1  0
 12 30  1  0
 14 31  1  0
 15 32  1  0
M  END
>  <UniqueID>  (7) 
7

>  <SMILES>  (7) 
CCNCCOc1cccc2cnccc12

>  <Energy>  (7) 
33.82763641821766

>  <Genealogy>  (7) 
CCNCCOc1cccc2cnccc12 (3D coordinates assigned)
CCNCCOc1cccc2cnccc12 (optimized conformer: 33.82763641821766 kcal/mol)

>  <smiles>  (7) 
CCNCCOc1cccc2cnccc12

>  <score_type>  (7) 
oracle

>  <origin>  (7) 
adg

>  <m_score__min__energy>  (7) 
-6.0599999999999996

>  <m_primary>  (7) 
energy

$$$$
7:0
     RDKit          3D

 77 80  0  0  0  0  0  0  0  0999 V2000
   63.2840   33.9460   46.3570 C   0  0  0  0  0  0  0  0  0  0  0  0
   63.5120   32.6430   47.1320 C   0  0  0  0  0  0  0  0  0  0  0  0
   62.8090   32.6070   48.4420 N   0  0  0  0  0  0  0  0  0  0  0  0
   63.3870   31.6240   49.4010 C   0  0  0  0  0  0  0  0  0  0  0  0
   64.7030   32.0690   50.0570 C   0  0  0  0  0  0  0  0  0  0  0  0
   62.7330   33.9610   49.0560 C   0  0  0  0  0  0  0  0  0  0  0  0
   61.3900   34.2380   49.7590 C   0  0  0  0  0  0  0  0  0  0  0  0
   60.3200   33.8040   48.9410 O   0  0  0  0  0  0  0  0  0  0  0  0
   59.9960   34.7880   47.9770 C   0  0  0  0  0  0  0  0  0  0  0  0
   59.9880   34.1820   46.5770 C   0  0  0  0  0  0  0  0  0  0  0  0
   60.3170   32.8000   46.6660 O   0  0  0  0  0  0  0  0  0  0  0  0
   59.4830   31.7420   46.2640 C   0  0  0  0  0  0  0  0  0  0  0  0
   58.3100   31.9770   45.5320 C   0  0  0  0  0  0  0  0  0  0  0  0
   57.4870   30.9230   45.1550 C   0  0  0  0  0  0  0  0  0  0  0  0
   57.8060   29.6100   45.5140 C   0  0  0  0  0  0  0  0  0  0  0  0
   56.9490   28.5650   45.1360 C   0  0  0  0  0  0  0  0  0  0  0  0
   57.2380   27.2510   45.4960 C   0  0  0  0  0  0  0  0  0  0  0  0
   58.3770   26.9690   46.2420 C   0  0  0  0  0  0  0  0  0  0  0  0
   59.2460   27.9940   46.6250 C   0  0  0  0  0  0  0  0  0  0  0  0
   58.9860   29.3380   46.2610 C   0  0  0  0  0  0  0  0  0  0  0  0
   59.8480   30.4210   46.6150 C   0  0  0  0  0  0  0  0  0  0  0  0
   61.1640   30.2430   47.3580 C   0  0  0  0  0  0  0  0  0  0  0  0
   60.9470   30.3080   48.8170 N   0  0  0  0  0  0  0  0  0  0  0  0
   59.7810   31.1530   49.1800 C   0  0  0  0  0  0  0  0  0  0  0  0
   58.5230   30.3190   49.4730 C   0  0  0  0  0  0  0  0  0  0  0  0
   58.7340   29.3360   50.5670 N   0  0  0  0  0  0  0  0  0  0  0  0
   58.1590   29.7930   51.8480 C   0  0  0  0  0  0  0  0  0  0  0  0
   58.5280   31.2310   52.1060 C   0  0  0  0  0  0  0  0  0  0  0  0
   57.5570   32.2440   52.0330 C   0  0  0  0  0  0  0  0  0  0  0  0
   57.9090   33.5750   52.2800 C   0  0  0  0  0  0  0  0  0  0  0  0
   59.2290   33.9030   52.6020 C   0  0  0  0  0  0  0  0  0  0  0  0
   60.2000   32.9000   52.6770 C   0  0  0  0  0  0  0  0  0  0  0  0
   59.8530   31.5680   52.4290 C   0  0  0  0  0  0  0  0  0  0  0  0
   60.1520   28.9460   50.7420 C   0  0  0  0  0  0  0  0  0  0  0  0
   60.8950   28.9470   49.4030 C   0  0  0  0  0  0  0  0  0  0  0  0
   63.1391   34.7740   47.0665 H   0  0  0  0  0  0  0  0  0  0  0  0
   64.1594   34.1542   45.7242 H   0  0  0  0  0  0  0  0  0  0  0  0
   62.3899   33.8446   45.7242 H   0  0  0  0  0  0  0  0  0  0  0  0
   63.1508   31.8043   46.5188 H   0  0  0  0  0  0  0  0  0  0  0  0
   64.5900   32.5713   47.3387 H   0  0  0  0  0  0  0  0  0  0  0  0
   61.8280   32.2840   48.2620 H   0  0  0  0  0  0  0  0  0  0  0  0
   62.6492   31.4470   50.1975 H   0  0  0  0  0  0  0  0  0  0  0  0
   63.6187   30.7197   48.8191 H   0  0  0  0  0  0  0  0  0  0  0  0
   64.5976   32.0334   51.1514 H   0  0  0  0  0  0  0  0  0  0  0  0
   65.5145   31.3953   49.7447 H   0  0  0  0  0  0  0  0  0  0  0  0
   64.9391   33.0970   49.7447 H   0  0  0  0  0  0  0  0  0  0  0  0
   63.5405   34.0539   49.7971 H   0  0  0  0  0  0  0  0  0  0  0  0
   62.8311   34.6937   48.2414 H   0  0  0  0  0  0  0  0  0  0  0  0
   61.3606   33.6963   50.7159 H   0  0  0  0  0  0  0  0  0  0  0  0
   61.2921   35.3185   49.9404 H   0  0  0  0  0  0  0  0  0  0  0  0
   59.0000   35.1986   48.1994 H   0  0  0  0  0  0  0  0  0  0  0  0
   60.7522   35.5859   48.0150 H   0  0  0  0  0  0  0  0  0  0  0  0
   58.9882   34.2948   46.1325 H   0  0  0  0  0  0  0  0  0  0  0  0
   60.7255   34.6987   45.9452 H   0  0  0  0  0  0  0  0  0  0  0  0
   58.0389   33.0061   45.2536 H   0  0  0  0  0  0  0  0  0  0  0  0
   56.5775   31.1231   44.5696 H   0  0  0  0  0  0  0  0  0  0  0  0
   56.0433   28.7851   44.5517 H   0  0  0  0  0  0  0  0  0  0  0  0
   56.5652   26.4363   45.1902 H   0  0  0  0  0  0  0  0  0  0  0  0
   58.5957   25.9309   46.5329 H   0  0  0  0  0  0  0  0  0  0  0  0
   60.1423   27.7544   47.2160 H   0  0  0  0  0  0  0  0  0  0  0  0
   61.5962   29.2651   47.0995 H   0  0  0  0  0  0  0  0  0  0  0  0
   61.8505   31.0507   47.0641 H   0  0  0  0  0  0  0  0  0  0  0  0
   60.0339   31.7381   50.0765 H   0  0  0  0  0  0  0  0  0  0  0  0
   59.5592   31.8057   48.3228 H   0  0  0  0  0  0  0  0  0  0  0  0
   57.7083   30.9992   49.7622 H   0  0  0  0  0  0  0  0  0  0  0  0
   58.2754   29.7560   48.5610 H   0  0  0  0  0  0  0  0  0  0  0  0
   57.0636   29.7017   51.8067 H   0  0  0  0  0  0  0  0  0  0  0  0
   58.5598   29.1703   52.6614 H   0  0  0  0  0  0  0  0  0  0  0  0
   56.5170   31.9896   51.7809 H   0  0  0  0  0  0  0  0  0  0  0  0
   57.1457   34.3649   52.2207 H   0  0  0  0  0  0  0  0  0  0  0  0
   59.5038   34.9502   52.7964 H   0  0  0  0  0  0  0  0  0  0  0  0
   61.2384   33.1588   52.9314 H   0  0  0  0  0  0  0  0  0  0  0  0
   60.6201   30.7817   52.4871 H   0  0  0  0  0  0  0  0  0  0  0  0
   60.6390   29.6592   51.4233 H   0  0  0  0  0  0  0  0  0  0  0  0
   60.1849   27.9283   51.1583 H   0  0  0  0  0  0  0  0  0  0  0  0
   61.9218   28.5861   49.5626 H   0  0  0  0  0  0  0  0  0  0  0  0
   60.3553   28.2891   48.7059 H   0  0  0  0  0  0  0  0  0  0  0  0
  1  2  1  0
  2  3  1  0
  3  4  1  0
  4  5  1  0
  3  6  1  0
  6  7  1  0
  7  8  1  0
  8  9  1  0
  9 10  1  0
 10 11  1  0
 11 12  1  0
 12 13  2  0
 13 14  1  0
 14 15  2  0
 15 16  1  0
 16 17  2  0
 17 18  1  0
 18 19  2  0
 19 20  1  0
 20 21  2  0
 21 22  1  0
 22 23  1  0
 23 24  1  0
 24 25  1  0
 25 26  1  0
 26 27  1  0
 27 28  1  0
 28 29  2  0
 29 30  1  0
 30 31  2  0
 31 32  1  0
 32 33  2  0
 26 34  1  0
 34 35  1  0
 21 12  1  0
 35 23  1  0
 20 15  1  0
 33 28  1  0
  1 36  1  0
  1 37  1  0
  1 38  1  0
  2 39  1  0
  2 40  1  0
  3 41  1  0
  4 42  1  0
  4 43  1  0
  5 44  1  0
  5 45  1  0
  5 46  1  0
  6 47  1  0
  6 48  1  0
  7 49  1  0
  7 50  1  0
  9 51  1  0
  9 52  1  0
 10 53  1  0
 10 54  1  0
 13 55  1  0
 14 56  1  0
 16 57  1  0
 17 58  1  0
 18 59  1  0
 19 60  1  0
 22 61  1  0
 22 62  1  0
 24 63  1  0
 24 64  1  0
 25 65  1  0
 25 66  1  0
 27 67  1  0
 27 68  1  0
 29 69  1  0
 30 70  1  0
 31 71  1  0
 32 72  1  0
 33 73  1  0
 34 74  1  0
 34 75  1  0
 35 76  1  0
 35 77  1  0
M  CHG  1   3   1
M  END
>  <UniqueID>  (8) 
8

>  <SMILES>  (8) 
CC[NH+](CC)CCOCCOc1ccc2ccccc2c1CN1CCN(Cc2ccccc2)CC1

>  <Energy>  (8) 
102.53984506609507

>  <Genealogy>  (8) 
CC[NH+](CC)CCOCCOc1ccc2ccccc2c1CN1CCN(Cc2ccccc2)CC1 (protonated)
CC[NH+](CC)CCOCCOc1ccc2ccccc2c1CN1CCN(Cc2ccccc2)CC1 (3D coordinates assigned)
CC[NH+](CC)CCOCCOc1ccc2ccccc2c1CN1CCN(Cc2ccccc2)CC1 (nonaromatic ring conformer: 102.53984506609507 kcal/mol)

>  <smiles>  (8) 
CCN(CC)CCOCCOc1ccc2ccccc2c1CN1CCN(Cc2ccccc2)CC1

>  <score_type>  (8) 
oracle

>  <origin>  (8) 
adg

>  <m_score__min__energy>  (8) 
-7.5599999999999996

>  <m_primary>  (8) 
energy

$$$$
8:0
     RDKit          3D

 39 42  0  0  0  0  0  0  0  0999 V2000
   64.5210   33.1080   48.7100 C   0  0  0  0  0  0  0  0  0  0  0  0
   63.2150   32.3840   48.6290 C   0  0  0  0  0  0  0  0  0  0  0  0
   62.5040   32.3990   47.4600 N   0  0  0  0  0  0  0  0  0  0  0  0
   61.3290   31.7280   47.4130 C   0  0  0  0  0  0  0  0  0  0  0  0
   60.5200   31.6380   46.3900 O   0  0  0  0  0  0  0  0  0  0  0  0
   59.4890   30.8980   46.7690 C   0  0  0  0  0  0  0  0  0  0  0  0
   58.3480   30.5610   45.8850 C   0  0  0  0  0  0  0  0  0  0  0  0
   58.1130   29.2240   45.5210 C   0  0  0  0  0  0  0  0  0  0  0  0
   57.0870   28.9060   44.6320 C   0  0  0  0  0  0  0  0  0  0  0  0
   56.2980   29.9240   44.1050 C   0  0  0  0  0  0  0  0  0  0  0  0
   56.5200   31.2120   44.4710 N   0  0  0  0  0  0  0  0  0  0  0  0
   57.5080   31.5620   45.3420 C   0  0  0  0  0  0  0  0  0  0  0  0
   57.6390   32.9420   45.7240 N   0  0  0  0  0  0  0  0  0  0  0  0
   58.3800   33.8740   44.8720 C   0  0  0  0  0  0  0  0  0  0  0  0
   59.6700   34.2810   45.5940 C   0  0  0  0  0  0  0  0  0  0  0  0
   59.3840   34.7920   46.8840 O   0  0  0  0  0  0  0  0  0  0  0  0
   58.8010   33.7840   47.6920 C   0  0  0  0  0  0  0  0  0  0  0  0
   57.4500   33.3420   47.1190 C   0  0  0  0  0  0  0  0  0  0  0  0
   59.6470   30.4890   48.0980 C   0  0  0  0  0  0  0  0  0  0  0  0
   60.8440   31.0450   48.4810 C   0  0  0  0  0  0  0  0  0  0  0  0
   61.5540   31.0190   49.6710 C   0  0  0  0  0  0  0  0  0  0  0  0
   62.7400   31.6950   49.7200 N   0  0  0  0  0  0  0  0  0  0  0  0
   64.7921   33.2583   49.7654 H   0  0  0  0  0  0  0  0  0  0  0  0
   65.3012   32.5136   48.2121 H   0  0  0  0  0  0  0  0  0  0  0  0
   64.4303   34.0847   48.2121 H   0  0  0  0  0  0  0  0  0  0  0  0
   58.7417   28.4243   45.9396 H   0  0  0  0  0  0  0  0  0  0  0  0
   56.9027   27.8590   44.3495 H   0  0  0  0  0  0  0  0  0  0  0  0
   55.4949   29.6850   43.3923 H   0  0  0  0  0  0  0  0  0  0  0  0
   58.6281   33.3860   43.9179 H   0  0  0  0  0  0  0  0  0  0  0  0
   57.7671   34.7646   44.6693 H   0  0  0  0  0  0  0  0  0  0  0  0
   60.3222   33.4005   45.6912 H   0  0  0  0  0  0  0  0  0  0  0  0
   60.1707   35.0650   45.0069 H   0  0  0  0  0  0  0  0  0  0  0  0
   59.4771   32.9172   47.7314 H   0  0  0  0  0  0  0  0  0  0  0  0
   58.6403   34.1900   48.7016 H   0  0  0  0  0  0  0  0  0  0  0  0
   57.0629   32.4910   47.6987 H   0  0  0  0  0  0  0  0  0  0  0  0
   56.7297   34.1714   47.1763 H   0  0  0  0  0  0  0  0  0  0  0  0
   58.9685   29.8653   48.6985 H   0  0  0  0  0  0  0  0  0  0  0  0
   61.1750   30.4721   50.5470 H   0  0  0  0  0  0  0  0  0  0  0  0
   63.2910   31.6840   50.6100 H   0  0  0  0  0  0  0  0  0  0  0  0
  1  2  1  0
  2  3  2  0
  3  4  1  0
  4  5  1  0
  5  6  1  0
  6  7  1  0
  7  8  2  0
  8  9  1  0
  9 10  2  0
 10 11  1  0
 11 12  2  0
 12 13  1  0
 13 14  1  0
 14 15  1  0
 15 16  1  0
 16 17  1  0
 17 18  1  0
  6 19  2  0
 19 20  1  0
 20 21  1  0
 21 22  2  0
 22  2  1  0
 20  4  2  0
 12  7  1  0
 18 13  1  0
  1 23  1  0
  1 24  1  0
  1 25  1  0
  8 26  1  0
  9 27  1  0
 10 28  1  0
 14 29  1  0
 14 30  1  0
 15 31  1  0
 15 32  1  0
 17 33  1  0
 17 34  1  0
 18 35  1  0
 18 36  1  0
 19 37  1  0
 21 38  1  0
 22 39  1  0
M  CHG  1  22   1
M  END
>  <UniqueID>  (9) 
9

>  <SMILES>  (9) 
Cc1nc2oc(-c3cccnc3N3CCOCC3)cc2c[nH+]1

>  <Energy>  (9) 
87.49636766290848

>  <Genealogy>  (9) 
Cc1nc2oc(-c3cccnc3N3CCOCC3)cc2c[nH+]1 (protonated)
Cc1nc2oc(-c3cccnc3N3CCOCC3)cc2c[nH+]1 (3D coordinates assigned)
Cc1nc2oc(-c3cccnc3N3CCOCC3)cc2c[nH+]1 (nonaromatic ring conformer: 87.49636766290848 kcal/mol)

>  <smiles>  (9) 
Cc1ncc2cc(-c3cccnc3N3CCOCC3)oc2n1

>  <score_type>  (9) 
oracle

>  <origin>  (9) 
adg

>  <m_score__min__energy>  (9) 
-5.71

>  <m_primary>  (9) 
energy

$$$$
9:0
     RDKit          3D

 52 55  0  0  0  0  0  0  0  0999 V2000
   60.6570   28.9670   45.1890 C   0  0  0  0  0  0  0  0  0  0  0  0
   60.3870   27.8190   45.8190 C   0  0  0  0  0  0  0  0  0  0  0  0
   59.4710   27.7630   47.0190 C   0  0  0  0  0  0  0  0  0  0  0  0
   60.0230   28.5180   48.1690 N   0  0  2  0  0  0  0  0  0  0  0  0
   60.7380   27.6020   49.0860 C   0  0  0  0  0  0  0  0  0  0  0  0
   58.9260   29.2240   48.8830 C   0  0  0  0  0  0  0  0  0  0  0  0
   59.3970   30.4910   49.6310 C   0  0  0  0  0  0  0  0  0  0  0  0
   58.9310   31.7920   48.9460 C   0  0  0  0  0  0  0  0  0  0  0  0
   59.6040   32.0110   47.6540 N   0  0  0  0  0  0  0  0  0  0  0  0
   60.9480   32.5400   47.5880 C   0  0  0  0  0  0  0  0  0  0  0  0
   61.9990   31.9550   48.3150 C   0  0  0  0  0  0  0  0  0  0  0  0
   63.3180   32.3700   48.1070 C   0  0  0  0  0  0  0  0  0  0  0  0
   63.6040   33.3580   47.1620 C   0  0  0  0  0  0  0  0  0  0  0  0
   62.5680   33.9490   46.4340 C   0  0  0  0  0  0  0  0  0  0  0  0
   61.2440   33.5550   46.6560 C   0  0  0  0  0  0  0  0  0  0  0  0
   59.9050   34.4060   45.8190 S   0  0  0  0  0  0  0  0  0  0  0  0
   59.0450   32.8850   45.4140 C   0  0  0  0  0  0  0  0  0  0  0  0
   58.4790   32.7180   44.1400 C   0  0  0  0  0  0  0  0  0  0  0  0
   57.7110   31.5780   43.8940 C   0  0  0  0  0  0  0  0  0  0  0  0
   57.5090   30.6360   44.8670 C   0  0  0  0  0  0  0  0  0  0  0  0
   58.0750   30.7700   46.1360 C   0  0  0  0  0  0  0  0  0  0  0  0
   58.8660   31.9020   46.4160 C   0  0  0  0  0  0  0  0  0  0  0  0
   56.6690   29.5140   44.3910 C   0  0  0  0  0  0  0  0  0  0  0  0
   56.3840   29.8610   42.9160 C   0  0  0  0  0  0  0  0  0  0  0  0
   57.0190   31.2350   42.6310 C   0  0  0  0  0  0  0  0  0  0  0  0
   61.3287   28.9716   44.3179 H   0  0  0  0  0  0  0  0  0  0  0  0
   60.2074   29.9069   45.5418 H   0  0  0  0  0  0  0  0  0  0  0  0
   60.8451   26.8883   45.4529 H   0  0  0  0  0  0  0  0  0  0  0  0
   58.4973   28.1947   46.7441 H   0  0  0  0  0  0  0  0  0  0  0  0
   59.3661   26.7102   47.3200 H   0  0  0  0  0  0  0  0  0  0  0  0
   60.7090   29.2150   47.7980 H   0  0  0  0  0  0  0  0  0  0  0  0
   60.5198   27.8815   50.1273 H   0  0  0  0  0  0  0  0  0  0  0  0
   60.4048   26.5692   48.9061 H   0  0  0  0  0  0  0  0  0  0  0  0
   61.8208   27.6745   48.9061 H   0  0  0  0  0  0  0  0  0  0  0  0
   58.1628   29.5170   48.1470 H   0  0  0  0  0  0  0  0  0  0  0  0
   58.5300   28.5292   49.6383 H   0  0  0  0  0  0  0  0  0  0  0  0
   58.9927   30.4670   50.6537 H   0  0  0  0  0  0  0  0  0  0  0  0
   60.4970   30.4892   49.6294 H   0  0  0  0  0  0  0  0  0  0  0  0
   57.8459   31.7336   48.7751 H   0  0  0  0  0  0  0  0  0  0  0  0
   59.1867   32.6329   49.6074 H   0  0  0  0  0  0  0  0  0  0  0  0
   61.7829   31.1668   49.0512 H   0  0  0  0  0  0  0  0  0  0  0  0
   64.1334   31.9167   48.6898 H   0  0  0  0  0  0  0  0  0  0  0  0
   64.6446   33.6708   46.9909 H   0  0  0  0  0  0  0  0  0  0  0  0
   62.7934   34.7239   45.6865 H   0  0  0  0  0  0  0  0  0  0  0  0
   58.6372   33.4693   43.3523 H   0  0  0  0  0  0  0  0  0  0  0  0
   57.9060   30.0030   46.9062 H   0  0  0  0  0  0  0  0  0  0  0  0
   57.2099   28.5595   44.4706 H   0  0  0  0  0  0  0  0  0  0  0  0
   55.7496   29.3928   44.9827 H   0  0  0  0  0  0  0  0  0  0  0  0
   56.8278   29.0988   42.2586 H   0  0  0  0  0  0  0  0  0  0  0  0
   55.3006   29.8890   42.7276 H   0  0  0  0  0  0  0  0  0  0  0  0
   57.7346   31.1699   41.7981 H   0  0  0  0  0  0  0  0  0  0  0  0
   56.2771   31.9915   42.3356 H   0  0  0  0  0  0  0  0  0  0  0  0
  1  2  2  0
  2  3  1  0
  3  4  1  0
  4  5  1  0
  4  6  1  0
  6  7  1  0
  7  8  1  0
  8  9  1  0
  9 10  1  0
 10 11  2  0
 11 12  1  0
 12 13  2  0
 13 14  1  0
 14 15  2  0
 15 16  1  0
 16 17  1  0
 17 18  2  0
 18 19  1  0
 19 20  2  0
 20 21  1  0
 21 22  2  0
 20 23  1  0
 23 24  1  0
 24 25  1  0
 22  9  1  0
 15 10  1  0
 22 17  1  0
 25 19  1  0
  1 26  1  0
  1 27  1  0
  2 28  1  0
  3 29  1  0
  3 30  1  0
  4 31  1  6
  5 32  1  0
  5 33  1  0
  5 34  1  0
  6 35  1  0
  6 36  1  0
  7 37  1  0
  7 38  1  0
  8 39  1  0
  8 40  1  0
 11 41  1  0
 12 42  1  0
 13 43  1  0
 14 44  1  0
 18 45  1  0
 21 46  1  0
 23 47  1  0
 23 48  1  0
 24 49  1  0
 24 50  1  0
 25 51  1  0
 25 52  1  0
M  CHG  1   4   1
M  END
>  <UniqueID>  (10) 
10

>  <SMILES>  (10) 
C=CC[N@H+](C)CCCN1c2ccccc2Sc2cc3c(cc21)CCC3

>  <Energy>  (10) 
80.87232158284239

>  <Genealogy>  (10) 
C=CC[NH+](C)CCCN1c2ccccc2Sc2cc3c(cc21)CCC3 (protonated)
C=CC[N@H+](C)CCCN1c2ccccc2Sc2cc3c(cc21)CCC3 (chirality)
C=CC[N@H+](C)CCCN1c2ccccc2Sc2cc3c(cc21)CCC3 (3D coordinates assigned)
C=CC[N@H+](C)CCCN1c2ccccc2Sc2cc3c(cc21)CCC3 (nonaromatic ring conformer: 80.87232158284239 kcal/mol)

>  <smiles>  (10) 
C=CCN(C)CCCN1c2ccccc2Sc2cc3c(cc21)CCC3

>  <score_type>  (10) 
oracle

>  <origin>  (10) 
adg

>  <m_score__min__energy>  (10) 
-6.9500000000000002

>  <m_primary>  (10) 
energy

$$$$
10:0
     RDKit          3D

 57 60  0  0  0  0  0  0  0  0999 V2000
   56.3050   22.9880   43.0150 C   0  0  0  0  0  0  0  0  0  0  0  0
   57.0410   23.1500   44.3410 C   0  0  0  0  0  0  0  0  0  0  0  0
   58.0120   24.1930   44.2560 O   0  0  0  0  0  0  0  0  0  0  0  0
   57.7740   25.5550   44.5070 C   0  0  0  0  0  0  0  0  0  0  0  0
   57.1970   26.0210   45.7040 C   0  0  0  0  0  0  0  0  0  0  0  0
   56.9810   27.3890   45.8970 C   0  0  0  0  0  0  0  0  0  0  0  0
   57.3280   28.3140   44.8990 C   0  0  0  0  0  0  0  0  0  0  0  0
   57.0920   29.7620   45.1120 C   0  0  0  0  0  0  0  0  0  0  0  0
   55.9570   30.2480   44.8590 O   0  0  0  0  0  0  0  0  0  0  0  0
   58.1540   30.6590   45.6130 C   0  0  0  0  0  0  0  0  0  0  0  0
   59.2750   30.3010   46.3680 C   0  0  0  0  0  0  0  0  0  0  0  0
   59.6310   28.9030   46.7880 C   0  0  0  0  0  0  0  0  0  0  0  0
   59.9980   31.4070   46.6940 N   0  0  0  0  0  0  0  0  0  0  0  0
   61.2510   31.4570   47.4550 C   0  0  0  0  0  0  0  0  0  0  0  0
   61.1090   32.4130   48.6420 C   0  0  0  0  0  0  0  0  0  0  0  0
   61.8600   33.6630   48.3770 N   0  0  0  0  0  0  0  0  0  0  0  0
   62.6930   33.5700   47.1540 C   0  0  0  0  0  0  0  0  0  0  0  0
   64.1310   33.0950   47.4520 C   0  0  0  0  0  0  0  0  0  0  0  0
   64.1650   32.3180   48.6300 O   0  0  0  0  0  0  0  0  0  0  0  0
   63.8790   33.1310   49.7570 C   0  0  0  0  0  0  0  0  0  0  0  0
   62.6750   34.0760   49.5350 C   0  0  0  0  0  0  0  0  0  0  0  0
   59.3590   32.4530   46.1260 C   0  0  0  0  0  0  0  0  0  0  0  0
   59.7220   33.8050   46.1610 C   0  0  0  0  0  0  0  0  0  0  0  0
   58.8810   34.7320   45.5210 C   0  0  0  0  0  0  0  0  0  0  0  0
   57.7060   34.3030   44.8730 C   0  0  0  0  0  0  0  0  0  0  0  0
   57.3630   32.9400   44.8470 C   0  0  0  0  0  0  0  0  0  0  0  0
   58.2260   32.0350   45.4700 C   0  0  0  0  0  0  0  0  0  0  0  0
   57.9230   27.8470   43.7140 C   0  0  0  0  0  0  0  0  0  0  0  0
   58.1390   26.4800   43.5230 C   0  0  0  0  0  0  0  0  0  0  0  0
   55.2475   22.7552   43.2087 H   0  0  0  0  0  0  0  0  0  0  0  0
   56.3753   23.9231   42.4400 H   0  0  0  0  0  0  0  0  0  0  0  0
   56.7614   22.1688   42.4400 H   0  0  0  0  0  0  0  0  0  0  0  0
   56.3145   23.3966   45.1293 H   0  0  0  0  0  0  0  0  0  0  0  0
   57.5555   22.2068   44.5770 H   0  0  0  0  0  0  0  0  0  0  0  0
   56.9149   25.3057   46.4907 H   0  0  0  0  0  0  0  0  0  0  0  0
   56.5356   27.7435   46.8383 H   0  0  0  0  0  0  0  0  0  0  0  0
   59.6463   28.8428   47.8862 H   0  0  0  0  0  0  0  0  0  0  0  0
   58.8833   28.1997   46.3926 H   0  0  0  0  0  0  0  0  0  0  0  0
   60.6240   28.6430   46.3926 H   0  0  0  0  0  0  0  0  0  0  0  0
   61.4915   30.4498   47.8261 H   0  0  0  0  0  0  0  0  0  0  0  0
   62.0566   31.8167   46.7980 H   0  0  0  0  0  0  0  0  0  0  0  0
   60.0458   32.6515   48.7928 H   0  0  0  0  0  0  0  0  0  0  0  0
   61.5143   31.9319   49.5444 H   0  0  0  0  0  0  0  0  0  0  0  0
   62.2228   32.8573   46.4605 H   0  0  0  0  0  0  0  0  0  0  0  0
   62.7580   34.5773   46.7169 H   0  0  0  0  0  0  0  0  0  0  0  0
   64.4932   32.4886   46.6087 H   0  0  0  0  0  0  0  0  0  0  0  0
   64.7735   33.9770   47.5910 H   0  0  0  0  0  0  0  0  0  0  0  0
   63.6571   32.4768   50.6130 H   0  0  0  0  0  0  0  0  0  0  0  0
   64.7616   33.7621   49.9380 H   0  0  0  0  0  0  0  0  0  0  0  0
   62.0440   34.0663   50.4360 H   0  0  0  0  0  0  0  0  0  0  0  0
   63.0649   35.0851   49.3359 H   0  0  0  0  0  0  0  0  0  0  0  0
   60.6383   34.1321   46.6742 H   0  0  0  0  0  0  0  0  0  0  0  0
   59.1424   35.8005   45.5262 H   0  0  0  0  0  0  0  0  0  0  0  0
   57.0521   35.0400   44.3838 H   0  0  0  0  0  0  0  0  0  0  0  0
   56.4431   32.5964   44.3512 H   0  0  0  0  0  0  0  0  0  0  0  0
   58.2202   28.5620   42.9327 H   0  0  0  0  0  0  0  0  0  0  0  0
   58.6009   26.1273   42.5891 H   0  0  0  0  0  0  0  0  0  0  0  0
  1  2  1  0
  2  3  1  0
  3  4  1  0
  4  5  2  0
  5  6  1  0
  6  7  2  0
  7  8  1  0
  8  9  2  0
  8 10  1  0
 10 11  2  0
 11 12  1  0
 11 13  1  0
 13 14  1  0
 14 15  1  0
 15 16  1  0
 16 17  1  0
 17 18  1  0
 18 19  1  0
 19 20  1  0
 20 21  1  0
 13 22  1  0
 22 23  2  0
 23 24  1  0
 24 25  2  0
 25 26  1  0
 26 27  2  0
  7 28  1  0
 28 29  2  0
 29  4  1  0
 27 10  1  0
 21 16  1  0
 27 22  1  0
  1 30  1  0
  1 31  1  0
  1 32  1  0
  2 33  1  0
  2 34  1  0
  5 35  1  0
  6 36  1  0
 12 37  1  0
 12 38  1  0
 12 39  1  0
 14 40  1  0
 14 41  1  0
 15 42  1  0
 15 43  1  0
 17 44  1  0
 17 45  1  0
 18 46  1  0
 18 47  1  0
 20 48  1  0
 20 49  1  0
 21 50  1  0
 21 51  1  0
 23 52  1  0
 24 53  1  0
 25 54  1  0
 26 55  1  0
 28 56  1  0
 29 57  1  0
M  END
>  <UniqueID>  (11) 
11

>  <SMILES>  (11) 
CCOc1ccc(C(=O)c2c(C)n(CCN3CCOCC3)c3ccccc23)cc1

>  <Energy>  (11) 
106.9389259056758

>  <Genealogy>  (11) 
CCOc1ccc(C(=O)c2c(C)n(CCN3CCOCC3)c3ccccc23)cc1 (3D coordinates assigned)
CCOc1ccc(C(=O)c2c(C)n(CCN3CCOCC3)c3ccccc23)cc1 (nonaromatic ring conformer: 106.9389259056758 kcal/mol)

>  <smiles>  (11) 
CCOc1ccc(C(=O)c2c(C)n(CCN3CCOCC3)c3ccccc23)cc1

>  <score_type>  (11) 
oracle

>  <origin>  (11) 
adg

>  <m_score__min__energy>  (11) 
-8.6199999999999992

>  <m_primary>  (11) 
energy

$$$$
11:0
     RDKit          3D

 30 30  0  0  0  0  0  0  0  0999 V2000
   59.1540   27.1500   45.5040 C   0  0  0  0  0  0  0  0  0  0  0  0
   57.7800   27.0700   44.8290 C   0  0  0  0  0  0  0  0  0  0  0  0
   57.0820   28.3670   44.8150 N   0  0  0  0  0  0  0  0  0  0  0  0
   57.0340   28.9730   43.4760 C   0  0  0  0  0  0  0  0  0  0  0  0
   56.7380   30.4720   43.5750 C   0  0  0  0  0  0  0  0  0  0  0  0
   56.6540   30.8750   44.9810 N   0  0  0  0  0  0  0  0  0  0  0  0
   58.2360   31.0070   45.6960 S   0  0  0  0  0  0  0  0  0  0  0  0
   58.2240   30.3740   47.0590 O   0  0  0  0  0  0  0  0  0  0  0  0
   59.2260   30.2700   44.8380 O   0  0  0  0  0  0  0  0  0  0  0  0
   58.7270   32.6950   45.8180 C   0  0  0  0  0  0  0  0  0  0  0  0
   58.4130   33.6040   44.7960 C   0  0  0  0  0  0  0  0  0  0  0  0
   58.8470   34.9310   44.8780 C   0  0  0  0  0  0  0  0  0  0  0  0
   59.5930   35.3570   45.9810 C   0  0  0  0  0  0  0  0  0  0  0  0
   60.0190   36.6420   46.0560 F   0  0  0  0  0  0  0  0  0  0  0  0
   59.9060   34.4560   47.0030 C   0  0  0  0  0  0  0  0  0  0  0  0
   59.4750   33.1280   46.9220 C   0  0  0  0  0  0  0  0  0  0  0  0
   59.0268   27.1426   46.5966 H   0  0  0  0  0  0  0  0  0  0  0  0
   59.7628   26.2858   45.1999 H   0  0  0  0  0  0  0  0  0  0  0  0
   59.6584   28.0790   45.1999 H   0  0  0  0  0  0  0  0  0  0  0  0
   57.9160   26.7314   43.7913 H   0  0  0  0  0  0  0  0  0  0  0  0
   57.1642   26.3653   45.4070 H   0  0  0  0  0  0  0  0  0  0  0  0
   57.5600   29.0280   45.4730 H   0  0  0  0  0  0  0  0  0  0  0  0
   58.0041   28.8279   42.9782 H   0  0  0  0  0  0  0  0  0  0  0  0
   56.2336   28.4903   42.8960 H   0  0  0  0  0  0  0  0  0  0  0  0
   57.5439   31.0356   43.0821 H   0  0  0  0  0  0  0  0  0  0  0  0
   55.7782   30.6836   43.0810 H   0  0  0  0  0  0  0  0  0  0  0  0
   57.8241   33.2720   43.9283 H   0  0  0  0  0  0  0  0  0  0  0  0
   58.6012   35.6402   44.0739 H   0  0  0  0  0  0  0  0  0  0  0  0
   60.4917   34.7918   47.8715 H   0  0  0  0  0  0  0  0  0  0  0  0
   59.7237   32.4209   47.7271 H   0  0  0  0  0  0  0  0  0  0  0  0
  1  2  1  0
  2  3  1  0
  3  4  1  0
  4  5  1  0
  5  6  1  0
  6  7  1  0
  7  8  2  0
  7  9  2  0
  7 10  1  0
 10 11  2  0
 11 12  1  0
 12 13  2  0
 13 14  1  0
 13 15  1  0
 15 16  2  0
 16 10  1  0
  1 17  1  0
  1 18  1  0
  1 19  1  0
  2 20  1  0
  2 21  1  0
  3 22  1  0
  4 23  1  0
  4 24  1  0
  5 25  1  0
  5 26  1  0
 11 27  1  0
 12 28  1  0
 15 29  1  0
 16 30  1  0
M  CHG  1   6  -1
M  END
>  <UniqueID>  (12) 
12

>  <SMILES>  (12) 
CCNCC[N-]S(=O)(=O)c1ccc(F)cc1

>  <Energy>  (12) 
22.40433393348771

>  <Genealogy>  (12) 
CCNCC[N-]S(=O)(=O)c1ccc(F)cc1 (protonated)
CCNCC[N-]S(=O)(=O)c1ccc(F)cc1 (3D coordinates assigned)
CCNCC[N-]S(=O)(=O)c1ccc(F)cc1 (optimized conformer: 22.40433393348771 kcal/mol)

>  <smiles>  (12) 
CCNCCNS(=O)(=O)c1ccc(F)cc1

>  <score_type>  (12) 
oracle

>  <origin>  (12) 
adg

>  <m_score__min__energy>  (12) 
-7.6299999999999999

>  <m_primary>  (12) 
energy

$$$$
12:0
     RDKit          3D

 45 47  0  0  0  0  0  0  0  0999 V2000
   60.1890   29.5210   47.4900 C   0  0  0  0  0  0  0  0  0  0  0  0
   59.1760   28.6650   46.7360 C   0  0  0  0  0  0  0  0  0  0  0  0
   58.3870   29.4970   45.8350 N   0  0  0  0  0  0  0  0  0  0  0  0
   58.7710   30.6780   45.3150 C   0  0  0  0  0  0  0  0  0  0  0  0
   57.8050   31.0910   44.4200 C   0  0  0  0  0  0  0  0  0  0  0  0
   57.7850   32.3900   43.6570 C   0  0  0  0  0  0  0  0  0  0  0  0
   57.7390   33.6220   44.4890 N   0  0  0  0  0  0  0  0  0  0  0  0
   58.9980   34.4020   44.5250 C   0  0  0  0  0  0  0  0  0  0  0  0
   59.9620   33.9760   45.6380 C   0  0  0  0  0  0  0  0  0  0  0  0
   59.2600   33.8960   46.9180 N   0  0  0  0  0  0  0  0  0  0  0  0
   59.9470   34.1870   48.1520 C   0  0  0  0  0  0  0  0  0  0  0  0
   59.2860   34.4520   49.1910 O   0  0  0  0  0  0  0  0  0  0  0  0
   61.4490   34.2130   48.2240 C   0  0  0  0  0  0  0  0  0  0  0  0
   62.0500   33.3130   49.2930 C   0  0  0  0  0  0  0  0  0  0  0  0
   62.1230   32.9050   47.8330 C   0  0  0  0  0  0  0  0  0  0  0  0
   58.0350   33.1000   46.9610 C   0  0  0  0  0  0  0  0  0  0  0  0
   57.0840   33.4690   45.8130 C   0  0  0  0  0  0  0  0  0  0  0  0
   56.8170   30.1140   44.4980 C   0  0  0  0  0  0  0  0  0  0  0  0
   55.5180   30.0760   43.7570 C   0  0  0  0  0  0  0  0  0  0  0  0
   57.2120   29.1410   45.3420 N   0  0  0  0  0  0  0  0  0  0  0  0
   60.0410   29.3959   48.5728 H   0  0  0  0  0  0  0  0  0  0  0  0
   61.2079   29.2061   47.2204 H   0  0  0  0  0  0  0  0  0  0  0  0
   60.0485   30.5782   47.2204 H   0  0  0  0  0  0  0  0  0  0  0  0
   59.7092   27.9007   46.1517 H   0  0  0  0  0  0  0  0  0  0  0  0
   58.5038   28.1819   47.4603 H   0  0  0  0  0  0  0  0  0  0  0  0
   59.6957   31.2205   45.5612 H   0  0  0  0  0  0  0  0  0  0  0  0
   58.6932   32.4331   43.0379 H   0  0  0  0  0  0  0  0  0  0  0  0
   56.8512   32.3838   43.0757 H   0  0  0  0  0  0  0  0  0  0  0  0
   57.0770   34.2340   43.9510 H   0  0  0  0  0  0  0  0  0  0  0  0
   59.5090   34.2793   43.5587 H   0  0  0  0  0  0  0  0  0  0  0  0
   58.7200   35.4470   44.7266 H   0  0  0  0  0  0  0  0  0  0  0  0
   60.3841   32.9900   45.3940 H   0  0  0  0  0  0  0  0  0  0  0  0
   60.7661   34.7223   45.7183 H   0  0  0  0  0  0  0  0  0  0  0  0
   61.5647   35.2688   47.9377 H   0  0  0  0  0  0  0  0  0  0  0  0
   62.9625   33.6232   49.8233 H   0  0  0  0  0  0  0  0  0  0  0  0
   61.6744   32.8422   50.2135 H   0  0  0  0  0  0  0  0  0  0  0  0
   63.0881   32.9200   47.3055 H   0  0  0  0  0  0  0  0  0  0  0  0
   61.8222   32.0169   47.2579 H   0  0  0  0  0  0  0  0  0  0  0  0
   58.2976   32.0349   46.8794 H   0  0  0  0  0  0  0  0  0  0  0  0
   57.5232   33.3050   47.9128 H   0  0  0  0  0  0  0  0  0  0  0  0
   56.3242   32.6780   45.7299 H   0  0  0  0  0  0  0  0  0  0  0  0
   56.6598   34.4521   46.0650 H   0  0  0  0  0  0  0  0  0  0  0  0
   54.6861   30.0517   44.4763 H   0  0  0  0  0  0  0  0  0  0  0  0
   55.4301   30.9720   43.1249 H   0  0  0  0  0  0  0  0  0  0  0  0
   55.4826   29.1764   43.1249 H   0  0  0  0  0  0  0  0  0  0  0  0
  1  2  1  0
  2  3  1  0
  3  4  1  0
  4  5  2  0
  5  6  1  0
  6  7  1  0
  7  8  1  0
  8  9  1  0
  9 10  1  0
 10 11  1  0
 11 12  2  0
 11 13  1  0
 13 14  1  0
 14 15  1  0
 10 16  1  0
 16 17  1  0
  5 18  1  0
 18 19  1  0
 18 20  2  0
 20  3  1  0
 17  7  1  0
 15 13  1  0
  1 21  1  0
  1 22  1  0
  1 23  1  0
  2 24  1  0
  2 25  1  0
  4 26  1  0
  6 27  1  0
  6 28  1  0
  7 29  1  0
  8 30  1  0
  8 31  1  0
  9 32  1  0
  9 33  1  0
 13 34  1  0
 14 35  1  0
 14 36  1  0
 15 37  1  0
 15 38  1  0
 16 39  1  0
 16 40  1  0
 17 41  1  0
 17 42  1  0
 19 43  1  0
 19 44  1  0
 19 45  1  0
M  CHG  1   7   1
M  END
>  <UniqueID>  (13) 
13

>  <SMILES>  (13) 
CCn1cc(C[NH+]2CCN(C(=O)C3CC3)CC2)c(C)n1

>  <Energy>  (13) 
342.4980209318264

>  <Genealogy>  (13) 
CCn1cc(C[NH+]2CCN(C(=O)C3CC3)CC2)c(C)n1 (protonated)
CCn1cc(C[NH+]2CCN(C(=O)C3CC3)CC2)c(C)n1 (3D coordinates assigned)
CCn1cc(C[NH+]2CCN(C(=O)C3CC3)CC2)c(C)n1 (nonaromatic ring conformer: 342.4980209318264 kcal/mol)

>  <smiles>  (13) 
CCn1cc(CN2CCN(C(=O)C3CC3)CC2)c(C)n1

>  <score_type>  (13) 
oracle

>  <origin>  (13) 
adg

>  <m_score__min__energy>  (13) 
-5.4100000000000001

>  <m_primary>  (13) 
energy

$$$$
13:0
     RDKit          3D

 37 40  0  0  0  0  0  0  0  0999 V2000
   63.0040   32.7400   47.4670 C   0  0  0  0  0  0  0  0  0  0  0  0
   61.6130   32.9820   46.9850 C   0  0  0  0  0  0  0  0  0  0  0  0
   61.2970   33.8800   46.0230 N   0  0  0  0  0  0  0  0  0  0  0  0
   59.9920   33.7550   45.8500 N   0  0  0  0  0  0  0  0  0  0  0  0
   59.5440   32.7830   46.6510 C   0  0  0  0  0  0  0  0  0  0  0  0
   60.5380   32.2740   47.3970 N   0  0  0  0  0  0  0  0  0  0  0  0
   58.0970   32.4020   46.7240 C   0  0  0  0  0  0  0  0  0  0  0  0
   57.3650   32.8470   45.5100 N   0  0  0  0  0  0  0  0  0  0  0  0
   57.5710   31.9330   44.3660 C   0  0  0  0  0  0  0  0  0  0  0  0
   56.9780   30.5920   44.6650 C   0  0  0  0  0  0  0  0  0  0  0  0
   55.6760   30.2080   44.4350 C   0  0  0  0  0  0  0  0  0  0  0  0
   55.5670   28.9580   44.8100 O   0  0  0  0  0  0  0  0  0  0  0  0
   56.7470   28.5790   45.2510 C   0  0  0  0  0  0  0  0  0  0  0  0
   57.0320   27.2340   45.7600 C   0  0  0  0  0  0  0  0  0  0  0  0
   58.2820   26.7520   46.1230 C   0  0  0  0  0  0  0  0  0  0  0  0
   58.2480   25.4270   46.5760 C   0  0  0  0  0  0  0  0  0  0  0  0
   56.9770   24.8670   46.5730 C   0  0  0  0  0  0  0  0  0  0  0  0
   55.8930   26.0210   46.0040 S   0  0  0  0  0  0  0  0  0  0  0  0
   57.6730   29.5600   45.1820 N   0  0  0  0  0  0  0  0  0  0  0  0
   57.6870   34.2550   45.1620 C   0  0  0  0  0  0  0  0  0  0  0  0
   59.1880   34.4630   44.8640 C   0  0  0  0  0  0  0  0  0  0  0  0
   63.0158   32.7380   48.5669 H   0  0  0  0  0  0  0  0  0  0  0  0
   63.3570   31.7670   47.0947 H   0  0  0  0  0  0  0  0  0  0  0  0
   63.6649   33.5367   47.0947 H   0  0  0  0  0  0  0  0  0  0  0  0
   60.4900   31.5140   48.1120 H   0  0  0  0  0  0  0  0  0  0  0  0
   58.0174   31.3083   46.8109 H   0  0  0  0  0  0  0  0  0  0  0  0
   57.6502   32.8930   47.6011 H   0  0  0  0  0  0  0  0  0  0  0  0
   57.0867   32.3538   43.4725 H   0  0  0  0  0  0  0  0  0  0  0  0
   58.6503   31.8174   44.1877 H   0  0  0  0  0  0  0  0  0  0  0  0
   54.8759   30.8348   44.0144 H   0  0  0  0  0  0  0  0  0  0  0  0
   59.2040   27.3488   46.0613 H   0  0  0  0  0  0  0  0  0  0  0  0
   59.1447   24.8807   46.9037 H   0  0  0  0  0  0  0  0  0  0  0  0
   56.7227   23.8444   46.8885 H   0  0  0  0  0  0  0  0  0  0  0  0
   57.1079   34.5393   44.2710 H   0  0  0  0  0  0  0  0  0  0  0  0
   57.4289   34.8806   46.0292 H   0  0  0  0  0  0  0  0  0  0  0  0
   59.4176   34.0759   43.8603 H   0  0  0  0  0  0  0  0  0  0  0  0
   59.4209   35.5370   44.9107 H   0  0  0  0  0  0  0  0  0  0  0  0
  1  2  1  0
  2  3  2  0
  3  4  1  0
  4  5  1  0
  5  6  2  0
  5  7  1  0
  7  8  1  0
  8  9  1  0
  9 10  1  0
 10 11  2  0
 11 12  1  0
 12 13  1  0
 13 14  1  0
 14 15  2  0
 15 16  1  0
 16 17  2  0
 17 18  1  0
 13 19  2  0
  8 20  1  0
 20 21  1  0
  6  2  1  0
 19 10  1  0
 21  4  1  0
 18 14  1  0
  1 22  1  0
  1 23  1  0
  1 24  1  0
  6 25  1  0
  7 26  1  0
  7 27  1  0
  9 28  1  0
  9 29  1  0
 11 30  1  0
 15 31  1  0
 16 32  1  0
 17 33  1  0
 20 34  1  0
 20 35  1  0
 21 36  1  0
 21 37  1  0
M  CHG  1   6   1
M  END
>  <UniqueID>  (14) 
14

>  <SMILES>  (14) 
Cc1nn2c([nH+]1)CN(Cc1coc(-c3cccs3)n1)CC2

>  <Energy>  (14) 
132.74510032077634

>  <Genealogy>  (14) 
Cc1nn2c([nH+]1)CN(Cc1coc(-c3cccs3)n1)CC2 (protonated)
Cc1nn2c([nH+]1)CN(Cc1coc(-c3cccs3)n1)CC2 (3D coordinates assigned)
Cc1nn2c([nH+]1)CN(Cc1coc(-c3cccs3)n1)CC2 (nonaromatic ring conformer: 132.74510032077634 kcal/mol)

>  <smiles>  (14) 
Cc1nc2n(n1)CCN(Cc1coc(-c3cccs3)n1)C2

>  <score_type>  (14) 
oracle

>  <origin>  (14) 
adg

>  <m_score__min__energy>  (14) 
-6.2800000000000002

>  <m_primary>  (14) 
energy

$$$$
14:0
     RDKit          3D

 42 45  0  0  0  0  0  0  0  0999 V2000
   59.9990   26.5080   48.2630 C   0  0  0  0  0  0  0  0  0  0  0  0
   59.2830   26.8210   46.9890 C   0  0  0  0  0  0  0  0  0  0  0  0
   58.8600   25.7760   46.1380 C   0  0  0  0  0  0  0  0  0  0  0  0
   58.1880   26.0950   44.9450 C   0  0  0  0  0  0  0  0  0  0  0  0
   57.7180   25.0240   44.0060 C   0  0  0  0  0  0  0  0  0  0  0  0
   57.9790   27.4130   44.6750 N   0  0  0  0  0  0  0  0  0  0  0  0
   57.3770   27.9500   43.6260 N   0  0  0  0  0  0  0  0  0  0  0  0
   57.3980   29.2950   43.7720 C   0  0  0  0  0  0  0  0  0  0  0  0
   58.0420   29.6160   44.9660 C   0  0  0  0  0  0  0  0  0  0  0  0
   58.2880   30.9550   45.5210 C   0  0  0  0  0  0  0  0  0  0  0  0
   57.6490   32.0340   45.0030 N   0  0  0  0  0  0  0  0  0  0  0  0
   57.8540   33.2870   45.4870 C   0  0  0  0  0  0  0  0  0  0  0  0
   57.1020   34.4270   44.8630 C   0  0  0  0  0  0  0  0  0  0  0  0
   58.7690   33.4850   46.5440 C   0  0  0  0  0  0  0  0  0  0  0  0
   59.3990   32.3430   47.0890 C   0  0  0  0  0  0  0  0  0  0  0  0
   59.1540   31.1200   46.5520 N   0  0  0  0  0  0  0  0  0  0  0  0
   60.4190   32.4450   48.1930 C   0  0  0  0  0  0  0  0  0  0  0  0
   60.2940   33.7470   48.9860 C   0  0  0  0  0  0  0  0  0  0  0  0
   60.2300   34.9400   48.0330 C   0  0  0  0  0  0  0  0  0  0  0  0
   58.9780   34.8590   47.1530 C   0  0  0  0  0  0  0  0  0  0  0  0
   58.3880   28.3890   45.4950 C   0  0  0  0  0  0  0  0  0  0  0  0
   59.0400   28.1220   46.6520 N   0  0  0  0  0  0  0  0  0  0  0  0
   59.3646   26.7853   49.1178 H   0  0  0  0  0  0  0  0  0  0  0  0
   60.2199   25.4312   48.3044 H   0  0  0  0  0  0  0  0  0  0  0  0
   60.9394   27.0771   48.3044 H   0  0  0  0  0  0  0  0  0  0  0  0
   59.0538   24.7267   46.4051 H   0  0  0  0  0  0  0  0  0  0  0  0
   57.3422   24.1676   44.5852 H   0  0  0  0  0  0  0  0  0  0  0  0
   56.9111   25.4204   43.3721 H   0  0  0  0  0  0  0  0  0  0  0  0
   58.5560   24.6985   43.3721 H   0  0  0  0  0  0  0  0  0  0  0  0
   56.9590   27.4240   42.8260 H   0  0  0  0  0  0  0  0  0  0  0  0
   56.9742   30.0200   43.0615 H   0  0  0  0  0  0  0  0  0  0  0  0
   56.6810   35.0652   45.6539 H   0  0  0  0  0  0  0  0  0  0  0  0
   57.7867   35.0201   44.2390 H   0  0  0  0  0  0  0  0  0  0  0  0
   56.2873   34.0309   44.2390 H   0  0  0  0  0  0  0  0  0  0  0  0
   60.2804   31.5980   48.8810 H   0  0  0  0  0  0  0  0  0  0  0  0
   61.4165   32.4298   47.7296 H   0  0  0  0  0  0  0  0  0  0  0  0
   59.3769   33.7166   49.5926 H   0  0  0  0  0  0  0  0  0  0  0  0
   61.1723   33.8556   49.6393 H   0  0  0  0  0  0  0  0  0  0  0  0
   60.2005   35.8702   48.6193 H   0  0  0  0  0  0  0  0  0  0  0  0
   61.1200   34.9265   47.3867 H   0  0  0  0  0  0  0  0  0  0  0  0
   58.1005   35.1068   47.7683 H   0  0  0  0  0  0  0  0  0  0  0  0
   59.1122   35.5693   46.3239 H   0  0  0  0  0  0  0  0  0  0  0  0
  1  2  1  0
  2  3  1  0
  3  4  2  0
  4  5  1  0
  4  6  1  0
  6  7  1  0
  7  8  2  0
  8  9  1  0
  9 10  1  0
 10 11  2  0
 11 12  1  0
 12 13  1  0
 12 14  2  0
 14 15  1  0
 15 16  2  0
 15 17  1  0
 17 18  1  0
 18 19  1  0
 19 20  1  0
  9 21  2  0
 21 22  1  0
 22  2  2  0
 21  6  1  0
 16 10  1  0
 20 14  1  0
  1 23  1  0
  1 24  1  0
  1 25  1  0
  3 26  1  0
  5 27  1  0
  5 28  1  0
  5 29  1  0
  7 30  1  0
  8 31  1  0
 13 32  1  0
 13 33  1  0
 13 34  1  0
 17 35  1  0
 17 36  1  0
 18 37  1  0
 18 38  1  0
 19 39  1  0
 19 40  1  0
 20 41  1  0
 20 42  1  0
M  CHG  1   7   1
M  END
>  <UniqueID>  (15) 
15

>  <SMILES>  (15) 
Cc1cc(C)n2[nH+]cc(-c3nc(C)c4c(n3)CCCC4)c2n1

>  <Energy>  (15) 
80.90669477257867

>  <Genealogy>  (15) 
Cc1cc(C)n2[nH+]cc(-c3nc(C)c4c(n3)CCCC4)c2n1 (protonated)
Cc1cc(C)n2[nH+]cc(-c3nc(C)c4c(n3)CCCC4)c2n1 (3D coordinates assigned)
Cc1cc(C)n2[nH+]cc(-c3nc(C)c4c(n3)CCCC4)c2n1 (nonaromatic ring conformer: 80.90669477257867 kcal/mol)

>  <smiles>  (15) 
Cc1cc(C)n2ncc(-c3nc(C)c4c(n3)CCCC4)c2n1

>  <score_type>  (15) 
oracle

>  <origin>  (15) 
adg

>  <m_score__min__energy>  (15) 
-6.4100000000000001

>  <m_primary>  (15) 
energy

$$$$
15:0
     RDKit          3D

 48 51  0  0  0  0  0  0  0  0999 V2000
   56.9410   26.3100   46.3070 C   0  0  0  0  0  0  0  0  0  0  0  0
   57.9570   25.7280   45.3320 C   0  0  0  0  0  0  0  0  0  0  0  0
   59.3130   26.1500   45.7040 N   0  0  0  0  0  0  0  0  0  0  0  0
   59.4150   26.4420   47.1450 C   0  0  0  0  0  0  0  0  0  0  0  0
   60.1080   27.7880   47.3740 C   0  0  0  0  0  0  0  0  0  0  0  0
   60.3040   28.5040   46.1150 N   0  0  0  0  0  0  0  0  0  0  0  0
   59.7660   29.8270   45.9520 C   0  0  0  0  0  0  0  0  0  0  0  0
   58.6560   30.0440   45.1160 C   0  0  0  0  0  0  0  0  0  0  0  0
   58.0430   28.9690   44.4400 C   0  0  0  0  0  0  0  0  0  0  0  0
   56.9440   29.1830   43.6110 C   0  0  0  0  0  0  0  0  0  0  0  0
   56.4360   30.4650   43.4430 C   0  0  0  0  0  0  0  0  0  0  0  0
   57.0180   31.5430   44.1090 C   0  0  0  0  0  0  0  0  0  0  0  0
   58.1370   31.3600   44.9630 C   0  0  0  0  0  0  0  0  0  0  0  0
   58.7150   32.4190   45.6400 N   0  0  0  0  0  0  0  0  0  0  0  0
   58.1700   33.7850   45.4750 C   0  0  0  0  0  0  0  0  0  0  0  0
   59.7960   32.2090   46.4680 C   0  0  0  0  0  0  0  0  0  0  0  0
   60.3630   33.2540   47.1380 N   0  0  0  0  0  0  0  0  0  0  0  0
   61.4330   33.1120   47.9600 C   0  0  0  0  0  0  0  0  0  0  0  0
   61.9680   34.2260   48.6170 C   0  0  0  0  0  0  0  0  0  0  0  0
   63.0740   34.0760   49.4610 C   0  0  0  0  0  0  0  0  0  0  0  0
   63.6480   32.8140   49.6480 C   0  0  0  0  0  0  0  0  0  0  0  0
   63.1190   31.6960   48.9940 C   0  0  0  0  0  0  0  0  0  0  0  0
   62.0090   31.8410   48.1470 C   0  0  0  0  0  0  0  0  0  0  0  0
   61.4550   30.7450   47.4800 C   0  0  0  0  0  0  0  0  0  0  0  0
   60.3380   30.9120   46.6370 C   0  0  0  0  0  0  0  0  0  0  0  0
   57.2724   26.1202   47.3386 H   0  0  0  0  0  0  0  0  0  0  0  0
   56.8550   27.3943   46.1431 H   0  0  0  0  0  0  0  0  0  0  0  0
   55.9622   25.8357   46.1431 H   0  0  0  0  0  0  0  0  0  0  0  0
   57.8979   24.6299   45.3575 H   0  0  0  0  0  0  0  0  0  0  0  0
   57.7323   26.0917   44.3185 H   0  0  0  0  0  0  0  0  0  0  0  0
   59.9610   25.3560   45.4880 H   0  0  0  0  0  0  0  0  0  0  0  0
   58.4049   26.4768   47.5792 H   0  0  0  0  0  0  0  0  0  0  0  0
   60.0088   25.6508   47.6262 H   0  0  0  0  0  0  0  0  0  0  0  0
   59.4868   28.4020   48.0427 H   0  0  0  0  0  0  0  0  0  0  0  0
   61.0939   27.5994   47.8239 H   0  0  0  0  0  0  0  0  0  0  0  0
   60.4500   27.9380   45.2480 H   0  0  0  0  0  0  0  0  0  0  0  0
   58.4370   27.9501   44.5687 H   0  0  0  0  0  0  0  0  0  0  0  0
   56.4775   28.3350   43.0883 H   0  0  0  0  0  0  0  0  0  0  0  0
   55.5720   30.6302   42.7826 H   0  0  0  0  0  0  0  0  0  0  0  0
   56.6030   32.5522   43.9703 H   0  0  0  0  0  0  0  0  0  0  0  0
   57.9921   34.2308   46.4647 H   0  0  0  0  0  0  0  0  0  0  0  0
   58.8906   34.4026   44.9188 H   0  0  0  0  0  0  0  0  0  0  0  0
   57.2222   33.7369   44.9188 H   0  0  0  0  0  0  0  0  0  0  0  0
   61.5191   35.2194   48.4699 H   0  0  0  0  0  0  0  0  0  0  0  0
   63.4928   34.9518   49.9783 H   0  0  0  0  0  0  0  0  0  0  0  0
   64.5181   32.7003   50.3114 H   0  0  0  0  0  0  0  0  0  0  0  0
   63.5722   30.7049   49.1433 H   0  0  0  0  0  0  0  0  0  0  0  0
   61.8937   29.7452   47.6139 H   0  0  0  0  0  0  0  0  0  0  0  0
  1  2  1  0
  2  3  1  0
  3  4  1  0
  4  5  1  0
  5  6  1  0
  6  7  1  0
  7  8  2  0
  8  9  1  0
  9 10  2  0
 10 11  1  0
 11 12  2  0
 12 13  1  0
 13 14  2  0
 14 15  1  0
 14 16  1  0
 16 17  2  0
 17 18  1  0
 18 19  2  0
 19 20  1  0
 20 21  2  0
 21 22  1  0
 22 23  2  0
 23 24  1  0
 24 25  2  0
 25  7  1  0
 13  8  1  0
 25 16  1  0
 23 18  1  0
  1 26  1  0
  1 27  1  0
  1 28  1  0
  2 29  1  0
  2 30  1  0
  3 31  1  0
  4 32  1  0
  4 33  1  0
  5 34  1  0
  5 35  1  0
  6 36  1  0
  9 37  1  0
 10 38  1  0
 11 39  1  0
 12 40  1  0
 15 41  1  0
 15 42  1  0
 15 43  1  0
 19 44  1  0
 20 45  1  0
 21 46  1  0
 22 47  1  0
 24 48  1  0
M  CHG  1  14   1
M  END
>  <UniqueID>  (16) 
16

>  <SMILES>  (16) 
CCNCCNc1c2ccccc2[n+](C)c2nc3ccccc3cc12

>  <Energy>  (16) 
70.33689987061202

>  <Genealogy>  (16) 
CCNCCNc1c2ccccc2[n+](C)c2nc3ccccc3cc12 (3D coordinates assigned)
CCNCCNc1c2ccccc2[n+](C)c2nc3ccccc3cc12 (optimized conformer: 70.33689987061202 kcal/mol)

>  <smiles>  (16) 
CCNCCNc1c2ccccc2[n+](C)c2nc3ccccc3cc12

>  <score_type>  (16) 
oracle

>  <origin>  (16) 
adg

>  <m_score__min__energy>  (16) 
-6.5199999999999996

>  <m_primary>  (16) 
energy

$$$$
16:0
     RDKit          3D

 54 57  0  0  0  0  0  0  0  0999 V2000
   58.6070   32.1750   50.5640 C   0  0  0  0  0  0  0  0  0  0  0  0
   58.3890   30.9960   51.5080 C   0  0  0  0  0  0  0  0  0  0  0  0
   58.3470   29.7290   50.7620 N   0  0  0  0  0  0  0  0  0  0  0  0
   58.6360   29.9570   49.3370 C   0  0  0  0  0  0  0  0  0  0  0  0
   59.7170   28.9930   48.8220 C   0  0  0  0  0  0  0  0  0  0  0  0
   60.0230   29.2390   47.4100 N   0  0  0  0  0  0  0  0  0  0  0  0
   59.5320   30.3950   46.7040 C   0  0  0  0  0  0  0  0  0  0  0  0
   58.4600   30.2760   45.7990 C   0  0  0  0  0  0  0  0  0  0  0  0
   57.9040   29.0150   45.4900 C   0  0  0  0  0  0  0  0  0  0  0  0
   56.7930   28.9090   44.6580 C   0  0  0  0  0  0  0  0  0  0  0  0
   56.2170   30.0530   44.1190 C   0  0  0  0  0  0  0  0  0  0  0  0
   56.7780   31.3040   44.3680 C   0  0  0  0  0  0  0  0  0  0  0  0
   57.9440   31.4400   45.1670 C   0  0  0  0  0  0  0  0  0  0  0  0
   58.5710   32.6590   45.3370 N   0  0  0  0  0  0  0  0  0  0  0  0
   58.2170   33.8010   44.4620 C   0  0  0  0  0  0  0  0  0  0  0  0
   59.5620   32.8030   46.2900 C   0  0  0  0  0  0  0  0  0  0  0  0
   60.0600   34.0790   46.6580 C   0  0  0  0  0  0  0  0  0  0  0  0
   61.1020   34.2130   47.5710 C   0  0  0  0  0  0  0  0  0  0  0  0
   61.6780   33.0870   48.1670 C   0  0  0  0  0  0  0  0  0  0  0  0
   62.8010   33.2360   49.1290 C   0  0  0  0  0  0  0  0  0  0  0  0
   62.6600   34.0500   50.2690 C   0  0  0  0  0  0  0  0  0  0  0  0
   63.7190   34.1930   51.1710 C   0  0  0  0  0  0  0  0  0  0  0  0
   64.9260   33.5270   50.9480 C   0  0  0  0  0  0  0  0  0  0  0  0
   65.0770   32.7150   49.8210 C   0  0  0  0  0  0  0  0  0  0  0  0
   64.0220   32.5700   48.9160 C   0  0  0  0  0  0  0  0  0  0  0  0
   61.1630   31.8200   47.8580 C   0  0  0  0  0  0  0  0  0  0  0  0
   60.0950   31.6640   46.9470 C   0  0  0  0  0  0  0  0  0  0  0  0
   58.7760   33.0891   51.1520 H   0  0  0  0  0  0  0  0  0  0  0  0
   59.4842   31.9796   49.9298 H   0  0  0  0  0  0  0  0  0  0  0  0
   57.7179   32.3062   49.9298 H   0  0  0  0  0  0  0  0  0  0  0  0
   59.2137   30.9591   52.2350 H   0  0  0  0  0  0  0  0  0  0  0  0
   57.4278   31.1321   52.0252 H   0  0  0  0  0  0  0  0  0  0  0  0
   59.0630   29.0760   51.1620 H   0  0  0  0  0  0  0  0  0  0  0  0
   57.3990   29.3010   50.8620 H   0  0  0  0  0  0  0  0  0  0  0  0
   57.7144   29.8044   48.7562 H   0  0  0  0  0  0  0  0  0  0  0  0
   59.0059   30.9862   49.2195 H   0  0  0  0  0  0  0  0  0  0  0  0
   60.6324   29.1312   49.4161 H   0  0  0  0  0  0  0  0  0  0  0  0
   59.3396   27.9645   48.9207 H   0  0  0  0  0  0  0  0  0  0  0  0
   60.7660   28.6560   46.9640 H   0  0  0  0  0  0  0  0  0  0  0  0
   58.3548   28.1048   45.9123 H   0  0  0  0  0  0  0  0  0  0  0  0
   56.3711   27.9197   44.4272 H   0  0  0  0  0  0  0  0  0  0  0  0
   55.3156   29.9708   43.4940 H   0  0  0  0  0  0  0  0  0  0  0  0
   56.3095   32.2017   43.9382 H   0  0  0  0  0  0  0  0  0  0  0  0
   57.9480   34.6686   45.0824 H   0  0  0  0  0  0  0  0  0  0  0  0
   59.0779   34.0570   43.8270 H   0  0  0  0  0  0  0  0  0  0  0  0
   57.3622   33.5252   43.8270 H   0  0  0  0  0  0  0  0  0  0  0  0
   59.6139   34.9806   46.2130 H   0  0  0  0  0  0  0  0  0  0  0  0
   61.4763   35.2154   47.8263 H   0  0  0  0  0  0  0  0  0  0  0  0
   61.7115   34.5765   50.4512 H   0  0  0  0  0  0  0  0  0  0  0  0
   63.6009   34.8319   52.0586 H   0  0  0  0  0  0  0  0  0  0  0  0
   65.7574   33.6416   51.6591 H   0  0  0  0  0  0  0  0  0  0  0  0
   66.0273   32.1893   49.6459 H   0  0  0  0  0  0  0  0  0  0  0  0
   64.1472   31.9301   48.0301 H   0  0  0  0  0  0  0  0  0  0  0  0
   61.5994   30.9298   48.3346 H   0  0  0  0  0  0  0  0  0  0  0  0
  1  2  1  0
  2  3  1  0
  3  4  1  0
  4  5  1  0
  5  6  1  0
  6  7  1  0
  7  8  2  0
  8  9  1  0
  9 10  2  0
 10 11  1  0
 11 12  2  0
 12 13  1  0
 13 14  2  0
 14 15  1  0
 14 16  1  0
 16 17  2  0
 17 18  1  0
 18 19  2  0
 19 20  1  0
 20 21  2  0
 21 22  1  0
 22 23  2  0
 23 24  1  0
 24 25  2  0
 19 26  1  0
 26 27  2  0
 27  7  1  0
 13  8  1  0
 27 16  1  0
 25 20  1  0
  1 28  1  0
  1 29  1  0
  1 30  1  0
  2 31  1  0
  2 32  1  0
  3 33  1  0
  3 34  1  0
  4 35  1  0
  4 36  1  0
  5 37  1  0
  5 38  1  0
  6 39  1  0
  9 40  1  0
 10 41  1  0
 11 42  1  0
 12 43  1  0
 15 44  1  0
 15 45  1  0
 15 46  1  0
 17 47  1  0
 18 48  1  0
 21 49  1  0
 22 50  1  0
 23 51  1  0
 24 52  1  0
 25 53  1  0
 26 54  1  0
M  CHG  2   3   1  14   1
M  END
>  <UniqueID>  (17) 
17

>  <SMILES>  (17) 
CC[NH2+]CCNc1c2ccccc2[n+](C)c2ccc(-c3ccccc3)cc12

>  <Energy>  (17) 
83.06209360239501

>  <Genealogy>  (17) 
CC[NH2+]CCNc1c2ccccc2[n+](C)c2ccc(-c3ccccc3)cc12 (protonated)
CC[NH2+]CCNc1c2ccccc2[n+](C)c2ccc(-c3ccccc3)cc12 (3D coordinates assigned)
CC[NH2+]CCNc1c2ccccc2[n+](C)c2ccc(-c3ccccc3)cc12 (optimized conformer: 83.06209360239501 kcal/mol)

>  <smiles>  (17) 
CCNCCNc1c2ccccc2[n+](C)c2ccc(-c3ccccc3)cc12

>  <score_type>  (17) 
oracle

>  <origin>  (17) 
adg

>  <m_score__min__energy>  (17) 
-5.3700000000000001

>  <m_primary>  (17) 
energy

$$$$
17:0
     RDKit          3D

 47 48  0  0  0  0  0  0  0  0999 V2000
   58.1490   33.0900   52.0440 C   0  0  0  0  0  0  0  0  0  0  0  0
   59.4470   33.6260   51.4500 C   0  0  0  0  0  0  0  0  0  0  0  0
   59.6590   33.0950   50.0790 N   0  0  0  0  0  0  0  0  0  0  0  0
   59.8780   31.6290   50.1280 C   0  0  0  0  0  0  0  0  0  0  0  0
   59.2680   30.9540   48.9020 C   0  0  0  0  0  0  0  0  0  0  0  0
   60.8050   33.7830   49.4370 C   0  0  0  0  0  0  0  0  0  0  0  0
   60.4030   34.5590   48.1620 C   0  0  0  0  0  0  0  0  0  0  0  0
   58.9570   34.5110   47.8790 N   0  0  0  0  0  0  0  0  0  0  0  0
   58.6720   33.9500   46.5790 C   0  0  0  0  0  0  0  0  0  0  0  0
   59.2190   34.5410   45.4070 C   0  0  0  0  0  0  0  0  0  0  0  0
   58.9620   33.9940   44.1370 C   0  0  0  0  0  0  0  0  0  0  0  0
   58.1440   32.8660   44.0710 C   0  0  0  0  0  0  0  0  0  0  0  0
   57.5970   32.3070   45.1880 C   0  0  0  0  0  0  0  0  0  0  0  0
   57.8240   32.8250   46.4580 C   0  0  0  0  0  0  0  0  0  0  0  0
   56.8780   31.2160   44.8670 N   0  0  0  0  0  0  0  0  0  0  0  0
   57.0190   31.1430   43.5170 C   0  0  0  0  0  0  0  0  0  0  0  0
   56.3970   30.0530   42.7030 C   0  0  0  0  0  0  0  0  0  0  0  0
   57.7790   32.1450   42.9990 N   0  0  0  0  0  0  0  0  0  0  0  0
   58.2150   32.3210   41.6110 C   0  0  0  0  0  0  0  0  0  0  0  0
   57.0270   32.6790   40.7250 C   0  0  0  0  0  0  0  0  0  0  0  0
   58.2103   33.1153   53.1420 H   0  0  0  0  0  0  0  0  0  0  0  0
   57.3073   33.7142   51.7093 H   0  0  0  0  0  0  0  0  0  0  0  0
   57.9930   32.0539   51.7093 H   0  0  0  0  0  0  0  0  0  0  0  0
   59.3978   34.7241   51.4077 H   0  0  0  0  0  0  0  0  0  0  0  0
   60.2849   33.3043   52.0860 H   0  0  0  0  0  0  0  0  0  0  0  0
   60.9587   31.4254   50.1527 H   0  0  0  0  0  0  0  0  0  0  0  0
   59.3948   31.2280   51.0312 H   0  0  0  0  0  0  0  0  0  0  0  0
   58.5631   30.1740   49.2256 H   0  0  0  0  0  0  0  0  0  0  0  0
   58.7343   31.7030   48.2985 H   0  0  0  0  0  0  0  0  0  0  0  0
   60.0671   30.4986   48.2985 H   0  0  0  0  0  0  0  0  0  0  0  0
   61.2372   34.4924   50.1580 H   0  0  0  0  0  0  0  0  0  0  0  0
   61.5290   33.0104   49.1388 H   0  0  0  0  0  0  0  0  0  0  0  0
   60.6993   35.6110   48.2861 H   0  0  0  0  0  0  0  0  0  0  0  0
   60.9158   34.0798   47.3150 H   0  0  0  0  0  0  0  0  0  0  0  0
   58.5820   35.4880   47.8970 H   0  0  0  0  0  0  0  0  0  0  0  0
   58.4610   33.9820   48.6350 H   0  0  0  0  0  0  0  0  0  0  0  0
   59.8510   35.4371   45.4947 H   0  0  0  0  0  0  0  0  0  0  0  0
   59.3910   34.4401   43.2276 H   0  0  0  0  0  0  0  0  0  0  0  0
   57.3566   32.3720   47.3447 H   0  0  0  0  0  0  0  0  0  0  0  0
   55.9648   29.2957   43.3736 H   0  0  0  0  0  0  0  0  0  0  0  0
   55.6043   30.4760   42.0684 H   0  0  0  0  0  0  0  0  0  0  0  0
   57.1645   29.5858   42.0684 H   0  0  0  0  0  0  0  0  0  0  0  0
   58.9594   33.1295   41.5641 H   0  0  0  0  0  0  0  0  0  0  0  0
   58.6580   31.3800   41.2528 H   0  0  0  0  0  0  0  0  0  0  0  0
   56.1642   32.9390   41.3559 H   0  0  0  0  0  0  0  0  0  0  0  0
   57.2890   33.5381   40.0899 H   0  0  0  0  0  0  0  0  0  0  0  0
   56.7707   31.8182   40.0899 H   0  0  0  0  0  0  0  0  0  0  0  0
  1  2  1  0
  2  3  1  0
  3  4  1  0
  4  5  1  0
  3  6  1  0
  6  7  1  0
  7  8  1  0
  8  9  1  0
  9 10  2  0
 10 11  1  0
 11 12  2  0
 12 13  1  0
 13 14  2  0
 13 15  1  0
 15 16  2  0
 16 17  1  0
 16 18  1  0
 18 19  1  0
 19 20  1  0
 14  9  1  0
 18 12  1  0
  1 21  1  0
  1 22  1  0
  1 23  1  0
  2 24  1  0
  2 25  1  0
  4 26  1  0
  4 27  1  0
  5 28  1  0
  5 29  1  0
  5 30  1  0
  6 31  1  0
  6 32  1  0
  7 33  1  0
  7 34  1  0
  8 35  1  0
  8 36  1  0
 10 37  1  0
 11 38  1  0
 14 39  1  0
 17 40  1  0
 17 41  1  0
 17 42  1  0
 19 43  1  0
 19 44  1  0
 20 45  1  0
 20 46  1  0
 20 47  1  0
M  CHG  1   8   1
M  END
>  <UniqueID>  (18) 
18

>  <SMILES>  (18) 
CCN(CC)CC[NH2+]c1ccc2c(c1)nc(C)n2CC

>  <Energy>  (18) 
75.91722266948415

>  <Genealogy>  (18) 
CCN(CC)CC[NH2+]c1ccc2c(c1)nc(C)n2CC (protonated)
CCN(CC)CC[NH2+]c1ccc2c(c1)nc(C)n2CC (3D coordinates assigned)
CCN(CC)CC[NH2+]c1ccc2c(c1)nc(C)n2CC (optimized conformer: 75.91722266948415 kcal/mol)

>  <smiles>  (18) 
CCN(CC)CCNc1ccc2c(c1)nc(C)n2CC

>  <score_type>  (18) 
oracle

>  <origin>  (18) 
adg

>  <m_score__min__energy>  (18) 
-5.2199999999999998

>  <m_primary>  (18) 
energy

$$$$
18:0
     RDKit          3D

 71 73  0  0  0  0  0  0  0  0999 V2000
   64.1530   34.2120   51.6000 C   0  0  0  0  0  0  0  0  0  0  0  0
   63.6510   32.7620   51.5880 C   0  0  0  0  0  0  0  0  0  0  0  0
   64.2690   31.9570   50.4960 N   0  0  0  0  0  0  0  0  0  0  0  0
   65.4260   31.1780   51.0200 C   0  0  0  0  0  0  0  0  0  0  0  0
   66.7680   31.7330   50.5270 C   0  0  0  0  0  0  0  0  0  0  0  0
   64.7000   32.8570   49.3920 C   0  0  0  0  0  0  0  0  0  0  0  0
   63.6440   32.9780   48.2660 C   0  0  0  0  0  0  0  0  0  0  0  0
   62.3740   33.7340   48.7020 C   0  0  0  0  0  0  0  0  0  0  0  0
   61.1900   32.8830   48.8820 N   0  0  0  0  0  0  0  0  0  0  0  0
   60.3900   32.3500   47.8110 C   0  0  0  0  0  0  0  0  0  0  0  0
   59.8440   33.2190   46.8470 C   0  0  0  0  0  0  0  0  0  0  0  0
   60.1710   34.5920   46.8410 C   0  0  0  0  0  0  0  0  0  0  0  0
   59.6470   35.4460   45.8740 C   0  0  0  0  0  0  0  0  0  0  0  0
   58.8060   34.9470   44.8870 C   0  0  0  0  0  0  0  0  0  0  0  0
   58.4770   33.5930   44.8670 C   0  0  0  0  0  0  0  0  0  0  0  0
   58.9720   32.7030   45.8550 C   0  0  0  0  0  0  0  0  0  0  0  0
   58.6410   31.3640   45.8550 N   0  0  0  0  0  0  0  0  0  0  0  0
   57.5100   30.8840   45.0290 C   0  0  0  0  0  0  0  0  0  0  0  0
   59.3540   30.4740   46.6370 C   0  0  0  0  0  0  0  0  0  0  0  0
   59.2580   29.0780   46.4280 C   0  0  0  0  0  0  0  0  0  0  0  0
   59.9050   28.1690   47.2640 C   0  0  0  0  0  0  0  0  0  0  0  0
   59.8040   26.6940   46.9980 C   0  0  0  0  0  0  0  0  0  0  0  0
   60.7010   28.6370   48.3050 C   0  0  0  0  0  0  0  0  0  0  0  0
   60.8700   30.0150   48.5250 C   0  0  0  0  0  0  0  0  0  0  0  0
   61.6700   30.4750   49.5890 O   0  0  0  0  0  0  0  0  0  0  0  0
   61.3550   30.4030   50.9800 C   0  0  0  0  0  0  0  0  0  0  0  0
   59.8360   30.5520   51.1890 C   0  0  0  0  0  0  0  0  0  0  0  0
   59.3170   31.9160   50.9470 N   0  0  0  0  0  0  0  0  0  0  0  0
   59.8370   32.9010   51.9110 C   0  0  0  0  0  0  0  0  0  0  0  0
   57.8490   31.9690   50.8740 C   0  0  0  0  0  0  0  0  0  0  0  0
   60.2160   30.9500   47.6670 C   0  0  0  0  0  0  0  0  0  0  0  0
   64.2703   34.5508   52.6399 H   0  0  0  0  0  0  0  0  0  0  0  0
   65.1230   34.2685   51.0843 H   0  0  0  0  0  0  0  0  0  0  0  0
   63.4256   34.8561   51.0843 H   0  0  0  0  0  0  0  0  0  0  0  0
   63.8960   32.2951   52.5534 H   0  0  0  0  0  0  0  0  0  0  0  0
   62.5648   32.7840   51.4157 H   0  0  0  0  0  0  0  0  0  0  0  0
   63.5500   31.2920   50.1180 H   0  0  0  0  0  0  0  0  0  0  0  0
   65.4095   31.2151   52.1193 H   0  0  0  0  0  0  0  0  0  0  0  0
   65.3321   30.1452   50.6532 H   0  0  0  0  0  0  0  0  0  0  0  0
   67.3969   31.9931   51.3912 H   0  0  0  0  0  0  0  0  0  0  0  0
   67.2781   30.9720   49.9181 H   0  0  0  0  0  0  0  0  0  0  0  0
   66.5916   32.6320   49.9181 H   0  0  0  0  0  0  0  0  0  0  0  0
   64.8860   33.8583   49.8078 H   0  0  0  0  0  0  0  0  0  0  0  0
   65.6079   32.4230   48.9478 H   0  0  0  0  0  0  0  0  0  0  0  0
   64.0964   33.5144   47.4189 H   0  0  0  0  0  0  0  0  0  0  0  0
   63.3387   31.9569   47.9937 H   0  0  0  0  0  0  0  0  0  0  0  0
   62.5844   34.2366   49.6576 H   0  0  0  0  0  0  0  0  0  0  0  0
   62.1339   34.4365   47.8903 H   0  0  0  0  0  0  0  0  0  0  0  0
   61.0040   32.5180   49.8420 H   0  0  0  0  0  0  0  0  0  0  0  0
   60.8482   34.9924   47.6098 H   0  0  0  0  0  0  0  0  0  0  0  0
   59.8991   36.5166   45.8915 H   0  0  0  0  0  0  0  0  0  0  0  0
   58.3990   35.6221   44.1198 H   0  0  0  0  0  0  0  0  0  0  0  0
   57.8223   33.2075   44.0716 H   0  0  0  0  0  0  0  0  0  0  0  0
   56.6973   30.5391   45.6851 H   0  0  0  0  0  0  0  0  0  0  0  0
   57.1453   31.7049   44.3941 H   0  0  0  0  0  0  0  0  0  0  0  0
   57.8471   30.0514   44.3941 H   0  0  0  0  0  0  0  0  0  0  0  0
   58.6588   28.7009   45.5861 H   0  0  0  0  0  0  0  0  0  0  0  0
   59.7668   26.1508   47.9538 H   0  0  0  0  0  0  0  0  0  0  0  0
   58.8896   26.4869   46.4227 H   0  0  0  0  0  0  0  0  0  0  0  0
   60.6817   26.3642   46.4227 H   0  0  0  0  0  0  0  0  0  0  0  0
   61.2059   27.9173   48.9661 H   0  0  0  0  0  0  0  0  0  0  0  0
   61.6830   29.4310   51.3771 H   0  0  0  0  0  0  0  0  0  0  0  0
   61.8720   31.2178   51.5081 H   0  0  0  0  0  0  0  0  0  0  0  0
   59.3248   29.8623   50.5013 H   0  0  0  0  0  0  0  0  0  0  0  0
   59.6409   30.3249   52.2475 H   0  0  0  0  0  0  0  0  0  0  0  0
   59.6496   32.5460   52.9351 H   0  0  0  0  0  0  0  0  0  0  0  0
   60.9191   33.0270   51.7589 H   0  0  0  0  0  0  0  0  0  0  0  0
   59.3306   33.8656   51.7589 H   0  0  0  0  0  0  0  0  0  0  0  0
   57.4316   31.9841   51.8916 H   0  0  0  0  0  0  0  0  0  0  0  0
   57.5411   32.8788   50.3379 H   0  0  0  0  0  0  0  0  0  0  0  0
   57.4763   31.0837   50.3379 H   0  0  0  0  0  0  0  0  0  0  0  0
  1  2  1  0
  2  3  1  0
  3  4  1  0
  4  5  1  0
  3  6  1  0
  6  7  1  0
  7  8  1  0
  8  9  1  0
  9 10  1  0
 10 11  2  0
 11 12  1  0
 12 13  2  0
 13 14  1  0
 14 15  2  0
 15 16  1  0
 16 17  2  0
 17 18  1  0
 17 19  1  0
 19 20  2  0
 20 21  1  0
 21 22  1  0
 21 23  2  0
 23 24  1  0
 24 25  1  0
 25 26  1  0
 26 27  1  0
 27 28  1  0
 28 29  1  0
 28 30  1  0
 24 31  2  0
 31 10  1  0
 16 11  1  0
 31 19  1  0
  1 32  1  0
  1 33  1  0
  1 34  1  0
  2 35  1  0
  2 36  1  0
  3 37  1  0
  4 38  1  0
  4 39  1  0
  5 40  1  0
  5 41  1  0
  5 42  1  0
  6 43  1  0
  6 44  1  0
  7 45  1  0
  7 46  1  0
  8 47  1  0
  8 48  1  0
  9 49  1  0
 12 50  1  0
 13 51  1  0
 14 52  1  0
 15 53  1  0
 18 54  1  0
 18 55  1  0
 18 56  1  0
 20 57  1  0
 22 58  1  0
 22 59  1  0
 22 60  1  0
 23 61  1  0
 26 62  1  0
 26 63  1  0
 27 64  1  0
 27 65  1  0
 29 66  1  0
 29 67  1  0
 29 68  1  0
 30 69  1  0
 30 70  1  0
 30 71  1  0
M  CHG  2   3   1  17   1
M  END
>  <UniqueID>  (19) 
19

>  <SMILES>  (19) 
CC[NH+](CC)CCCNc1c2ccccc2[n+](C)c2cc(C)cc(OCCN(C)C)c12

>  <Energy>  (19) 
103.36564078092458

>  <Genealogy>  (19) 
CC[NH+](CC)CCCNc1c2ccccc2[n+](C)c2cc(C)cc(OCCN(C)C)c12 (protonated)
CC[NH+](CC)CCCNc1c2ccccc2[n+](C)c2cc(C)cc(OCCN(C)C)c12 (3D coordinates assigned)
CC[NH+](CC)CCCNc1c2ccccc2[n+](C)c2cc(C)cc(OCCN(C)C)c12 (optimized conformer: 103.36564078092458 kcal/mol)

>  <smiles>  (19) 
CCN(CC)CCCNc1c2ccccc2[n+](C)c2cc(C)cc(OCCN(C)C)c12

>  <score_type>  (19) 
oracle

>  <origin>  (19) 
adg

>  <m_score__min__energy>  (19) 
-4.0800000000000001

>  <m_primary>  (19) 
energy

$$$$
19:0
     RDKit          3D

 49 52  0  0  1  0  0  0  0  0999 V2000
   55.8910   29.7160   42.9120 C   0  0  0  0  0  0  0  0  0  0  0  0
   56.8690   29.5580   44.0150 C   0  0  0  0  0  0  0  0  0  0  0  0
   57.1510   30.6300   44.8230 C   0  0  0  0  0  0  0  0  0  0  0  0
   58.0750   30.5050   45.8730 C   0  0  0  0  0  0  0  0  0  0  0  0
   58.2890   31.4930   46.5650 N   0  0  0  0  0  0  0  0  0  0  0  0
   58.6510   32.7800   46.3330 C   0  0  0  0  0  0  0  0  0  0  0  0
   58.9330   33.6360   47.4170 C   0  0  0  0  0  0  0  0  0  0  0  0
   59.4080   34.8980   47.2230 C   0  0  0  0  0  0  0  0  0  0  0  0
   59.6090   35.3280   45.9150 C   0  0  0  0  0  0  0  0  0  0  0  0
   59.3400   34.5100   44.8420 C   0  0  0  0  0  0  0  0  0  0  0  0
   58.8590   33.2260   45.0120 C   0  0  0  0  0  0  0  0  0  0  0  0
   58.6900   29.3460   46.1010 N   0  0  0  0  0  0  0  0  0  0  0  0
   59.5890   28.9610   47.0090 C   0  0  0  0  0  0  0  0  0  0  0  0
   60.2380   29.5320   48.0360 O   0  0  0  0  0  0  0  0  0  0  0  0
   60.7930   30.6860   48.3500 C   0  0  0  0  0  0  0  0  0  0  0  0
   60.4980   31.3830   49.5300 C   0  0  0  0  0  0  0  0  0  0  0  0
   61.0920   32.5890   49.8330 C   0  0  0  0  0  0  0  0  0  0  0  0
   62.0020   33.1210   48.9440 C   0  0  0  0  0  0  0  0  0  0  0  0
   62.6540   34.4300   49.2620 C   0  0  0  0  0  0  0  0  0  0  0  0
   62.3290   32.4770   47.7690 C   0  0  0  0  0  0  0  0  0  0  0  0
   63.3200   33.1240   46.8710 C   0  0  0  0  0  0  0  0  0  0  0  0
   61.7270   31.2710   47.4810 C   0  0  0  0  0  0  0  0  0  0  0  0
   59.8210   27.6110   46.6950 C   0  0  0  0  0  0  0  0  0  0  0  0
   60.7560   26.7170   47.4240 C   0  0  0  0  0  0  0  0  0  0  0  0
   59.0820   27.2460   45.6490 N   0  0  0  0  0  0  0  0  0  0  0  0
   58.3780   28.3280   45.2810 C   0  0  0  0  0  0  0  0  0  0  0  0
   57.5010   28.4090   44.2670 N   0  0  0  0  0  0  0  0  0  0  0  0
   54.8874   29.8781   43.3322 H   0  0  0  0  0  0  0  0  0  0  0  0
   56.1732   30.5802   42.2927 H   0  0  0  0  0  0  0  0  0  0  0  0
   55.8867   28.8069   42.2927 H   0  0  0  0  0  0  0  0  0  0  0  0
   56.6502   31.5935   44.6474 H   0  0  0  0  0  0  0  0  0  0  0  0
   58.7656   33.2767   48.4431 H   0  0  0  0  0  0  0  0  0  0  0  0
   59.6263   35.5579   48.0756 H   0  0  0  0  0  0  0  0  0  0  0  0
   59.9911   36.3437   45.7350 H   0  0  0  0  0  0  0  0  0  0  0  0
   59.5122   34.8877   43.8233 H   0  0  0  0  0  0  0  0  0  0  0  0
   58.6465   32.5768   44.1498 H   0  0  0  0  0  0  0  0  0  0  0  0
   59.7706   30.9544   50.2352 H   0  0  0  0  0  0  0  0  0  0  0  0
   60.8450   33.1170   50.7659 H   0  0  0  0  0  0  0  0  0  0  0  0
   62.7155   34.5535   50.3533 H   0  0  0  0  0  0  0  0  0  0  0  0
   63.6668   34.4489   48.8332 H   0  0  0  0  0  0  0  0  0  0  0  0
   62.0589   35.2498   48.8332 H   0  0  0  0  0  0  0  0  0  0  0  0
   64.0895   33.6264   47.4756 H   0  0  0  0  0  0  0  0  0  0  0  0
   63.7931   32.3603   46.2363 H   0  0  0  0  0  0  0  0  0  0  0  0
   62.8111   33.8644   46.2363 H   0  0  0  0  0  0  0  0  0  0  0  0
   61.9854   30.7534   46.5454 H   0  0  0  0  0  0  0  0  0  0  0  0
   60.6189   26.8481   48.5075 H   0  0  0  0  0  0  0  0  0  0  0  0
   60.5502   25.6711   47.1523 H   0  0  0  0  0  0  0  0  0  0  0  0
   61.7916   26.9695   47.1523 H   0  0  0  0  0  0  0  0  0  0  0  0
   57.2840   27.5970   43.6510 H   0  0  0  0  0  0  0  0  0  0  0  0
  1  2  1  0
  2  3  2  0
  3  4  1  0
  4  5  2  0
  5  6  1  0
  6  7  2  0
  7  8  1  0
  8  9  2  0
  9 10  1  0
 10 11  2  0
  4 12  1  0
 12 13  1  0
 13 14  1  0
 14 15  1  0
 15 16  2  0
 16 17  1  0
 17 18  2  0
 18 19  1  0
 18 20  1  0
 20 21  1  0
 20 22  2  0
 13 23  2  0
 23 24  1  0
 23 25  1  0
 25 26  2  0
 26 27  1  0
 27  2  1  0
 11  6  1  0
 26 12  1  0
 22 15  1  0
  1 28  1  0
  1 29  1  0
  1 30  1  0
  3 31  1  0
  7 32  1  0
  8 33  1  0
  9 34  1  0
 10 35  1  0
 11 36  1  0
 16 37  1  0
 17 38  1  0
 19 39  1  0
 19 40  1  0
 19 41  1  0
 21 42  1  0
 21 43  1  0
 21 44  1  0
 22 45  1  0
 24 46  1  0
 24 47  1  0
 24 48  1  0
 27 49  1  0
M  END
>  <smiles>  (20) 
Cc1cc(=Nc2ccccc2)n2c(Oc3ccc(C)c(C)c3)c(C)nc2[nH]1

>  <score_type>  (20) 
oracle

>  <origin>  (20) 
adg

>  <m_score__min__energy>  (20) 
-8.2100000000000009

>  <m_primary>  (20) 
energy

$$$$
20:0
     RDKit          3D

 84 87  0  0  0  0  0  0  0  0999 V2000
   58.5150   34.5270   46.3400 C   0  0  0  0  0  0  0  0  0  0  0  0
   58.2400   33.4980   47.4300 C   0  0  0  0  0  0  0  0  0  0  0  0
   59.4970   32.8360   47.8070 N   0  0  0  0  0  0  0  0  0  0  0  0
   60.6490   33.7550   47.8120 C   0  0  0  0  0  0  0  0  0  0  0  0
   61.6750   33.4800   48.9340 C   0  0  0  0  0  0  0  0  0  0  0  0
   61.1420   33.7280   50.3540 C   0  0  0  0  0  0  0  0  0  0  0  0
   59.7310   33.3360   50.4690 N   0  0  0  0  0  0  0  0  0  0  0  0
   59.2960   33.3720   51.8700 C   0  0  0  0  0  0  0  0  0  0  0  0
   57.8080   33.0200   51.9540 C   0  0  0  0  0  0  0  0  0  0  0  0
   57.4430   32.0200   50.9360 N   0  0  0  0  0  0  0  0  0  0  0  0
   57.3100   30.6990   51.5310 C   0  0  0  0  0  0  0  0  0  0  0  0
   56.0960   30.3040   52.1380 C   0  0  0  0  0  0  0  0  0  0  0  0
   54.8610   30.8670   51.7470 C   0  0  0  0  0  0  0  0  0  0  0  0
   53.6710   30.4610   52.3440 C   0  0  0  0  0  0  0  0  0  0  0  0
   53.6850   29.4780   53.3240 C   0  0  0  0  0  0  0  0  0  0  0  0
   54.8920   28.9070   53.7300 C   0  0  0  0  0  0  0  0  0  0  0  0
   56.1230   29.3280   53.1690 C   0  0  0  0  0  0  0  0  0  0  0  0
   57.3320   28.8290   53.6100 N   0  0  0  0  0  0  0  0  0  0  0  0
   57.4160   28.1210   54.9080 C   0  0  0  0  0  0  0  0  0  0  0  0
   58.4630   28.9820   52.8240 C   0  0  0  0  0  0  0  0  0  0  0  0
   59.6530   28.2660   53.0910 C   0  0  0  0  0  0  0  0  0  0  0  0
   60.7760   28.4130   52.2860 C   0  0  0  0  0  0  0  0  0  0  0  0
   60.7150   29.1850   51.1350 C   0  0  0  0  0  0  0  0  0  0  0  0
   59.5260   29.8440   50.7770 C   0  0  0  0  0  0  0  0  0  0  0  0
   59.3750   30.3890   49.4800 O   0  0  0  0  0  0  0  0  0  0  0  0
   59.8080   29.7360   48.2790 C   0  0  0  0  0  0  0  0  0  0  0  0
   58.7090   29.6880   47.1900 C   0  0  0  0  0  0  0  0  0  0  0  0
   59.1540   29.7450   45.7560 N   0  0  0  0  0  0  0  0  0  0  0  0
   60.6030   29.4090   45.6600 C   0  0  0  0  0  0  0  0  0  0  0  0
   58.9350   31.1230   45.1920 C   0  0  0  0  0  0  0  0  0  0  0  0
   57.4620   31.5350   44.9720 C   0  0  0  0  0  0  0  0  0  0  0  0
   56.7380   30.8390   43.7880 C   0  0  0  0  0  0  0  0  0  0  0  0
   56.1060   29.4720   44.1030 C   0  0  0  0  0  0  0  0  0  0  0  0
   56.8870   28.6500   45.1420 C   0  0  0  0  0  0  0  0  0  0  0  0
   58.4270   28.6690   45.0000 C   0  0  0  0  0  0  0  0  0  0  0  0
   58.4410   29.8610   51.7020 C   0  0  0  0  0  0  0  0  0  0  0  0
   58.7727   35.4912   46.8026 H   0  0  0  0  0  0  0  0  0  0  0  0
   59.3531   34.1844   45.7153 H   0  0  0  0  0  0  0  0  0  0  0  0
   57.6177   34.6482   45.7153 H   0  0  0  0  0  0  0  0  0  0  0  0
   57.8123   34.0011   48.3098 H   0  0  0  0  0  0  0  0  0  0  0  0
   57.5285   32.7476   47.0549 H   0  0  0  0  0  0  0  0  0  0  0  0
   59.3900   32.3870   48.7480 H   0  0  0  0  0  0  0  0  0  0  0  0
   61.1645   33.6669   46.8443 H   0  0  0  0  0  0  0  0  0  0  0  0
   60.2476   34.7633   47.9915 H   0  0  0  0  0  0  0  0  0  0  0  0
   61.9894   32.4283   48.8630 H   0  0  0  0  0  0  0  0  0  0  0  0
   62.5048   34.1858   48.7816 H   0  0  0  0  0  0  0  0  0  0  0  0
   61.7369   33.1398   51.0681 H   0  0  0  0  0  0  0  0  0  0  0  0
   61.2233   34.8029   50.5733 H   0  0  0  0  0  0  0  0  0  0  0  0
   59.6350   32.3510   50.1290 H   0  0  0  0  0  0  0  0  0  0  0  0
   59.8782   32.6433   52.4531 H   0  0  0  0  0  0  0  0  0  0  0  0
   59.4566   34.3812   52.2770 H   0  0  0  0  0  0  0  0  0  0  0  0
   57.5907   32.6126   52.9524 H   0  0  0  0  0  0  0  0  0  0  0  0
   57.2216   33.9330   51.7739 H   0  0  0  0  0  0  0  0  0  0  0  0
   56.5650   32.2910   50.4370 H   0  0  0  0  0  0  0  0  0  0  0  0
   58.2240   32.0390   50.2510 H   0  0  0  0  0  0  0  0  0  0  0  0
   54.8394   31.6360   50.9608 H   0  0  0  0  0  0  0  0  0  0  0  0
   52.7187   30.9194   52.0390 H   0  0  0  0  0  0  0  0  0  0  0  0
   52.7411   29.1478   53.7823 H   0  0  0  0  0  0  0  0  0  0  0  0
   54.8875   28.1184   54.4969 H   0  0  0  0  0  0  0  0  0  0  0  0
   57.3297   28.8484   55.7287 H   0  0  0  0  0  0  0  0  0  0  0  0
   56.5985   27.3886   54.9797 H   0  0  0  0  0  0  0  0  0  0  0  0
   58.3822   27.6002   54.9797 H   0  0  0  0  0  0  0  0  0  0  0  0
   59.6902   27.5809   53.9508 H   0  0  0  0  0  0  0  0  0  0  0  0
   61.7172   27.9152   52.5625 H   0  0  0  0  0  0  0  0  0  0  0  0
   61.6054   29.2824   50.4965 H   0  0  0  0  0  0  0  0  0  0  0  0
   60.6764   30.2790   47.8777 H   0  0  0  0  0  0  0  0  0  0  0  0
   60.0597   28.6975   48.5401 H   0  0  0  0  0  0  0  0  0  0  0  0
   58.1511   28.7497   47.3253 H   0  0  0  0  0  0  0  0  0  0  0  0
   58.1239   30.6074   47.3399 H   0  0  0  0  0  0  0  0  0  0  0  0
   61.0245   29.3113   46.6713 H   0  0  0  0  0  0  0  0  0  0  0  0
   60.7240   28.4590   45.1189 H   0  0  0  0  0  0  0  0  0  0  0  0
   61.1298   30.2088   45.1189 H   0  0  0  0  0  0  0  0  0  0  0  0
   59.3877   31.8470   45.8854 H   0  0  0  0  0  0  0  0  0  0  0  0
   59.3940   31.1123   44.1924 H   0  0  0  0  0  0  0  0  0  0  0  0
   56.9052   31.3032   45.8919 H   0  0  0  0  0  0  0  0  0  0  0  0
   57.4843   32.6060   44.7220 H   0  0  0  0  0  0  0  0  0  0  0  0
   55.9380   31.5091   43.4402 H   0  0  0  0  0  0  0  0  0  0  0  0
   57.5152   30.6435   43.0346 H   0  0  0  0  0  0  0  0  0  0  0  0
   55.0894   29.6406   44.4877 H   0  0  0  0  0  0  0  0  0  0  0  0
   56.1124   28.8936   43.1674 H   0  0  0  0  0  0  0  0  0  0  0  0
   56.6357   29.0410   46.1390 H   0  0  0  0  0  0  0  0  0  0  0  0
   56.5863   27.6042   44.9810 H   0  0  0  0  0  0  0  0  0  0  0  0
   58.8075   27.6982   45.3505 H   0  0  0  0  0  0  0  0  0  0  0  0
   58.6201   28.8769   43.9372 H   0  0  0  0  0  0  0  0  0  0  0  0
  1  2  1  0
  2  3  1  0
  3  4  1  0
  4  5  1  0
  5  6  1  0
  6  7  1  0
  7  8  1  0
  8  9  1  0
  9 10  1  0
 10 11  1  0
 11 12  2  0
 12 13  1  0
 13 14  2  0
 14 15  1  0
 15 16  2  0
 16 17  1  0
 17 18  2  0
 18 19  1  0
 18 20  1  0
 20 21  2  0
 21 22  1  0
 22 23  2  0
 23 24  1  0
 24 25  1  0
 25 26  1  0
 26 27  1  0
 27 28  1  0
 28 29  1  0
 28 30  1  0
 30 31  1  0
 31 32  1  0
 32 33  1  0
 33 34  1  0
 34 35  1  0
 24 36  2  0
 36 11  1  0
 17 12  1  0
 36 20  1  0
 35 28  1  0
  1 37  1  0
  1 38  1  0
  1 39  1  0
  2 40  1  0
  2 41  1  0
  3 42  1  0
  4 43  1  0
  4 44  1  0
  5 45  1  0
  5 46  1  0
  6 47  1  0
  6 48  1  0
  7 49  1  0
  8 50  1  0
  8 51  1  0
  9 52  1  0
  9 53  1  0
 10 54  1  0
 10 55  1  0
 13 56  1  0
 14 57  1  0
 15 58  1  0
 16 59  1  0
 19 60  1  0
 19 61  1  0
 19 62  1  0
 21 63  1  0
 22 64  1  0
 23 65  1  0
 26 66  1  0
 26 67  1  0
 27 68  1  0
 27 69  1  0
 29 70  1  0
 29 71  1  0
 29 72  1  0
 30 73  1  0
 30 74  1  0
 31 75  1  0
 31 76  1  0
 32 77  1  0
 32 78  1  0
 33 79  1  0
 33 80  1  0
 34 81  1  0
 34 82  1  0
 35 83  1  0
 35 84  1  0
M  CHG  3  10   1  18   1  28   1
M  END
>  <UniqueID>  (21) 
20

>  <SMILES>  (21) 
CCNCCCNCC[NH2+]c1c2ccccc2[n+](C)c2cccc(OCC[N+]3(C)CCCCCC3)c12

>  <Energy>  (21) 
140.48613389217968

>  <Genealogy>  (21) 
CCNCCCNCC[NH2+]c1c2ccccc2[n+](C)c2cccc(OCC[N+]3(C)CCCCCC3)c12 (protonated)
CCNCCCNCC[NH2+]c1c2ccccc2[n+](C)c2cccc(OCC[N+]3(C)CCCCCC3)c12 (3D coordinates assigned)
CCNCCCNCC[NH2+]c1c2ccccc2[n+](C)c2cccc(OCC[N+]3(C)CCCCCC3)c12 (nonaromatic ring conformer: 140.48613389217968 kcal/mol)

>  <smiles>  (21) 
CCNCCCNCCNc1c2ccccc2[n+](C)c2cccc(OCC[N+]3(C)CCCCCC3)c12

>  <score_type>  (21) 
oracle

>  <origin>  (21) 
adg

>  <m_score__min__energy>  (21) 
-0.75

>  <m_primary>  (21) 
energy

$$$$
21:0
     RDKit          3D

 60 59  0  0  0  0  0  0  0  0999 V2000
   59.2690   34.6200   44.8540 C   0  0  0  0  0  0  0  0  0  0  0  0
   59.2410   34.6810   46.3780 C   0  0  0  0  0  0  0  0  0  0  0  0
   58.1180   33.7990   46.9460 C   0  0  0  0  0  0  0  0  0  0  0  0
   57.7130   32.6360   46.0110 C   0  0  0  0  0  0  0  0  0  0  0  0
   58.6810   31.5120   45.9100 N   0  0  0  0  0  0  0  0  0  0  0  0
   58.5970   30.6980   44.6740 C   0  0  0  0  0  0  0  0  0  0  0  0
   57.6860   31.3500   43.6180 C   0  0  0  0  0  0  0  0  0  0  0  0
   56.5020   30.4520   43.2190 C   0  0  0  0  0  0  0  0  0  0  0  0
   55.8420   29.7700   44.4180 C   0  0  0  0  0  0  0  0  0  0  0  0
   58.7610   30.6760   47.1300 C   0  0  0  0  0  0  0  0  0  0  0  0
   60.1150   30.8900   47.8170 C   0  0  1  0  0  0  0  0  0  0  0  0
   61.0070   31.4780   46.9030 O   0  0  0  0  0  0  0  0  0  0  0  0
   59.9600   31.8090   49.0390 C   0  0  0  0  0  0  0  0  0  0  0  0
   60.4010   33.1210   48.7390 O   0  0  0  0  0  0  0  0  0  0  0  0
   60.9130   33.7760   49.8840 C   0  0  0  0  0  0  0  0  0  0  0  0
   62.4570   33.8500   49.8110 C   0  0  0  0  0  0  0  0  0  0  0  0
   63.0630   33.0180   48.7360 N   0  0  0  0  0  0  0  0  0  0  0  0
   63.9960   32.0080   49.3070 C   0  0  0  0  0  0  0  0  0  0  0  0
   65.3160   32.6160   49.7890 C   0  0  0  0  0  0  0  0  0  0  0  0
   63.6940   33.8560   47.6720 C   0  0  0  0  0  0  0  0  0  0  0  0
   62.9140   33.8170   46.3510 C   0  0  0  0  0  0  0  0  0  0  0  0
   59.7079   33.6637   44.5333 H   0  0  0  0  0  0  0  0  0  0  0  0
   58.2434   34.7015   44.4649 H   0  0  0  0  0  0  0  0  0  0  0  0
   59.8759   35.4508   44.4649 H   0  0  0  0  0  0  0  0  0  0  0  0
   60.2070   34.3293   46.7695 H   0  0  0  0  0  0  0  0  0  0  0  0
   59.0563   35.7216   46.6829 H   0  0  0  0  0  0  0  0  0  0  0  0
   58.4587   33.3745   47.9019 H   0  0  0  0  0  0  0  0  0  0  0  0
   57.2326   34.4406   47.0658 H   0  0  0  0  0  0  0  0  0  0  0  0
   56.7596   32.2269   46.3766 H   0  0  0  0  0  0  0  0  0  0  0  0
   57.6593   33.0719   45.0025 H   0  0  0  0  0  0  0  0  0  0  0  0
   59.6068   30.5864   44.2524 H   0  0  0  0  0  0  0  0  0  0  0  0
   58.1673   29.7205   44.9381 H   0  0  0  0  0  0  0  0  0  0  0  0
   57.2912   32.2917   44.0270 H   0  0  0  0  0  0  0  0  0  0  0  0
   58.2922   31.5206   42.7161 H   0  0  0  0  0  0  0  0  0  0  0  0
   55.7489   31.0703   42.7085 H   0  0  0  0  0  0  0  0  0  0  0  0
   56.8942   29.6604   42.5636 H   0  0  0  0  0  0  0  0  0  0  0  0
   56.2492   30.1908   45.3492 H   0  0  0  0  0  0  0  0  0  0  0  0
   54.7556   29.9389   44.3837 H   0  0  0  0  0  0  0  0  0  0  0  0
   56.0464   28.6897   44.3837 H   0  0  0  0  0  0  0  0  0  0  0  0
   57.9524   30.9585   47.8202 H   0  0  0  0  0  0  0  0  0  0  0  0
   58.6574   29.6167   46.8524 H   0  0  0  0  0  0  0  0  0  0  0  0
   60.5029   29.9171   48.1533 H   0  0  0  0  0  0  0  0  0  0  0  0
   60.6210   32.3490   46.6250 H   0  0  0  0  0  0  0  0  0  0  0  0
   58.9006   31.8428   49.3331 H   0  0  0  0  0  0  0  0  0  0  0  0
   60.5723   31.4099   49.8611 H   0  0  0  0  0  0  0  0  0  0  0  0
   60.5022   34.7952   49.9338 H   0  0  0  0  0  0  0  0  0  0  0  0
   60.6226   33.2101   50.7814 H   0  0  0  0  0  0  0  0  0  0  0  0
   62.7432   34.8978   49.6375 H   0  0  0  0  0  0  0  0  0  0  0  0
   62.8354   33.4540   50.7649 H   0  0  0  0  0  0  0  0  0  0  0  0
   62.2560   32.4950   48.3170 H   0  0  0  0  0  0  0  0  0  0  0  0
   63.5033   31.5190   50.1603 H   0  0  0  0  0  0  0  0  0  0  0  0
   64.2366   31.2933   48.5061 H   0  0  0  0  0  0  0  0  0  0  0  0
   65.3356   32.6250   50.8888 H   0  0  0  0  0  0  0  0  0  0  0  0
   66.1561   32.0141   49.4122 H   0  0  0  0  0  0  0  0  0  0  0  0
   65.4046   33.6457   49.4122 H   0  0  0  0  0  0  0  0  0  0  0  0
   63.7393   34.8972   48.0240 H   0  0  0  0  0  0  0  0  0  0  0  0
   64.6977   33.4495   47.4788 H   0  0  0  0  0  0  0  0  0  0  0  0
   61.8360   33.7631   46.5632 H   0  0  0  0  0  0  0  0  0  0  0  0
   63.1286   34.7270   45.7715 H   0  0  0  0  0  0  0  0  0  0  0  0
   63.2183   32.9329   45.7715 H   0  0  0  0  0  0  0  0  0  0  0  0
  1  2  1  0
  2  3  1  0
  3  4  1  0
  4  5  1  0
  5  6  1  0
  6  7  1  0
  7  8  1  0
  8  9  1  0
  5 10  1  0
 10 11  1  0
 11 12  1  0
 11 13  1  0
 13 14  1  0
 14 15  1  0
 15 16  1  0
 16 17  1  0
 17 18  1  0
 18 19  1  0
 17 20  1  0
 20 21  1  0
  1 22  1  0
  1 23  1  0
  1 24  1  0
  2 25  1  0
  2 26  1  0
  3 27  1  0
  3 28  1  0
  4 29  1  0
  4 30  1  0
  6 31  1  0
  6 32  1  0
  7 33  1  0
  7 34  1  0
  8 35  1  0
  8 36  1  0
  9 37  1  0
  9 38  1  0
  9 39  1  0
 10 40  1  0
 10 41  1  0
 11 42  1  1
 12 43  1  0
 13 44  1  0
 13 45  1  0
 15 46  1  0
 15 47  1  0
 16 48  1  0
 16 49  1  0
 17 50  1  0
 18 51  1  0
 18 52  1  0
 19 53  1  0
 19 54  1  0
 19 55  1  0
 20 56  1  0
 20 57  1  0
 21 58  1  0
 21 59  1  0
 21 60  1  0
M  CHG  1  17   1
M  END
>  <UniqueID>  (22) 
21

>  <SMILES>  (22) 
CCCCN(CCCC)C[C@@H](O)COCC[NH+](CC)CC

>  <Energy>  (22) 
56.075117274457476

>  <Genealogy>  (22) 
CCCCN(CCCC)CC(O)COCC[NH+](CC)CC (protonated)
CCCCN(CCCC)C[C@@H](O)COCC[NH+](CC)CC (chirality)
CCCCN(CCCC)C[C@@H](O)COCC[NH+](CC)CC (3D coordinates assigned)
CCCCN(CCCC)C[C@@H](O)COCC[NH+](CC)CC (optimized conformer: 56.075117274457476 kcal/mol)

>  <smiles>  (22) 
CCCCN(CCCC)CC(O)COCCN(CC)CC

>  <score_type>  (22) 
oracle

>  <origin>  (22) 
adg

>  <m_score__min__energy>  (22) 
-3.8100000000000001

>  <m_primary>  (22) 
energy

$$$$
22:0
     RDKit          3D

 50 52  0  0  0  0  0  0  0  0999 V2000
   57.6010   26.7570   45.4430 C   0  0  0  0  0  0  0  0  0  0  0  0
   58.0000   28.2010   45.4750 C   0  0  0  0  0  0  0  0  0  0  0  0
   57.7020   29.2530   44.2140 S   0  0  0  0  0  0  0  0  0  0  0  0
   58.3330   30.6200   44.9670 C   0  0  0  0  0  0  0  0  0  0  0  0
   58.8120   30.2900   46.2380 C   0  0  0  0  0  0  0  0  0  0  0  0
   58.5860   28.9000   46.5430 C   0  0  0  0  0  0  0  0  0  0  0  0
   58.7830   28.2200   47.8760 C   0  0  0  0  0  0  0  0  0  0  0  0
   59.4420   31.3090   47.0170 C   0  0  0  0  0  0  0  0  0  0  0  0
   60.1740   30.9790   48.2300 N   0  0  0  0  0  0  0  0  0  0  0  0
   61.5250   30.4590   47.9430 C   0  0  0  0  0  0  0  0  0  0  0  0
   62.6480   31.3810   48.4480 C   0  0  0  0  0  0  0  0  0  0  0  0
   63.4090   31.9320   47.3180 N   0  0  0  0  0  0  0  0  0  0  0  0
   63.7540   33.3540   47.5080 C   0  0  0  0  0  0  0  0  0  0  0  0
   63.3660   34.2100   46.2910 C   0  0  0  0  0  0  0  0  0  0  0  0
   63.0460   33.8750   48.7610 C   0  0  0  0  0  0  0  0  0  0  0  0
   59.4190   32.6530   46.5060 C   0  0  0  0  0  0  0  0  0  0  0  0
   59.9650   33.7510   47.2250 C   0  0  0  0  0  0  0  0  0  0  0  0
   59.9020   35.0490   46.7280 C   0  0  0  0  0  0  0  0  0  0  0  0
   59.2930   35.3040   45.5100 C   0  0  0  0  0  0  0  0  0  0  0  0
   58.7630   34.2570   44.7650 C   0  0  0  0  0  0  0  0  0  0  0  0
   58.8330   32.9170   45.2240 C   0  0  0  0  0  0  0  0  0  0  0  0
   58.3600   31.8820   44.4450 N   0  0  0  0  0  0  0  0  0  0  0  0
   57.8640   32.1300   43.0750 C   0  0  0  0  0  0  0  0  0  0  0  0
   57.4975   26.3823   46.4720 H   0  0  0  0  0  0  0  0  0  0  0  0
   56.6406   26.6535   44.9167 H   0  0  0  0  0  0  0  0  0  0  0  0
   58.3720   26.1751   44.9167 H   0  0  0  0  0  0  0  0  0  0  0  0
   58.5760   28.9346   48.6863 H   0  0  0  0  0  0  0  0  0  0  0  0
   58.0956   27.3650   47.9566 H   0  0  0  0  0  0  0  0  0  0  0  0
   59.8210   27.8649   47.9566 H   0  0  0  0  0  0  0  0  0  0  0  0
   60.2380   31.7600   48.9110 H   0  0  0  0  0  0  0  0  0  0  0  0
   59.6400   30.2880   48.7880 H   0  0  0  0  0  0  0  0  0  0  0  0
   61.6328   29.4780   48.4289 H   0  0  0  0  0  0  0  0  0  0  0  0
   61.6241   30.3910   46.8496 H   0  0  0  0  0  0  0  0  0  0  0  0
   62.2062   32.2074   49.0242 H   0  0  0  0  0  0  0  0  0  0  0  0
   63.3290   30.7966   49.0842 H   0  0  0  0  0  0  0  0  0  0  0  0
   64.2860   31.3730   47.1950 H   0  0  0  0  0  0  0  0  0  0  0  0
   64.8451   33.4306   47.6248 H   0  0  0  0  0  0  0  0  0  0  0  0
   62.9346   35.1617   46.6347 H   0  0  0  0  0  0  0  0  0  0  0  0
   64.2609   34.4111   45.6839 H   0  0  0  0  0  0  0  0  0  0  0  0
   62.6249   33.6695   45.6839 H   0  0  0  0  0  0  0  0  0  0  0  0
   63.5602   33.4966   49.6568 H   0  0  0  0  0  0  0  0  0  0  0  0
   63.0668   34.9748   48.7634 H   0  0  0  0  0  0  0  0  0  0  0  0
   62.0022   33.5280   48.7634 H   0  0  0  0  0  0  0  0  0  0  0  0
   60.4483   33.5703   48.1965 H   0  0  0  0  0  0  0  0  0  0  0  0
   60.3382   35.8775   47.3054 H   0  0  0  0  0  0  0  0  0  0  0  0
   59.2289   36.3352   45.1324 H   0  0  0  0  0  0  0  0  0  0  0  0
   58.2798   34.4720   43.8005 H   0  0  0  0  0  0  0  0  0  0  0  0
   56.8811   32.6214   43.1242 H   0  0  0  0  0  0  0  0  0  0  0  0
   58.5725   32.7799   42.5406 H   0  0  0  0  0  0  0  0  0  0  0  0
   57.7692   31.1732   42.5406 H   0  0  0  0  0  0  0  0  0  0  0  0
  1  2  1  0
  2  3  1  0
  3  4  1  0
  4  5  2  0
  5  6  1  0
  6  7  1  0
  5  8  1  0
  8  9  1  0
  9 10  1  0
 10 11  1  0
 11 12  1  0
 12 13  1  0
 13 14  1  0
 13 15  1  0
  8 16  2  0
 16 17  1  0
 17 18  2  0
 18 19  1  0
 19 20  2  0
 20 21  1  0
 21 22  2  0
 22 23  1  0
  6  2  2  0
 21 16  1  0
 22  4  1  0
  1 24  1  0
  1 25  1  0
  1 26  1  0
  7 27  1  0
  7 28  1  0
  7 29  1  0
  9 30  1  0
  9 31  1  0
 10 32  1  0
 10 33  1  0
 11 34  1  0
 11 35  1  0
 12 36  1  0
 13 37  1  0
 14 38  1  0
 14 39  1  0
 14 40  1  0
 15 41  1  0
 15 42  1  0
 15 43  1  0
 17 44  1  0
 18 45  1  0
 19 46  1  0
 20 47  1  0
 23 48  1  0
 23 49  1  0
 23 50  1  0
M  CHG  2   9   1  22   1
M  END
>  <UniqueID>  (23) 
22

>  <SMILES>  (23) 
Cc1sc2c(c1C)c([NH2+]CCNC(C)C)c1ccccc1[n+]2C

>  <Energy>  (23) 
100.40813391694262

>  <Genealogy>  (23) 
Cc1sc2c(c1C)c([NH2+]CCNC(C)C)c1ccccc1[n+]2C (protonated)
Cc1sc2c(c1C)c([NH2+]CCNC(C)C)c1ccccc1[n+]2C (3D coordinates assigned)
Cc1sc2c(c1C)c([NH2+]CCNC(C)C)c1ccccc1[n+]2C (optimized conformer: 100.40813391694262 kcal/mol)

>  <smiles>  (23) 
Cc1sc2c(c1C)c(NCCNC(C)C)c1ccccc1[n+]2C

>  <score_type>  (23) 
oracle

>  <origin>  (23) 
adg

>  <m_score__min__energy>  (23) 
-4.7999999999999998

>  <m_primary>  (23) 
energy

$$$$
23:0
     RDKit          3D

 35 37  0  0  0  0  0  0  0  0999 V2000
   59.7690   35.0160   45.9900 C   0  0  0  0  0  0  0  0  0  0  0  0
   60.1060   33.6710   46.4530 N   0  0  0  0  0  0  0  0  0  0  0  0
   59.2560   32.6490   46.7460 C   0  0  0  0  0  0  0  0  0  0  0  0
   57.7650   32.7210   46.5370 C   0  0  0  0  0  0  0  0  0  0  0  0
   57.3620   32.5100   45.0700 C   0  0  0  0  0  0  0  0  0  0  0  0
   56.8180   31.1520   44.8680 N   0  0  0  0  0  0  0  0  0  0  0  0
   56.6340   30.8570   43.4460 C   0  0  0  0  0  0  0  0  0  0  0  0
   56.6770   29.3480   43.3080 C   0  0  0  0  0  0  0  0  0  0  0  0
   57.4900   28.8670   44.4970 C   0  0  0  0  0  0  0  0  0  0  0  0
   57.7100   30.0980   45.3690 C   0  0  0  0  0  0  0  0  0  0  0  0
   59.8930   31.5440   47.2230 N   0  0  0  0  0  0  0  0  0  0  0  0
   61.1820   31.9250   47.2450 C   0  0  0  0  0  0  0  0  0  0  0  0
   62.2860   31.1950   47.6700 C   0  0  0  0  0  0  0  0  0  0  0  0
   63.5110   31.7980   47.6250 N   0  0  0  0  0  0  0  0  0  0  0  0
   63.6710   33.0850   47.1790 C   0  0  0  0  0  0  0  0  0  0  0  0
   62.5590   33.8340   46.7480 C   0  0  0  0  0  0  0  0  0  0  0  0
   61.3170   33.2020   46.7940 C   0  0  0  0  0  0  0  0  0  0  0  0
   59.6046   35.6720   46.8576 H   0  0  0  0  0  0  0  0  0  0  0  0
   60.5956   35.4123   45.3820 H   0  0  0  0  0  0  0  0  0  0  0  0
   58.8532   34.9758   45.3820 H   0  0  0  0  0  0  0  0  0  0  0  0
   57.2857   31.9428   47.1492 H   0  0  0  0  0  0  0  0  0  0  0  0
   57.4363   33.7289   46.8305 H   0  0  0  0  0  0  0  0  0  0  0  0
   56.5959   33.2503   44.7960 H   0  0  0  0  0  0  0  0  0  0  0  0
   58.2537   32.6314   44.4374 H   0  0  0  0  0  0  0  0  0  0  0  0
   55.6632   31.2422   43.1009 H   0  0  0  0  0  0  0  0  0  0  0  0
   57.4165   31.3336   42.8373 H   0  0  0  0  0  0  0  0  0  0  0  0
   55.6609   28.9279   43.3392 H   0  0  0  0  0  0  0  0  0  0  0  0
   57.1189   29.0333   42.3511 H   0  0  0  0  0  0  0  0  0  0  0  0
   56.9369   28.0962   45.0536 H   0  0  0  0  0  0  0  0  0  0  0  0
   58.4426   28.4157   44.1826 H   0  0  0  0  0  0  0  0  0  0  0  0
   57.4674   29.8658   46.4165 H   0  0  0  0  0  0  0  0  0  0  0  0
   58.7600   30.4232   45.3267 H   0  0  0  0  0  0  0  0  0  0  0  0
   62.1764   30.1620   48.0319 H   0  0  0  0  0  0  0  0  0  0  0  0
   64.6744   33.5352   47.1578 H   0  0  0  0  0  0  0  0  0  0  0  0
   62.6653   34.8693   46.3917 H   0  0  0  0  0  0  0  0  0  0  0  0
  1  2  1  0
  2  3  1  0
  3  4  1  0
  4  5  1  0
  5  6  1  0
  6  7  1  0
  7  8  1  0
  8  9  1  0
  9 10  1  0
  3 11  2  0
 11 12  1  0
 12 13  2  0
 13 14  1  0
 14 15  2  0
 15 16  1  0
 16 17  2  0
 17  2  1  0
 10  6  1  0
 17 12  1  0
  1 18  1  0
  1 19  1  0
  1 20  1  0
  4 21  1  0
  4 22  1  0
  5 23  1  0
  5 24  1  0
  7 25  1  0
  7 26  1  0
  8 27  1  0
  8 28  1  0
  9 29  1  0
  9 30  1  0
 10 31  1  0
 10 32  1  0
 13 33  1  0
 15 34  1  0
 16 35  1  0
M  END
>  <UniqueID>  (24) 
23

>  <SMILES>  (24) 
Cn1c(CCN2CCCC2)nc2cnccc21

>  <Energy>  (24) 
75.50256567876751

>  <Genealogy>  (24) 
Cn1c(CCN2CCCC2)nc2cnccc21 (3D coordinates assigned)
Cn1c(CCN2CCCC2)nc2cnccc21 (nonaromatic ring conformer: 75.50256567876751 kcal/mol)

>  <smiles>  (24) 
Cn1c(CCN2CCCC2)nc2cnccc21

>  <score_type>  (24) 
oracle

>  <origin>  (24) 
adg

>  <m_score__min__energy>  (24) 
-6.3200000000000003

>  <m_primary>  (24) 
energy

$$$$
24:0
     RDKit          3D

 38 40  0  0  0  0  0  0  0  0999 V2000
   57.6776   32.2422   42.9425 H   0  0  0  0  0  0  0  0  0  0  0  0
   57.3830   31.4400   43.6350 C   0  0  0  0  0  0  0  0  0  0  0  0
   56.4130   30.1190   43.2590 S   0  0  0  0  0  0  0  0  0  0  0  0
   56.4890   29.4910   44.8210 C   0  0  0  0  0  0  0  0  0  0  0  0
   55.9110   28.4030   45.2360 N   0  0  0  0  0  0  0  0  0  0  0  0
   56.6070   27.1830   45.6420 C   0  0  0  0  0  0  0  0  0  0  0  0
   56.0388   26.6939   46.4469 H   0  0  0  0  0  0  0  0  0  0  0  0
   56.6874   26.5153   44.7716 H   0  0  0  0  0  0  0  0  0  0  0  0
   57.9930   27.5010   46.1380 C   0  0  0  0  0  0  0  0  0  0  0  0
   58.2260   27.7480   47.5020 C   0  0  0  0  0  0  0  0  0  0  0  0
   57.3914   27.7044   48.2172 H   0  0  0  0  0  0  0  0  0  0  0  0
   59.5150   28.0490   47.9530 C   0  0  0  0  0  0  0  0  0  0  0  0
   59.6918   28.2443   49.0210 H   0  0  0  0  0  0  0  0  0  0  0  0
   60.5790   28.1020   47.0480 C   0  0  0  0  0  0  0  0  0  0  0  0
   61.5924   28.3392   47.4041 H   0  0  0  0  0  0  0  0  0  0  0  0
   60.3560   27.8540   45.6920 C   0  0  0  0  0  0  0  0  0  0  0  0
   61.1946   27.8948   44.9813 H   0  0  0  0  0  0  0  0  0  0  0  0
   59.0690   27.5540   45.2360 C   0  0  0  0  0  0  0  0  0  0  0  0
   58.8981   27.3587   44.1671 H   0  0  0  0  0  0  0  0  0  0  0  0
   57.2390   30.2620   45.6350 N   0  0  0  0  0  0  0  0  0  0  0  0
   57.7500   31.3420   44.9800 C   0  0  0  0  0  0  0  0  0  0  0  0
   58.5650   32.3540   45.6850 C   0  0  0  0  0  0  0  0  0  0  0  0
   59.7200   31.9220   46.3590 C   0  0  0  0  0  0  0  0  0  0  0  0
   60.0047   30.8602   46.3206 H   0  0  0  0  0  0  0  0  0  0  0  0
   60.5140   32.8240   47.0790 C   0  0  0  0  0  0  0  0  0  0  0  0
   61.7580   32.3490   47.7730 C   0  0  0  0  0  0  0  0  0  0  0  0
   61.6140   32.4040   48.8621 H   0  0  0  0  0  0  0  0  0  0  0  0
   61.9653   31.3085   47.4826 H   0  0  0  0  0  0  0  0  0  0  0  0
   62.6060   32.9866   47.4826 H   0  0  0  0  0  0  0  0  0  0  0  0
   60.1710   34.1800   47.0990 C   0  0  0  0  0  0  0  0  0  0  0  0
   60.7955   34.8952   47.6544 H   0  0  0  0  0  0  0  0  0  0  0  0
   59.0380   34.6290   46.4160 C   0  0  0  0  0  0  0  0  0  0  0  0
   58.7711   35.6957   46.4482 H   0  0  0  0  0  0  0  0  0  0  0  0
   58.2360   33.7350   45.6890 C   0  0  0  0  0  0  0  0  0  0  0  0
   57.0540   34.2820   44.9320 C   0  0  0  0  0  0  0  0  0  0  0  0
   56.2934   34.6340   45.6444 H   0  0  0  0  0  0  0  0  0  0  0  0
   57.3800   35.1208   44.2994 H   0  0  0  0  0  0  0  0  0  0  0  0
   56.6256   33.4906   44.2994 H   0  0  0  0  0  0  0  0  0  0  0  0
  1  2  1  0
  2  3  1  0
  3  4  1  0
  4  5  2  0
  5  6  1  0
  6  7  1  0
  6  8  1  0
  6  9  1  0
  9 10  2  0
 10 11  1  0
 10 12  1  0
 12 13  1  0
 12 14  2  0
 14 15  1  0
 14 16  1  0
 16 17  1  0
 16 18  2  0
 18 19  1  0
  4 20  1  0
 20 21  1  0
 21 22  1  0
 22 23  2  0
 23 24  1  0
 23 25  1  0
 25 26  1  0
 26 27  1  0
 26 28  1  0
 26 29  1  0
 25 30  2  0
 30 31  1  0
 30 32  1  0
 32 33  1  0
 32 34  2  0
 34 35  1  0
 35 36  1  0
 35 37  1  0
 35 38  1  0
 21  2  2  0
 34 22  1  0
 18  9  1  0
M  CHG  1  20  -1
M  END
>  <UniqueID>  (25) 
24

>  <SMILES>  (25) 
Cc1ccc(C)c(-c2cs/c(=N\Cc3ccccc3)[n-]2)c1

>  <Energy>  (25) 
75.20341603956238

>  <Genealogy>  (25) 
Cc1ccc(C)c(-c2csc(=NCc3ccccc3)[n-]2)c1 (protonated)
Cc1ccc(C)c(-c2cs/c(=N\Cc3ccccc3)[n-]2)c1 (cis-trans isomerization)
Cc1ccc(C)c(-c2cs/c(=N\Cc3ccccc3)[n-]2)c1 (3D coordinates assigned)
Cc1ccc(C)c(-c2cs/c(=N\Cc3ccccc3)[n-]2)c1 (optimized conformer: 75.20341603956238 kcal/mol)

>  <smiles>  (25) 
Cc1ccc(C)c(-c2csc(=NCc3ccccc3)[nH]2)c1

>  <score_type>  (25) 
oracle

>  <origin>  (25) 
adg

>  <m_score__min__energy>  (25) 
-9.6199999999999992

>  <m_primary>  (25) 
energy

$$$$
25:0
     RDKit          3D

 49 52  0  0  0  0  0  0  0  0999 V2000
   57.4010   31.9310   42.8400 C   0  0  0  0  0  0  0  0  0  0  0  0
   57.3730   30.8210   43.7820 N   0  0  0  0  0  0  0  0  0  0  0  0
   58.4460   30.1550   44.2430 C   0  0  0  0  0  0  0  0  0  0  0  0
   58.0050   29.2260   45.1650 C   0  0  0  0  0  0  0  0  0  0  0  0
   58.8120   28.2800   45.9650 C   0  0  0  0  0  0  0  0  0  0  0  0
   59.3590   27.1600   45.3160 C   0  0  0  0  0  0  0  0  0  0  0  0
   60.1310   26.2350   46.0200 C   0  0  0  0  0  0  0  0  0  0  0  0
   60.3780   26.4210   47.3780 C   0  0  0  0  0  0  0  0  0  0  0  0
   59.8610   27.5370   48.0380 C   0  0  0  0  0  0  0  0  0  0  0  0
   59.0820   28.4830   47.3450 C   0  0  0  0  0  0  0  0  0  0  0  0
   58.6060   29.7130   48.0910 C   0  0  0  0  0  0  0  0  0  0  0  0
   59.7080   30.6870   48.2550 N   0  0  0  0  0  0  0  0  0  0  0  0
   59.3280   31.8650   49.0590 C   0  0  0  0  0  0  0  0  0  0  0  0
   58.3470   32.7990   48.3220 C   0  0  0  0  0  0  0  0  0  0  0  0
   58.2990   32.5340   46.8680 N   0  0  0  0  0  0  0  0  0  0  0  0
   57.5140   33.5580   46.1320 C   0  0  0  0  0  0  0  0  0  0  0  0
   58.3730   34.5250   45.2910 C   0  0  0  0  0  0  0  0  0  0  0  0
   59.7000   34.8360   45.9820 C   0  0  0  0  0  0  0  0  0  0  0  0
   60.5070   33.5600   46.2860 C   0  0  0  0  0  0  0  0  0  0  0  0
   59.6320   32.2810   46.2820 C   0  0  1  0  0  0  0  0  0  0  0  0
   60.3370   31.0830   46.9760 C   0  0  0  0  0  0  0  0  0  0  0  0
   56.6350   29.4150   45.2380 C   0  0  0  0  0  0  0  0  0  0  0  0
   56.2750   30.3940   44.3860 N   0  0  0  0  0  0  0  0  0  0  0  0
   57.4250   32.8812   43.3936 H   0  0  0  0  0  0  0  0  0  0  0  0
   58.2975   31.8525   42.2074 H   0  0  0  0  0  0  0  0  0  0  0  0
   56.5017   31.8978   42.2074 H   0  0  0  0  0  0  0  0  0  0  0  0
   59.4903   30.3206   43.9396 H   0  0  0  0  0  0  0  0  0  0  0  0
   59.1767   27.0109   44.2415 H   0  0  0  0  0  0  0  0  0  0  0  0
   60.5451   25.3576   45.5016 H   0  0  0  0  0  0  0  0  0  0  0  0
   60.9818   25.6869   47.9316 H   0  0  0  0  0  0  0  0  0  0  0  0
   60.0642   27.6787   49.1098 H   0  0  0  0  0  0  0  0  0  0  0  0
   57.7891   30.1845   47.5250 H   0  0  0  0  0  0  0  0  0  0  0  0
   58.2544   29.4071   49.0874 H   0  0  0  0  0  0  0  0  0  0  0  0
   58.8523   31.5180   49.9881 H   0  0  0  0  0  0  0  0  0  0  0  0
   60.2446   32.4389   49.2601 H   0  0  0  0  0  0  0  0  0  0  0  0
   57.3401   32.6545   48.7406 H   0  0  0  0  0  0  0  0  0  0  0  0
   58.6984   33.8318   48.4627 H   0  0  0  0  0  0  0  0  0  0  0  0
   56.8165   33.0398   45.4576 H   0  0  0  0  0  0  0  0  0  0  0  0
   56.9988   34.1676   46.8890 H   0  0  0  0  0  0  0  0  0  0  0  0
   58.5778   34.0640   44.3135 H   0  0  0  0  0  0  0  0  0  0  0  0
   57.8167   35.4662   45.1696 H   0  0  0  0  0  0  0  0  0  0  0  0
   60.2978   35.4861   45.3262 H   0  0  0  0  0  0  0  0  0  0  0  0
   59.4764   35.3316   46.9382 H   0  0  0  0  0  0  0  0  0  0  0  0
   61.2924   33.4509   45.5236 H   0  0  0  0  0  0  0  0  0  0  0  0
   60.9304   33.6685   47.2954 H   0  0  0  0  0  0  0  0  0  0  0  0
   59.4869   32.0002   45.2284 H   0  0  0  0  0  0  0  0  0  0  0  0
   60.3104   30.2207   46.2935 H   0  0  0  0  0  0  0  0  0  0  0  0
   61.3642   31.4020   47.2063 H   0  0  0  0  0  0  0  0  0  0  0  0
   55.9488   28.8538   45.8893 H   0  0  0  0  0  0  0  0  0  0  0  0
  1  2  1  0
  2  3  1  0
  3  4  2  0
  4  5  1  0
  5  6  2  0
  6  7  1  0
  7  8  2  0
  8  9  1  0
  9 10  2  0
 10 11  1  0
 11 12  1  0
 12 13  1  0
 13 14  1  0
 14 15  1  0
 15 16  1  0
 16 17  1  0
 17 18  1  0
 18 19  1  0
 19 20  1  0
 20 21  1  0
  4 22  1  0
 22 23  2  0
 23  2  1  0
 10  5  1  0
 21 12  1  0
 20 15  1  0
  1 24  1  0
  1 25  1  0
  1 26  1  0
  3 27  1  0
  6 28  1  0
  7 29  1  0
  8 30  1  0
  9 31  1  0
 11 32  1  0
 11 33  1  0
 13 34  1  0
 13 35  1  0
 14 36  1  0
 14 37  1  0
 16 38  1  0
 16 39  1  0
 17 40  1  0
 17 41  1  0
 18 42  1  0
 18 43  1  0
 19 44  1  0
 19 45  1  0
 20 46  1  6
 21 47  1  0
 21 48  1  0
 22 49  1  0
M  END
>  <UniqueID>  (26) 
25

>  <SMILES>  (26) 
Cn1cc(-c2ccccc2CN2CCN3CCCC[C@H]3C2)cn1

>  <Energy>  (26) 
106.10208995945592

>  <Genealogy>  (26) 
Cn1cc(-c2ccccc2CN2CCN3CCCC[C@H]3C2)cn1 (chirality)
Cn1cc(-c2ccccc2CN2CCN3CCCC[C@H]3C2)cn1 (3D coordinates assigned)
Cn1cc(-c2ccccc2CN2CCN3CCCC[C@H]3C2)cn1 (nonaromatic ring conformer: 106.10208995945592 kcal/mol)

>  <smiles>  (26) 
Cn1cc(-c2ccccc2CN2CCN3CCCCC3C2)cn1

>  <score_type>  (26) 
oracle

>  <origin>  (26) 
adg

>  <m_score__min__energy>  (26) 
-7.79

>  <m_primary>  (26) 
energy

$$$$
26:0
     RDKit          3D

 44 46  0  0  0  0  0  0  0  0999 V2000
   60.6080   27.8670   45.6220 C   0  0  0  0  0  0  0  0  0  0  0  0
   60.3650   26.5650   46.3750 C   0  0  0  0  0  0  0  0  0  0  0  0
   59.3720   26.7770   47.4360 N   0  0  0  0  0  0  0  0  0  0  0  0
   58.1130   26.0730   47.1440 C   0  0  0  0  0  0  0  0  0  0  0  0
   57.5920   26.4260   45.7440 C   0  0  0  0  0  0  0  0  0  0  0  0
   56.2090   27.0230   45.7840 C   0  0  0  0  0  0  0  0  0  0  0  0
   55.2500   26.3200   46.1980 O   0  0  0  0  0  0  0  0  0  0  0  0
   55.9220   28.3220   45.2440 N   0  0  0  0  0  0  0  0  0  0  0  0
   56.7470   29.4910   45.3240 C   0  0  0  0  0  0  0  0  0  0  0  0
   56.5900   30.5580   44.4350 C   0  0  0  0  0  0  0  0  0  0  0  0
   57.4230   31.6750   44.5150 C   0  0  0  0  0  0  0  0  0  0  0  0
   58.4480   31.7560   45.4910 C   0  0  0  0  0  0  0  0  0  0  0  0
   58.6570   30.6310   46.3310 C   0  0  0  0  0  0  0  0  0  0  0  0
   57.7970   29.5170   46.2420 C   0  0  0  0  0  0  0  0  0  0  0  0
   59.7310   30.6330   47.2320 C   0  0  0  0  0  0  0  0  0  0  0  0
   59.9090   29.6510   48.0070 O   0  0  0  0  0  0  0  0  0  0  0  0
   60.6240   31.7120   47.2480 C   0  0  0  0  0  0  0  0  0  0  0  0
   61.7570   31.6920   48.0890 C   0  0  0  0  0  0  0  0  0  0  0  0
   62.6740   32.7400   48.0650 C   0  0  0  0  0  0  0  0  0  0  0  0
   62.4860   33.8110   47.2000 C   0  0  0  0  0  0  0  0  0  0  0  0
   61.3660   33.8570   46.3700 C   0  0  0  0  0  0  0  0  0  0  0  0
   60.3900   32.8270   46.3990 C   0  0  0  0  0  0  0  0  0  0  0  0
   59.2480   32.8770   45.6200 N   0  0  0  0  0  0  0  0  0  0  0  0
   58.8650   34.1400   44.9500 C   0  0  0  0  0  0  0  0  0  0  0  0
   60.7605   28.6842   46.3424 H   0  0  0  0  0  0  0  0  0  0  0  0
   61.5024   27.7636   44.9900 H   0  0  0  0  0  0  0  0  0  0  0  0
   59.7366   28.0932   44.9900 H   0  0  0  0  0  0  0  0  0  0  0  0
   59.9928   25.8029   45.6745 H   0  0  0  0  0  0  0  0  0  0  0  0
   61.3095   26.2269   46.8263 H   0  0  0  0  0  0  0  0  0  0  0  0
   59.1640   27.8030   47.4710 H   0  0  0  0  0  0  0  0  0  0  0  0
   58.2872   24.9883   47.1991 H   0  0  0  0  0  0  0  0  0  0  0  0
   57.3606   26.3829   47.8842 H   0  0  0  0  0  0  0  0  0  0  0  0
   58.2780   27.1523   45.2837 H   0  0  0  0  0  0  0  0  0  0  0  0
   57.5411   25.4960   45.1587 H   0  0  0  0  0  0  0  0  0  0  0  0
   55.8040   30.5171   43.6665 H   0  0  0  0  0  0  0  0  0  0  0  0
   57.2818   32.5065   43.8088 H   0  0  0  0  0  0  0  0  0  0  0  0
   57.9566   28.6552   46.9067 H   0  0  0  0  0  0  0  0  0  0  0  0
   61.9172   30.8421   48.7688 H   0  0  0  0  0  0  0  0  0  0  0  0
   63.5485   32.7198   48.7319 H   0  0  0  0  0  0  0  0  0  0  0  0
   63.2238   34.6263   47.1697 H   0  0  0  0  0  0  0  0  0  0  0  0
   61.2371   34.7054   45.6818 H   0  0  0  0  0  0  0  0  0  0  0  0
   58.6339   34.9021   45.7088 H   0  0  0  0  0  0  0  0  0  0  0  0
   59.6977   34.4889   44.3216 H   0  0  0  0  0  0  0  0  0  0  0  0
   57.9787   33.9676   44.3216 H   0  0  0  0  0  0  0  0  0  0  0  0
  1  2  1  0
  2  3  1  0
  3  4  1  0
  4  5  1  0
  5  6  1  0
  6  7  2  0
  6  8  1  0
  8  9  1  0
  9 10  2  0
 10 11  1  0
 11 12  2  0
 12 13  1  0
 13 14  2  0
 13 15  1  0
 15 16  2  0
 15 17  1  0
 17 18  2  0
 18 19  1  0
 19 20  2  0
 20 21  1  0
 21 22  2  0
 22 23  1  0
 23 24  1  0
 14  9  1  0
 22 17  1  0
 23 12  1  0
  1 25  1  0
  1 26  1  0
  1 27  1  0
  2 28  1  0
  2 29  1  0
  3 30  1  0
  4 31  1  0
  4 32  1  0
  5 33  1  0
  5 34  1  0
 10 35  1  0
 11 36  1  0
 14 37  1  0
 18 38  1  0
 19 39  1  0
 20 40  1  0
 21 41  1  0
 24 42  1  0
 24 43  1  0
 24 44  1  0
M  CHG  1   8  -1
M  END
>  <UniqueID>  (27) 
26

>  <SMILES>  (27) 
CCNCCC(=O)[N-]c1ccc2c(c1)c(=O)c1ccccc1n2C

>  <Energy>  (27) 
67.5774657824841

>  <Genealogy>  (27) 
CCNCCC(=O)[N-]c1ccc2c(c1)c(=O)c1ccccc1n2C (protonated)
CCNCCC(=O)[N-]c1ccc2c(c1)c(=O)c1ccccc1n2C (3D coordinates assigned)
CCNCCC(=O)[N-]c1ccc2c(c1)c(=O)c1ccccc1n2C (optimized conformer: 67.5774657824841 kcal/mol)

>  <smiles>  (27) 
CCNCCC(=O)Nc1ccc2c(c1)c(=O)c1ccccc1n2C

>  <score_type>  (27) 
oracle

>  <origin>  (27) 
adg

>  <m_score__min__energy>  (27) 
-9.8000000000000007

>  <m_primary>  (27) 
energy

$$$$
27:0
     RDKit          3D

 34 36  0  0  0  0  0  0  0  0999 V2000
   55.9020   30.1120   43.3360 C   0  0  0  0  0  0  0  0  0  0  0  0
   56.9940   29.9890   44.3170 N   0  0  0  0  0  0  0  0  0  0  0  0
   58.0070   30.9330   44.3500 C   0  0  0  0  0  0  0  0  0  0  0  0
   58.0300   32.3460   43.2310 S   0  0  0  0  0  0  0  0  0  0  0  0
   57.3960   33.5520   44.4550 C   0  0  0  0  0  0  0  0  0  0  0  0
   58.5170   34.4310   45.0160 C   0  0  0  0  0  0  0  0  0  0  0  0
   58.9140   34.0270   46.4130 C   0  0  0  0  0  0  0  0  0  0  0  0
   58.1460   33.0880   47.1220 C   0  0  0  0  0  0  0  0  0  0  0  0
   58.5060   32.7170   48.4210 C   0  0  0  0  0  0  0  0  0  0  0  0
   59.6330   33.2850   49.0240 C   0  0  0  0  0  0  0  0  0  0  0  0
   60.1170   32.7840   50.8030 Br  0  0  0  0  0  0  0  0  0  0  0  0
   60.4060   34.2150   48.3230 C   0  0  0  0  0  0  0  0  0  0  0  0
   60.0510   34.5850   47.0220 C   0  0  0  0  0  0  0  0  0  0  0  0
   59.0350   30.8140   45.2390 N   0  0  0  0  0  0  0  0  0  0  0  0
   59.0550   29.7890   46.1190 C   0  0  0  0  0  0  0  0  0  0  0  0
   60.0510   29.5610   47.0710 C   0  0  0  0  0  0  0  0  0  0  0  0
   59.7890   28.4370   47.8530 C   0  0  0  0  0  0  0  0  0  0  0  0
   58.3310   27.7390   47.3480 S   0  0  0  0  0  0  0  0  0  0  0  0
   58.0390   28.8680   46.1390 C   0  0  0  0  0  0  0  0  0  0  0  0
   56.9900   28.9620   45.2350 C   0  0  0  0  0  0  0  0  0  0  0  0
   56.0580   28.1120   45.2670 O   0  0  0  0  0  0  0  0  0  0  0  0
   54.9439   30.2199   43.8655 H   0  0  0  0  0  0  0  0  0  0  0  0
   56.0739   30.9965   42.7050 H   0  0  0  0  0  0  0  0  0  0  0  0
   55.8728   29.2115   42.7050 H   0  0  0  0  0  0  0  0  0  0  0  0
   56.6485   34.1952   43.9676 H   0  0  0  0  0  0  0  0  0  0  0  0
   56.9493   32.9915   45.2894 H   0  0  0  0  0  0  0  0  0  0  0  0
   59.3956   34.3459   44.3597 H   0  0  0  0  0  0  0  0  0  0  0  0
   58.1457   35.4656   45.0569 H   0  0  0  0  0  0  0  0  0  0  0  0
   57.2567   32.6424   46.6525 H   0  0  0  0  0  0  0  0  0  0  0  0
   57.9028   31.9782   48.9690 H   0  0  0  0  0  0  0  0  0  0  0  0
   61.2955   34.6568   48.7958 H   0  0  0  0  0  0  0  0  0  0  0  0
   60.6639   35.3154   46.4734 H   0  0  0  0  0  0  0  0  0  0  0  0
   60.9411   30.1962   47.1903 H   0  0  0  0  0  0  0  0  0  0  0  0
   60.4270   28.0634   48.6675 H   0  0  0  0  0  0  0  0  0  0  0  0
  1  2  1  0
  2  3  1  0
  3  4  1  0
  4  5  1  0
  5  6  1  0
  6  7  1  0
  7  8  2  0
  8  9  1  0
  9 10  2  0
 10 11  1  0
 10 12  1  0
 12 13  2  0
  3 14  2  0
 14 15  1  0
 15 16  1  0
 16 17  2  0
 17 18  1  0
 18 19  1  0
 19 20  1  0
 20 21  2  0
 20  2  1  0
 13  7  1  0
 19 15  2  0
  1 22  1  0
  1 23  1  0
  1 24  1  0
  5 25  1  0
  5 26  1  0
  6 27  1  0
  6 28  1  0
  8 29  1  0
  9 30  1  0
 12 31  1  0
 13 32  1  0
 16 33  1  0
 17 34  1  0
M  END
>  <UniqueID>  (28) 
27

>  <SMILES>  (28) 
Cn1c(SCCc2ccc(Br)cc2)nc2ccsc2c1=O

>  <Energy>  (28) 
64.60809053706069

>  <Genealogy>  (28) 
Cn1c(SCCc2ccc(Br)cc2)nc2ccsc2c1=O (3D coordinates assigned)
Cn1c(SCCc2ccc(Br)cc2)nc2ccsc2c1=O (optimized conformer: 64.60809053706069 kcal/mol)

>  <smiles>  (28) 
Cn1c(SCCc2ccc(Br)cc2)nc2ccsc2c1=O

>  <score_type>  (28) 
oracle

>  <origin>  (28) 
adg

>  <m_score__min__energy>  (28) 
-7.5899999999999999

>  <m_primary>  (28) 
energy

$$$$
28:0
     RDKit          3D

 63 63  0  0  0  0  0  0  0  0999 V2000
   57.3550   33.8310   45.8580 C   0  0  0  0  0  0  0  0  0  0  0  0
   58.3040   32.9520   45.0500 C   0  0  0  0  0  0  0  0  0  0  0  0
   57.5330   32.0400   44.0950 C   0  0  0  0  0  0  0  0  0  0  0  0
   56.6300   31.1730   44.8450 N   0  0  0  0  0  0  0  0  0  0  0  0
   56.2390   29.8650   44.4210 C   0  0  0  0  0  0  0  0  0  0  0  0
   55.1800   29.3450   44.8640 O   0  0  0  0  0  0  0  0  0  0  0  0
   57.1260   29.0760   43.5030 C   0  0  0  0  0  0  0  0  0  0  0  0
   58.0820   28.2560   44.2660 N   0  0  0  0  0  0  0  0  0  0  0  0
   59.4550   28.7580   44.4490 C   0  0  0  0  0  0  0  0  0  0  0  0
   59.5940   29.5480   45.7630 C   0  0  0  0  0  0  0  0  0  0  0  0
   59.2590   28.7090   46.9380 N   0  0  0  0  0  0  0  0  0  0  0  0
   58.7830   29.5450   48.0660 C   0  0  0  0  0  0  0  0  0  0  0  0
   59.1580   31.0020   47.8250 C   0  0  0  0  0  0  0  0  0  0  0  0
   60.4170   27.8760   47.3430 C   0  0  0  0  0  0  0  0  0  0  0  0
   60.2900   26.4660   46.7650 C   0  0  0  0  0  0  0  0  0  0  0  0
   57.7290   26.9320   44.7360 C   0  0  0  0  0  0  0  0  0  0  0  0
   58.0360   25.9250   44.0420 O   0  0  0  0  0  0  0  0  0  0  0  0
   56.9390   26.7290   46.0070 C   0  0  0  0  0  0  0  0  0  0  0  0
   57.0330   25.2940   46.5360 C   0  0  0  0  0  0  0  0  0  0  0  0
   55.6990   24.7750   46.8200 N   0  0  0  0  0  0  0  0  0  0  0  0
   54.6210   24.8420   45.8800 C   0  0  0  0  0  0  0  0  0  0  0  0
   54.0430   25.9400   45.6470 O   0  0  0  0  0  0  0  0  0  0  0  0
   54.1570   23.5970   45.1920 C   0  0  0  0  0  0  0  0  0  0  0  0
   55.3210   22.8710   44.5690 C   0  0  0  0  0  0  0  0  0  0  0  0
   56.0960   21.9810   45.3330 C   0  0  0  0  0  0  0  0  0  0  0  0
   57.1630   21.2940   44.7450 C   0  0  0  0  0  0  0  0  0  0  0  0
   57.4560   21.4790   43.3900 C   0  0  0  0  0  0  0  0  0  0  0  0
   56.6800   22.3510   42.6210 C   0  0  0  0  0  0  0  0  0  0  0  0
   55.6150   23.0430   43.2060 C   0  0  0  0  0  0  0  0  0  0  0  0
   57.5299   33.6690   46.9318 H   0  0  0  0  0  0  0  0  0  0  0  0
   57.5356   34.8879   45.6125 H   0  0  0  0  0  0  0  0  0  0  0  0
   56.3150   33.5701   45.6125 H   0  0  0  0  0  0  0  0  0  0  0  0
   58.9791   33.5948   44.4660 H   0  0  0  0  0  0  0  0  0  0  0  0
   58.8758   32.3227   45.7478 H   0  0  0  0  0  0  0  0  0  0  0  0
   56.9481   32.6566   43.3966 H   0  0  0  0  0  0  0  0  0  0  0  0
   58.2482   31.4172   43.5377 H   0  0  0  0  0  0  0  0  0  0  0  0
   56.5033   28.4164   42.8807 H   0  0  0  0  0  0  0  0  0  0  0  0
   57.6921   29.7789   42.8742 H   0  0  0  0  0  0  0  0  0  0  0  0
   60.1484   27.9043   44.4697 H   0  0  0  0  0  0  0  0  0  0  0  0
   59.6911   29.4327   43.6129 H   0  0  0  0  0  0  0  0  0  0  0  0
   60.6312   29.9013   45.8599 H   0  0  0  0  0  0  0  0  0  0  0  0
   58.8934   30.3955   45.7325 H   0  0  0  0  0  0  0  0  0  0  0  0
   57.6895   29.4585   48.1482 H   0  0  0  0  0  0  0  0  0  0  0  0
   59.2541   29.1988   48.9978 H   0  0  0  0  0  0  0  0  0  0  0  0
   59.2891   31.5115   48.7910 H   0  0  0  0  0  0  0  0  0  0  0  0
   60.0976   31.0493   47.2550 H   0  0  0  0  0  0  0  0  0  0  0  0
   58.3580   31.4971   47.2550 H   0  0  0  0  0  0  0  0  0  0  0  0
   61.3432   28.3379   46.9705 H   0  0  0  0  0  0  0  0  0  0  0  0
   60.4414   27.8099   48.4407 H   0  0  0  0  0  0  0  0  0  0  0  0
   60.2244   25.7375   47.5866 H   0  0  0  0  0  0  0  0  0  0  0  0
   59.3826   26.4037   46.1463 H   0  0  0  0  0  0  0  0  0  0  0  0
   61.1717   26.2425   46.1463 H   0  0  0  0  0  0  0  0  0  0  0  0
   57.3261   27.4140   46.7757 H   0  0  0  0  0  0  0  0  0  0  0  0
   55.8822   26.9314   45.7785 H   0  0  0  0  0  0  0  0  0  0  0  0
   57.5170   24.6586   45.7797 H   0  0  0  0  0  0  0  0  0  0  0  0
   57.6252   25.2905   47.4630 H   0  0  0  0  0  0  0  0  0  0  0  0
   53.6708   22.9379   45.9262 H   0  0  0  0  0  0  0  0  0  0  0  0
   53.4459   23.8734   44.3996 H   0  0  0  0  0  0  0  0  0  0  0  0
   55.8625   21.8245   46.3965 H   0  0  0  0  0  0  0  0  0  0  0  0
   57.7730   20.6067   45.3496 H   0  0  0  0  0  0  0  0  0  0  0  0
   58.2964   20.9387   42.9298 H   0  0  0  0  0  0  0  0  0  0  0  0
   56.9074   22.4930   41.5542 H   0  0  0  0  0  0  0  0  0  0  0  0
   55.0045   23.7252   42.5962 H   0  0  0  0  0  0  0  0  0  0  0  0
  1  2  1  0
  2  3  1  0
  3  4  1  0
  4  5  1  0
  5  6  2  0
  5  7  1  0
  7  8  1  0
  8  9  1  0
  9 10  1  0
 10 11  1  0
 11 12  1  0
 12 13  1  0
 11 14  1  0
 14 15  1  0
  8 16  1  0
 16 17  2  0
 16 18  1  0
 18 19  1  0
 19 20  1  0
 20 21  1  0
 21 22  2  0
 21 23  1  0
 23 24  1  0
 24 25  2  0
 25 26  1  0
 26 27  2  0
 27 28  1  0
 28 29  2  0
 29 24  1  0
  1 30  1  0
  1 31  1  0
  1 32  1  0
  2 33  1  0
  2 34  1  0
  3 35  1  0
  3 36  1  0
  7 37  1  0
  7 38  1  0
  9 39  1  0
  9 40  1  0
 10 41  1  0
 10 42  1  0
 12 43  1  0
 12 44  1  0
 13 45  1  0
 13 46  1  0
 13 47  1  0
 14 48  1  0
 14 49  1  0
 15 50  1  0
 15 51  1  0
 15 52  1  0
 18 53  1  0
 18 54  1  0
 19 55  1  0
 19 56  1  0
 23 57  1  0
 23 58  1  0
 25 59  1  0
 26 60  1  0
 27 61  1  0
 28 62  1  0
 29 63  1  0
M  CHG  2   4  -1  20  -1
M  END
>  <UniqueID>  (29) 
28

>  <SMILES>  (29) 
CCC[N-]C(=O)CN(CCN(CC)CC)C(=O)CC[N-]C(=O)Cc1ccccc1

>  <Energy>  (29) 
38.6740707030879

>  <Genealogy>  (29) 
CCC[N-]C(=O)CN(CCN(CC)CC)C(=O)CC[N-]C(=O)Cc1ccccc1 (protonated)
CCC[N-]C(=O)CN(CCN(CC)CC)C(=O)CC[N-]C(=O)Cc1ccccc1 (3D coordinates assigned)
CCC[N-]C(=O)CN(CCN(CC)CC)C(=O)CC[N-]C(=O)Cc1ccccc1 (optimized conformer: 38.6740707030879 kcal/mol)

>  <smiles>  (29) 
CCCNC(=O)CN(CCN(CC)CC)C(=O)CCNC(=O)Cc1ccccc1

>  <score_type>  (29) 
oracle

>  <origin>  (29) 
adg

>  <m_score__min__energy>  (29) 
-10.470000000000001

>  <m_primary>  (29) 
energy

$$$$
29:0
     RDKit          3D

 57 59  0  0  0  0  0  0  0  0999 V2000
   58.7510   31.9540   50.6440 C   0  0  0  0  0  0  0  0  0  0  0  0
   60.0580   32.6860   50.3670 C   0  0  0  0  0  0  0  0  0  0  0  0
   60.0920   33.1150   48.9460 N   0  0  0  0  0  0  0  0  0  0  0  0
   59.9290   34.5800   48.8100 C   0  0  0  0  0  0  0  0  0  0  0  0
   59.6400   34.9740   47.3600 C   0  0  0  0  0  0  0  0  0  0  0  0
   61.3210   32.6500   48.2590 C   0  0  0  0  0  0  0  0  0  0  0  0
   60.9970   31.6860   47.1090 C   0  0  0  0  0  0  0  0  0  0  0  0
   59.5520   31.5510   46.9160 N   0  0  0  0  0  0  0  0  0  0  0  0
   59.0120   30.3580   46.3290 C   0  0  0  0  0  0  0  0  0  0  0  0
   59.2470   29.1220   46.9590 C   0  0  0  0  0  0  0  0  0  0  0  0
   59.8700   29.0610   48.2260 C   0  0  0  0  0  0  0  0  0  0  0  0
   60.0670   27.8410   48.8670 C   0  0  0  0  0  0  0  0  0  0  0  0
   59.6390   26.6630   48.2640 C   0  0  0  0  0  0  0  0  0  0  0  0
   59.0350   26.6970   47.0090 C   0  0  0  0  0  0  0  0  0  0  0  0
   58.8570   27.9210   46.3160 C   0  0  0  0  0  0  0  0  0  0  0  0
   58.3140   27.9650   45.0480 N   0  0  0  0  0  0  0  0  0  0  0  0
   58.2200   26.7250   44.2430 C   0  0  0  0  0  0  0  0  0  0  0  0
   57.8790   29.1670   44.5210 C   0  0  0  0  0  0  0  0  0  0  0  0
   57.0550   29.2000   43.3690 C   0  0  0  0  0  0  0  0  0  0  0  0
   56.6470   30.4030   42.8080 C   0  0  0  0  0  0  0  0  0  0  0  0
   57.0210   31.6030   43.3860 C   0  0  0  0  0  0  0  0  0  0  0  0
   57.7960   31.6280   44.5520 C   0  0  0  0  0  0  0  0  0  0  0  0
   58.0560   32.9080   45.1510 N   0  0  0  0  0  0  0  0  0  0  0  0
   58.9160   33.8530   44.4370 C   0  0  0  0  0  0  0  0  0  0  0  0
   57.0650   33.4490   46.0820 C   0  0  0  0  0  0  0  0  0  0  0  0
   58.2370   30.4030   45.1420 C   0  0  0  0  0  0  0  0  0  0  0  0
   58.6010   31.8700   51.7305 H   0  0  0  0  0  0  0  0  0  0  0  0
   57.9153   32.5154   50.2008 H   0  0  0  0  0  0  0  0  0  0  0  0
   58.7930   30.9481   50.2008 H   0  0  0  0  0  0  0  0  0  0  0  0
   60.1291   33.5693   51.0187 H   0  0  0  0  0  0  0  0  0  0  0  0
   60.9051   32.0137   50.5680 H   0  0  0  0  0  0  0  0  0  0  0  0
   59.0922   34.9080   49.4442 H   0  0  0  0  0  0  0  0  0  0  0  0
   60.8661   35.0644   49.1217 H   0  0  0  0  0  0  0  0  0  0  0  0
   58.9895   35.8609   47.3437 H   0  0  0  0  0  0  0  0  0  0  0  0
   60.5856   35.2034   46.8469 H   0  0  0  0  0  0  0  0  0  0  0  0
   59.1372   34.1410   46.8469 H   0  0  0  0  0  0  0  0  0  0  0  0
   61.8548   33.5222   47.8536 H   0  0  0  0  0  0  0  0  0  0  0  0
   61.9421   32.1140   48.9917 H   0  0  0  0  0  0  0  0  0  0  0  0
   61.4475   32.0705   46.1821 H   0  0  0  0  0  0  0  0  0  0  0  0
   61.4065   30.6966   47.3609 H   0  0  0  0  0  0  0  0  0  0  0  0
   58.8980   32.1540   47.4660 H   0  0  0  0  0  0  0  0  0  0  0  0
   60.2036   29.9897   48.7121 H   0  0  0  0  0  0  0  0  0  0  0  0
   60.5607   27.8087   49.8495 H   0  0  0  0  0  0  0  0  0  0  0  0
   59.7778   25.7013   48.7797 H   0  0  0  0  0  0  0  0  0  0  0  0
   58.6907   25.7593   46.5484 H   0  0  0  0  0  0  0  0  0  0  0  0
   58.1541   25.8561   44.9144 H   0  0  0  0  0  0  0  0  0  0  0  0
   57.3225   26.7669   43.6084 H   0  0  0  0  0  0  0  0  0  0  0  0
   59.1136   26.6312   43.6084 H   0  0  0  0  0  0  0  0  0  0  0  0
   56.7320   28.2540   42.9099 H   0  0  0  0  0  0  0  0  0  0  0  0
   56.0244   30.4018   41.9011 H   0  0  0  0  0  0  0  0  0  0  0  0
   56.7054   32.5499   42.9236 H   0  0  0  0  0  0  0  0  0  0  0  0
   59.4719   34.4639   45.1635 H   0  0  0  0  0  0  0  0  0  0  0  0
   59.6254   33.2981   43.8055 H   0  0  0  0  0  0  0  0  0  0  0  0
   58.2969   34.5072   43.8055 H   0  0  0  0  0  0  0  0  0  0  0  0
   57.3958   33.2684   47.1154 H   0  0  0  0  0  0  0  0  0  0  0  0
   56.9575   34.5310   45.9152 H   0  0  0  0  0  0  0  0  0  0  0  0
   56.0968   32.9543   45.9152 H   0  0  0  0  0  0  0  0  0  0  0  0
  1  2  1  0
  2  3  1  0
  3  4  1  0
  4  5  1  0
  3  6  1  0
  6  7  1  0
  7  8  1  0
  8  9  1  0
  9 10  2  0
 10 11  1  0
 11 12  2  0
 12 13  1  0
 13 14  2  0
 14 15  1  0
 15 16  2  0
 16 17  1  0
 16 18  1  0
 18 19  2  0
 19 20  1  0
 20 21  2  0
 21 22  1  0
 22 23  1  0
 23 24  1  0
 23 25  1  0
 22 26  2  0
 26  9  1  0
 15 10  1  0
 26 18  1  0
  1 27  1  0
  1 28  1  0
  1 29  1  0
  2 30  1  0
  2 31  1  0
  4 32  1  0
  4 33  1  0
  5 34  1  0
  5 35  1  0
  5 36  1  0
  6 37  1  0
  6 38  1  0
  7 39  1  0
  7 40  1  0
  8 41  1  0
 11 42  1  0
 12 43  1  0
 13 44  1  0
 14 45  1  0
 17 46  1  0
 17 47  1  0
 17 48  1  0
 19 49  1  0
 20 50  1  0
 21 51  1  0
 24 52  1  0
 24 53  1  0
 24 54  1  0
 25 55  1  0
 25 56  1  0
 25 57  1  0
M  CHG  1  16   1
M  END
>  <UniqueID>  (30) 
29

>  <SMILES>  (30) 
CCN(CC)CCNc1c2ccccc2[n+](C)c2cccc(N(C)C)c12

>  <Energy>  (30) 
90.1478078883696

>  <Genealogy>  (30) 
CCN(CC)CCNc1c2ccccc2[n+](C)c2cccc(N(C)C)c12 (3D coordinates assigned)
CCN(CC)CCNc1c2ccccc2[n+](C)c2cccc(N(C)C)c12 (optimized conformer: 90.1478078883696 kcal/mol)

>  <smiles>  (30) 
CCN(CC)CCNc1c2ccccc2[n+](C)c2cccc(N(C)C)c12

>  <score_type>  (30) 
oracle

>  <origin>  (30) 
adg

>  <m_score__min__energy>  (30) 
-5.7199999999999998

>  <m_primary>  (30) 
energy

$$$$
30:0
     RDKit          3D

 51 53  0  0  0  0  0  0  0  0999 V2000
   62.9440   32.1580   48.0040 C   0  0  0  0  0  0  0  0  0  0  0  0
   62.3120   32.9390   46.9260 N   0  0  0  0  0  0  0  0  0  0  0  0
   63.2900   33.8960   46.3820 C   0  0  0  0  0  0  0  0  0  0  0  0
   61.1190   33.6620   47.4180 C   0  0  0  0  0  0  0  0  0  0  0  0
   60.4550   34.5190   46.3250 C   0  0  0  0  0  0  0  0  0  0  0  0
   58.9430   34.7550   46.5140 C   0  0  0  0  0  0  0  0  0  0  0  0
   58.0720   34.2540   45.3460 C   0  0  0  0  0  0  0  0  0  0  0  0
   58.1050   32.7550   45.1800 C   0  0  0  0  0  0  0  0  0  0  0  0
   58.4360   31.9280   46.2650 C   0  0  0  0  0  0  0  0  0  0  0  0
   58.4600   30.5390   46.1160 C   0  0  0  0  0  0  0  0  0  0  0  0
   58.1380   29.9470   44.8820 C   0  0  0  0  0  0  0  0  0  0  0  0
   58.1790   28.4730   44.7100 C   0  0  0  0  0  0  0  0  0  0  0  0
   58.0830   27.8300   43.5190 N   0  0  0  0  0  0  0  0  0  0  0  0
   58.1460   26.5030   43.6100 N   0  0  0  0  0  0  0  0  0  0  0  0
   58.2900   26.0690   44.8800 C   0  0  0  0  0  0  0  0  0  0  0  0
   58.4190   24.3440   45.3320 S   0  0  0  0  0  0  0  0  0  0  0  0
   56.6510   24.0760   45.1500 C   0  0  0  0  0  0  0  0  0  0  0  0
   55.8650   24.0120   46.3090 C   0  0  0  0  0  0  0  0  0  0  0  0
   54.4870   23.7980   46.2160 C   0  0  0  0  0  0  0  0  0  0  0  0
   53.8850   23.6520   44.9670 C   0  0  0  0  0  0  0  0  0  0  0  0
   54.6590   23.7180   43.8040 C   0  0  0  0  0  0  0  0  0  0  0  0
   56.0440   23.9320   43.8830 C   0  0  0  0  0  0  0  0  0  0  0  0
   56.8110   23.9950   42.6730 N   0  0  0  0  0  0  0  0  0  0  0  0
   58.3510   27.3530   45.9640 S   0  0  0  0  0  0  0  0  0  0  0  0
   57.7890   30.7770   43.8030 C   0  0  0  0  0  0  0  0  0  0  0  0
   57.7640   32.1660   43.9530 C   0  0  0  0  0  0  0  0  0  0  0  0
   62.6240   32.5534   48.9793 H   0  0  0  0  0  0  0  0  0  0  0  0
   62.6417   31.1038   47.9187 H   0  0  0  0  0  0  0  0  0  0  0  0
   64.0381   32.2338   47.9187 H   0  0  0  0  0  0  0  0  0  0  0  0
   63.8074   34.4023   47.2103 H   0  0  0  0  0  0  0  0  0  0  0  0
   64.0248   33.3584   45.7647 H   0  0  0  0  0  0  0  0  0  0  0  0
   62.7685   34.6423   45.7647 H   0  0  0  0  0  0  0  0  0  0  0  0
   60.3867   32.9267   47.7828 H   0  0  0  0  0  0  0  0  0  0  0  0
   61.4468   34.3396   48.2201 H   0  0  0  0  0  0  0  0  0  0  0  0
   60.9544   35.4990   46.3088 H   0  0  0  0  0  0  0  0  0  0  0  0
   60.5646   33.9588   45.3847 H   0  0  0  0  0  0  0  0  0  0  0  0
   58.6248   34.2341   47.4291 H   0  0  0  0  0  0  0  0  0  0  0  0
   58.7988   35.8441   46.5698 H   0  0  0  0  0  0  0  0  0  0  0  0
   57.0320   34.5627   45.5280 H   0  0  0  0  0  0  0  0  0  0  0  0
   58.4783   34.6939   44.4233 H   0  0  0  0  0  0  0  0  0  0  0  0
   58.6782   32.3768   47.2396 H   0  0  0  0  0  0  0  0  0  0  0  0
   58.7331   29.9033   46.9712 H   0  0  0  0  0  0  0  0  0  0  0  0
   57.9940   28.3060   42.5960 H   0  0  0  0  0  0  0  0  0  0  0  0
   56.3351   24.1308   47.2964 H   0  0  0  0  0  0  0  0  0  0  0  0
   53.8766   23.7447   47.1295 H   0  0  0  0  0  0  0  0  0  0  0  0
   52.8001   23.4847   44.8962 H   0  0  0  0  0  0  0  0  0  0  0  0
   54.1793   23.6015   42.8210 H   0  0  0  0  0  0  0  0  0  0  0  0
   56.6440   23.3430   41.8760 H   0  0  0  0  0  0  0  0  0  0  0  0
   57.5650   24.7070   42.5600 H   0  0  0  0  0  0  0  0  0  0  0  0
   57.5332   30.3291   42.8314 H   0  0  0  0  0  0  0  0  0  0  0  0
   57.4750   32.8021   43.1033 H   0  0  0  0  0  0  0  0  0  0  0  0
  1  2  1  0
  2  3  1  0
  2  4  1  0
  4  5  1  0
  5  6  1  0
  6  7  1  0
  7  8  1  0
  8  9  2  0
  9 10  1  0
 10 11  2  0
 11 12  1  0
 12 13  2  0
 13 14  1  0
 14 15  2  0
 15 16  1  0
 16 17  1  0
 17 18  2  0
 18 19  1  0
 19 20  2  0
 20 21  1  0
 21 22  2  0
 22 23  1  0
 15 24  1  0
 11 25  1  0
 25 26  2  0
 26  8  1  0
 24 12  1  0
 22 17  1  0
  1 27  1  0
  1 28  1  0
  1 29  1  0
  3 30  1  0
  3 31  1  0
  3 32  1  0
  4 33  1  0
  4 34  1  0
  5 35  1  0
  5 36  1  0
  6 37  1  0
  6 38  1  0
  7 39  1  0
  7 40  1  0
  9 41  1  0
 10 42  1  0
 13 43  1  0
 18 44  1  0
 19 45  1  0
 20 46  1  0
 21 47  1  0
 23 48  1  0
 23 49  1  0
 25 50  1  0
 26 51  1  0
M  CHG  1  13   1
M  END
>  <UniqueID>  (31) 
30

>  <SMILES>  (31) 
CN(C)CCCCc1ccc(-c2[nH+]nc(Sc3ccccc3N)s2)cc1

>  <Energy>  (31) 
79.94803763857693

>  <Genealogy>  (31) 
CN(C)CCCCc1ccc(-c2[nH+]nc(Sc3ccccc3N)s2)cc1 (protonated)
CN(C)CCCCc1ccc(-c2[nH+]nc(Sc3ccccc3N)s2)cc1 (3D coordinates assigned)
CN(C)CCCCc1ccc(-c2[nH+]nc(Sc3ccccc3N)s2)cc1 (optimized conformer: 79.94803763857693 kcal/mol)

>  <smiles>  (31) 
CN(C)CCCCc1ccc(-c2nnc(Sc3ccccc3N)s2)cc1

>  <score_type>  (31) 
oracle

>  <origin>  (31) 
adg

>  <m_score__min__energy>  (31) 
-7.2999999999999998

>  <m_primary>  (31) 
energy

$$$$
31:0
     RDKit          3D

 30 31  0  0  1  0  0  0  0  0999 V2000
   57.9600   27.9480   44.5590 C   0  0  0  0  0  0  0  0  0  0  0  0
   56.6240   28.3190   45.1680 C   0  0  0  0  0  0  0  0  0  0  0  0
   55.9950   29.4050   44.4660 N   0  0  0  0  0  0  0  0  0  0  0  0
   56.6280   30.4800   44.1330 C   0  0  0  0  0  0  0  0  0  0  0  0
   56.7110   30.7930   42.7900 C   0  0  0  0  0  0  0  0  0  0  0  0
   57.3950   31.9510   42.4700 C   0  0  0  0  0  0  0  0  0  0  0  0
   57.5160   32.3390   41.0330 C   0  0  0  0  0  0  0  0  0  0  0  0
   57.9330   32.6950   43.4540 N   0  0  0  0  0  0  0  0  0  0  0  0
   57.8450   32.3760   44.7700 C   0  0  0  0  0  0  0  0  0  0  0  0
   58.4700   33.2660   45.7250 C   0  0  0  0  0  0  0  0  0  0  0  0
   59.0620   34.4490   45.3550 C   0  0  0  0  0  0  0  0  0  0  0  0
   59.6640   35.3070   46.2820 C   0  0  0  0  0  0  0  0  0  0  0  0
   59.6750   34.9680   47.6380 C   0  0  0  0  0  0  0  0  0  0  0  0
   59.0700   33.7770   47.9620 C   0  0  0  0  0  0  0  0  0  0  0  0
   58.5050   32.9800   47.0600 N   0  0  0  0  0  0  0  0  0  0  0  0
   57.1850   31.2610   45.0760 N   0  0  0  0  0  0  0  0  0  0  0  0
   58.6853   27.7466   45.3611 H   0  0  0  0  0  0  0  0  0  0  0  0
   57.8422   27.0486   43.9368 H   0  0  0  0  0  0  0  0  0  0  0  0
   58.3229   28.7794   43.9368 H   0  0  0  0  0  0  0  0  0  0  0  0
   55.9614   27.4417   45.1320 H   0  0  0  0  0  0  0  0  0  0  0  0
   56.8010   28.6417   46.2046 H   0  0  0  0  0  0  0  0  0  0  0  0
   56.2573   30.1553   42.0170 H   0  0  0  0  0  0  0  0  0  0  0  0
   57.8428   33.3870   40.9624 H   0  0  0  0  0  0  0  0  0  0  0  0
   58.2546   31.6905   40.5390 H   0  0  0  0  0  0  0  0  0  0  0  0
   56.5397   32.2253   40.5390 H   0  0  0  0  0  0  0  0  0  0  0  0
   59.0628   34.7319   44.2920 H   0  0  0  0  0  0  0  0  0  0  0  0
   60.1274   36.2458   45.9445 H   0  0  0  0  0  0  0  0  0  0  0  0
   60.1387   35.6138   48.3982 H   0  0  0  0  0  0  0  0  0  0  0  0
   59.0524   33.4686   49.0177 H   0  0  0  0  0  0  0  0  0  0  0  0
   57.1000   30.9880   46.0770 H   0  0  0  0  0  0  0  0  0  0  0  0
  1  2  1  0
  2  3  1  0
  3  4  2  0
  4  5  1  0
  5  6  2  0
  6  7  1  0
  6  8  1  0
  8  9  2  0
  9 10  1  0
 10 11  2  0
 11 12  1  0
 12 13  2  0
 13 14  1  0
 14 15  2  0
  9 16  1  0
 16  4  1  0
 15 10  1  0
  1 17  1  0
  1 18  1  0
  1 19  1  0
  2 20  1  0
  2 21  1  0
  5 22  1  0
  7 23  1  0
  7 24  1  0
  7 25  1  0
 11 26  1  0
 12 27  1  0
 13 28  1  0
 14 29  1  0
 16 30  1  0
M  END
>  <smiles>  (32) 
CCN=c1cc(C)nc(-c2ccccn2)[nH]1

>  <score_type>  (32) 
oracle

>  <origin>  (32) 
adg

>  <m_score__min__energy>  (32) 
-6.2000000000000002

>  <m_primary>  (32) 
energy

$$$$
32:0
     RDKit          3D

 50 52  0  0  0  0  0  0  0  0999 V2000
   56.4530   31.5800   52.1390 C   0  0  0  0  0  0  0  0  0  0  0  0
   57.8570   31.8200   52.6830 C   0  0  0  0  0  0  0  0  0  0  0  0
   58.8340   31.8860   51.5890 N   0  0  0  0  0  0  0  0  0  0  0  0
   59.6190   30.6900   51.2390 C   0  0  0  0  0  0  0  0  0  0  0  0
   58.9020   29.8570   50.1780 C   0  0  0  0  0  0  0  0  0  0  0  0
   59.0880   33.1450   50.9380 C   0  0  0  0  0  0  0  0  0  0  0  0
   59.0380   34.2150   51.6010 O   0  0  0  0  0  0  0  0  0  0  0  0
   59.4470   33.2110   49.5120 C   0  0  0  0  0  0  0  0  0  0  0  0
   58.6750   32.7180   48.5270 N   0  0  0  0  0  0  0  0  0  0  0  0
   59.3450   32.9640   47.3830 C   0  0  0  0  0  0  0  0  0  0  0  0
   58.8070   32.6080   46.0540 C   0  0  0  0  0  0  0  0  0  0  0  0
   58.8260   33.5360   45.0040 C   0  0  0  0  0  0  0  0  0  0  0  0
   58.2880   33.2050   43.7590 C   0  0  0  0  0  0  0  0  0  0  0  0
   57.7100   31.9430   43.5460 C   0  0  0  0  0  0  0  0  0  0  0  0
   57.1320   31.6010   42.2000 C   0  0  0  0  0  0  0  0  0  0  0  0
   57.6680   31.0180   44.6070 C   0  0  0  0  0  0  0  0  0  0  0  0
   56.9410   29.4260   44.4110 Cl  0  0  0  0  0  0  0  0  0  0  0  0
   58.2080   31.3560   45.8530 C   0  0  0  0  0  0  0  0  0  0  0  0
   60.5350   33.5720   47.6140 N   0  0  0  0  0  0  0  0  0  0  0  0
   60.6040   33.7350   48.9560 C   0  0  0  0  0  0  0  0  0  0  0  0
   61.8220   34.2220   49.7140 C   0  0  0  0  0  0  0  0  0  0  0  0
   63.1050   33.4270   49.4100 C   0  0  0  0  0  0  0  0  0  0  0  0
   63.6230   33.7540   48.1320 O   0  0  0  0  0  0  0  0  0  0  0  0
   62.9090   33.0880   47.1020 C   0  0  0  0  0  0  0  0  0  0  0  0
   61.6260   33.8230   46.6670 C   0  0  0  0  0  0  0  0  0  0  0  0
   55.7506   31.4599   52.9770 H   0  0  0  0  0  0  0  0  0  0  0  0
   56.1464   32.4388   51.5238 H   0  0  0  0  0  0  0  0  0  0  0  0
   56.4491   30.6682   51.5238 H   0  0  0  0  0  0  0  0  0  0  0  0
   57.8717   32.7697   53.2378 H   0  0  0  0  0  0  0  0  0  0  0  0
   58.1260   30.9854   53.3471 H   0  0  0  0  0  0  0  0  0  0  0  0
   60.5985   31.0038   50.8489 H   0  0  0  0  0  0  0  0  0  0  0  0
   59.7436   30.0753   52.1426 H   0  0  0  0  0  0  0  0  0  0  0  0
   58.2600   29.1111   50.6695 H   0  0  0  0  0  0  0  0  0  0  0  0
   58.2841   30.5159   49.5503 H   0  0  0  0  0  0  0  0  0  0  0  0
   59.6456   29.3441   49.5503 H   0  0  0  0  0  0  0  0  0  0  0  0
   57.7380   32.2670   48.6280 H   0  0  0  0  0  0  0  0  0  0  0  0
   59.2674   34.5311   45.1618 H   0  0  0  0  0  0  0  0  0  0  0  0
   58.3170   33.9378   42.9392 H   0  0  0  0  0  0  0  0  0  0  0  0
   56.1925   31.0451   42.3349 H   0  0  0  0  0  0  0  0  0  0  0  0
   56.9331   32.5269   41.6404 H   0  0  0  0  0  0  0  0  0  0  0  0
   57.8478   30.9809   41.6404 H   0  0  0  0  0  0  0  0  0  0  0  0
   58.1623   30.6338   46.6815 H   0  0  0  0  0  0  0  0  0  0  0  0
   61.9964   35.2754   49.4493 H   0  0  0  0  0  0  0  0  0  0  0  0
   61.6077   34.0854   50.7842 H   0  0  0  0  0  0  0  0  0  0  0  0
   63.8611   33.6614   50.1738 H   0  0  0  0  0  0  0  0  0  0  0  0
   62.8598   32.3547   49.4212 H   0  0  0  0  0  0  0  0  0  0  0  0
   63.5688   32.9924   46.2271 H   0  0  0  0  0  0  0  0  0  0  0  0
   62.6013   32.1107   47.5023 H   0  0  0  0  0  0  0  0  0  0  0  0
   61.8261   34.9039   46.6257 H   0  0  0  0  0  0  0  0  0  0  0  0
   61.3254   33.4509   45.6765 H   0  0  0  0  0  0  0  0  0  0  0  0
  1  2  1  0
  2  3  1  0
  3  4  1  0
  4  5  1  0
  3  6  1  0
  6  7  2  0
  6  8  1  0
  8  9  1  0
  9 10  2  0
 10 11  1  0
 11 12  2  0
 12 13  1  0
 13 14  2  0
 14 15  1  0
 14 16  1  0
 16 17  1  0
 16 18  2  0
 10 19  1  0
 19 20  1  0
 20 21  1  0
 21 22  1  0
 22 23  1  0
 23 24  1  0
 24 25  1  0
 20  8  2  0
 18 11  1  0
 25 19  1  0
  1 26  1  0
  1 27  1  0
  1 28  1  0
  2 29  1  0
  2 30  1  0
  4 31  1  0
  4 32  1  0
  5 33  1  0
  5 34  1  0
  5 35  1  0
  9 36  1  0
 12 37  1  0
 13 38  1  0
 15 39  1  0
 15 40  1  0
 15 41  1  0
 18 42  1  0
 21 43  1  0
 21 44  1  0
 22 45  1  0
 22 46  1  0
 24 47  1  0
 24 48  1  0
 25 49  1  0
 25 50  1  0
M  CHG  1   9   1
M  END
>  <UniqueID>  (33) 
31

>  <SMILES>  (33) 
CCN(CC)C(=O)c1[nH+]c(-c2ccc(C)c(Cl)c2)n2c1CCOCC2

>  <Energy>  (33) 
94.52064088144085

>  <Genealogy>  (33) 
CCN(CC)C(=O)c1[nH+]c(-c2ccc(C)c(Cl)c2)n2c1CCOCC2 (protonated)
CCN(CC)C(=O)c1[nH+]c(-c2ccc(C)c(Cl)c2)n2c1CCOCC2 (3D coordinates assigned)
CCN(CC)C(=O)c1[nH+]c(-c2ccc(C)c(Cl)c2)n2c1CCOCC2 (nonaromatic ring conformer: 94.52064088144085 kcal/mol)

>  <smiles>  (33) 
CCN(CC)C(=O)c1nc(-c2ccc(C)c(Cl)c2)n2c1CCOCC2

>  <score_type>  (33) 
oracle

>  <origin>  (33) 
adg

>  <m_score__min__energy>  (33) 
-4.5

>  <m_primary>  (33) 
energy

$$$$
33:0
     RDKit          3D

 53 55  0  0  0  0  0  0  0  0999 V2000
   57.0320   31.2150   42.4500 C   0  0  0  0  0  0  0  0  0  0  0  0
   56.2620   30.3980   43.4820 C   0  0  0  0  0  0  0  0  0  0  0  0
   56.4590   30.9300   44.7900 O   0  0  0  0  0  0  0  0  0  0  0  0
   57.6530   31.4940   45.2760 C   0  0  0  0  0  0  0  0  0  0  0  0
   58.0300   32.8180   44.9810 C   0  0  0  0  0  0  0  0  0  0  0  0
   59.1960   33.3590   45.5260 C   0  0  0  0  0  0  0  0  0  0  0  0
   59.9960   32.5930   46.3730 C   0  0  0  0  0  0  0  0  0  0  0  0
   61.4620   33.2740   47.0540 Cl  0  0  0  0  0  0  0  0  0  0  0  0
   59.6400   31.2740   46.6620 C   0  0  0  0  0  0  0  0  0  0  0  0
   58.4850   30.7140   46.0990 C   0  0  0  0  0  0  0  0  0  0  0  0
   58.1720   29.2960   46.3620 C   0  0  0  0  0  0  0  0  0  0  0  0
   57.1820   28.5670   45.7370 C   0  0  0  0  0  0  0  0  0  0  0  0
   57.2210   27.3320   46.3660 C   0  0  0  0  0  0  0  0  0  0  0  0
   56.3920   26.1510   46.0610 C   0  0  0  0  0  0  0  0  0  0  0  0
   55.1440   26.3080   45.9560 O   0  0  0  0  0  0  0  0  0  0  0  0
   56.9520   24.8340   45.8970 N   0  0  0  0  0  0  0  0  0  0  0  0
   58.2610   24.6310   45.2610 C   0  0  0  0  0  0  0  0  0  0  0  0
   58.1410   23.5800   44.1520 C   0  0  0  0  0  0  0  0  0  0  0  0
   57.4920   22.2470   44.6350 C   0  0  0  0  0  0  0  0  0  0  0  0
   56.4420   21.7600   43.6090 C   0  0  0  0  0  0  0  0  0  0  0  0
   56.2320   20.3720   43.7320 O   0  0  0  0  0  0  0  0  0  0  0  0
   56.8920   22.3540   46.0590 C   0  0  0  0  0  0  0  0  0  0  0  0
   56.1320   23.6730   46.2650 C   0  0  0  0  0  0  0  0  0  0  0  0
   58.1840   27.3310   47.3130 N   0  0  0  0  0  0  0  0  0  0  0  0
   58.7580   28.5240   47.3050 N   0  0  0  0  0  0  0  0  0  0  0  0
   59.7500   28.9290   48.3030 C   0  0  0  0  0  0  0  0  0  0  0  0
   59.0670   29.6010   49.4880 C   0  0  0  0  0  0  0  0  0  0  0  0
   57.6985   31.9222   42.9654 H   0  0  0  0  0  0  0  0  0  0  0  0
   57.6301   30.5401   41.8201 H   0  0  0  0  0  0  0  0  0  0  0  0
   56.3229   31.7721   41.8201 H   0  0  0  0  0  0  0  0  0  0  0  0
   55.1897   30.4253   43.2381 H   0  0  0  0  0  0  0  0  0  0  0  0
   56.6301   29.3616   43.4610 H   0  0  0  0  0  0  0  0  0  0  0  0
   57.4020   33.4301   44.3170 H   0  0  0  0  0  0  0  0  0  0  0  0
   59.4845   34.3931   45.2864 H   0  0  0  0  0  0  0  0  0  0  0  0
   60.2687   30.6719   47.3344 H   0  0  0  0  0  0  0  0  0  0  0  0
   56.5142   28.8912   44.9252 H   0  0  0  0  0  0  0  0  0  0  0  0
   58.6081   25.5808   44.8282 H   0  0  0  0  0  0  0  0  0  0  0  0
   58.9817   24.2827   46.0155 H   0  0  0  0  0  0  0  0  0  0  0  0
   57.5237   23.9957   43.3420 H   0  0  0  0  0  0  0  0  0  0  0  0
   59.1610   23.3431   43.8151 H   0  0  0  0  0  0  0  0  0  0  0  0
   58.2932   21.4962   44.7013 H   0  0  0  0  0  0  0  0  0  0  0  0
   55.4924   22.2860   43.7867 H   0  0  0  0  0  0  0  0  0  0  0  0
   56.8125   21.9732   42.5954 H   0  0  0  0  0  0  0  0  0  0  0  0
   57.1330   19.9520   43.7440 H   0  0  0  0  0  0  0  0  0  0  0  0
   56.1974   21.5156   46.2157 H   0  0  0  0  0  0  0  0  0  0  0  0
   57.7216   22.3233   46.7807 H   0  0  0  0  0  0  0  0  0  0  0  0
   55.2261   23.6639   45.6411 H   0  0  0  0  0  0  0  0  0  0  0  0
   55.8748   23.7583   47.3311 H   0  0  0  0  0  0  0  0  0  0  0  0
   60.2943   28.0401   48.6546 H   0  0  0  0  0  0  0  0  0  0  0  0
   60.4492   29.6424   47.8423 H   0  0  0  0  0  0  0  0  0  0  0  0
   59.4775   29.1971   50.4252 H   0  0  0  0  0  0  0  0  0  0  0  0
   59.2451   30.6857   49.4471 H   0  0  0  0  0  0  0  0  0  0  0  0
   57.9853   29.4053   49.4471 H   0  0  0  0  0  0  0  0  0  0  0  0
  1  2  1  0
  2  3  1  0
  3  4  1  0
  4  5  2  0
  5  6  1  0
  6  7  2  0
  7  8  1  0
  7  9  1  0
  9 10  2  0
 10 11  1  0
 11 12  2  0
 12 13  1  0
 13 14  1  0
 14 15  2  0
 14 16  1  0
 16 17  1  0
 17 18  1  0
 18 19  1  0
 19 20  1  0
 20 21  1  0
 19 22  1  0
 22 23  1  0
 13 24  2  0
 24 25  1  0
 25 26  1  0
 26 27  1  0
 10  4  1  0
 25 11  1  0
 23 16  1  0
  1 28  1  0
  1 29  1  0
  1 30  1  0
  2 31  1  0
  2 32  1  0
  5 33  1  0
  6 34  1  0
  9 35  1  0
 12 36  1  0
 17 37  1  0
 17 38  1  0
 18 39  1  0
 18 40  1  0
 19 41  1  0
 20 42  1  0
 20 43  1  0
 21 44  1  0
 22 45  1  0
 22 46  1  0
 23 47  1  0
 23 48  1  0
 26 49  1  0
 26 50  1  0
 27 51  1  0
 27 52  1  0
 27 53  1  0
M  END
>  <UniqueID>  (34) 
32

>  <SMILES>  (34) 
CCOc1ccc(Cl)cc1-c1cc(C(=O)N2CCC(CO)CC2)nn1CC

>  <Energy>  (34) 
88.18697829851874

>  <Genealogy>  (34) 
CCOc1ccc(Cl)cc1-c1cc(C(=O)N2CCC(CO)CC2)nn1CC (3D coordinates assigned)
CCOc1ccc(Cl)cc1-c1cc(C(=O)N2CCC(CO)CC2)nn1CC (nonaromatic ring conformer: 88.18697829851874 kcal/mol)

>  <smiles>  (34) 
CCOc1ccc(Cl)cc1-c1cc(C(=O)N2CCC(CO)CC2)nn1CC

>  <score_type>  (34) 
oracle

>  <origin>  (34) 
adg

>  <m_score__min__energy>  (34) 
-8.7599999999999998

>  <m_primary>  (34) 
energy

$$$$
34:0
     RDKit          3D

 41 42  0  0  0  0  0  0  0  0999 V2000
   63.7410   31.6310   49.8230 C   0  0  0  0  0  0  0  0  0  0  0  0
   64.2740   32.8410   49.0580 C   0  0  0  0  0  0  0  0  0  0  0  0
   64.1280   32.6490   47.6080 N   0  0  0  0  0  0  0  0  0  0  0  0
   62.8620   33.2310   47.1330 C   0  0  0  0  0  0  0  0  0  0  0  0
   62.1710   34.0670   48.2300 C   0  0  0  0  0  0  0  0  0  0  0  0
   60.7100   33.8810   48.2190 N   0  0  0  0  0  0  0  0  0  0  0  0
   59.9110   34.5560   47.1780 C   0  0  0  0  0  0  0  0  0  0  0  0
   59.0830   33.5640   46.3980 C   0  0  0  0  0  0  0  0  0  0  0  0
   57.7960   33.9070   45.9510 C   0  0  0  0  0  0  0  0  0  0  0  0
   57.0230   32.9810   45.2440 C   0  0  0  0  0  0  0  0  0  0  0  0
   57.5310   31.7070   44.9710 C   0  0  0  0  0  0  0  0  0  0  0  0
   56.4730   30.4430   44.0070 Br  0  0  0  0  0  0  0  0  0  0  0  0
   58.8150   31.3620   45.4030 C   0  0  0  0  0  0  0  0  0  0  0  0
   59.5890   32.2850   46.1120 C   0  0  0  0  0  0  0  0  0  0  0  0
   60.0650   33.1680   49.3050 C   0  0  0  0  0  0  0  0  0  0  0  0
   59.6370   33.8400   50.4640 C   0  0  0  0  0  0  0  0  0  0  0  0
   59.0020   33.1410   51.4910 C   0  0  0  0  0  0  0  0  0  0  0  0
   58.8030   31.7670   51.3630 C   0  0  0  0  0  0  0  0  0  0  0  0
   59.2300   31.1210   50.2480 N   0  0  0  0  0  0  0  0  0  0  0  0
   59.8510   31.7780   49.2310 C   0  0  0  0  0  0  0  0  0  0  0  0
   63.8224   31.8159   50.9043 H   0  0  0  0  0  0  0  0  0  0  0  0
   62.6864   31.4650   49.5578 H   0  0  0  0  0  0  0  0  0  0  0  0
   64.3303   30.7408   49.5578 H   0  0  0  0  0  0  0  0  0  0  0  0
   63.7110   33.7359   49.3616 H   0  0  0  0  0  0  0  0  0  0  0  0
   65.3421   32.9625   49.2913 H   0  0  0  0  0  0  0  0  0  0  0  0
   64.9260   33.1170   47.1160 H   0  0  0  0  0  0  0  0  0  0  0  0
   64.1460   31.6250   47.3980 H   0  0  0  0  0  0  0  0  0  0  0  0
   63.0697   33.8790   46.2687 H   0  0  0  0  0  0  0  0  0  0  0  0
   62.1887   32.4067   46.8550 H   0  0  0  0  0  0  0  0  0  0  0  0
   62.5619   33.7599   49.2113 H   0  0  0  0  0  0  0  0  0  0  0  0
   62.3825   35.1288   48.0356 H   0  0  0  0  0  0  0  0  0  0  0  0
   59.2408   35.2854   47.6564 H   0  0  0  0  0  0  0  0  0  0  0  0
   60.5985   35.0597   46.4825 H   0  0  0  0  0  0  0  0  0  0  0  0
   57.3942   34.9098   46.1584 H   0  0  0  0  0  0  0  0  0  0  0  0
   56.0140   33.2549   44.9021 H   0  0  0  0  0  0  0  0  0  0  0  0
   59.2172   30.3618   45.1844 H   0  0  0  0  0  0  0  0  0  0  0  0
   60.5994   32.0086   46.4477 H   0  0  0  0  0  0  0  0  0  0  0  0
   59.8039   34.9229   50.5613 H   0  0  0  0  0  0  0  0  0  0  0  0
   58.6614   33.6693   52.3937 H   0  0  0  0  0  0  0  0  0  0  0  0
   58.3003   31.2067   52.1651 H   0  0  0  0  0  0  0  0  0  0  0  0
   60.1881   31.2197   48.3452 H   0  0  0  0  0  0  0  0  0  0  0  0
  1  2  1  0
  2  3  1  0
  3  4  1  0
  4  5  1  0
  5  6  1  0
  6  7  1  0
  7  8  1  0
  8  9  2  0
  9 10  1  0
 10 11  2  0
 11 12  1  0
 11 13  1  0
 13 14  2  0
  6 15  1  0
 15 16  2  0
 16 17  1  0
 17 18  2  0
 18 19  1  0
 19 20  2  0
 14  8  1  0
 20 15  1  0
  1 21  1  0
  1 22  1  0
  1 23  1  0
  2 24  1  0
  2 25  1  0
  3 26  1  0
  3 27  1  0
  4 28  1  0
  4 29  1  0
  5 30  1  0
  5 31  1  0
  7 32  1  0
  7 33  1  0
  9 34  1  0
 10 35  1  0
 13 36  1  0
 14 37  1  0
 16 38  1  0
 17 39  1  0
 18 40  1  0
 20 41  1  0
M  CHG  1   3   1
M  END
>  <UniqueID>  (35) 
33

>  <SMILES>  (35) 
CC[NH2+]CCN(Cc1ccc(Br)cc1)c1cccnc1

>  <Energy>  (35) 
39.897203067234294

>  <Genealogy>  (35) 
CC[NH2+]CCN(Cc1ccc(Br)cc1)c1cccnc1 (protonated)
CC[NH2+]CCN(Cc1ccc(Br)cc1)c1cccnc1 (3D coordinates assigned)
CC[NH2+]CCN(Cc1ccc(Br)cc1)c1cccnc1 (optimized conformer: 39.897203067234294 kcal/mol)

>  <smiles>  (35) 
CCNCCN(Cc1ccc(Br)cc1)c1cccnc1

>  <score_type>  (35) 
oracle

>  <origin>  (35) 
adg

>  <m_score__min__energy>  (35) 
-5.3899999999999997

>  <m_primary>  (35) 
energy

$$$$
35:0
     RDKit          3D

 56 59  0  0  0  0  0  0  0  0999 V2000
   56.8630   30.1470   43.5850 C   0  0  0  0  0  0  0  0  0  0  0  0
   58.0130   29.4190   44.0020 O   0  0  0  0  0  0  0  0  0  0  0  0
   58.5670   29.4770   45.2910 C   0  0  0  0  0  0  0  0  0  0  0  0
   59.6900   30.2700   45.5850 C   0  0  0  0  0  0  0  0  0  0  0  0
   60.2460   30.2710   46.8720 C   0  0  0  0  0  0  0  0  0  0  0  0
   61.3700   30.9860   47.1330 N   0  0  0  0  0  0  0  0  0  0  0  0
   62.0130   30.9010   48.3320 C   0  0  0  0  0  0  0  0  0  0  0  0
   63.3610   31.6070   48.4680 C   0  0  0  0  0  0  0  0  0  0  0  0
   63.2730   33.0870   48.5460 N   0  0  0  0  0  0  0  0  0  0  0  0
   63.4360   33.8500   47.3040 C   0  0  0  0  0  0  0  0  0  0  0  0
   62.1640   33.8420   46.4540 C   0  0  0  0  0  0  0  0  0  0  0  0
   60.9280   33.8560   47.2590 N   0  0  0  0  0  0  0  0  0  0  0  0
   59.6370   33.8030   46.5830 C   0  0  0  0  0  0  0  0  0  0  0  0
   59.4900   34.2310   45.2430 C   0  0  0  0  0  0  0  0  0  0  0  0
   58.2640   34.1140   44.5820 C   0  0  0  0  0  0  0  0  0  0  0  0
   57.1590   33.5810   45.2430 C   0  0  0  0  0  0  0  0  0  0  0  0
   57.2710   33.1770   46.5720 C   0  0  0  0  0  0  0  0  0  0  0  0
   58.4930   33.2920   47.2400 C   0  0  0  0  0  0  0  0  0  0  0  0
   60.9620   34.1140   48.7120 C   0  0  0  0  0  0  0  0  0  0  0  0
   62.2460   33.6470   49.4350 C   0  0  0  0  0  0  0  0  0  0  0  0
   61.4400   30.1900   49.3670 N   0  0  0  0  0  0  0  0  0  0  0  0
   62.0580   30.1840   50.7080 C   0  0  0  0  0  0  0  0  0  0  0  0
   60.2760   29.4880   49.1510 C   0  0  0  0  0  0  0  0  0  0  0  0
   59.7490   28.8190   50.0830 O   0  0  0  0  0  0  0  0  0  0  0  0
   59.6690   29.4920   47.8840 C   0  0  0  0  0  0  0  0  0  0  0  0
   58.5250   28.7230   47.6000 C   0  0  0  0  0  0  0  0  0  0  0  0
   57.9790   28.7050   46.3030 C   0  0  0  0  0  0  0  0  0  0  0  0
   56.8600   27.9220   45.9760 O   0  0  0  0  0  0  0  0  0  0  0  0
   56.9120   26.5390   45.6380 C   0  0  0  0  0  0  0  0  0  0  0  0
   56.3101   30.4970   44.4692 H   0  0  0  0  0  0  0  0  0  0  0  0
   57.1755   31.0121   42.9818 H   0  0  0  0  0  0  0  0  0  0  0  0
   56.2147   29.4944   42.9818 H   0  0  0  0  0  0  0  0  0  0  0  0
   60.1366   30.8955   44.7980 H   0  0  0  0  0  0  0  0  0  0  0  0
   61.7640   31.5940   46.3810 H   0  0  0  0  0  0  0  0  0  0  0  0
   63.8494   31.2426   49.3838 H   0  0  0  0  0  0  0  0  0  0  0  0
   63.9308   31.3740   47.5564 H   0  0  0  0  0  0  0  0  0  0  0  0
   63.6872   34.8906   47.5571 H   0  0  0  0  0  0  0  0  0  0  0  0
   64.2384   33.3775   46.7184 H   0  0  0  0  0  0  0  0  0  0  0  0
   62.1701   34.7316   45.8070 H   0  0  0  0  0  0  0  0  0  0  0  0
   62.1651   32.9084   45.8722 H   0  0  0  0  0  0  0  0  0  0  0  0
   60.3526   34.6620   44.7136 H   0  0  0  0  0  0  0  0  0  0  0  0
   58.1711   34.4437   43.5367 H   0  0  0  0  0  0  0  0  0  0  0  0
   56.1989   33.4792   44.7160 H   0  0  0  0  0  0  0  0  0  0  0  0
   56.3955   32.7666   47.0964 H   0  0  0  0  0  0  0  0  0  0  0  0
   58.5665   32.9805   48.2924 H   0  0  0  0  0  0  0  0  0  0  0  0
   60.8595   35.1981   48.8673 H   0  0  0  0  0  0  0  0  0  0  0  0
   60.1382   33.5275   49.1449 H   0  0  0  0  0  0  0  0  0  0  0  0
   62.6792   34.5113   49.9597 H   0  0  0  0  0  0  0  0  0  0  0  0
   61.9458   32.8379   50.1171 H   0  0  0  0  0  0  0  0  0  0  0  0
   61.2696   30.1917   51.4751 H   0  0  0  0  0  0  0  0  0  0  0  0
   62.6737   29.2798   50.8240 H   0  0  0  0  0  0  0  0  0  0  0  0
   62.6911   31.0760   50.8240 H   0  0  0  0  0  0  0  0  0  0  0  0
   58.0537   28.1311   48.3984 H   0  0  0  0  0  0  0  0  0  0  0  0
   56.9346   25.9372   46.5585 H   0  0  0  0  0  0  0  0  0  0  0  0
   56.0232   26.2722   45.0473 H   0  0  0  0  0  0  0  0  0  0  0  0
   57.8183   26.3397   45.0473 H   0  0  0  0  0  0  0  0  0  0  0  0
  1  2  1  0
  2  3  1  0
  3  4  2  0
  4  5  1  0
  5  6  1  0
  6  7  2  0
  7  8  1  0
  8  9  1  0
  9 10  1  0
 10 11  1  0
 11 12  1  0
 12 13  1  0
 13 14  2  0
 14 15  1  0
 15 16  2  0
 16 17  1  0
 17 18  2  0
 12 19  1  0
 19 20  1  0
  7 21  1  0
 21 22  1  0
 21 23  1  0
 23 24  2  0
 23 25  1  0
 25 26  1  0
 26 27  2  0
 27 28  1  0
 28 29  1  0
 27  3  1  0
 25  5  2  0
 20  9  1  0
 18 13  1  0
  1 30  1  0
  1 31  1  0
  1 32  1  0
  4 33  1  0
  6 34  1  0
  8 35  1  0
  8 36  1  0
 10 37  1  0
 10 38  1  0
 11 39  1  0
 11 40  1  0
 14 41  1  0
 15 42  1  0
 16 43  1  0
 17 44  1  0
 18 45  1  0
 19 46  1  0
 19 47  1  0
 20 48  1  0
 20 49  1  0
 22 50  1  0
 22 51  1  0
 22 52  1  0
 26 53  1  0
 29 54  1  0
 29 55  1  0
 29 56  1  0
M  CHG  1   6   1
M  END
>  <UniqueID>  (36) 
34

>  <SMILES>  (36) 
COc1cc2[nH+]c(CN3CCN(c4ccccc4)CC3)n(C)c(=O)c2cc1OC

>  <Energy>  (36) 
81.98431644725092

>  <Genealogy>  (36) 
COc1cc2[nH+]c(CN3CCN(c4ccccc4)CC3)n(C)c(=O)c2cc1OC (protonated)
COc1cc2[nH+]c(CN3CCN(c4ccccc4)CC3)n(C)c(=O)c2cc1OC (3D coordinates assigned)
COc1cc2[nH+]c(CN3CCN(c4ccccc4)CC3)n(C)c(=O)c2cc1OC (nonaromatic ring conformer: 81.98431644725092 kcal/mol)

>  <smiles>  (36) 
COc1cc2nc(CN3CCN(c4ccccc4)CC3)n(C)c(=O)c2cc1OC

>  <score_type>  (36) 
oracle

>  <origin>  (36) 
adg

>  <m_score__min__energy>  (36) 
-6.0300000000000002

>  <m_primary>  (36) 
energy

$$$$
36:0
     RDKit          3D

 40 40  0  0  0  0  0  0  0  0999 V2000
   54.9890   24.5840   45.6010 C   0  0  0  0  0  0  0  0  0  0  0  0
   56.4600   24.9460   45.3510 C   0  0  0  0  0  0  0  0  0  0  0  0
   56.8750   26.2390   45.9490 N   0  0  0  0  0  0  0  0  0  0  0  0
   57.7720   26.1080   47.1200 C   0  0  0  0  0  0  0  0  0  0  0  0
   59.2310   26.3570   46.7440 C   0  0  0  0  0  0  0  0  0  0  0  0
   57.4070   27.1900   44.9440 C   0  0  0  0  0  0  0  0  0  0  0  0
   56.9870   28.6170   45.2970 C   0  0  0  0  0  0  0  0  0  0  0  0
   55.6490   28.8470   44.8930 O   0  0  0  0  0  0  0  0  0  0  0  0
   55.5970   29.7700   43.8280 C   0  0  0  0  0  0  0  0  0  0  0  0
   56.8490   30.6460   43.8330 C   0  0  0  0  0  0  0  0  0  0  0  0
   56.9900   31.3320   45.0790 O   0  0  0  0  0  0  0  0  0  0  0  0
   58.1960   31.7840   45.6450 C   0  0  0  0  0  0  0  0  0  0  0  0
   59.1320   30.9110   46.2370 C   0  0  0  0  0  0  0  0  0  0  0  0
   60.3170   31.4120   46.7840 C   0  0  0  0  0  0  0  0  0  0  0  0
   60.5800   32.7830   46.7520 C   0  0  0  0  0  0  0  0  0  0  0  0
   62.2010   33.4640   47.5010 Br  0  0  0  0  0  0  0  0  0  0  0  0
   59.6560   33.6570   46.1760 C   0  0  0  0  0  0  0  0  0  0  0  0
   58.4670   33.1630   45.6260 C   0  0  0  0  0  0  0  0  0  0  0  0
   57.3250   34.2840   44.9040 Cl  0  0  0  0  0  0  0  0  0  0  0  0
   54.8017   24.5379   46.6840 H   0  0  0  0  0  0  0  0  0  0  0  0
   54.3411   25.3495   45.1491 H   0  0  0  0  0  0  0  0  0  0  0  0
   54.7703   23.6052   45.1491 H   0  0  0  0  0  0  0  0  0  0  0  0
   57.0889   24.1505   45.7772 H   0  0  0  0  0  0  0  0  0  0  0  0
   56.5818   25.0460   44.2623 H   0  0  0  0  0  0  0  0  0  0  0  0
   57.4706   26.8401   47.8837 H   0  0  0  0  0  0  0  0  0  0  0  0
   57.6872   25.0807   47.5039 H   0  0  0  0  0  0  0  0  0  0  0  0
   59.8330   26.4597   47.6589 H   0  0  0  0  0  0  0  0  0  0  0  0
   59.6066   25.5100   46.1511 H   0  0  0  0  0  0  0  0  0  0  0  0
   59.3044   27.2807   46.1511 H   0  0  0  0  0  0  0  0  0  0  0  0
   58.5051   27.1271   44.9291 H   0  0  0  0  0  0  0  0  0  0  0  0
   57.0038   26.9305   43.9540 H   0  0  0  0  0  0  0  0  0  0  0  0
   57.0681   28.7612   46.3845 H   0  0  0  0  0  0  0  0  0  0  0  0
   57.6467   29.3251   44.7741 H   0  0  0  0  0  0  0  0  0  0  0  0
   55.5387   29.2236   42.8751 H   0  0  0  0  0  0  0  0  0  0  0  0
   54.7094   30.4087   43.9472 H   0  0  0  0  0  0  0  0  0  0  0  0
   57.7326   30.0114   43.6699 H   0  0  0  0  0  0  0  0  0  0  0  0
   56.7571   31.3928   43.0306 H   0  0  0  0  0  0  0  0  0  0  0  0
   58.9287   29.8304   46.2685 H   0  0  0  0  0  0  0  0  0  0  0  0
   61.0441   30.7244   47.2408 H   0  0  0  0  0  0  0  0  0  0  0  0
   59.8628   34.7372   46.1542 H   0  0  0  0  0  0  0  0  0  0  0  0
  1  2  1  0
  2  3  1  0
  3  4  1  0
  4  5  1  0
  3  6  1  0
  6  7  1  0
  7  8  1  0
  8  9  1  0
  9 10  1  0
 10 11  1  0
 11 12  1  0
 12 13  2  0
 13 14  1  0
 14 15  2  0
 15 16  1  0
 15 17  1  0
 17 18  2  0
 18 19  1  0
 18 12  1  0
  1 20  1  0
  1 21  1  0
  1 22  1  0
  2 23  1  0
  2 24  1  0
  4 25  1  0
  4 26  1  0
  5 27  1  0
  5 28  1  0
  5 29  1  0
  6 30  1  0
  6 31  1  0
  7 32  1  0
  7 33  1  0
  9 34  1  0
  9 35  1  0
 10 36  1  0
 10 37  1  0
 13 38  1  0
 14 39  1  0
 17 40  1  0
M  END
>  <UniqueID>  (37) 
35

>  <SMILES>  (37) 
CCN(CC)CCOCCOc1ccc(Br)cc1Cl

>  <Energy>  (37) 
38.62400202676887

>  <Genealogy>  (37) 
CCN(CC)CCOCCOc1ccc(Br)cc1Cl (3D coordinates assigned)
CCN(CC)CCOCCOc1ccc(Br)cc1Cl (optimized conformer: 38.62400202676887 kcal/mol)

>  <smiles>  (37) 
CCN(CC)CCOCCOc1ccc(Br)cc1Cl

>  <score_type>  (37) 
oracle

>  <origin>  (37) 
adg

>  <m_score__min__energy>  (37) 
-6.2199999999999998

>  <m_primary>  (37) 
energy

$$$$
