0:0
     RDKit          3D

 46 48  0  0  0  0  0  0  0  0999 V2000
   60.4120   28.9890   45.0660 C   0  0  0  0  0  0  0  0  0  0  0  0
   59.5710   29.8810   45.9780 C   0  0  0  0  0  0  0  0  0  0  0  0
   58.3010   30.2680   45.3430 N   0  0  0  0  0  0  0  0  0  0  0  0
   57.3580   29.4670   44.7960 C   0  0  0  0  0  0  0  0  0  0  0  0
   57.4000   27.9950   44.7050 C   0  0  0  0  0  0  0  0  0  0  0  0
   57.7690   27.3590   43.5090 C   0  0  0  0  0  0  0  0  0  0  0  0
   57.8010   25.9620   43.4360 C   0  0  0  0  0  0  0  0  0  0  0  0
   57.4540   25.1930   44.5510 C   0  0  0  0  0  0  0  0  0  0  0  0
   57.4940   23.4410   44.4570 Cl  0  0  0  0  0  0  0  0  0  0  0  0
   57.0650   25.8220   45.7390 C   0  0  0  0  0  0  0  0  0  0  0  0
   57.0320   27.2170   45.8140 C   0  0  0  0  0  0  0  0  0  0  0  0
   56.3360   30.2560   44.3150 C   0  0  0  0  0  0  0  0  0  0  0  0
   56.6360   31.5520   44.5230 N   0  0  0  0  0  0  0  0  0  0  0  0
   57.8290   31.5240   45.1520 C   0  0  0  0  0  0  0  0  0  0  0  0
   58.6910   33.0260   45.6340 S   0  0  0  0  0  0  0  0  0  0  0  0
   58.5580   32.7380   47.4340 C   0  0  0  0  0  0  0  0  0  0  0  0
   59.9280   32.7780   48.1200 C   0  0  0  0  0  0  0  0  0  0  0  0
   61.0290   32.6260   47.1440 N   0  0  0  0  0  0  0  0  0  0  0  0
   62.0010   31.5930   47.5890 C   0  0  0  0  0  0  0  0  0  0  0  0
   63.2210   32.2090   48.2910 C   0  0  0  0  0  0  0  0  0  0  0  0
   63.9560   33.1420   47.4170 N   0  0  0  0  0  0  0  0  0  0  0  0
   63.1200   33.7580   46.3700 C   0  0  0  0  0  0  0  0  0  0  0  0
   61.6690   33.9310   46.8350 C   0  0  0  0  0  0  0  0  0  0  0  0
   61.0385   28.3246   45.6792 H   0  0  0  0  0  0  0  0  0  0  0  0
   59.7480   28.3840   44.4311 H   0  0  0  0  0  0  0  0  0  0  0  0
   61.0550   29.6163   44.4311 H   0  0  0  0  0  0  0  0  0  0  0  0
   59.3526   29.3348   46.9075 H   0  0  0  0  0  0  0  0  0  0  0  0
   60.1440   30.7972   46.1835 H   0  0  0  0  0  0  0  0  0  0  0  0
   58.0337   27.9605   42.6269 H   0  0  0  0  0  0  0  0  0  0  0  0
   58.0997   25.4679   42.4997 H   0  0  0  0  0  0  0  0  0  0  0  0
   56.7850   25.2178   46.6145 H   0  0  0  0  0  0  0  0  0  0  0  0
   56.7162   27.7078   46.7464 H   0  0  0  0  0  0  0  0  0  0  0  0
   55.4180   29.8849   43.8357 H   0  0  0  0  0  0  0  0  0  0  0  0
   57.9173   33.5171   47.8728 H   0  0  0  0  0  0  0  0  0  0  0  0
   58.1272   31.7378   47.5891 H   0  0  0  0  0  0  0  0  0  0  0  0
   60.0402   33.7420   48.6378 H   0  0  0  0  0  0  0  0  0  0  0  0
   59.9812   31.9416   48.8324 H   0  0  0  0  0  0  0  0  0  0  0  0
   61.4969   30.9101   48.2887 H   0  0  0  0  0  0  0  0  0  0  0  0
   62.3587   31.0588   46.6965 H   0  0  0  0  0  0  0  0  0  0  0  0
   62.8783   32.7546   49.1825 H   0  0  0  0  0  0  0  0  0  0  0  0
   63.9043   31.3900   48.5601 H   0  0  0  0  0  0  0  0  0  0  0  0
   64.7300   32.6190   46.9440 H   0  0  0  0  0  0  0  0  0  0  0  0
   63.5340   34.7453   46.1176 H   0  0  0  0  0  0  0  0  0  0  0  0
   63.1232   33.0945   45.4926 H   0  0  0  0  0  0  0  0  0  0  0  0
   61.6573   34.5564   47.7399 H   0  0  0  0  0  0  0  0  0  0  0  0
   61.1029   34.4047   46.0195 H   0  0  0  0  0  0  0  0  0  0  0  0
  1  2  1  0
  2  3  1  0
  3  4  1  0
  4  5  1  0
  5  6  2  0
  6  7  1  0
  7  8  2  0
  8  9  1  0
  8 10  1  0
 10 11  2  0
  4 12  2  0
 12 13  1  0
 13 14  2  0
 14 15  1  0
 15 16  1  0
 16 17  1  0
 17 18  1  0
 18 19  1  0
 19 20  1  0
 20 21  1  0
 21 22  1  0
 22 23  1  0
 14  3  1  0
 23 18  1  0
 11  5  1  0
  1 24  1  0
  1 25  1  0
  1 26  1  0
  2 27  1  0
  2 28  1  0
  6 29  1  0
  7 30  1  0
 10 31  1  0
 11 32  1  0
 12 33  1  0
 16 34  1  0
 16 35  1  0
 17 36  1  0
 17 37  1  0
 19 38  1  0
 19 39  1  0
 20 40  1  0
 20 41  1  0
 21 42  1  0
 22 43  1  0
 22 44  1  0
 23 45  1  0
 23 46  1  0
M  END
>  <UniqueID>  (1) 
1

>  <SMILES>  (1) 
CCn1c(-c2ccc(Cl)cc2)cnc1SCCN1CCNCC1

>  <Energy>  (1) 
85.52412692341568

>  <Genealogy>  (1) 
CCn1c(-c2ccc(Cl)cc2)cnc1SCCN1CCNCC1 (3D coordinates assigned)
CCn1c(-c2ccc(Cl)cc2)cnc1SCCN1CCNCC1 (nonaromatic ring conformer: 85.52412692341568 kcal/mol)

>  <smiles>  (1) 
CCn1c(-c2ccc(Cl)cc2)cnc1SCCN1CCNCC1

>  <score_type>  (1) 
oracle

>  <origin>  (1) 
adg

>  <m_score__min__energy>  (1) 
-8.2400000000000002

>  <m_primary>  (1) 
energy

$$$$
1:0
     RDKit          3D

 36 37  0  0  0  0  0  0  0  0999 V2000
   60.5030   26.7980   46.4510 C   0  0  0  0  0  0  0  0  0  0  0  0
   59.6130   27.8950   45.9600 C   0  0  0  0  0  0  0  0  0  0  0  0
   60.1520   29.1340   45.5980 C   0  0  0  0  0  0  0  0  0  0  0  0
   59.3050   30.1420   45.1410 C   0  0  0  0  0  0  0  0  0  0  0  0
   57.9290   29.9120   45.0440 C   0  0  0  0  0  0  0  0  0  0  0  0
   57.1010   30.9540   44.6240 O   0  0  0  0  0  0  0  0  0  0  0  0
   57.5720   32.2970   44.5460 C   0  0  0  0  0  0  0  0  0  0  0  0
   56.9590   33.1220   45.6780 C   0  0  0  0  0  0  0  0  0  0  0  0
   58.0180   33.7960   46.4580 N   0  0  0  0  0  0  0  0  0  0  0  0
   58.4690   32.9660   47.5910 C   0  0  0  0  0  0  0  0  0  0  0  0
   59.5210   33.7350   48.4200 C   0  0  0  0  0  0  0  0  0  0  0  0
   59.9690   34.9120   47.7680 O   0  0  0  0  0  0  0  0  0  0  0  0
   60.3720   34.6020   46.4500 C   0  0  0  0  0  0  0  0  0  0  0  0
   59.1700   34.1410   45.6020 C   0  0  0  0  0  0  0  0  0  0  0  0
   57.4180   28.6380   45.3830 C   0  0  0  0  0  0  0  0  0  0  0  0
   56.0290   28.3130   45.2340 N   0  0  0  0  0  0  0  0  0  0  0  0
   55.5810   27.2140   45.6230 O   0  0  0  0  0  0  0  0  0  0  0  0
   55.1440   29.2910   44.8460 O   0  0  0  0  0  0  0  0  0  0  0  0
   58.2730   27.6810   45.8410 N   0  0  0  0  0  0  0  0  0  0  0  0
   60.5067   26.7935   47.5510 H   0  0  0  0  0  0  0  0  0  0  0  0
   60.1310   25.8310   46.0816 H   0  0  0  0  0  0  0  0  0  0  0  0
   61.5259   26.9627   46.0816 H   0  0  0  0  0  0  0  0  0  0  0  0
   61.2350   29.3112   45.6734 H   0  0  0  0  0  0  0  0  0  0  0  0
   59.7196   31.1203   44.8561 H   0  0  0  0  0  0  0  0  0  0  0  0
   58.6681   32.3065   44.6382 H   0  0  0  0  0  0  0  0  0  0  0  0
   57.2801   32.7309   43.5783 H   0  0  0  0  0  0  0  0  0  0  0  0
   56.2861   33.8799   45.2505 H   0  0  0  0  0  0  0  0  0  0  0  0
   56.3981   32.4505   46.3448 H   0  0  0  0  0  0  0  0  0  0  0  0
   57.6077   32.7225   48.2304 H   0  0  0  0  0  0  0  0  0  0  0  0
   58.9190   32.0396   47.2047 H   0  0  0  0  0  0  0  0  0  0  0  0
   59.0743   34.0144   49.3856 H   0  0  0  0  0  0  0  0  0  0  0  0
   60.3904   33.0745   48.5538 H   0  0  0  0  0  0  0  0  0  0  0  0
   60.8160   35.4967   45.9892 H   0  0  0  0  0  0  0  0  0  0  0  0
   61.1080   33.7855   46.4901 H   0  0  0  0  0  0  0  0  0  0  0  0
   58.8797   34.9527   44.9187 H   0  0  0  0  0  0  0  0  0  0  0  0
   59.4649   33.2458   45.0349 H   0  0  0  0  0  0  0  0  0  0  0  0
  1  2  1  0
  2  3  2  0
  3  4  1  0
  4  5  2  0
  5  6  1  0
  6  7  1  0
  7  8  1  0
  8  9  1  0
  9 10  1  0
 10 11  1  0
 11 12  1  0
 12 13  1  0
 13 14  1  0
  5 15  1  0
 15 16  1  0
 16 17  2  0
 16 18  1  0
 15 19  2  0
 19  2  1  0
 14  9  1  0
  1 20  1  0
  1 21  1  0
  1 22  1  0
  3 23  1  0
  4 24  1  0
  7 25  1  0
  7 26  1  0
  8 27  1  0
  8 28  1  0
 10 29  1  0
 10 30  1  0
 11 31  1  0
 11 32  1  0
 13 33  1  0
 13 34  1  0
 14 35  1  0
 14 36  1  0
M  CHG  2  16   1  18  -1
M  END
>  <UniqueID>  (2) 
2

>  <SMILES>  (2) 
Cc1ccc(OCCN2CCOCC2)c([N+](=O)[O-])n1

>  <Energy>  (2) 
49.96835938862063

>  <Genealogy>  (2) 
Cc1ccc(OCCN2CCOCC2)c([N+](=O)[O-])n1 (3D coordinates assigned)
Cc1ccc(OCCN2CCOCC2)c([N+](=O)[O-])n1 (nonaromatic ring conformer: 49.96835938862063 kcal/mol)

>  <smiles>  (2) 
Cc1ccc(OCCN2CCOCC2)c([N+](=O)[O-])n1

>  <score_type>  (2) 
oracle

>  <origin>  (2) 
adg

>  <m_score__min__energy>  (2) 
-7.54

>  <m_primary>  (2) 
energy

$$$$
2:0
     RDKit          3D

 64 68  0  0  0  0  0  0  0  0999 V2000
   57.3140   33.6825   45.8099 H   0  0  0  0  0  0  0  0  0  0  0  0
   58.0610   32.8860   45.9420 C   0  0  0  0  0  0  0  0  0  0  0  0
   57.7740   31.6720   45.4220 C   0  0  0  0  0  0  0  0  0  0  0  0
   58.1800   30.3730   46.0540 C   0  0  0  0  0  0  0  0  0  0  0  0
   59.0730   30.3590   47.0790 N   0  0  0  0  0  0  0  0  0  0  0  0
   59.4750   29.2220   47.6960 C   0  0  0  0  0  0  0  0  0  0  0  0
   60.3790   29.3000   48.7600 C   0  0  0  0  0  0  0  0  0  0  0  0
   60.7695   30.2781   49.0776 H   0  0  0  0  0  0  0  0  0  0  0  0
   60.7870   28.1400   49.4200 C   0  0  0  0  0  0  0  0  0  0  0  0
   61.4982   28.2049   50.2566 H   0  0  0  0  0  0  0  0  0  0  0  0
   60.2930   26.8970   49.0190 C   0  0  0  0  0  0  0  0  0  0  0  0
   60.6153   25.9845   49.5420 H   0  0  0  0  0  0  0  0  0  0  0  0
   59.3900   26.8080   47.9550 C   0  0  0  0  0  0  0  0  0  0  0  0
   59.0042   25.8254   47.6456 H   0  0  0  0  0  0  0  0  0  0  0  0
   58.9710   27.9720   47.2760 C   0  0  0  0  0  0  0  0  0  0  0  0
   58.0610   27.9370   46.1940 C   0  0  0  0  0  0  0  0  0  0  0  0
   57.5060   26.6520   45.7240 C   0  0  0  0  0  0  0  0  0  0  0  0
   58.2950   25.8290   45.0910 N   0  0  0  0  0  0  0  0  0  0  0  0
   57.9560   24.4800   44.6420 C   0  0  0  0  0  0  0  0  0  0  0  0
   58.8797   23.9319   44.4047 H   0  0  0  0  0  0  0  0  0  0  0  0
   57.4091   23.9594   45.4419 H   0  0  0  0  0  0  0  0  0  0  0  0
   57.0670   24.5520   43.3840 C   0  0  0  0  0  0  0  0  0  0  0  0
   56.4594   25.4670   43.4441 H   0  0  0  0  0  0  0  0  0  0  0  0
   57.7463   24.5441   42.5189 H   0  0  0  0  0  0  0  0  0  0  0  0
   56.1540   23.4010   43.2140 N   0  0  0  0  0  0  0  0  0  0  0  0
   55.0640   23.3830   44.2040 C   0  0  0  0  0  0  0  0  0  0  0  0
   55.4897   23.3900   45.2183 H   0  0  0  0  0  0  0  0  0  0  0  0
   54.4292   24.2708   44.0666 H   0  0  0  0  0  0  0  0  0  0  0  0
   54.4589   22.4747   44.0666 H   0  0  0  0  0  0  0  0  0  0  0  0
   56.8600   22.1100   43.1750 C   0  0  0  0  0  0  0  0  0  0  0  0
   57.0491   21.7643   44.2020 H   0  0  0  0  0  0  0  0  0  0  0  0
   56.2413   21.3695   42.6469 H   0  0  0  0  0  0  0  0  0  0  0  0
   57.8173   22.2314   42.6469 H   0  0  0  0  0  0  0  0  0  0  0  0
   56.0640   26.3310   46.0120 C   0  0  0  0  0  0  0  0  0  0  0  0
   55.9064   26.2959   47.1001 H   0  0  0  0  0  0  0  0  0  0  0  0
   55.4207   27.1079   45.5732 H   0  0  0  0  0  0  0  0  0  0  0  0
   55.8110   25.3546   45.5732 H   0  0  0  0  0  0  0  0  0  0  0  0
   57.6860   29.1460   45.5550 C   0  0  0  0  0  0  0  0  0  0  0  0
   56.7280   29.1490   44.3800 C   0  0  0  0  0  0  0  0  0  0  0  0
   55.6989   29.2518   44.7546 H   0  0  0  0  0  0  0  0  0  0  0  0
   56.8438   28.2037   43.8296 H   0  0  0  0  0  0  0  0  0  0  0  0
   57.0330   30.3070   43.4310 C   0  0  0  0  0  0  0  0  0  0  0  0
   56.3101   30.2948   42.6020 H   0  0  0  0  0  0  0  0  0  0  0  0
   58.0565   30.1891   43.0457 H   0  0  0  0  0  0  0  0  0  0  0  0
   56.9340   31.6450   44.1640 C   0  0  0  0  0  0  0  0  0  0  0  0
   55.8831   31.8228   44.4361 H   0  0  0  0  0  0  0  0  0  0  0  0
   57.3114   32.4278   43.4896 H   0  0  0  0  0  0  0  0  0  0  0  0
   59.2950   33.2280   46.6720 C   0  0  0  0  0  0  0  0  0  0  0  0
   60.4700   33.5470   45.9740 C   0  0  0  0  0  0  0  0  0  0  0  0
   60.4701   33.5441   44.8740 H   0  0  0  0  0  0  0  0  0  0  0  0
   61.6390   33.8680   46.6670 C   0  0  0  0  0  0  0  0  0  0  0  0
   62.5517   34.1301   46.1118 H   0  0  0  0  0  0  0  0  0  0  0  0
   61.6520   33.8570   48.0710 C   0  0  0  0  0  0  0  0  0  0  0  0
   62.8190   34.1830   48.7780 C   0  0  0  0  0  0  0  0  0  0  0  0
   63.7363   34.4477   48.2316 H   0  0  0  0  0  0  0  0  0  0  0  0
   62.8180   34.1720   50.1750 C   0  0  0  0  0  0  0  0  0  0  0  0
   63.7346   34.4304   50.7255 H   0  0  0  0  0  0  0  0  0  0  0  0
   61.6570   33.8340   50.8760 C   0  0  0  0  0  0  0  0  0  0  0  0
   61.6626   33.8277   51.9760 H   0  0  0  0  0  0  0  0  0  0  0  0
   60.4890   33.5040   50.1830 C   0  0  0  0  0  0  0  0  0  0  0  0
   59.5783   33.2365   50.7390 H   0  0  0  0  0  0  0  0  0  0  0  0
   60.4750   33.5130   48.7800 C   0  0  0  0  0  0  0  0  0  0  0  0
   59.3070   33.1880   48.0740 C   0  0  0  0  0  0  0  0  0  0  0  0
   58.3974   32.9008   48.6219 H   0  0  0  0  0  0  0  0  0  0  0  0
  1  2  1  0
  2  3  2  0
  3  4  1  0
  4  5  2  0
  5  6  1  0
  6  7  2  0
  7  8  1  0
  7  9  1  0
  9 10  1  0
  9 11  2  0
 11 12  1  0
 11 13  1  0
 13 14  1  0
 13 15  2  0
 15 16  1  0
 16 17  1  0
 17 18  2  0
 18 19  1  0
 19 20  1  0
 19 21  1  0
 19 22  1  0
 22 23  1  0
 22 24  1  0
 22 25  1  0
 25 26  1  0
 26 27  1  0
 26 28  1  0
 26 29  1  0
 25 30  1  0
 30 31  1  0
 30 32  1  0
 30 33  1  0
 17 34  1  0
 34 35  1  0
 34 36  1  0
 34 37  1  0
 16 38  2  0
 38 39  1  0
 39 40  1  0
 39 41  1  0
 39 42  1  0
 42 43  1  0
 42 44  1  0
 42 45  1  0
 45 46  1  0
 45 47  1  0
  2 48  1  0
 48 49  2  0
 49 50  1  0
 49 51  1  0
 51 52  1  0
 51 53  2  0
 53 54  1  0
 54 55  1  0
 54 56  2  0
 56 57  1  0
 56 58  1  0
 58 59  1  0
 58 60  2  0
 60 61  1  0
 60 62  1  0
 62 63  2  0
 63 64  1  0
 45  3  1  0
 63 48  1  0
 38  4  1  0
 62 53  1  0
 15  6  1  0
M  END
>  <UniqueID>  (3) 
3

>  <SMILES>  (3) 
C/C(=N\CCN(C)C)c1c2c(nc3ccccc13)/C(=C\c1ccc3ccccc3c1)CCC2

>  <Energy>  (3) 
94.90125910320411

>  <Genealogy>  (3) 
C/C(=N\CCN(C)C)c1c2c(nc3ccccc13)/C(=C\c1ccc3ccccc3c1)CCC2 (cis-trans isomerization)
C/C(=N\CCN(C)C)c1c2c(nc3ccccc13)/C(=C\c1ccc3ccccc3c1)CCC2 (3D coordinates assigned)
C/C(=N\CCN(C)C)c1c2c(nc3ccccc13)/C(=C\c1ccc3ccccc3c1)CCC2 (nonaromatic ring conformer: 94.90125910320411 kcal/mol)

>  <smiles>  (3) 
CC(=NCCN(C)C)c1c2c(nc3ccccc13)C(=Cc1ccc3ccccc3c1)CCC2

>  <score_type>  (3) 
oracle

>  <origin>  (3) 
adg

>  <m_score__min__energy>  (3) 
-10.779999999999999

>  <m_primary>  (3) 
energy

$$$$
3:0
     RDKit          3D

 50 54  0  0  0  0  0  0  0  0999 V2000
   64.4970   33.0480   48.9810 C   0  0  0  0  0  0  0  0  0  0  0  0
   63.1390   33.4340   48.4740 C   0  0  0  0  0  0  0  0  0  0  0  0
   62.1430   33.8520   49.3690 C   0  0  0  0  0  0  0  0  0  0  0  0
   60.8880   34.2430   48.8920 C   0  0  0  0  0  0  0  0  0  0  0  0
   60.6190   34.2370   47.5150 C   0  0  0  0  0  0  0  0  0  0  0  0
   59.2470   34.6000   47.0060 C   0  0  0  0  0  0  0  0  0  0  0  0
   58.2070   33.5290   47.3630 C   0  0  0  0  0  0  0  0  0  0  0  0
   58.7140   32.1820   47.0920 N   0  0  0  0  0  0  0  0  0  0  0  0
   59.2940   31.3540   47.9980 C   0  0  0  0  0  0  0  0  0  0  0  0
   59.4940   30.1100   47.5060 N   0  0  0  0  0  0  0  0  0  0  0  0
   59.0290   30.1780   46.2490 C   0  0  0  0  0  0  0  0  0  0  0  0
   58.5500   31.4250   45.9860 C   0  0  0  0  0  0  0  0  0  0  0  0
   57.8220   31.7180   44.7360 C   0  0  0  0  0  0  0  0  0  0  0  0
   57.4120   32.8820   44.4850 O   0  0  0  0  0  0  0  0  0  0  0  0
   57.5870   30.6320   43.8050 N   0  0  0  0  0  0  0  0  0  0  0  0
   56.7500   30.8320   42.6210 C   0  0  0  0  0  0  0  0  0  0  0  0
   58.0590   29.3090   44.1580 C   0  0  0  0  0  0  0  0  0  0  0  0
   57.5950   28.2160   43.6110 N   0  0  0  0  0  0  0  0  0  0  0  0
   58.3170   27.1700   44.3120 C   0  0  2  0  0  0  0  0  0  0  0  0
   57.7790   25.8000   44.6150 C   0  0  0  0  0  0  0  0  0  0  0  0
   58.6910   25.4100   45.8220 C   0  0  0  0  0  0  0  0  0  0  0  0
   59.3620   26.7240   46.3360 C   0  0  0  0  0  0  0  0  0  0  0  0
   58.4810   27.7490   45.6710 C   0  0  1  0  0  0  0  0  0  0  0  0
   58.8710   29.0980   45.3340 N   0  0  0  0  0  0  0  0  0  0  0  0
   61.6190   33.8280   46.6200 C   0  0  0  0  0  0  0  0  0  0  0  0
   62.8750   33.4380   47.0950 C   0  0  0  0  0  0  0  0  0  0  0  0
   64.4918   33.0495   50.0810 H   0  0  0  0  0  0  0  0  0  0  0  0
   64.7520   32.0418   48.6169 H   0  0  0  0  0  0  0  0  0  0  0  0
   65.2431   33.7697   48.6169 H   0  0  0  0  0  0  0  0  0  0  0  0
   62.3498   33.8723   50.4492 H   0  0  0  0  0  0  0  0  0  0  0  0
   60.1073   34.5571   49.6004 H   0  0  0  0  0  0  0  0  0  0  0  0
   58.9419   35.5567   47.4549 H   0  0  0  0  0  0  0  0  0  0  0  0
   59.2973   34.6770   45.9099 H   0  0  0  0  0  0  0  0  0  0  0  0
   57.9613   33.6108   48.4321 H   0  0  0  0  0  0  0  0  0  0  0  0
   57.3129   33.6940   46.7438 H   0  0  0  0  0  0  0  0  0  0  0  0
   59.5703   31.6603   49.0177 H   0  0  0  0  0  0  0  0  0  0  0  0
   59.8750   29.2770   48.0070 H   0  0  0  0  0  0  0  0  0  0  0  0
   55.7244   31.0771   42.9341 H   0  0  0  0  0  0  0  0  0  0  0  0
   57.1570   31.6582   42.0195 H   0  0  0  0  0  0  0  0  0  0  0  0
   56.7396   29.9111   42.0195 H   0  0  0  0  0  0  0  0  0  0  0  0
   59.1385   26.9511   43.6140 H   0  0  0  0  0  0  0  0  0  0  0  0
   56.7170   25.8325   44.8998 H   0  0  0  0  0  0  0  0  0  0  0  0
   57.8031   25.0960   43.7702 H   0  0  0  0  0  0  0  0  0  0  0  0
   58.0856   24.9581   46.6215 H   0  0  0  0  0  0  0  0  0  0  0  0
   59.4515   24.6764   45.5164 H   0  0  0  0  0  0  0  0  0  0  0  0
   59.3208   26.8009   47.4325 H   0  0  0  0  0  0  0  0  0  0  0  0
   60.4336   26.8164   46.1054 H   0  0  0  0  0  0  0  0  0  0  0  0
   57.6898   27.8934   46.4215 H   0  0  0  0  0  0  0  0  0  0  0  0
   61.4140   33.8141   45.5394 H   0  0  0  0  0  0  0  0  0  0  0  0
   63.6588   33.1333   46.3859 H   0  0  0  0  0  0  0  0  0  0  0  0
  1  2  1  0
  2  3  2  0
  3  4  1  0
  4  5  2  0
  5  6  1  0
  6  7  1  0
  7  8  1  0
  8  9  1  0
  9 10  2  0
 10 11  1  0
 11 12  2  0
 12 13  1  0
 13 14  2  0
 13 15  1  0
 15 16  1  0
 15 17  1  0
 17 18  2  0
 18 19  1  0
 19 20  1  0
 20 21  1  0
 21 22  1  0
 22 23  1  0
 23 24  1  0
  5 25  1  0
 25 26  2  0
 26  2  1  0
 12  8  1  0
 24 17  1  0
 24 11  1  0
 23 19  1  0
  1 27  1  0
  1 28  1  0
  1 29  1  0
  3 30  1  0
  4 31  1  0
  6 32  1  0
  6 33  1  0
  7 34  1  0
  7 35  1  0
  9 36  1  0
 10 37  1  0
 16 38  1  0
 16 39  1  0
 16 40  1  0
 19 41  1  6
 20 42  1  0
 20 43  1  0
 21 44  1  0
 21 45  1  0
 22 46  1  0
 22 47  1  0
 23 48  1  1
 25 49  1  0
 26 50  1  0
M  CHG  1  10   1
M  END
>  <UniqueID>  (4) 
4

>  <SMILES>  (4) 
Cc1ccc(CCn2c[nH+]c3c2C(=O)N(C)C2=N[C@@H]4CCC[C@H]4N23)cc1

>  <Energy>  (4) 
147.48197027746733

>  <Genealogy>  (4) 
Cc1ccc(CCn2c[nH+]c3c2C(=O)N(C)C2=NC4CCCC4N23)cc1 (protonated)
Cc1ccc(CCn2c[nH+]c3c2C(=O)N(C)C2=N[C@@H]4CCC[C@H]4N23)cc1 (chirality)
Cc1ccc(CCn2c[nH+]c3c2C(=O)N(C)C2=N[C@@H]4CCC[C@H]4N23)cc1 (3D coordinates assigned)
Cc1ccc(CCn2c[nH+]c3c2C(=O)N(C)C2=N[C@@H]4CCC[C@H]4N23)cc1 (nonaromatic ring conformer: 147.48197027746733 kcal/mol)

>  <smiles>  (4) 
Cc1ccc(CCn2cnc3c2C(=O)N(C)C2=NC4CCCC4N23)cc1

>  <score_type>  (4) 
oracle

>  <origin>  (4) 
adg

>  <m_score__min__energy>  (4) 
-6.6399999999999997

>  <m_primary>  (4) 
energy

$$$$
4:0
     RDKit          3D

 40 40  0  0  0  0  0  0  0  0999 V2000
   59.3310   34.9090   46.0210 C   0  0  0  0  0  0  0  0  0  0  0  0
   59.9280   34.0630   47.1350 C   0  0  0  0  0  0  0  0  0  0  0  0
   59.0290   33.0240   47.4610 O   0  0  0  0  0  0  0  0  0  0  0  0
   59.6710   32.0440   48.2540 C   0  0  0  0  0  0  0  0  0  0  0  0
   60.1790   30.9010   47.3790 C   0  0  0  0  0  0  0  0  0  0  0  0
   59.0860   30.0610   47.0100 O   0  0  0  0  0  0  0  0  0  0  0  0
   58.3750   30.1340   45.7990 C   0  0  0  0  0  0  0  0  0  0  0  0
   58.1580   31.3120   45.1760 C   0  0  0  0  0  0  0  0  0  0  0  0
   57.3290   31.4550   43.9210 C   0  0  1  0  0  0  0  0  0  0  0  0
   57.9660   32.4510   42.9940 C   0  0  0  0  0  0  0  0  0  0  0  0
   57.7640   32.3920   41.7520 O   0  0  0  0  0  0  0  0  0  0  0  0
   58.8030   33.4360   43.5050 O   0  0  0  0  0  0  0  0  0  0  0  0
   57.0930   30.1170   43.1970 C   0  0  0  0  0  0  0  0  0  0  0  0
   56.7700   28.9840   44.1870 C   0  0  2  0  0  0  0  0  0  0  0  0
   55.4920   29.1990   44.8770 N   0  0  0  0  0  0  0  0  0  0  0  0
   57.9340   28.8210   45.1890 C   0  0  2  0  0  0  0  0  0  0  0  0
   57.5590   27.8940   46.2560 N   0  0  0  0  0  0  0  0  0  0  0  0
   56.7400   26.7270   46.1030 C   0  0  0  0  0  0  0  0  0  0  0  0
   57.3240   25.3470   46.0850 C   0  0  0  0  0  0  0  0  0  0  0  0
   55.4940   26.8670   45.9960 O   0  0  0  0  0  0  0  0  0  0  0  0
   58.7491   35.7336   46.4585 H   0  0  0  0  0  0  0  0  0  0  0  0
   60.1399   35.3205   45.3994 H   0  0  0  0  0  0  0  0  0  0  0  0
   58.6722   34.2848   45.3994 H   0  0  0  0  0  0  0  0  0  0  0  0
   60.8824   33.6318   46.7985 H   0  0  0  0  0  0  0  0  0  0  0  0
   60.1053   34.6902   48.0211 H   0  0  0  0  0  0  0  0  0  0  0  0
   60.5210   32.5032   48.7800 H   0  0  0  0  0  0  0  0  0  0  0  0
   58.9487   31.6435   48.9806 H   0  0  0  0  0  0  0  0  0  0  0  0
   60.6466   31.3132   46.4727 H   0  0  0  0  0  0  0  0  0  0  0  0
   60.9203   30.3124   47.9394 H   0  0  0  0  0  0  0  0  0  0  0  0
   58.6099   32.2180   45.6060 H   0  0  0  0  0  0  0  0  0  0  0  0
   56.3383   31.8187   44.2313 H   0  0  0  0  0  0  0  0  0  0  0  0
   56.2499   30.2326   42.5000 H   0  0  0  0  0  0  0  0  0  0  0  0
   58.0149   29.8505   42.6594 H   0  0  0  0  0  0  0  0  0  0  0  0
   56.6582   28.0505   43.6160 H   0  0  0  0  0  0  0  0  0  0  0  0
   55.6320   29.0630   45.9050 H   0  0  0  0  0  0  0  0  0  0  0  0
   54.7810   28.5030   44.5580 H   0  0  0  0  0  0  0  0  0  0  0  0
   58.7836   28.4200   44.6169 H   0  0  0  0  0  0  0  0  0  0  0  0
   57.4717   24.9979   47.1176 H   0  0  0  0  0  0  0  0  0  0  0  0
   56.6373   24.6651   45.5621 H   0  0  0  0  0  0  0  0  0  0  0  0
   58.2916   25.3651   45.5621 H   0  0  0  0  0  0  0  0  0  0  0  0
  1  2  1  0
  2  3  1  0
  3  4  1  0
  4  5  1  0
  5  6  1  0
  6  7  1  0
  7  8  2  0
  8  9  1  0
  9 10  1  0
 10 11  2  0
 10 12  1  0
  9 13  1  0
 13 14  1  0
 14 15  1  0
 14 16  1  0
 16 17  1  0
 17 18  1  0
 18 19  1  0
 18 20  2  0
 16  7  1  0
  1 21  1  0
  1 22  1  0
  1 23  1  0
  2 24  1  0
  2 25  1  0
  4 26  1  0
  4 27  1  0
  5 28  1  0
  5 29  1  0
  8 30  1  0
  9 31  1  1
 13 32  1  0
 13 33  1  0
 14 34  1  6
 15 35  1  0
 15 36  1  0
 16 37  1  6
 19 38  1  0
 19 39  1  0
 19 40  1  0
M  CHG  2  12  -1  17  -1
M  END
>  <UniqueID>  (5) 
5

>  <SMILES>  (5) 
CCOCCOC1=C[C@@H](C(=O)[O-])C[C@H](N)C1[N-]C(C)=O

>  <Energy>  (5) 
32.856318896094976

>  <Genealogy>  (5) 
CCOCCOC1=CC(C(=O)[O-])CC(N)C1[N-]C(C)=O (protonated)
CCOCCOC1=C[C@@H](C(=O)[O-])C[C@H](N)C1[N-]C(C)=O (chirality)
CCOCCOC1=C[C@@H](C(=O)[O-])C[C@H](N)C1[N-]C(C)=O (3D coordinates assigned)
CCOCCOC1=C[C@@H](C(=O)[O-])C[C@H](N)C1[N-]C(C)=O (nonaromatic ring conformer: 32.856318896094976 kcal/mol)

>  <smiles>  (5) 
CCOCCOC1=CC(C(=O)O)CC(N)C1NC(C)=O

>  <score_type>  (5) 
oracle

>  <origin>  (5) 
adg

>  <m_score__min__energy>  (5) 
-8.6899999999999995

>  <m_primary>  (5) 
energy

$$$$
5:0
     RDKit          3D

 73 77  0  0  0  0  0  0  0  0999 V2000
   55.9140   30.4310   52.4980 C   0  0  0  0  0  0  0  0  0  0  0  0
   57.0100   30.4640   51.5880 O   0  0  0  0  0  0  0  0  0  0  0  0
   57.8100   31.5920   51.3490 C   0  0  0  0  0  0  0  0  0  0  0  0
   58.1510   32.4030   52.4340 C   0  0  0  0  0  0  0  0  0  0  0  0
   58.9430   33.5410   52.2590 C   0  0  0  0  0  0  0  0  0  0  0  0
   59.2510   34.3140   53.3890 O   0  0  0  0  0  0  0  0  0  0  0  0
   59.2690   33.8180   54.7240 C   0  0  0  0  0  0  0  0  0  0  0  0
   59.4020   33.8720   50.9700 C   0  0  0  0  0  0  0  0  0  0  0  0
   59.0790   33.0650   49.8630 C   0  0  0  0  0  0  0  0  0  0  0  0
   59.5570   33.3880   48.5330 N   0  0  0  0  0  0  0  0  0  0  0  0
   60.7820   34.1880   48.3440 C   0  0  0  0  0  0  0  0  0  0  0  0
   61.8920   33.8030   49.3390 C   0  0  0  0  0  0  0  0  0  0  0  0
   63.0730   33.0800   48.6680 C   0  0  0  0  0  0  0  0  0  0  0  0
   63.0520   31.6260   48.9560 N   0  0  0  0  0  0  0  0  0  0  0  0
   63.7900   31.3110   50.2060 C   0  0  0  0  0  0  0  0  0  0  0  0
   62.8500   31.2190   51.4150 C   0  0  0  0  0  0  0  0  0  0  0  0
   61.8780   30.1140   51.2540 N   0  0  0  0  0  0  0  0  0  0  0  0
   60.6840   30.3510   52.0800 C   0  0  0  0  0  0  0  0  0  0  0  0
   61.5150   29.8440   49.8400 C   0  0  0  0  0  0  0  0  0  0  0  0
   61.6630   31.0900   48.9510 C   0  0  0  0  0  0  0  0  0  0  0  0
   58.8120   32.9380   47.3840 C   0  0  0  0  0  0  0  0  0  0  0  0
   58.0210   33.8330   46.6390 C   0  0  0  0  0  0  0  0  0  0  0  0
   57.3070   33.3880   45.5210 C   0  0  0  0  0  0  0  0  0  0  0  0
   57.3750   32.0450   45.1390 C   0  0  0  0  0  0  0  0  0  0  0  0
   56.6920   31.5960   44.0550 N   0  0  0  0  0  0  0  0  0  0  0  0
   56.7510   30.2920   43.6740 C   0  0  0  0  0  0  0  0  0  0  0  0
   57.5330   29.3870   44.4110 C   0  0  0  0  0  0  0  0  0  0  0  0
   57.6330   27.9600   44.0400 C   0  0  0  0  0  0  0  0  0  0  0  0
   57.7710   27.4510   42.7590 C   0  0  0  0  0  0  0  0  0  0  0  0
   57.8220   26.1100   42.8360 N   0  0  0  0  0  0  0  0  0  0  0  0
   57.7300   25.7520   44.1050 N   0  0  0  0  0  0  0  0  0  0  0  0
   57.7440   24.3710   44.5700 C   0  0  0  0  0  0  0  0  0  0  0  0
   57.6090   26.8520   44.8730 C   0  0  0  0  0  0  0  0  0  0  0  0
   58.2170   29.8410   45.4980 N   0  0  0  0  0  0  0  0  0  0  0  0
   58.1570   31.1410   45.8830 C   0  0  0  0  0  0  0  0  0  0  0  0
   58.8650   31.5850   47.0030 C   0  0  0  0  0  0  0  0  0  0  0  0
   58.2740   31.9290   50.0660 C   0  0  0  0  0  0  0  0  0  0  0  0
   56.2940   30.4424   53.5302 H   0  0  0  0  0  0  0  0  0  0  0  0
   55.2739   31.3103   52.3331 H   0  0  0  0  0  0  0  0  0  0  0  0
   55.3280   29.5148   52.3331 H   0  0  0  0  0  0  0  0  0  0  0  0
   57.7911   32.1422   53.4402 H   0  0  0  0  0  0  0  0  0  0  0  0
   59.2384   34.6618   55.4291 H   0  0  0  0  0  0  0  0  0  0  0  0
   58.3937   33.1720   54.8870 H   0  0  0  0  0  0  0  0  0  0  0  0
   60.1888   33.2372   54.8870 H   0  0  0  0  0  0  0  0  0  0  0  0
   60.0196   34.7708   50.8264 H   0  0  0  0  0  0  0  0  0  0  0  0
   61.1536   34.0292   47.3209 H   0  0  0  0  0  0  0  0  0  0  0  0
   60.5247   35.2430   48.5193 H   0  0  0  0  0  0  0  0  0  0  0  0
   62.2676   34.7194   49.8177 H   0  0  0  0  0  0  0  0  0  0  0  0
   61.4531   33.1092   50.0711 H   0  0  0  0  0  0  0  0  0  0  0  0
   63.0129   33.2301   47.5800 H   0  0  0  0  0  0  0  0  0  0  0  0
   64.0078   33.4986   49.0690 H   0  0  0  0  0  0  0  0  0  0  0  0
   64.3056   30.3473   50.0818 H   0  0  0  0  0  0  0  0  0  0  0  0
   64.5085   32.1228   50.3926 H   0  0  0  0  0  0  0  0  0  0  0  0
   63.4475   31.0422   52.3215 H   0  0  0  0  0  0  0  0  0  0  0  0
   62.2930   32.1641   51.4961 H   0  0  0  0  0  0  0  0  0  0  0  0
   60.9576   30.2967   53.1441 H   0  0  0  0  0  0  0  0  0  0  0  0
   60.2757   31.3477   51.8568 H   0  0  0  0  0  0  0  0  0  0  0  0
   59.9259   29.5858   51.8568 H   0  0  0  0  0  0  0  0  0  0  0  0
   62.1720   29.0521   49.4512 H   0  0  0  0  0  0  0  0  0  0  0  0
   60.4588   29.5375   49.8165 H   0  0  0  0  0  0  0  0  0  0  0  0
   61.3907   30.8228   47.9193 H   0  0  0  0  0  0  0  0  0  0  0  0
   60.9997   31.8704   49.3523 H   0  0  0  0  0  0  0  0  0  0  0  0
   57.9638   34.8900   46.9380 H   0  0  0  0  0  0  0  0  0  0  0  0
   56.6927   34.0943   44.9432 H   0  0  0  0  0  0  0  0  0  0  0  0
   56.1893   29.9475   42.7932 H   0  0  0  0  0  0  0  0  0  0  0  0
   57.8291   28.0443   41.8345 H   0  0  0  0  0  0  0  0  0  0  0  0
   57.9210   25.4490   42.0330 H   0  0  0  0  0  0  0  0  0  0  0  0
   57.7442   24.3544   45.6699 H   0  0  0  0  0  0  0  0  0  0  0  0
   56.8511   23.8490   44.1956 H   0  0  0  0  0  0  0  0  0  0  0  0
   58.6473   23.8672   44.1956 H   0  0  0  0  0  0  0  0  0  0  0  0
   57.5088   26.8683   45.9683 H   0  0  0  0  0  0  0  0  0  0  0  0
   59.4659   30.8739   47.5888 H   0  0  0  0  0  0  0  0  0  0  0  0
   58.0040   31.2956   49.2082 H   0  0  0  0  0  0  0  0  0  0  0  0
  1  2  1  0
  2  3  1  0
  3  4  2  0
  4  5  1  0
  5  6  1  0
  6  7  1  0
  5  8  2  0
  8  9  1  0
  9 10  1  0
 10 11  1  0
 11 12  1  0
 12 13  1  0
 13 14  1  0
 14 15  1  0
 15 16  1  0
 16 17  1  0
 17 18  1  0
 17 19  1  0
 19 20  1  0
 10 21  1  0
 21 22  2  0
 22 23  1  0
 23 24  2  0
 24 25  1  0
 25 26  2  0
 26 27  1  0
 27 28  1  0
 28 29  1  0
 29 30  2  0
 30 31  1  0
 31 32  1  0
 31 33  1  0
 27 34  2  0
 34 35  1  0
 35 36  2  0
  9 37  2  0
 37  3  1  0
 20 14  1  0
 36 21  1  0
 35 24  1  0
 33 28  2  0
  1 38  1  0
  1 39  1  0
  1 40  1  0
  4 41  1  0
  7 42  1  0
  7 43  1  0
  7 44  1  0
  8 45  1  0
 11 46  1  0
 11 47  1  0
 12 48  1  0
 12 49  1  0
 13 50  1  0
 13 51  1  0
 15 52  1  0
 15 53  1  0
 16 54  1  0
 16 55  1  0
 18 56  1  0
 18 57  1  0
 18 58  1  0
 19 59  1  0
 19 60  1  0
 20 61  1  0
 20 62  1  0
 22 63  1  0
 23 64  1  0
 26 65  1  0
 29 66  1  0
 30 67  1  0
 32 68  1  0
 32 69  1  0
 32 70  1  0
 33 71  1  0
 36 72  1  0
 37 73  1  0
M  CHG  1  30   1
M  END
>  <UniqueID>  (6) 
6

>  <SMILES>  (6) 
COc1cc(OC)cc(N(CCCN2CCN(C)CC2)c2ccc3ncc(-c4c[nH+]n(C)c4)nc3c2)c1

>  <Energy>  (6) 
128.74717601829173

>  <Genealogy>  (6) 
COc1cc(OC)cc(N(CCCN2CCN(C)CC2)c2ccc3ncc(-c4c[nH+]n(C)c4)nc3c2)c1 (protonated)
COc1cc(OC)cc(N(CCCN2CCN(C)CC2)c2ccc3ncc(-c4c[nH+]n(C)c4)nc3c2)c1 (3D coordinates assigned)
COc1cc(OC)cc(N(CCCN2CCN(C)CC2)c2ccc3ncc(-c4c[nH+]n(C)c4)nc3c2)c1 (nonaromatic ring conformer: 128.74717601829173 kcal/mol)

>  <smiles>  (6) 
COc1cc(OC)cc(N(CCCN2CCN(C)CC2)c2ccc3ncc(-c4cnn(C)c4)nc3c2)c1

>  <score_type>  (6) 
oracle

>  <origin>  (6) 
adg

>  <m_score__min__energy>  (6) 
-7.79

>  <m_primary>  (6) 
energy

$$$$
6:0
     RDKit          3D

 40 42  0  0  0  0  0  0  0  0999 V2000
   57.8800   26.5010   42.6500 C   0  0  0  0  0  0  0  0  0  0  0  0
   57.7420   27.9850   43.0050 C   0  0  0  0  0  0  0  0  0  0  0  0
   57.1620   28.1830   44.3530 N   0  0  2  0  0  0  0  0  0  0  0  0
   56.3580   29.3810   44.4160 C   0  0  0  0  0  0  0  0  0  0  0  0
   55.1800   29.3410   44.8710 O   0  0  0  0  0  0  0  0  0  0  0  0
   56.8690   30.5980   43.8540 N   0  0  0  0  0  0  0  0  0  0  0  0
   57.5340   31.6520   44.5650 C   0  0  0  0  0  0  0  0  0  0  0  0
   57.9010   32.8070   43.8620 C   0  0  0  0  0  0  0  0  0  0  0  0
   58.5660   33.8520   44.5070 C   0  0  0  0  0  0  0  0  0  0  0  0
   58.8910   33.7490   45.8660 C   0  0  0  0  0  0  0  0  0  0  0  0
   59.5610   34.7930   46.5240 C   0  0  0  0  0  0  0  0  0  0  0  0
   59.8890   34.6720   47.8770 C   0  0  0  0  0  0  0  0  0  0  0  0
   59.5540   33.5130   48.5820 C   0  0  0  0  0  0  0  0  0  0  0  0
   58.8870   32.4660   47.9380 C   0  0  0  0  0  0  0  0  0  0  0  0
   58.5490   32.5760   46.5810 C   0  0  0  0  0  0  0  0  0  0  0  0
   57.8790   31.5310   45.9240 C   0  0  0  0  0  0  0  0  0  0  0  0
   58.1770   28.2210   45.3930 C   0  0  0  0  0  0  0  0  0  0  0  0
   57.8870   27.7290   46.6820 C   0  0  0  0  0  0  0  0  0  0  0  0
   58.8550   27.7530   47.6880 C   0  0  0  0  0  0  0  0  0  0  0  0
   60.1280   28.2640   47.4250 C   0  0  0  0  0  0  0  0  0  0  0  0
   60.4340   28.7540   46.1540 C   0  0  0  0  0  0  0  0  0  0  0  0
   59.4700   28.7350   45.1430 C   0  0  0  0  0  0  0  0  0  0  0  0
   57.9353   25.9066   43.5739 H   0  0  0  0  0  0  0  0  0  0  0  0
   57.0076   26.1823   42.0606 H   0  0  0  0  0  0  0  0  0  0  0  0
   58.7962   26.3486   42.0606 H   0  0  0  0  0  0  0  0  0  0  0  0
   58.7380   28.4510   42.9753 H   0  0  0  0  0  0  0  0  0  0  0  0
   57.0635   28.4471   42.2728 H   0  0  0  0  0  0  0  0  0  0  0  0
   56.5090   27.3810   44.5260 H   0  0  0  0  0  0  0  0  0  0  0  0
   57.6630   32.8915   42.7914 H   0  0  0  0  0  0  0  0  0  0  0  0
   58.8356   34.7591   43.9462 H   0  0  0  0  0  0  0  0  0  0  0  0
   59.8280   35.7073   45.9737 H   0  0  0  0  0  0  0  0  0  0  0  0
   60.4130   35.4925   48.3891 H   0  0  0  0  0  0  0  0  0  0  0  0
   59.8157   33.4239   49.6467 H   0  0  0  0  0  0  0  0  0  0  0  0
   58.6270   31.5547   48.4965 H   0  0  0  0  0  0  0  0  0  0  0  0
   57.6227   30.6137   46.4743 H   0  0  0  0  0  0  0  0  0  0  0  0
   56.8880   27.3221   46.8974 H   0  0  0  0  0  0  0  0  0  0  0  0
   58.6144   27.3685   48.6901 H   0  0  0  0  0  0  0  0  0  0  0  0
   60.8892   28.2804   48.2190 H   0  0  0  0  0  0  0  0  0  0  0  0
   61.4369   29.1562   45.9480 H   0  0  0  0  0  0  0  0  0  0  0  0
   59.7191   29.1231   44.1443 H   0  0  0  0  0  0  0  0  0  0  0  0
  1  2  1  0
  2  3  1  0
  3  4  1  0
  4  5  2  0
  4  6  1  0
  6  7  1  0
  7  8  2  0
  8  9  1  0
  9 10  2  0
 10 11  1  0
 11 12  2  0
 12 13  1  0
 13 14  2  0
 14 15  1  0
 15 16  2  0
  3 17  1  0
 17 18  2  0
 18 19  1  0
 19 20  2  0
 20 21  1  0
 21 22  2  0
 16  7  1  0
 22 17  1  0
 15 10  1  0
  1 23  1  0
  1 24  1  0
  1 25  1  0
  2 26  1  0
  2 27  1  0
  3 28  1  1
  8 29  1  0
  9 30  1  0
 11 31  1  0
 12 32  1  0
 13 33  1  0
 14 34  1  0
 16 35  1  0
 18 36  1  0
 19 37  1  0
 20 38  1  0
 21 39  1  0
 22 40  1  0
M  CHG  2   3   1   6  -1
M  END
>  <UniqueID>  (7) 
7

>  <SMILES>  (7) 
CC[N@H+](C(=O)[N-]c1ccc2ccccc2c1)c1ccccc1

>  <Energy>  (7) 
52.55951519796521

>  <Genealogy>  (7) 
CC[NH+](C(=O)[N-]c1ccc2ccccc2c1)c1ccccc1 (protonated)
CC[N@H+](C(=O)[N-]c1ccc2ccccc2c1)c1ccccc1 (chirality)
CC[N@H+](C(=O)[N-]c1ccc2ccccc2c1)c1ccccc1 (3D coordinates assigned)
CC[N@H+](C(=O)[N-]c1ccc2ccccc2c1)c1ccccc1 (optimized conformer: 52.55951519796521 kcal/mol)

>  <smiles>  (7) 
CCN(C(=O)Nc1ccc2ccccc2c1)c1ccccc1

>  <score_type>  (7) 
oracle

>  <origin>  (7) 
adg

>  <m_score__min__energy>  (7) 
-8.0399999999999991

>  <m_primary>  (7) 
energy

$$$$
7:0
     RDKit          3D

 46 49  0  0  0  0  0  0  0  0999 V2000
   57.8190   31.5020   55.0510 C   0  0  0  0  0  0  0  0  0  0  0  0
   57.6310   30.9580   53.7480 O   0  0  0  0  0  0  0  0  0  0  0  0
   58.1990   31.4880   52.5780 C   0  0  0  0  0  0  0  0  0  0  0  0
   59.3960   32.2400   52.6040 C   0  0  0  0  0  0  0  0  0  0  0  0
   59.9030   32.7440   51.4090 C   0  0  0  0  0  0  0  0  0  0  0  0
   59.2520   32.5190   50.2090 C   0  0  0  0  0  0  0  0  0  0  0  0
   58.0850   31.7590   50.1470 C   0  0  0  0  0  0  0  0  0  0  0  0
   57.5450   31.2430   51.3480 C   0  0  0  0  0  0  0  0  0  0  0  0
   56.3670   30.4800   51.3610 O   0  0  0  0  0  0  0  0  0  0  0  0
   55.1610   30.8720   52.0090 C   0  0  0  0  0  0  0  0  0  0  0  0
   60.0470   33.1320   49.1570 C   0  0  0  0  0  0  0  0  0  0  0  0
   61.1710   33.6530   49.7230 C   0  0  0  0  0  0  0  0  0  0  0  0
   62.1650   33.4680   48.7770 C   0  0  0  0  0  0  0  0  0  0  0  0
   63.6040   33.7030   48.9540 C   0  0  0  0  0  0  0  0  0  0  0  0
   64.5100   33.4670   47.8780 N   0  0  0  0  0  0  0  0  0  0  0  0
   64.0430   34.1040   50.0640 O   0  0  0  0  0  0  0  0  0  0  0  0
   61.6290   32.8770   47.6840 N   0  0  0  0  0  0  0  0  0  0  0  0
   60.3400   32.6640   47.9260 N   0  0  0  0  0  0  0  0  0  0  0  0
   59.4660   31.9770   47.0200 C   0  0  0  0  0  0  0  0  0  0  0  0
   59.4030   30.5750   47.0200 C   0  0  0  0  0  0  0  0  0  0  0  0
   58.5440   29.9080   46.1420 C   0  0  0  0  0  0  0  0  0  0  0  0
   57.7230   30.6360   45.2710 C   0  0  0  0  0  0  0  0  0  0  0  0
   56.6610   29.7940   44.1460 S   0  0  0  0  0  0  0  0  0  0  0  0
   57.4830   28.4170   43.5020 N   0  0  0  0  0  0  0  0  0  0  0  0
   56.2670   30.7190   43.0270 O   0  0  0  0  0  0  0  0  0  0  0  0
   55.4170   29.3470   44.8620 O   0  0  0  0  0  0  0  0  0  0  0  0
   57.7710   32.0360   45.2820 C   0  0  0  0  0  0  0  0  0  0  0  0
   58.6310   32.7040   46.1590 C   0  0  0  0  0  0  0  0  0  0  0  0
   61.1970   33.4860   51.2130 C   0  0  0  0  0  0  0  0  0  0  0  0
   57.5575   30.7454   55.8054 H   0  0  0  0  0  0  0  0  0  0  0  0
   58.8712   31.7970   55.1769 H   0  0  0  0  0  0  0  0  0  0  0  0
   57.1734   32.3837   55.1769 H   0  0  0  0  0  0  0  0  0  0  0  0
   59.9190   32.4242   53.5540 H   0  0  0  0  0  0  0  0  0  0  0  0
   57.5935   31.5643   49.1824 H   0  0  0  0  0  0  0  0  0  0  0  0
   55.2993   30.8271   53.0993 H   0  0  0  0  0  0  0  0  0  0  0  0
   54.9037   31.9000   51.7141 H   0  0  0  0  0  0  0  0  0  0  0  0
   54.3484   30.1917   51.7141 H   0  0  0  0  0  0  0  0  0  0  0  0
   64.5150   32.5540   47.3720 H   0  0  0  0  0  0  0  0  0  0  0  0
   60.0324   29.9985   47.7140 H   0  0  0  0  0  0  0  0  0  0  0  0
   58.5125   28.8085   46.1349 H   0  0  0  0  0  0  0  0  0  0  0  0
   58.1170   28.7670   42.7480 H   0  0  0  0  0  0  0  0  0  0  0  0
   56.7620   27.8210   43.0370 H   0  0  0  0  0  0  0  0  0  0  0  0
   57.1299   32.6118   44.5983 H   0  0  0  0  0  0  0  0  0  0  0  0
   58.6528   33.8037   46.1737 H   0  0  0  0  0  0  0  0  0  0  0  0
   62.0627   32.8933   51.5433 H   0  0  0  0  0  0  0  0  0  0  0  0
   61.2888   34.4212   51.7849 H   0  0  0  0  0  0  0  0  0  0  0  0
  1  2  1  0
  2  3  1  0
  3  4  2  0
  4  5  1  0
  5  6  2  0
  6  7  1  0
  7  8  2  0
  8  9  1  0
  9 10  1  0
  6 11  1  0
 11 12  2  0
 12 13  1  0
 13 14  1  0
 14 15  1  0
 14 16  2  0
 13 17  2  0
 17 18  1  0
 18 19  1  0
 19 20  2  0
 20 21  1  0
 21 22  2  0
 22 23  1  0
 23 24  1  0
 23 25  2  0
 23 26  2  0
 22 27  1  0
 27 28  2  0
 12 29  1  0
  8  3  1  0
 18 11  1  0
 28 19  1  0
 29  5  1  0
  1 30  1  0
  1 31  1  0
  1 32  1  0
  4 33  1  0
  7 34  1  0
 10 35  1  0
 10 36  1  0
 10 37  1  0
 15 38  1  0
 20 39  1  0
 21 40  1  0
 24 41  1  0
 24 42  1  0
 27 43  1  0
 28 44  1  0
 29 45  1  0
 29 46  1  0
M  CHG  1  15  -1
M  END
>  <UniqueID>  (8) 
8

>  <SMILES>  (8) 
COc1cc2c(cc1OC)-c1c(c(C([NH-])=O)nn1-c1ccc(S(N)(=O)=O)cc1)C2

>  <Energy>  (8) 
121.15517099153314

>  <Genealogy>  (8) 
COc1cc2c(cc1OC)-c1c(c(C([NH-])=O)nn1-c1ccc(S(N)(=O)=O)cc1)C2 (protonated)
COc1cc2c(cc1OC)-c1c(c(C([NH-])=O)nn1-c1ccc(S(N)(=O)=O)cc1)C2 (3D coordinates assigned)
COc1cc2c(cc1OC)-c1c(c(C([NH-])=O)nn1-c1ccc(S(N)(=O)=O)cc1)C2 (nonaromatic ring conformer: 121.15517099153314 kcal/mol)

>  <smiles>  (8) 
COc1cc2c(cc1OC)-c1c(c(C(N)=O)nn1-c1ccc(S(N)(=O)=O)cc1)C2

>  <score_type>  (8) 
oracle

>  <origin>  (8) 
adg

>  <m_score__min__energy>  (8) 
-8.9800000000000004

>  <m_primary>  (8) 
energy

$$$$
8:0
     RDKit          3D

 41 42  0  0  0  0  0  0  0  0999 V2000
   60.7140   27.8500   49.3910 C   0  0  0  0  0  0  0  0  0  0  0  0
   60.7790   27.7060   47.9740 O   0  0  0  0  0  0  0  0  0  0  0  0
   60.0020   28.4420   47.0680 C   0  0  0  0  0  0  0  0  0  0  0  0
   59.0410   29.3210   47.5790 C   0  0  0  0  0  0  0  0  0  0  0  0
   58.2370   30.0730   46.7170 C   0  0  0  0  0  0  0  0  0  0  0  0
   58.3820   29.9650   45.3210 C   0  0  0  0  0  0  0  0  0  0  0  0
   57.5210   30.7770   44.4180 C   0  0  0  0  0  0  0  0  0  0  0  0
   56.2660   30.6790   44.5070 O   0  0  0  0  0  0  0  0  0  0  0  0
   58.1020   31.7580   43.4330 C   0  0  0  0  0  0  0  0  0  0  0  0
   57.6070   33.0770   43.6630 O   0  0  0  0  0  0  0  0  0  0  0  0
   57.7570   33.7480   44.8810 C   0  0  0  0  0  0  0  0  0  0  0  0
   56.8580   33.6920   45.7620 O   0  0  0  0  0  0  0  0  0  0  0  0
   58.9860   34.5680   45.1250 C   0  0  0  0  0  0  0  0  0  0  0  0
   59.2040   34.8310   46.6190 C   0  0  0  0  0  0  0  0  0  0  0  0
   59.2460   33.2900   47.6080 S   0  0  0  0  0  0  0  0  0  0  0  0
   61.0090   33.0080   47.4140 C   0  0  0  0  0  0  0  0  0  0  0  0
   61.8060   33.9600   46.7670 C   0  0  0  0  0  0  0  0  0  0  0  0
   63.1800   33.7410   46.6220 C   0  0  0  0  0  0  0  0  0  0  0  0
   63.7620   32.5780   47.1350 C   0  0  0  0  0  0  0  0  0  0  0  0
   62.9700   31.6310   47.7920 C   0  0  0  0  0  0  0  0  0  0  0  0
   61.5960   31.8470   47.9350 C   0  0  0  0  0  0  0  0  0  0  0  0
   59.3570   29.0840   44.8100 C   0  0  0  0  0  0  0  0  0  0  0  0
   60.1550   28.3280   45.6740 C   0  0  0  0  0  0  0  0  0  0  0  0
   61.1213   26.9476   49.8703 H   0  0  0  0  0  0  0  0  0  0  0  0
   61.3039   28.7263   49.6979 H   0  0  0  0  0  0  0  0  0  0  0  0
   59.6666   27.9872   49.6979 H   0  0  0  0  0  0  0  0  0  0  0  0
   58.9170   29.4213   48.6674 H   0  0  0  0  0  0  0  0  0  0  0  0
   57.4829   30.7565   47.1343 H   0  0  0  0  0  0  0  0  0  0  0  0
   59.1972   31.7631   43.5356 H   0  0  0  0  0  0  0  0  0  0  0  0
   57.8081   31.4482   42.4193 H   0  0  0  0  0  0  0  0  0  0  0  0
   59.8587   34.0297   44.7267 H   0  0  0  0  0  0  0  0  0  0  0  0
   58.8573   35.5373   44.6212 H   0  0  0  0  0  0  0  0  0  0  0  0
   60.1608   35.3582   46.7478 H   0  0  0  0  0  0  0  0  0  0  0  0
   58.3566   35.4336   46.9778 H   0  0  0  0  0  0  0  0  0  0  0  0
   61.3515   34.8807   46.3724 H   0  0  0  0  0  0  0  0  0  0  0  0
   63.8032   34.4847   46.1038 H   0  0  0  0  0  0  0  0  0  0  0  0
   64.8429   32.4078   47.0219 H   0  0  0  0  0  0  0  0  0  0  0  0
   63.4280   30.7162   48.1963 H   0  0  0  0  0  0  0  0  0  0  0  0
   60.9748   31.1045   48.4573 H   0  0  0  0  0  0  0  0  0  0  0  0
   59.4910   28.9906   43.7222 H   0  0  0  0  0  0  0  0  0  0  0  0
   60.9073   27.6397   45.2613 H   0  0  0  0  0  0  0  0  0  0  0  0
  1  2  1  0
  2  3  1  0
  3  4  2  0
  4  5  1  0
  5  6  2  0
  6  7  1  0
  7  8  2  0
  7  9  1  0
  9 10  1  0
 10 11  1  0
 11 12  2  0
 11 13  1  0
 13 14  1  0
 14 15  1  0
 15 16  1  0
 16 17  2  0
 17 18  1  0
 18 19  2  0
 19 20  1  0
 20 21  2  0
  6 22  1  0
 22 23  2  0
 23  3  1  0
 21 16  1  0
  1 24  1  0
  1 25  1  0
  1 26  1  0
  4 27  1  0
  5 28  1  0
  9 29  1  0
  9 30  1  0
 13 31  1  0
 13 32  1  0
 14 33  1  0
 14 34  1  0
 17 35  1  0
 18 36  1  0
 19 37  1  0
 20 38  1  0
 21 39  1  0
 22 40  1  0
 23 41  1  0
M  END
>  <UniqueID>  (9) 
9

>  <SMILES>  (9) 
COc1ccc(C(=O)COC(=O)CCSc2ccccc2)cc1

>  <Energy>  (9) 
34.667289687687216

>  <Genealogy>  (9) 
COc1ccc(C(=O)COC(=O)CCSc2ccccc2)cc1 (3D coordinates assigned)
COc1ccc(C(=O)COC(=O)CCSc2ccccc2)cc1 (optimized conformer: 34.667289687687216 kcal/mol)

>  <smiles>  (9) 
COc1ccc(C(=O)COC(=O)CCSc2ccccc2)cc1

>  <score_type>  (9) 
oracle

>  <origin>  (9) 
adg

>  <m_score__min__energy>  (9) 
-7.0300000000000002

>  <m_primary>  (9) 
energy

$$$$
9:0
     RDKit          3D

 37 38  0  0  0  0  0  0  0  0999 V2000
   57.4940   31.9270   41.8380 C   0  0  0  0  0  0  0  0  0  0  0  0
   58.1170   32.3170   43.1780 C   0  0  0  0  0  0  0  0  0  0  0  0
   57.2220   31.9360   44.3640 C   0  0  0  0  0  0  0  0  0  0  0  0
   58.0090   31.3240   45.4440 N   0  0  0  0  0  0  0  0  0  0  0  0
   58.0890   29.8680   45.5540 C   0  0  0  0  0  0  0  0  0  0  0  0
   59.5240   29.4020   45.3730 C   0  0  0  0  0  0  0  0  0  0  0  0
   60.3130   29.7260   46.5540 N   0  0  0  0  0  0  0  0  0  0  0  0
   60.8270   31.0430   46.7980 C   0  0  0  0  0  0  0  0  0  0  0  0
   62.1810   31.1650   47.1520 C   0  0  0  0  0  0  0  0  0  0  0  0
   62.7450   32.4160   47.4410 C   0  0  0  0  0  0  0  0  0  0  0  0
   64.1330   32.5230   47.8170 N   0  0  0  0  0  0  0  0  0  0  0  0
   64.2600   33.2510   49.0810 C   0  0  0  0  0  0  0  0  0  0  0  0
   61.9280   33.5540   47.4140 C   0  0  0  0  0  0  0  0  0  0  0  0
   60.5760   33.4440   47.0870 C   0  0  0  0  0  0  0  0  0  0  0  0
   60.0050   32.1980   46.7720 C   0  0  0  0  0  0  0  0  0  0  0  0
   58.5510   32.1590   46.4770 C   0  0  0  0  0  0  0  0  0  0  0  0
   57.7830   32.9560   47.0810 O   0  0  0  0  0  0  0  0  0  0  0  0
   56.5738   31.3510   42.0153 H   0  0  0  0  0  0  0  0  0  0  0  0
   57.2533   32.8360   41.2671 H   0  0  0  0  0  0  0  0  0  0  0  0
   58.2065   31.3134   41.2671 H   0  0  0  0  0  0  0  0  0  0  0  0
   59.0832   31.8018   43.2831 H   0  0  0  0  0  0  0  0  0  0  0  0
   58.2438   33.4096   43.1870 H   0  0  0  0  0  0  0  0  0  0  0  0
   56.7285   32.8413   44.7473 H   0  0  0  0  0  0  0  0  0  0  0  0
   56.4751   31.2061   44.0185 H   0  0  0  0  0  0  0  0  0  0  0  0
   57.7299   29.5591   46.5468 H   0  0  0  0  0  0  0  0  0  0  0  0
   57.4649   29.4157   44.7692 H   0  0  0  0  0  0  0  0  0  0  0  0
   59.5351   28.3132   45.2166 H   0  0  0  0  0  0  0  0  0  0  0  0
   59.9588   29.9122   44.5009 H   0  0  0  0  0  0  0  0  0  0  0  0
   60.7390   28.9270   47.0760 H   0  0  0  0  0  0  0  0  0  0  0  0
   62.8096   30.2638   47.2034 H   0  0  0  0  0  0  0  0  0  0  0  0
   64.6700   33.0270   47.0740 H   0  0  0  0  0  0  0  0  0  0  0  0
   64.5510   31.5690   47.9250 H   0  0  0  0  0  0  0  0  0  0  0  0
   64.1379   32.5513   49.9210 H   0  0  0  0  0  0  0  0  0  0  0  0
   65.2535   33.7200   49.1358 H   0  0  0  0  0  0  0  0  0  0  0  0
   63.4840   34.0287   49.1358 H   0  0  0  0  0  0  0  0  0  0  0  0
   62.3548   34.5395   47.6519 H   0  0  0  0  0  0  0  0  0  0  0  0
   59.9468   34.3462   47.0754 H   0  0  0  0  0  0  0  0  0  0  0  0
  1  2  1  0
  2  3  1  0
  3  4  1  0
  4  5  1  0
  5  6  1  0
  6  7  1  0
  7  8  1  0
  8  9  2  0
  9 10  1  0
 10 11  1  0
 11 12  1  0
 10 13  2  0
 13 14  1  0
 14 15  2  0
 15 16  1  0
 16 17  2  0
 16  4  1  0
 15  8  1  0
  1 18  1  0
  1 19  1  0
  1 20  1  0
  2 21  1  0
  2 22  1  0
  3 23  1  0
  3 24  1  0
  5 25  1  0
  5 26  1  0
  6 27  1  0
  6 28  1  0
  7 29  1  0
  9 30  1  0
 11 31  1  0
 11 32  1  0
 12 33  1  0
 12 34  1  0
 12 35  1  0
 13 36  1  0
 14 37  1  0
M  CHG  1  11   1
M  END
>  <UniqueID>  (10) 
10

>  <SMILES>  (10) 
CCCN1CCNc2cc([NH2+]C)ccc2C1=O

>  <Energy>  (10) 
41.85444119234613

>  <Genealogy>  (10) 
CCCN1CCNc2cc([NH2+]C)ccc2C1=O (protonated)
CCCN1CCNc2cc([NH2+]C)ccc2C1=O (3D coordinates assigned)
CCCN1CCNc2cc([NH2+]C)ccc2C1=O (nonaromatic ring conformer: 41.85444119234613 kcal/mol)

>  <smiles>  (10) 
CCCN1CCNc2cc(NC)ccc2C1=O

>  <score_type>  (10) 
oracle

>  <origin>  (10) 
adg

>  <m_score__min__energy>  (10) 
-3.1600000000000001

>  <m_primary>  (10) 
energy

$$$$
10:0
     RDKit          3D

 52 54  0  0  0  0  0  0  0  0999 V2000
   63.2830   33.8280   46.3990 C   0  0  0  0  0  0  0  0  0  0  0  0
   62.7550   32.5690   47.0970 C   0  0  0  0  0  0  0  0  0  0  0  0
   62.4790   32.7750   48.5440 N   0  0  0  0  0  0  0  0  0  0  0  0
   63.5710   32.3290   49.4540 C   0  0  0  0  0  0  0  0  0  0  0  0
   63.1900   31.2120   50.4300 C   0  0  0  0  0  0  0  0  0  0  0  0
   61.9730   34.1430   48.8650 C   0  0  0  0  0  0  0  0  0  0  0  0
   60.5070   34.2150   49.3540 C   0  0  0  0  0  0  0  0  0  0  0  0
   60.2490   33.1680   50.2700 O   0  0  0  0  0  0  0  0  0  0  0  0
   59.2310   32.3190   49.7820 C   0  0  0  0  0  0  0  0  0  0  0  0
   59.8570   31.0110   49.3100 C   0  0  0  0  0  0  0  0  0  0  0  0
   59.9920   31.0440   47.8580 N   0  0  0  0  0  0  0  0  0  0  0  0
   59.1370   30.9350   46.8700 C   0  0  0  0  0  0  0  0  0  0  0  0
   58.7890   32.1410   46.2050 C   0  0  0  0  0  0  0  0  0  0  0  0
   59.4330   33.3680   46.4940 C   0  0  0  0  0  0  0  0  0  0  0  0
   59.0550   34.5440   45.8400 C   0  0  0  0  0  0  0  0  0  0  0  0
   58.0300   34.5230   44.8960 C   0  0  0  0  0  0  0  0  0  0  0  0
   57.3780   33.3250   44.6000 C   0  0  0  0  0  0  0  0  0  0  0  0
   57.7520   32.1400   45.2460 C   0  0  0  0  0  0  0  0  0  0  0  0
   57.1000   30.9940   44.9520 N   0  0  0  0  0  0  0  0  0  0  0  0
   57.4230   29.8070   45.5170 C   0  0  0  0  0  0  0  0  0  0  0  0
   56.7050   28.6710   45.1250 C   0  0  0  0  0  0  0  0  0  0  0  0
   57.0410   27.4190   45.6280 C   0  0  0  0  0  0  0  0  0  0  0  0
   58.1110   27.2900   46.5050 C   0  0  0  0  0  0  0  0  0  0  0  0
   58.8350   28.4160   46.9100 C   0  0  0  0  0  0  0  0  0  0  0  0
   58.4810   29.7170   46.4680 C   0  0  0  0  0  0  0  0  0  0  0  0
   63.5918   34.5644   47.1555 H   0  0  0  0  0  0  0  0  0  0  0  0
   64.1462   33.5640   45.7704 H   0  0  0  0  0  0  0  0  0  0  0  0
   62.4897   34.2587   45.7704 H   0  0  0  0  0  0  0  0  0  0  0  0
   61.8217   32.2606   46.6032 H   0  0  0  0  0  0  0  0  0  0  0  0
   63.5368   31.7991   47.0191 H   0  0  0  0  0  0  0  0  0  0  0  0
   61.6770   32.1380   48.7710 H   0  0  0  0  0  0  0  0  0  0  0  0
   64.4053   31.9694   48.8339 H   0  0  0  0  0  0  0  0  0  0  0  0
   63.8283   33.2011   50.0730 H   0  0  0  0  0  0  0  0  0  0  0  0
   63.3121   31.5701   51.4629 H   0  0  0  0  0  0  0  0  0  0  0  0
   62.1420   30.9217   50.2641 H   0  0  0  0  0  0  0  0  0  0  0  0
   63.8422   30.3418   50.2641 H   0  0  0  0  0  0  0  0  0  0  0  0
   62.6139   34.5647   49.6533 H   0  0  0  0  0  0  0  0  0  0  0  0
   62.0032   34.7048   47.9198 H   0  0  0  0  0  0  0  0  0  0  0  0
   60.3355   35.1822   49.8490 H   0  0  0  0  0  0  0  0  0  0  0  0
   59.8335   34.1125   48.4904 H   0  0  0  0  0  0  0  0  0  0  0  0
   58.5071   32.1127   50.5842 H   0  0  0  0  0  0  0  0  0  0  0  0
   58.7123   32.8060   48.9431 H   0  0  0  0  0  0  0  0  0  0  0  0
   60.8490   30.8903   49.7697 H   0  0  0  0  0  0  0  0  0  0  0  0
   59.2168   30.1661   49.6039 H   0  0  0  0  0  0  0  0  0  0  0  0
   60.2396   33.3963   47.2413 H   0  0  0  0  0  0  0  0  0  0  0  0
   59.5682   35.4891   46.0711 H   0  0  0  0  0  0  0  0  0  0  0  0
   57.7348   35.4508   44.3841 H   0  0  0  0  0  0  0  0  0  0  0  0
   56.5674   33.3115   43.8566 H   0  0  0  0  0  0  0  0  0  0  0  0
   55.8704   28.7693   44.4152 H   0  0  0  0  0  0  0  0  0  0  0  0
   56.4609   26.5324   45.3322 H   0  0  0  0  0  0  0  0  0  0  0  0
   58.3905   26.2956   46.8833 H   0  0  0  0  0  0  0  0  0  0  0  0
   59.6952   28.2906   47.5840 H   0  0  0  0  0  0  0  0  0  0  0  0
  1  2  1  0
  2  3  1  0
  3  4  1  0
  4  5  1  0
  3  6  1  0
  6  7  1  0
  7  8  1  0
  8  9  1  0
  9 10  1  0
 10 11  1  0
 11 12  2  3
 12 13  1  0
 13 14  2  0
 14 15  1  0
 15 16  2  0
 16 17  1  0
 17 18  2  0
 18 19  1  0
 19 20  1  0
 20 21  2  0
 21 22  1  0
 22 23  2  0
 23 24  1  0
 24 25  2  0
 25 12  1  0
 18 13  1  0
 25 20  1  0
  1 26  1  0
  1 27  1  0
  1 28  1  0
  2 29  1  0
  2 30  1  0
  3 31  1  0
  4 32  1  0
  4 33  1  0
  5 34  1  0
  5 35  1  0
  5 36  1  0
  6 37  1  0
  6 38  1  0
  7 39  1  0
  7 40  1  0
  9 41  1  0
  9 42  1  0
 10 43  1  0
 10 44  1  0
 14 45  1  0
 15 46  1  0
 16 47  1  0
 17 48  1  0
 21 49  1  0
 22 50  1  0
 23 51  1  0
 24 52  1  0
M  CHG  2   3   1  19  -1
M  END
>  <UniqueID>  (11) 
11

>  <SMILES>  (11) 
CC[NH+](CC)CCOCCN=c1c2ccccc2[n-]c2ccccc12

>  <Energy>  (11) 
84.05469826698265

>  <Genealogy>  (11) 
CC[NH+](CC)CCOCCN=c1c2ccccc2[n-]c2ccccc12 (protonated)
CC[NH+](CC)CCOCCN=c1c2ccccc2[n-]c2ccccc12 (3D coordinates assigned)
CC[NH+](CC)CCOCCN=c1c2ccccc2[n-]c2ccccc12 (optimized conformer: 84.05469826698265 kcal/mol)

>  <smiles>  (11) 
CCN(CC)CCOCCN=c1c2ccccc2[nH]c2ccccc12

>  <score_type>  (11) 
oracle

>  <origin>  (11) 
adg

>  <m_score__min__energy>  (11) 
-6.1500000000000004

>  <m_primary>  (11) 
energy

$$$$
11:0
     RDKit          3D

 28 30  0  0  0  0  0  0  0  0999 V2000
   65.3940   32.1510   49.9600 N   0  0  0  0  0  0  0  0  0  0  0  0
   64.5070   32.4650   49.2850 C   0  0  0  0  0  0  0  0  0  0  0  0
   63.4040   32.8550   48.4470 C   0  0  0  0  0  0  0  0  0  0  0  0
   63.6390   33.4660   47.1950 C   0  0  0  0  0  0  0  0  0  0  0  0
   62.5620   33.8470   46.3780 C   0  0  0  0  0  0  0  0  0  0  0  0
   61.2770   33.5990   46.8530 C   0  0  0  0  0  0  0  0  0  0  0  0
   60.1200   33.8880   46.2310 N   0  0  0  0  0  0  0  0  0  0  0  0
   59.2170   33.4360   47.1410 C   0  0  0  0  0  0  0  0  0  0  0  0
   57.4490   33.5500   46.9030 S   0  0  0  0  0  0  0  0  0  0  0  0
   57.5290   32.7180   45.3210 C   0  0  0  0  0  0  0  0  0  0  0  0
   58.0980   33.3570   44.2150 C   0  0  0  0  0  0  0  0  0  0  0  0
   58.1410   32.6910   42.9900 C   0  0  0  0  0  0  0  0  0  0  0  0
   57.6200   31.3990   42.8810 C   0  0  0  0  0  0  0  0  0  0  0  0
   57.0590   30.7860   44.0110 C   0  0  0  0  0  0  0  0  0  0  0  0
   56.4910   29.4010   43.9190 C   0  0  0  0  0  0  0  0  0  0  0  0
   56.4010   29.0230   42.5910 F   0  0  0  0  0  0  0  0  0  0  0  0
   57.3140   28.5140   44.5900 F   0  0  0  0  0  0  0  0  0  0  0  0
   55.2290   29.3540   44.4840 F   0  0  0  0  0  0  0  0  0  0  0  0
   57.0280   31.4590   45.1950 N   0  0  0  0  0  0  0  0  0  0  0  0
   59.7830   32.9040   48.2500 N   0  0  0  0  0  0  0  0  0  0  0  0
   61.0790   33.0200   48.0420 N   0  0  0  0  0  0  0  0  0  0  0  0
   62.0820   32.6340   48.8680 C   0  0  0  0  0  0  0  0  0  0  0  0
   64.6709   33.6443   46.8583 H   0  0  0  0  0  0  0  0  0  0  0  0
   62.7274   34.3231   45.4003 H   0  0  0  0  0  0  0  0  0  0  0  0
   58.5072   34.3736   44.3099 H   0  0  0  0  0  0  0  0  0  0  0  0
   58.5843   33.1821   42.1112 H   0  0  0  0  0  0  0  0  0  0  0  0
   57.6495   30.8678   41.9182 H   0  0  0  0  0  0  0  0  0  0  0  0
   61.8675   32.1622   49.8382 H   0  0  0  0  0  0  0  0  0  0  0  0
  1  2  3  0
  2  3  1  0
  3  4  1  0
  4  5  2  0
  5  6  1  0
  6  7  2  0
  7  8  1  0
  8  9  1  0
  9 10  1  0
 10 11  2  0
 11 12  1  0
 12 13  2  0
 13 14  1  0
 14 15  1  0
 15 16  1  0
 15 17  1  0
 15 18  1  0
 14 19  2  0
  8 20  2  0
 20 21  1  0
 21 22  1  0
 22  3  2  0
 21  6  1  0
 19 10  1  0
  4 23  1  0
  5 24  1  0
 11 25  1  0
 12 26  1  0
 13 27  1  0
 22 28  1  0
M  END
>  <UniqueID>  (12) 
12

>  <SMILES>  (12) 
N#Cc1ccc2nc(Sc3cccc(C(F)(F)F)n3)nn2c1

>  <Energy>  (12) 
64.06105699430348

>  <Genealogy>  (12) 
N#Cc1ccc2nc(Sc3cccc(C(F)(F)F)n3)nn2c1 (3D coordinates assigned)
N#Cc1ccc2nc(Sc3cccc(C(F)(F)F)n3)nn2c1 (optimized conformer: 64.06105699430348 kcal/mol)

>  <smiles>  (12) 
N#Cc1ccc2nc(Sc3cccc(C(F)(F)F)n3)nn2c1

>  <score_type>  (12) 
oracle

>  <origin>  (12) 
adg

>  <m_score__min__energy>  (12) 
-7.29

>  <m_primary>  (12) 
energy

$$$$
12:0
     RDKit          3D

 44 46  0  0  0  0  0  0  0  0999 V2000
   58.5120   29.4800   44.5450 C   0  0  0  0  0  0  0  0  0  0  0  0
   57.0610   29.9010   44.3060 C   0  0  0  0  0  0  0  0  0  0  0  0
   56.7630   31.2290   44.8630 N   0  0  0  0  0  0  0  0  0  0  0  0
   57.3990   32.3330   44.1180 C   0  0  0  0  0  0  0  0  0  0  0  0
   57.6630   33.5540   45.0110 C   0  0  0  0  0  0  0  0  0  0  0  0
   58.5670   33.1960   46.0980 N   0  0  0  0  0  0  0  0  0  0  0  0
   59.8970   33.4100   46.1230 C   0  0  0  0  0  0  0  0  0  0  0  0
   60.3870   32.8640   47.2890 C   0  0  0  0  0  0  0  0  0  0  0  0
   61.7780   32.8520   47.7490 C   0  0  0  0  0  0  0  0  0  0  0  0
   62.1460   32.7140   49.0420 N   0  0  0  0  0  0  0  0  0  0  0  0
   63.4920   32.7680   48.9460 C   0  0  0  0  0  0  0  0  0  0  0  0
   64.4260   32.6090   50.1120 C   0  0  2  0  0  0  0  0  0  0  0  0
   65.8420   33.0440   49.7500 C   0  0  0  0  0  0  0  0  0  0  0  0
   66.7560   32.0760   50.4850 C   0  0  0  0  0  0  0  0  0  0  0  0
   65.8350   31.0520   51.1350 C   0  0  0  0  0  0  0  0  0  0  0  0
   64.5150   31.2010   50.5150 N   0  0  0  0  0  0  0  0  0  0  0  0
   63.4350   30.8220   51.4410 C   0  0  0  0  0  0  0  0  0  0  0  0
   63.8950   32.9130   47.6720 N   0  0  0  0  0  0  0  0  0  0  0  0
   62.8170   32.9670   46.9560 O   0  0  0  0  0  0  0  0  0  0  0  0
   59.2910   32.3190   47.9320 C   0  0  0  0  0  0  0  0  0  0  0  0
   58.1930   32.5270   47.1790 N   0  0  0  0  0  0  0  0  0  0  0  0
   58.7042   29.4242   45.6266 H   0  0  0  0  0  0  0  0  0  0  0  0
   58.6874   28.4939   44.0901 H   0  0  0  0  0  0  0  0  0  0  0  0
   59.1879   30.2191   44.0901 H   0  0  0  0  0  0  0  0  0  0  0  0
   56.8734   29.9224   43.2223 H   0  0  0  0  0  0  0  0  0  0  0  0
   56.4125   29.1716   44.8133 H   0  0  0  0  0  0  0  0  0  0  0  0
   57.0060   31.2510   45.8820 H   0  0  0  0  0  0  0  0  0  0  0  0
   58.3566   31.9793   43.7082 H   0  0  0  0  0  0  0  0  0  0  0  0
   56.7120   32.6413   43.3161 H   0  0  0  0  0  0  0  0  0  0  0  0
   58.1181   34.3536   44.4082 H   0  0  0  0  0  0  0  0  0  0  0  0
   56.7097   33.9010   45.4361 H   0  0  0  0  0  0  0  0  0  0  0  0
   60.4857   33.9276   45.3512 H   0  0  0  0  0  0  0  0  0  0  0  0
   64.0225   33.2331   50.9230 H   0  0  0  0  0  0  0  0  0  0  0  0
   66.0009   32.9754   48.6637 H   0  0  0  0  0  0  0  0  0  0  0  0
   66.0364   34.0890   50.0333 H   0  0  0  0  0  0  0  0  0  0  0  0
   67.4398   31.5828   49.7785 H   0  0  0  0  0  0  0  0  0  0  0  0
   67.3789   32.5924   51.2302 H   0  0  0  0  0  0  0  0  0  0  0  0
   66.2198   30.0360   50.9627 H   0  0  0  0  0  0  0  0  0  0  0  0
   65.7766   31.2135   52.2215 H   0  0  0  0  0  0  0  0  0  0  0  0
   63.7815   30.9436   52.4779 H   0  0  0  0  0  0  0  0  0  0  0  0
   62.5609   31.4671   51.2685 H   0  0  0  0  0  0  0  0  0  0  0  0
   63.1557   29.7721   51.2685 H   0  0  0  0  0  0  0  0  0  0  0  0
   64.8730   32.9660   47.3090 H   0  0  0  0  0  0  0  0  0  0  0  0
   59.3120   31.7996   48.9014 H   0  0  0  0  0  0  0  0  0  0  0  0
  1  2  1  0
  2  3  1  0
  3  4  1  0
  4  5  1  0
  5  6  1  0
  6  7  1  0
  7  8  2  0
  8  9  1  0
  9 10  2  0
 10 11  1  0
 11 12  1  0
 12 13  1  0
 13 14  1  0
 14 15  1  0
 15 16  1  0
 16 17  1  0
 11 18  2  0
 18 19  1  0
  8 20  1  0
 20 21  2  0
 21  6  1  0
 19  9  1  0
 16 12  1  0
  1 22  1  0
  1 23  1  0
  1 24  1  0
  2 25  1  0
  2 26  1  0
  3 27  1  0
  4 28  1  0
  4 29  1  0
  5 30  1  0
  5 31  1  0
  7 32  1  0
 12 33  1  1
 13 34  1  0
 13 35  1  0
 14 36  1  0
 14 37  1  0
 15 38  1  0
 15 39  1  0
 17 40  1  0
 17 41  1  0
 17 42  1  0
 18 43  1  0
 20 44  1  0
M  CHG  1  18   1
M  END
>  <UniqueID>  (13) 
13

>  <SMILES>  (13) 
CCNCCn1cc(-c2nc([C@@H]3CCCN3C)[nH+]o2)cn1

>  <Energy>  (13) 
106.34431434009852

>  <Genealogy>  (13) 
CCNCCn1cc(-c2nc(C3CCCN3C)[nH+]o2)cn1 (protonated)
CCNCCn1cc(-c2nc([C@@H]3CCCN3C)[nH+]o2)cn1 (chirality)
CCNCCn1cc(-c2nc([C@@H]3CCCN3C)[nH+]o2)cn1 (3D coordinates assigned)
CCNCCn1cc(-c2nc([C@@H]3CCCN3C)[nH+]o2)cn1 (nonaromatic ring conformer: 106.34431434009852 kcal/mol)

>  <smiles>  (13) 
CCNCCn1cc(-c2nc(C3CCCN3C)no2)cn1

>  <score_type>  (13) 
oracle

>  <origin>  (13) 
adg

>  <m_score__min__energy>  (13) 
-5.8399999999999999

>  <m_primary>  (13) 
energy

$$$$
13:0
     RDKit          3D

 35 36  0  0  0  0  0  0  0  0999 V2000
   58.7800   28.9020   44.7950 C   0  0  0  0  0  0  0  0  0  0  0  0
   57.3990   29.1210   45.4330 C   0  0  0  0  0  0  0  0  0  0  0  0
   56.6260   30.2310   44.8280 N   0  0  0  0  0  0  0  0  0  0  0  0
   55.4600   29.7430   44.0700 C   0  0  0  0  0  0  0  0  0  0  0  0
   57.4700   31.1450   44.0280 C   0  0  0  0  0  0  0  0  0  0  0  0
   57.3650   32.5820   44.5690 C   0  0  0  0  0  0  0  0  0  0  0  0
   57.2240   32.6180   46.0360 N   0  0  0  0  0  0  0  0  0  0  0  0
   58.4200   33.1160   46.6770 C   0  0  0  0  0  0  0  0  0  0  0  0
   58.7410   34.4890   46.6600 C   0  0  0  0  0  0  0  0  0  0  0  0
   59.9180   34.9570   47.2730 C   0  0  0  0  0  0  0  0  0  0  0  0
   60.7770   34.0480   47.9040 C   0  0  0  0  0  0  0  0  0  0  0  0
   60.4360   32.7340   47.9000 N   0  0  0  0  0  0  0  0  0  0  0  0
   61.0660   31.6710   48.4200 C   0  0  0  0  0  0  0  0  0  0  0  0
   62.7220   31.7000   49.3720 Br  0  0  0  0  0  0  0  0  0  0  0  0
   60.2990   30.5540   48.1400 C   0  0  0  0  0  0  0  0  0  0  0  0
   59.1920   30.9180   47.4470 N   0  0  0  0  0  0  0  0  0  0  0  0
   59.3200   32.2570   47.3240 C   0  0  0  0  0  0  0  0  0  0  0  0
   59.5347   28.7823   45.5863 H   0  0  0  0  0  0  0  0  0  0  0  0
   58.7562   27.9964   44.1710 H   0  0  0  0  0  0  0  0  0  0  0  0
   59.0375   29.7705   44.1710 H   0  0  0  0  0  0  0  0  0  0  0  0
   56.8166   28.1942   45.3243 H   0  0  0  0  0  0  0  0  0  0  0  0
   57.5731   29.3902   46.4852 H   0  0  0  0  0  0  0  0  0  0  0  0
   54.6779   29.4157   44.7709 H   0  0  0  0  0  0  0  0  0  0  0  0
   55.0692   30.5531   43.4367 H   0  0  0  0  0  0  0  0  0  0  0  0
   55.7627   28.8960   43.4367 H   0  0  0  0  0  0  0  0  0  0  0  0
   58.5172   30.8126   44.0825 H   0  0  0  0  0  0  0  0  0  0  0  0
   57.1230   31.1300   42.9843 H   0  0  0  0  0  0  0  0  0  0  0  0
   58.2741   33.1335   44.2873 H   0  0  0  0  0  0  0  0  0  0  0  0
   56.4656   33.0412   44.1329 H   0  0  0  0  0  0  0  0  0  0  0  0
   57.0360   31.6470   46.3790 H   0  0  0  0  0  0  0  0  0  0  0  0
   56.3960   33.2010   46.3000 H   0  0  0  0  0  0  0  0  0  0  0  0
   58.0652   35.2006   46.1631 H   0  0  0  0  0  0  0  0  0  0  0  0
   60.1619   36.0295   47.2568 H   0  0  0  0  0  0  0  0  0  0  0  0
   61.7029   34.3897   48.3897 H   0  0  0  0  0  0  0  0  0  0  0  0
   60.5499   29.5246   48.4355 H   0  0  0  0  0  0  0  0  0  0  0  0
  1  2  1  0
  2  3  1  0
  3  4  1  0
  3  5  1  0
  5  6  1  0
  6  7  1  0
  7  8  1  0
  8  9  2  0
  9 10  1  0
 10 11  2  0
 11 12  1  0
 12 13  1  0
 13 14  1  0
 13 15  2  0
 15 16  1  0
 16 17  2  0
 17  8  1  0
 17 12  1  0
  1 18  1  0
  1 19  1  0
  1 20  1  0
  2 21  1  0
  2 22  1  0
  4 23  1  0
  4 24  1  0
  4 25  1  0
  5 26  1  0
  5 27  1  0
  6 28  1  0
  6 29  1  0
  7 30  1  0
  7 31  1  0
  9 32  1  0
 10 33  1  0
 11 34  1  0
 15 35  1  0
M  CHG  1   7   1
M  END
>  <UniqueID>  (14) 
14

>  <SMILES>  (14) 
CCN(C)CC[NH2+]c1cccn2c(Br)cnc12

>  <Energy>  (14) 
71.37071474488305

>  <Genealogy>  (14) 
CCN(C)CC[NH2+]c1cccn2c(Br)cnc12 (protonated)
CCN(C)CC[NH2+]c1cccn2c(Br)cnc12 (3D coordinates assigned)
CCN(C)CC[NH2+]c1cccn2c(Br)cnc12 (optimized conformer: 71.37071474488305 kcal/mol)

>  <smiles>  (14) 
CCN(C)CCNc1cccn2c(Br)cnc12

>  <score_type>  (14) 
oracle

>  <origin>  (14) 
adg

>  <m_score__min__energy>  (14) 
-3.9900000000000002

>  <m_primary>  (14) 
energy

$$$$
14:0
     RDKit          3D

 50 52  0  0  0  0  0  0  0  0999 V2000
   58.8970   34.7330   44.8980 C   0  0  0  0  0  0  0  0  0  0  0  0
   59.8610   35.1370   46.0220 C   0  0  0  0  0  0  0  0  0  0  0  0
   60.4640   33.9910   46.7480 N   0  0  0  0  0  0  0  0  0  0  0  0
   61.9050   33.8370   46.4510 C   0  0  0  0  0  0  0  0  0  0  0  0
   62.6630   33.4100   47.7040 C   0  0  0  0  0  0  0  0  0  0  0  0
   60.2020   33.9970   48.2070 C   0  0  0  0  0  0  0  0  0  0  0  0
   59.2680   32.8440   48.6180 C   0  0  0  0  0  0  0  0  0  0  0  0
   58.4720   32.2670   47.4320 C   0  0  0  0  0  0  0  0  0  0  0  0
   59.3190   31.8450   46.2980 N   0  0  0  0  0  0  0  0  0  0  0  0
   58.9490   30.5290   45.8000 C   0  0  0  0  0  0  0  0  0  0  0  0
   59.3410   29.3100   46.4260 C   0  0  0  0  0  0  0  0  0  0  0  0
   60.1170   29.2900   47.6100 C   0  0  0  0  0  0  0  0  0  0  0  0
   60.4480   28.0920   48.2350 C   0  0  0  0  0  0  0  0  0  0  0  0
   60.0080   26.8850   47.7110 C   0  0  0  0  0  0  0  0  0  0  0  0
   59.2570   26.8620   46.5390 C   0  0  0  0  0  0  0  0  0  0  0  0
   58.9310   28.0570   45.8490 C   0  0  0  0  0  0  0  0  0  0  0  0
   58.2230   28.0260   44.6560 N   0  0  0  0  0  0  0  0  0  0  0  0
   57.9430   26.7480   43.9710 C   0  0  0  0  0  0  0  0  0  0  0  0
   57.7770   29.2070   44.1170 C   0  0  0  0  0  0  0  0  0  0  0  0
   56.9190   29.3460   43.0010 C   0  0  0  0  0  0  0  0  0  0  0  0
   56.6480   30.6700   42.6750 C   0  0  0  0  0  0  0  0  0  0  0  0
   57.4470   31.6690   43.7660 S   0  0  0  0  0  0  0  0  0  0  0  0
   58.1440   30.4250   44.6630 C   0  0  0  0  0  0  0  0  0  0  0  0
   57.9663   34.3429   45.3357 H   0  0  0  0  0  0  0  0  0  0  0  0
   58.6698   35.6116   44.2764 H   0  0  0  0  0  0  0  0  0  0  0  0
   59.3641   33.9549   44.2764 H   0  0  0  0  0  0  0  0  0  0  0  0
   60.6741   35.7327   45.5815 H   0  0  0  0  0  0  0  0  0  0  0  0
   59.2695   35.7014   46.7580 H   0  0  0  0  0  0  0  0  0  0  0  0
   62.0347   33.0726   45.6707 H   0  0  0  0  0  0  0  0  0  0  0  0
   62.3032   34.8020   46.1043 H   0  0  0  0  0  0  0  0  0  0  0  0
   62.1030   33.7255   48.5967 H   0  0  0  0  0  0  0  0  0  0  0  0
   62.7755   32.3158   47.7094 H   0  0  0  0  0  0  0  0  0  0  0  0
   63.6571   33.8808   47.7094 H   0  0  0  0  0  0  0  0  0  0  0  0
   61.1573   33.8910   48.7420 H   0  0  0  0  0  0  0  0  0  0  0  0
   59.7114   34.9470   48.4654 H   0  0  0  0  0  0  0  0  0  0  0  0
   59.8758   32.0394   49.0577 H   0  0  0  0  0  0  0  0  0  0  0  0
   58.5415   33.2479   49.3385 H   0  0  0  0  0  0  0  0  0  0  0  0
   57.9053   31.3933   47.7863 H   0  0  0  0  0  0  0  0  0  0  0  0
   57.8173   33.0702   47.0629 H   0  0  0  0  0  0  0  0  0  0  0  0
   60.3060   31.8030   46.6400 H   0  0  0  0  0  0  0  0  0  0  0  0
   59.3490   32.5710   45.5540 H   0  0  0  0  0  0  0  0  0  0  0  0
   60.4646   30.2392   48.0437 H   0  0  0  0  0  0  0  0  0  0  0  0
   61.0610   28.1017   49.1483 H   0  0  0  0  0  0  0  0  0  0  0  0
   60.2534   25.9430   48.2233 H   0  0  0  0  0  0  0  0  0  0  0  0
   58.9096   25.8975   46.1403 H   0  0  0  0  0  0  0  0  0  0  0  0
   57.7705   25.9608   44.7197 H   0  0  0  0  0  0  0  0  0  0  0  0
   57.0476   26.8579   43.3415 H   0  0  0  0  0  0  0  0  0  0  0  0
   58.8023   26.4734   43.3415 H   0  0  0  0  0  0  0  0  0  0  0  0
   56.5068   28.4906   42.4457 H   0  0  0  0  0  0  0  0  0  0  0  0
   56.0154   31.0081   41.8411 H   0  0  0  0  0  0  0  0  0  0  0  0
  1  2  1  0
  2  3  1  0
  3  4  1  0
  4  5  1  0
  3  6  1  0
  6  7  1  0
  7  8  1  0
  8  9  1  0
  9 10  1  0
 10 11  2  0
 11 12  1  0
 12 13  2  0
 13 14  1  0
 14 15  2  0
 15 16  1  0
 16 17  2  0
 17 18  1  0
 17 19  1  0
 19 20  1  0
 20 21  2  0
 21 22  1  0
 22 23  1  0
 23 10  1  0
 16 11  1  0
 23 19  2  0
  1 24  1  0
  1 25  1  0
  1 26  1  0
  2 27  1  0
  2 28  1  0
  4 29  1  0
  4 30  1  0
  5 31  1  0
  5 32  1  0
  5 33  1  0
  6 34  1  0
  6 35  1  0
  7 36  1  0
  7 37  1  0
  8 38  1  0
  8 39  1  0
  9 40  1  0
  9 41  1  0
 12 42  1  0
 13 43  1  0
 14 44  1  0
 15 45  1  0
 18 46  1  0
 18 47  1  0
 18 48  1  0
 20 49  1  0
 21 50  1  0
M  CHG  2   9   1  17   1
M  END
>  <UniqueID>  (15) 
15

>  <SMILES>  (15) 
CCN(CC)CCC[NH2+]c1c2ccccc2[n+](C)c2ccsc12

>  <Energy>  (15) 
98.72198817779656

>  <Genealogy>  (15) 
CCN(CC)CCC[NH2+]c1c2ccccc2[n+](C)c2ccsc12 (protonated)
CCN(CC)CCC[NH2+]c1c2ccccc2[n+](C)c2ccsc12 (3D coordinates assigned)
CCN(CC)CCC[NH2+]c1c2ccccc2[n+](C)c2ccsc12 (optimized conformer: 98.72198817779656 kcal/mol)

>  <smiles>  (15) 
CCN(CC)CCCNc1c2ccccc2[n+](C)c2ccsc12

>  <score_type>  (15) 
oracle

>  <origin>  (15) 
adg

>  <m_score__min__energy>  (15) 
-3.6099999999999999

>  <m_primary>  (15) 
energy

$$$$
15:0
     RDKit          3D

 35 37  0  0  0  0  0  0  0  0999 V2000
   57.0200   31.0630   42.3860 C   0  0  0  0  0  0  0  0  0  0  0  0
   56.2220   30.0950   43.2530 C   0  0  0  0  0  0  0  0  0  0  0  0
   56.3500   30.4300   44.6360 O   0  0  0  0  0  0  0  0  0  0  0  0
   57.5440   30.7890   45.2830 C   0  0  0  0  0  0  0  0  0  0  0  0
   58.4150   29.8430   45.8560 C   0  0  0  0  0  0  0  0  0  0  0  0
   59.5900   30.2570   46.4880 C   0  0  0  0  0  0  0  0  0  0  0  0
   59.9210   31.6180   46.5370 C   0  0  0  0  0  0  0  0  0  0  0  0
   59.0380   32.5810   45.9960 C   0  0  0  0  0  0  0  0  0  0  0  0
   57.8620   32.1510   45.3640 C   0  0  0  0  0  0  0  0  0  0  0  0
   59.3580   34.0740   46.0370 C   0  0  0  0  0  0  0  0  0  0  0  0
   60.6810   34.4290   46.7670 C   0  0  0  0  0  0  0  0  0  0  0  0
   61.6360   33.3220   46.6180 N   0  0  1  0  0  0  0  0  0  0  0  0
   62.9120   33.4810   47.2410 C   0  0  0  0  0  0  0  0  0  0  0  0
   63.5400   34.5290   47.2170 O   0  0  0  0  0  0  0  0  0  0  0  0
   63.4490   32.2150   47.8180 C   0  0  0  0  0  0  0  0  0  0  0  0
   62.3280   31.2180   47.5020 C   0  0  0  0  0  0  0  0  0  0  0  0
   61.1150   32.1310   47.2920 C   0  0  2  0  0  0  0  0  0  0  0  0
   57.5869   31.7507   43.0307 H   0  0  0  0  0  0  0  0  0  0  0  0
   57.7174   30.4970   41.7510 H   0  0  0  0  0  0  0  0  0  0  0  0
   56.3313   31.6396   41.7510 H   0  0  0  0  0  0  0  0  0  0  0  0
   55.1611   30.1446   42.9665 H   0  0  0  0  0  0  0  0  0  0  0  0
   56.6129   29.0785   43.0985 H   0  0  0  0  0  0  0  0  0  0  0  0
   58.1690   28.7720   45.8058 H   0  0  0  0  0  0  0  0  0  0  0  0
   60.2570   29.5131   46.9482 H   0  0  0  0  0  0  0  0  0  0  0  0
   57.1795   32.8940   44.9256 H   0  0  0  0  0  0  0  0  0  0  0  0
   59.4283   34.4388   45.0017 H   0  0  0  0  0  0  0  0  0  0  0  0
   58.5480   34.5520   46.6075 H   0  0  0  0  0  0  0  0  0  0  0  0
   61.1079   35.3429   46.3282 H   0  0  0  0  0  0  0  0  0  0  0  0
   60.4768   34.5953   47.8350 H   0  0  0  0  0  0  0  0  0  0  0  0
   61.8060   33.1340   45.5990 H   0  0  0  0  0  0  0  0  0  0  0  0
   64.3918   31.9231   47.3323 H   0  0  0  0  0  0  0  0  0  0  0  0
   63.6914   32.2841   48.8887 H   0  0  0  0  0  0  0  0  0  0  0  0
   62.5537   30.6426   46.5921 H   0  0  0  0  0  0  0  0  0  0  0  0
   62.1773   30.4661   48.2906 H   0  0  0  0  0  0  0  0  0  0  0  0
   60.6868   32.2811   48.2941 H   0  0  0  0  0  0  0  0  0  0  0  0
  1  2  1  0
  2  3  1  0
  3  4  1  0
  4  5  2  0
  5  6  1  0
  6  7  2  0
  7  8  1  0
  8  9  2  0
  8 10  1  0
 10 11  1  0
 11 12  1  0
 12 13  1  0
 13 14  2  0
 13 15  1  0
 15 16  1  0
 16 17  1  0
  9  4  1  0
 17 12  1  0
 17  7  1  0
  1 18  1  0
  1 19  1  0
  1 20  1  0
  2 21  1  0
  2 22  1  0
  5 23  1  0
  6 24  1  0
  9 25  1  0
 10 26  1  0
 10 27  1  0
 11 28  1  0
 11 29  1  0
 12 30  1  6
 15 31  1  0
 15 32  1  0
 16 33  1  0
 16 34  1  0
 17 35  1  1
M  CHG  1  12   1
M  END
>  <UniqueID>  (16) 
16

>  <SMILES>  (16) 
CCOc1ccc2c(c1)CC[N@H+]1C(=O)CC[C@H]21

>  <Energy>  (16) 
51.14209632251758

>  <Genealogy>  (16) 
CCOc1ccc2c(c1)CC[NH+]1C(=O)CCC21 (protonated)
CCOc1ccc2c(c1)CC[N@H+]1C(=O)CC[C@H]21 (chirality)
CCOc1ccc2c(c1)CC[N@H+]1C(=O)CC[C@H]21 (3D coordinates assigned)
CCOc1ccc2c(c1)CC[N@H+]1C(=O)CC[C@H]21 (nonaromatic ring conformer: 51.14209632251758 kcal/mol)

>  <smiles>  (16) 
CCOc1ccc2c(c1)CCN1C(=O)CCC21

>  <score_type>  (16) 
oracle

>  <origin>  (16) 
adg

>  <m_score__min__energy>  (16) 
-5.2000000000000002

>  <m_primary>  (16) 
energy

$$$$
16:0
     RDKit          3D

 75 77  0  0  0  0  0  0  0  0999 V2000
   56.4100   23.0230   48.0910 C   0  0  0  0  0  0  0  0  0  0  0  0
   56.5270   24.4490   47.5340 C   0  0  0  0  0  0  0  0  0  0  0  0
   55.5540   24.7760   46.4590 N   0  0  0  0  0  0  0  0  0  0  0  0
   54.5310   23.7240   46.2450 C   0  0  0  0  0  0  0  0  0  0  0  0
   53.4850   24.1620   45.2200 C   0  0  0  0  0  0  0  0  0  0  0  0
   56.2240   25.1710   45.2000 C   0  0  0  0  0  0  0  0  0  0  0  0
   57.5150   25.9370   45.4790 C   0  0  0  0  0  0  0  0  0  0  0  0
   57.2370   27.1050   46.2550 O   0  0  0  0  0  0  0  0  0  0  0  0
   58.2500   27.9830   46.6460 C   0  0  0  0  0  0  0  0  0  0  0  0
   59.0160   27.6640   47.7700 C   0  0  0  0  0  0  0  0  0  0  0  0
   60.0050   28.5340   48.2200 C   0  0  0  0  0  0  0  0  0  0  0  0
   60.2450   29.7540   47.5580 C   0  0  0  0  0  0  0  0  0  0  0  0
   61.3290   30.6660   48.0230 C   0  0  0  0  0  0  0  0  0  0  0  0
   62.0330   31.4770   47.1140 C   0  0  0  0  0  0  0  0  0  0  0  0
   63.0020   32.3810   47.5600 C   0  0  0  0  0  0  0  0  0  0  0  0
   63.3120   32.4700   48.9310 C   0  0  0  0  0  0  0  0  0  0  0  0
   64.2700   33.3650   49.4390 O   0  0  0  0  0  0  0  0  0  0  0  0
   64.3220   33.8600   50.7760 C   0  0  0  0  0  0  0  0  0  0  0  0
   65.6230   33.4380   51.4690 C   0  0  0  0  0  0  0  0  0  0  0  0
   66.5370   32.7100   50.5370 N   0  0  0  0  0  0  0  0  0  0  0  0
   66.6440   31.2690   50.8710 C   0  0  0  0  0  0  0  0  0  0  0  0
   67.6690   30.9960   51.9980 C   0  0  0  0  0  0  0  0  0  0  0  0
   68.0100   32.1890   52.6780 O   0  0  0  0  0  0  0  0  0  0  0  0
   68.6780   33.0700   51.7940 C   0  0  0  0  0  0  0  0  0  0  0  0
   67.8870   33.3160   50.4920 C   0  0  0  0  0  0  0  0  0  0  0  0
   62.6240   31.6520   49.8370 C   0  0  0  0  0  0  0  0  0  0  0  0
   61.6420   30.7620   49.3930 C   0  0  0  0  0  0  0  0  0  0  0  0
   59.4710   30.0670   46.4260 C   0  0  0  0  0  0  0  0  0  0  0  0
   58.5040   29.1750   45.9340 C   0  0  0  0  0  0  0  0  0  0  0  0
   57.8040   29.4730   44.6180 C   0  0  0  0  0  0  0  0  0  0  0  0
   56.6660   30.4160   44.7340 N   0  0  0  0  0  0  0  0  0  0  0  0
   55.5160   30.0600   43.8840 C   0  0  0  0  0  0  0  0  0  0  0  0
   57.0650   31.8160   44.5270 C   0  0  0  0  0  0  0  0  0  0  0  0
   56.4128   23.0574   49.1905 H   0  0  0  0  0  0  0  0  0  0  0  0
   55.4715   22.5684   47.7408 H   0  0  0  0  0  0  0  0  0  0  0  0
   57.2618   22.4215   47.7408 H   0  0  0  0  0  0  0  0  0  0  0  0
   56.3719   25.1549   48.3633 H   0  0  0  0  0  0  0  0  0  0  0  0
   57.5272   24.5259   47.0827 H   0  0  0  0  0  0  0  0  0  0  0  0
   55.0268   22.8114   45.8825 H   0  0  0  0  0  0  0  0  0  0  0  0
   54.0209   23.5381   47.2017 H   0  0  0  0  0  0  0  0  0  0  0  0
   52.5926   24.5357   45.7435 H   0  0  0  0  0  0  0  0  0  0  0  0
   53.9017   24.9612   44.5894 H   0  0  0  0  0  0  0  0  0  0  0  0
   53.2079   23.3043   44.5894 H   0  0  0  0  0  0  0  0  0  0  0  0
   56.4614   24.2665   44.6207 H   0  0  0  0  0  0  0  0  0  0  0  0
   55.5451   25.8263   44.6346 H   0  0  0  0  0  0  0  0  0  0  0  0
   58.2096   25.2889   46.0335 H   0  0  0  0  0  0  0  0  0  0  0  0
   57.9669   26.2399   44.5230 H   0  0  0  0  0  0  0  0  0  0  0  0
   58.8363   26.7187   48.3031 H   0  0  0  0  0  0  0  0  0  0  0  0
   60.6055   28.2660   49.1018 H   0  0  0  0  0  0  0  0  0  0  0  0
   61.8182   31.3988   46.0380 H   0  0  0  0  0  0  0  0  0  0  0  0
   63.5242   33.0252   46.8373 H   0  0  0  0  0  0  0  0  0  0  0  0
   64.2656   34.9584   50.7552 H   0  0  0  0  0  0  0  0  0  0  0  0
   63.4743   33.4407   51.3377 H   0  0  0  0  0  0  0  0  0  0  0  0
   66.1361   34.3370   51.8411 H   0  0  0  0  0  0  0  0  0  0  0  0
   65.3657   32.7592   52.2955 H   0  0  0  0  0  0  0  0  0  0  0  0
   66.1580   32.7710   49.5610 H   0  0  0  0  0  0  0  0  0  0  0  0
   65.6572   30.9082   51.1967 H   0  0  0  0  0  0  0  0  0  0  0  0
   66.9902   30.7420   49.9697 H   0  0  0  0  0  0  0  0  0  0  0  0
   67.2327   30.2858   52.7158 H   0  0  0  0  0  0  0  0  0  0  0  0
   68.5812   30.5790   51.5464 H   0  0  0  0  0  0  0  0  0  0  0  0
   68.8274   34.0336   52.3030 H   0  0  0  0  0  0  0  0  0  0  0  0
   69.6357   32.6038   51.5192 H   0  0  0  0  0  0  0  0  0  0  0  0
   67.7840   34.4005   50.3392 H   0  0  0  0  0  0  0  0  0  0  0  0
   68.4412   32.8471   49.6655 H   0  0  0  0  0  0  0  0  0  0  0  0
   62.8594   31.7109   50.9099 H   0  0  0  0  0  0  0  0  0  0  0  0
   61.1090   30.1312   50.1196 H   0  0  0  0  0  0  0  0  0  0  0  0
   59.6261   31.0292   45.9160 H   0  0  0  0  0  0  0  0  0  0  0  0
   58.5411   29.9057   43.9256 H   0  0  0  0  0  0  0  0  0  0  0  0
   57.3889   28.5200   44.2583 H   0  0  0  0  0  0  0  0  0  0  0  0
   54.6584   29.7945   44.5197 H   0  0  0  0  0  0  0  0  0  0  0  0
   55.2500   30.9178   43.2489 H   0  0  0  0  0  0  0  0  0  0  0  0
   55.7812   29.2019   43.2489 H   0  0  0  0  0  0  0  0  0  0  0  0
   57.2045   32.3055   45.5021 H   0  0  0  0  0  0  0  0  0  0  0  0
   58.0082   31.8487   43.9620 H   0  0  0  0  0  0  0  0  0  0  0  0
   56.2807   32.3411   43.9620 H   0  0  0  0  0  0  0  0  0  0  0  0
  1  2  1  0
  2  3  1  0
  3  4  1  0
  4  5  1  0
  3  6  1  0
  6  7  1  0
  7  8  1  0
  8  9  1  0
  9 10  2  0
 10 11  1  0
 11 12  2  0
 12 13  1  0
 13 14  2  0
 14 15  1  0
 15 16  2  0
 16 17  1  0
 17 18  1  0
 18 19  1  0
 19 20  1  0
 20 21  1  0
 21 22  1  0
 22 23  1  0
 23 24  1  0
 24 25  1  0
 16 26  1  0
 26 27  2  0
 12 28  1  0
 28 29  2  0
 29 30  1  0
 30 31  1  0
 31 32  1  0
 31 33  1  0
 29  9  1  0
 27 13  1  0
 25 20  1  0
  1 34  1  0
  1 35  1  0
  1 36  1  0
  2 37  1  0
  2 38  1  0
  4 39  1  0
  4 40  1  0
  5 41  1  0
  5 42  1  0
  5 43  1  0
  6 44  1  0
  6 45  1  0
  7 46  1  0
  7 47  1  0
 10 48  1  0
 11 49  1  0
 14 50  1  0
 15 51  1  0
 18 52  1  0
 18 53  1  0
 19 54  1  0
 19 55  1  0
 20 56  1  0
 21 57  1  0
 21 58  1  0
 22 59  1  0
 22 60  1  0
 24 61  1  0
 24 62  1  0
 25 63  1  0
 25 64  1  0
 26 65  1  0
 27 66  1  0
 28 67  1  0
 30 68  1  0
 30 69  1  0
 32 70  1  0
 32 71  1  0
 32 72  1  0
 33 73  1  0
 33 74  1  0
 33 75  1  0
M  CHG  1  20   1
M  END
>  <UniqueID>  (17) 
17

>  <SMILES>  (17) 
CCN(CC)CCOc1ccc(-c2ccc(OCC[NH+]3CCOCC3)cc2)cc1CN(C)C

>  <Energy>  (17) 
104.38950237597606

>  <Genealogy>  (17) 
CCN(CC)CCOc1ccc(-c2ccc(OCC[NH+]3CCOCC3)cc2)cc1CN(C)C (protonated)
CCN(CC)CCOc1ccc(-c2ccc(OCC[NH+]3CCOCC3)cc2)cc1CN(C)C (3D coordinates assigned)
CCN(CC)CCOc1ccc(-c2ccc(OCC[NH+]3CCOCC3)cc2)cc1CN(C)C (nonaromatic ring conformer: 104.38950237597606 kcal/mol)

>  <smiles>  (17) 
CCN(CC)CCOc1ccc(-c2ccc(OCCN3CCOCC3)cc2)cc1CN(C)C

>  <score_type>  (17) 
oracle

>  <origin>  (17) 
adg

>  <m_score__min__energy>  (17) 
-6.1799999999999997

>  <m_primary>  (17) 
energy

$$$$
17:0
     RDKit          3D

 58 61  0  0  0  0  0  0  0  0999 V2000
   58.0300   31.1940   51.1150 C   0  0  0  0  0  0  0  0  0  0  0  0
   59.1130   31.2880   50.1970 O   0  0  0  0  0  0  0  0  0  0  0  0
   59.1540   32.1690   49.1060 C   0  0  0  0  0  0  0  0  0  0  0  0
   59.5230   33.5200   49.2440 C   0  0  0  0  0  0  0  0  0  0  0  0
   59.5480   34.3630   48.1300 C   0  0  0  0  0  0  0  0  0  0  0  0
   59.2050   33.8720   46.8630 C   0  0  0  0  0  0  0  0  0  0  0  0
   59.2260   34.7200   45.7450 C   0  0  0  0  0  0  0  0  0  0  0  0
   58.8810   34.2300   44.4860 C   0  0  0  0  0  0  0  0  0  0  0  0
   58.5150   32.8930   44.3270 C   0  0  0  0  0  0  0  0  0  0  0  0
   58.4900   32.0270   45.4280 C   0  0  0  0  0  0  0  0  0  0  0  0
   58.1100   30.6590   45.2290 N   0  0  0  0  0  0  0  0  0  0  0  0
   56.9730   30.3440   44.3650 C   0  0  0  0  0  0  0  0  0  0  0  0
   56.2030   29.1500   44.9320 C   0  0  0  0  0  0  0  0  0  0  0  0
   57.1010   28.0410   45.2910 N   0  0  0  0  0  0  0  0  0  0  0  0
   56.5170   26.7620   45.6040 C   0  0  0  0  0  0  0  0  0  0  0  0
   55.3650   26.7130   46.1160 O   0  0  0  0  0  0  0  0  0  0  0  0
   57.2520   25.4700   45.3510 C   0  0  0  0  0  0  0  0  0  0  0  0
   56.5650   24.6590   44.3220 N   0  0  0  0  0  0  0  0  0  0  0  0
   57.4880   23.6650   43.7180 C   0  0  0  0  0  0  0  0  0  0  0  0
   56.7230   22.5000   43.0730 C   0  0  0  0  0  0  0  0  0  0  0  0
   55.8860   21.7650   44.0530 N   0  0  0  0  0  0  0  0  0  0  0  0
   56.5320   20.5150   44.4800 C   0  0  0  0  0  0  0  0  0  0  0  0
   55.5060   22.5770   45.2310 C   0  0  0  0  0  0  0  0  0  0  0  0
   55.3180   24.0530   44.8550 C   0  0  0  0  0  0  0  0  0  0  0  0
   58.5610   28.2170   45.2380 C   0  0  0  0  0  0  0  0  0  0  0  0
   58.9650   29.5970   45.7720 C   0  0  0  0  0  0  0  0  0  0  0  0
   58.8340   32.5120   46.7100 C   0  0  0  0  0  0  0  0  0  0  0  0
   58.8120   31.6750   47.8430 C   0  0  0  0  0  0  0  0  0  0  0  0
   58.4175   31.2276   52.1439 H   0  0  0  0  0  0  0  0  0  0  0  0
   57.3399   32.0356   50.9554 H   0  0  0  0  0  0  0  0  0  0  0  0
   57.4953   30.2461   50.9554 H   0  0  0  0  0  0  0  0  0  0  0  0
   59.7933   33.9146   50.2346 H   0  0  0  0  0  0  0  0  0  0  0  0
   59.8384   35.4174   48.2481 H   0  0  0  0  0  0  0  0  0  0  0  0
   59.5156   35.7747   45.8623 H   0  0  0  0  0  0  0  0  0  0  0  0
   58.8974   34.9005   43.6142 H   0  0  0  0  0  0  0  0  0  0  0  0
   58.2441   32.5161   43.3297 H   0  0  0  0  0  0  0  0  0  0  0  0
   56.3046   31.2159   44.3095 H   0  0  0  0  0  0  0  0  0  0  0  0
   57.3411   30.0929   43.3593 H   0  0  0  0  0  0  0  0  0  0  0  0
   55.6582   29.4724   45.8316 H   0  0  0  0  0  0  0  0  0  0  0  0
   55.5096   28.7912   44.1571 H   0  0  0  0  0  0  0  0  0  0  0  0
   58.2716   25.6982   45.0069 H   0  0  0  0  0  0  0  0  0  0  0  0
   57.2798   24.8946   46.2881 H   0  0  0  0  0  0  0  0  0  0  0  0
   58.0945   24.1635   42.9475 H   0  0  0  0  0  0  0  0  0  0  0  0
   58.1245   23.2573   44.5172 H   0  0  0  0  0  0  0  0  0  0  0  0
   56.0722   22.8994   42.2812 H   0  0  0  0  0  0  0  0  0  0  0  0
   57.4633   21.7950   42.6670 H   0  0  0  0  0  0  0  0  0  0  0  0
   56.5548   20.4708   45.5789 H   0  0  0  0  0  0  0  0  0  0  0  0
   55.9643   19.6572   44.0903 H   0  0  0  0  0  0  0  0  0  0  0  0
   57.5601   20.4819   44.0903 H   0  0  0  0  0  0  0  0  0  0  0  0
   54.5628   22.1897   45.6438 H   0  0  0  0  0  0  0  0  0  0  0  0
   56.3139   22.5087   45.9744 H   0  0  0  0  0  0  0  0  0  0  0  0
   54.5327   24.1261   44.0882 H   0  0  0  0  0  0  0  0  0  0  0  0
   55.0390   24.6011   45.7670 H   0  0  0  0  0  0  0  0  0  0  0  0
   59.0401   27.4392   45.8507 H   0  0  0  0  0  0  0  0  0  0  0  0
   58.8873   28.1358   44.1906 H   0  0  0  0  0  0  0  0  0  0  0  0
   58.8781   29.5947   46.8686 H   0  0  0  0  0  0  0  0  0  0  0  0
   60.0008   29.7965   45.4599 H   0  0  0  0  0  0  0  0  0  0  0  0
   58.5222   30.6196   47.7329 H   0  0  0  0  0  0  0  0  0  0  0  0
  1  2  1  0
  2  3  1  0
  3  4  2  0
  4  5  1  0
  5  6  2  0
  6  7  1  0
  7  8  2  0
  8  9  1  0
  9 10  2  0
 10 11  1  0
 11 12  1  0
 12 13  1  0
 13 14  1  0
 14 15  1  0
 15 16  2  0
 15 17  1  0
 17 18  1  0
 18 19  1  0
 19 20  1  0
 20 21  1  0
 21 22  1  0
 21 23  1  0
 23 24  1  0
 14 25  1  0
 25 26  1  0
 10 27  1  0
 27 28  2  0
 28  3  1  0
 27  6  1  0
 26 11  1  0
 24 18  1  0
  1 29  1  0
  1 30  1  0
  1 31  1  0
  4 32  1  0
  5 33  1  0
  7 34  1  0
  8 35  1  0
  9 36  1  0
 12 37  1  0
 12 38  1  0
 13 39  1  0
 13 40  1  0
 17 41  1  0
 17 42  1  0
 19 43  1  0
 19 44  1  0
 20 45  1  0
 20 46  1  0
 22 47  1  0
 22 48  1  0
 22 49  1  0
 23 50  1  0
 23 51  1  0
 24 52  1  0
 24 53  1  0
 25 54  1  0
 25 55  1  0
 26 56  1  0
 26 57  1  0
 28 58  1  0
M  END
>  <UniqueID>  (18) 
18

>  <SMILES>  (18) 
COc1ccc2cccc(N3CCN(C(=O)CN4CCN(C)CC4)CC3)c2c1

>  <Energy>  (18) 
81.51760263756474

>  <Genealogy>  (18) 
COc1ccc2cccc(N3CCN(C(=O)CN4CCN(C)CC4)CC3)c2c1 (3D coordinates assigned)
COc1ccc2cccc(N3CCN(C(=O)CN4CCN(C)CC4)CC3)c2c1 (nonaromatic ring conformer: 81.51760263756474 kcal/mol)

>  <smiles>  (18) 
COc1ccc2cccc(N3CCN(C(=O)CN4CCN(C)CC4)CC3)c2c1

>  <score_type>  (18) 
oracle

>  <origin>  (18) 
adg

>  <m_score__min__energy>  (18) 
-8.7599999999999998

>  <m_primary>  (18) 
energy

$$$$
18:0
     RDKit          3D

 46 47  0  0  0  0  0  0  0  0999 V2000
   59.0680   30.1720   48.2920 C   0  0  0  0  0  0  0  0  0  0  0  0
   59.3620   31.4110   47.4410 C   0  0  0  0  0  0  0  0  0  0  0  0
   58.7230   32.6710   47.9120 N   0  0  0  0  0  0  0  0  0  0  0  0
   59.7060   33.7720   48.1380 C   0  0  0  0  0  0  0  0  0  0  0  0
   60.8440   33.8670   47.1070 C   0  0  0  0  0  0  0  0  0  0  0  0
   57.5280   33.0960   47.1340 C   0  0  0  0  0  0  0  0  0  0  0  0
   57.7970   33.2110   45.6230 C   0  0  0  0  0  0  0  0  0  0  0  0
   56.7870   32.4510   44.8760 N   0  0  0  0  0  0  0  0  0  0  0  0
   57.4310   31.5340   43.9300 C   0  0  0  0  0  0  0  0  0  0  0  0
   57.4610   30.1420   44.5100 C   0  0  0  0  0  0  0  0  0  0  0  0
   58.6890   29.5140   44.7610 C   0  0  0  0  0  0  0  0  0  0  0  0
   58.7230   28.2350   45.3300 C   0  0  0  0  0  0  0  0  0  0  0  0
   59.9410   27.5880   45.5800 C   0  0  0  0  0  0  0  0  0  0  0  0
   59.9510   26.3120   46.1470 C   0  0  0  0  0  0  0  0  0  0  0  0
   58.7500   25.6750   46.4710 C   0  0  0  0  0  0  0  0  0  0  0  0
   57.5190   26.3080   46.2300 C   0  0  0  0  0  0  0  0  0  0  0  0
   56.2340   25.6140   46.5860 C   0  0  0  0  0  0  0  0  0  0  0  0
   57.5060   27.5960   45.6560 C   0  0  0  0  0  0  0  0  0  0  0  0
   56.3280   28.2350   45.4190 N   0  0  0  0  0  0  0  0  0  0  0  0
   56.2740   29.4760   44.8660 C   0  0  0  0  0  0  0  0  0  0  0  0
   55.1520   30.0190   44.6810 O   0  0  0  0  0  0  0  0  0  0  0  0
   59.1307   30.4361   49.3580 H   0  0  0  0  0  0  0  0  0  0  0  0
   58.0572   29.8024   48.0646 H   0  0  0  0  0  0  0  0  0  0  0  0
   59.8050   29.3877   48.0646 H   0  0  0  0  0  0  0  0  0  0  0  0
   60.4510   31.5654   47.4299 H   0  0  0  0  0  0  0  0  0  0  0  0
   58.9366   31.2064   46.4474 H   0  0  0  0  0  0  0  0  0  0  0  0
   58.3650   32.4370   48.8700 H   0  0  0  0  0  0  0  0  0  0  0  0
   59.1564   34.7248   48.1247 H   0  0  0  0  0  0  0  0  0  0  0  0
   60.1893   33.5518   49.1013 H   0  0  0  0  0  0  0  0  0  0  0  0
   61.8078   33.9475   47.6311 H   0  0  0  0  0  0  0  0  0  0  0  0
   60.8436   32.9657   46.4764 H   0  0  0  0  0  0  0  0  0  0  0  0
   60.6942   34.7558   46.4764 H   0  0  0  0  0  0  0  0  0  0  0  0
   56.7278   32.3578   47.2913 H   0  0  0  0  0  0  0  0  0  0  0  0
   57.2439   34.0965   47.4923 H   0  0  0  0  0  0  0  0  0  0  0  0
   57.7523   34.2687   45.3241 H   0  0  0  0  0  0  0  0  0  0  0  0
   58.7943   32.8034   45.4008 H   0  0  0  0  0  0  0  0  0  0  0  0
   56.2480   31.8700   45.5630 H   0  0  0  0  0  0  0  0  0  0  0  0
   56.8648   31.5248   42.9869 H   0  0  0  0  0  0  0  0  0  0  0  0
   58.4606   31.8713   43.7401 H   0  0  0  0  0  0  0  0  0  0  0  0
   59.6288   30.0276   44.5102 H   0  0  0  0  0  0  0  0  0  0  0  0
   60.8894   28.0857   45.3294 H   0  0  0  0  0  0  0  0  0  0  0  0
   60.9085   25.8059   46.3395 H   0  0  0  0  0  0  0  0  0  0  0  0
   58.7686   24.6702   46.9182 H   0  0  0  0  0  0  0  0  0  0  0  0
   56.1367   25.5614   47.6804 H   0  0  0  0  0  0  0  0  0  0  0  0
   55.3857   26.1766   46.1690 H   0  0  0  0  0  0  0  0  0  0  0  0
   56.2393   24.5961   46.1690 H   0  0  0  0  0  0  0  0  0  0  0  0
  1  2  1  0
  2  3  1  0
  3  4  1  0
  4  5  1  0
  3  6  1  0
  6  7  1  0
  7  8  1  0
  8  9  1  0
  9 10  1  0
 10 11  2  0
 11 12  1  0
 12 13  2  0
 13 14  1  0
 14 15  2  0
 15 16  1  0
 16 17  1  0
 16 18  2  0
 18 19  1  0
 19 20  1  0
 20 21  2  0
 20 10  1  0
 18 12  1  0
  1 22  1  0
  1 23  1  0
  1 24  1  0
  2 25  1  0
  2 26  1  0
  3 27  1  0
  4 28  1  0
  4 29  1  0
  5 30  1  0
  5 31  1  0
  5 32  1  0
  6 33  1  0
  6 34  1  0
  7 35  1  0
  7 36  1  0
  8 37  1  0
  9 38  1  0
  9 39  1  0
 11 40  1  0
 13 41  1  0
 14 42  1  0
 15 43  1  0
 17 44  1  0
 17 45  1  0
 17 46  1  0
M  CHG  2   3   1  19  -1
M  END
>  <UniqueID>  (19) 
19

>  <SMILES>  (19) 
CC[NH+](CC)CCNCc1cc2cccc(C)c2[n-]c1=O

>  <Energy>  (19) 
54.85276234172073

>  <Genealogy>  (19) 
CC[NH+](CC)CCNCc1cc2cccc(C)c2[n-]c1=O (protonated)
CC[NH+](CC)CCNCc1cc2cccc(C)c2[n-]c1=O (3D coordinates assigned)
CC[NH+](CC)CCNCc1cc2cccc(C)c2[n-]c1=O (optimized conformer: 54.85276234172073 kcal/mol)

>  <smiles>  (19) 
CCN(CC)CCNCc1cc2cccc(C)c2[nH]c1=O

>  <score_type>  (19) 
oracle

>  <origin>  (19) 
adg

>  <m_score__min__energy>  (19) 
-6.8099999999999996

>  <m_primary>  (19) 
energy

$$$$
19:0
     RDKit          3D

 48 51  0  0  0  0  0  0  0  0999 V2000
   61.0210   34.1800   46.8010 C   0  0  0  0  0  0  0  0  0  0  0  0
   59.8190   33.7620   46.0850 N   0  0  0  0  0  0  0  0  0  0  0  0
   59.0360   34.5430   45.3020 C   0  0  0  0  0  0  0  0  0  0  0  0
   57.9800   33.8020   44.7810 C   0  0  0  0  0  0  0  0  0  0  0  0
   58.1490   32.5260   45.2780 C   0  0  0  0  0  0  0  0  0  0  0  0
   57.3890   31.3760   45.0850 C   0  0  0  0  0  0  0  0  0  0  0  0
   57.7950   30.1800   45.7280 C   0  0  0  0  0  0  0  0  0  0  0  0
   56.9900   28.9370   45.5220 C   0  0  0  0  0  0  0  0  0  0  0  0
   55.8840   29.0360   44.9220 O   0  0  0  0  0  0  0  0  0  0  0  0
   57.4450   27.6280   45.9660 N   0  0  2  0  0  0  0  0  0  0  0  0
   58.6420   27.1510   45.2210 C   0  0  0  0  0  0  0  0  0  0  0  0
   59.5490   26.1630   45.9910 C   0  0  0  0  0  0  0  0  0  0  0  0
   59.0940   24.7030   45.9350 C   0  0  0  0  0  0  0  0  0  0  0  0
   57.6650   24.5800   45.6130 N   0  0  0  0  0  0  0  0  0  0  0  0
   57.2000   23.5780   44.6790 C   0  0  0  0  0  0  0  0  0  0  0  0
   56.3660   23.9340   43.6060 C   0  0  0  0  0  0  0  0  0  0  0  0
   55.9120   22.9520   42.7230 C   0  0  0  0  0  0  0  0  0  0  0  0
   56.2620   21.6530   42.9090 N   0  0  0  0  0  0  0  0  0  0  0  0
   57.0520   21.2710   43.9470 C   0  0  0  0  0  0  0  0  0  0  0  0
   57.5280   22.2210   44.8520 C   0  0  0  0  0  0  0  0  0  0  0  0
   56.7040   25.2190   46.5170 C   0  0  0  0  0  0  0  0  0  0  0  0
   56.3260   26.6470   46.0790 C   0  0  0  0  0  0  0  0  0  0  0  0
   58.9650   30.1990   46.5400 C   0  0  0  0  0  0  0  0  0  0  0  0
   59.7090   31.3810   46.7110 C   0  0  0  0  0  0  0  0  0  0  0  0
   59.2680   32.5330   46.0640 C   0  0  0  0  0  0  0  0  0  0  0  0
   60.8425   34.1179   47.8846 H   0  0  0  0  0  0  0  0  0  0  0  0
   61.8580   33.5202   46.5289 H   0  0  0  0  0  0  0  0  0  0  0  0
   61.2680   35.2168   46.5289 H   0  0  0  0  0  0  0  0  0  0  0  0
   59.2105   35.6113   45.1061 H   0  0  0  0  0  0  0  0  0  0  0  0
   57.1804   34.1577   44.1146 H   0  0  0  0  0  0  0  0  0  0  0  0
   56.4929   31.3950   44.4474 H   0  0  0  0  0  0  0  0  0  0  0  0
   57.7610   27.7490   46.9570 H   0  0  0  0  0  0  0  0  0  0  0  0
   58.2950   26.6506   44.3049 H   0  0  0  0  0  0  0  0  0  0  0  0
   59.2569   28.0429   45.0300 H   0  0  0  0  0  0  0  0  0  0  0  0
   60.5613   26.2233   45.5647 H   0  0  0  0  0  0  0  0  0  0  0  0
   59.5072   26.4618   47.0488 H   0  0  0  0  0  0  0  0  0  0  0  0
   59.6776   24.1792   45.1636 H   0  0  0  0  0  0  0  0  0  0  0  0
   59.2562   24.2598   46.9286 H   0  0  0  0  0  0  0  0  0  0  0  0
   56.0713   24.9839   43.4617 H   0  0  0  0  0  0  0  0  0  0  0  0
   55.2695   23.2312   41.8749 H   0  0  0  0  0  0  0  0  0  0  0  0
   57.3168   20.2109   44.0741 H   0  0  0  0  0  0  0  0  0  0  0  0
   58.1579   21.9094   45.6982 H   0  0  0  0  0  0  0  0  0  0  0  0
   55.7901   24.6076   46.5466 H   0  0  0  0  0  0  0  0  0  0  0  0
   57.1800   25.2924   47.5060 H   0  0  0  0  0  0  0  0  0  0  0  0
   55.8423   26.5771   45.0935 H   0  0  0  0  0  0  0  0  0  0  0  0
   55.6791   27.0349   46.8796 H   0  0  0  0  0  0  0  0  0  0  0  0
   59.2919   29.2758   47.0409 H   0  0  0  0  0  0  0  0  0  0  0  0
   60.6130   31.3949   47.3376 H   0  0  0  0  0  0  0  0  0  0  0  0
  1  2  1  0
  2  3  1  0
  3  4  2  0
  4  5  1  0
  5  6  2  0
  6  7  1  0
  7  8  1  0
  8  9  2  0
  8 10  1  0
 10 11  1  0
 11 12  1  0
 12 13  1  0
 13 14  1  0
 14 15  1  0
 15 16  2  0
 16 17  1  0
 17 18  2  0
 18 19  1  0
 19 20  2  0
 14 21  1  0
 21 22  1  0
  7 23  2  0
 23 24  1  0
 24 25  2  0
 25  2  1  0
 25  5  1  0
 22 10  1  0
 20 15  1  0
  1 26  1  0
  1 27  1  0
  1 28  1  0
  3 29  1  0
  4 30  1  0
  6 31  1  0
 10 32  1  1
 11 33  1  0
 11 34  1  0
 12 35  1  0
 12 36  1  0
 13 37  1  0
 13 38  1  0
 16 39  1  0
 17 40  1  0
 19 41  1  0
 20 42  1  0
 21 43  1  0
 21 44  1  0
 22 45  1  0
 22 46  1  0
 23 47  1  0
 24 48  1  0
M  CHG  1  10   1
M  END
>  <UniqueID>  (20) 
20

>  <SMILES>  (20) 
Cn1ccc2cc(C(=O)[N@@H+]3CCCN(c4ccncc4)CC3)ccc21

>  <Energy>  (20) 
108.09820650712238

>  <Genealogy>  (20) 
Cn1ccc2cc(C(=O)[NH+]3CCCN(c4ccncc4)CC3)ccc21 (protonated)
Cn1ccc2cc(C(=O)[N@@H+]3CCCN(c4ccncc4)CC3)ccc21 (chirality)
Cn1ccc2cc(C(=O)[N@@H+]3CCCN(c4ccncc4)CC3)ccc21 (3D coordinates assigned)
Cn1ccc2cc(C(=O)[N@@H+]3CCCN(c4ccncc4)CC3)ccc21 (nonaromatic ring conformer: 108.09820650712238 kcal/mol)

>  <smiles>  (20) 
Cn1ccc2cc(C(=O)N3CCCN(c4ccncc4)CC3)ccc21

>  <score_type>  (20) 
oracle

>  <origin>  (20) 
adg

>  <m_score__min__energy>  (20) 
-4.4199999999999999

>  <m_primary>  (20) 
energy

$$$$
20:0
     RDKit          3D

 71 73  0  0  0  0  0  0  0  0999 V2000
   54.7510   29.3060   52.7150 C   0  0  0  0  0  0  0  0  0  0  0  0
   55.7600   30.4000   52.3750 C   0  0  0  0  0  0  0  0  0  0  0  0
   57.1690   29.8350   52.1400 C   0  0  0  0  0  0  0  0  0  0  0  0
   58.0060   30.7810   51.3880 N   0  0  0  0  0  0  0  0  0  0  0  0
   57.7380   32.1720   51.7790 C   0  0  0  0  0  0  0  0  0  0  0  0
   59.0160   32.8380   52.2960 C   0  0  0  0  0  0  0  0  0  0  0  0
   59.2450   34.2120   51.6560 C   0  0  0  0  0  0  0  0  0  0  0  0
   60.0320   34.0860   50.4720 O   0  0  0  0  0  0  0  0  0  0  0  0
   59.6280   33.4780   49.2720 C   0  0  0  0  0  0  0  0  0  0  0  0
   59.2830   34.3080   48.2090 C   0  0  0  0  0  0  0  0  0  0  0  0
   58.8900   33.7740   46.9840 C   0  0  0  0  0  0  0  0  0  0  0  0
   58.8240   32.3750   46.7840 C   0  0  0  0  0  0  0  0  0  0  0  0
   59.0930   31.5270   47.8900 C   0  0  0  0  0  0  0  0  0  0  0  0
   59.5370   32.0860   49.1100 C   0  0  0  0  0  0  0  0  0  0  0  0
   58.9140   30.1390   47.7530 C   0  0  0  0  0  0  0  0  0  0  0  0
   59.1690   29.2560   48.8570 N   0  0  0  0  0  0  0  0  0  0  0  0
   60.2960   28.3230   48.8100 C   0  0  0  0  0  0  0  0  0  0  0  0
   61.0060   28.1930   50.1780 C   0  0  0  0  0  0  0  0  0  0  0  0
   60.5220   29.1110   51.2350 N   0  0  0  0  0  0  0  0  0  0  0  0
   60.2370   28.4380   52.5100 C   0  0  0  0  0  0  0  0  0  0  0  0
   61.3810   30.2880   51.4300 C   0  0  0  0  0  0  0  0  0  0  0  0
   58.4260   29.6160   46.5410 C   0  0  0  0  0  0  0  0  0  0  0  0
   58.1510   28.2380   46.4070 C   0  0  0  0  0  0  0  0  0  0  0  0
   57.6320   27.7160   45.2190 C   0  0  0  0  0  0  0  0  0  0  0  0
   57.3440   26.3100   45.1330 N   0  0  0  0  0  0  0  0  0  0  0  0
   56.1340   25.7070   45.6220 C   0  0  0  0  0  0  0  0  0  0  0  0
   56.0000   24.2180   45.6550 C   0  0  0  0  0  0  0  0  0  0  0  0
   55.1820   26.4180   46.0390 O   0  0  0  0  0  0  0  0  0  0  0  0
   57.3280   28.5870   44.1690 C   0  0  0  0  0  0  0  0  0  0  0  0
   57.5950   29.9510   44.2800 C   0  0  0  0  0  0  0  0  0  0  0  0
   58.1860   30.4910   45.4500 C   0  0  0  0  0  0  0  0  0  0  0  0
   58.4980   31.8330   45.5540 N   0  0  0  0  0  0  0  0  0  0  0  0
   58.5170   32.6850   44.3430 C   0  0  0  0  0  0  0  0  0  0  0  0
   54.6653   29.2130   53.8077 H   0  0  0  0  0  0  0  0  0  0  0  0
   53.7701   29.5673   52.2911 H   0  0  0  0  0  0  0  0  0  0  0  0
   55.0906   28.3494   52.2911 H   0  0  0  0  0  0  0  0  0  0  0  0
   55.4285   30.9168   51.4623 H   0  0  0  0  0  0  0  0  0  0  0  0
   55.8107   31.0910   53.2294 H   0  0  0  0  0  0  0  0  0  0  0  0
   57.6412   29.6340   53.1130 H   0  0  0  0  0  0  0  0  0  0  0  0
   57.0781   28.9095   51.5526 H   0  0  0  0  0  0  0  0  0  0  0  0
   59.0030   30.5820   51.6330 H   0  0  0  0  0  0  0  0  0  0  0  0
   57.3672   32.7287   50.9057 H   0  0  0  0  0  0  0  0  0  0  0  0
   56.9840   32.1780   52.5799 H   0  0  0  0  0  0  0  0  0  0  0  0
   58.9360   32.9625   53.3860 H   0  0  0  0  0  0  0  0  0  0  0  0
   59.8669   32.1931   52.0314 H   0  0  0  0  0  0  0  0  0  0  0  0
   58.2730   34.6584   51.3990 H   0  0  0  0  0  0  0  0  0  0  0  0
   59.7791   34.8539   52.3720 H   0  0  0  0  0  0  0  0  0  0  0  0
   59.3212   35.3997   48.3381 H   0  0  0  0  0  0  0  0  0  0  0  0
   58.6266   34.4514   46.1583 H   0  0  0  0  0  0  0  0  0  0  0  0
   59.8146   31.4227   49.9425 H   0  0  0  0  0  0  0  0  0  0  0  0
   58.7380   29.5100   49.7740 H   0  0  0  0  0  0  0  0  0  0  0  0
   59.9235   27.3327   48.5090 H   0  0  0  0  0  0  0  0  0  0  0  0
   61.0269   28.7134   48.0866 H   0  0  0  0  0  0  0  0  0  0  0  0
   60.8684   27.1617   50.5351 H   0  0  0  0  0  0  0  0  0  0  0  0
   62.0575   28.4628   50.0005 H   0  0  0  0  0  0  0  0  0  0  0  0
   60.5168   29.0986   53.3439 H   0  0  0  0  0  0  0  0  0  0  0  0
   59.1634   28.2061   52.5702 H   0  0  0  0  0  0  0  0  0  0  0  0
   60.8175   27.5056   52.5702 H   0  0  0  0  0  0  0  0  0  0  0  0
   61.5141   30.4704   52.5066 H   0  0  0  0  0  0  0  0  0  0  0  0
   62.3613   30.1076   50.9647 H   0  0  0  0  0  0  0  0  0  0  0  0
   60.9103   31.1666   50.9647 H   0  0  0  0  0  0  0  0  0  0  0  0
   58.3487   27.5630   47.2527 H   0  0  0  0  0  0  0  0  0  0  0  0
   58.0020   25.7070   44.5900 H   0  0  0  0  0  0  0  0  0  0  0  0
   55.9692   23.8757   46.6999 H   0  0  0  0  0  0  0  0  0  0  0  0
   55.0716   23.9220   45.1447 H   0  0  0  0  0  0  0  0  0  0  0  0
   56.8606   23.7610   45.1447 H   0  0  0  0  0  0  0  0  0  0  0  0
   56.8744   28.1932   43.2475 H   0  0  0  0  0  0  0  0  0  0  0  0
   57.3424   30.6204   43.4444 H   0  0  0  0  0  0  0  0  0  0  0  0
   58.5406   33.7439   44.6400 H   0  0  0  0  0  0  0  0  0  0  0  0
   59.4102   32.4520   43.7447 H   0  0  0  0  0  0  0  0  0  0  0  0
   57.6143   32.4920   43.7447 H   0  0  0  0  0  0  0  0  0  0  0  0
  1  2  1  0
  2  3  1  0
  3  4  1  0
  4  5  1  0
  5  6  1  0
  6  7  1  0
  7  8  1  0
  8  9  1  0
  9 10  2  0
 10 11  1  0
 11 12  2  0
 12 13  1  0
 13 14  2  0
 13 15  1  0
 15 16  1  0
 16 17  1  0
 17 18  1  0
 18 19  1  0
 19 20  1  0
 19 21  1  0
 15 22  2  0
 22 23  1  0
 23 24  2  0
 24 25  1  0
 25 26  1  0
 26 27  1  0
 26 28  2  0
 24 29  1  0
 29 30  2  0
 30 31  1  0
 31 32  2  0
 32 33  1  0
 14  9  1  0
 31 22  1  0
 32 12  1  0
  1 34  1  0
  1 35  1  0
  1 36  1  0
  2 37  1  0
  2 38  1  0
  3 39  1  0
  3 40  1  0
  4 41  1  0
  5 42  1  0
  5 43  1  0
  6 44  1  0
  6 45  1  0
  7 46  1  0
  7 47  1  0
 10 48  1  0
 11 49  1  0
 14 50  1  0
 16 51  1  0
 17 52  1  0
 17 53  1  0
 18 54  1  0
 18 55  1  0
 20 56  1  0
 20 57  1  0
 20 58  1  0
 21 59  1  0
 21 60  1  0
 21 61  1  0
 23 62  1  0
 25 63  1  0
 27 64  1  0
 27 65  1  0
 27 66  1  0
 29 67  1  0
 30 68  1  0
 33 69  1  0
 33 70  1  0
 33 71  1  0
M  CHG  1  32   1
M  END
>  <UniqueID>  (21) 
21

>  <SMILES>  (21) 
CCCNCCCOc1ccc2c(c1)c(NCCN(C)C)c1cc(NC(C)=O)ccc1[n+]2C

>  <Energy>  (21) 
90.86463126147085

>  <Genealogy>  (21) 
CCCNCCCOc1ccc2c(c1)c(NCCN(C)C)c1cc(NC(C)=O)ccc1[n+]2C (3D coordinates assigned)
CCCNCCCOc1ccc2c(c1)c(NCCN(C)C)c1cc(NC(C)=O)ccc1[n+]2C (optimized conformer: 90.86463126147085 kcal/mol)

>  <smiles>  (21) 
CCCNCCCOc1ccc2c(c1)c(NCCN(C)C)c1cc(NC(C)=O)ccc1[n+]2C

>  <score_type>  (21) 
oracle

>  <origin>  (21) 
adg

>  <m_score__min__energy>  (21) 
-6.2599999999999998

>  <m_primary>  (21) 
energy

$$$$
21:0
     RDKit          3D

 52 55  0  0  0  0  0  0  0  0999 V2000
   57.0060   23.6570   48.2650 C   0  0  0  0  0  0  0  0  0  0  0  0
   56.5480   24.3490   47.1090 O   0  0  0  0  0  0  0  0  0  0  0  0
   57.0290   25.5930   46.6700 C   0  0  0  0  0  0  0  0  0  0  0  0
   58.3830   25.9410   46.8380 C   0  0  0  0  0  0  0  0  0  0  0  0
   58.8670   27.1830   46.4100 C   0  0  0  0  0  0  0  0  0  0  0  0
   60.3120   27.5430   46.6290 C   0  0  0  0  0  0  0  0  0  0  0  0
   60.4630   28.3280   47.8960 C   0  0  0  0  0  0  0  0  0  0  0  0
   60.7860   27.8050   49.1010 N   0  0  0  0  0  0  0  0  0  0  0  0
   60.7250   28.7730   50.0140 N   0  0  0  0  0  0  0  0  0  0  0  0
   60.3570   29.8790   49.3380 C   0  0  0  0  0  0  0  0  0  0  0  0
   60.1180   31.1460   49.8450 C   0  0  0  0  0  0  0  0  0  0  0  0
   59.6960   32.1300   48.9360 C   0  0  0  0  0  0  0  0  0  0  0  0
   59.5310   31.8110   47.5580 C   0  0  0  0  0  0  0  0  0  0  0  0
   59.0820   32.7930   46.5940 N   0  0  0  0  0  0  0  0  0  0  0  0
   60.0320   33.8240   46.1460 C   0  0  0  0  0  0  0  0  0  0  0  0
   59.2980   35.0320   45.5580 C   0  0  0  0  0  0  0  0  0  0  0  0
   58.3400   34.6230   44.6060 O   0  0  0  0  0  0  0  0  0  0  0  0
   57.3160   33.9010   45.2580 C   0  0  0  0  0  0  0  0  0  0  0  0
   57.8500   32.5790   45.8170 C   0  0  0  0  0  0  0  0  0  0  0  0
   59.7830   30.5300   47.1490 N   0  0  0  0  0  0  0  0  0  0  0  0
   60.1870   29.6300   48.0390 N   0  0  0  0  0  0  0  0  0  0  0  0
   57.9890   28.0930   45.8100 C   0  0  0  0  0  0  0  0  0  0  0  0
   56.6360   27.7610   45.6180 C   0  0  0  0  0  0  0  0  0  0  0  0
   55.7370   28.6440   44.9970 O   0  0  0  0  0  0  0  0  0  0  0  0
   56.1140   29.7180   44.1420 C   0  0  0  0  0  0  0  0  0  0  0  0
   56.1500   26.5160   46.0490 C   0  0  0  0  0  0  0  0  0  0  0  0
   54.7820   26.2640   45.8280 O   0  0  0  0  0  0  0  0  0  0  0  0
   54.1800   24.9960   45.5870 C   0  0  0  0  0  0  0  0  0  0  0  0
   56.6590   24.1812   49.1676 H   0  0  0  0  0  0  0  0  0  0  0  0
   56.6075   22.6317   48.2605 H   0  0  0  0  0  0  0  0  0  0  0  0
   58.1055   23.6231   48.2605 H   0  0  0  0  0  0  0  0  0  0  0  0
   59.0710   25.2260   47.3128 H   0  0  0  0  0  0  0  0  0  0  0  0
   60.9094   26.6220   46.6987 H   0  0  0  0  0  0  0  0  0  0  0  0
   60.6618   28.1543   45.7840 H   0  0  0  0  0  0  0  0  0  0  0  0
   61.0230   26.8110   49.3080 H   0  0  0  0  0  0  0  0  0  0  0  0
   60.2529   31.3715   50.9132 H   0  0  0  0  0  0  0  0  0  0  0  0
   59.4921   33.1513   49.2900 H   0  0  0  0  0  0  0  0  0  0  0  0
   60.6358   34.1535   47.0044 H   0  0  0  0  0  0  0  0  0  0  0  0
   60.6742   33.3913   45.3648 H   0  0  0  0  0  0  0  0  0  0  0  0
   58.7910   35.5754   46.3689 H   0  0  0  0  0  0  0  0  0  0  0  0
   60.0326   35.6827   45.0611 H   0  0  0  0  0  0  0  0  0  0  0  0
   56.9185   34.5074   46.0852 H   0  0  0  0  0  0  0  0  0  0  0  0
   56.5232   33.6793   44.5285 H   0  0  0  0  0  0  0  0  0  0  0  0
   57.0867   32.1301   46.4696 H   0  0  0  0  0  0  0  0  0  0  0  0
   58.0792   31.9099   44.9746 H   0  0  0  0  0  0  0  0  0  0  0  0
   58.3605   29.0763   45.4858 H   0  0  0  0  0  0  0  0  0  0  0  0
   56.4174   30.5823   44.7510 H   0  0  0  0  0  0  0  0  0  0  0  0
   56.9554   29.4033   43.5072 H   0  0  0  0  0  0  0  0  0  0  0  0
   55.2605   29.9982   43.5072 H   0  0  0  0  0  0  0  0  0  0  0  0
   53.9497   24.5110   46.5471 H   0  0  0  0  0  0  0  0  0  0  0  0
   53.2513   25.1340   45.0139 H   0  0  0  0  0  0  0  0  0  0  0  0
   54.8740   24.3636   45.0139 H   0  0  0  0  0  0  0  0  0  0  0  0
  1  2  1  0
  2  3  1  0
  3  4  2  0
  4  5  1  0
  5  6  1  0
  6  7  1  0
  7  8  2  0
  8  9  1  0
  9 10  2  0
 10 11  1  0
 11 12  2  0
 12 13  1  0
 13 14  1  0
 14 15  1  0
 15 16  1  0
 16 17  1  0
 17 18  1  0
 18 19  1  0
 13 20  2  0
 20 21  1  0
  5 22  2  0
 22 23  1  0
 23 24  1  0
 24 25  1  0
 23 26  2  0
 26 27  1  0
 27 28  1  0
 26  3  1  0
 21  7  1  0
 21 10  1  0
 19 14  1  0
  1 29  1  0
  1 30  1  0
  1 31  1  0
  4 32  1  0
  6 33  1  0
  6 34  1  0
  8 35  1  0
 11 36  1  0
 12 37  1  0
 15 38  1  0
 15 39  1  0
 16 40  1  0
 16 41  1  0
 18 42  1  0
 18 43  1  0
 19 44  1  0
 19 45  1  0
 22 46  1  0
 25 47  1  0
 25 48  1  0
 25 49  1  0
 28 50  1  0
 28 51  1  0
 28 52  1  0
M  CHG  1   8   1
M  END
>  <UniqueID>  (22) 
22

>  <SMILES>  (22) 
COc1cc(Cc2[nH+]nc3ccc(N4CCOCC4)nn23)cc(OC)c1OC

>  <Energy>  (22) 
100.51763577364412

>  <Genealogy>  (22) 
COc1cc(Cc2[nH+]nc3ccc(N4CCOCC4)nn23)cc(OC)c1OC (protonated)
COc1cc(Cc2[nH+]nc3ccc(N4CCOCC4)nn23)cc(OC)c1OC (3D coordinates assigned)
COc1cc(Cc2[nH+]nc3ccc(N4CCOCC4)nn23)cc(OC)c1OC (nonaromatic ring conformer: 100.51763577364412 kcal/mol)

>  <smiles>  (22) 
COc1cc(Cc2nnc3ccc(N4CCOCC4)nn23)cc(OC)c1OC

>  <score_type>  (22) 
oracle

>  <origin>  (22) 
adg

>  <m_score__min__energy>  (22) 
-6.7199999999999998

>  <m_primary>  (22) 
energy

$$$$
22:0
     RDKit          3D

 63 66  0  0  0  0  0  0  0  0999 V2000
   58.1320   33.5370   52.4510 C   0  0  0  0  0  0  0  0  0  0  0  0
   57.4760   32.3680   51.7190 C   0  0  0  0  0  0  0  0  0  0  0  0
   58.2990   31.9250   50.5740 N   0  0  0  0  0  0  0  0  0  0  0  0
   59.2240   32.9990   50.1720 C   0  0  0  0  0  0  0  0  0  0  0  0
   59.0410   30.6700   50.8590 C   0  0  0  0  0  0  0  0  0  0  0  0
   58.8730   29.6800   49.7000 C   0  0  0  0  0  0  0  0  0  0  0  0
   60.1220   28.7830   49.5280 C   0  0  0  0  0  0  0  0  0  0  0  0
   60.8660   28.9430   48.2490 N   0  0  0  0  0  0  0  0  0  0  0  0
   60.1030   29.4420   47.1160 C   0  0  0  0  0  0  0  0  0  0  0  0
   59.3880   28.5240   46.2800 C   0  0  0  0  0  0  0  0  0  0  0  0
   59.5760   27.1220   46.3920 C   0  0  0  0  0  0  0  0  0  0  0  0
   58.8880   26.2290   45.5790 C   0  0  0  0  0  0  0  0  0  0  0  0
   57.9950   26.6990   44.6330 C   0  0  0  0  0  0  0  0  0  0  0  0
   57.7750   28.0640   44.4970 C   0  0  0  0  0  0  0  0  0  0  0  0
   58.4470   29.0120   45.3160 C   0  0  0  0  0  0  0  0  0  0  0  0
   58.1960   30.3690   45.2030 N   0  0  0  0  0  0  0  0  0  0  0  0
   57.0450   30.8580   44.4160 C   0  0  0  0  0  0  0  0  0  0  0  0
   57.4660   31.2370   42.9920 C   0  0  0  0  0  0  0  0  0  0  0  0
   58.9980   31.2470   45.8970 C   0  0  0  0  0  0  0  0  0  0  0  0
   59.0620   32.6460   45.8490 C   0  0  0  0  0  0  0  0  0  0  0  0
   58.4560   33.6220   45.0330 C   0  0  0  0  0  0  0  0  0  0  0  0
   58.7910   34.9690   45.2230 C   0  0  0  0  0  0  0  0  0  0  0  0
   59.7370   35.3370   46.1860 C   0  0  0  0  0  0  0  0  0  0  0  0
   60.3660   34.3610   46.9660 C   0  0  0  0  0  0  0  0  0  0  0  0
   60.0120   33.0100   46.7820 C   0  0  0  0  0  0  0  0  0  0  0  0
   60.5590   31.9320   47.4010 N   0  0  0  0  0  0  0  0  0  0  0  0
   61.7470   32.0480   48.2670 C   0  0  0  0  0  0  0  0  0  0  0  0
   62.9940   32.3400   47.4370 C   0  0  0  0  0  0  0  0  0  0  0  0
   59.9370   30.8340   46.8460 C   0  0  0  0  0  0  0  0  0  0  0  0
   58.0462   33.3842   53.5370 H   0  0  0  0  0  0  0  0  0  0  0  0
   59.1944   33.5948   52.1716 H   0  0  0  0  0  0  0  0  0  0  0  0
   57.6279   34.4739   52.1716 H   0  0  0  0  0  0  0  0  0  0  0  0
   57.3545   31.5287   52.4196 H   0  0  0  0  0  0  0  0  0  0  0  0
   56.4989   32.6997   51.3380 H   0  0  0  0  0  0  0  0  0  0  0  0
   59.6389   33.4807   51.0697 H   0  0  0  0  0  0  0  0  0  0  0  0
   60.0424   32.5730   49.5731 H   0  0  0  0  0  0  0  0  0  0  0  0
   58.6813   33.7452   49.5731 H   0  0  0  0  0  0  0  0  0  0  0  0
   60.1088   30.9006   50.9879 H   0  0  0  0  0  0  0  0  0  0  0  0
   58.6407   30.2175   51.7782 H   0  0  0  0  0  0  0  0  0  0  0  0
   58.0002   29.0412   49.9005 H   0  0  0  0  0  0  0  0  0  0  0  0
   58.7348   30.2568   48.7736 H   0  0  0  0  0  0  0  0  0  0  0  0
   60.8152   29.0089   50.3517 H   0  0  0  0  0  0  0  0  0  0  0  0
   59.7478   27.7486   49.5273 H   0  0  0  0  0  0  0  0  0  0  0  0
   61.6950   29.5530   48.4180 H   0  0  0  0  0  0  0  0  0  0  0  0
   61.3560   28.0670   47.9840 H   0  0  0  0  0  0  0  0  0  0  0  0
   60.2827   26.7328   47.1397 H   0  0  0  0  0  0  0  0  0  0  0  0
   59.0539   25.1471   45.6880 H   0  0  0  0  0  0  0  0  0  0  0  0
   57.4574   25.9898   43.9864 H   0  0  0  0  0  0  0  0  0  0  0  0
   57.0636   28.4199   43.7372 H   0  0  0  0  0  0  0  0  0  0  0  0
   56.2828   30.0664   44.3658 H   0  0  0  0  0  0  0  0  0  0  0  0
   56.6422   31.7547   44.9097 H   0  0  0  0  0  0  0  0  0  0  0  0
   58.2829   31.9724   43.0346 H   0  0  0  0  0  0  0  0  0  0  0  0
   57.8095   30.3378   42.4596 H   0  0  0  0  0  0  0  0  0  0  0  0
   56.6077   31.6728   42.4596 H   0  0  0  0  0  0  0  0  0  0  0  0
   57.7310   33.3307   44.2587 H   0  0  0  0  0  0  0  0  0  0  0  0
   58.3065   35.7434   44.6102 H   0  0  0  0  0  0  0  0  0  0  0  0
   59.9872   36.3984   46.3303 H   0  0  0  0  0  0  0  0  0  0  0  0
   61.1245   34.6438   47.7108 H   0  0  0  0  0  0  0  0  0  0  0  0
   61.5916   32.8665   48.9852 H   0  0  0  0  0  0  0  0  0  0  0  0
   61.8912   31.0957   48.7984 H   0  0  0  0  0  0  0  0  0  0  0  0
   63.8428   32.5387   48.1079 H   0  0  0  0  0  0  0  0  0  0  0  0
   63.2238   31.4714   46.8024 H   0  0  0  0  0  0  0  0  0  0  0  0
   62.8142   33.2203   46.8024 H   0  0  0  0  0  0  0  0  0  0  0  0
  1  2  1  0
  2  3  1  0
  3  4  1  0
  3  5  1  0
  5  6  1  0
  6  7  1  0
  7  8  1  0
  8  9  1  0
  9 10  2  0
 10 11  1  0
 11 12  2  0
 12 13  1  0
 13 14  2  0
 14 15  1  0
 15 16  2  0
 16 17  1  0
 17 18  1  0
 16 19  1  0
 19 20  1  0
 20 21  2  0
 21 22  1  0
 22 23  2  0
 23 24  1  0
 24 25  2  0
 25 26  1  0
 26 27  1  0
 27 28  1  0
 26 29  1  0
 29  9  1  0
 15 10  1  0
 29 19  2  0
 25 20  1  0
  1 30  1  0
  1 31  1  0
  1 32  1  0
  2 33  1  0
  2 34  1  0
  4 35  1  0
  4 36  1  0
  4 37  1  0
  5 38  1  0
  5 39  1  0
  6 40  1  0
  6 41  1  0
  7 42  1  0
  7 43  1  0
  8 44  1  0
  8 45  1  0
 11 46  1  0
 12 47  1  0
 13 48  1  0
 14 49  1  0
 17 50  1  0
 17 51  1  0
 18 52  1  0
 18 53  1  0
 18 54  1  0
 21 55  1  0
 22 56  1  0
 23 57  1  0
 24 58  1  0
 27 59  1  0
 27 60  1  0
 28 61  1  0
 28 62  1  0
 28 63  1  0
M  CHG  2   8   1  16   1
M  END
>  <UniqueID>  (23) 
23

>  <SMILES>  (23) 
CCN(C)CCC[NH2+]c1c2ccccc2[n+](CC)c2c3ccccc3n(CC)c12

>  <Energy>  (23) 
140.27630431785477

>  <Genealogy>  (23) 
CCN(C)CCC[NH2+]c1c2ccccc2[n+](CC)c2c3ccccc3n(CC)c12 (protonated)
CCN(C)CCC[NH2+]c1c2ccccc2[n+](CC)c2c3ccccc3n(CC)c12 (3D coordinates assigned)
CCN(C)CCC[NH2+]c1c2ccccc2[n+](CC)c2c3ccccc3n(CC)c12 (optimized conformer: 140.27630431785477 kcal/mol)

>  <smiles>  (23) 
CCN(C)CCCNc1c2ccccc2[n+](CC)c2c3ccccc3n(CC)c12

>  <score_type>  (23) 
oracle

>  <origin>  (23) 
adg

>  <m_score__min__energy>  (23) 
-4.9199999999999999

>  <m_primary>  (23) 
energy

$$$$
23:0
     RDKit          3D

 56 58  0  0  0  0  0  0  0  0999 V2000
   63.3840   33.8480   46.0640 C   0  0  0  0  0  0  0  0  0  0  0  0
   63.1770   33.8350   47.5830 C   0  0  0  0  0  0  0  0  0  0  0  0
   63.8080   32.6430   48.2190 N   0  0  0  0  0  0  0  0  0  0  0  0
   64.4880   33.0510   49.4790 C   0  0  0  0  0  0  0  0  0  0  0  0
   65.2970   31.9140   50.1100 C   0  0  0  0  0  0  0  0  0  0  0  0
   62.7890   31.5920   48.4910 C   0  0  0  0  0  0  0  0  0  0  0  0
   62.0920   31.0800   47.2080 C   0  0  0  0  0  0  0  0  0  0  0  0
   60.7940   30.4570   47.4920 N   0  0  0  0  0  0  0  0  0  0  0  0
   59.6940   30.5120   46.5660 C   0  0  0  0  0  0  0  0  0  0  0  0
   59.2590   29.3210   45.9570 C   0  0  0  0  0  0  0  0  0  0  0  0
   59.6950   28.0660   46.4350 C   0  0  0  0  0  0  0  0  0  0  0  0
   59.3070   26.8870   45.8020 C   0  0  0  0  0  0  0  0  0  0  0  0
   58.4990   26.9380   44.6740 C   0  0  0  0  0  0  0  0  0  0  0  0
   58.0570   28.1650   44.1820 C   0  0  0  0  0  0  0  0  0  0  0  0
   58.4010   29.3830   44.8270 C   0  0  0  0  0  0  0  0  0  0  0  0
   57.9750   30.6050   44.3470 N   0  0  0  0  0  0  0  0  0  0  0  0
   56.9400   30.6640   43.2890 C   0  0  0  0  0  0  0  0  0  0  0  0
   58.4790   31.7760   44.8810 C   0  0  0  0  0  0  0  0  0  0  0  0
   58.3150   33.0170   44.2270 C   0  0  0  0  0  0  0  0  0  0  0  0
   58.7400   34.2030   44.8160 C   0  0  0  0  0  0  0  0  0  0  0  0
   59.2760   34.2050   46.1050 C   0  0  0  0  0  0  0  0  0  0  0  0
   59.6180   35.5290   46.7410 C   0  0  0  0  0  0  0  0  0  0  0  0
   59.4270   32.9810   46.7980 C   0  0  0  0  0  0  0  0  0  0  0  0
   59.6900   33.0100   48.2910 C   0  0  0  0  0  0  0  0  0  0  0  0
   59.2060   31.7540   46.1010 C   0  0  0  0  0  0  0  0  0  0  0  0
   64.4590   33.9155   45.8410 H   0  0  0  0  0  0  0  0  0  0  0  0
   62.9770   32.9225   45.6305 H   0  0  0  0  0  0  0  0  0  0  0  0
   62.8644   34.7153   45.6305 H   0  0  0  0  0  0  0  0  0  0  0  0
   63.6236   34.7447   48.0108 H   0  0  0  0  0  0  0  0  0  0  0  0
   62.0955   33.7945   47.7798 H   0  0  0  0  0  0  0  0  0  0  0  0
   64.5250   32.2490   47.5670 H   0  0  0  0  0  0  0  0  0  0  0  0
   65.1689   33.8859   49.2568 H   0  0  0  0  0  0  0  0  0  0  0  0
   63.7079   33.3419   50.1979 H   0  0  0  0  0  0  0  0  0  0  0  0
   65.2430   31.9899   51.2060 H   0  0  0  0  0  0  0  0  0  0  0  0
   64.8827   30.9470   49.7886 H   0  0  0  0  0  0  0  0  0  0  0  0
   66.3464   31.9884   49.7886 H   0  0  0  0  0  0  0  0  0  0  0  0
   63.2844   30.7424   48.9837 H   0  0  0  0  0  0  0  0  0  0  0  0
   62.0143   32.0418   49.1294 H   0  0  0  0  0  0  0  0  0  0  0  0
   61.9355   31.9296   46.5270 H   0  0  0  0  0  0  0  0  0  0  0  0
   62.7404   30.3163   46.7538 H   0  0  0  0  0  0  0  0  0  0  0  0
   60.6870   29.9030   48.3700 H   0  0  0  0  0  0  0  0  0  0  0  0
   60.3491   28.0185   47.3181 H   0  0  0  0  0  0  0  0  0  0  0  0
   59.6408   25.9157   46.1959 H   0  0  0  0  0  0  0  0  0  0  0  0
   58.2066   26.0067   44.1668 H   0  0  0  0  0  0  0  0  0  0  0  0
   57.4306   28.1906   43.2781 H   0  0  0  0  0  0  0  0  0  0  0  0
   55.9442   30.7208   43.7529 H   0  0  0  0  0  0  0  0  0  0  0  0
   57.1047   31.5542   42.6642 H   0  0  0  0  0  0  0  0  0  0  0  0
   57.0025   29.7608   42.6642 H   0  0  0  0  0  0  0  0  0  0  0  0
   57.8427   33.0460   43.2340 H   0  0  0  0  0  0  0  0  0  0  0  0
   58.6530   35.1486   44.2608 H   0  0  0  0  0  0  0  0  0  0  0  0
   59.5918   35.4274   47.8360 H   0  0  0  0  0  0  0  0  0  0  0  0
   60.6254   35.8380   46.4255 H   0  0  0  0  0  0  0  0  0  0  0  0
   58.8862   36.2873   46.4255 H   0  0  0  0  0  0  0  0  0  0  0  0
   58.7386   32.9051   48.8330 H   0  0  0  0  0  0  0  0  0  0  0  0
   60.3595   32.1802   48.5616 H   0  0  0  0  0  0  0  0  0  0  0  0
   60.1627   33.9657   48.5616 H   0  0  0  0  0  0  0  0  0  0  0  0
  1  2  1  0
  2  3  1  0
  3  4  1  0
  4  5  1  0
  3  6  1  0
  6  7  1  0
  7  8  1  0
  8  9  1  0
  9 10  2  0
 10 11  1  0
 11 12  2  0
 12 13  1  0
 13 14  2  0
 14 15  1  0
 15 16  2  0
 16 17  1  0
 16 18  1  0
 18 19  2  0
 19 20  1  0
 20 21  2  0
 21 22  1  0
 21 23  1  0
 23 24  1  0
 23 25  2  0
 25  9  1  0
 15 10  1  0
 25 18  1  0
  1 26  1  0
  1 27  1  0
  1 28  1  0
  2 29  1  0
  2 30  1  0
  3 31  1  0
  4 32  1  0
  4 33  1  0
  5 34  1  0
  5 35  1  0
  5 36  1  0
  6 37  1  0
  6 38  1  0
  7 39  1  0
  7 40  1  0
  8 41  1  0
 11 42  1  0
 12 43  1  0
 13 44  1  0
 14 45  1  0
 17 46  1  0
 17 47  1  0
 17 48  1  0
 19 49  1  0
 20 50  1  0
 22 51  1  0
 22 52  1  0
 22 53  1  0
 24 54  1  0
 24 55  1  0
 24 56  1  0
M  CHG  2   3   1  16   1
M  END
>  <UniqueID>  (24) 
24

>  <SMILES>  (24) 
CC[NH+](CC)CCNc1c2ccccc2[n+](C)c2ccc(C)c(C)c12

>  <Energy>  (24) 
92.11517141672017

>  <Genealogy>  (24) 
CC[NH+](CC)CCNc1c2ccccc2[n+](C)c2ccc(C)c(C)c12 (protonated)
CC[NH+](CC)CCNc1c2ccccc2[n+](C)c2ccc(C)c(C)c12 (3D coordinates assigned)
CC[NH+](CC)CCNc1c2ccccc2[n+](C)c2ccc(C)c(C)c12 (optimized conformer: 92.11517141672017 kcal/mol)

>  <smiles>  (24) 
CCN(CC)CCNc1c2ccccc2[n+](C)c2ccc(C)c(C)c12

>  <score_type>  (24) 
oracle

>  <origin>  (24) 
adg

>  <m_score__min__energy>  (24) 
-5.2000000000000002

>  <m_primary>  (24) 
energy

$$$$
24:0
     RDKit          3D

 53 55  0  0  0  0  0  0  0  0999 V2000
   60.0880   34.1900   49.3620 C   0  0  0  0  0  0  0  0  0  0  0  0
   61.5640   34.2140   48.9430 C   0  0  0  0  0  0  0  0  0  0  0  0
   62.2750   32.9220   49.1250 N   0  0  0  0  0  0  0  0  0  0  0  0
   63.1190   32.8710   50.3430 C   0  0  0  0  0  0  0  0  0  0  0  0
   63.4450   34.2690   50.8680 C   0  0  0  0  0  0  0  0  0  0  0  0
   63.0380   32.5430   47.9120 C   0  0  0  0  0  0  0  0  0  0  0  0
   62.3450   31.4210   47.1270 C   0  0  0  0  0  0  0  0  0  0  0  0
   60.9290   31.3160   47.4830 N   0  0  0  0  0  0  0  0  0  0  0  0
   59.9200   31.0960   46.4810 C   0  0  0  0  0  0  0  0  0  0  0  0
   59.2800   32.1880   45.8690 C   0  0  0  0  0  0  0  0  0  0  0  0
   58.2240   31.9640   44.9680 C   0  0  0  0  0  0  0  0  0  0  0  0
   57.9230   30.6870   44.5450 N   0  0  0  0  0  0  0  0  0  0  0  0
   57.0160   30.4900   43.3940 C   0  0  0  0  0  0  0  0  0  0  0  0
   58.4870   29.5980   45.1840 C   0  0  0  0  0  0  0  0  0  0  0  0
   58.0470   28.2730   44.9280 C   0  0  0  0  0  0  0  0  0  0  0  0
   58.6520   27.1820   45.5500 C   0  0  0  0  0  0  0  0  0  0  0  0
   59.7000   27.3770   46.4420 C   0  0  0  0  0  0  0  0  0  0  0  0
   60.1320   28.6660   46.7390 C   0  0  0  0  0  0  0  0  0  0  0  0
   59.5230   29.7890   46.1400 C   0  0  0  0  0  0  0  0  0  0  0  0
   57.4680   33.1890   44.4740 C   0  0  0  0  0  0  0  0  0  0  0  0
   57.2930   34.2110   45.6090 C   0  0  0  0  0  0  0  0  0  0  0  0
   58.6120   34.5790   46.3220 C   0  0  0  0  0  0  0  0  0  0  0  0
   59.7700   33.6110   46.0350 C   0  0  0  0  0  0  0  0  0  0  0  0
   60.0185   34.1889   50.4598 H   0  0  0  0  0  0  0  0  0  0  0  0
   59.5791   35.0800   48.9633 H   0  0  0  0  0  0  0  0  0  0  0  0
   59.6083   33.2839   48.9633 H   0  0  0  0  0  0  0  0  0  0  0  0
   61.6151   34.4878   47.8789 H   0  0  0  0  0  0  0  0  0  0  0  0
   62.0643   34.9425   49.5979 H   0  0  0  0  0  0  0  0  0  0  0  0
   62.5823   32.3135   51.1248 H   0  0  0  0  0  0  0  0  0  0  0  0
   64.0655   32.3750   50.0820 H   0  0  0  0  0  0  0  0  0  0  0  0
   63.4423   34.2575   51.9679 H   0  0  0  0  0  0  0  0  0  0  0  0
   64.4383   34.5739   50.5069 H   0  0  0  0  0  0  0  0  0  0  0  0
   62.6890   34.9818   50.5069 H   0  0  0  0  0  0  0  0  0  0  0  0
   63.1335   33.4252   47.2619 H   0  0  0  0  0  0  0  0  0  0  0  0
   64.0249   32.1765   48.2309 H   0  0  0  0  0  0  0  0  0  0  0  0
   62.4287   31.6327   46.0508 H   0  0  0  0  0  0  0  0  0  0  0  0
   62.8363   30.4691   47.3769 H   0  0  0  0  0  0  0  0  0  0  0  0
   60.6350   31.6240   48.4370 H   0  0  0  0  0  0  0  0  0  0  0  0
   56.0022   30.2698   43.7596 H   0  0  0  0  0  0  0  0  0  0  0  0
   56.9949   31.4045   42.7831 H   0  0  0  0  0  0  0  0  0  0  0  0
   57.3762   29.6491   42.7831 H   0  0  0  0  0  0  0  0  0  0  0  0
   57.2156   28.1044   44.2278 H   0  0  0  0  0  0  0  0  0  0  0  0
   58.2987   26.1629   45.3341 H   0  0  0  0  0  0  0  0  0  0  0  0
   60.1884   26.5115   46.9136 H   0  0  0  0  0  0  0  0  0  0  0  0
   60.9588   28.8113   47.4498 H   0  0  0  0  0  0  0  0  0  0  0  0
   58.0317   33.6545   43.6521 H   0  0  0  0  0  0  0  0  0  0  0  0
   56.4739   32.8747   44.1235 H   0  0  0  0  0  0  0  0  0  0  0  0
   56.8592   35.1290   45.1858 H   0  0  0  0  0  0  0  0  0  0  0  0
   56.6395   33.7462   46.3620 H   0  0  0  0  0  0  0  0  0  0  0  0
   58.9131   35.5850   45.9943 H   0  0  0  0  0  0  0  0  0  0  0  0
   58.4143   34.5264   47.4028 H   0  0  0  0  0  0  0  0  0  0  0  0
   60.2760   33.9243   45.1099 H   0  0  0  0  0  0  0  0  0  0  0  0
   60.4612   33.6389   46.8902 H   0  0  0  0  0  0  0  0  0  0  0  0
  1  2  1  0
  2  3  1  0
  3  4  1  0
  4  5  1  0
  3  6  1  0
  6  7  1  0
  7  8  1  0
  8  9  1  0
  9 10  2  0
 10 11  1  0
 11 12  2  0
 12 13  1  0
 12 14  1  0
 14 15  2  0
 15 16  1  0
 16 17  2  0
 17 18  1  0
 18 19  2  0
 11 20  1  0
 20 21  1  0
 21 22  1  0
 22 23  1  0
 19  9  1  0
 23 10  1  0
 19 14  1  0
  1 24  1  0
  1 25  1  0
  1 26  1  0
  2 27  1  0
  2 28  1  0
  4 29  1  0
  4 30  1  0
  5 31  1  0
  5 32  1  0
  5 33  1  0
  6 34  1  0
  6 35  1  0
  7 36  1  0
  7 37  1  0
  8 38  1  0
 13 39  1  0
 13 40  1  0
 13 41  1  0
 15 42  1  0
 16 43  1  0
 17 44  1  0
 18 45  1  0
 20 46  1  0
 20 47  1  0
 21 48  1  0
 21 49  1  0
 22 50  1  0
 22 51  1  0
 23 52  1  0
 23 53  1  0
M  CHG  1  12   1
M  END
>  <UniqueID>  (25) 
25

>  <SMILES>  (25) 
CCN(CC)CCNc1c2c([n+](C)c3ccccc13)CCCC2

>  <Energy>  (25) 
78.17250323397167

>  <Genealogy>  (25) 
CCN(CC)CCNc1c2c([n+](C)c3ccccc13)CCCC2 (3D coordinates assigned)
CCN(CC)CCNc1c2c([n+](C)c3ccccc13)CCCC2 (nonaromatic ring conformer: 78.17250323397167 kcal/mol)

>  <smiles>  (25) 
CCN(CC)CCNc1c2c([n+](C)c3ccccc13)CCCC2

>  <score_type>  (25) 
oracle

>  <origin>  (25) 
adg

>  <m_score__min__energy>  (25) 
-5.5

>  <m_primary>  (25) 
energy

$$$$
25:0
     RDKit          3D

 61 63  0  0  0  0  0  0  0  0999 V2000
   63.9850   33.4670   50.1400 C   0  0  0  0  0  0  0  0  0  0  0  0
   62.5730   34.0520   50.2410 C   0  0  0  0  0  0  0  0  0  0  0  0
   61.5270   32.9940   50.3140 N   0  0  0  0  0  0  0  0  0  0  0  0
   60.1780   33.6150   50.4040 C   0  0  0  0  0  0  0  0  0  0  0  0
   59.0740   32.6990   49.8610 C   0  0  0  0  0  0  0  0  0  0  0  0
   61.7790   32.1100   51.4840 C   0  0  0  0  0  0  0  0  0  0  0  0
   62.2800   30.7150   51.0520 C   0  0  0  0  0  0  0  0  0  0  0  0
   61.8210   30.3740   49.7570 O   0  0  0  0  0  0  0  0  0  0  0  0
   60.7370   29.4710   49.8270 C   0  0  0  0  0  0  0  0  0  0  0  0
   59.8730   29.6330   48.5780 C   0  0  0  0  0  0  0  0  0  0  0  0
   60.5020   30.5290   47.6060 N   0  0  0  0  0  0  0  0  0  0  0  0
   59.7950   30.8800   46.4050 C   0  0  0  0  0  0  0  0  0  0  0  0
   59.1540   29.8710   45.6620 C   0  0  0  0  0  0  0  0  0  0  0  0
   59.3610   28.5080   45.9690 C   0  0  0  0  0  0  0  0  0  0  0  0
   58.6810   27.5100   45.2770 C   0  0  0  0  0  0  0  0  0  0  0  0
   57.7720   27.8500   44.2840 C   0  0  0  0  0  0  0  0  0  0  0  0
   57.5610   29.1880   43.9530 C   0  0  0  0  0  0  0  0  0  0  0  0
   58.2770   30.2270   44.6040 C   0  0  0  0  0  0  0  0  0  0  0  0
   58.1150   31.5540   44.2530 N   0  0  0  0  0  0  0  0  0  0  0  0
   57.4070   31.9070   43.0010 C   0  0  0  0  0  0  0  0  0  0  0  0
   58.6510   32.5530   45.0430 C   0  0  0  0  0  0  0  0  0  0  0  0
   58.2800   33.9080   44.8690 C   0  0  0  0  0  0  0  0  0  0  0  0
   58.8850   34.9190   45.6040 C   0  0  0  0  0  0  0  0  0  0  0  0
   59.8980   34.6200   46.5020 C   0  0  0  0  0  0  0  0  0  0  0  0
   60.2840   33.2870   46.7270 C   0  0  0  0  0  0  0  0  0  0  0  0
   61.3790   32.9940   47.5560 O   0  0  0  0  0  0  0  0  0  0  0  0
   62.7290   32.8860   47.1140 C   0  0  0  0  0  0  0  0  0  0  0  0
   59.5840   32.2360   46.0710 C   0  0  0  0  0  0  0  0  0  0  0  0
   64.3862   33.3008   51.1507 H   0  0  0  0  0  0  0  0  0  0  0  0
   63.9477   32.5103   49.5984 H   0  0  0  0  0  0  0  0  0  0  0  0
   64.6352   34.1698   49.5984 H   0  0  0  0  0  0  0  0  0  0  0  0
   62.5114   34.6735   51.1465 H   0  0  0  0  0  0  0  0  0  0  0  0
   62.3888   34.6455   49.3334 H   0  0  0  0  0  0  0  0  0  0  0  0
   61.5710   32.4160   49.4400 H   0  0  0  0  0  0  0  0  0  0  0  0
   59.9627   33.8403   51.4589 H   0  0  0  0  0  0  0  0  0  0  0  0
   60.1879   34.5278   49.7902 H   0  0  0  0  0  0  0  0  0  0  0  0
   58.5275   32.2456   50.7011 H   0  0  0  0  0  0  0  0  0  0  0  0
   58.3779   33.2885   49.2462 H   0  0  0  0  0  0  0  0  0  0  0  0
   59.5249   31.9060   49.2462 H   0  0  0  0  0  0  0  0  0  0  0  0
   62.5393   32.5780   52.1265 H   0  0  0  0  0  0  0  0  0  0  0  0
   60.8299   31.9799   52.0246 H   0  0  0  0  0  0  0  0  0  0  0  0
   63.3800   30.7150   51.0523 H   0  0  0  0  0  0  0  0  0  0  0  0
   61.8867   29.9731   51.7626 H   0  0  0  0  0  0  0  0  0  0  0  0
   61.1183   28.4406   49.8805 H   0  0  0  0  0  0  0  0  0  0  0  0
   60.1361   29.6808   50.7242 H   0  0  0  0  0  0  0  0  0  0  0  0
   59.7270   28.6467   48.1134 H   0  0  0  0  0  0  0  0  0  0  0  0
   58.9090   30.0696   48.8781 H   0  0  0  0  0  0  0  0  0  0  0  0
   61.5450   30.5970   47.5920 H   0  0  0  0  0  0  0  0  0  0  0  0
   60.0684   28.2318   46.7648 H   0  0  0  0  0  0  0  0  0  0  0  0
   58.8637   26.4521   45.5167 H   0  0  0  0  0  0  0  0  0  0  0  0
   57.2162   27.0608   43.7564 H   0  0  0  0  0  0  0  0  0  0  0  0
   56.8272   29.4429   43.1742 H   0  0  0  0  0  0  0  0  0  0  0  0
   56.4471   32.3856   43.2450 H   0  0  0  0  0  0  0  0  0  0  0  0
   58.0248   32.6026   42.4140 H   0  0  0  0  0  0  0  0  0  0  0  0
   57.2233   30.9950   42.4140 H   0  0  0  0  0  0  0  0  0  0  0  0
   57.4986   34.1646   44.1386 H   0  0  0  0  0  0  0  0  0  0  0  0
   58.5591   35.9614   45.4732 H   0  0  0  0  0  0  0  0  0  0  0  0
   60.4042   35.4329   47.0432 H   0  0  0  0  0  0  0  0  0  0  0  0
   63.3972   32.8325   47.9862 H   0  0  0  0  0  0  0  0  0  0  0  0
   62.8445   31.9757   46.5073 H   0  0  0  0  0  0  0  0  0  0  0  0
   62.9877   33.7663   46.5073 H   0  0  0  0  0  0  0  0  0  0  0  0
  1  2  1  0
  2  3  1  0
  3  4  1  0
  4  5  1  0
  3  6  1  0
  6  7  1  0
  7  8  1  0
  8  9  1  0
  9 10  1  0
 10 11  1  0
 11 12  1  0
 12 13  2  0
 13 14  1  0
 14 15  2  0
 15 16  1  0
 16 17  2  0
 17 18  1  0
 18 19  2  0
 19 20  1  0
 19 21  1  0
 21 22  2  0
 22 23  1  0
 23 24  2  0
 24 25  1  0
 25 26  1  0
 26 27  1  0
 25 28  2  0
 28 12  1  0
 18 13  1  0
 28 21  1  0
  1 29  1  0
  1 30  1  0
  1 31  1  0
  2 32  1  0
  2 33  1  0
  3 34  1  0
  4 35  1  0
  4 36  1  0
  5 37  1  0
  5 38  1  0
  5 39  1  0
  6 40  1  0
  6 41  1  0
  7 42  1  0
  7 43  1  0
  9 44  1  0
  9 45  1  0
 10 46  1  0
 10 47  1  0
 11 48  1  0
 14 49  1  0
 15 50  1  0
 16 51  1  0
 17 52  1  0
 20 53  1  0
 20 54  1  0
 20 55  1  0
 22 56  1  0
 23 57  1  0
 24 58  1  0
 27 59  1  0
 27 60  1  0
 27 61  1  0
M  CHG  2   3   1  19   1
M  END
>  <UniqueID>  (26) 
26

>  <SMILES>  (26) 
CC[NH+](CC)CCOCCNc1c2ccccc2[n+](C)c2cccc(OC)c12

>  <Energy>  (26) 
93.77643566399983

>  <Genealogy>  (26) 
CC[NH+](CC)CCOCCNc1c2ccccc2[n+](C)c2cccc(OC)c12 (protonated)
CC[NH+](CC)CCOCCNc1c2ccccc2[n+](C)c2cccc(OC)c12 (3D coordinates assigned)
CC[NH+](CC)CCOCCNc1c2ccccc2[n+](C)c2cccc(OC)c12 (optimized conformer: 93.77643566399983 kcal/mol)

>  <smiles>  (26) 
CCN(CC)CCOCCNc1c2ccccc2[n+](C)c2cccc(OC)c12

>  <score_type>  (26) 
oracle

>  <origin>  (26) 
adg

>  <m_score__min__energy>  (26) 
-3.8799999999999999

>  <m_primary>  (26) 
energy

$$$$
26:0
     RDKit          3D

 47 49  0  0  0  0  0  0  0  0999 V2000
   57.7960   27.7630   43.4300 C   0  0  0  0  0  0  0  0  0  0  0  0
   57.9800   28.9410   44.3510 C   0  0  0  0  0  0  0  0  0  0  0  0
   58.6950   28.7650   45.5440 C   0  0  0  0  0  0  0  0  0  0  0  0
   58.8930   29.8260   46.4240 C   0  0  0  0  0  0  0  0  0  0  0  0
   58.3850   31.1060   46.1330 C   0  0  0  0  0  0  0  0  0  0  0  0
   58.5700   32.2240   46.9910 C   0  0  0  0  0  0  0  0  0  0  0  0
   59.3840   32.1510   48.2760 C   0  0  0  0  0  0  0  0  0  0  0  0
   60.5860   33.0130   48.2200 N   0  0  0  0  0  0  0  0  0  0  0  0
   61.0900   33.2010   46.8310 C   0  0  0  0  0  0  0  0  0  0  0  0
   62.4830   33.8540   46.7200 C   0  0  0  0  0  0  0  0  0  0  0  0
   63.6920   32.8930   46.8540 C   0  0  0  0  0  0  0  0  0  0  0  0
   63.8970   32.3330   48.2130 N   0  0  1  0  0  0  0  0  0  0  0  0
   64.3200   33.4100   49.1290 C   0  0  0  0  0  0  0  0  0  0  0  0
   62.6850   31.6810   48.7640 C   0  0  0  0  0  0  0  0  0  0  0  0
   61.5870   32.6540   49.2490 C   0  0  0  0  0  0  0  0  0  0  0  0
   57.9050   33.4190   46.6720 C   0  0  0  0  0  0  0  0  0  0  0  0
   57.1750   33.5100   45.4890 C   0  0  0  0  0  0  0  0  0  0  0  0
   56.6030   34.5900   45.1850 O   0  0  0  0  0  0  0  0  0  0  0  0
   57.0780   32.4680   44.6790 O   0  0  0  0  0  0  0  0  0  0  0  0
   57.6340   31.2870   44.9420 C   0  0  0  0  0  0  0  0  0  0  0  0
   57.4620   30.2190   44.0310 C   0  0  0  0  0  0  0  0  0  0  0  0
   56.6680   30.4290   42.7620 C   0  0  0  0  0  0  0  0  0  0  0  0
   57.6534   26.8499   44.0266 H   0  0  0  0  0  0  0  0  0  0  0  0
   56.9128   27.9281   42.7955 H   0  0  0  0  0  0  0  0  0  0  0  0
   58.6875   27.6509   42.7955 H   0  0  0  0  0  0  0  0  0  0  0  0
   59.1056   27.7743   45.7885 H   0  0  0  0  0  0  0  0  0  0  0  0
   59.4525   29.6619   47.3567 H   0  0  0  0  0  0  0  0  0  0  0  0
   58.7523   32.4764   49.1157 H   0  0  0  0  0  0  0  0  0  0  0  0
   59.7172   31.1111   48.4088 H   0  0  0  0  0  0  0  0  0  0  0  0
   61.1381   32.2129   46.3499 H   0  0  0  0  0  0  0  0  0  0  0  0
   60.3886   33.8939   46.3432 H   0  0  0  0  0  0  0  0  0  0  0  0
   62.5487   34.3438   45.7372 H   0  0  0  0  0  0  0  0  0  0  0  0
   62.5566   34.5467   47.5713 H   0  0  0  0  0  0  0  0  0  0  0  0
   63.5410   32.0546   46.1581 H   0  0  0  0  0  0  0  0  0  0  0  0
   64.5876   33.4903   46.6280 H   0  0  0  0  0  0  0  0  0  0  0  0
   64.6890   31.6500   48.2080 H   0  0  0  0  0  0  0  0  0  0  0  0
   64.1898   33.0784   50.1697 H   0  0  0  0  0  0  0  0  0  0  0  0
   65.3787   33.6488   48.9500 H   0  0  0  0  0  0  0  0  0  0  0  0
   63.7068   34.3055   48.9500 H   0  0  0  0  0  0  0  0  0  0  0  0
   62.2535   31.0426   47.9790 H   0  0  0  0  0  0  0  0  0  0  0  0
   63.0130   31.1188   49.6508 H   0  0  0  0  0  0  0  0  0  0  0  0
   61.0595   32.1839   50.0920 H   0  0  0  0  0  0  0  0  0  0  0  0
   62.0976   33.5877   49.5274 H   0  0  0  0  0  0  0  0  0  0  0  0
   57.9603   34.2803   47.3540 H   0  0  0  0  0  0  0  0  0  0  0  0
   55.6337   30.7026   43.0177 H   0  0  0  0  0  0  0  0  0  0  0  0
   57.1259   31.2369   42.1724 H   0  0  0  0  0  0  0  0  0  0  0  0
   56.6666   29.5003   42.1724 H   0  0  0  0  0  0  0  0  0  0  0  0
  1  2  1  0
  2  3  2  0
  3  4  1  0
  4  5  2  0
  5  6  1  0
  6  7  1  0
  7  8  1  0
  8  9  1  0
  9 10  1  0
 10 11  1  0
 11 12  1  0
 12 13  1  0
 12 14  1  0
 14 15  1  0
  6 16  2  0
 16 17  1  0
 17 18  2  0
 17 19  1  0
 19 20  1  0
 20 21  2  0
 21 22  1  0
 21  2  1  0
 20  5  1  0
 15  8  1  0
  1 23  1  0
  1 24  1  0
  1 25  1  0
  3 26  1  0
  4 27  1  0
  7 28  1  0
  7 29  1  0
  9 30  1  0
  9 31  1  0
 10 32  1  0
 10 33  1  0
 11 34  1  0
 11 35  1  0
 12 36  1  6
 13 37  1  0
 13 38  1  0
 13 39  1  0
 14 40  1  0
 14 41  1  0
 15 42  1  0
 15 43  1  0
 16 44  1  0
 22 45  1  0
 22 46  1  0
 22 47  1  0
M  CHG  1  12   1
M  END
>  <UniqueID>  (27) 
27

>  <SMILES>  (27) 
Cc1ccc2c(CN3CCC[N@@H+](C)CC3)cc(=O)oc2c1C

>  <Energy>  (27) 
78.40347221941269

>  <Genealogy>  (27) 
Cc1ccc2c(CN3CCC[NH+](C)CC3)cc(=O)oc2c1C (protonated)
Cc1ccc2c(CN3CCC[N@@H+](C)CC3)cc(=O)oc2c1C (chirality)
Cc1ccc2c(CN3CCC[N@@H+](C)CC3)cc(=O)oc2c1C (3D coordinates assigned)
Cc1ccc2c(CN3CCC[N@@H+](C)CC3)cc(=O)oc2c1C (nonaromatic ring conformer: 78.40347221941269 kcal/mol)

>  <smiles>  (27) 
Cc1ccc2c(CN3CCCN(C)CC3)cc(=O)oc2c1C

>  <score_type>  (27) 
oracle

>  <origin>  (27) 
adg

>  <m_score__min__energy>  (27) 
-5

>  <m_primary>  (27) 
energy

$$$$
27:0
     RDKit          3D

 40 41  0  0  0  0  0  0  0  0999 V2000
   63.0070   33.8230   47.7060 C   0  0  0  0  0  0  0  0  0  0  0  0
   62.2490   33.8390   46.3720 C   0  0  0  0  0  0  0  0  0  0  0  0
   60.7820   33.6110   46.5040 N   0  0  0  0  0  0  0  0  0  0  0  0
   59.9880   34.8650   46.3500 C   0  0  0  0  0  0  0  0  0  0  0  0
   59.1820   34.9530   45.0460 C   0  0  0  0  0  0  0  0  0  0  0  0
   60.4340   32.8420   47.7450 C   0  0  1  0  0  0  0  0  0  0  0  0
   58.9090   32.8190   48.0140 C   0  0  0  0  0  0  0  0  0  0  0  0
   58.1420   32.2230   46.8220 C   0  0  0  0  0  0  0  0  0  0  0  0
   58.7980   30.9870   46.2320 C   0  0  0  0  0  0  0  0  0  0  0  0
   60.1200   30.6200   46.5870 C   0  0  0  0  0  0  0  0  0  0  0  0
   60.7150   29.4980   45.9920 C   0  0  0  0  0  0  0  0  0  0  0  0
   60.0260   28.7640   45.0280 C   0  0  0  0  0  0  0  0  0  0  0  0
   58.7340   29.1330   44.6540 C   0  0  0  0  0  0  0  0  0  0  0  0
   58.1100   30.2480   45.2470 C   0  0  0  0  0  0  0  0  0  0  0  0
   56.8140   30.6490   44.8800 O   0  0  0  0  0  0  0  0  0  0  0  0
   56.2360   30.4430   43.5960 C   0  0  0  0  0  0  0  0  0  0  0  0
   60.8600   31.3560   47.6760 C   0  0  0  0  0  0  0  0  0  0  0  0
   62.2867   33.8382   48.5372 H   0  0  0  0  0  0  0  0  0  0  0  0
   63.6199   32.9117   47.7686 H   0  0  0  0  0  0  0  0  0  0  0  0
   63.6578   34.7076   47.7686 H   0  0  0  0  0  0  0  0  0  0  0  0
   62.4051   34.8190   45.8975 H   0  0  0  0  0  0  0  0  0  0  0  0
   62.6467   33.0082   45.7707 H   0  0  0  0  0  0  0  0  0  0  0  0
   59.2851   34.9322   47.1934 H   0  0  0  0  0  0  0  0  0  0  0  0
   60.7123   35.6926   46.3262 H   0  0  0  0  0  0  0  0  0  0  0  0
   58.1140   35.0696   45.2822 H   0  0  0  0  0  0  0  0  0  0  0  0
   59.5248   35.8191   44.4608 H   0  0  0  0  0  0  0  0  0  0  0  0
   59.3298   34.0334   44.4608 H   0  0  0  0  0  0  0  0  0  0  0  0
   60.9789   33.3701   48.5413 H   0  0  0  0  0  0  0  0  0  0  0  0
   58.7117   32.2096   48.9083 H   0  0  0  0  0  0  0  0  0  0  0  0
   58.5669   33.8534   48.1657 H   0  0  0  0  0  0  0  0  0  0  0  0
   57.1308   31.9520   47.1598 H   0  0  0  0  0  0  0  0  0  0  0  0
   58.1288   32.9886   46.0323 H   0  0  0  0  0  0  0  0  0  0  0  0
   61.7305   29.1957   46.2876 H   0  0  0  0  0  0  0  0  0  0  0  0
   60.5032   27.8902   44.5603 H   0  0  0  0  0  0  0  0  0  0  0  0
   58.1986   28.5493   43.8907 H   0  0  0  0  0  0  0  0  0  0  0  0
   55.2057   30.0758   43.7124 H   0  0  0  0  0  0  0  0  0  0  0  0
   56.2263   31.3930   43.0416 H   0  0  0  0  0  0  0  0  0  0  0  0
   56.8293   29.7010   43.0416 H   0  0  0  0  0  0  0  0  0  0  0  0
   60.6438   30.8767   48.6422 H   0  0  0  0  0  0  0  0  0  0  0  0
   61.9360   31.3150   47.4513 H   0  0  0  0  0  0  0  0  0  0  0  0
  1  2  1  0
  2  3  1  0
  3  4  1  0
  4  5  1  0
  3  6  1  0
  6  7  1  0
  7  8  1  0
  8  9  1  0
  9 10  2  0
 10 11  1  0
 11 12  2  0
 12 13  1  0
 13 14  2  0
 14 15  1  0
 15 16  1  0
 10 17  1  0
 17  6  1  0
 14  9  1  0
  1 18  1  0
  1 19  1  0
  1 20  1  0
  2 21  1  0
  2 22  1  0
  4 23  1  0
  4 24  1  0
  5 25  1  0
  5 26  1  0
  5 27  1  0
  6 28  1  1
  7 29  1  0
  7 30  1  0
  8 31  1  0
  8 32  1  0
 11 33  1  0
 12 34  1  0
 13 35  1  0
 16 36  1  0
 16 37  1  0
 16 38  1  0
 17 39  1  0
 17 40  1  0
M  END
>  <UniqueID>  (28) 
28

>  <SMILES>  (28) 
CCN(CC)[C@H]1CCc2c(cccc2OC)C1

>  <Energy>  (28) 
50.02228016771965

>  <Genealogy>  (28) 
CCN(CC)[C@H]1CCc2c(cccc2OC)C1 (chirality)
CCN(CC)[C@H]1CCc2c(cccc2OC)C1 (3D coordinates assigned)
CCN(CC)[C@H]1CCc2c(cccc2OC)C1 (nonaromatic ring conformer: 50.02228016771965 kcal/mol)

>  <smiles>  (28) 
CCN(CC)C1CCc2c(cccc2OC)C1

>  <score_type>  (28) 
oracle

>  <origin>  (28) 
adg

>  <m_score__min__energy>  (28) 
-6.0099999999999998

>  <m_primary>  (28) 
energy

$$$$
28:0
     RDKit          3D

 39 41  0  0  0  0  0  0  0  0999 V2000
   58.5290   32.5610   49.0270 C   0  0  0  0  0  0  0  0  0  0  0  0
   59.5920   33.0760   48.0920 C   0  0  0  0  0  0  0  0  0  0  0  0
   60.9430   32.8980   48.4380 C   0  0  0  0  0  0  0  0  0  0  0  0
   61.9590   33.3520   47.5960 C   0  0  0  0  0  0  0  0  0  0  0  0
   63.7900   33.0980   48.0810 Br  0  0  0  0  0  0  0  0  0  0  0  0
   61.6380   33.9920   46.4000 C   0  0  0  0  0  0  0  0  0  0  0  0
   60.3020   34.1820   46.0420 C   0  0  0  0  0  0  0  0  0  0  0  0
   59.2590   33.7320   46.8790 C   0  0  0  0  0  0  0  0  0  0  0  0
   57.8780   33.9420   46.5060 N   0  0  0  0  0  0  0  0  0  0  0  0
   57.3860   33.7880   45.1330 C   0  0  0  0  0  0  0  0  0  0  0  0
   57.0220   32.3240   44.8240 C   0  0  1  0  0  0  0  0  0  0  0  0
   57.3950   31.9700   43.3750 C   0  0  0  0  0  0  0  0  0  0  0  0
   57.0540   30.5040   43.0760 C   0  0  0  0  0  0  0  0  0  0  0  0
   57.6430   29.5730   44.1050 C   0  0  0  0  0  0  0  0  0  0  0  0
   57.8510   28.2200   43.7890 C   0  0  0  0  0  0  0  0  0  0  0  0
   58.3630   27.3430   44.7500 C   0  0  0  0  0  0  0  0  0  0  0  0
   58.6600   27.8050   46.0340 C   0  0  0  0  0  0  0  0  0  0  0  0
   58.4410   29.1460   46.3640 C   0  0  0  0  0  0  0  0  0  0  0  0
   57.9230   30.0320   45.4090 C   0  0  0  0  0  0  0  0  0  0  0  0
   57.7080   31.4120   45.7470 N   0  0  0  0  0  0  0  0  0  0  0  0
   58.8496   32.7163   50.0677 H   0  0  0  0  0  0  0  0  0  0  0  0
   57.5890   33.1036   48.8480 H   0  0  0  0  0  0  0  0  0  0  0  0
   58.3722   31.4870   48.8480 H   0  0  0  0  0  0  0  0  0  0  0  0
   61.2017   32.3958   49.3819 H   0  0  0  0  0  0  0  0  0  0  0  0
   62.4396   34.3484   45.7364 H   0  0  0  0  0  0  0  0  0  0  0  0
   60.0596   34.6886   45.0961 H   0  0  0  0  0  0  0  0  0  0  0  0
   57.1860   34.2040   47.2420 H   0  0  0  0  0  0  0  0  0  0  0  0
   56.4911   34.4140   45.0018 H   0  0  0  0  0  0  0  0  0  0  0  0
   58.1853   34.0974   44.4436 H   0  0  0  0  0  0  0  0  0  0  0  0
   55.9356   32.2102   44.9536 H   0  0  0  0  0  0  0  0  0  0  0  0
   56.8337   32.6199   42.6875 H   0  0  0  0  0  0  0  0  0  0  0  0
   58.4764   32.1190   43.2391 H   0  0  0  0  0  0  0  0  0  0  0  0
   55.9604   30.3859   43.0731 H   0  0  0  0  0  0  0  0  0  0  0  0
   57.4812   30.2458   42.0958 H   0  0  0  0  0  0  0  0  0  0  0  0
   57.6101   27.8492   42.7818 H   0  0  0  0  0  0  0  0  0  0  0  0
   58.5323   26.2867   44.4941 H   0  0  0  0  0  0  0  0  0  0  0  0
   59.0666   27.1133   46.7865 H   0  0  0  0  0  0  0  0  0  0  0  0
   58.6759   29.5069   47.3762 H   0  0  0  0  0  0  0  0  0  0  0  0
   58.0010   31.7530   46.6920 H   0  0  0  0  0  0  0  0  0  0  0  0
  1  2  1  0
  2  3  2  0
  3  4  1  0
  4  5  1  0
  4  6  2  0
  6  7  1  0
  7  8  2  0
  8  9  1  0
  9 10  1  0
 10 11  1  0
 11 12  1  0
 12 13  1  0
 13 14  1  0
 14 15  2  0
 15 16  1  0
 16 17  2  0
 17 18  1  0
 18 19  2  0
 19 20  1  0
  8  2  1  0
 20 11  1  0
 19 14  1  0
  1 21  1  0
  1 22  1  0
  1 23  1  0
  3 24  1  0
  6 25  1  0
  7 26  1  0
  9 27  1  0
 10 28  1  0
 10 29  1  0
 11 30  1  6
 12 31  1  0
 12 32  1  0
 13 33  1  0
 13 34  1  0
 15 35  1  0
 16 36  1  0
 17 37  1  0
 18 38  1  0
 20 39  1  0
M  END
>  <UniqueID>  (29) 
29

>  <SMILES>  (29) 
Cc1cc(Br)ccc1NC[C@H]1CCc2ccccc2N1

>  <Energy>  (29) 
39.26297083824112

>  <Genealogy>  (29) 
Cc1cc(Br)ccc1NC[C@H]1CCc2ccccc2N1 (chirality)
Cc1cc(Br)ccc1NC[C@H]1CCc2ccccc2N1 (3D coordinates assigned)
Cc1cc(Br)ccc1NC[C@H]1CCc2ccccc2N1 (nonaromatic ring conformer: 39.26297083824112 kcal/mol)

>  <smiles>  (29) 
Cc1cc(Br)ccc1NCC1CCc2ccccc2N1

>  <score_type>  (29) 
oracle

>  <origin>  (29) 
adg

>  <m_score__min__energy>  (29) 
-7.96

>  <m_primary>  (29) 
energy

$$$$
29:0
     RDKit          3D

 61 64  0  0  0  0  0  0  0  0999 V2000
   58.6530   32.4610   48.2490 C   0  0  0  0  0  0  0  0  0  0  0  0
   57.7890   33.0540   47.1370 C   0  0  0  0  0  0  0  0  0  0  0  0
   58.3980   32.7650   45.8100 N   0  0  0  0  0  0  0  0  0  0  0  0
   57.4480   32.0670   44.9130 C   0  0  0  0  0  0  0  0  0  0  0  0
   57.8710   32.1650   43.4490 C   0  0  0  0  0  0  0  0  0  0  0  0
   58.9080   34.0010   45.1630 C   0  0  0  0  0  0  0  0  0  0  0  0
   59.4010   35.0090   46.2130 C   0  0  0  0  0  0  0  0  0  0  0  0
   60.8140   35.0510   46.2850 O   0  0  0  0  0  0  0  0  0  0  0  0
   61.3750   33.7510   46.3490 C   0  0  0  0  0  0  0  0  0  0  0  0
   62.8910   33.8320   46.5040 C   0  0  0  0  0  0  0  0  0  0  0  0
   63.4510   32.5380   46.8910 N   0  0  0  0  0  0  0  0  0  0  0  0
   62.9290   31.8530   48.0410 C   0  0  0  0  0  0  0  0  0  0  0  0
   63.4840   32.0700   49.3160 C   0  0  0  0  0  0  0  0  0  0  0  0
   64.5420   32.9870   49.4910 C   0  0  0  0  0  0  0  0  0  0  0  0
   65.0960   33.2020   50.7470 C   0  0  0  0  0  0  0  0  0  0  0  0
   64.6040   32.5140   51.8510 C   0  0  0  0  0  0  0  0  0  0  0  0
   63.5500   31.6140   51.7080 C   0  0  0  0  0  0  0  0  0  0  0  0
   62.9630   31.3720   50.4390 C   0  0  0  0  0  0  0  0  0  0  0  0
   61.9070   30.4930   50.2840 N   0  0  0  0  0  0  0  0  0  0  0  0
   61.3690   29.7700   51.4560 C   0  0  0  0  0  0  0  0  0  0  0  0
   61.3570   30.2810   49.0400 C   0  0  0  0  0  0  0  0  0  0  0  0
   60.3180   29.4090   48.8860 N   0  0  0  0  0  0  0  0  0  0  0  0
   59.7430   29.1460   47.6850 C   0  0  0  0  0  0  0  0  0  0  0  0
   58.6790   28.2410   47.5980 C   0  0  0  0  0  0  0  0  0  0  0  0
   58.0890   27.9700   46.3570 C   0  0  0  0  0  0  0  0  0  0  0  0
   58.5610   28.6040   45.2030 C   0  0  0  0  0  0  0  0  0  0  0  0
   59.6220   29.5110   45.2840 C   0  0  0  0  0  0  0  0  0  0  0  0
   60.2180   29.7860   46.5260 C   0  0  0  0  0  0  0  0  0  0  0  0
   61.2810   30.6880   46.6410 C   0  0  0  0  0  0  0  0  0  0  0  0
   61.8590   30.9530   47.8990 C   0  0  0  0  0  0  0  0  0  0  0  0
   58.2380   32.7458   49.2271 H   0  0  0  0  0  0  0  0  0  0  0  0
   58.6632   31.3646   48.1602 H   0  0  0  0  0  0  0  0  0  0  0  0
   59.6797   32.8457   48.1602 H   0  0  0  0  0  0  0  0  0  0  0  0
   56.7836   32.6099   47.1809 H   0  0  0  0  0  0  0  0  0  0  0  0
   57.7220   34.1434   47.2739 H   0  0  0  0  0  0  0  0  0  0  0  0
   57.4022   31.0060   45.1997 H   0  0  0  0  0  0  0  0  0  0  0  0
   56.4644   32.5485   45.0168 H   0  0  0  0  0  0  0  0  0  0  0  0
   58.9412   32.4129   43.3924 H   0  0  0  0  0  0  0  0  0  0  0  0
   57.6910   31.2014   42.9500 H   0  0  0  0  0  0  0  0  0  0  0  0
   57.2855   32.9513   42.9500 H   0  0  0  0  0  0  0  0  0  0  0  0
   59.7424   33.7396   44.4956 H   0  0  0  0  0  0  0  0  0  0  0  0
   58.0881   34.4619   44.5926 H   0  0  0  0  0  0  0  0  0  0  0  0
   59.0290   36.0094   45.9471 H   0  0  0  0  0  0  0  0  0  0  0  0
   59.0200   34.6909   47.1947 H   0  0  0  0  0  0  0  0  0  0  0  0
   60.9508   33.2154   47.2110 H   0  0  0  0  0  0  0  0  0  0  0  0
   61.1400   33.2151   45.4176 H   0  0  0  0  0  0  0  0  0  0  0  0
   63.3338   34.1430   45.5463 H   0  0  0  0  0  0  0  0  0  0  0  0
   63.1227   34.5627   47.2929 H   0  0  0  0  0  0  0  0  0  0  0  0
   64.4480   32.3430   46.6320 H   0  0  0  0  0  0  0  0  0  0  0  0
   64.9328   33.5381   48.6229 H   0  0  0  0  0  0  0  0  0  0  0  0
   65.9237   33.9163   50.8681 H   0  0  0  0  0  0  0  0  0  0  0  0
   65.0495   32.6813   52.8427 H   0  0  0  0  0  0  0  0  0  0  0  0
   63.1672   31.0831   52.5921 H   0  0  0  0  0  0  0  0  0  0  0  0
   61.7264   30.2503   52.3788 H   0  0  0  0  0  0  0  0  0  0  0  0
   60.2696   29.7971   51.4306 H   0  0  0  0  0  0  0  0  0  0  0  0
   61.7107   28.7247   51.4306 H   0  0  0  0  0  0  0  0  0  0  0  0
   58.3059   27.7423   48.5047 H   0  0  0  0  0  0  0  0  0  0  0  0
   57.2534   27.2577   46.2898 H   0  0  0  0  0  0  0  0  0  0  0  0
   58.0964   28.3885   44.2295 H   0  0  0  0  0  0  0  0  0  0  0  0
   59.9901   30.0093   44.3750 H   0  0  0  0  0  0  0  0  0  0  0  0
   61.6682   31.1936   45.7441 H   0  0  0  0  0  0  0  0  0  0  0  0
  1  2  1  0
  2  3  1  0
  3  4  1  0
  4  5  1  0
  3  6  1  0
  6  7  1  0
  7  8  1  0
  8  9  1  0
  9 10  1  0
 10 11  1  0
 11 12  1  0
 12 13  2  0
 13 14  1  0
 14 15  2  0
 15 16  1  0
 16 17  2  0
 17 18  1  0
 18 19  2  0
 19 20  1  0
 19 21  1  0
 21 22  2  0
 22 23  1  0
 23 24  2  0
 24 25  1  0
 25 26  2  0
 26 27  1  0
 27 28  2  0
 28 29  1  0
 29 30  2  0
 30 12  1  0
 18 13  1  0
 30 21  1  0
 28 23  1  0
  1 31  1  0
  1 32  1  0
  1 33  1  0
  2 34  1  0
  2 35  1  0
  4 36  1  0
  4 37  1  0
  5 38  1  0
  5 39  1  0
  5 40  1  0
  6 41  1  0
  6 42  1  0
  7 43  1  0
  7 44  1  0
  9 45  1  0
  9 46  1  0
 10 47  1  0
 10 48  1  0
 11 49  1  0
 14 50  1  0
 15 51  1  0
 16 52  1  0
 17 53  1  0
 20 54  1  0
 20 55  1  0
 20 56  1  0
 24 57  1  0
 25 58  1  0
 26 59  1  0
 27 60  1  0
 29 61  1  0
M  CHG  1  19   1
M  END
>  <UniqueID>  (30) 
30

>  <SMILES>  (30) 
CCN(CC)CCOCCNc1c2ccccc2[n+](C)c2nc3ccccc3cc12

>  <Energy>  (30) 
88.92560006252762

>  <Genealogy>  (30) 
CCN(CC)CCOCCNc1c2ccccc2[n+](C)c2nc3ccccc3cc12 (3D coordinates assigned)
CCN(CC)CCOCCNc1c2ccccc2[n+](C)c2nc3ccccc3cc12 (optimized conformer: 88.92560006252762 kcal/mol)

>  <smiles>  (30) 
CCN(CC)CCOCCNc1c2ccccc2[n+](C)c2nc3ccccc3cc12

>  <score_type>  (30) 
oracle

>  <origin>  (30) 
adg

>  <m_score__min__energy>  (30) 
-6.5800000000000001

>  <m_primary>  (30) 
energy

$$$$
30:0
     RDKit          3D

 39 41  0  0  0  0  0  0  0  0999 V2000
   58.2260   27.3590   43.5490 C   0  0  0  0  0  0  0  0  0  0  0  0
   57.3910   28.5710   43.1500 C   0  0  0  0  0  0  0  0  0  0  0  0
   57.9220   29.7950   43.7490 N   0  0  0  0  0  0  0  0  0  0  0  0
   57.2160   30.4840   44.7890 C   0  0  0  0  0  0  0  0  0  0  0  0
   56.1270   30.0190   45.2270 O   0  0  0  0  0  0  0  0  0  0  0  0
   57.7910   31.7400   45.3940 C   0  0  2  0  0  0  0  0  0  0  0  0
   57.6140   32.9360   44.4350 C   0  0  0  0  0  0  0  0  0  0  0  0
   58.5300   34.1340   44.7630 C   0  0  0  0  0  0  0  0  0  0  0  0
   59.1360   34.0620   46.1690 C   0  0  0  0  0  0  0  0  0  0  0  0
   59.8310   32.7800   46.3580 N   0  0  0  0  0  0  0  0  0  0  0  0
   61.0320   32.6980   47.1500 C   0  0  0  0  0  0  0  0  0  0  0  0
   61.1350   31.9110   48.2520 N   0  0  0  0  0  0  0  0  0  0  0  0
   62.3610   32.0290   48.8230 C   0  0  0  0  0  0  0  0  0  0  0  0
   62.7660   31.3420   49.9680 C   0  0  0  0  0  0  0  0  0  0  0  0
   64.0660   31.5550   50.4580 C   0  0  0  0  0  0  0  0  0  0  0  0
   64.9410   32.4470   49.8040 C   0  0  0  0  0  0  0  0  0  0  0  0
   66.7020   32.7250   50.4860 Br  0  0  0  0  0  0  0  0  0  0  0  0
   64.5210   33.1320   48.6530 C   0  0  0  0  0  0  0  0  0  0  0  0
   63.2280   32.9030   48.1870 C   0  0  0  0  0  0  0  0  0  0  0  0
   62.4590   33.5720   46.8550 S   0  0  0  0  0  0  0  0  0  0  0  0
   59.2660   31.5460   45.7880 C   0  0  0  0  0  0  0  0  0  0  0  0
   58.2728   27.2910   44.6459 H   0  0  0  0  0  0  0  0  0  0  0  0
   57.7641   26.4463   43.1445 H   0  0  0  0  0  0  0  0  0  0  0  0
   59.2434   27.4654   43.1445 H   0  0  0  0  0  0  0  0  0  0  0  0
   57.4041   28.6718   42.0547 H   0  0  0  0  0  0  0  0  0  0  0  0
   56.3629   28.4220   43.5116 H   0  0  0  0  0  0  0  0  0  0  0  0
   58.8380   30.1790   43.4200 H   0  0  0  0  0  0  0  0  0  0  0  0
   57.2345   31.9613   46.3166 H   0  0  0  0  0  0  0  0  0  0  0  0
   57.8375   32.5975   43.4125 H   0  0  0  0  0  0  0  0  0  0  0  0
   56.5765   33.2849   44.5438 H   0  0  0  0  0  0  0  0  0  0  0  0
   59.3495   34.1588   44.0297 H   0  0  0  0  0  0  0  0  0  0  0  0
   57.9101   35.0416   44.7198 H   0  0  0  0  0  0  0  0  0  0  0  0
   59.8528   34.8863   46.2982 H   0  0  0  0  0  0  0  0  0  0  0  0
   58.3292   34.1456   46.9120 H   0  0  0  0  0  0  0  0  0  0  0  0
   62.0815   30.6475   50.4770 H   0  0  0  0  0  0  0  0  0  0  0  0
   64.4037   31.0217   51.3589 H   0  0  0  0  0  0  0  0  0  0  0  0
   65.1939   33.8301   48.1334 H   0  0  0  0  0  0  0  0  0  0  0  0
   59.8426   31.2669   44.8938 H   0  0  0  0  0  0  0  0  0  0  0  0
   59.3222   30.7532   46.5485 H   0  0  0  0  0  0  0  0  0  0  0  0
  1  2  1  0
  2  3  1  0
  3  4  1  0
  4  5  2  0
  4  6  1  0
  6  7  1  0
  7  8  1  0
  8  9  1  0
  9 10  1  0
 10 11  1  0
 11 12  2  0
 12 13  1  0
 13 14  2  0
 14 15  1  0
 15 16  2  0
 16 17  1  0
 16 18  1  0
 18 19  2  0
 19 20  1  0
 10 21  1  0
 21  6  1  0
 20 11  1  0
 19 13  1  0
  1 22  1  0
  1 23  1  0
  1 24  1  0
  2 25  1  0
  2 26  1  0
  3 27  1  0
  6 28  1  1
  7 29  1  0
  7 30  1  0
  8 31  1  0
  8 32  1  0
  9 33  1  0
  9 34  1  0
 14 35  1  0
 15 36  1  0
 18 37  1  0
 21 38  1  0
 21 39  1  0
M  END
>  <UniqueID>  (31) 
31

>  <SMILES>  (31) 
CCNC(=O)[C@@H]1CCCN(c2nc3ccc(Br)cc3s2)C1

>  <Energy>  (31) 
70.81994447734363

>  <Genealogy>  (31) 
CCNC(=O)[C@@H]1CCCN(c2nc3ccc(Br)cc3s2)C1 (chirality)
CCNC(=O)[C@@H]1CCCN(c2nc3ccc(Br)cc3s2)C1 (3D coordinates assigned)
CCNC(=O)[C@@H]1CCCN(c2nc3ccc(Br)cc3s2)C1 (nonaromatic ring conformer: 70.81994447734363 kcal/mol)

>  <smiles>  (31) 
CCNC(=O)C1CCCN(c2nc3ccc(Br)cc3s2)C1

>  <score_type>  (31) 
oracle

>  <origin>  (31) 
adg

>  <m_score__min__energy>  (31) 
-7.9299999999999997

>  <m_primary>  (31) 
energy

$$$$
31:0
     RDKit          3D

 52 53  0  0  0  0  0  0  0  0999 V2000
   65.6250   32.7100   49.9960 C   0  0  0  0  0  0  0  0  0  0  0  0
   64.3470   31.9360   50.3340 C   0  0  0  0  0  0  0  0  0  0  0  0
   63.1780   32.3970   49.5410 N   0  0  0  0  0  0  0  0  0  0  0  0
   63.5570   33.5050   48.6270 C   0  0  0  0  0  0  0  0  0  0  0  0
   63.7400   33.0800   47.1610 C   0  0  0  0  0  0  0  0  0  0  0  0
   62.0090   32.7580   50.3990 C   0  0  0  0  0  0  0  0  0  0  0  0
   60.6890   32.1630   49.8730 C   0  0  0  0  0  0  0  0  0  0  0  0
   60.9150   30.9060   49.2360 O   0  0  0  0  0  0  0  0  0  0  0  0
   60.9430   30.7450   47.8450 C   0  0  0  0  0  0  0  0  0  0  0  0
   62.0380   30.5400   47.2550 O   0  0  0  0  0  0  0  0  0  0  0  0
   59.6810   30.8790   47.0210 C   0  0  2  0  0  0  0  0  0  0  0  0
   59.6150   29.9310   45.7970 C   0  0  0  0  0  0  0  0  0  0  0  0
   58.3190   29.9850   45.0160 C   0  0  0  0  0  0  0  0  0  0  0  0
   57.1880   29.2760   45.4590 C   0  0  0  0  0  0  0  0  0  0  0  0
   55.9890   29.3420   44.7450 C   0  0  0  0  0  0  0  0  0  0  0  0
   55.9030   30.1190   43.5880 C   0  0  0  0  0  0  0  0  0  0  0  0
   57.0110   30.8490   43.1550 C   0  0  0  0  0  0  0  0  0  0  0  0
   58.2100   30.7950   43.8720 C   0  0  0  0  0  0  0  0  0  0  0  0
   59.3870   32.3220   46.6410 C   0  0  0  0  0  0  0  0  0  0  0  0
   58.0560   32.7260   46.4350 C   0  0  0  0  0  0  0  0  0  0  0  0
   57.7650   34.0350   46.0390 C   0  0  0  0  0  0  0  0  0  0  0  0
   58.7970   34.9520   45.8350 C   0  0  0  0  0  0  0  0  0  0  0  0
   60.1250   34.5620   46.0220 C   0  0  0  0  0  0  0  0  0  0  0  0
   60.4220   33.2560   46.4190 C   0  0  0  0  0  0  0  0  0  0  0  0
   66.1266   33.0138   50.9266 H   0  0  0  0  0  0  0  0  0  0  0  0
   66.2983   32.0678   49.4093 H   0  0  0  0  0  0  0  0  0  0  0  0
   65.3678   33.6042   49.4093 H   0  0  0  0  0  0  0  0  0  0  0  0
   64.5154   30.8688   50.1270 H   0  0  0  0  0  0  0  0  0  0  0  0
   64.1209   32.1103   51.3963 H   0  0  0  0  0  0  0  0  0  0  0  0
   62.9110   31.6080   48.9080 H   0  0  0  0  0  0  0  0  0  0  0  0
   62.7683   34.2707   48.6680 H   0  0  0  0  0  0  0  0  0  0  0  0
   64.5328   33.8782   48.9714 H   0  0  0  0  0  0  0  0  0  0  0  0
   64.1748   32.0703   47.1235 H   0  0  0  0  0  0  0  0  0  0  0  0
   62.7632   33.0776   46.6553 H   0  0  0  0  0  0  0  0  0  0  0  0
   64.4130   33.7880   46.6553 H   0  0  0  0  0  0  0  0  0  0  0  0
   62.1869   32.3790   51.4162 H   0  0  0  0  0  0  0  0  0  0  0  0
   61.9109   33.8536   50.3887 H   0  0  0  0  0  0  0  0  0  0  0  0
   59.9971   32.0202   50.7161 H   0  0  0  0  0  0  0  0  0  0  0  0
   60.2591   32.8579   49.1366 H   0  0  0  0  0  0  0  0  0  0  0  0
   58.8740   30.5438   47.6891 H   0  0  0  0  0  0  0  0  0  0  0  0
   60.4360   30.1966   45.1148 H   0  0  0  0  0  0  0  0  0  0  0  0
   59.6921   28.9085   46.1951 H   0  0  0  0  0  0  0  0  0  0  0  0
   57.2478   28.6662   46.3726 H   0  0  0  0  0  0  0  0  0  0  0  0
   55.1104   28.7804   45.0952 H   0  0  0  0  0  0  0  0  0  0  0  0
   54.9628   30.1557   43.0183 H   0  0  0  0  0  0  0  0  0  0  0  0
   56.9408   31.4677   42.2482 H   0  0  0  0  0  0  0  0  0  0  0  0
   59.0733   31.3898   43.5391 H   0  0  0  0  0  0  0  0  0  0  0  0
   57.2376   32.0068   46.5865 H   0  0  0  0  0  0  0  0  0  0  0  0
   56.7198   34.3428   45.8879 H   0  0  0  0  0  0  0  0  0  0  0  0
   58.5645   35.9821   45.5269 H   0  0  0  0  0  0  0  0  0  0  0  0
   60.9381   35.2841   45.8565 H   0  0  0  0  0  0  0  0  0  0  0  0
   61.4701   32.9532   46.5597 H   0  0  0  0  0  0  0  0  0  0  0  0
  1  2  1  0
  2  3  1  0
  3  4  1  0
  4  5  1  0
  3  6  1  0
  6  7  1  0
  7  8  1  0
  8  9  1  0
  9 10  2  0
  9 11  1  0
 11 12  1  0
 12 13  1  0
 13 14  2  0
 14 15  1  0
 15 16  2  0
 16 17  1  0
 17 18  2  0
 11 19  1  0
 19 20  2  0
 20 21  1  0
 21 22  2  0
 22 23  1  0
 23 24  2  0
 18 13  1  0
 24 19  1  0
  1 25  1  0
  1 26  1  0
  1 27  1  0
  2 28  1  0
  2 29  1  0
  3 30  1  0
  4 31  1  0
  4 32  1  0
  5 33  1  0
  5 34  1  0
  5 35  1  0
  6 36  1  0
  6 37  1  0
  7 38  1  0
  7 39  1  0
 11 40  1  1
 12 41  1  0
 12 42  1  0
 14 43  1  0
 15 44  1  0
 16 45  1  0
 17 46  1  0
 18 47  1  0
 20 48  1  0
 21 49  1  0
 22 50  1  0
 23 51  1  0
 24 52  1  0
M  CHG  1   3   1
M  END
>  <UniqueID>  (32) 
32

>  <SMILES>  (32) 
CC[NH+](CC)CCOC(=O)[C@H](Cc1ccccc1)c1ccccc1

>  <Energy>  (32) 
50.99321323120062

>  <Genealogy>  (32) 
CC[NH+](CC)CCOC(=O)C(Cc1ccccc1)c1ccccc1 (protonated)
CC[NH+](CC)CCOC(=O)[C@H](Cc1ccccc1)c1ccccc1 (chirality)
CC[NH+](CC)CCOC(=O)[C@H](Cc1ccccc1)c1ccccc1 (3D coordinates assigned)
CC[NH+](CC)CCOC(=O)[C@H](Cc1ccccc1)c1ccccc1 (optimized conformer: 50.99321323120062 kcal/mol)

>  <smiles>  (32) 
CCN(CC)CCOC(=O)C(Cc1ccccc1)c1ccccc1

>  <score_type>  (32) 
oracle

>  <origin>  (32) 
adg

>  <m_score__min__energy>  (32) 
-4.7199999999999998

>  <m_primary>  (32) 
energy

$$$$
32:0
     RDKit          3D

 51 55  0  0  0  0  0  0  0  0999 V2000
   59.2527   35.4604   46.2583 H   0  0  0  0  0  0  0  0  0  0  0  0
   58.9200   34.4320   46.0540 C   0  0  0  0  0  0  0  0  0  0  0  0
   57.7240   34.2070   45.4520 N   0  0  0  0  0  0  0  0  0  0  0  0
   57.2910   32.9480   45.1850 C   0  0  0  0  0  0  0  0  0  0  0  0
   56.3223   32.7891   44.6887 H   0  0  0  0  0  0  0  0  0  0  0  0
   58.0910   31.8470   45.5480 C   0  0  0  0  0  0  0  0  0  0  0  0
   57.7320   30.6120   45.3370 N   0  0  0  0  0  0  0  0  0  0  0  0
   58.5760   29.4500   45.3890 C   0  0  0  0  0  0  0  0  0  0  0  0
   59.8470   29.5780   45.1290 N   0  0  0  0  0  0  0  0  0  0  0  0
   60.2350   30.5260   44.9180 H   0  0  0  0  0  0  0  0  0  0  0  0
   60.7580   28.4290   45.0660 C   0  0  0  0  0  0  0  0  0  0  0  0
   60.6965   27.9764   44.0653 H   0  0  0  0  0  0  0  0  0  0  0  0
   61.7798   28.7821   45.2689 H   0  0  0  0  0  0  0  0  0  0  0  0
   60.3900   27.3730   46.1170 C   0  0  0  0  0  0  0  0  0  0  0  0
   60.9564   26.4507   45.9210 H   0  0  0  0  0  0  0  0  0  0  0  0
   60.6381   27.7567   47.1176 H   0  0  0  0  0  0  0  0  0  0  0  0
   58.9140   27.0760   46.0520 C   0  0  0  0  0  0  0  0  0  0  0  0
   58.4240   25.8100   46.3960 C   0  0  0  0  0  0  0  0  0  0  0  0
   59.1246   25.0140   46.6885 H   0  0  0  0  0  0  0  0  0  0  0  0
   57.0400   25.5490   46.3700 C   0  0  0  0  0  0  0  0  0  0  0  0
   56.5140   24.2910   46.7030 O   0  0  0  0  0  0  0  0  0  0  0  0
   56.9630   23.0560   46.1540 C   0  0  0  0  0  0  0  0  0  0  0  0
   57.2152   22.3623   46.9696 H   0  0  0  0  0  0  0  0  0  0  0  0
   56.1662   22.6190   45.5342 H   0  0  0  0  0  0  0  0  0  0  0  0
   57.8544   23.2328   45.5342 H   0  0  0  0  0  0  0  0  0  0  0  0
   56.1480   26.5680   46.0020 C   0  0  0  0  0  0  0  0  0  0  0  0
   54.7750   26.2760   45.9840 O   0  0  0  0  0  0  0  0  0  0  0  0
   54.2200   25.0260   45.5850 C   0  0  0  0  0  0  0  0  0  0  0  0
   53.9593   24.4388   46.4779 H   0  0  0  0  0  0  0  0  0  0  0  0
   53.3152   25.2015   44.9845 H   0  0  0  0  0  0  0  0  0  0  0  0
   54.9570   24.4726   44.9845 H   0  0  0  0  0  0  0  0  0  0  0  0
   56.6440   27.8420   45.6670 C   0  0  0  0  0  0  0  0  0  0  0  0
   55.9457   28.6377   45.3681 H   0  0  0  0  0  0  0  0  0  0  0  0
   58.0220   28.1060   45.7110 C   0  0  0  0  0  0  0  0  0  0  0  0
   59.2780   32.0840   46.1680 N   0  0  0  0  0  0  0  0  0  0  0  0
   59.7270   33.3450   46.4130 C   0  0  0  0  0  0  0  0  0  0  0  0
   60.9810   33.5360   47.0860 N   0  0  0  0  0  0  0  0  0  0  0  0
   62.1740   33.7250   46.4720 C   0  0  0  0  0  0  0  0  0  0  0  0
   62.3184   33.7562   45.3820 H   0  0  0  0  0  0  0  0  0  0  0  0
   63.1900   33.8740   47.4080 C   0  0  0  0  0  0  0  0  0  0  0  0
   64.2611   34.0292   47.2112 H   0  0  0  0  0  0  0  0  0  0  0  0
   62.5700   33.7860   48.6350 C   0  0  0  0  0  0  0  0  0  0  0  0
   63.0950   33.9040   49.9210 C   0  0  0  0  0  0  0  0  0  0  0  0
   64.4220   34.1000   50.1220 F   0  0  0  0  0  0  0  0  0  0  0  0
   62.2070   33.8250   51.0070 C   0  0  0  0  0  0  0  0  0  0  0  0
   62.5911   33.9021   52.0349 H   0  0  0  0  0  0  0  0  0  0  0  0
   60.8230   33.6470   50.7850 C   0  0  0  0  0  0  0  0  0  0  0  0
   59.9730   33.5970   51.8400 F   0  0  0  0  0  0  0  0  0  0  0  0
   60.3190   33.5360   49.4760 C   0  0  0  0  0  0  0  0  0  0  0  0
   59.2414   33.4127   49.2930 H   0  0  0  0  0  0  0  0  0  0  0  0
   61.2290   33.5870   48.4130 C   0  0  0  0  0  0  0  0  0  0  0  0
  1  2  1  0
  2  3  1  0
  3  4  2  0
  4  5  1  0
  4  6  1  0
  6  7  2  0
  7  8  1  0
  8  9  2  0
  9 10  1  0
  9 11  1  0
 11 12  1  0
 11 13  1  0
 11 14  1  0
 14 15  1  0
 14 16  1  0
 14 17  1  0
 17 18  2  0
 18 19  1  0
 18 20  1  0
 20 21  1  0
 21 22  1  0
 22 23  1  0
 22 24  1  0
 22 25  1  0
 20 26  2  0
 26 27  1  0
 27 28  1  0
 28 29  1  0
 28 30  1  0
 28 31  1  0
 26 32  1  0
 32 33  1  0
 32 34  2  0
  6 35  1  0
 35 36  1  0
 36 37  1  0
 37 38  1  0
 38 39  1  0
 38 40  2  0
 40 41  1  0
 40 42  1  0
 42 43  2  0
 43 44  1  0
 43 45  1  0
 45 46  1  0
 45 47  2  0
 47 48  1  0
 47 49  1  0
 49 50  1  0
 49 51  2  0
 36  2  2  0
 51 37  1  0
 34  8  1  0
 51 42  1  0
 34 17  1  0
M  CHG  2   9   1  35  -1
M  END
>  <UniqueID>  (33) 
33

>  <SMILES>  (33) 
COc1cc2c(cc1OC)C(/N=c1\cncc(-n3ccc4c(F)cc(F)cc43)[n-]1)=[NH+]CC2

>  <Energy>  (33) 
107.73831815498404

>  <Genealogy>  (33) 
COc1cc2c(cc1OC)C(N=c1cncc(-n3ccc4c(F)cc(F)cc43)[n-]1)=[NH+]CC2 (protonated)
COc1cc2c(cc1OC)C(/N=c1\cncc(-n3ccc4c(F)cc(F)cc43)[n-]1)=[NH+]CC2 (cis-trans isomerization)
COc1cc2c(cc1OC)C(/N=c1\cncc(-n3ccc4c(F)cc(F)cc43)[n-]1)=[NH+]CC2 (3D coordinates assigned)
COc1cc2c(cc1OC)C(/N=c1\cncc(-n3ccc4c(F)cc(F)cc43)[n-]1)=[NH+]CC2 (nonaromatic ring conformer: 107.73831815498404 kcal/mol)

>  <smiles>  (33) 
COc1cc2c(cc1OC)C(N=c1cncc(-n3ccc4c(F)cc(F)cc43)[nH]1)=NCC2

>  <score_type>  (33) 
oracle

>  <origin>  (33) 
adg

>  <m_score__min__energy>  (33) 
-9.3399999999999999

>  <m_primary>  (33) 
energy

$$$$
33:0
     RDKit          3D

 60 64  0  0  0  0  0  0  0  0999 V2000
   59.2430   29.9820   53.4890 C   0  0  0  0  0  0  0  0  0  0  0  0
   58.8640   30.8450   52.3540 N   0  0  0  0  0  0  0  0  0  0  0  0
   57.9080   31.8820   52.8040 C   0  0  0  0  0  0  0  0  0  0  0  0
   57.8880   33.0770   51.8230 C   0  0  0  0  0  0  0  0  0  0  0  0
   59.2400   33.8080   51.7580 C   0  0  0  0  0  0  0  0  0  0  0  0
   60.3660   32.8630   51.6880 N   0  0  0  0  0  0  0  0  0  0  0  0
   61.1550   33.1150   50.4980 C   0  0  0  0  0  0  0  0  0  0  0  0
   62.5800   33.1300   50.4910 C   0  0  0  0  0  0  0  0  0  0  0  0
   63.3260   32.9540   51.6790 C   0  0  0  0  0  0  0  0  0  0  0  0
   64.7170   33.0160   51.6640 C   0  0  0  0  0  0  0  0  0  0  0  0
   65.3960   33.2620   50.4740 C   0  0  0  0  0  0  0  0  0  0  0  0
   64.6950   33.4220   49.2810 C   0  0  0  0  0  0  0  0  0  0  0  0
   63.2830   33.3300   49.2460 C   0  0  0  0  0  0  0  0  0  0  0  0
   62.5840   33.4430   48.0510 N   0  0  0  0  0  0  0  0  0  0  0  0
   63.2610   33.3660   46.7440 C   0  0  0  0  0  0  0  0  0  0  0  0
   61.2190   33.5450   48.1150 C   0  0  0  0  0  0  0  0  0  0  0  0
   60.5160   33.3380   49.2800 C   0  0  0  0  0  0  0  0  0  0  0  0
   59.2150   33.3900   49.0660 O   0  0  0  0  0  0  0  0  0  0  0  0
   59.0450   33.6560   47.7880 C   0  0  0  0  0  0  0  0  0  0  0  0
   57.8310   33.8250   47.1260 C   0  0  0  0  0  0  0  0  0  0  0  0
   57.8640   34.1720   45.7640 C   0  0  0  0  0  0  0  0  0  0  0  0
   59.0960   34.3710   45.1070 C   0  0  0  0  0  0  0  0  0  0  0  0
   60.3120   34.1910   45.7940 C   0  0  0  0  0  0  0  0  0  0  0  0
   60.2570   33.7880   47.1360 C   0  0  0  0  0  0  0  0  0  0  0  0
   58.2720   30.0290   51.2680 C   0  0  0  0  0  0  0  0  0  0  0  0
   59.1310   30.0970   50.0300 C   0  0  0  0  0  0  0  0  0  0  0  0
   60.5300   29.9700   50.1220 C   0  0  0  0  0  0  0  0  0  0  0  0
   61.3210   30.0190   48.9670 C   0  0  0  0  0  0  0  0  0  0  0  0
   60.7220   30.2020   47.7160 C   0  0  0  0  0  0  0  0  0  0  0  0
   61.4890   30.2510   46.5980 F   0  0  0  0  0  0  0  0  0  0  0  0
   59.3300   30.3330   47.6170 C   0  0  0  0  0  0  0  0  0  0  0  0
   58.5350   30.2770   48.7680 C   0  0  0  0  0  0  0  0  0  0  0  0
   59.0164   30.4980   54.4336 H   0  0  0  0  0  0  0  0  0  0  0  0
   58.6753   29.0411   53.4398 H   0  0  0  0  0  0  0  0  0  0  0  0
   60.3199   29.7634   53.4398 H   0  0  0  0  0  0  0  0  0  0  0  0
   56.9005   31.4438   52.8584 H   0  0  0  0  0  0  0  0  0  0  0  0
   58.2231   32.2448   53.7935 H   0  0  0  0  0  0  0  0  0  0  0  0
   57.6396   32.7045   50.8182 H   0  0  0  0  0  0  0  0  0  0  0  0
   57.1370   33.7945   52.1852 H   0  0  0  0  0  0  0  0  0  0  0  0
   59.2563   34.4490   50.8642 H   0  0  0  0  0  0  0  0  0  0  0  0
   59.3509   34.4068   52.6741 H   0  0  0  0  0  0  0  0  0  0  0  0
   60.0260   31.8740   51.7060 H   0  0  0  0  0  0  0  0  0  0  0  0
   60.9680   32.9750   52.5370 H   0  0  0  0  0  0  0  0  0  0  0  0
   62.8010   32.7657   52.6271 H   0  0  0  0  0  0  0  0  0  0  0  0
   65.2817   32.8699   52.5966 H   0  0  0  0  0  0  0  0  0  0  0  0
   66.4939   33.3305   50.4758 H   0  0  0  0  0  0  0  0  0  0  0  0
   65.2475   33.6230   48.3513 H   0  0  0  0  0  0  0  0  0  0  0  0
   64.3432   33.2429   46.8983 H   0  0  0  0  0  0  0  0  0  0  0  0
   62.8711   32.5064   46.1792 H   0  0  0  0  0  0  0  0  0  0  0  0
   63.0740   34.2912   46.1792 H   0  0  0  0  0  0  0  0  0  0  0  0
   56.8750   33.6909   47.6533 H   0  0  0  0  0  0  0  0  0  0  0  0
   56.9227   34.2891   45.2071 H   0  0  0  0  0  0  0  0  0  0  0  0
   59.1071   34.6695   44.0483 H   0  0  0  0  0  0  0  0  0  0  0  0
   61.2763   34.3614   45.2929 H   0  0  0  0  0  0  0  0  0  0  0  0
   58.1975   28.9830   51.6002 H   0  0  0  0  0  0  0  0  0  0  0  0
   57.2727   30.4227   51.0305 H   0  0  0  0  0  0  0  0  0  0  0  0
   61.0040   29.8317   51.1050 H   0  0  0  0  0  0  0  0  0  0  0  0
   62.4133   29.9136   49.0436 H   0  0  0  0  0  0  0  0  0  0  0  0
   58.8612   30.4801   46.6328 H   0  0  0  0  0  0  0  0  0  0  0  0
   57.4424   30.3739   48.6857 H   0  0  0  0  0  0  0  0  0  0  0  0
  1  2  1  0
  2  3  1  0
  3  4  1  0
  4  5  1  0
  5  6  1  0
  6  7  1  0
  7  8  1  0
  8  9  2  0
  9 10  1  0
 10 11  2  0
 11 12  1  0
 12 13  2  0
 13 14  1  0
 14 15  1  0
 14 16  2  0
 16 17  1  0
 17 18  1  0
 18 19  1  0
 19 20  2  0
 20 21  1  0
 21 22  2  0
 22 23  1  0
 23 24  2  0
  2 25  1  0
 25 26  1  0
 26 27  2  0
 27 28  1  0
 28 29  2  0
 29 30  1  0
 29 31  1  0
 31 32  2  0
 17  7  2  0
 24 19  1  0
 32 26  1  0
 13  8  1  0
 24 16  1  0
  1 33  1  0
  1 34  1  0
  1 35  1  0
  3 36  1  0
  3 37  1  0
  4 38  1  0
  4 39  1  0
  5 40  1  0
  5 41  1  0
  6 42  1  0
  6 43  1  0
  9 44  1  0
 10 45  1  0
 11 46  1  0
 12 47  1  0
 15 48  1  0
 15 49  1  0
 15 50  1  0
 20 51  1  0
 21 52  1  0
 22 53  1  0
 23 54  1  0
 25 55  1  0
 25 56  1  0
 27 57  1  0
 28 58  1  0
 31 59  1  0
 32 60  1  0
M  CHG  2   6   1  14   1
M  END
>  <UniqueID>  (34) 
34

>  <SMILES>  (34) 
CN(CCC[NH2+]c1c2ccccc2[n+](C)c2c1oc1ccccc12)Cc1ccc(F)cc1

>  <Energy>  (34) 
126.71186572770097

>  <Genealogy>  (34) 
CN(CCC[NH2+]c1c2ccccc2[n+](C)c2c1oc1ccccc12)Cc1ccc(F)cc1 (protonated)
CN(CCC[NH2+]c1c2ccccc2[n+](C)c2c1oc1ccccc12)Cc1ccc(F)cc1 (3D coordinates assigned)
CN(CCC[NH2+]c1c2ccccc2[n+](C)c2c1oc1ccccc12)Cc1ccc(F)cc1 (optimized conformer: 126.71186572770097 kcal/mol)

>  <smiles>  (34) 
CN(CCCNc1c2ccccc2[n+](C)c2c1oc1ccccc12)Cc1ccc(F)cc1

>  <score_type>  (34) 
oracle

>  <origin>  (34) 
adg

>  <m_score__min__energy>  (34) 
-5.9900000000000002

>  <m_primary>  (34) 
energy

$$$$
