0:0
     RDKit          3D

 47 49  0  0  0  0  0  0  0  0999 V2000
   57.6830   31.8060   42.7460 C   0  0  0  0  0  0  0  0  0  0  0  0
   56.6240   30.8330   43.1540 C   0  0  0  0  0  0  0  0  0  0  0  0
   56.3700   31.0400   44.5160 O   0  0  0  0  0  0  0  0  0  0  0  0
   56.5450   29.9280   45.2150 N   0  0  0  0  0  0  0  0  0  0  0  0
   57.0210   28.7860   44.4710 C   0  0  0  0  0  0  0  0  0  0  0  0
   58.4990   28.5940   44.4800 C   0  0  0  0  0  0  0  0  0  0  0  0
   59.2470   29.1390   45.6460 C   0  0  0  0  0  0  0  0  0  0  0  0
   58.7770   30.3280   46.2670 N   0  0  0  0  0  0  0  0  0  0  0  0
   59.5220   31.2040   47.0790 C   0  0  0  0  0  0  0  0  0  0  0  0
   59.4960   32.5570   46.6920 C   0  0  0  0  0  0  0  0  0  0  0  0
   58.7660   32.9200   45.5600 C   0  0  0  0  0  0  0  0  0  0  0  0
   58.6960   34.2220   45.1120 C   0  0  0  0  0  0  0  0  0  0  0  0
   59.3750   35.1730   45.8170 C   0  0  0  0  0  0  0  0  0  0  0  0
   60.1030   34.8170   46.9430 C   0  0  0  0  0  0  0  0  0  0  0  0
   60.1820   33.5200   47.4060 C   0  0  0  0  0  0  0  0  0  0  0  0
   60.9130   33.2050   48.5170 N   0  0  0  0  0  0  0  0  0  0  0  0
   61.6080   34.2230   49.2630 C   0  0  0  0  0  0  0  0  0  0  0  0
   60.9490   31.8980   48.9040 C   0  0  0  0  0  0  0  0  0  0  0  0
   61.6680   31.4990   50.0100 C   0  0  0  0  0  0  0  0  0  0  0  0
   61.7220   30.1690   50.4280 C   0  0  0  0  0  0  0  0  0  0  0  0
   61.0370   29.2110   49.7180 C   0  0  0  0  0  0  0  0  0  0  0  0
   60.3280   29.6250   48.6200 C   0  0  0  0  0  0  0  0  0  0  0  0
   60.2550   30.9190   48.1840 C   0  0  0  0  0  0  0  0  0  0  0  0
   58.1512   32.2362   43.6436 H   0  0  0  0  0  0  0  0  0  0  0  0
   58.4462   31.2875   42.1471 H   0  0  0  0  0  0  0  0  0  0  0  0
   57.2309   32.6103   42.1471 H   0  0  0  0  0  0  0  0  0  0  0  0
   55.7083   31.0065   42.5698 H   0  0  0  0  0  0  0  0  0  0  0  0
   56.9540   29.7995   42.9722 H   0  0  0  0  0  0  0  0  0  0  0  0
   55.8560   29.7150   45.9450 H   0  0  0  0  0  0  0  0  0  0  0  0
   56.5581   27.8843   44.8985 H   0  0  0  0  0  0  0  0  0  0  0  0
   56.7431   28.9675   43.4223 H   0  0  0  0  0  0  0  0  0  0  0  0
   58.6928   27.5120   44.4385 H   0  0  0  0  0  0  0  0  0  0  0  0
   58.8653   29.1659   43.6147 H   0  0  0  0  0  0  0  0  0  0  0  0
   59.2592   28.3548   46.4172 H   0  0  0  0  0  0  0  0  0  0  0  0
   60.2218   29.4266   45.2253 H   0  0  0  0  0  0  0  0  0  0  0  0
   57.7580   30.5890   46.1080 H   0  0  0  0  0  0  0  0  0  0  0  0
   58.2265   32.1388   45.0045 H   0  0  0  0  0  0  0  0  0  0  0  0
   58.1129   34.4852   44.2171 H   0  0  0  0  0  0  0  0  0  0  0  0
   59.3450   36.2234   45.4919 H   0  0  0  0  0  0  0  0  0  0  0  0
   60.6413   35.6042   47.4911 H   0  0  0  0  0  0  0  0  0  0  0  0
   61.4821   34.0386   50.3401 H   0  0  0  0  0  0  0  0  0  0  0  0
   62.6780   34.1974   49.0092 H   0  0  0  0  0  0  0  0  0  0  0  0
   61.1945   35.2102   49.0092 H   0  0  0  0  0  0  0  0  0  0  0  0
   62.2199   32.2574   50.5846 H   0  0  0  0  0  0  0  0  0  0  0  0
   62.3068   29.8894   51.3168 H   0  0  0  0  0  0  0  0  0  0  0  0
   61.0571   28.1533   50.0194 H   0  0  0  0  0  0  0  0  0  0  0  0
   59.7787   28.8619   48.0491 H   0  0  0  0  0  0  0  0  0  0  0  0
  1  2  1  0
  2  3  1  0
  3  4  1  0
  4  5  1  0
  5  6  1  0
  6  7  1  0
  7  8  1  0
  8  9  1  0
  9 10  2  0
 10 11  1  0
 11 12  2  0
 12 13  1  0
 13 14  2  0
 14 15  1  0
 15 16  2  0
 16 17  1  0
 16 18  1  0
 18 19  2  0
 19 20  1  0
 20 21  2  0
 21 22  1  0
 22 23  2  0
 23  9  1  0
 15 10  1  0
 23 18  1  0
  1 24  1  0
  1 25  1  0
  1 26  1  0
  2 27  1  0
  2 28  1  0
  4 29  1  0
  5 30  1  0
  5 31  1  0
  6 32  1  0
  6 33  1  0
  7 34  1  0
  7 35  1  0
  8 36  1  0
 11 37  1  0
 12 38  1  0
 13 39  1  0
 14 40  1  0
 17 41  1  0
 17 42  1  0
 17 43  1  0
 19 44  1  0
 20 45  1  0
 21 46  1  0
 22 47  1  0
M  CHG  1  16   1
M  END
>  <smiles>  (1) 
CCONCCCNc1c2ccccc2[n+](C)c2ccccc12

>  <score_type>  (1) 
oracle

>  <origin>  (1) 
adg

>  <m_score__min__energy>  (1) 
-6.1399999999999997

>  <m_primary>  (1) 
energy

$$$$
1:0
     RDKit          3D

 59 61  0  0  0  0  0  0  0  0999 V2000
   58.5580   31.9690   49.5490 C   0  0  0  0  0  0  0  0  0  0  0  0
   59.1370   33.0090   50.5420 C   0  0  0  0  0  0  0  0  0  0  0  0
   60.1030   33.8690   49.7990 C   0  0  0  0  0  0  0  0  0  0  0  0
   61.4410   33.5030   49.7350 N   0  0  0  0  0  0  0  0  0  0  0  0
   62.4190   34.1270   48.9770 C   0  0  0  0  0  0  0  0  0  0  0  0
   62.7090   33.6910   47.5860 C   0  0  0  0  0  0  0  0  0  0  0  0
   63.4790   32.3450   47.6940 C   0  0  0  0  0  0  0  0  0  0  0  0
   62.5430   31.2620   47.2570 C   0  0  0  0  0  0  0  0  0  0  0  0
   61.1530   31.5070   47.5820 N   0  0  0  0  0  0  0  0  0  0  0  0
   60.1450   31.3550   46.6000 C   0  0  0  0  0  0  0  0  0  0  0  0
   59.4950   32.3940   46.0060 C   0  0  0  0  0  0  0  0  0  0  0  0
   58.5050   32.2060   45.0260 C   0  0  0  0  0  0  0  0  0  0  0  0
   58.1650   30.9630   44.6420 N   0  0  0  0  0  0  0  0  0  0  0  0
   57.1530   30.7580   43.6540 C   0  0  0  0  0  0  0  0  0  0  0  0
   55.8560   30.2220   44.1880 C   0  0  0  0  0  0  0  0  0  0  0  0
   58.7910   29.8950   45.2110 C   0  0  0  0  0  0  0  0  0  0  0  0
   58.5060   28.5980   44.8700 C   0  0  0  0  0  0  0  0  0  0  0  0
   59.1560   27.5110   45.4540 C   0  0  0  0  0  0  0  0  0  0  0  0
   60.1230   27.7120   46.4130 C   0  0  0  0  0  0  0  0  0  0  0  0
   60.4150   29.0110   46.7610 C   0  0  0  0  0  0  0  0  0  0  0  0
   59.7750   30.0710   46.1850 C   0  0  0  0  0  0  0  0  0  0  0  0
   57.9160   33.4430   44.4780 C   0  0  0  0  0  0  0  0  0  0  0  0
   57.3920   34.2150   45.6660 C   0  0  0  0  0  0  0  0  0  0  0  0
   58.5190   34.6030   46.5690 C   0  0  0  0  0  0  0  0  0  0  0  0
   59.7840   33.8050   46.3680 C   0  0  0  0  0  0  0  0  0  0  0  0
   58.0979   31.1425   50.1105 H   0  0  0  0  0  0  0  0  0  0  0  0
   57.7979   32.4501   48.9159 H   0  0  0  0  0  0  0  0  0  0  0  0
   59.3673   31.5763   48.9159 H   0  0  0  0  0  0  0  0  0  0  0  0
   58.3243   33.6276   50.9505 H   0  0  0  0  0  0  0  0  0  0  0  0
   59.6422   32.5002   51.3762 H   0  0  0  0  0  0  0  0  0  0  0  0
   59.7402   33.9346   48.7626 H   0  0  0  0  0  0  0  0  0  0  0  0
   60.1196   34.8004   50.3839 H   0  0  0  0  0  0  0  0  0  0  0  0
   61.7640   32.7980   50.4370 H   0  0  0  0  0  0  0  0  0  0  0  0
   62.1384   35.1890   48.9189 H   0  0  0  0  0  0  0  0  0  0  0  0
   63.3432   33.8593   49.5101 H   0  0  0  0  0  0  0  0  0  0  0  0
   61.7709   33.5480   47.0297 H   0  0  0  0  0  0  0  0  0  0  0  0
   63.3026   34.4457   47.0493 H   0  0  0  0  0  0  0  0  0  0  0  0
   64.3641   32.3640   47.0412 H   0  0  0  0  0  0  0  0  0  0  0  0
   63.8204   32.1727   48.7254 H   0  0  0  0  0  0  0  0  0  0  0  0
   62.6274   31.1536   46.1656 H   0  0  0  0  0  0  0  0  0  0  0  0
   62.8378   30.3529   47.8016 H   0  0  0  0  0  0  0  0  0  0  0  0
   60.8310   31.8050   48.5410 H   0  0  0  0  0  0  0  0  0  0  0  0
   56.9503   31.7225   43.1656 H   0  0  0  0  0  0  0  0  0  0  0  0
   57.5430   29.9969   42.9622 H   0  0  0  0  0  0  0  0  0  0  0  0
   55.8801   30.2320   45.2877 H   0  0  0  0  0  0  0  0  0  0  0  0
   55.0258   30.8507   43.8338 H   0  0  0  0  0  0  0  0  0  0  0  0
   55.7119   29.1906   43.8338 H   0  0  0  0  0  0  0  0  0  0  0  0
   57.7362   28.4077   44.1076 H   0  0  0  0  0  0  0  0  0  0  0  0
   58.8946   26.4877   45.1467 H   0  0  0  0  0  0  0  0  0  0  0  0
   60.6434   26.8650   46.8840 H   0  0  0  0  0  0  0  0  0  0  0  0
   61.1847   29.2006   47.5237 H   0  0  0  0  0  0  0  0  0  0  0  0
   58.6816   34.0291   43.9485 H   0  0  0  0  0  0  0  0  0  0  0  0
   57.1165   33.2233   43.7552 H   0  0  0  0  0  0  0  0  0  0  0  0
   56.8809   35.1227   45.3125 H   0  0  0  0  0  0  0  0  0  0  0  0
   56.6880   33.5801   46.2239 H   0  0  0  0  0  0  0  0  0  0  0  0
   58.7504   35.6640   46.3936 H   0  0  0  0  0  0  0  0  0  0  0  0
   58.1811   34.4010   47.5962 H   0  0  0  0  0  0  0  0  0  0  0  0
   60.3714   34.2665   45.5606 H   0  0  0  0  0  0  0  0  0  0  0  0
   60.3434   33.8070   47.3152 H   0  0  0  0  0  0  0  0  0  0  0  0
  1  2  1  0
  2  3  1  0
  3  4  1  0
  4  5  1  0
  5  6  1  0
  6  7  1  0
  7  8  1  0
  8  9  1  0
  9 10  1  0
 10 11  2  0
 11 12  1  0
 12 13  2  0
 13 14  1  0
 14 15  1  0
 13 16  1  0
 16 17  2  0
 17 18  1  0
 18 19  2  0
 19 20  1  0
 20 21  2  0
 12 22  1  0
 22 23  1  0
 23 24  1  0
 24 25  1  0
 21 10  1  0
 25 11  1  0
 21 16  1  0
  1 26  1  0
  1 27  1  0
  1 28  1  0
  2 29  1  0
  2 30  1  0
  3 31  1  0
  3 32  1  0
  4 33  1  0
  5 34  1  0
  5 35  1  0
  6 36  1  0
  6 37  1  0
  7 38  1  0
  7 39  1  0
  8 40  1  0
  8 41  1  0
  9 42  1  0
 14 43  1  0
 14 44  1  0
 15 45  1  0
 15 46  1  0
 15 47  1  0
 17 48  1  0
 18 49  1  0
 19 50  1  0
 20 51  1  0
 22 52  1  0
 22 53  1  0
 23 54  1  0
 23 55  1  0
 24 56  1  0
 24 57  1  0
 25 58  1  0
 25 59  1  0
M  CHG  1  13   1
M  END
>  <smiles>  (2) 
CCCNCCCCNc1c2c([n+](CC)c3ccccc13)CCCC2

>  <score_type>  (2) 
oracle

>  <origin>  (2) 
adg

>  <m_score__min__energy>  (2) 
-6.3099999999999996

>  <m_primary>  (2) 
energy

$$$$
2:0
     RDKit          3D

 57 59  0  0  0  0  0  0  0  0999 V2000
   58.8880   33.8740   52.0500 C   0  0  0  0  0  0  0  0  0  0  0  0
   58.9130   32.9500   50.8630 C   0  0  0  0  0  0  0  0  0  0  0  0
   58.0440   31.8190   51.0310 N   0  0  0  0  0  0  0  0  0  0  0  0
   56.9430   32.0870   51.9570 C   0  0  0  0  0  0  0  0  0  0  0  0
   55.9800   30.9540   52.0320 C   0  0  0  0  0  0  0  0  0  0  0  0
   58.8140   30.6730   51.5400 C   0  0  0  0  0  0  0  0  0  0  0  0
   58.7370   29.5540   50.6470 N   0  0  0  0  0  0  0  0  0  0  0  0
   59.9890   28.8290   50.5000 C   0  0  0  0  0  0  0  0  0  0  0  0
   60.5260   29.0030   49.1140 C   0  0  0  0  0  0  0  0  0  0  0  0
   60.5440   30.4260   48.6510 C   0  0  0  0  0  0  0  0  0  0  0  0
   59.2730   30.9760   48.3130 N   0  0  0  0  0  0  0  0  0  0  0  0
   58.9450   31.4250   47.0300 C   0  0  0  0  0  0  0  0  0  0  0  0
   59.0880   32.7060   46.5600 C   0  0  0  0  0  0  0  0  0  0  0  0
   59.6360   33.6550   47.4290 C   0  0  0  0  0  0  0  0  0  0  0  0
   59.8110   34.9560   47.0080 C   0  0  0  0  0  0  0  0  0  0  0  0
   59.4410   35.3060   45.7290 C   0  0  0  0  0  0  0  0  0  0  0  0
   58.8980   34.3430   44.8860 C   0  0  0  0  0  0  0  0  0  0  0  0
   58.7090   33.0350   45.2700 C   0  0  0  0  0  0  0  0  0  0  0  0
   58.1830   32.1230   44.4140 N   0  0  0  0  0  0  0  0  0  0  0  0
   57.7740   32.4260   43.0800 C   0  0  0  0  0  0  0  0  0  0  0  0
   58.0310   30.8450   44.8520 C   0  0  0  0  0  0  0  0  0  0  0  0
   57.5070   29.8460   44.0590 C   0  0  0  0  0  0  0  0  0  0  0  0
   57.3450   28.5400   44.4950 C   0  0  0  0  0  0  0  0  0  0  0  0
   57.7130   28.1830   45.7710 C   0  0  0  0  0  0  0  0  0  0  0  0
   57.5430   26.5600   46.3980 Cl  0  0  0  0  0  0  0  0  0  0  0  0
   58.2440   29.1790   46.5870 C   0  0  0  0  0  0  0  0  0  0  0  0
   58.4040   30.4800   46.1510 C   0  0  0  0  0  0  0  0  0  0  0  0
   58.9040   33.2812   52.9765 H   0  0  0  0  0  0  0  0  0  0  0  0
   59.7687   34.5325   52.0207 H   0  0  0  0  0  0  0  0  0  0  0  0
   57.9730   34.4839   52.0207 H   0  0  0  0  0  0  0  0  0  0  0  0
   58.5945   33.5109   49.9720 H   0  0  0  0  0  0  0  0  0  0  0  0
   59.9399   32.5707   50.7549 H   0  0  0  0  0  0  0  0  0  0  0  0
   57.3592   32.2646   52.9596 H   0  0  0  0  0  0  0  0  0  0  0  0
   56.3983   32.9680   51.5866 H   0  0  0  0  0  0  0  0  0  0  0  0
   55.7767   30.7148   53.0862 H   0  0  0  0  0  0  0  0  0  0  0  0
   55.0416   31.2367   51.5326 H   0  0  0  0  0  0  0  0  0  0  0  0
   56.4103   30.0734   51.5326 H   0  0  0  0  0  0  0  0  0  0  0  0
   59.8672   30.9704   51.6514 H   0  0  0  0  0  0  0  0  0  0  0  0
   58.3890   30.3729   52.5092 H   0  0  0  0  0  0  0  0  0  0  0  0
   57.9180   28.9510   50.7970 H   0  0  0  0  0  0  0  0  0  0  0  0
   60.7205   29.2161   51.2246 H   0  0  0  0  0  0  0  0  0  0  0  0
   59.8088   27.7596   50.6840 H   0  0  0  0  0  0  0  0  0  0  0  0
   61.5556   28.6165   49.0892 H   0  0  0  0  0  0  0  0  0  0  0  0
   59.8553   28.4529   48.4376 H   0  0  0  0  0  0  0  0  0  0  0  0
   60.9757   31.0391   49.4558 H   0  0  0  0  0  0  0  0  0  0  0  0
   61.1342   30.4349   47.7228 H   0  0  0  0  0  0  0  0  0  0  0  0
   58.5530   31.0370   49.0870 H   0  0  0  0  0  0  0  0  0  0  0  0
   59.9275   33.3632   48.4488 H   0  0  0  0  0  0  0  0  0  0  0  0
   60.2418   35.7066   47.6870 H   0  0  0  0  0  0  0  0  0  0  0  0
   59.5740   36.3396   45.3768 H   0  0  0  0  0  0  0  0  0  0  0  0
   58.6067   34.6395   43.8676 H   0  0  0  0  0  0  0  0  0  0  0  0
   56.8904   33.0806   43.1071 H   0  0  0  0  0  0  0  0  0  0  0  0
   58.5929   32.9371   42.5526 H   0  0  0  0  0  0  0  0  0  0  0  0
   57.5236   31.4937   42.5526 H   0  0  0  0  0  0  0  0  0  0  0  0
   57.2032   30.0972   43.0320 H   0  0  0  0  0  0  0  0  0  0  0  0
   56.9199   27.7855   43.8168 H   0  0  0  0  0  0  0  0  0  0  0  0
   58.5460   28.9211   47.6128 H   0  0  0  0  0  0  0  0  0  0  0  0
  1  2  1  0
  2  3  1  0
  3  4  1  0
  4  5  1  0
  3  6  1  0
  6  7  1  0
  7  8  1  0
  8  9  1  0
  9 10  1  0
 10 11  1  0
 11 12  1  0
 12 13  2  0
 13 14  1  0
 14 15  2  0
 15 16  1  0
 16 17  2  0
 17 18  1  0
 18 19  2  0
 19 20  1  0
 19 21  1  0
 21 22  2  0
 22 23  1  0
 23 24  2  0
 24 25  1  0
 24 26  1  0
 26 27  2  0
 27 12  1  0
 18 13  1  0
 27 21  1  0
  1 28  1  0
  1 29  1  0
  1 30  1  0
  2 31  1  0
  2 32  1  0
  4 33  1  0
  4 34  1  0
  5 35  1  0
  5 36  1  0
  5 37  1  0
  6 38  1  0
  6 39  1  0
  7 40  1  0
  8 41  1  0
  8 42  1  0
  9 43  1  0
  9 44  1  0
 10 45  1  0
 10 46  1  0
 11 47  1  0
 14 48  1  0
 15 49  1  0
 16 50  1  0
 17 51  1  0
 20 52  1  0
 20 53  1  0
 20 54  1  0
 22 55  1  0
 23 56  1  0
 26 57  1  0
M  CHG  1  19   1
M  END
>  <smiles>  (3) 
CCN(CC)CNCCCNc1c2ccccc2[n+](C)c2ccc(Cl)cc12

>  <score_type>  (3) 
oracle

>  <origin>  (3) 
adg

>  <m_score__min__energy>  (3) 
-6.3300000000000001

>  <m_primary>  (3) 
energy

$$$$
3:0
     RDKit          3D

 51 53  0  0  0  0  0  0  0  0999 V2000
   63.1010   33.8350   46.7450 C   0  0  0  0  0  0  0  0  0  0  0  0
   63.4540   32.4380   47.1610 C   0  0  0  0  0  0  0  0  0  0  0  0
   62.4620   31.9070   48.0530 N   0  0  0  0  0  0  0  0  0  0  0  0
   62.0130   32.9070   49.0190 C   0  0  0  0  0  0  0  0  0  0  0  0
   61.4440   32.1890   50.2480 C   0  0  0  0  0  0  0  0  0  0  0  0
   61.2880   30.7790   49.9670 N   0  0  0  0  0  0  0  0  0  0  0  0
   59.9410   30.2920   50.2870 C   0  0  0  0  0  0  0  0  0  0  0  0
   59.2870   29.9740   48.9720 C   0  0  0  0  0  0  0  0  0  0  0  0
   59.8100   30.7140   47.8460 N   0  0  0  0  0  0  0  0  0  0  0  0
   59.2030   30.7930   46.5780 C   0  0  0  0  0  0  0  0  0  0  0  0
   59.0160   32.0840   46.0680 C   0  0  0  0  0  0  0  0  0  0  0  0
   59.4400   33.1780   46.8180 C   0  0  0  0  0  0  0  0  0  0  0  0
   59.2970   34.4760   46.3800 C   0  0  0  0  0  0  0  0  0  0  0  0
   58.7070   34.6840   45.1450 C   0  0  0  0  0  0  0  0  0  0  0  0
   58.2880   33.6020   44.4050 C   0  0  0  0  0  0  0  0  0  0  0  0
   58.4280   32.2870   44.8390 C   0  0  0  0  0  0  0  0  0  0  0  0
   58.0020   31.2450   44.0650 N   0  0  0  0  0  0  0  0  0  0  0  0
   57.3930   31.5790   42.8240 C   0  0  0  0  0  0  0  0  0  0  0  0
   58.1850   30.0080   44.5540 C   0  0  0  0  0  0  0  0  0  0  0  0
   57.7820   28.9370   43.7810 C   0  0  0  0  0  0  0  0  0  0  0  0
   57.9640   27.6370   44.2320 C   0  0  0  0  0  0  0  0  0  0  0  0
   58.5530   27.4310   45.4590 C   0  0  0  0  0  0  0  0  0  0  0  0
   58.7800   25.6220   46.0250 Br  0  0  0  0  0  0  0  0  0  0  0  0
   58.9650   28.4820   46.2520 C   0  0  0  0  0  0  0  0  0  0  0  0
   58.7770   29.7680   45.7940 C   0  0  0  0  0  0  0  0  0  0  0  0
   62.9442   34.4554   47.6397 H   0  0  0  0  0  0  0  0  0  0  0  0
   63.9207   34.2571   46.1451 H   0  0  0  0  0  0  0  0  0  0  0  0
   62.1792   33.8171   46.1451 H   0  0  0  0  0  0  0  0  0  0  0  0
   63.5144   31.7997   46.2672 H   0  0  0  0  0  0  0  0  0  0  0  0
   64.4226   32.4587   47.6820 H   0  0  0  0  0  0  0  0  0  0  0  0
   62.9080   31.1080   48.5810 H   0  0  0  0  0  0  0  0  0  0  0  0
   62.8627   33.5374   49.3200 H   0  0  0  0  0  0  0  0  0  0  0  0
   61.2374   33.5416   48.5655 H   0  0  0  0  0  0  0  0  0  0  0  0
   62.1321   32.3177   51.0965 H   0  0  0  0  0  0  0  0  0  0  0  0
   60.4625   32.6192   50.4961 H   0  0  0  0  0  0  0  0  0  0  0  0
   61.3650   30.6830   48.9360 H   0  0  0  0  0  0  0  0  0  0  0  0
   60.0005   29.3885   50.9117 H   0  0  0  0  0  0  0  0  0  0  0  0
   59.3664   31.0427   50.8494 H   0  0  0  0  0  0  0  0  0  0  0  0
   59.4240   28.9012   48.7711 H   0  0  0  0  0  0  0  0  0  0  0  0
   58.2302   30.2626   49.0713 H   0  0  0  0  0  0  0  0  0  0  0  0
   60.7210   31.2480   47.9520 H   0  0  0  0  0  0  0  0  0  0  0  0
   59.9070   32.9987   47.7977 H   0  0  0  0  0  0  0  0  0  0  0  0
   59.6413   35.3220   46.9931 H   0  0  0  0  0  0  0  0  0  0  0  0
   58.5743   35.7053   44.7585 H   0  0  0  0  0  0  0  0  0  0  0  0
   57.8212   33.7848   43.4259 H   0  0  0  0  0  0  0  0  0  0  0  0
   56.4425   32.1003   43.0106 H   0  0  0  0  0  0  0  0  0  0  0  0
   58.0646   32.2350   42.2508 H   0  0  0  0  0  0  0  0  0  0  0  0
   57.2008   30.6600   42.2508 H   0  0  0  0  0  0  0  0  0  0  0  0
   57.3138   29.1153   42.8017 H   0  0  0  0  0  0  0  0  0  0  0  0
   57.6421   26.7833   43.6175 H   0  0  0  0  0  0  0  0  0  0  0  0
   59.4339   28.2973   47.2297 H   0  0  0  0  0  0  0  0  0  0  0  0
  1  2  1  0
  2  3  1  0
  3  4  1  0
  4  5  1  0
  5  6  1  0
  6  7  1  0
  7  8  1  0
  8  9  1  0
  9 10  1  0
 10 11  2  0
 11 12  1  0
 12 13  2  0
 13 14  1  0
 14 15  2  0
 15 16  1  0
 16 17  2  0
 17 18  1  0
 17 19  1  0
 19 20  2  0
 20 21  1  0
 21 22  2  0
 22 23  1  0
 22 24  1  0
 24 25  2  0
 25 10  1  0
 16 11  1  0
 25 19  1  0
  1 26  1  0
  1 27  1  0
  1 28  1  0
  2 29  1  0
  2 30  1  0
  3 31  1  0
  4 32  1  0
  4 33  1  0
  5 34  1  0
  5 35  1  0
  6 36  1  0
  7 37  1  0
  7 38  1  0
  8 39  1  0
  8 40  1  0
  9 41  1  0
 12 42  1  0
 13 43  1  0
 14 44  1  0
 15 45  1  0
 18 46  1  0
 18 47  1  0
 18 48  1  0
 20 49  1  0
 21 50  1  0
 24 51  1  0
M  CHG  1  17   1
M  END
>  <smiles>  (4) 
CCNCCNCCNc1c2ccccc2[n+](C)c2ccc(Br)cc12

>  <score_type>  (4) 
oracle

>  <origin>  (4) 
adg

>  <m_score__min__energy>  (4) 
-6.3300000000000001

>  <m_primary>  (4) 
energy

$$$$
4:0
     RDKit          3D

 51 53  0  0  0  0  0  0  0  0999 V2000
   57.4660   34.0790   45.1480 C   0  0  0  0  0  0  0  0  0  0  0  0
   58.1130   32.8470   45.5250 N   0  0  0  0  0  0  0  0  0  0  0  0
   57.5640   31.6680   45.1960 C   0  0  0  0  0  0  0  0  0  0  0  0
   56.4830   31.5570   44.5520 O   0  0  0  0  0  0  0  0  0  0  0  0
   58.1990   30.4750   45.5670 C   0  0  0  0  0  0  0  0  0  0  0  0
   59.4020   30.5460   46.2810 C   0  0  0  0  0  0  0  0  0  0  0  0
   59.7710   29.2730   46.4960 N   0  0  0  0  0  0  0  0  0  0  0  0
   58.8660   28.4260   45.9540 C   0  0  0  0  0  0  0  0  0  0  0  0
   58.9820   26.6200   46.0100 S   0  0  0  0  0  0  0  0  0  0  0  0
   57.5200   26.0600   46.9200 C   0  0  0  0  0  0  0  0  0  0  0  0
   56.4300   25.5770   46.0700 C   0  0  0  0  0  0  0  0  0  0  0  0
   55.3640   26.2660   45.9930 O   0  0  0  0  0  0  0  0  0  0  0  0
   56.4640   24.3800   45.3110 N   0  0  0  0  0  0  0  0  0  0  0  0
   55.3170   23.9930   44.5030 C   0  0  0  0  0  0  0  0  0  0  0  0
   55.7960   23.1280   43.3910 C   0  0  0  0  0  0  0  0  0  0  0  0
   56.2740   21.8530   43.7740 N   0  0  0  0  0  0  0  0  0  0  0  0
   55.8860   21.3470   45.0420 C   0  0  0  0  0  0  0  0  0  0  0  0
   57.1070   21.0870   45.9380 C   0  0  0  0  0  0  0  0  0  0  0  0
   58.0950   22.0450   45.7100 O   0  0  0  0  0  0  0  0  0  0  0  0
   58.6550   21.8370   44.4460 C   0  0  0  0  0  0  0  0  0  0  0  0
   57.6210   21.5660   43.3910 C   0  0  0  0  0  0  0  0  0  0  0  0
   57.8880   29.1640   45.3760 N   0  0  0  0  0  0  0  0  0  0  0  0
   56.7270   28.6330   44.6840 C   0  0  0  0  0  0  0  0  0  0  0  0
   59.9120   31.7530   46.5890 N   0  0  0  0  0  0  0  0  0  0  0  0
   61.1620   31.8490   47.3330 C   0  0  0  0  0  0  0  0  0  0  0  0
   59.2680   32.8910   46.2110 C   0  0  0  0  0  0  0  0  0  0  0  0
   59.7370   34.0230   46.4940 O   0  0  0  0  0  0  0  0  0  0  0  0
   57.1754   34.6324   46.0531 H   0  0  0  0  0  0  0  0  0  0  0  0
   58.1597   34.6899   44.5516 H   0  0  0  0  0  0  0  0  0  0  0  0
   56.5693   33.8547   44.5516 H   0  0  0  0  0  0  0  0  0  0  0  0
   57.8234   25.2416   47.5895 H   0  0  0  0  0  0  0  0  0  0  0  0
   57.1324   26.9348   47.4628 H   0  0  0  0  0  0  0  0  0  0  0  0
   57.3440   23.7980   45.3620 H   0  0  0  0  0  0  0  0  0  0  0  0
   54.5970   23.4376   45.1220 H   0  0  0  0  0  0  0  0  0  0  0  0
   54.8204   24.8875   44.0989 H   0  0  0  0  0  0  0  0  0  0  0  0
   54.9596   22.9804   42.6920 H   0  0  0  0  0  0  0  0  0  0  0  0
   56.6559   23.6527   42.9490 H   0  0  0  0  0  0  0  0  0  0  0  0
   55.2299   22.0798   45.5345 H   0  0  0  0  0  0  0  0  0  0  0  0
   55.3593   20.3936   44.8885 H   0  0  0  0  0  0  0  0  0  0  0  0
   56.7975   21.1305   46.9927 H   0  0  0  0  0  0  0  0  0  0  0  0
   57.5151   20.0930   45.7024 H   0  0  0  0  0  0  0  0  0  0  0  0
   59.2221   22.7352   44.1603 H   0  0  0  0  0  0  0  0  0  0  0  0
   59.3028   20.9504   44.5116 H   0  0  0  0  0  0  0  0  0  0  0  0
   57.8632   22.1799   42.5109 H   0  0  0  0  0  0  0  0  0  0  0  0
   57.6598   20.4843   43.1949 H   0  0  0  0  0  0  0  0  0  0  0  0
   55.9844   28.2934   45.4210 H   0  0  0  0  0  0  0  0  0  0  0  0
   56.2850   29.4185   44.0534 H   0  0  0  0  0  0  0  0  0  0  0  0
   57.0321   27.7849   44.0534 H   0  0  0  0  0  0  0  0  0  0  0  0
   60.9487   31.8326   48.4120 H   0  0  0  0  0  0  0  0  0  0  0  0
   61.8090   30.9979   47.0742 H   0  0  0  0  0  0  0  0  0  0  0  0
   61.6715   32.7889   47.0742 H   0  0  0  0  0  0  0  0  0  0  0  0
  1  2  1  0
  2  3  1  0
  3  4  2  0
  3  5  1  0
  5  6  2  0
  6  7  1  0
  7  8  2  0
  8  9  1  0
  9 10  1  0
 10 11  1  0
 11 12  2  0
 11 13  1  0
 13 14  1  0
 14 15  1  0
 15 16  1  0
 16 17  1  0
 17 18  1  0
 18 19  1  0
 19 20  1  0
 20 21  1  0
  8 22  1  0
 22 23  1  0
  6 24  1  0
 24 25  1  0
 24 26  1  0
 26 27  2  0
 26  2  1  0
 22  5  1  0
 21 16  1  0
  1 28  1  0
  1 29  1  0
  1 30  1  0
 10 31  1  0
 10 32  1  0
 13 33  1  0
 14 34  1  0
 14 35  1  0
 15 36  1  0
 15 37  1  0
 17 38  1  0
 17 39  1  0
 18 40  1  0
 18 41  1  0
 20 42  1  0
 20 43  1  0
 21 44  1  0
 21 45  1  0
 23 46  1  0
 23 47  1  0
 23 48  1  0
 25 49  1  0
 25 50  1  0
 25 51  1  0
M  END
>  <smiles>  (5) 
Cn1c(=O)c2c(nc(SCC(=O)NCCN3CCOCC3)n2C)n(C)c1=O

>  <score_type>  (5) 
oracle

>  <origin>  (5) 
adg

>  <m_score__min__energy>  (5) 
-7.3200000000000003

>  <m_primary>  (5) 
energy

$$$$
5:0
     RDKit          3D

 56 57  0  0  1  0  0  0  0  0999 V2000
   57.2910   22.1510   43.8500 C   0  0  0  0  0  0  0  0  0  0  0  0
   56.4360   23.0570   43.0250 C   0  0  0  0  0  0  0  0  0  0  0  0
   55.8150   24.0250   43.7650 O   0  0  0  0  0  0  0  0  0  0  0  0
   55.2860   23.6800   44.9540 C   0  0  0  0  0  0  0  0  0  0  0  0
   54.4110   24.7360   45.5790 C   0  0  0  0  0  0  0  0  0  0  0  0
   55.1400   25.8120   45.9990 O   0  0  0  0  0  0  0  0  0  0  0  0
   56.2880   25.4200   46.6630 C   0  0  0  0  0  0  0  0  0  0  0  0
   57.5780   25.7160   45.9790 C   0  0  0  0  0  0  0  0  0  0  0  0
   57.4920   26.1400   44.6240 N   0  0  0  0  0  0  0  0  0  0  0  0
   58.3650   27.1540   44.1780 C   0  0  0  0  0  0  0  0  0  0  0  0
   57.7280   28.4930   43.8840 C   0  0  1  0  0  0  0  0  0  0  0  0
   56.6300   28.7910   44.9040 C   0  0  0  0  0  0  0  0  0  0  0  0
   55.8930   30.0250   44.3670 C   0  0  0  0  0  0  0  0  0  0  0  0
   56.9200   31.1270   44.0800 C   0  0  0  0  0  0  0  0  0  0  0  0
   58.1430   30.7020   44.7230 N   0  0  0  0  0  0  0  0  0  0  0  0
   58.6990   31.3120   45.8730 C   0  0  0  0  0  0  0  0  0  0  0  0
   58.5280   30.8030   47.0150 O   0  0  0  0  0  0  0  0  0  0  0  0
   59.4630   32.5030   45.8150 N   0  0  0  0  0  0  0  0  0  0  0  0
   60.0150   33.1070   46.9860 C   0  0  0  0  0  0  0  0  0  0  0  0
   59.2520   33.7830   47.9130 C   0  0  0  0  0  0  0  0  0  0  0  0
   59.8090   34.3610   49.0450 C   0  0  0  0  0  0  0  0  0  0  0  0
   61.1820   34.2390   49.2260 C   0  0  0  0  0  0  0  0  0  0  0  0
   61.9890   33.5680   48.3220 C   0  0  0  0  0  0  0  0  0  0  0  0
   63.6940   33.4610   48.6170 Cl  0  0  0  0  0  0  0  0  0  0  0  0
   61.3850   33.0070   47.2040 C   0  0  0  0  0  0  0  0  0  0  0  0
   58.8130   29.5480   44.1220 C   0  0  0  0  0  0  0  0  0  0  0  0
   57.1078   22.3451   44.9171 H   0  0  0  0  0  0  0  0  0  0  0  0
   57.0441   21.1040   43.6201 H   0  0  0  0  0  0  0  0  0  0  0  0
   58.3505   22.3369   43.6201 H   0  0  0  0  0  0  0  0  0  0  0  0
   57.0694   23.5453   42.2697 H   0  0  0  0  0  0  0  0  0  0  0  0
   55.6505   22.4397   42.5647 H   0  0  0  0  0  0  0  0  0  0  0  0
   54.6805   22.7730   44.8104 H   0  0  0  0  0  0  0  0  0  0  0  0
   56.1320   23.5283   45.6405 H   0  0  0  0  0  0  0  0  0  0  0  0
   53.6732   25.0732   44.8361 H   0  0  0  0  0  0  0  0  0  0  0  0
   53.9141   24.2950   46.4557 H   0  0  0  0  0  0  0  0  0  0  0  0
   56.3013   25.9280   47.6386 H   0  0  0  0  0  0  0  0  0  0  0  0
   56.2324   24.3231   46.7239 H   0  0  0  0  0  0  0  0  0  0  0  0
   58.0835   26.5109   46.5471 H   0  0  0  0  0  0  0  0  0  0  0  0
   58.1210   24.7598   45.9523 H   0  0  0  0  0  0  0  0  0  0  0  0
   56.5970   26.0120   44.1480 H   0  0  0  0  0  0  0  0  0  0  0  0
   59.1280   27.3074   44.9553 H   0  0  0  0  0  0  0  0  0  0  0  0
   58.7669   26.7989   43.2176 H   0  0  0  0  0  0  0  0  0  0  0  0
   57.3159   28.4951   42.8641 H   0  0  0  0  0  0  0  0  0  0  0  0
   55.9407   27.9377   44.9867 H   0  0  0  0  0  0  0  0  0  0  0  0
   57.0437   28.9683   45.9077 H   0  0  0  0  0  0  0  0  0  0  0  0
   55.3617   29.7641   43.4398 H   0  0  0  0  0  0  0  0  0  0  0  0
   55.1635   30.3781   45.1107 H   0  0  0  0  0  0  0  0  0  0  0  0
   57.0742   31.2342   42.9961 H   0  0  0  0  0  0  0  0  0  0  0  0
   56.5823   32.1036   44.4571 H   0  0  0  0  0  0  0  0  0  0  0  0
   59.6540   32.9910   44.9180 H   0  0  0  0  0  0  0  0  0  0  0  0
   58.1673   33.8672   47.7507 H   0  0  0  0  0  0  0  0  0  0  0  0
   59.1850   34.8978   49.7747 H   0  0  0  0  0  0  0  0  0  0  0  0
   61.6429   34.6904   50.1169 H   0  0  0  0  0  0  0  0  0  0  0  0
   62.0062   32.4698   46.4722 H   0  0  0  0  0  0  0  0  0  0  0  0
   59.2811   29.8340   43.1686 H   0  0  0  0  0  0  0  0  0  0  0  0
   59.6073   29.1620   44.7779 H   0  0  0  0  0  0  0  0  0  0  0  0
  1  2  1  0
  2  3  1  0
  3  4  1  0
  4  5  1  0
  5  6  1  0
  6  7  1  0
  7  8  1  0
  8  9  1  0
  9 10  1  0
 10 11  1  0
 11 12  1  0
 12 13  1  0
 13 14  1  0
 14 15  1  0
 15 16  1  0
 16 17  2  0
 16 18  1  0
 18 19  1  0
 19 20  2  0
 20 21  1  0
 21 22  2  0
 22 23  1  0
 23 24  1  0
 23 25  2  0
 15 26  1  0
 26 11  1  0
 25 19  1  0
  1 27  1  0
  1 28  1  0
  1 29  1  0
  2 30  1  0
  2 31  1  0
  4 32  1  0
  4 33  1  0
  5 34  1  0
  5 35  1  0
  7 36  1  0
  7 37  1  0
  8 38  1  0
  8 39  1  0
  9 40  1  0
 10 41  1  0
 10 42  1  0
 11 43  1  6
 12 44  1  0
 12 45  1  0
 13 46  1  0
 13 47  1  0
 14 48  1  0
 14 49  1  0
 18 50  1  0
 20 51  1  0
 21 52  1  0
 22 53  1  0
 25 54  1  0
 26 55  1  0
 26 56  1  0
M  END
>  <smiles>  (6) 
CCOCCOCCNCC1CCCN(C(=O)Nc2cccc(Cl)c2)C1

>  <score_type>  (6) 
oracle

>  <origin>  (6) 
adg

>  <m_score__min__energy>  (6) 
-7.71

>  <m_primary>  (6) 
energy

$$$$
6:0
     RDKit          3D

 61 63  0  0  0  0  0  0  0  0999 V2000
   63.3600   32.7340   47.1200 C   0  0  0  0  0  0  0  0  0  0  0  0
   62.5480   31.4720   47.1340 C   0  0  0  0  0  0  0  0  0  0  0  0
   62.0150   31.1260   48.3130 O   0  0  0  0  0  0  0  0  0  0  0  0
   62.2650   31.7490   49.4740 C   0  0  0  0  0  0  0  0  0  0  0  0
   63.3370   31.2300   50.3790 C   0  0  0  0  0  0  0  0  0  0  0  0
   63.0080   30.0190   51.0090 O   0  0  0  0  0  0  0  0  0  0  0  0
   61.6980   29.8050   51.2650 C   0  0  0  0  0  0  0  0  0  0  0  0
   61.0710   28.7550   50.3610 C   0  0  0  0  0  0  0  0  0  0  0  0
   59.7430   29.0210   49.9440 N   0  0  0  0  0  0  0  0  0  0  0  0
   59.0840   30.1610   50.4760 C   0  0  0  0  0  0  0  0  0  0  0  0
   58.8930   31.2940   49.4550 C   0  0  0  0  0  0  0  0  0  0  0  0
   59.3930   30.8250   48.1760 N   0  0  0  0  0  0  0  0  0  0  0  0
   59.0110   31.3420   46.9130 C   0  0  0  0  0  0  0  0  0  0  0  0
   59.1880   32.6610   46.5490 C   0  0  0  0  0  0  0  0  0  0  0  0
   59.7450   33.5220   47.4990 C   0  0  0  0  0  0  0  0  0  0  0  0
   59.9100   34.8180   47.1240 C   0  0  0  0  0  0  0  0  0  0  0  0
   59.5800   35.3480   45.9070 C   0  0  0  0  0  0  0  0  0  0  0  0
   59.0260   34.4680   44.9770 C   0  0  0  0  0  0  0  0  0  0  0  0
   58.8290   33.1440   45.2860 C   0  0  0  0  0  0  0  0  0  0  0  0
   58.2920   32.3300   44.3660 N   0  0  0  0  0  0  0  0  0  0  0  0
   57.8920   32.7050   43.0450 C   0  0  0  0  0  0  0  0  0  0  0  0
   58.1040   31.0120   44.6990 C   0  0  0  0  0  0  0  0  0  0  0  0
   57.5530   30.1390   43.7630 C   0  0  0  0  0  0  0  0  0  0  0  0
   57.3390   28.8070   44.0190 C   0  0  0  0  0  0  0  0  0  0  0  0
   57.6850   28.3070   45.2550 C   0  0  0  0  0  0  0  0  0  0  0  0
   58.2310   29.1720   46.1810 C   0  0  0  0  0  0  0  0  0  0  0  0
   58.5630   28.6000   47.4200 O   0  0  0  0  0  0  0  0  0  0  0  0
   58.8630   27.2300   47.5860 C   0  0  0  0  0  0  0  0  0  0  0  0
   58.4470   30.5150   45.9260 C   0  0  0  0  0  0  0  0  0  0  0  0
   63.5636   33.0505   48.1536 H   0  0  0  0  0  0  0  0  0  0  0  0
   64.3111   32.5523   46.5981 H   0  0  0  0  0  0  0  0  0  0  0  0
   62.8005   33.5243   46.5981 H   0  0  0  0  0  0  0  0  0  0  0  0
   61.7238   31.5950   46.4160 H   0  0  0  0  0  0  0  0  0  0  0  0
   63.2519   30.6656   46.8806 H   0  0  0  0  0  0  0  0  0  0  0  0
   62.5310   32.7875   49.2276 H   0  0  0  0  0  0  0  0  0  0  0  0
   61.3431   31.5906   50.0528 H   0  0  0  0  0  0  0  0  0  0  0  0
   64.2488   31.0749   49.7836 H   0  0  0  0  0  0  0  0  0  0  0  0
   63.4760   31.9778   51.1737 H   0  0  0  0  0  0  0  0  0  0  0  0
   61.5962   29.4727   52.3086 H   0  0  0  0  0  0  0  0  0  0  0  0
   61.1710   30.7522   51.0777 H   0  0  0  0  0  0  0  0  0  0  0  0
   61.6970   28.6658   49.4609 H   0  0  0  0  0  0  0  0  0  0  0  0
   61.0198   27.8337   50.9599 H   0  0  0  0  0  0  0  0  0  0  0  0
   59.5930   28.8160   48.9510 H   0  0  0  0  0  0  0  0  0  0  0  0
   58.0936   29.8513   50.8410 H   0  0  0  0  0  0  0  0  0  0  0  0
   59.7218   30.5560   51.2804 H   0  0  0  0  0  0  0  0  0  0  0  0
   57.8256   31.5459   49.3703 H   0  0  0  0  0  0  0  0  0  0  0  0
   59.4368   32.1954   49.7739 H   0  0  0  0  0  0  0  0  0  0  0  0
   60.1070   30.0280   48.1340 H   0  0  0  0  0  0  0  0  0  0  0  0
   60.0351   33.1686   48.4995 H   0  0  0  0  0  0  0  0  0  0  0  0
   60.3482   35.5019   47.8658 H   0  0  0  0  0  0  0  0  0  0  0  0
   59.7427   36.4107   45.6742 H   0  0  0  0  0  0  0  0  0  0  0  0
   58.7427   34.8399   43.9813 H   0  0  0  0  0  0  0  0  0  0  0  0
   57.0907   33.4563   43.1039 H   0  0  0  0  0  0  0  0  0  0  0  0
   58.7531   33.1288   42.5076 H   0  0  0  0  0  0  0  0  0  0  0  0
   57.5246   31.8183   42.5076 H   0  0  0  0  0  0  0  0  0  0  0  0
   57.2770   30.5348   42.7745 H   0  0  0  0  0  0  0  0  0  0  0  0
   56.8999   28.1521   43.2521 H   0  0  0  0  0  0  0  0  0  0  0  0
   57.5300   27.2453   45.4976 H   0  0  0  0  0  0  0  0  0  0  0  0
   58.9148   26.9934   48.6590 H   0  0  0  0  0  0  0  0  0  0  0  0
   58.0766   26.6226   47.1141 H   0  0  0  0  0  0  0  0  0  0  0  0
   59.8313   27.0069   47.1141 H   0  0  0  0  0  0  0  0  0  0  0  0
  1  2  1  0
  2  3  1  0
  3  4  1  0
  4  5  1  0
  5  6  1  0
  6  7  1  0
  7  8  1  0
  8  9  1  0
  9 10  1  0
 10 11  1  0
 11 12  1  0
 12 13  1  0
 13 14  2  0
 14 15  1  0
 15 16  2  0
 16 17  1  0
 17 18  2  0
 18 19  1  0
 19 20  2  0
 20 21  1  0
 20 22  1  0
 22 23  2  0
 23 24  1  0
 24 25  2  0
 25 26  1  0
 26 27  1  0
 27 28  1  0
 26 29  2  0
 29 13  1  0
 19 14  1  0
 29 22  1  0
  1 30  1  0
  1 31  1  0
  1 32  1  0
  2 33  1  0
  2 34  1  0
  4 35  1  0
  4 36  1  0
  5 37  1  0
  5 38  1  0
  7 39  1  0
  7 40  1  0
  8 41  1  0
  8 42  1  0
  9 43  1  0
 10 44  1  0
 10 45  1  0
 11 46  1  0
 11 47  1  0
 12 48  1  0
 15 49  1  0
 16 50  1  0
 17 51  1  0
 18 52  1  0
 21 53  1  0
 21 54  1  0
 21 55  1  0
 23 56  1  0
 24 57  1  0
 25 58  1  0
 28 59  1  0
 28 60  1  0
 28 61  1  0
M  CHG  1  20   1
M  END
>  <smiles>  (7) 
CCOCCOCCNCCNc1c2ccccc2[n+](C)c2cccc(OC)c12

>  <score_type>  (7) 
oracle

>  <origin>  (7) 
adg

>  <m_score__min__energy>  (7) 
-5.9900000000000002

>  <m_primary>  (7) 
energy

$$$$
7:0
     RDKit          3D

 60 62  0  0  0  0  0  0  0  0999 V2000
   58.5140   31.7810   49.9850 C   0  0  0  0  0  0  0  0  0  0  0  0
   59.4820   32.9610   50.1790 C   0  0  0  0  0  0  0  0  0  0  0  0
   59.2340   33.5370   51.5220 C   0  0  0  0  0  0  0  0  0  0  0  0
   59.3260   33.8570   48.9980 C   0  0  0  0  0  0  0  0  0  0  0  0
   60.0960   33.4760   47.8280 N   0  0  0  0  0  0  0  0  0  0  0  0
   59.5530   33.3510   46.5180 C   0  0  0  0  0  0  0  0  0  0  0  0
   59.0880   34.5650   45.9770 C   0  0  0  0  0  0  0  0  0  0  0  0
   58.2480   34.5730   44.8850 C   0  0  0  0  0  0  0  0  0  0  0  0
   57.8930   33.3520   44.3600 C   0  0  0  0  0  0  0  0  0  0  0  0
   58.3430   32.1480   44.8760 C   0  0  0  0  0  0  0  0  0  0  0  0
   59.1830   32.1350   45.9570 C   0  0  0  0  0  0  0  0  0  0  0  0
   59.6620   30.9330   46.5190 C   0  0  0  0  0  0  0  0  0  0  0  0
   60.7460   30.9850   47.3840 N   0  0  0  0  0  0  0  0  0  0  0  0
   61.2390   30.2130   48.4750 C   0  0  0  0  0  0  0  0  0  0  0  0
   62.2690   31.0580   49.2890 C   0  0  0  0  0  0  0  0  0  0  0  0
   63.2060   31.8200   48.4410 C   0  0  0  0  0  0  0  0  0  0  0  0
   62.8930   33.1250   48.0370 N   0  0  0  0  0  0  0  0  0  0  0  0
   63.0050   34.2070   48.9300 C   0  0  0  0  0  0  0  0  0  0  0  0
   63.4200   33.4450   46.7480 C   0  0  0  0  0  0  0  0  0  0  0  0
   59.1930   29.7870   45.9100 C   0  0  0  0  0  0  0  0  0  0  0  0
   59.5310   28.5280   46.3470 C   0  0  0  0  0  0  0  0  0  0  0  0
   59.0990   27.3560   45.8080 C   0  0  0  0  0  0  0  0  0  0  0  0
   58.2510   27.3900   44.7340 C   0  0  0  0  0  0  0  0  0  0  0  0
   57.8690   28.6400   44.2430 C   0  0  0  0  0  0  0  0  0  0  0  0
   58.3240   29.8170   44.8120 C   0  0  0  0  0  0  0  0  0  0  0  0
   57.9140   30.9810   44.3070 N   0  0  0  0  0  0  0  0  0  0  0  0
   57.0340   31.1300   43.1740 C   0  0  0  0  0  0  0  0  0  0  0  0
   58.2004   31.3987   50.9676 H   0  0  0  0  0  0  0  0  0  0  0  0
   57.6304   32.1200   49.4244 H   0  0  0  0  0  0  0  0  0  0  0  0
   59.0192   30.9807   49.4244 H   0  0  0  0  0  0  0  0  0  0  0  0
   60.5498   32.6971   50.1936 H   0  0  0  0  0  0  0  0  0  0  0  0
   59.5443   32.8164   52.2930 H   0  0  0  0  0  0  0  0  0  0  0  0
   59.8118   34.4662   51.6348 H   0  0  0  0  0  0  0  0  0  0  0  0
   58.1619   33.7559   51.6348 H   0  0  0  0  0  0  0  0  0  0  0  0
   58.2626   33.8678   48.7170 H   0  0  0  0  0  0  0  0  0  0  0  0
   59.7081   34.8407   49.3082 H   0  0  0  0  0  0  0  0  0  0  0  0
   61.0980   33.1960   48.0740 H   0  0  0  0  0  0  0  0  0  0  0  0
   59.3988   35.5174   46.4312 H   0  0  0  0  0  0  0  0  0  0  0  0
   57.8776   35.5140   44.4521 H   0  0  0  0  0  0  0  0  0  0  0  0
   57.2204   33.3309   43.4898 H   0  0  0  0  0  0  0  0  0  0  0  0
   61.5070   31.7370   47.0760 H   0  0  0  0  0  0  0  0  0  0  0  0
   60.4021   29.9264   49.1288 H   0  0  0  0  0  0  0  0  0  0  0  0
   61.7311   29.3077   48.0900 H   0  0  0  0  0  0  0  0  0  0  0  0
   61.7151   31.7679   49.9208 H   0  0  0  0  0  0  0  0  0  0  0  0
   62.8696   30.3526   49.8820 H   0  0  0  0  0  0  0  0  0  0  0  0
   64.1554   31.8793   48.9933 H   0  0  0  0  0  0  0  0  0  0  0  0
   63.2002   31.2580   47.4954 H   0  0  0  0  0  0  0  0  0  0  0  0
   62.9664   33.8343   49.9642 H   0  0  0  0  0  0  0  0  0  0  0  0
   63.9614   34.7237   48.7619 H   0  0  0  0  0  0  0  0  0  0  0  0
   62.1747   34.9086   48.7619 H   0  0  0  0  0  0  0  0  0  0  0  0
   64.3549   34.0127   46.8647 H   0  0  0  0  0  0  0  0  0  0  0  0
   63.6215   32.5166   46.1935 H   0  0  0  0  0  0  0  0  0  0  0  0
   62.6892   34.0520   46.1935 H   0  0  0  0  0  0  0  0  0  0  0  0
   60.2111   28.4625   47.2090 H   0  0  0  0  0  0  0  0  0  0  0  0
   59.4267   26.3942   46.2295 H   0  0  0  0  0  0  0  0  0  0  0  0
   57.8822   26.4621   44.2725 H   0  0  0  0  0  0  0  0  0  0  0  0
   57.1880   28.6908   43.3806 H   0  0  0  0  0  0  0  0  0  0  0  0
   56.0070   31.3039   43.5277 H   0  0  0  0  0  0  0  0  0  0  0  0
   57.3618   31.9854   42.5651 H   0  0  0  0  0  0  0  0  0  0  0  0
   57.0620   30.2143   42.5651 H   0  0  0  0  0  0  0  0  0  0  0  0
  1  2  1  0
  2  3  1  0
  2  4  1  0
  4  5  1  0
  5  6  1  0
  6  7  2  0
  7  8  1  0
  8  9  2  0
  9 10  1  0
 10 11  2  0
 11 12  1  0
 12 13  1  0
 13 14  1  0
 14 15  1  0
 15 16  1  0
 16 17  1  0
 17 18  1  0
 17 19  1  0
 12 20  2  0
 20 21  1  0
 21 22  2  0
 22 23  1  0
 23 24  2  0
 24 25  1  0
 25 26  2  0
 26 27  1  0
 11  6  1  0
 25 20  1  0
 26 10  1  0
  1 28  1  0
  1 29  1  0
  1 30  1  0
  2 31  1  0
  3 32  1  0
  3 33  1  0
  3 34  1  0
  4 35  1  0
  4 36  1  0
  5 37  1  0
  7 38  1  0
  8 39  1  0
  9 40  1  0
 13 41  1  0
 14 42  1  0
 14 43  1  0
 15 44  1  0
 15 45  1  0
 16 46  1  0
 16 47  1  0
 18 48  1  0
 18 49  1  0
 18 50  1  0
 19 51  1  0
 19 52  1  0
 19 53  1  0
 21 54  1  0
 22 55  1  0
 23 56  1  0
 24 57  1  0
 27 58  1  0
 27 59  1  0
 27 60  1  0
M  CHG  1  26   1
M  END
>  <smiles>  (8) 
CC(C)CNc1cccc2c1c(NCCCN(C)C)c1ccccc1[n+]2C

>  <score_type>  (8) 
oracle

>  <origin>  (8) 
adg

>  <m_score__min__energy>  (8) 
-5.4299999999999997

>  <m_primary>  (8) 
energy

$$$$
9:0
     RDKit          3D

 44 45  0  0  0  0  0  0  0  0999 V2000
   60.1870   34.2290   47.3930 C   0  0  0  0  0  0  0  0  0  0  0  0
   59.2380   34.9030   46.4090 C   0  0  0  0  0  0  0  0  0  0  0  0
   59.3050   34.2700   45.0540 C   0  0  0  0  0  0  0  0  0  0  0  0
   58.1270   33.7240   44.5320 N   0  0  0  0  0  0  0  0  0  0  0  0
   57.3290   33.1940   45.6210 C   0  0  0  0  0  0  0  0  0  0  0  0
   57.8890   31.8500   45.9850 C   0  0  0  0  0  0  0  0  0  0  0  0
   58.1730   31.0060   44.7520 C   0  0  0  0  0  0  0  0  0  0  0  0
   57.9960   29.6130   45.1000 C   0  0  0  0  0  0  0  0  0  0  0  0
   59.1490   28.8460   45.3350 C   0  0  0  0  0  0  0  0  0  0  0  0
   59.1110   27.5320   45.6870 C   0  0  0  0  0  0  0  0  0  0  0  0
   57.9110   26.8710   45.8330 C   0  0  0  0  0  0  0  0  0  0  0  0
   56.7660   27.6060   45.6070 C   0  0  0  0  0  0  0  0  0  0  0  0
   55.5270   26.9560   45.7490 O   0  0  0  0  0  0  0  0  0  0  0  0
   55.5170   25.5450   45.6570 C   0  0  0  0  0  0  0  0  0  0  0  0
   56.8060   28.9520   45.2460 C   0  0  0  0  0  0  0  0  0  0  0  0
   55.5920   29.5660   45.0480 O   0  0  0  0  0  0  0  0  0  0  0  0
   55.1460   29.7240   43.6980 C   0  0  0  0  0  0  0  0  0  0  0  0
   57.4370   31.5960   43.6230 C   0  0  0  0  0  0  0  0  0  0  0  0
   58.1320   32.9580   43.3610 C   0  0  0  0  0  0  0  0  0  0  0  0
   59.8694   34.4546   48.4217 H   0  0  0  0  0  0  0  0  0  0  0  0
   60.1682   33.1408   47.2337 H   0  0  0  0  0  0  0  0  0  0  0  0
   61.2083   34.6053   47.2337 H   0  0  0  0  0  0  0  0  0  0  0  0
   58.2099   34.8196   46.7911 H   0  0  0  0  0  0  0  0  0  0  0  0
   59.5374   35.9569   46.3106 H   0  0  0  0  0  0  0  0  0  0  0  0
   59.6510   35.0398   44.3486 H   0  0  0  0  0  0  0  0  0  0  0  0
   59.9774   33.4089   45.1824 H   0  0  0  0  0  0  0  0  0  0  0  0
   57.3823   33.8693   46.4877 H   0  0  0  0  0  0  0  0  0  0  0  0
   56.2755   33.1032   45.3179 H   0  0  0  0  0  0  0  0  0  0  0  0
   58.8264   31.9935   46.5424 H   0  0  0  0  0  0  0  0  0  0  0  0
   57.1430   31.3222   46.5973 H   0  0  0  0  0  0  0  0  0  0  0  0
   59.2110   31.0149   44.3880 H   0  0  0  0  0  0  0  0  0  0  0  0
   60.1306   29.3311   45.2294 H   0  0  0  0  0  0  0  0  0  0  0  0
   60.0526   26.9894   45.8575 H   0  0  0  0  0  0  0  0  0  0  0  0
   57.8682   25.8089   46.1160 H   0  0  0  0  0  0  0  0  0  0  0  0
   55.5139   25.1117   46.6680 H   0  0  0  0  0  0  0  0  0  0  0  0
   54.6165   25.2192   45.1157 H   0  0  0  0  0  0  0  0  0  0  0  0
   56.4128   25.2065   45.1157 H   0  0  0  0  0  0  0  0  0  0  0  0
   54.1091   30.0913   43.6950 H   0  0  0  0  0  0  0  0  0  0  0  0
   55.7929   30.4477   43.1805 H   0  0  0  0  0  0  0  0  0  0  0  0
   55.1930   28.7545   43.1805 H   0  0  0  0  0  0  0  0  0  0  0  0
   57.5061   30.9494   42.7358 H   0  0  0  0  0  0  0  0  0  0  0  0
   56.3657   31.7136   43.8434 H   0  0  0  0  0  0  0  0  0  0  0  0
   59.1704   32.7832   43.0430 H   0  0  0  0  0  0  0  0  0  0  0  0
   57.5891   33.4975   42.5709 H   0  0  0  0  0  0  0  0  0  0  0  0
  1  2  1  0
  2  3  1  0
  3  4  1  0
  4  5  1  0
  5  6  1  0
  6  7  1  0
  7  8  1  0
  8  9  2  0
  9 10  1  0
 10 11  2  0
 11 12  1  0
 12 13  1  0
 13 14  1  0
 12 15  2  0
 15 16  1  0
 16 17  1  0
  7 18  1  0
 18 19  1  0
 19  4  1  0
 15  8  1  0
  1 20  1  0
  1 21  1  0
  1 22  1  0
  2 23  1  0
  2 24  1  0
  3 25  1  0
  3 26  1  0
  5 27  1  0
  5 28  1  0
  6 29  1  0
  6 30  1  0
  7 31  1  0
  9 32  1  0
 10 33  1  0
 11 34  1  0
 14 35  1  0
 14 36  1  0
 14 37  1  0
 17 38  1  0
 17 39  1  0
 17 40  1  0
 18 41  1  0
 18 42  1  0
 19 43  1  0
 19 44  1  0
M  END
>  <smiles>  (9) 
CCCN1CCC(c2cccc(OC)c2OC)CC1

>  <score_type>  (9) 
oracle

>  <origin>  (9) 
adg

>  <m_score__min__energy>  (9) 
-7.8600000000000003

>  <m_primary>  (9) 
energy

$$$$
10:0
     RDKit          3D

 45 49  0  0  1  0  0  0  0  0999 V2000
   59.1810   26.6810   47.4650 C   0  0  0  0  0  0  0  0  0  0  0  0
   58.4430   27.4380   46.4840 N   0  0  0  0  0  0  0  0  0  0  0  0
   57.4990   26.9500   45.6650 C   0  0  0  0  0  0  0  0  0  0  0  0
   57.0480   25.7700   45.5610 N   0  0  0  0  0  0  0  0  0  0  0  0
   57.8350   24.6170   45.4550 C   0  0  0  0  0  0  0  0  0  0  0  0
   57.2640   23.5930   44.5010 C   0  0  0  0  0  0  0  0  0  0  0  0
   56.1680   23.8550   43.7060 C   0  0  0  0  0  0  0  0  0  0  0  0
   55.6280   22.9410   42.8240 C   0  0  0  0  0  0  0  0  0  0  0  0
   56.2090   21.7380   42.7440 N   0  0  0  0  0  0  0  0  0  0  0  0
   57.2820   21.4070   43.4870 C   0  0  0  0  0  0  0  0  0  0  0  0
   57.8200   22.3330   44.3740 C   0  0  0  0  0  0  0  0  0  0  0  0
   57.0250   27.9640   44.8770 N   0  0  0  0  0  0  0  0  0  0  0  0
   57.6530   29.0880   45.1830 C   0  0  0  0  0  0  0  0  0  0  0  0
   57.6030   30.4070   44.7380 C   0  0  0  0  0  0  0  0  0  0  0  0
   58.4310   31.3850   45.2940 C   0  0  0  0  0  0  0  0  0  0  0  0
   59.3100   31.0350   46.2990 C   0  0  0  0  0  0  0  0  0  0  0  0
   60.2090   31.9950   46.9380 C   0  0  0  0  0  0  0  0  0  0  0  0
   59.8070   33.2640   47.3060 C   0  0  0  0  0  0  0  0  0  0  0  0
   60.7020   34.1350   47.9050 C   0  0  0  0  0  0  0  0  0  0  0  0
   62.0100   33.7310   48.1380 C   0  0  0  0  0  0  0  0  0  0  0  0
   62.4310   32.4670   47.7780 C   0  0  0  0  0  0  0  0  0  0  0  0
   61.5280   31.6110   47.1810 C   0  0  0  0  0  0  0  0  0  0  0  0
   63.7660   32.4100   48.1530 O   0  0  0  0  0  0  0  0  0  0  0  0
   64.0620   33.4710   49.0410 C   0  0  0  0  0  0  0  0  0  0  0  0
   63.0640   34.4190   48.7160 O   0  0  0  0  0  0  0  0  0  0  0  0
   59.3560   29.7320   46.7330 C   0  0  0  0  0  0  0  0  0  0  0  0
   58.5410   28.7680   46.1860 C   0  0  0  0  0  0  0  0  0  0  0  0
   58.8762   26.9937   48.4746 H   0  0  0  0  0  0  0  0  0  0  0  0
   58.9717   25.6090   47.3343 H   0  0  0  0  0  0  0  0  0  0  0  0
   60.2579   26.8630   47.3343 H   0  0  0  0  0  0  0  0  0  0  0  0
   58.8346   24.9073   45.0993 H   0  0  0  0  0  0  0  0  0  0  0  0
   57.8703   24.1522   46.4513 H   0  0  0  0  0  0  0  0  0  0  0  0
   55.6983   24.8470   43.7788 H   0  0  0  0  0  0  0  0  0  0  0  0
   54.7514   23.1923   42.2088 H   0  0  0  0  0  0  0  0  0  0  0  0
   57.7315   20.4075   43.3927 H   0  0  0  0  0  0  0  0  0  0  0  0
   58.6963   22.0607   44.9806 H   0  0  0  0  0  0  0  0  0  0  0  0
   56.2840   27.9030   44.1370 H   0  0  0  0  0  0  0  0  0  0  0  0
   56.9012   30.6825   43.9370 H   0  0  0  0  0  0  0  0  0  0  0  0
   58.3830   32.4235   44.9346 H   0  0  0  0  0  0  0  0  0  0  0  0
   58.7709   33.5846   47.1225 H   0  0  0  0  0  0  0  0  0  0  0  0
   60.3772   35.1450   48.1956 H   0  0  0  0  0  0  0  0  0  0  0  0
   61.8560   30.6022   46.8899 H   0  0  0  0  0  0  0  0  0  0  0  0
   63.9796   33.1485   50.0894 H   0  0  0  0  0  0  0  0  0  0  0  0
   65.0872   33.8571   48.9419 H   0  0  0  0  0  0  0  0  0  0  0  0
   60.0579   29.4544   47.5331 H   0  0  0  0  0  0  0  0  0  0  0  0
  1  2  1  0
  2  3  1  0
  3  4  2  0
  4  5  1  0
  5  6  1  0
  6  7  2  0
  7  8  1  0
  8  9  2  0
  9 10  1  0
 10 11  2  0
  3 12  1  0
 12 13  1  0
 13 14  2  0
 14 15  1  0
 15 16  2  0
 16 17  1  0
 17 18  2  0
 18 19  1  0
 19 20  2  0
 20 21  1  0
 21 22  2  0
 21 23  1  0
 23 24  1  0
 24 25  1  0
 16 26  1  0
 26 27  2  0
 27  2  1  0
 11  6  1  0
 27 13  1  0
 22 17  1  0
 25 20  1  0
  1 28  1  0
  1 29  1  0
  1 30  1  0
  5 31  1  0
  5 32  1  0
  7 33  1  0
  8 34  1  0
 10 35  1  0
 11 36  1  0
 12 37  1  0
 14 38  1  0
 15 39  1  0
 18 40  1  0
 19 41  1  0
 22 42  1  0
 24 43  1  0
 24 44  1  0
 26 45  1  0
M  END
>  <smiles>  (10) 
Cn1c(=NCc2ccncc2)[nH]c2ccc(-c3ccc4c(c3)OCO4)cc21

>  <score_type>  (10) 
oracle

>  <origin>  (10) 
adg

>  <m_score__min__energy>  (10) 
-8.0299999999999994

>  <m_primary>  (10) 
energy

$$$$
11:0
     RDKit          2D

 60 63  0  0  0  0  0  0  0  0999 V2000
  -13.0687    5.8926    0.0000 C   0  0  0  0  0  0  0  0  0  0  0  0
  -12.7568    4.4254    0.0000 C   0  0  0  0  0  0  0  0  0  0  0  0
  -12.4450    2.9582    0.0000 O   0  0  0  0  0  0  0  0  0  0  0  0
  -11.0184    2.4947    0.0000 C   0  0  0  0  0  0  0  0  0  0  0  0
   -9.5918    2.0312    0.0000 C   0  0  0  0  0  0  0  0  0  0  0  0
   -8.1652    1.5676    0.0000 O   0  0  0  0  0  0  0  0  0  0  0  0
   -7.8533    0.1004    0.0000 C   0  0  0  0  0  0  0  0  0  0  0  0
   -7.5415   -1.3668    0.0000 C   0  0  0  0  0  0  0  0  0  0  0  0
   -7.2296   -2.8340    0.0000 O   0  0  0  0  0  0  0  0  0  0  0  0
   -5.8030   -3.2976    0.0000 C   0  0  0  0  0  0  0  0  0  0  0  0
   -4.3764   -3.7611    0.0000 C   0  0  0  0  0  0  0  0  0  0  0  0
   -2.9499   -4.2246    0.0000 N   0  0  0  0  0  0  0  0  0  0  0  0
   -1.8351   -3.2209    0.0000 C   0  0  0  0  0  0  0  0  0  0  0  0
   -2.1470   -1.7537    0.0000 C   0  0  0  0  0  0  0  0  0  0  0  0
   -1.0323   -0.7500    0.0000 C   0  0  0  0  0  0  0  0  0  0  0  0
   -1.0323    0.7500    0.0000 C   0  0  0  0  0  0  0  0  0  0  0  0
   -2.1470    1.7537    0.0000 C   0  0  0  0  0  0  0  0  0  0  0  0
   -1.8351    3.2209    0.0000 C   0  0  0  0  0  0  0  0  0  0  0  0
   -0.4086    3.6844    0.0000 C   0  0  0  0  0  0  0  0  0  0  0  0
   -0.0967    5.1517    0.0000 Cl  0  0  0  0  0  0  0  0  0  0  0  0
    0.7062    2.6807    0.0000 C   0  0  0  0  0  0  0  0  0  0  0  0
    0.3943    1.2135    0.0000 C   0  0  0  0  0  0  0  0  0  0  0  0
    1.2760    0.0000    0.0000 N   0  0  0  0  0  0  0  0  0  0  0  0
    0.3943   -1.2135    0.0000 C   0  0  0  0  0  0  0  0  0  0  0  0
    0.7062   -2.6807    0.0000 N   0  0  0  0  0  0  0  0  0  0  0  0
    2.1328   -3.1443    0.0000 C   0  0  0  0  0  0  0  0  0  0  0  0
   -0.4086   -3.6844    0.0000 C   0  0  0  0  0  0  0  0  0  0  0  0
   -1.2720   -4.9110    0.0000 C   0  0  0  0  0  0  0  0  0  0  0  0
   -2.7693   -5.0007    0.0000 C   0  0  0  0  0  0  0  0  0  0  0  0
   -3.7730   -3.8860    0.0000 C   0  0  0  0  0  0  0  0  0  0  0  0
   -3.5273   -2.4063    0.0000 C   0  0  0  0  0  0  0  0  0  0  0  0
  -13.3806    7.3599    0.0000 H   0  0  0  0  0  0  0  0  0  0  0  0
  -11.6015    6.2045    0.0000 H   0  0  0  0  0  0  0  0  0  0  0  0
  -14.5359    5.5808    0.0000 H   0  0  0  0  0  0  0  0  0  0  0  0
  -11.2896    4.7373    0.0000 H   0  0  0  0  0  0  0  0  0  0  0  0
  -14.2241    4.1136    0.0000 H   0  0  0  0  0  0  0  0  0  0  0  0
  -11.4819    1.0681    0.0000 H   0  0  0  0  0  0  0  0  0  0  0  0
  -10.5549    3.9213    0.0000 H   0  0  0  0  0  0  0  0  0  0  0  0
  -10.0553    0.6046    0.0000 H   0  0  0  0  0  0  0  0  0  0  0  0
   -9.1283    3.4577    0.0000 H   0  0  0  0  0  0  0  0  0  0  0  0
   -6.3861    0.4123    0.0000 H   0  0  0  0  0  0  0  0  0  0  0  0
   -9.3206   -0.2115    0.0000 H   0  0  0  0  0  0  0  0  0  0  0  0
   -6.0743   -1.0549    0.0000 H   0  0  0  0  0  0  0  0  0  0  0  0
   -9.0087   -1.6787    0.0000 H   0  0  0  0  0  0  0  0  0  0  0  0
   -6.2665   -4.7241    0.0000 H   0  0  0  0  0  0  0  0  0  0  0  0
   -5.5168   -1.8251    0.0000 H   0  0  0  0  0  0  0  0  0  0  0  0
   -4.2719   -2.2647    0.0000 H   0  0  0  0  0  0  0  0  0  0  0  0
   -4.8400   -5.1877    0.0000 H   0  0  0  0  0  0  0  0  0  0  0  0
   -3.0023   -5.7237    0.0000 H   0  0  0  0  0  0  0  0  0  0  0  0
   -3.5736    1.2902    0.0000 H   0  0  0  0  0  0  0  0  0  0  0  0
   -2.9499    4.2246    0.0000 H   0  0  0  0  0  0  0  0  0  0  0  0
    2.1328    3.1443    0.0000 H   0  0  0  0  0  0  0  0  0  0  0  0
    2.7760    0.0000    0.0000 H   0  0  0  0  0  0  0  0  0  0  0  0
    3.5593   -3.6078    0.0000 H   0  0  0  0  0  0  0  0  0  0  0  0
    1.6692   -4.5709    0.0000 H   0  0  0  0  0  0  0  0  0  0  0  0
    2.5963   -1.7177    0.0000 H   0  0  0  0  0  0  0  0  0  0  0  0
   -0.5415   -6.2211    0.0000 H   0  0  0  0  0  0  0  0  0  0  0  0
   -3.3381   -6.3887    0.0000 H   0  0  0  0  0  0  0  0  0  0  0  0
   -5.2128   -4.3067    0.0000 H   0  0  0  0  0  0  0  0  0  0  0  0
   -4.6394   -1.3998    0.0000 H   0  0  0  0  0  0  0  0  0  0  0  0
  1  2  1  0
  2  3  1  0
  3  4  1  0
  4  5  1  0
  5  6  1  0
  6  7  1  0
  7  8  1  0
  8  9  1  0
  9 10  1  0
 10 11  1  0
 11 12  1  0
 12 13  1  0
 13 14  2  0
 14 15  1  0
 15 16  1  0
 16 17  2  0
 17 18  1  0
 18 19  2  0
 19 20  1  0
 19 21  1  0
 21 22  2  0
 22 23  1  0
 23 24  1  0
 24 25  1  0
 25 26  1  0
 25 27  2  0
 27 28  1  0
 28 29  2  0
 29 30  1  0
 30 31  2  0
 27 13  1  0
 31 14  1  0
 24 15  2  0
 22 16  1  0
  1 32  1  0
  1 33  1  0
  1 34  1  0
  2 35  1  0
  2 36  1  0
  4 37  1  0
  4 38  1  0
  5 39  1  0
  5 40  1  0
  7 41  1  0
  7 42  1  0
  8 43  1  0
  8 44  1  0
 10 45  1  0
 10 46  1  0
 11 47  1  0
 11 48  1  0
 12 49  1  0
 17 50  1  0
 18 51  1  0
 21 52  1  0
 23 53  1  0
 26 54  1  0
 26 55  1  0
 26 56  1  0
 28 57  1  0
 29 58  1  0
 30 59  1  0
 31 60  1  0
M  CHG  1  25   1
M  END
>  <smiles>  (11) 
CCOCCOCCOCCNc1c2c3c4ccc(Cl)cc4[nH]c3[n+](C)c1C=CC=C2

>  <m_score__min__energy>  (11) 
nan

>  <m_primary>  (11) 
energy

$$$$
12:0
     RDKit          3D

 55 57  0  0  0  0  0  0  0  0999 V2000
   54.6910   30.8140   52.3710 C   0  0  0  0  0  0  0  0  0  0  0  0
   56.1610   30.6050   52.5480 C   0  0  0  0  0  0  0  0  0  0  0  0
   56.7270   29.7180   51.6310 O   0  0  0  0  0  0  0  0  0  0  0  0
   58.0800   29.9150   51.7180 N   0  0  0  0  0  0  0  0  0  0  0  0
   58.7900   30.7900   50.8770 C   0  0  0  0  0  0  0  0  0  0  0  0
   58.1460   31.4210   50.0020 O   0  0  0  0  0  0  0  0  0  0  0  0
   60.2580   30.9160   51.0770 C   0  0  0  0  0  0  0  0  0  0  0  0
   60.7930   31.6080   49.9240 N   0  0  0  0  0  0  0  0  0  0  0  0
   61.7650   30.8510   49.1960 C   0  0  0  0  0  0  0  0  0  0  0  0
   61.0530   30.1960   48.0020 C   0  0  0  0  0  0  0  0  0  0  0  0
   59.7090   30.6620   47.8820 N   0  0  0  0  0  0  0  0  0  0  0  0
   59.0430   30.7040   46.6330 C   0  0  0  0  0  0  0  0  0  0  0  0
   58.8380   29.5000   45.9590 C   0  0  0  0  0  0  0  0  0  0  0  0
   59.3210   28.3450   46.5500 C   0  0  0  0  0  0  0  0  0  0  0  0
   59.1540   27.1210   45.9180 C   0  0  0  0  0  0  0  0  0  0  0  0
   58.5030   27.1010   44.7050 C   0  0  0  0  0  0  0  0  0  0  0  0
   58.0230   28.2830   44.1250 C   0  0  0  0  0  0  0  0  0  0  0  0
   58.1820   29.5020   44.7420 C   0  0  0  0  0  0  0  0  0  0  0  0
   57.7170   30.6060   44.1530 N   0  0  0  0  0  0  0  0  0  0  0  0
   57.0130   30.6350   42.8920 C   0  0  0  0  0  0  0  0  0  0  0  0
   57.9130   31.7950   44.8020 C   0  0  0  0  0  0  0  0  0  0  0  0
   57.4780   32.9850   44.2600 C   0  0  0  0  0  0  0  0  0  0  0  0
   57.6760   34.2110   44.8960 C   0  0  0  0  0  0  0  0  0  0  0  0
   58.3210   34.2390   46.0960 C   0  0  0  0  0  0  0  0  0  0  0  0
   58.7690   33.0670   46.6660 C   0  0  0  0  0  0  0  0  0  0  0  0
   59.4180   33.1390   47.8760 O   0  0  0  0  0  0  0  0  0  0  0  0
   59.7580   34.2990   48.5660 C   0  0  0  0  0  0  0  0  0  0  0  0
   58.5690   31.8420   46.0290 C   0  0  0  0  0  0  0  0  0  0  0  0
   54.2090   30.8825   53.3574 H   0  0  0  0  0  0  0  0  0  0  0  0
   54.5177   31.7458   51.8127 H   0  0  0  0  0  0  0  0  0  0  0  0
   54.2649   29.9674   51.8127 H   0  0  0  0  0  0  0  0  0  0  0  0
   56.6631   31.5780   52.4419 H   0  0  0  0  0  0  0  0  0  0  0  0
   56.2995   30.1606   53.5447 H   0  0  0  0  0  0  0  0  0  0  0  0
   58.5460   29.3510   52.4760 H   0  0  0  0  0  0  0  0  0  0  0  0
   60.4651   31.4920   51.9910 H   0  0  0  0  0  0  0  0  0  0  0  0
   60.7222   29.9246   51.1855 H   0  0  0  0  0  0  0  0  0  0  0  0
   60.0550   31.9350   49.2710 H   0  0  0  0  0  0  0  0  0  0  0  0
   62.5641   31.5158   48.8363 H   0  0  0  0  0  0  0  0  0  0  0  0
   62.2165   30.0836   49.8420 H   0  0  0  0  0  0  0  0  0  0  0  0
   61.6008   30.4401   47.0799 H   0  0  0  0  0  0  0  0  0  0  0  0
   61.0308   29.1083   48.1643 H   0  0  0  0  0  0  0  0  0  0  0  0
   59.1770   30.9860   48.7270 H   0  0  0  0  0  0  0  0  0  0  0  0
   59.8369   28.3975   47.5201 H   0  0  0  0  0  0  0  0  0  0  0  0
   59.5310   26.1932   46.3731 H   0  0  0  0  0  0  0  0  0  0  0  0
   58.3575   26.1434   44.1836 H   0  0  0  0  0  0  0  0  0  0  0  0
   57.5075   28.2348   43.1545 H   0  0  0  0  0  0  0  0  0  0  0  0
   55.9297   30.6796   43.0778 H   0  0  0  0  0  0  0  0  0  0  0  0
   57.3236   31.5211   42.3190 H   0  0  0  0  0  0  0  0  0  0  0  0
   57.2496   29.7263   42.3190 H   0  0  0  0  0  0  0  0  0  0  0  0
   56.9563   32.9677   43.2918 H   0  0  0  0  0  0  0  0  0  0  0  0
   57.3162   35.1426   44.4348 H   0  0  0  0  0  0  0  0  0  0  0  0
   58.4842   35.1977   46.6101 H   0  0  0  0  0  0  0  0  0  0  0  0
   59.7030   34.1112   49.6485 H   0  0  0  0  0  0  0  0  0  0  0  0
   60.7818   34.5986   48.2974 H   0  0  0  0  0  0  0  0  0  0  0  0
   59.0580   35.1039   48.2974 H   0  0  0  0  0  0  0  0  0  0  0  0
  1  2  1  0
  2  3  1  0
  3  4  1  0
  4  5  1  0
  5  6  2  0
  5  7  1  0
  7  8  1  0
  8  9  1  0
  9 10  1  0
 10 11  1  0
 11 12  1  0
 12 13  2  0
 13 14  1  0
 14 15  2  0
 15 16  1  0
 16 17  2  0
 17 18  1  0
 18 19  2  0
 19 20  1  0
 19 21  1  0
 21 22  2  0
 22 23  1  0
 23 24  2  0
 24 25  1  0
 25 26  1  0
 26 27  1  0
 25 28  2  0
 28 12  1  0
 18 13  1  0
 28 21  1  0
  1 29  1  0
  1 30  1  0
  1 31  1  0
  2 32  1  0
  2 33  1  0
  4 34  1  0
  7 35  1  0
  7 36  1  0
  8 37  1  0
  9 38  1  0
  9 39  1  0
 10 40  1  0
 10 41  1  0
 11 42  1  0
 14 43  1  0
 15 44  1  0
 16 45  1  0
 17 46  1  0
 20 47  1  0
 20 48  1  0
 20 49  1  0
 22 50  1  0
 23 51  1  0
 24 52  1  0
 27 53  1  0
 27 54  1  0
 27 55  1  0
M  CHG  1  19   1
M  END
>  <smiles>  (12) 
CCONC(=O)CNCCNc1c2ccccc2[n+](C)c2cccc(OC)c12

>  <score_type>  (12) 
oracle

>  <origin>  (12) 
adg

>  <m_score__min__energy>  (12) 
-6.3499999999999996

>  <m_primary>  (12) 
energy

$$$$
13:0
     RDKit          3D

 47 49  0  0  0  0  0  0  0  0999 V2000
   59.4280   34.9280   45.8550 C   0  0  0  0  0  0  0  0  0  0  0  0
   58.5280   34.5940   47.0620 C   0  0  0  0  0  0  0  0  0  0  0  0
   57.6010   33.5630   46.7210 N   0  0  0  0  0  0  0  0  0  0  0  0
   57.5180   33.4200   45.2920 C   0  0  0  0  0  0  0  0  0  0  0  0
   57.3830   31.9750   44.9400 C   0  0  0  0  0  0  0  0  0  0  0  0
   57.6920   31.1280   46.0050 O   0  0  0  0  0  0  0  0  0  0  0  0
   58.5070   30.0750   45.6810 C   0  0  0  0  0  0  0  0  0  0  0  0
   59.8250   30.3310   46.4260 C   0  0  0  0  0  0  0  0  0  0  0  0
   59.8030   31.7230   46.8120 N   0  0  0  0  0  0  0  0  0  0  0  0
   60.3350   32.1780   48.0520 C   0  0  0  0  0  0  0  0  0  0  0  0
   61.6430   32.6040   48.2000 C   0  0  0  0  0  0  0  0  0  0  0  0
   62.4820   32.5970   47.1130 C   0  0  0  0  0  0  0  0  0  0  0  0
   63.7790   33.0340   47.3230 C   0  0  0  0  0  0  0  0  0  0  0  0
   64.2110   33.4610   48.5740 C   0  0  0  0  0  0  0  0  0  0  0  0
   63.3080   33.4430   49.6320 C   0  0  0  0  0  0  0  0  0  0  0  0
   62.0260   33.0170   49.4540 C   0  0  0  0  0  0  0  0  0  0  0  0
   61.1860   33.0190   50.5180 N   0  0  0  0  0  0  0  0  0  0  0  0
   61.6480   33.4650   51.8150 C   0  0  0  0  0  0  0  0  0  0  0  0
   59.9120   32.6040   50.3740 C   0  0  0  0  0  0  0  0  0  0  0  0
   58.8240   32.4790   51.2200 C   0  0  0  0  0  0  0  0  0  0  0  0
   57.7710   31.9860   50.4690 C   0  0  0  0  0  0  0  0  0  0  0  0
   58.1920   31.8200   49.2430 O   0  0  0  0  0  0  0  0  0  0  0  0
   59.4620   32.1740   49.1340 C   0  0  0  0  0  0  0  0  0  0  0  0
   60.4029   35.2898   46.2136 H   0  0  0  0  0  0  0  0  0  0  0  0
   59.5740   34.0242   45.2452 H   0  0  0  0  0  0  0  0  0  0  0  0
   58.9490   35.7082   45.2452 H   0  0  0  0  0  0  0  0  0  0  0  0
   59.1556   34.2548   47.8993 H   0  0  0  0  0  0  0  0  0  0  0  0
   57.9684   35.4960   47.3505 H   0  0  0  0  0  0  0  0  0  0  0  0
   57.8390   32.6880   47.2200 H   0  0  0  0  0  0  0  0  0  0  0  0
   56.6419   33.9710   44.9192 H   0  0  0  0  0  0  0  0  0  0  0  0
   58.4311   33.8245   44.8308 H   0  0  0  0  0  0  0  0  0  0  0  0
   56.3452   31.7845   44.6290 H   0  0  0  0  0  0  0  0  0  0  0  0
   58.0969   31.7632   44.1304 H   0  0  0  0  0  0  0  0  0  0  0  0
   58.0579   29.1261   46.0096 H   0  0  0  0  0  0  0  0  0  0  0  0
   58.6610   29.9978   44.5946 H   0  0  0  0  0  0  0  0  0  0  0  0
   59.8911   29.6888   47.3166 H   0  0  0  0  0  0  0  0  0  0  0  0
   60.6953   30.1031   45.7930 H   0  0  0  0  0  0  0  0  0  0  0  0
   59.3900   32.4860   46.2000 H   0  0  0  0  0  0  0  0  0  0  0  0
   62.1402   32.2604   46.1231 H   0  0  0  0  0  0  0  0  0  0  0  0
   64.4850   33.0436   46.4795 H   0  0  0  0  0  0  0  0  0  0  0  0
   65.2448   33.8057   48.7237 H   0  0  0  0  0  0  0  0  0  0  0  0
   63.6339   33.7779   50.6278 H   0  0  0  0  0  0  0  0  0  0  0  0
   61.0964   32.9325   52.6038 H   0  0  0  0  0  0  0  0  0  0  0  0
   62.7232   33.2546   51.9135 H   0  0  0  0  0  0  0  0  0  0  0  0
   61.4756   34.5469   51.9135 H   0  0  0  0  0  0  0  0  0  0  0  0
   58.8004   32.7259   52.2917 H   0  0  0  0  0  0  0  0  0  0  0  0
   56.7576   31.7716   50.8392 H   0  0  0  0  0  0  0  0  0  0  0  0
  1  2  1  0
  2  3  1  0
  3  4  1  0
  4  5  1  0
  5  6  1  0
  6  7  1  0
  7  8  1  0
  8  9  1  0
  9 10  1  0
 10 11  2  0
 11 12  1  0
 12 13  2  0
 13 14  1  0
 14 15  2  0
 15 16  1  0
 16 17  2  0
 17 18  1  0
 17 19  1  0
 19 20  1  0
 20 21  2  0
 21 22  1  0
 22 23  1  0
 23 10  1  0
 16 11  1  0
 23 19  2  0
  1 24  1  0
  1 25  1  0
  1 26  1  0
  2 27  1  0
  2 28  1  0
  3 29  1  0
  4 30  1  0
  4 31  1  0
  5 32  1  0
  5 33  1  0
  7 34  1  0
  7 35  1  0
  8 36  1  0
  8 37  1  0
  9 38  1  0
 12 39  1  0
 13 40  1  0
 14 41  1  0
 15 42  1  0
 18 43  1  0
 18 44  1  0
 18 45  1  0
 20 46  1  0
 21 47  1  0
M  CHG  1  17   1
M  END
>  <smiles>  (13) 
CCNCCOCCNc1c2ccccc2[n+](C)c2ccoc12

>  <score_type>  (13) 
oracle

>  <origin>  (13) 
adg

>  <m_score__min__energy>  (13) 
-5.5899999999999999

>  <m_primary>  (13) 
energy

$$$$
14:0
     RDKit          3D

 43 46  0  0  0  0  0  0  0  0999 V2000
   59.8540   29.3190   46.6440 C   0  0  0  0  0  0  0  0  0  0  0  0
   58.9380   30.1280   45.8290 N   0  0  0  0  0  0  0  0  0  0  0  0
   58.6690   31.4160   46.0100 C   0  0  0  0  0  0  0  0  0  0  0  0
   57.7660   31.7720   45.0300 C   0  0  0  0  0  0  0  0  0  0  0  0
   57.4940   30.6700   44.2520 C   0  0  0  0  0  0  0  0  0  0  0  0
   56.6760   30.4360   43.1430 C   0  0  0  0  0  0  0  0  0  0  0  0
   56.6400   29.1600   42.5900 C   0  0  0  0  0  0  0  0  0  0  0  0
   57.4040   28.1470   43.1350 C   0  0  0  0  0  0  0  0  0  0  0  0
   58.2200   28.3650   44.2350 C   0  0  0  0  0  0  0  0  0  0  0  0
   58.2490   29.6450   44.7820 C   0  0  0  0  0  0  0  0  0  0  0  0
   57.2250   33.1490   44.9070 C   0  0  0  0  0  0  0  0  0  0  0  0
   57.4740   33.9850   46.1250 C   0  0  0  0  0  0  0  0  0  0  0  0
   58.6960   33.7080   46.8140 N   0  0  0  0  0  0  0  0  0  0  0  0
   59.4930   34.7690   47.3260 C   0  0  0  0  0  0  0  0  0  0  0  0
   59.6330   35.8760   46.7420 O   0  0  0  0  0  0  0  0  0  0  0  0
   60.2180   34.5870   48.6290 C   0  0  0  0  0  0  0  0  0  0  0  0
   61.5750   34.0800   48.4010 C   0  0  0  0  0  0  0  0  0  0  0  0
   61.9670   33.8610   47.0880 C   0  0  0  0  0  0  0  0  0  0  0  0
   63.2060   33.3900   46.7590 C   0  0  0  0  0  0  0  0  0  0  0  0
   64.0980   33.1240   47.7810 C   0  0  0  0  0  0  0  0  0  0  0  0
   63.7550   33.3260   49.0980 C   0  0  0  0  0  0  0  0  0  0  0  0
   62.4890   33.8040   49.3960 C   0  0  0  0  0  0  0  0  0  0  0  0
   59.1870   32.3600   47.0290 C   0  0  0  0  0  0  0  0  0  0  0  0
   59.6514   29.4980   47.7103 H   0  0  0  0  0  0  0  0  0  0  0  0
   59.7037   28.2534   46.4160 H   0  0  0  0  0  0  0  0  0  0  0  0
   60.8928   29.5998   46.4160 H   0  0  0  0  0  0  0  0  0  0  0  0
   56.0703   31.2480   42.7143 H   0  0  0  0  0  0  0  0  0  0  0  0
   56.0019   28.9576   41.7172 H   0  0  0  0  0  0  0  0  0  0  0  0
   57.3644   27.1435   42.6861 H   0  0  0  0  0  0  0  0  0  0  0  0
   58.8255   27.5519   44.6620 H   0  0  0  0  0  0  0  0  0  0  0  0
   57.7005   33.6369   44.0434 H   0  0  0  0  0  0  0  0  0  0  0  0
   56.1354   33.0652   44.7817 H   0  0  0  0  0  0  0  0  0  0  0  0
   57.4893   35.0406   45.8160 H   0  0  0  0  0  0  0  0  0  0  0  0
   56.6647   33.7454   46.8304 H   0  0  0  0  0  0  0  0  0  0  0  0
   60.2767   35.5552   49.1478 H   0  0  0  0  0  0  0  0  0  0  0  0
   59.6667   33.8585   49.2416 H   0  0  0  0  0  0  0  0  0  0  0  0
   61.2516   34.0752   46.2803 H   0  0  0  0  0  0  0  0  0  0  0  0
   63.4868   33.2266   45.7081 H   0  0  0  0  0  0  0  0  0  0  0  0
   65.1008   32.7437   47.5367 H   0  0  0  0  0  0  0  0  0  0  0  0
   64.4746   33.1114   49.9019 H   0  0  0  0  0  0  0  0  0  0  0  0
   62.2075   33.9665   50.4469 H   0  0  0  0  0  0  0  0  0  0  0  0
   60.2859   32.3693   46.9797 H   0  0  0  0  0  0  0  0  0  0  0  0
   58.8382   32.0226   48.0162 H   0  0  0  0  0  0  0  0  0  0  0  0
  1  2  1  0
  2  3  1  0
  3  4  2  0
  4  5  1  0
  5  6  2  0
  6  7  1  0
  7  8  2  0
  8  9  1  0
  9 10  2  0
  4 11  1  0
 11 12  1  0
 12 13  1  0
 13 14  1  0
 14 15  2  0
 14 16  1  0
 16 17  1  0
 17 18  2  0
 18 19  1  0
 19 20  2  0
 20 21  1  0
 21 22  2  0
 13 23  1  0
 10  2  1  0
 22 17  1  0
 23  3  1  0
 10  5  1  0
  1 24  1  0
  1 25  1  0
  1 26  1  0
  6 27  1  0
  7 28  1  0
  8 29  1  0
  9 30  1  0
 11 31  1  0
 11 32  1  0
 12 33  1  0
 12 34  1  0
 16 35  1  0
 16 36  1  0
 18 37  1  0
 19 38  1  0
 20 39  1  0
 21 40  1  0
 22 41  1  0
 23 42  1  0
 23 43  1  0
M  END
>  <smiles>  (14) 
Cn1c2c(c3ccccc31)CCN(C(=O)Cc1ccccc1)C2

>  <score_type>  (14) 
oracle

>  <origin>  (14) 
adg

>  <m_score__min__energy>  (14) 
-8.3900000000000006

>  <m_primary>  (14) 
energy

$$$$
15:0
     RDKit          3D

 41 43  0  0  1  0  0  0  0  0999 V2000
   57.0410   31.6110   41.8020 C   0  0  0  0  0  0  0  0  0  0  0  0
   56.6230   30.5120   42.7310 C   0  0  0  0  0  0  0  0  0  0  0  0
   57.3830   30.4900   44.0070 C   0  0  0  0  0  0  0  0  0  0  0  0
   56.8510   30.4780   45.2400 N   0  0  0  0  0  0  0  0  0  0  0  0
   57.8240   30.4600   46.0940 O   0  0  0  0  0  0  0  0  0  0  0  0
   58.9940   30.4580   45.5030 C   0  0  0  0  0  0  0  0  0  0  0  0
   60.3260   30.4390   46.1920 C   0  0  0  0  0  0  0  0  0  0  0  0
   60.1510   31.1410   47.4240 N   0  0  0  0  0  0  0  0  0  0  0  0
   61.0220   30.5960   48.4450 C   0  0  0  0  0  0  0  0  0  0  0  0
   61.4060   31.7550   49.3460 C   0  0  0  0  0  0  0  0  0  0  0  0
   60.4330   32.8330   48.8890 C   0  0  2  0  0  0  0  0  0  0  0  0
   59.2620   32.6050   49.5310 O   0  0  0  0  0  0  0  0  0  0  0  0
   58.1400   32.3590   48.8050 C   0  0  0  0  0  0  0  0  0  0  0  0
   58.0550   33.1260   47.5210 C   0  0  0  0  0  0  0  0  0  0  0  0
   57.0090   33.5720   47.0450 O   0  0  0  0  0  0  0  0  0  0  0  0
   59.3180   33.3230   46.8490 N   0  0  0  0  0  0  0  0  0  0  0  0
   59.4470   34.2180   45.7380 C   0  0  0  0  0  0  0  0  0  0  0  0
   58.9010   33.6090   44.4500 C   0  0  0  0  0  0  0  0  0  0  0  0
   57.5590   33.2140   44.6340 O   0  0  0  0  0  0  0  0  0  0  0  0
   60.4280   32.5420   47.3930 C   0  0  2  0  0  0  0  0  0  0  0  0
   58.7360   30.4770   44.1820 N   0  0  0  0  0  0  0  0  0  0  0  0
   57.3718   32.4808   42.3884 H   0  0  0  0  0  0  0  0  0  0  0  0
   57.8685   31.2602   41.1678 H   0  0  0  0  0  0  0  0  0  0  0  0
   56.1895   31.8987   41.1678 H   0  0  0  0  0  0  0  0  0  0  0  0
   55.5558   30.6410   42.9642 H   0  0  0  0  0  0  0  0  0  0  0  0
   56.8274   29.5608   42.2177 H   0  0  0  0  0  0  0  0  0  0  0  0
   60.6398   29.4026   46.3856 H   0  0  0  0  0  0  0  0  0  0  0  0
   61.1035   30.9086   45.5715 H   0  0  0  0  0  0  0  0  0  0  0  0
   60.4933   29.8239   49.0232 H   0  0  0  0  0  0  0  0  0  0  0  0
   61.9114   30.1258   48.0002 H   0  0  0  0  0  0  0  0  0  0  0  0
   61.2585   31.5047   50.4069 H   0  0  0  0  0  0  0  0  0  0  0  0
   62.4640   32.0470   49.2733 H   0  0  0  0  0  0  0  0  0  0  0  0
   60.6592   33.8897   49.0945 H   0  0  0  0  0  0  0  0  0  0  0  0
   58.1122   31.2854   48.5672 H   0  0  0  0  0  0  0  0  0  0  0  0
   57.2888   32.6829   49.4219 H   0  0  0  0  0  0  0  0  0  0  0  0
   58.8908   35.1410   45.9585 H   0  0  0  0  0  0  0  0  0  0  0  0
   60.5171   34.4254   45.5900 H   0  0  0  0  0  0  0  0  0  0  0  0
   58.9538   34.3550   43.6434 H   0  0  0  0  0  0  0  0  0  0  0  0
   59.5034   32.7280   44.1835 H   0  0  0  0  0  0  0  0  0  0  0  0
   57.4940   32.4310   45.2640 H   0  0  0  0  0  0  0  0  0  0  0  0
   61.3219   32.7827   46.7989 H   0  0  0  0  0  0  0  0  0  0  0  0
  1  2  1  0
  2  3  1  0
  3  4  2  0
  4  5  1  0
  5  6  1  0
  6  7  1  0
  7  8  1  0
  8  9  1  0
  9 10  1  0
 10 11  1  0
 11 12  1  0
 12 13  1  0
 13 14  1  0
 14 15  2  0
 14 16  1  0
 16 17  1  0
 17 18  1  0
 18 19  1  0
 16 20  1  0
  6 21  2  0
 21  3  1  0
 20  8  1  0
 20 11  1  0
  1 22  1  0
  1 23  1  0
  1 24  1  0
  2 25  1  0
  2 26  1  0
  7 27  1  0
  7 28  1  0
  9 29  1  0
  9 30  1  0
 10 31  1  0
 10 32  1  0
 11 33  1  6
 13 34  1  0
 13 35  1  0
 17 36  1  0
 17 37  1  0
 18 38  1  0
 18 39  1  0
 19 40  1  0
 20 41  1  6
M  END
>  <smiles>  (15) 
CCc1noc(CN2CCC3OCC(=O)N(CCO)C32)n1

>  <score_type>  (15) 
oracle

>  <origin>  (15) 
adg

>  <m_score__min__energy>  (15) 
-7.8200000000000003

>  <m_primary>  (15) 
energy

$$$$
16:0
     RDKit          3D

 75 78  0  0  0  0  0  0  0  0999 V2000
   64.9270   32.3380   49.7470 C   0  0  0  0  0  0  0  0  0  0  0  0
   63.6170   33.0640   49.8430 C   0  0  0  0  0  0  0  0  0  0  0  0
   62.8960   32.9840   48.5320 N   0  0  0  0  0  0  0  0  0  0  0  0
   63.7630   33.7320   47.6420 C   0  0  0  0  0  0  0  0  0  0  0  0
   63.2640   33.8860   46.2390 C   0  0  0  0  0  0  0  0  0  0  0  0
   62.8880   31.5780   48.2560 C   0  0  0  0  0  0  0  0  0  0  0  0
   61.9420   31.0110   47.3100 C   0  0  0  0  0  0  0  0  0  0  0  0
   60.5430   30.9850   47.5780 N   0  0  0  0  0  0  0  0  0  0  0  0
   59.6660   31.0930   46.4480 C   0  0  0  0  0  0  0  0  0  0  0  0
   59.3930   29.8620   45.8310 C   0  0  0  0  0  0  0  0  0  0  0  0
   60.0190   28.6960   46.2970 C   0  0  0  0  0  0  0  0  0  0  0  0
   59.7880   27.4630   45.7220 C   0  0  0  0  0  0  0  0  0  0  0  0
   58.9250   27.3990   44.6750 C   0  0  0  0  0  0  0  0  0  0  0  0
   58.3030   28.5310   44.2050 C   0  0  0  0  0  0  0  0  0  0  0  0
   58.5230   29.7680   44.7680 C   0  0  0  0  0  0  0  0  0  0  0  0
   57.9370   30.8910   44.3280 N   0  0  0  0  0  0  0  0  0  0  0  0
   57.0060   30.8800   43.2340 C   0  0  0  0  0  0  0  0  0  0  0  0
   58.1920   32.0930   44.9120 C   0  0  0  0  0  0  0  0  0  0  0  0
   57.5400   33.1960   44.4050 C   0  0  0  0  0  0  0  0  0  0  0  0
   57.7670   34.4100   44.9760 C   0  0  0  0  0  0  0  0  0  0  0  0
   58.6470   34.5190   46.0510 C   0  0  0  0  0  0  0  0  0  0  0  0
   59.3170   33.4340   46.5800 C   0  0  0  0  0  0  0  0  0  0  0  0
   60.2220   33.6600   47.6320 N   0  0  0  0  0  0  0  0  0  0  0  0
   59.8280   34.4720   48.8080 C   0  0  0  0  0  0  0  0  0  0  0  0
   60.2400   33.8710   50.1010 C   0  0  0  0  0  0  0  0  0  0  0  0
   59.1220   33.0590   50.7450 C   0  0  0  0  0  0  0  0  0  0  0  0
   59.5520   31.6580   50.6390 N   0  0  0  0  0  0  0  0  0  0  0  0
   58.6400   30.7350   50.2720 C   0  0  0  0  0  0  0  0  0  0  0  0
   59.0450   29.4220   50.1750 C   0  0  0  0  0  0  0  0  0  0  0  0
   60.3460   29.0880   50.4500 C   0  0  0  0  0  0  0  0  0  0  0  0
   60.7650   27.7330   50.3590 N   0  0  0  0  0  0  0  0  0  0  0  0
   60.6740   27.0850   49.0500 C   0  0  0  0  0  0  0  0  0  0  0  0
   61.2360   30.0710   50.8220 C   0  0  0  0  0  0  0  0  0  0  0  0
   60.8280   31.3750   50.9170 C   0  0  0  0  0  0  0  0  0  0  0  0
   59.0700   32.2150   45.9890 C   0  0  0  0  0  0  0  0  0  0  0  0
   65.3051   32.1285   50.7585 H   0  0  0  0  0  0  0  0  0  0  0  0
   64.7827   31.3911   49.2061 H   0  0  0  0  0  0  0  0  0  0  0  0
   65.6534   32.9623   49.2061 H   0  0  0  0  0  0  0  0  0  0  0  0
   63.0001   32.6022   50.6280 H   0  0  0  0  0  0  0  0  0  0  0  0
   63.8035   34.1192   50.0915 H   0  0  0  0  0  0  0  0  0  0  0  0
   63.8985   34.7378   48.0663 H   0  0  0  0  0  0  0  0  0  0  0  0
   64.6956   33.1532   47.5702 H   0  0  0  0  0  0  0  0  0  0  0  0
   62.2131   34.2103   46.2571 H   0  0  0  0  0  0  0  0  0  0  0  0
   63.8710   34.6386   45.7145 H   0  0  0  0  0  0  0  0  0  0  0  0
   63.3413   32.9222   45.7145 H   0  0  0  0  0  0  0  0  0  0  0  0
   63.8923   31.3254   47.8850 H   0  0  0  0  0  0  0  0  0  0  0  0
   62.5660   31.1430   49.2137 H   0  0  0  0  0  0  0  0  0  0  0  0
   62.0675   31.5722   46.3723 H   0  0  0  0  0  0  0  0  0  0  0  0
   62.2046   29.9429   47.3261 H   0  0  0  0  0  0  0  0  0  0  0  0
   60.0690   30.9350   48.5020 H   0  0  0  0  0  0  0  0  0  0  0  0
   60.7147   28.7668   47.1461 H   0  0  0  0  0  0  0  0  0  0  0  0
   60.2878   26.5590   46.1002 H   0  0  0  0  0  0  0  0  0  0  0  0
   58.7214   26.4293   44.1974 H   0  0  0  0  0  0  0  0  0  0  0  0
   57.6099   28.4462   43.3551 H   0  0  0  0  0  0  0  0  0  0  0  0
   55.9786   30.8679   43.6269 H   0  0  0  0  0  0  0  0  0  0  0  0
   57.1526   31.7799   42.6187 H   0  0  0  0  0  0  0  0  0  0  0  0
   57.1738   29.9838   42.6187 H   0  0  0  0  0  0  0  0  0  0  0  0
   56.8491   33.0969   43.5548 H   0  0  0  0  0  0  0  0  0  0  0  0
   57.2564   35.3044   44.5895 H   0  0  0  0  0  0  0  0  0  0  0  0
   58.8148   35.5106   46.4965 H   0  0  0  0  0  0  0  0  0  0  0  0
   61.1970   33.3670   47.7250 H   0  0  0  0  0  0  0  0  0  0  0  0
   60.2949   35.4641   48.7196 H   0  0  0  0  0  0  0  0  0  0  0  0
   58.7295   34.5297   48.8108 H   0  0  0  0  0  0  0  0  0  0  0  0
   61.1011   33.2096   49.9250 H   0  0  0  0  0  0  0  0  0  0  0  0
   60.4969   34.6920   50.7865 H   0  0  0  0  0  0  0  0  0  0  0  0
   58.9961   33.3449   51.7997 H   0  0  0  0  0  0  0  0  0  0  0  0
   58.1537   33.2299   50.2519 H   0  0  0  0  0  0  0  0  0  0  0  0
   57.6006   31.0229   50.0559 H   0  0  0  0  0  0  0  0  0  0  0  0
   58.3267   28.6437   49.8778 H   0  0  0  0  0  0  0  0  0  0  0  0
   61.1260   27.2180   51.1930 H   0  0  0  0  0  0  0  0  0  0  0  0
   60.5222   26.0040   49.1858 H   0  0  0  0  0  0  0  0  0  0  0  0
   59.8263   27.5069   48.4902 H   0  0  0  0  0  0  0  0  0  0  0  0
   61.6051   27.2571   48.4902 H   0  0  0  0  0  0  0  0  0  0  0  0
   62.2806   29.8073   51.0441 H   0  0  0  0  0  0  0  0  0  0  0  0
   61.5311   32.1672   51.2139 H   0  0  0  0  0  0  0  0  0  0  0  0
  1  2  1  0
  2  3  1  0
  3  4  1  0
  4  5  1  0
  3  6  1  0
  6  7  1  0
  7  8  1  0
  8  9  1  0
  9 10  2  0
 10 11  1  0
 11 12  2  0
 12 13  1  0
 13 14  2  0
 14 15  1  0
 15 16  2  0
 16 17  1  0
 16 18  1  0
 18 19  2  0
 19 20  1  0
 20 21  2  0
 21 22  1  0
 22 23  1  0
 23 24  1  0
 24 25  1  0
 25 26  1  0
 26 27  1  0
 27 28  2  0
 28 29  1  0
 29 30  2  0
 30 31  1  0
 31 32  1  0
 30 33  1  0
 33 34  2  0
 22 35  2  0
 35  9  1  0
 15 10  1  0
 35 18  1  0
 34 27  1  0
  1 36  1  0
  1 37  1  0
  1 38  1  0
  2 39  1  0
  2 40  1  0
  4 41  1  0
  4 42  1  0
  5 43  1  0
  5 44  1  0
  5 45  1  0
  6 46  1  0
  6 47  1  0
  7 48  1  0
  7 49  1  0
  8 50  1  0
 11 51  1  0
 12 52  1  0
 13 53  1  0
 14 54  1  0
 17 55  1  0
 17 56  1  0
 17 57  1  0
 19 58  1  0
 20 59  1  0
 21 60  1  0
 23 61  1  0
 24 62  1  0
 24 63  1  0
 25 64  1  0
 25 65  1  0
 26 66  1  0
 26 67  1  0
 28 68  1  0
 29 69  1  0
 31 70  1  0
 32 71  1  0
 32 72  1  0
 32 73  1  0
 33 74  1  0
 34 75  1  0
M  CHG  2  16   1  27   1
M  END
>  <smiles>  (16) 
CCN(CC)CCNc1c2ccccc2[n+](C)c2cccc(NCCC[n+]3ccc(NC)cc3)c12

>  <score_type>  (16) 
oracle

>  <origin>  (16) 
adg

>  <m_score__min__energy>  (16) 
-5.3700000000000001

>  <m_primary>  (16) 
energy

$$$$
17:0
     RDKit          3D

 57 61  0  0  1  0  0  0  0  0999 V2000
   59.4370   29.7290   44.4760 C   0  0  0  0  0  0  0  0  0  0  0  0
   58.0350   29.9860   44.5230 N   0  0  0  0  0  0  0  0  0  0  0  0
   57.3780   31.1100   44.2220 C   0  0  0  0  0  0  0  0  0  0  0  0
   57.8620   32.6850   43.6290 S   0  0  0  0  0  0  0  0  0  0  0  0
   58.8900   33.6820   44.6480 C   0  0  0  0  0  0  0  0  0  0  0  0
   58.2220   34.5460   45.6640 C   0  0  0  0  0  0  0  0  0  0  0  0
   59.2190   35.2470   46.5690 C   0  0  0  0  0  0  0  0  0  0  0  0
   59.2600   34.6120   47.8670 N   0  0  0  0  0  0  0  0  0  0  0  0
   58.7940   33.2140   47.7740 C   0  0  0  0  0  0  0  0  0  0  0  0
   59.9830   32.5220   48.3270 C   0  0  1  0  0  0  0  0  0  0  0  0
   60.0610   31.1010   48.4420 C   0  0  0  0  0  0  0  0  0  0  0  0
   59.6760   30.3680   49.5660 C   0  0  0  0  0  0  0  0  0  0  0  0
   59.7860   28.9780   49.5890 C   0  0  0  0  0  0  0  0  0  0  0  0
   60.2720   28.2830   48.5200 C   0  0  0  0  0  0  0  0  0  0  0  0
   60.4130   26.8040   48.4800 C   0  0  0  0  0  0  0  0  0  0  0  0
   61.0770   26.3260   49.5880 F   0  0  0  0  0  0  0  0  0  0  0  0
   61.1290   26.4610   47.3590 F   0  0  0  0  0  0  0  0  0  0  0  0
   59.1540   26.2580   48.4660 F   0  0  0  0  0  0  0  0  0  0  0  0
   60.6550   28.9850   47.4060 C   0  0  0  0  0  0  0  0  0  0  0  0
   60.5540   30.3520   47.3670 C   0  0  0  0  0  0  0  0  0  0  0  0
   61.1350   33.2450   47.6280 C   0  0  0  0  0  0  0  0  0  0  0  0
   60.5630   34.4280   48.3900 C   0  0  2  0  0  0  0  0  0  0  0  0
   60.3320   33.4060   49.5060 C   0  0  0  0  0  0  0  0  0  0  0  0
   56.0460   30.8240   44.4540 N   0  0  0  0  0  0  0  0  0  0  0  0
   55.9520   29.5880   44.8690 N   0  0  0  0  0  0  0  0  0  0  0  0
   57.1450   29.0210   44.9330 C   0  0  0  0  0  0  0  0  0  0  0  0
   57.4900   27.6490   45.3480 C   0  0  0  0  0  0  0  0  0  0  0  0
   58.5880   26.9840   44.8420 C   0  0  0  0  0  0  0  0  0  0  0  0
   58.7930   25.6950   45.3260 C   0  0  0  0  0  0  0  0  0  0  0  0
   57.9530   25.1130   46.2540 C   0  0  0  0  0  0  0  0  0  0  0  0
   56.8580   25.7900   46.7520 C   0  0  0  0  0  0  0  0  0  0  0  0
   56.6400   27.0720   46.2810 C   0  0  0  0  0  0  0  0  0  0  0  0
   59.8311   29.6568   45.5004 H   0  0  0  0  0  0  0  0  0  0  0  0
   59.6187   28.7826   43.9457 H   0  0  0  0  0  0  0  0  0  0  0  0
   59.9426   30.5494   43.9457 H   0  0  0  0  0  0  0  0  0  0  0  0
   59.5732   33.0085   45.1861 H   0  0  0  0  0  0  0  0  0  0  0  0
   59.3731   34.3865   43.9549 H   0  0  0  0  0  0  0  0  0  0  0  0
   57.6222   35.3064   45.1424 H   0  0  0  0  0  0  0  0  0  0  0  0
   57.5923   33.9000   46.2935 H   0  0  0  0  0  0  0  0  0  0  0  0
   60.2182   35.1999   46.1115 H   0  0  0  0  0  0  0  0  0  0  0  0
   58.9083   36.2946   46.6957 H   0  0  0  0  0  0  0  0  0  0  0  0
   57.8963   33.0392   48.3853 H   0  0  0  0  0  0  0  0  0  0  0  0
   58.4884   32.8884   46.7687 H   0  0  0  0  0  0  0  0  0  0  0  0
   59.2799   30.8948   50.4467 H   0  0  0  0  0  0  0  0  0  0  0  0
   59.4738   28.4292   50.4897 H   0  0  0  0  0  0  0  0  0  0  0  0
   61.0483   28.4446   46.5324 H   0  0  0  0  0  0  0  0  0  0  0  0
   60.8725   30.8802   46.4562 H   0  0  0  0  0  0  0  0  0  0  0  0
   61.0708   33.3033   46.5314 H   0  0  0  0  0  0  0  0  0  0  0  0
   62.1875   32.9270   47.6618 H   0  0  0  0  0  0  0  0  0  0  0  0
   61.0739   35.3965   48.4944 H   0  0  0  0  0  0  0  0  0  0  0  0
   59.5075   33.6298   50.1989 H   0  0  0  0  0  0  0  0  0  0  0  0
   61.0668   33.1513   50.2839 H   0  0  0  0  0  0  0  0  0  0  0  0
   59.2596   27.4439   44.1021 H   0  0  0  0  0  0  0  0  0  0  0  0
   59.6546   25.1200   44.9560 H   0  0  0  0  0  0  0  0  0  0  0  0
   58.1601   24.0906   46.6032 H   0  0  0  0  0  0  0  0  0  0  0  0
   56.1872   25.3294   47.4921 H   0  0  0  0  0  0  0  0  0  0  0  0
   55.7774   27.6445   46.6526 H   0  0  0  0  0  0  0  0  0  0  0  0
  1  2  1  0
  2  3  1  0
  3  4  1  0
  4  5  1  0
  5  6  1  0
  6  7  1  0
  7  8  1  0
  8  9  1  0
  9 10  1  0
 10 11  1  1
 11 12  2  0
 12 13  1  0
 13 14  2  0
 14 15  1  0
 15 16  1  0
 15 17  1  0
 15 18  1  0
 14 19  1  0
 19 20  2  0
 10 21  1  0
 21 22  1  0
 22 23  1  0
  3 24  2  0
 24 25  1  0
 25 26  2  0
 26 27  1  0
 27 28  2  0
 28 29  1  0
 29 30  2  0
 30 31  1  0
 31 32  2  0
 26  2  1  0
 32 27  1  0
 22  8  1  0
 23 10  1  0
 20 11  1  0
  1 33  1  0
  1 34  1  0
  1 35  1  0
  5 36  1  0
  5 37  1  0
  6 38  1  0
  6 39  1  0
  7 40  1  0
  7 41  1  0
  9 42  1  0
  9 43  1  0
 12 44  1  0
 13 45  1  0
 19 46  1  0
 20 47  1  0
 21 48  1  0
 21 49  1  0
 22 50  1  1
 23 51  1  0
 23 52  1  0
 28 53  1  0
 29 54  1  0
 30 55  1  0
 31 56  1  0
 32 57  1  0
M  END
>  <smiles>  (17) 
Cn1c(SCCCN2CC3(c4ccc(C(F)(F)F)cc4)CC2C3)nnc1-c1ccccc1

>  <score_type>  (17) 
oracle

>  <origin>  (17) 
adg

>  <m_score__min__energy>  (17) 
-9.7200000000000006

>  <m_primary>  (17) 
energy

$$$$
18:0
     RDKit          3D

 45 46  0  0  1  0  0  0  0  0999 V2000
   56.2840   29.7060   42.8490 C   0  0  0  0  0  0  0  0  0  0  0  0
   57.1800   29.7780   44.0650 C   0  0  0  0  0  0  0  0  0  0  0  0
   56.6670   30.6120   45.0860 O   0  0  0  0  0  0  0  0  0  0  0  0
   56.7120   31.9900   44.8780 N   0  0  0  0  0  0  0  0  0  0  0  0
   57.5260   32.6710   45.5920 C   0  0  0  0  0  0  0  0  0  0  0  0
   58.1370   33.9600   45.1620 C   0  0  0  0  0  0  0  0  0  0  0  0
   58.8910   34.5040   46.3500 C   0  0  0  0  0  0  0  0  0  0  0  0
   59.9090   33.5990   46.7430 N   0  0  0  0  0  0  0  0  0  0  0  0
   59.7650   33.0200   48.0260 C   0  0  0  0  0  0  0  0  0  0  0  0
   60.6430   33.8200   48.9900 C   0  0  0  0  0  0  0  0  0  0  0  0
   62.0050   33.6700   48.6030 N   0  0  0  0  0  0  0  0  0  0  0  0
   63.0700   33.7380   49.5520 C   0  0  0  0  0  0  0  0  0  0  0  0
   63.0120   34.5230   50.6840 C   0  0  0  0  0  0  0  0  0  0  0  0
   64.0470   34.5870   51.6060 C   0  0  0  0  0  0  0  0  0  0  0  0
   65.1920   33.8440   51.4080 C   0  0  0  0  0  0  0  0  0  0  0  0
   65.2750   33.0430   50.2740 C   0  0  0  0  0  0  0  0  0  0  0  0
   66.5300   32.2650   50.1120 C   0  0  0  0  0  0  0  0  0  0  0  0
   64.2330   32.9950   49.3690 C   0  0  0  0  0  0  0  0  0  0  0  0
   62.3180   33.4460   47.2110 C   0  0  0  0  0  0  0  0  0  0  0  0
   61.2220   33.8440   46.2730 C   0  0  0  0  0  0  0  0  0  0  0  0
   55.2355   29.6217   43.1706 H   0  0  0  0  0  0  0  0  0  0  0  0
   56.4104   30.6172   42.2459 H   0  0  0  0  0  0  0  0  0  0  0  0
   56.5543   28.8267   42.2459 H   0  0  0  0  0  0  0  0  0  0  0  0
   57.3012   28.7628   44.4707 H   0  0  0  0  0  0  0  0  0  0  0  0
   58.1381   30.2100   43.7403 H   0  0  0  0  0  0  0  0  0  0  0  0
   57.7915   32.2806   46.5855 H   0  0  0  0  0  0  0  0  0  0  0  0
   58.8262   33.7904   44.3216 H   0  0  0  0  0  0  0  0  0  0  0  0
   57.3660   34.6690   44.8260 H   0  0  0  0  0  0  0  0  0  0  0  0
   59.3469   35.4680   46.0800 H   0  0  0  0  0  0  0  0  0  0  0  0
   58.1903   34.6398   47.1870 H   0  0  0  0  0  0  0  0  0  0  0  0
   58.7136   33.0702   48.3453 H   0  0  0  0  0  0  0  0  0  0  0  0
   60.0679   31.9626   48.0112 H   0  0  0  0  0  0  0  0  0  0  0  0
   60.3623   34.8828   48.9501 H   0  0  0  0  0  0  0  0  0  0  0  0
   60.5035   33.4503   50.0166 H   0  0  0  0  0  0  0  0  0  0  0  0
   62.1079   35.1233   50.8636 H   0  0  0  0  0  0  0  0  0  0  0  0
   63.9544   35.2297   52.4939 H   0  0  0  0  0  0  0  0  0  0  0  0
   66.0206   33.8840   52.1304 H   0  0  0  0  0  0  0  0  0  0  0  0
   66.9359   32.0134   51.1029 H   0  0  0  0  0  0  0  0  0  0  0  0
   66.3185   31.3394   49.5566 H   0  0  0  0  0  0  0  0  0  0  0  0
   67.2649   32.8661   49.5566 H   0  0  0  0  0  0  0  0  0  0  0  0
   64.3243   32.3530   48.4805 H   0  0  0  0  0  0  0  0  0  0  0  0
   63.2173   34.0276   46.9600 H   0  0  0  0  0  0  0  0  0  0  0  0
   62.4679   32.3634   47.0869 H   0  0  0  0  0  0  0  0  0  0  0  0
   61.3174   34.9219   46.0756 H   0  0  0  0  0  0  0  0  0  0  0  0
   61.3466   33.2208   45.3752 H   0  0  0  0  0  0  0  0  0  0  0  0
  1  2  1  0
  2  3  1  0
  3  4  1  0
  4  5  2  0
  5  6  1  0
  6  7  1  0
  7  8  1  0
  8  9  1  0
  9 10  1  0
 10 11  1  0
 11 12  1  0
 12 13  2  0
 13 14  1  0
 14 15  2  0
 15 16  1  0
 16 17  1  0
 16 18  2  0
 11 19  1  0
 19 20  1  0
 20  8  1  0
 18 12  1  0
  1 21  1  0
  1 22  1  0
  1 23  1  0
  2 24  1  0
  2 25  1  0
  5 26  1  0
  6 27  1  0
  6 28  1  0
  7 29  1  0
  7 30  1  0
  9 31  1  0
  9 32  1  0
 10 33  1  0
 10 34  1  0
 13 35  1  0
 14 36  1  0
 15 37  1  0
 17 38  1  0
 17 39  1  0
 17 40  1  0
 18 41  1  0
 19 42  1  0
 19 43  1  0
 20 44  1  0
 20 45  1  0
M  END
>  <smiles>  (18) 
CCON=CCCN1CCN(c2cccc(C)c2)CC1

>  <score_type>  (18) 
oracle

>  <origin>  (18) 
adg

>  <m_score__min__energy>  (18) 
-7.2300000000000004

>  <m_primary>  (18) 
energy

$$$$
19:0
     RDKit          3D

 64 67  0  0  0  0  0  0  0  0999 V2000
   58.9920   29.0090   44.8490 C   0  0  0  0  0  0  0  0  0  0  0  0
   59.2570   29.4300   46.2060 N   0  0  0  0  0  0  0  0  0  0  0  0
   59.0240   30.7310   46.5650 C   0  0  0  0  0  0  0  0  0  0  0  0
   59.2610   31.1440   47.8620 C   0  0  0  0  0  0  0  0  0  0  0  0
   59.7360   30.2880   48.8510 C   0  0  0  0  0  0  0  0  0  0  0  0
   59.9180   30.8080   50.1380 N   0  0  0  0  0  0  0  0  0  0  0  0
   58.8550   31.0490   51.1210 C   0  0  0  0  0  0  0  0  0  0  0  0
   59.1090   32.3420   51.8540 C   0  0  0  0  0  0  0  0  0  0  0  0
   60.0720   33.2150   51.3330 N   0  0  0  0  0  0  0  0  0  0  0  0
   61.2450   33.4280   52.1240 C   0  0  0  0  0  0  0  0  0  0  0  0
   62.4160   33.8130   51.2630 C   0  0  0  0  0  0  0  0  0  0  0  0
   62.9240   32.6900   50.4110 C   0  0  0  0  0  0  0  0  0  0  0  0
   62.0080   32.5290   49.2930 N   0  0  0  0  0  0  0  0  0  0  0  0
   62.5900   32.7550   47.9990 C   0  0  0  0  0  0  0  0  0  0  0  0
   64.0030   33.2300   48.1030 C   0  0  0  0  0  0  0  0  0  0  0  0
   62.4280   31.5290   47.1180 C   0  0  0  0  0  0  0  0  0  0  0  0
   61.7190   33.8350   47.3380 C   0  0  0  0  0  0  0  0  0  0  0  0
   59.9630   28.9870   48.4610 C   0  0  0  0  0  0  0  0  0  0  0  0
   60.4460   28.1270   49.4300 C   0  0  0  0  0  0  0  0  0  0  0  0
   60.6970   26.8320   49.1030 C   0  0  0  0  0  0  0  0  0  0  0  0
   60.4740   26.3890   47.8210 C   0  0  0  0  0  0  0  0  0  0  0  0
   59.9890   27.2700   46.8640 C   0  0  0  0  0  0  0  0  0  0  0  0
   59.7190   28.6030   47.1610 C   0  0  0  0  0  0  0  0  0  0  0  0
   58.9500   32.5740   47.9390 C   0  0  0  0  0  0  0  0  0  0  0  0
   59.0260   33.3450   48.9260 O   0  0  0  0  0  0  0  0  0  0  0  0
   58.5110   33.0160   46.6270 C   0  0  0  0  0  0  0  0  0  0  0  0
   58.1150   34.2640   46.1860 C   0  0  0  0  0  0  0  0  0  0  0  0
   57.7420   34.4440   44.8730 C   0  0  0  0  0  0  0  0  0  0  0  0
   57.7740   33.3640   44.0230 C   0  0  0  0  0  0  0  0  0  0  0  0
   58.1790   32.1160   44.4950 C   0  0  0  0  0  0  0  0  0  0  0  0
   58.5570   31.9050   45.8030 C   0  0  0  0  0  0  0  0  0  0  0  0
   58.4061   28.0781   44.8617 H   0  0  0  0  0  0  0  0  0  0  0  0
   58.4240   29.7927   44.3263 H   0  0  0  0  0  0  0  0  0  0  0  0
   59.9442   28.8358   44.3263 H   0  0  0  0  0  0  0  0  0  0  0  0
   60.9020   31.0490   50.4310 H   0  0  0  0  0  0  0  0  0  0  0  0
   57.8869   31.1092   50.6023 H   0  0  0  0  0  0  0  0  0  0  0  0
   58.8411   30.2216   51.8457 H   0  0  0  0  0  0  0  0  0  0  0  0
   58.1560   32.8902   51.8901 H   0  0  0  0  0  0  0  0  0  0  0  0
   59.5180   32.0306   52.8265 H   0  0  0  0  0  0  0  0  0  0  0  0
   60.2480   33.1460   50.3220 H   0  0  0  0  0  0  0  0  0  0  0  0
   61.0497   34.2343   52.8463 H   0  0  0  0  0  0  0  0  0  0  0  0
   61.4887   32.4913   52.6467 H   0  0  0  0  0  0  0  0  0  0  0  0
   62.1078   34.6383   50.6043 H   0  0  0  0  0  0  0  0  0  0  0  0
   63.2340   34.1030   51.9388 H   0  0  0  0  0  0  0  0  0  0  0  0
   63.9308   32.9294   50.0381 H   0  0  0  0  0  0  0  0  0  0  0  0
   62.9822   31.7604   50.9962 H   0  0  0  0  0  0  0  0  0  0  0  0
   61.1790   33.1710   49.3790 H   0  0  0  0  0  0  0  0  0  0  0  0
   64.2813   33.3236   49.1631 H   0  0  0  0  0  0  0  0  0  0  0  0
   64.6701   32.5067   47.6112 H   0  0  0  0  0  0  0  0  0  0  0  0
   64.0977   34.2094   47.6112 H   0  0  0  0  0  0  0  0  0  0  0  0
   62.3101   30.6364   47.7499 H   0  0  0  0  0  0  0  0  0  0  0  0
   61.5379   31.6489   46.4829 H   0  0  0  0  0  0  0  0  0  0  0  0
   63.3187   31.4136   46.4829 H   0  0  0  0  0  0  0  0  0  0  0  0
   61.2312   34.4399   48.1166 H   0  0  0  0  0  0  0  0  0  0  0  0
   62.3503   34.4829   46.7122 H   0  0  0  0  0  0  0  0  0  0  0  0
   60.9521   33.3552   46.7122 H   0  0  0  0  0  0  0  0  0  0  0  0
   60.6251   28.4869   50.4539 H   0  0  0  0  0  0  0  0  0  0  0  0
   61.0792   26.1373   49.8654 H   0  0  0  0  0  0  0  0  0  0  0  0
   60.6788   25.3416   47.5547 H   0  0  0  0  0  0  0  0  0  0  0  0
   59.8130   26.9043   45.8416 H   0  0  0  0  0  0  0  0  0  0  0  0
   58.0977   35.1140   46.8840 H   0  0  0  0  0  0  0  0  0  0  0  0
   57.4245   35.4330   44.5110 H   0  0  0  0  0  0  0  0  0  0  0  0
   57.4799   33.4844   42.9699 H   0  0  0  0  0  0  0  0  0  0  0  0
   58.1974   31.2669   43.7959 H   0  0  0  0  0  0  0  0  0  0  0  0
  1  2  1  0
  2  3  2  0
  3  4  1  0
  4  5  2  0
  5  6  1  0
  6  7  1  0
  7  8  1  0
  8  9  1  0
  9 10  1  0
 10 11  1  0
 11 12  1  0
 12 13  1  0
 13 14  1  0
 14 15  1  0
 14 16  1  0
 14 17  1  0
  5 18  1  0
 18 19  2  0
 19 20  1  0
 20 21  2  0
 21 22  1  0
 22 23  2  0
  4 24  1  0
 24 25  2  0
 24 26  1  0
 26 27  2  0
 27 28  1  0
 28 29  2  0
 29 30  1  0
 30 31  2  0
 23  2  1  0
 31 26  1  0
 31  3  1  0
 23 18  1  0
  1 32  1  0
  1 33  1  0
  1 34  1  0
  6 35  1  0
  7 36  1  0
  7 37  1  0
  8 38  1  0
  8 39  1  0
  9 40  1  0
 10 41  1  0
 10 42  1  0
 11 43  1  0
 11 44  1  0
 12 45  1  0
 12 46  1  0
 13 47  1  0
 15 48  1  0
 15 49  1  0
 15 50  1  0
 16 51  1  0
 16 52  1  0
 16 53  1  0
 17 54  1  0
 17 55  1  0
 17 56  1  0
 19 57  1  0
 20 58  1  0
 21 59  1  0
 22 60  1  0
 27 61  1  0
 28 62  1  0
 29 63  1  0
 30 64  1  0
M  CHG  1   2   1
M  END
>  <smiles>  (19) 
C[n+]1c2c(c(NCCNCCCNC(C)(C)C)c3ccccc31)C(=O)c1ccccc1-2

>  <score_type>  (19) 
oracle

>  <origin>  (19) 
adg

>  <m_score__min__energy>  (19) 
-7.0499999999999998

>  <m_primary>  (19) 
energy

$$$$
20:0
     RDKit          3D

 33 33  0  0  1  0  0  0  0  0999 V2000
   59.4640   29.1450   46.8780 C   0  0  0  0  0  0  0  0  0  0  0  0
   59.5500   30.6150   46.6530 C   0  0  0  0  0  0  0  0  0  0  0  0
   60.6920   31.2460   47.0900 C   0  0  0  0  0  0  0  0  0  0  0  0
   60.8730   32.6020   46.9320 C   0  0  0  0  0  0  0  0  0  0  0  0
   62.4820   33.4040   47.5610 Br  0  0  0  0  0  0  0  0  0  0  0  0
   59.8660   33.3040   46.3210 C   0  0  0  0  0  0  0  0  0  0  0  0
   58.7050   32.6640   45.8790 C   0  0  0  0  0  0  0  0  0  0  0  0
   57.3600   33.8220   45.1550 Br  0  0  0  0  0  0  0  0  0  0  0  0
   58.5070   31.3140   46.0230 C   0  0  0  0  0  0  0  0  0  0  0  0
   57.4310   30.5900   45.6390 O   0  0  0  0  0  0  0  0  0  0  0  0
   57.2170   29.9190   44.4590 C   0  0  0  0  0  0  0  0  0  0  0  0
   57.5560   28.5100   44.4180 C   0  0  0  0  0  0  0  0  0  0  0  0
   58.3540   27.8960   43.6990 O   0  0  0  0  0  0  0  0  0  0  0  0
   56.8490   27.6620   45.3780 N   0  0  0  0  0  0  0  0  0  0  0  0
   57.0850   26.2550   45.4490 C   0  0  1  0  0  0  0  0  0  0  0  0
   58.3520   25.9010   46.1950 C   0  0  0  0  0  0  0  0  0  0  0  0
   55.9280   25.4930   46.0610 C   0  0  0  0  0  0  0  0  0  0  0  0
   54.8590   26.3890   46.1950 O   0  0  0  0  0  0  0  0  0  0  0  0
   59.4520   28.9395   47.9586 H   0  0  0  0  0  0  0  0  0  0  0  0
   58.5416   28.7574   46.4208 H   0  0  0  0  0  0  0  0  0  0  0  0
   60.3349   28.6525   46.4208 H   0  0  0  0  0  0  0  0  0  0  0  0
   61.4797   30.6528   47.5775 H   0  0  0  0  0  0  0  0  0  0  0  0
   59.9738   34.3891   46.1763 H   0  0  0  0  0  0  0  0  0  0  0  0
   56.1471   30.0073   44.2194 H   0  0  0  0  0  0  0  0  0  0  0  0
   57.9016   30.3925   43.7399 H   0  0  0  0  0  0  0  0  0  0  0  0
   56.1530   28.0770   46.0350 H   0  0  0  0  0  0  0  0  0  0  0  0
   57.1982   25.9480   44.3988 H   0  0  0  0  0  0  0  0  0  0  0  0
   58.1665   25.9528   47.2780 H   0  0  0  0  0  0  0  0  0  0  0  0
   58.6639   24.8813   45.9248 H   0  0  0  0  0  0  0  0  0  0  0  0
   59.1472   26.6114   45.9248 H   0  0  0  0  0  0  0  0  0  0  0  0
   55.6389   24.6584   45.4053 H   0  0  0  0  0  0  0  0  0  0  0  0
   56.2112   25.0778   47.0395 H   0  0  0  0  0  0  0  0  0  0  0  0
   54.7550   26.7100   47.1230 H   0  0  0  0  0  0  0  0  0  0  0  0
  1  2  1  0
  2  3  2  0
  3  4  1  0
  4  5  1  0
  4  6  2  0
  6  7  1  0
  7  8  1  0
  7  9  2  0
  9 10  1  0
 10 11  1  0
 11 12  1  0
 12 13  2  0
 12 14  1  0
 14 15  1  0
 15 16  1  0
 15 17  1  0
 17 18  1  0
  9  2  1  0
  1 19  1  0
  1 20  1  0
  1 21  1  0
  3 22  1  0
  6 23  1  0
 11 24  1  0
 11 25  1  0
 14 26  1  0
 15 27  1  6
 16 28  1  0
 16 29  1  0
 16 30  1  0
 17 31  1  0
 17 32  1  0
 18 33  1  0
M  END
>  <smiles>  (20) 
Cc1cc(Br)cc(Br)c1OCC(=O)NC(C)CO

>  <score_type>  (20) 
oracle

>  <origin>  (20) 
adg

>  <m_score__min__energy>  (20) 
-7.6699999999999999

>  <m_primary>  (20) 
energy

$$$$
21:0
     RDKit          3D

 60 61  0  0  0  0  0  0  0  0999 V2000
   58.1570   30.0820   51.5980 C   0  0  0  0  0  0  0  0  0  0  0  0
   58.1680   31.0030   50.4420 C   0  0  0  0  0  0  0  0  0  0  0  0
   57.9580   32.3540   50.7150 N   0  0  0  0  0  0  0  0  0  0  0  0
   58.9550   33.2730   50.9770 C   0  0  0  0  0  0  0  0  0  0  0  0
   59.8320   33.5810   49.8650 C   0  0  0  0  0  0  0  0  0  0  0  0
   60.5860   33.8530   48.9390 C   0  0  0  0  0  0  0  0  0  0  0  0
   61.4850   34.1750   47.7970 C   0  0  0  0  0  0  0  0  0  0  0  0
   62.6930   33.2710   47.9420 C   0  0  0  0  0  0  0  0  0  0  0  0
   62.3000   31.8490   48.2380 C   0  0  0  0  0  0  0  0  0  0  0  0
   61.5220   31.2770   47.0890 C   0  0  0  0  0  0  0  0  0  0  0  0
   60.8300   30.1110   47.5980 N   0  0  0  0  0  0  0  0  0  0  0  0
   59.7710   29.6510   46.7530 C   0  0  0  0  0  0  0  0  0  0  0  0
   60.2980   29.0080   45.4870 C   0  0  0  0  0  0  0  0  0  0  0  0
   59.1870   28.9860   44.4780 C   0  0  0  0  0  0  0  0  0  0  0  0
   57.8880   28.8410   45.0500 N   0  0  0  0  0  0  0  0  0  0  0  0
   56.9980   29.9180   44.7530 C   0  0  0  0  0  0  0  0  0  0  0  0
   57.8310   30.9970   44.0910 C   0  0  0  0  0  0  0  0  0  0  0  0
   58.0360   32.1920   44.9160 C   0  0  0  0  0  0  0  0  0  0  0  0
   57.7870   32.2820   46.2670 C   0  0  0  0  0  0  0  0  0  0  0  0
   58.0050   33.4710   46.9670 C   0  0  0  0  0  0  0  0  0  0  0  0
   58.4860   34.5910   46.2830 C   0  0  0  0  0  0  0  0  0  0  0  0
   58.7430   34.5190   44.9180 C   0  0  0  0  0  0  0  0  0  0  0  0
   58.5160   33.3350   44.2640 C   0  0  0  0  0  0  0  0  0  0  0  0
   57.8020   28.2510   46.3250 C   0  0  0  0  0  0  0  0  0  0  0  0
   58.7550   28.7850   47.3780 C   0  0  0  0  0  0  0  0  0  0  0  0
   58.1640   30.6646   52.5310 H   0  0  0  0  0  0  0  0  0  0  0  0
   57.2513   29.4587   51.5616 H   0  0  0  0  0  0  0  0  0  0  0  0
   59.0475   29.4373   51.5616 H   0  0  0  0  0  0  0  0  0  0  0  0
   59.1483   30.9106   49.9517 H   0  0  0  0  0  0  0  0  0  0  0  0
   57.3128   30.6975   49.8212 H   0  0  0  0  0  0  0  0  0  0  0  0
   56.9930   32.7190   50.5430 H   0  0  0  0  0  0  0  0  0  0  0  0
   58.4758   34.2092   51.2993 H   0  0  0  0  0  0  0  0  0  0  0  0
   59.5939   32.8125   51.7449 H   0  0  0  0  0  0  0  0  0  0  0  0
   60.9744   33.9790   46.8426 H   0  0  0  0  0  0  0  0  0  0  0  0
   61.7753   35.2360   47.8021 H   0  0  0  0  0  0  0  0  0  0  0  0
   63.2677   33.2929   47.0043 H   0  0  0  0  0  0  0  0  0  0  0  0
   63.2946   33.6401   48.7857 H   0  0  0  0  0  0  0  0  0  0  0  0
   63.2067   31.2472   48.3984 H   0  0  0  0  0  0  0  0  0  0  0  0
   61.6726   31.8304   49.1413 H   0  0  0  0  0  0  0  0  0  0  0  0
   60.7973   32.0158   46.7160 H   0  0  0  0  0  0  0  0  0  0  0  0
   62.1861   31.0110   46.2534 H   0  0  0  0  0  0  0  0  0  0  0  0
   60.5570   30.2970   48.5610 H   0  0  0  0  0  0  0  0  0  0  0  0
   59.2341   30.5805   46.5124 H   0  0  0  0  0  0  0  0  0  0  0  0
   61.1446   29.5919   45.0968 H   0  0  0  0  0  0  0  0  0  0  0  0
   60.6444   27.9849   45.6949 H   0  0  0  0  0  0  0  0  0  0  0  0
   59.2133   29.9298   43.9136 H   0  0  0  0  0  0  0  0  0  0  0  0
   59.3540   28.1063   43.8390 H   0  0  0  0  0  0  0  0  0  0  0  0
   56.2051   29.5781   44.0705 H   0  0  0  0  0  0  0  0  0  0  0  0
   56.5125   30.2949   45.6653 H   0  0  0  0  0  0  0  0  0  0  0  0
   58.8164   30.5719   43.8493 H   0  0  0  0  0  0  0  0  0  0  0  0
   57.2751   31.3214   43.1989 H   0  0  0  0  0  0  0  0  0  0  0  0
   57.4091   31.4005   46.8057 H   0  0  0  0  0  0  0  0  0  0  0  0
   57.8001   33.5254   48.0464 H   0  0  0  0  0  0  0  0  0  0  0  0
   58.6617   35.5316   46.8255 H   0  0  0  0  0  0  0  0  0  0  0  0
   59.1216   35.3961   44.3726 H   0  0  0  0  0  0  0  0  0  0  0  0
   58.7190   33.2809   43.1843 H   0  0  0  0  0  0  0  0  0  0  0  0
   56.7767   28.3995   46.6946 H   0  0  0  0  0  0  0  0  0  0  0  0
   58.0844   27.1977   46.1807 H   0  0  0  0  0  0  0  0  0  0  0  0
   58.1880   29.3669   48.1195 H   0  0  0  0  0  0  0  0  0  0  0  0
   59.2577   27.9389   47.8692 H   0  0  0  0  0  0  0  0  0  0  0  0
  1  2  1  0
  2  3  1  0
  3  4  1  0
  4  5  1  0
  5  6  3  0
  6  7  1  0
  7  8  1  0
  8  9  1  0
  9 10  1  0
 10 11  1  0
 11 12  1  0
 12 13  1  0
 13 14  1  0
 14 15  1  0
 15 16  1  0
 16 17  1  0
 17 18  1  0
 18 19  2  0
 19 20  1  0
 20 21  2  0
 21 22  1  0
 22 23  2  0
 15 24  1  0
 24 25  1  0
 25 12  1  0
 23 18  1  0
  1 26  1  0
  1 27  1  0
  1 28  1  0
  2 29  1  0
  2 30  1  0
  3 31  1  0
  4 32  1  0
  4 33  1  0
  7 34  1  0
  7 35  1  0
  8 36  1  0
  8 37  1  0
  9 38  1  0
  9 39  1  0
 10 40  1  0
 10 41  1  0
 11 42  1  0
 12 43  1  0
 13 44  1  0
 13 45  1  0
 14 46  1  0
 14 47  1  0
 16 48  1  0
 16 49  1  0
 17 50  1  0
 17 51  1  0
 19 52  1  0
 20 53  1  0
 21 54  1  0
 22 55  1  0
 23 56  1  0
 24 57  1  0
 24 58  1  0
 25 59  1  0
 25 60  1  0
M  END
>  <smiles>  (21) 
CCNCC#CCCCCNC1CCN(CCc2ccccc2)CC1

>  <score_type>  (21) 
oracle

>  <origin>  (21) 
adg

>  <m_score__min__energy>  (21) 
-6.7400000000000002

>  <m_primary>  (21) 
energy

$$$$
22:0
     RDKit          3D

 64 67  0  0  1  0  0  0  0  0999 V2000
   56.6750   20.8390   43.7610 C   0  0  0  0  0  0  0  0  0  0  0  0
   56.5350   21.2390   45.2040 C   0  0  0  0  0  0  0  0  0  0  0  0
   56.2110   22.6630   45.4030 C   0  0  0  0  0  0  0  0  0  0  0  0
   54.9630   23.0210   45.8070 N   0  0  0  0  0  0  0  0  0  0  0  0
   54.6440   24.3120   45.9960 C   0  0  0  0  0  0  0  0  0  0  0  0
   55.4980   25.3310   45.8130 N   0  0  0  0  0  0  0  0  0  0  0  0
   56.7620   25.0050   45.4070 C   0  0  0  0  0  0  0  0  0  0  0  0
   57.6400   26.1040   45.2150 N   0  0  0  0  0  0  0  0  0  0  0  0
   57.7910   26.8190   43.9700 C   0  0  0  0  0  0  0  0  0  0  0  0
   58.9320   27.7910   44.1740 C   0  0  0  0  0  0  0  0  0  0  0  0
   58.7710   28.6110   45.3500 N   0  0  0  0  0  0  0  0  0  0  0  0
   58.8840   29.9490   45.0390 C   0  0  0  0  0  0  0  0  0  0  0  0
   59.4130   30.7910   46.1850 C   0  0  0  0  0  0  0  0  0  0  0  0
   58.2890   31.6830   46.6390 C   0  0  0  0  0  0  0  0  0  0  0  0
   57.9250   32.5930   45.6120 N   0  0  0  0  0  0  0  0  0  0  0  0
   58.2980   33.9480   45.8220 C   0  0  0  0  0  0  0  0  0  0  0  0
   59.4830   33.9820   46.7520 C   0  0  0  0  0  0  0  0  0  0  0  0
   59.3150   34.2180   48.1100 C   0  0  0  0  0  0  0  0  0  0  0  0
   60.3820   34.2550   48.9900 C   0  0  0  0  0  0  0  0  0  0  0  0
   61.6590   34.0470   48.5040 C   0  0  0  0  0  0  0  0  0  0  0  0
   63.0090   34.0930   49.6190 Cl  0  0  0  0  0  0  0  0  0  0  0  0
   61.8600   33.8080   47.1480 C   0  0  0  0  0  0  0  0  0  0  0  0
   60.7640   33.7780   46.2820 C   0  0  0  0  0  0  0  0  0  0  0  0
   58.0940   32.0930   44.2750 C   0  0  0  0  0  0  0  0  0  0  0  0
   57.7360   30.5970   44.3170 C   0  0  0  0  0  0  0  0  0  0  0  0
   58.1900   28.0440   46.4490 C   0  0  2  0  0  0  0  0  0  0  0  0
   58.5200   28.4740   47.8170 C   0  0  0  0  0  0  0  0  0  0  0  0
   58.4330   26.5260   46.3550 C   0  0  0  0  0  0  0  0  0  0  0  0
   57.0990   23.6970   45.2110 C   0  0  0  0  0  0  0  0  0  0  0  0
   58.4730   23.3390   44.7770 C   0  0  0  0  0  0  0  0  0  0  0  0
   57.0379   19.8023   43.7014 H   0  0  0  0  0  0  0  0  0  0  0  0
   55.6971   20.9144   43.2631 H   0  0  0  0  0  0  0  0  0  0  0  0
   57.3925   21.5078   43.2631 H   0  0  0  0  0  0  0  0  0  0  0  0
   55.7327   20.6357   45.6538 H   0  0  0  0  0  0  0  0  0  0  0  0
   57.5123   21.0658   45.6783 H   0  0  0  0  0  0  0  0  0  0  0  0
   53.6200   24.5486   46.3207 H   0  0  0  0  0  0  0  0  0  0  0  0
   58.0280   26.1191   43.1552 H   0  0  0  0  0  0  0  0  0  0  0  0
   56.8638   27.3431   43.6951 H   0  0  0  0  0  0  0  0  0  0  0  0
   59.8666   27.2190   44.2709 H   0  0  0  0  0  0  0  0  0  0  0  0
   58.9504   28.4638   43.3039 H   0  0  0  0  0  0  0  0  0  0  0  0
   59.6589   29.9251   44.2587 H   0  0  0  0  0  0  0  0  0  0  0  0
   59.7359   30.1414   47.0119 H   0  0  0  0  0  0  0  0  0  0  0  0
   60.2790   31.3880   45.8631 H   0  0  0  0  0  0  0  0  0  0  0  0
   57.4179   31.0631   46.8977 H   0  0  0  0  0  0  0  0  0  0  0  0
   58.6239   32.2554   47.5166 H   0  0  0  0  0  0  0  0  0  0  0  0
   58.5674   34.4113   44.8614 H   0  0  0  0  0  0  0  0  0  0  0  0
   57.4581   34.5048   46.2631 H   0  0  0  0  0  0  0  0  0  0  0  0
   58.2992   34.3811   48.4993 H   0  0  0  0  0  0  0  0  0  0  0  0
   60.2164   34.4471   50.0604 H   0  0  0  0  0  0  0  0  0  0  0  0
   62.8761   33.6436   46.7600 H   0  0  0  0  0  0  0  0  0  0  0  0
   60.9247   33.5891   45.2103 H   0  0  0  0  0  0  0  0  0  0  0  0
   57.4237   32.6245   43.5834 H   0  0  0  0  0  0  0  0  0  0  0  0
   59.1247   32.2447   43.9219 H   0  0  0  0  0  0  0  0  0  0  0  0
   56.7949   30.4387   44.8641 H   0  0  0  0  0  0  0  0  0  0  0  0
   57.5869   30.1768   43.3114 H   0  0  0  0  0  0  0  0  0  0  0  0
   57.1530   28.4016   46.3664 H   0  0  0  0  0  0  0  0  0  0  0  0
   58.0152   27.8163   48.5399 H   0  0  0  0  0  0  0  0  0  0  0  0
   59.6082   28.4168   47.9669 H   0  0  0  0  0  0  0  0  0  0  0  0
   58.1832   29.5104   47.9669 H   0  0  0  0  0  0  0  0  0  0  0  0
   59.4990   26.3119   46.1884 H   0  0  0  0  0  0  0  0  0  0  0  0
   58.1535   25.9984   47.2789 H   0  0  0  0  0  0  0  0  0  0  0  0
   59.1057   23.1742   45.6616 H   0  0  0  0  0  0  0  0  0  0  0  0
   58.4392   22.4197   44.1739 H   0  0  0  0  0  0  0  0  0  0  0  0
   58.8921   24.1579   44.1739 H   0  0  0  0  0  0  0  0  0  0  0  0
  1  2  1  0
  2  3  1  0
  3  4  2  0
  4  5  1  0
  5  6  2  0
  6  7  1  0
  7  8  1  0
  8  9  1  0
  9 10  1  0
 10 11  1  0
 11 12  1  0
 12 13  1  0
 13 14  1  0
 14 15  1  0
 15 16  1  0
 16 17  1  0
 17 18  2  0
 18 19  1  0
 19 20  2  0
 20 21  1  0
 20 22  1  0
 22 23  2  0
 15 24  1  0
 24 25  1  0
 11 26  1  0
 26 27  1  0
 26 28  1  0
  7 29  2  0
 29 30  1  0
 29  3  1  0
 28  8  1  0
 25 12  1  0
 23 17  1  0
  1 31  1  0
  1 32  1  0
  1 33  1  0
  2 34  1  0
  2 35  1  0
  5 36  1  0
  9 37  1  0
  9 38  1  0
 10 39  1  0
 10 40  1  0
 12 41  1  0
 13 42  1  0
 13 43  1  0
 14 44  1  0
 14 45  1  0
 16 46  1  0
 16 47  1  0
 18 48  1  0
 19 49  1  0
 22 50  1  0
 23 51  1  0
 24 52  1  0
 24 53  1  0
 25 54  1  0
 25 55  1  0
 26 56  1  6
 27 57  1  0
 27 58  1  0
 27 59  1  0
 28 60  1  0
 28 61  1  0
 30 62  1  0
 30 63  1  0
 30 64  1  0
M  END
>  <smiles>  (22) 
CCc1ncnc(N2CCN(C3CCN(Cc4ccc(Cl)cc4)CC3)C(C)C2)c1C

>  <score_type>  (22) 
oracle

>  <origin>  (22) 
adg

>  <m_score__min__energy>  (22) 
-9.3399999999999999

>  <m_primary>  (22) 
energy

$$$$
23:0
     RDKit          3D

 55 59  0  0  0  0  0  0  0  0999 V2000
   58.9750   34.5260   46.3970 C   0  0  0  0  0  0  0  0  0  0  0  0
   58.7180   34.7010   44.9030 C   0  0  0  0  0  0  0  0  0  0  0  0
   57.7260   33.7370   44.4990 N   0  0  0  0  0  0  0  0  0  0  0  0
   57.0330   33.1470   45.6190 C   0  0  0  0  0  0  0  0  0  0  0  0
   58.2120   32.7540   43.5630 C   0  0  0  0  0  0  0  0  0  0  0  0
   57.3990   31.5240   43.4340 C   0  0  0  0  0  0  0  0  0  0  0  0
   58.0080   30.2820   43.7720 N   0  0  0  0  0  0  0  0  0  0  0  0
   58.6160   29.9330   44.9950 C   0  0  0  0  0  0  0  0  0  0  0  0
   59.5850   30.7110   45.6210 C   0  0  0  0  0  0  0  0  0  0  0  0
   60.1850   30.3380   46.8060 C   0  0  0  0  0  0  0  0  0  0  0  0
   59.8670   29.1920   47.4300 N   0  0  0  0  0  0  0  0  0  0  0  0
   58.9280   28.4030   46.8550 C   0  0  0  0  0  0  0  0  0  0  0  0
   58.6020   27.2200   47.5020 C   0  0  0  0  0  0  0  0  0  0  0  0
   57.6600   26.3350   47.0110 C   0  0  0  0  0  0  0  0  0  0  0  0
   57.0430   26.6780   45.8330 C   0  0  0  0  0  0  0  0  0  0  0  0
   57.3680   27.8610   45.1850 C   0  0  0  0  0  0  0  0  0  0  0  0
   58.3080   28.7450   45.6720 C   0  0  0  0  0  0  0  0  0  0  0  0
   60.4530   28.7540   48.6620 C   0  0  0  0  0  0  0  0  0  0  0  0
   61.4220   29.6050   49.2000 O   0  0  0  0  0  0  0  0  0  0  0  0
   61.8140   30.7960   48.6380 C   0  0  0  0  0  0  0  0  0  0  0  0
   61.2050   31.1700   47.4490 C   0  0  0  0  0  0  0  0  0  0  0  0
   61.6000   32.3570   46.8970 C   0  0  0  0  0  0  0  0  0  0  0  0
   62.5730   33.1230   47.5340 C   0  0  0  0  0  0  0  0  0  0  0  0
   63.1650   32.7320   48.7160 C   0  0  0  0  0  0  0  0  0  0  0  0
   64.1300   33.5150   49.3300 C   0  0  0  0  0  0  0  0  0  0  0  0
   64.6690   33.0460   50.5120 C   0  0  0  0  0  0  0  0  0  0  0  0
   64.2790   31.8660   51.0640 C   0  0  0  0  0  0  0  0  0  0  0  0
   63.3120   31.0590   50.4700 C   0  0  0  0  0  0  0  0  0  0  0  0
   62.7670   31.5370   49.2720 C   0  0  0  0  0  0  0  0  0  0  0  0
   58.1975   35.0554   46.9673 H   0  0  0  0  0  0  0  0  0  0  0  0
   58.9509   33.4558   46.6503 H   0  0  0  0  0  0  0  0  0  0  0  0
   59.9619   34.9406   46.6503 H   0  0  0  0  0  0  0  0  0  0  0  0
   58.3500   35.7186   44.7055 H   0  0  0  0  0  0  0  0  0  0  0  0
   59.6489   34.5469   44.3375 H   0  0  0  0  0  0  0  0  0  0  0  0
   57.4698   33.5188   46.5576 H   0  0  0  0  0  0  0  0  0  0  0  0
   55.9683   33.4201   45.5765 H   0  0  0  0  0  0  0  0  0  0  0  0
   57.1327   32.0524   45.5765 H   0  0  0  0  0  0  0  0  0  0  0  0
   58.2633   33.2291   42.5722 H   0  0  0  0  0  0  0  0  0  0  0  0
   59.1858   32.4262   43.9557 H   0  0  0  0  0  0  0  0  0  0  0  0
   56.5188   31.6441   44.0827 H   0  0  0  0  0  0  0  0  0  0  0  0
   57.1907   31.4439   42.3569 H   0  0  0  0  0  0  0  0  0  0  0  0
   58.0020   29.5440   43.0040 H   0  0  0  0  0  0  0  0  0  0  0  0
   59.8843   31.6604   45.1529 H   0  0  0  0  0  0  0  0  0  0  0  0
   59.1140   26.9760   48.4445 H   0  0  0  0  0  0  0  0  0  0  0  0
   57.4165   25.4010   47.5386 H   0  0  0  0  0  0  0  0  0  0  0  0
   56.2848   26.0092   45.3996 H   0  0  0  0  0  0  0  0  0  0  0  0
   56.8543   28.1041   44.2432 H   0  0  0  0  0  0  0  0  0  0  0  0
   59.6465   28.6468   49.4023 H   0  0  0  0  0  0  0  0  0  0  0  0
   60.9708   27.8108   48.4332 H   0  0  0  0  0  0  0  0  0  0  0  0
   61.1516   32.7050   45.9548 H   0  0  0  0  0  0  0  0  0  0  0  0
   62.8806   34.0752   47.0772 H   0  0  0  0  0  0  0  0  0  0  0  0
   64.4535   34.4714   48.8934 H   0  0  0  0  0  0  0  0  0  0  0  0
   65.4373   33.6453   51.0225 H   0  0  0  0  0  0  0  0  0  0  0  0
   64.7409   31.5394   52.0074 H   0  0  0  0  0  0  0  0  0  0  0  0
   62.9955   30.1041   50.9149 H   0  0  0  0  0  0  0  0  0  0  0  0
  1  2  1  0
  2  3  1  0
  3  4  1  0
  3  5  1  0
  5  6  1  0
  6  7  1  0
  7  8  1  0
  8  9  2  0
  9 10  1  0
 10 11  2  0
 11 12  1  0
 12 13  2  0
 13 14  1  0
 14 15  2  0
 15 16  1  0
 16 17  2  0
 11 18  1  0
 18 19  1  0
 19 20  1  0
 20 21  2  0
 21 22  1  0
 22 23  2  0
 23 24  1  0
 24 25  2  0
 25 26  1  0
 26 27  2  0
 27 28  1  0
 28 29  2  0
 17  8  1  0
 29 20  1  0
 21 10  1  0
 29 24  1  0
 17 12  1  0
  1 30  1  0
  1 31  1  0
  1 32  1  0
  2 33  1  0
  2 34  1  0
  4 35  1  0
  4 36  1  0
  4 37  1  0
  5 38  1  0
  5 39  1  0
  6 40  1  0
  6 41  1  0
  7 42  1  0
  9 43  1  0
 13 44  1  0
 14 45  1  0
 15 46  1  0
 16 47  1  0
 18 48  1  0
 18 49  1  0
 22 50  1  0
 23 51  1  0
 25 52  1  0
 26 53  1  0
 27 54  1  0
 28 55  1  0
M  CHG  1  11   1
M  END
>  <smiles>  (23) 
CCN(C)CCNc1cc2[n+](c3ccccc13)COc1c-2ccc2ccccc12

>  <score_type>  (23) 
oracle

>  <origin>  (23) 
adg

>  <m_score__min__energy>  (23) 
-7.3700000000000001

>  <m_primary>  (23) 
energy

$$$$
