0:0
     RDKit          3D

 42 44  0  0  0  0  0  0  0  0999 V2000
   59.6570   35.2620   46.0410 C   0  0  0  0  0  0  0  0  0  0  0  0
   59.3680   34.5970   44.7010 C   0  0  0  0  0  0  0  0  0  0  0  0
   58.4090   33.5110   44.8720 N   0  0  0  0  0  0  0  0  0  0  0  0
   57.3820   33.4650   45.7450 C   0  0  0  0  0  0  0  0  0  0  0  0
   56.6440   32.3410   45.6170 N   0  0  0  0  0  0  0  0  0  0  0  0
   57.2440   31.6760   44.6090 C   0  0  0  0  0  0  0  0  0  0  0  0
   56.7240   30.1010   44.0300 S   0  0  0  0  0  0  0  0  0  0  0  0
   55.5640   29.6360   44.8650 O   0  0  0  0  0  0  0  0  0  0  0  0
   56.2630   30.2260   42.6050 O   0  0  0  0  0  0  0  0  0  0  0  0
   58.0180   28.9300   44.1350 N   0  0  0  0  0  0  0  0  0  0  0  0
   59.2500   29.5720   44.6370 C   0  0  0  0  0  0  0  0  0  0  0  0
   60.2180   28.5330   45.2170 C   0  0  0  0  0  0  0  0  0  0  0  0
   59.6360   27.8160   46.3800 N   0  0  0  0  0  0  0  0  0  0  0  0
   60.1220   28.3870   47.6550 C   0  0  0  0  0  0  0  0  0  0  0  0
   59.8980   29.8690   47.7020 C   0  0  0  0  0  0  0  0  0  0  0  0
   60.8570   30.8370   47.4830 C   0  0  0  0  0  0  0  0  0  0  0  0
   60.2100   32.0410   47.6530 C   0  0  0  0  0  0  0  0  0  0  0  0
   58.9010   31.7330   47.9670 C   0  0  0  0  0  0  0  0  0  0  0  0
   58.7460   30.4290   47.9890 O   0  0  0  0  0  0  0  0  0  0  0  0
   58.1520   27.7540   46.3480 C   0  0  0  0  0  0  0  0  0  0  0  0
   57.6060   27.7370   44.9110 C   0  0  0  0  0  0  0  0  0  0  0  0
   58.3230   32.3880   44.1410 C   0  0  0  0  0  0  0  0  0  0  0  0
   59.3630   34.5855   46.8570 H   0  0  0  0  0  0  0  0  0  0  0  0
   60.7320   35.4823   46.1167 H   0  0  0  0  0  0  0  0  0  0  0  0
   59.0846   36.1983   46.1167 H   0  0  0  0  0  0  0  0  0  0  0  0
   58.9520   35.3429   44.0078 H   0  0  0  0  0  0  0  0  0  0  0  0
   60.3046   34.1871   44.2952 H   0  0  0  0  0  0  0  0  0  0  0  0
   57.1690   34.2553   46.4799 H   0  0  0  0  0  0  0  0  0  0  0  0
   59.7439   30.0993   43.8075 H   0  0  0  0  0  0  0  0  0  0  0  0
   58.9757   30.2774   45.4352 H   0  0  0  0  0  0  0  0  0  0  0  0
   60.4623   27.7998   44.4342 H   0  0  0  0  0  0  0  0  0  0  0  0
   61.1180   29.0634   45.5615 H   0  0  0  0  0  0  0  0  0  0  0  0
   59.5819   27.9152   48.4891 H   0  0  0  0  0  0  0  0  0  0  0  0
   61.2019   28.1938   47.7356 H   0  0  0  0  0  0  0  0  0  0  0  0
   61.9151   30.6801   47.2267 H   0  0  0  0  0  0  0  0  0  0  0  0
   60.6478   33.0456   47.5578 H   0  0  0  0  0  0  0  0  0  0  0  0
   58.1082   32.4685   48.1682 H   0  0  0  0  0  0  0  0  0  0  0  0
   57.8238   26.8392   46.8632 H   0  0  0  0  0  0  0  0  0  0  0  0
   57.7640   28.6538   46.8477 H   0  0  0  0  0  0  0  0  0  0  0  0
   57.9814   26.8374   44.4013 H   0  0  0  0  0  0  0  0  0  0  0  0
   56.5076   27.7388   44.9700 H   0  0  0  0  0  0  0  0  0  0  0  0
   58.9922   32.0923   43.3195 H   0  0  0  0  0  0  0  0  0  0  0  0
  1  2  1  0
  2  3  1  0
  3  4  1  0
  4  5  2  0
  5  6  1  0
  6  7  1  0
  7  8  2  0
  7  9  2  0
  7 10  1  0
 10 11  1  0
 11 12  1  0
 12 13  1  0
 13 14  1  0
 14 15  1  0
 15 16  2  0
 16 17  1  0
 17 18  2  0
 18 19  1  0
 13 20  1  0
 20 21  1  0
  6 22  2  0
 22  3  1  0
 21 10  1  0
 19 15  1  0
  1 23  1  0
  1 24  1  0
  1 25  1  0
  2 26  1  0
  2 27  1  0
  4 28  1  0
 11 29  1  0
 11 30  1  0
 12 31  1  0
 12 32  1  0
 14 33  1  0
 14 34  1  0
 16 35  1  0
 17 36  1  0
 18 37  1  0
 20 38  1  0
 20 39  1  0
 21 40  1  0
 21 41  1  0
 22 42  1  0
M  END
>  <UniqueID>  (1) 
1

>  <SMILES>  (1) 
CCn1cnc(S(=O)(=O)N2CCN(Cc3ccco3)CC2)c1

>  <Energy>  (1) 
103.46332701814362

>  <Genealogy>  (1) 
CCn1cnc(S(=O)(=O)N2CCN(Cc3ccco3)CC2)c1 (3D coordinates assigned)
CCn1cnc(S(=O)(=O)N2CCN(Cc3ccco3)CC2)c1 (nonaromatic ring conformer: 103.46332701814362 kcal/mol)

>  <smiles>  (1) 
CCn1cnc(S(=O)(=O)N2CCN(Cc3ccco3)CC2)c1

>  <score_type>  (1) 
oracle

>  <origin>  (1) 
adg

>  <m_score__min__energy>  (1) 
-7.71

>  <m_primary>  (1) 
energy

$$$$
1:0
     RDKit          3D

 58 61  0  0  0  0  0  0  0  0999 V2000
   59.7050   33.4940   49.1850 C   0  0  0  0  0  0  0  0  0  0  0  0
   60.9590   34.2090   48.6940 C   0  0  0  0  0  0  0  0  0  0  0  0
   60.7900   34.5890   47.2660 N   0  0  0  0  0  0  0  0  0  0  0  0
   59.3690   34.5540   46.8510 C   0  0  0  0  0  0  0  0  0  0  0  0
   59.2350   34.5290   45.3280 C   0  0  0  0  0  0  0  0  0  0  0  0
   61.6100   33.7360   46.3730 C   0  0  0  0  0  0  0  0  0  0  0  0
   63.1020   33.9020   46.6800 C   0  0  0  0  0  0  0  0  0  0  0  0
   63.6800   32.6280   47.1130 N   0  0  0  0  0  0  0  0  0  0  0  0
   63.2370   31.9690   48.3100 C   0  0  0  0  0  0  0  0  0  0  0  0
   63.9110   32.1830   49.5240 C   0  0  0  0  0  0  0  0  0  0  0  0
   65.0830   32.9660   49.5820 C   0  0  0  0  0  0  0  0  0  0  0  0
   65.7180   33.2060   50.8000 C   0  0  0  0  0  0  0  0  0  0  0  0
   65.2000   32.6680   51.9740 C   0  0  0  0  0  0  0  0  0  0  0  0
   64.0410   31.8930   51.9390 C   0  0  0  0  0  0  0  0  0  0  0  0
   63.3720   31.6390   50.7180 C   0  0  0  0  0  0  0  0  0  0  0  0
   62.2140   30.8930   50.6730 N   0  0  0  0  0  0  0  0  0  0  0  0
   61.3820   30.7920   51.8900 C   0  0  0  0  0  0  0  0  0  0  0  0
   61.7370   30.4250   49.4620 C   0  0  0  0  0  0  0  0  0  0  0  0
   62.1600   31.0630   48.2710 C   0  0  0  0  0  0  0  0  0  0  0  0
   61.5110   30.7570   47.0680 C   0  0  0  0  0  0  0  0  0  0  0  0
   60.4530   29.8540   47.0510 C   0  0  0  0  0  0  0  0  0  0  0  0
   59.7410   29.6200   45.8620 C   0  0  0  0  0  0  0  0  0  0  0  0
   58.6950   28.6990   45.8410 C   0  0  0  0  0  0  0  0  0  0  0  0
   58.3490   28.0060   47.0000 C   0  0  0  0  0  0  0  0  0  0  0  0
   59.0570   28.2230   48.1840 C   0  0  0  0  0  0  0  0  0  0  0  0
   60.1290   29.1450   48.2300 C   0  0  0  0  0  0  0  0  0  0  0  0
   60.8650   29.3500   49.3790 N   0  0  0  0  0  0  0  0  0  0  0  0
   60.8820   28.2940   50.4120 C   0  0  0  0  0  0  0  0  0  0  0  0
   59.6936   33.4875   50.2849 H   0  0  0  0  0  0  0  0  0  0  0  0
   58.8135   34.0196   48.8122 H   0  0  0  0  0  0  0  0  0  0  0  0
   59.7032   32.4591   48.8122 H   0  0  0  0  0  0  0  0  0  0  0  0
   61.1239   35.1143   49.2967 H   0  0  0  0  0  0  0  0  0  0  0  0
   61.8247   33.5377   48.7933 H   0  0  0  0  0  0  0  0  0  0  0  0
   58.8964   33.6520   47.2671 H   0  0  0  0  0  0  0  0  0  0  0  0
   58.8749   35.4616   47.2280 H   0  0  0  0  0  0  0  0  0  0  0  0
   58.1874   34.3335   45.0552 H   0  0  0  0  0  0  0  0  0  0  0  0
   59.5459   35.5006   44.9166 H   0  0  0  0  0  0  0  0  0  0  0  0
   59.8753   33.7348   44.9166 H   0  0  0  0  0  0  0  0  0  0  0  0
   61.3267   32.6833   46.5199 H   0  0  0  0  0  0  0  0  0  0  0  0
   61.4287   34.0399   45.3315 H   0  0  0  0  0  0  0  0  0  0  0  0
   63.6221   34.2465   45.7740 H   0  0  0  0  0  0  0  0  0  0  0  0
   63.2198   34.6395   47.4876 H   0  0  0  0  0  0  0  0  0  0  0  0
   64.5220   32.2610   46.6140 H   0  0  0  0  0  0  0  0  0  0  0  0
   65.5001   33.3914   48.6573 H   0  0  0  0  0  0  0  0  0  0  0  0
   66.6293   33.8212   50.8328 H   0  0  0  0  0  0  0  0  0  0  0  0
   65.7062   32.8545   52.9327 H   0  0  0  0  0  0  0  0  0  0  0  0
   63.6411   31.4732   52.8738 H   0  0  0  0  0  0  0  0  0  0  0  0
   62.0235   30.8699   52.7802 H   0  0  0  0  0  0  0  0  0  0  0  0
   60.6434   31.6071   51.8979 H   0  0  0  0  0  0  0  0  0  0  0  0
   60.8598   29.8239   51.8979 H   0  0  0  0  0  0  0  0  0  0  0  0
   61.8395   31.2330   46.1323 H   0  0  0  0  0  0  0  0  0  0  0  0
   60.0100   30.1653   44.9453 H   0  0  0  0  0  0  0  0  0  0  0  0
   58.1413   28.5186   44.9078 H   0  0  0  0  0  0  0  0  0  0  0  0
   57.5168   27.2869   46.9819 H   0  0  0  0  0  0  0  0  0  0  0  0
   58.7775   27.6698   49.0927 H   0  0  0  0  0  0  0  0  0  0  0  0
   60.8745   28.7570   51.4098 H   0  0  0  0  0  0  0  0  0  0  0  0
   59.9940   27.6549   50.2977 H   0  0  0  0  0  0  0  0  0  0  0  0
   61.7901   27.6838   50.2977 H   0  0  0  0  0  0  0  0  0  0  0  0
  1  2  1  0
  2  3  1  0
  3  4  1  0
  4  5  1  0
  3  6  1  0
  6  7  1  0
  7  8  1  0
  8  9  1  0
  9 10  2  0
 10 11  1  0
 11 12  2  0
 12 13  1  0
 13 14  2  0
 14 15  1  0
 15 16  2  0
 16 17  1  0
 16 18  1  0
 18 19  2  0
 19 20  1  0
 20 21  2  0
 21 22  1  0
 22 23  2  0
 23 24  1  0
 24 25  2  0
 25 26  1  0
 26 27  2  0
 27 28  1  0
 19  9  1  0
 26 21  1  0
 15 10  1  0
 27 18  1  0
  1 29  1  0
  1 30  1  0
  1 31  1  0
  2 32  1  0
  2 33  1  0
  4 34  1  0
  4 35  1  0
  5 36  1  0
  5 37  1  0
  5 38  1  0
  6 39  1  0
  6 40  1  0
  7 41  1  0
  7 42  1  0
  8 43  1  0
 11 44  1  0
 12 45  1  0
 13 46  1  0
 14 47  1  0
 17 48  1  0
 17 49  1  0
 17 50  1  0
 20 51  1  0
 22 52  1  0
 23 53  1  0
 24 54  1  0
 25 55  1  0
 28 56  1  0
 28 57  1  0
 28 58  1  0
M  CHG  2  16   1  27   1
M  END
>  <UniqueID>  (2) 
2

>  <SMILES>  (2) 
CCN(CC)CCNc1c2ccccc2[n+](C)c2c1cc1ccccc1[n+]2C

>  <Energy>  (2) 
104.95995715988873

>  <Genealogy>  (2) 
CCN(CC)CCNc1c2ccccc2[n+](C)c2c1cc1ccccc1[n+]2C (3D coordinates assigned)
CCN(CC)CCNc1c2ccccc2[n+](C)c2c1cc1ccccc1[n+]2C (optimized conformer: 104.95995715988873 kcal/mol)

>  <smiles>  (2) 
CCN(CC)CCNc1c2ccccc2[n+](C)c2c1cc1ccccc1[n+]2C

>  <score_type>  (2) 
oracle

>  <origin>  (2) 
adg

>  <m_score__min__energy>  (2) 
-5.3899999999999997

>  <m_primary>  (2) 
energy

$$$$
2:0
     RDKit          3D

 57 60  0  0  0  0  0  0  0  0999 V2000
   58.1440   32.6820   41.0840 C   0  0  0  0  0  0  0  0  0  0  0  0
   57.0230   31.8520   41.7010 C   0  0  0  0  0  0  0  0  0  0  0  0
   57.5400   31.0020   42.7740 N   0  0  0  0  0  0  0  0  0  0  0  0
   57.9070   31.4650   44.0890 C   0  0  0  0  0  0  0  0  0  0  0  0
   57.8080   30.5840   45.1720 C   0  0  0  0  0  0  0  0  0  0  0  0
   58.1490   30.9940   46.4620 C   0  0  0  0  0  0  0  0  0  0  0  0
   58.6110   32.3040   46.7000 C   0  0  0  0  0  0  0  0  0  0  0  0
   58.7330   33.1930   45.6070 C   0  0  0  0  0  0  0  0  0  0  0  0
   58.3720   32.7710   44.3180 C   0  0  0  0  0  0  0  0  0  0  0  0
   59.2000   34.6220   45.8000 C   0  0  0  0  0  0  0  0  0  0  0  0
   59.9980   34.8910   47.1030 C   0  0  0  0  0  0  0  0  0  0  0  0
   60.3240   33.6290   47.9580 C   0  0  2  0  0  0  0  0  0  0  0  0
   61.4860   32.7790   47.4770 N   0  0  0  0  0  0  0  0  0  0  0  0
   62.5770   33.4630   46.7340 C   0  0  0  0  0  0  0  0  0  0  0  0
   63.5720   34.1860   47.6720 C   0  0  0  0  0  0  0  0  0  0  0  0
   63.0920   34.2310   48.9990 O   0  0  0  0  0  0  0  0  0  0  0  0
   62.9600   32.9170   49.5050 C   0  0  0  0  0  0  0  0  0  0  0  0
   62.1030   32.0140   48.5870 C   0  0  0  0  0  0  0  0  0  0  0  0
   58.9950   32.8160   48.0820 C   0  0  2  0  0  0  0  0  0  0  0  0
   59.0060   31.7420   49.2060 C   0  0  0  0  0  0  0  0  0  0  0  0
   58.7440   32.2820   50.6000 C   0  0  0  0  0  0  0  0  0  0  0  0
   59.3410   33.4780   51.0460 C   0  0  0  0  0  0  0  0  0  0  0  0
   59.0540   33.9800   52.3200 C   0  0  0  0  0  0  0  0  0  0  0  0
   58.1520   33.3130   53.1500 C   0  0  0  0  0  0  0  0  0  0  0  0
   57.5180   32.1530   52.7010 C   0  0  0  0  0  0  0  0  0  0  0  0
   56.6210   31.5190   53.4970 F   0  0  0  0  0  0  0  0  0  0  0  0
   57.7990   31.6480   51.4280 C   0  0  0  0  0  0  0  0  0  0  0  0
   58.7507   33.1312   41.8841 H   0  0  0  0  0  0  0  0  0  0  0  0
   58.7794   32.0349   40.4614 H   0  0  0  0  0  0  0  0  0  0  0  0
   57.7105   33.4785   40.4614 H   0  0  0  0  0  0  0  0  0  0  0  0
   56.2579   32.5271   42.1119 H   0  0  0  0  0  0  0  0  0  0  0  0
   56.5867   31.2110   40.9208 H   0  0  0  0  0  0  0  0  0  0  0  0
   57.6560   29.9850   42.5570 H   0  0  0  0  0  0  0  0  0  0  0  0
   57.4569   29.5551   45.0044 H   0  0  0  0  0  0  0  0  0  0  0  0
   58.0563   30.2881   47.3005 H   0  0  0  0  0  0  0  0  0  0  0  0
   58.4543   33.4728   43.4749 H   0  0  0  0  0  0  0  0  0  0  0  0
   59.8427   34.8871   44.9476 H   0  0  0  0  0  0  0  0  0  0  0  0
   58.2875   35.2320   45.8720 H   0  0  0  0  0  0  0  0  0  0  0  0
   60.9494   35.3688   46.8262 H   0  0  0  0  0  0  0  0  0  0  0  0
   59.3523   35.5239   47.7295 H   0  0  0  0  0  0  0  0  0  0  0  0
   60.6907   33.9666   48.9386 H   0  0  0  0  0  0  0  0  0  0  0  0
   61.1180   32.0560   46.8150 H   0  0  0  0  0  0  0  0  0  0  0  0
   63.1275   32.7132   46.1468 H   0  0  0  0  0  0  0  0  0  0  0  0
   62.1145   34.2239   46.0881 H   0  0  0  0  0  0  0  0  0  0  0  0
   64.5320   33.6491   47.6571 H   0  0  0  0  0  0  0  0  0  0  0  0
   63.6956   35.2188   47.3143 H   0  0  0  0  0  0  0  0  0  0  0  0
   63.9620   32.4733   49.6010 H   0  0  0  0  0  0  0  0  0  0  0  0
   62.4526   32.9824   50.4788 H   0  0  0  0  0  0  0  0  0  0  0  0
   62.7445   31.2274   48.1630 H   0  0  0  0  0  0  0  0  0  0  0  0
   61.2936   31.5821   49.1939 H   0  0  0  0  0  0  0  0  0  0  0  0
   58.1951   33.4858   48.4306 H   0  0  0  0  0  0  0  0  0  0  0  0
   58.2305   30.9967   48.9757 H   0  0  0  0  0  0  0  0  0  0  0  0
   60.0211   31.3186   49.2220 H   0  0  0  0  0  0  0  0  0  0  0  0
   60.0367   34.0201   50.3887 H   0  0  0  0  0  0  0  0  0  0  0  0
   59.5407   34.9029   52.6683 H   0  0  0  0  0  0  0  0  0  0  0  0
   57.9407   33.7010   54.1574 H   0  0  0  0  0  0  0  0  0  0  0  0
   57.2773   30.7479   51.0707 H   0  0  0  0  0  0  0  0  0  0  0  0
  1  2  1  0
  2  3  1  0
  3  4  1  0
  4  5  2  0
  5  6  1  0
  6  7  2  0
  7  8  1  0
  8  9  2  0
  8 10  1  0
 10 11  1  0
 11 12  1  0
 12 13  1  0
 13 14  1  0
 14 15  1  0
 15 16  1  0
 16 17  1  0
 17 18  1  0
 12 19  1  0
 19 20  1  0
 20 21  1  0
 21 22  2  0
 22 23  1  0
 23 24  2  0
 24 25  1  0
 25 26  1  0
 25 27  2  0
  9  4  1  0
 18 13  1  0
 27 21  1  0
 19  7  1  0
  1 28  1  0
  1 29  1  0
  1 30  1  0
  2 31  1  0
  2 32  1  0
  3 33  1  0
  5 34  1  0
  6 35  1  0
  9 36  1  0
 10 37  1  0
 10 38  1  0
 11 39  1  0
 11 40  1  0
 12 41  1  1
 13 42  1  0
 14 43  1  0
 14 44  1  0
 15 45  1  0
 15 46  1  0
 17 47  1  0
 17 48  1  0
 18 49  1  0
 18 50  1  0
 19 51  1  1
 20 52  1  0
 20 53  1  0
 22 54  1  0
 23 55  1  0
 24 56  1  0
 27 57  1  0
M  CHG  1  13   1
M  END
>  <UniqueID>  (3) 
3

>  <SMILES>  (3) 
CCNc1ccc2c(c1)CC[C@H]([NH+]1CCOCC1)[C@@H]2Cc1cccc(F)c1

>  <Energy>  (3) 
92.1666375691399

>  <Genealogy>  (3) 
CCNc1ccc2c(c1)CCC([NH+]1CCOCC1)C2Cc1cccc(F)c1 (protonated)
CCNc1ccc2c(c1)CC[C@H]([NH+]1CCOCC1)[C@@H]2Cc1cccc(F)c1 (chirality)
CCNc1ccc2c(c1)CC[C@H]([NH+]1CCOCC1)[C@@H]2Cc1cccc(F)c1 (3D coordinates assigned)
CCNc1ccc2c(c1)CC[C@H]([NH+]1CCOCC1)[C@@H]2Cc1cccc(F)c1 (nonaromatic ring conformer: 92.1666375691399 kcal/mol)

>  <smiles>  (3) 
CCNc1ccc2c(c1)CCC(N1CCOCC1)C2Cc1cccc(F)c1

>  <score_type>  (3) 
oracle

>  <origin>  (3) 
adg

>  <m_score__min__energy>  (3) 
-6.7699999999999996

>  <m_primary>  (3) 
energy

$$$$
3:0
     RDKit          3D

 55 60  0  0  0  0  0  0  0  0999 V2000
   55.0170   23.9650   44.8730 C   0  0  0  0  0  0  0  0  0  0  0  0
   54.9830   25.0580   45.7870 O   0  0  0  0  0  0  0  0  0  0  0  0
   56.1160   25.7610   46.2280 C   0  0  0  0  0  0  0  0  0  0  0  0
   57.0220   25.0950   47.0550 C   0  0  0  0  0  0  0  0  0  0  0  0
   58.1650   25.7420   47.5240 C   0  0  0  0  0  0  0  0  0  0  0  0
   58.4270   27.0800   47.1720 C   0  0  0  0  0  0  0  0  0  0  0  0
   59.5940   27.7420   47.6310 C   0  0  0  0  0  0  0  0  0  0  0  0
   60.3990   27.1140   48.3770 O   0  0  0  0  0  0  0  0  0  0  0  0
   59.8620   29.0490   47.2740 N   0  0  0  0  0  0  0  0  0  0  0  0
   61.1400   29.6530   47.7000 C   0  0  0  0  0  0  0  0  0  0  0  0
   60.8920   30.7070   48.7990 C   0  0  0  0  0  0  0  0  0  0  0  0
   62.0400   31.6020   49.1270 N   0  0  0  0  0  0  0  0  0  0  0  0
   63.1090   31.6610   48.0980 C   0  0  0  0  0  0  0  0  0  0  0  0
   62.9540   32.8500   47.1310 C   0  0  0  0  0  0  0  0  0  0  0  0
   62.7970   34.0600   47.8380 O   0  0  0  0  0  0  0  0  0  0  0  0
   61.5900   34.0140   48.5640 C   0  0  0  0  0  0  0  0  0  0  0  0
   61.6570   32.9360   49.6520 C   0  0  0  0  0  0  0  0  0  0  0  0
   58.9320   29.7340   46.5230 C   0  0  0  0  0  0  0  0  0  0  0  0
   57.7940   29.1000   46.0240 C   0  0  0  0  0  0  0  0  0  0  0  0
   57.5120   27.7640   46.3370 C   0  0  0  0  0  0  0  0  0  0  0  0
   56.3620   27.0990   45.8700 C   0  0  0  0  0  0  0  0  0  0  0  0
   57.0540   30.0610   45.1970 C   0  0  0  0  0  0  0  0  0  0  0  0
   55.9870   29.8610   44.5610 O   0  0  0  0  0  0  0  0  0  0  0  0
   57.7810   31.3120   45.2460 C   0  0  0  0  0  0  0  0  0  0  0  0
   57.4400   32.5410   44.6610 C   0  0  0  0  0  0  0  0  0  0  0  0
   58.2860   33.6130   44.9470 C   0  0  0  0  0  0  0  0  0  0  0  0
   59.3740   33.4820   45.7600 C   0  0  0  0  0  0  0  0  0  0  0  0
   59.7240   32.2670   46.3560 C   0  0  0  0  0  0  0  0  0  0  0  0
   58.9110   31.1500   46.0570 C   0  0  0  0  0  0  0  0  0  0  0  0
   60.0020   34.7060   45.8810 O   0  0  0  0  0  0  0  0  0  0  0  0
   59.2750   35.6610   45.0960 C   0  0  0  0  0  0  0  0  0  0  0  0
   58.1870   34.9220   44.5200 O   0  0  0  0  0  0  0  0  0  0  0  0
   55.0464   23.0190   45.4336 H   0  0  0  0  0  0  0  0  0  0  0  0
   54.1177   23.9883   44.2400 H   0  0  0  0  0  0  0  0  0  0  0  0
   55.9131   24.0441   44.2400 H   0  0  0  0  0  0  0  0  0  0  0  0
   56.8326   24.0495   47.3396 H   0  0  0  0  0  0  0  0  0  0  0  0
   58.8684   25.2021   48.1749 H   0  0  0  0  0  0  0  0  0  0  0  0
   61.8002   28.8662   48.0937 H   0  0  0  0  0  0  0  0  0  0  0  0
   61.6118   30.1414   46.8347 H   0  0  0  0  0  0  0  0  0  0  0  0
   60.0550   31.3415   48.4722 H   0  0  0  0  0  0  0  0  0  0  0  0
   60.6954   30.1334   49.7168 H   0  0  0  0  0  0  0  0  0  0  0  0
   62.4860   31.1230   49.9470 H   0  0  0  0  0  0  0  0  0  0  0  0
   64.0802   31.7485   48.6071 H   0  0  0  0  0  0  0  0  0  0  0  0
   63.0383   30.7408   47.4994 H   0  0  0  0  0  0  0  0  0  0  0  0
   63.8507   32.9175   46.4974 H   0  0  0  0  0  0  0  0  0  0  0  0
   62.0578   32.6857   46.5148 H   0  0  0  0  0  0  0  0  0  0  0  0
   61.4134   34.9924   49.0346 H   0  0  0  0  0  0  0  0  0  0  0  0
   60.7691   33.7710   47.8733 H   0  0  0  0  0  0  0  0  0  0  0  0
   62.3994   33.2428   50.4035 H   0  0  0  0  0  0  0  0  0  0  0  0
   60.6493   32.8419   50.0829 H   0  0  0  0  0  0  0  0  0  0  0  0
   55.6506   27.6298   45.2203 H   0  0  0  0  0  0  0  0  0  0  0  0
   56.5571   32.6528   44.0145 H   0  0  0  0  0  0  0  0  0  0  0  0
   60.5919   32.1840   47.0267 H   0  0  0  0  0  0  0  0  0  0  0  0
   58.8954   36.4744   45.7318 H   0  0  0  0  0  0  0  0  0  0  0  0
   59.9075   36.1292   44.3274 H   0  0  0  0  0  0  0  0  0  0  0  0
  1  2  1  0
  2  3  1  0
  3  4  2  0
  4  5  1  0
  5  6  2  0
  6  7  1  0
  7  8  2  0
  7  9  1  0
  9 10  1  0
 10 11  1  0
 11 12  1  0
 12 13  1  0
 13 14  1  0
 14 15  1  0
 15 16  1  0
 16 17  1  0
  9 18  1  0
 18 19  2  0
 19 20  1  0
 20 21  2  0
 19 22  1  0
 22 23  2  0
 22 24  1  0
 24 25  2  0
 25 26  1  0
 26 27  2  0
 27 28  1  0
 28 29  2  0
 27 30  1  0
 30 31  1  0
 31 32  1  0
 21  3  1  0
 29 24  1  0
 20  6  1  0
 32 26  1  0
 17 12  1  0
 29 18  1  0
  1 33  1  0
  1 34  1  0
  1 35  1  0
  4 36  1  0
  5 37  1  0
 10 38  1  0
 10 39  1  0
 11 40  1  0
 11 41  1  0
 12 42  1  0
 13 43  1  0
 13 44  1  0
 14 45  1  0
 14 46  1  0
 16 47  1  0
 16 48  1  0
 17 49  1  0
 17 50  1  0
 21 51  1  0
 25 52  1  0
 28 53  1  0
 31 54  1  0
 31 55  1  0
M  CHG  1  12   1
M  END
>  <UniqueID>  (4) 
4

>  <SMILES>  (4) 
COc1ccc2c(=O)n(CC[NH+]3CCOCC3)c3c(c2c1)C(=O)c1cc2c(cc1-3)OCO2

>  <Energy>  (4) 
148.95721857270158

>  <Genealogy>  (4) 
COc1ccc2c(=O)n(CC[NH+]3CCOCC3)c3c(c2c1)C(=O)c1cc2c(cc1-3)OCO2 (protonated)
COc1ccc2c(=O)n(CC[NH+]3CCOCC3)c3c(c2c1)C(=O)c1cc2c(cc1-3)OCO2 (3D coordinates assigned)
COc1ccc2c(=O)n(CC[NH+]3CCOCC3)c3c(c2c1)C(=O)c1cc2c(cc1-3)OCO2 (nonaromatic ring conformer: 148.95721857270158 kcal/mol)

>  <smiles>  (4) 
COc1ccc2c(=O)n(CCN3CCOCC3)c3c(c2c1)C(=O)c1cc2c(cc1-3)OCO2

>  <score_type>  (4) 
oracle

>  <origin>  (4) 
adg

>  <m_score__min__energy>  (4) 
-7.0099999999999998

>  <m_primary>  (4) 
energy

$$$$
4:0
     RDKit          3D

 67 70  0  0  0  0  0  0  0  0999 V2000
   63.3290   33.8100   46.3580 C   0  0  0  0  0  0  0  0  0  0  0  0
   63.6170   33.6890   47.8540 C   0  0  0  0  0  0  0  0  0  0  0  0
   62.5450   32.8840   48.6070 C   0  0  0  0  0  0  0  0  0  0  0  0
   63.1330   32.0760   49.7830 C   0  0  0  0  0  0  0  0  0  0  0  0
   62.1000   31.2750   50.4910 N   0  0  1  0  0  0  0  0  0  0  0  0
   61.3250   32.0120   51.5300 C   0  0  0  0  0  0  0  0  0  0  0  0
   60.3290   33.0920   51.0190 C   0  0  0  0  0  0  0  0  0  0  0  0
   59.0370   33.1670   51.8390 C   0  0  0  0  0  0  0  0  0  0  0  0
   57.7630   31.8080   51.2910 Br  0  0  0  0  0  0  0  0  0  0  0  0
   61.2630   30.4600   49.5700 C   0  0  0  0  0  0  0  0  0  0  0  0
   61.1160   28.9720   49.9530 C   0  0  0  0  0  0  0  0  0  0  0  0
   60.1870   28.2130   48.9850 C   0  0  0  0  0  0  0  0  0  0  0  0
   59.0010   29.0040   48.6390 N   0  0  0  0  0  0  0  0  0  0  0  0
   58.7580   29.5120   47.3180 C   0  0  0  0  0  0  0  0  0  0  0  0
   58.8020   30.8830   47.0670 C   0  0  0  0  0  0  0  0  0  0  0  0
   58.5810   31.3750   45.7950 C   0  0  0  0  0  0  0  0  0  0  0  0
   58.1890   30.5640   44.7590 N   0  0  0  0  0  0  0  0  0  0  0  0
   57.6340   31.1530   43.5300 C   0  0  0  0  0  0  0  0  0  0  0  0
   58.2600   29.1910   44.9330 C   0  0  0  0  0  0  0  0  0  0  0  0
   58.0720   28.2950   43.8520 C   0  0  0  0  0  0  0  0  0  0  0  0
   58.0890   26.9160   44.0550 C   0  0  0  0  0  0  0  0  0  0  0  0
   58.3080   26.3930   45.3250 C   0  0  0  0  0  0  0  0  0  0  0  0
   58.5360   27.2450   46.4030 C   0  0  0  0  0  0  0  0  0  0  0  0
   58.5320   28.6440   46.2280 C   0  0  0  0  0  0  0  0  0  0  0  0
   58.8270   32.8220   45.8250 C   0  0  0  0  0  0  0  0  0  0  0  0
   58.9490   33.7680   44.7960 C   0  0  0  0  0  0  0  0  0  0  0  0
   59.2810   35.0900   45.1300 C   0  0  0  0  0  0  0  0  0  0  0  0
   59.5290   35.4450   46.4670 C   0  0  0  0  0  0  0  0  0  0  0  0
   59.4690   34.4760   47.4780 C   0  0  0  0  0  0  0  0  0  0  0  0
   59.1280   33.1670   47.1330 C   0  0  0  0  0  0  0  0  0  0  0  0
   59.1170   31.9810   48.0410 C   0  0  0  0  0  0  0  0  0  0  0  0
   62.3240   34.2323   46.2111 H   0  0  0  0  0  0  0  0  0  0  0  0
   64.0758   34.4704   45.8931 H   0  0  0  0  0  0  0  0  0  0  0  0
   63.3800   32.8144   45.8931 H   0  0  0  0  0  0  0  0  0  0  0  0
   64.5879   33.1889   47.9851 H   0  0  0  0  0  0  0  0  0  0  0  0
   63.6204   34.7062   48.2726 H   0  0  0  0  0  0  0  0  0  0  0  0
   61.7907   33.5816   49.0000 H   0  0  0  0  0  0  0  0  0  0  0  0
   62.1026   32.1693   47.8974 H   0  0  0  0  0  0  0  0  0  0  0  0
   63.9033   31.3943   49.3934 H   0  0  0  0  0  0  0  0  0  0  0  0
   63.5560   32.7912   50.5038 H   0  0  0  0  0  0  0  0  0  0  0  0
   62.6260   30.5450   51.0320 H   0  0  0  0  0  0  0  0  0  0  0  0
   60.7490   31.2717   52.1047 H   0  0  0  0  0  0  0  0  0  0  0  0
   62.0755   32.5629   52.1159 H   0  0  0  0  0  0  0  0  0  0  0  0
   60.8261   34.0724   51.0616 H   0  0  0  0  0  0  0  0  0  0  0  0
   60.0461   32.8126   49.9934 H   0  0  0  0  0  0  0  0  0  0  0  0
   59.2798   33.0209   52.9019 H   0  0  0  0  0  0  0  0  0  0  0  0
   58.5805   34.1538   51.6724 H   0  0  0  0  0  0  0  0  0  0  0  0
   60.2572   30.9045   49.5422 H   0  0  0  0  0  0  0  0  0  0  0  0
   61.7787   30.4740   48.5985 H   0  0  0  0  0  0  0  0  0  0  0  0
   62.1098   28.5009   49.9334 H   0  0  0  0  0  0  0  0  0  0  0  0
   60.6709   28.9233   50.9577 H   0  0  0  0  0  0  0  0  0  0  0  0
   60.7430   27.9828   48.0642 H   0  0  0  0  0  0  0  0  0  0  0  0
   59.8513   27.2917   49.4835 H   0  0  0  0  0  0  0  0  0  0  0  0
   58.3990   29.3510   49.4180 H   0  0  0  0  0  0  0  0  0  0  0  0
   56.9017   31.9302   43.7941 H   0  0  0  0  0  0  0  0  0  0  0  0
   58.4464   31.6005   42.9386 H   0  0  0  0  0  0  0  0  0  0  0  0
   57.1390   30.3686   42.9386 H   0  0  0  0  0  0  0  0  0  0  0  0
   57.9105   28.6926   42.8392 H   0  0  0  0  0  0  0  0  0  0  0  0
   57.9281   26.2367   43.2049 H   0  0  0  0  0  0  0  0  0  0  0  0
   58.3011   25.3038   45.4785 H   0  0  0  0  0  0  0  0  0  0  0  0
   58.7211   26.8219   47.4014 H   0  0  0  0  0  0  0  0  0  0  0  0
   58.7874   33.4788   43.7471 H   0  0  0  0  0  0  0  0  0  0  0  0
   59.3475   35.8530   44.3405 H   0  0  0  0  0  0  0  0  0  0  0  0
   59.7712   36.4875   46.7211 H   0  0  0  0  0  0  0  0  0  0  0  0
   59.6864   34.7419   48.5230 H   0  0  0  0  0  0  0  0  0  0  0  0
   60.0956   31.8288   48.5198 H   0  0  0  0  0  0  0  0  0  0  0  0
   58.4130   32.0587   48.8826 H   0  0  0  0  0  0  0  0  0  0  0  0
  1  2  1  0
  2  3  1  0
  3  4  1  0
  4  5  1  0
  5  6  1  0
  6  7  1  0
  7  8  1  0
  8  9  1  0
  5 10  1  0
 10 11  1  0
 11 12  1  0
 12 13  1  0
 13 14  1  0
 14 15  2  0
 15 16  1  0
 16 17  2  0
 17 18  1  0
 17 19  1  0
 19 20  2  0
 20 21  1  0
 21 22  2  0
 22 23  1  0
 23 24  2  0
 16 25  1  0
 25 26  2  0
 26 27  1  0
 27 28  2  0
 28 29  1  0
 29 30  2  0
 30 31  1  0
 24 14  1  0
 30 25  1  0
 31 15  1  0
 24 19  1  0
  1 32  1  0
  1 33  1  0
  1 34  1  0
  2 35  1  0
  2 36  1  0
  3 37  1  0
  3 38  1  0
  4 39  1  0
  4 40  1  0
  5 41  1  1
  6 42  1  0
  6 43  1  0
  7 44  1  0
  7 45  1  0
  8 46  1  0
  8 47  1  0
 10 48  1  0
 10 49  1  0
 11 50  1  0
 11 51  1  0
 12 52  1  0
 12 53  1  0
 13 54  1  0
 18 55  1  0
 18 56  1  0
 18 57  1  0
 20 58  1  0
 21 59  1  0
 22 60  1  0
 23 61  1  0
 26 62  1  0
 27 63  1  0
 28 64  1  0
 29 65  1  0
 31 66  1  0
 31 67  1  0
M  CHG  2   5   1  17   1
M  END
>  <UniqueID>  (5) 
5

>  <SMILES>  (5) 
CCCC[N@@H+](CCCBr)CCCNc1c2c([n+](C)c3ccccc13)-c1ccccc1C2

>  <Energy>  (5) 
111.14700495136489

>  <Genealogy>  (5) 
CCCC[NH+](CCCBr)CCCNc1c2c([n+](C)c3ccccc13)-c1ccccc1C2 (protonated)
CCCC[N@@H+](CCCBr)CCCNc1c2c([n+](C)c3ccccc13)-c1ccccc1C2 (chirality)
CCCC[N@@H+](CCCBr)CCCNc1c2c([n+](C)c3ccccc13)-c1ccccc1C2 (3D coordinates assigned)
CCCC[N@@H+](CCCBr)CCCNc1c2c([n+](C)c3ccccc13)-c1ccccc1C2 (nonaromatic ring conformer: 111.14700495136489 kcal/mol)

>  <smiles>  (5) 
CCCCN(CCCBr)CCCNc1c2c([n+](C)c3ccccc13)-c1ccccc1C2

>  <score_type>  (5) 
oracle

>  <origin>  (5) 
adg

>  <m_score__min__energy>  (5) 
-5.2300000000000004

>  <m_primary>  (5) 
energy

$$$$
5:0
     RDKit          3D

 48 52  0  0  0  0  0  0  0  0999 V2000
   58.0420   32.2580   42.2200 C   0  0  0  0  0  0  0  0  0  0  0  0
   57.8230   32.1510   43.6640 N   0  0  0  0  0  0  0  0  0  0  0  0
   57.2890   31.1120   44.3690 C   0  0  0  0  0  0  0  0  0  0  0  0
   56.6100   29.9070   43.7540 C   0  0  0  0  0  0  0  0  0  0  0  0
   57.1120   28.6080   44.2650 N   0  0  0  0  0  0  0  0  0  0  0  0
   58.4280   28.2080   43.7450 C   0  0  0  0  0  0  0  0  0  0  0  0
   59.3150   27.8190   44.9290 C   0  0  1  0  0  0  0  0  0  0  0  0
   60.3530   28.8820   45.3130 C   0  0  0  0  0  0  0  0  0  0  0  0
   60.1780   29.1180   46.7350 N   0  0  0  0  0  0  0  0  0  0  0  0
   60.8660   30.1680   47.4400 C   0  0  0  0  0  0  0  0  0  0  0  0
   61.2440   31.2920   46.7700 N   0  0  0  0  0  0  0  0  0  0  0  0
   61.8710   32.3170   47.4040 C   0  0  0  0  0  0  0  0  0  0  0  0
   62.1370   32.2280   48.7670 C   0  0  0  0  0  0  0  0  0  0  0  0
   61.7550   31.0710   49.4440 C   0  0  0  0  0  0  0  0  0  0  0  0
   61.1320   30.0630   48.7760 N   0  0  0  0  0  0  0  0  0  0  0  0
   59.1280   28.2980   47.3130 C   0  0  0  0  0  0  0  0  0  0  0  0
   58.3820   27.6930   46.1200 C   0  0  1  0  0  0  0  0  0  0  0  0
   57.1290   28.4810   45.7300 C   0  0  0  0  0  0  0  0  0  0  0  0
   57.3930   31.2720   45.7140 N   0  0  0  0  0  0  0  0  0  0  0  0
   58.0020   32.4630   45.8390 C   0  0  0  0  0  0  0  0  0  0  0  0
   58.3380   33.1230   47.0190 C   0  0  0  0  0  0  0  0  0  0  0  0
   58.9790   34.3710   46.9110 C   0  0  0  0  0  0  0  0  0  0  0  0
   59.2700   34.9170   45.6400 C   0  0  0  0  0  0  0  0  0  0  0  0
   58.9210   34.2220   44.4680 C   0  0  0  0  0  0  0  0  0  0  0  0
   58.2730   32.9930   44.6120 C   0  0  0  0  0  0  0  0  0  0  0  0
   59.0157   32.7337   42.0311 H   0  0  0  0  0  0  0  0  0  0  0  0
   58.0317   31.2534   41.7721 H   0  0  0  0  0  0  0  0  0  0  0  0
   57.2431   32.8673   41.7721 H   0  0  0  0  0  0  0  0  0  0  0  0
   55.5327   29.9701   43.9674 H   0  0  0  0  0  0  0  0  0  0  0  0
   56.8294   29.9324   42.6764 H   0  0  0  0  0  0  0  0  0  0  0  0
   58.8832   29.0478   43.1995 H   0  0  0  0  0  0  0  0  0  0  0  0
   58.3204   27.3568   43.0566 H   0  0  0  0  0  0  0  0  0  0  0  0
   59.8626   26.9057   44.6534 H   0  0  0  0  0  0  0  0  0  0  0  0
   60.1777   29.8090   44.7474 H   0  0  0  0  0  0  0  0  0  0  0  0
   61.3755   28.5478   45.0832 H   0  0  0  0  0  0  0  0  0  0  0  0
   62.1675   33.2146   46.8416 H   0  0  0  0  0  0  0  0  0  0  0  0
   62.6371   33.0515   49.2978 H   0  0  0  0  0  0  0  0  0  0  0  0
   61.9578   30.9728   50.5207 H   0  0  0  0  0  0  0  0  0  0  0  0
   60.8630   29.2050   49.3090 H   0  0  0  0  0  0  0  0  0  0  0  0
   58.4483   28.9143   47.9197 H   0  0  0  0  0  0  0  0  0  0  0  0
   59.5343   27.5217   47.9781 H   0  0  0  0  0  0  0  0  0  0  0  0
   58.0896   26.6673   46.3890 H   0  0  0  0  0  0  0  0  0  0  0  0
   57.1568   29.4792   46.1913 H   0  0  0  0  0  0  0  0  0  0  0  0
   56.2251   27.9607   46.0798 H   0  0  0  0  0  0  0  0  0  0  0  0
   58.1101   32.6836   48.0013 H   0  0  0  0  0  0  0  0  0  0  0  0
   59.2551   34.9247   47.8205 H   0  0  0  0  0  0  0  0  0  0  0  0
   59.7730   35.8925   45.5670 H   0  0  0  0  0  0  0  0  0  0  0  0
   59.1503   34.6318   43.4733 H   0  0  0  0  0  0  0  0  0  0  0  0
  1  2  1  0
  2  3  1  0
  3  4  1  0
  4  5  1  0
  5  6  1  0
  6  7  1  0
  7  8  1  0
  8  9  1  0
  9 10  1  0
 10 11  2  0
 11 12  1  0
 12 13  2  0
 13 14  1  0
 14 15  2  0
  9 16  1  0
 16 17  1  0
 17 18  1  0
  3 19  2  0
 19 20  1  0
 20 21  2  0
 21 22  1  0
 22 23  2  0
 23 24  1  0
 24 25  2  0
 25  2  1  0
 18  5  1  0
 25 20  1  0
 17  7  1  0
 15 10  1  0
  1 26  1  0
  1 27  1  0
  1 28  1  0
  4 29  1  0
  4 30  1  0
  6 31  1  0
  6 32  1  0
  7 33  1  6
  8 34  1  0
  8 35  1  0
 12 36  1  0
 13 37  1  0
 14 38  1  0
 15 39  1  0
 16 40  1  0
 16 41  1  0
 17 42  1  1
 18 43  1  0
 18 44  1  0
 21 45  1  0
 22 46  1  0
 23 47  1  0
 24 48  1  0
M  CHG  1  15   1
M  END
>  <UniqueID>  (6) 
6

>  <SMILES>  (6) 
Cn1c(CN2C[C@@H]3CN(c4nccc[nH+]4)C[C@@H]3C2)nc2ccccc21

>  <Energy>  (6) 
97.78465755695362

>  <Genealogy>  (6) 
Cn1c(CN2CC3CN(c4nccc[nH+]4)CC3C2)nc2ccccc21 (protonated)
Cn1c(CN2C[C@@H]3CN(c4nccc[nH+]4)C[C@@H]3C2)nc2ccccc21 (chirality)
Cn1c(CN2C[C@@H]3CN(c4nccc[nH+]4)C[C@@H]3C2)nc2ccccc21 (3D coordinates assigned)
Cn1c(CN2C[C@@H]3CN(c4nccc[nH+]4)C[C@@H]3C2)nc2ccccc21 (nonaromatic ring conformer: 97.78465755695362 kcal/mol)

>  <smiles>  (6) 
Cn1c(CN2CC3CN(c4ncccn4)CC3C2)nc2ccccc21

>  <score_type>  (6) 
oracle

>  <origin>  (6) 
adg

>  <m_score__min__energy>  (6) 
-6.8700000000000001

>  <m_primary>  (6) 
energy

$$$$
6:0
     RDKit          3D

 65 68  0  0  0  0  0  0  0  0999 V2000
   57.6240   32.2930   41.3240 C   0  0  0  0  0  0  0  0  0  0  0  0
   58.1400   32.6260   42.7220 C   0  0  0  0  0  0  0  0  0  0  0  0
   57.6910   31.6020   43.6940 N   0  0  0  0  0  0  0  0  0  0  0  0
   56.7860   30.6190   43.0530 C   0  0  0  0  0  0  0  0  0  0  0  0
   56.1180   29.7370   44.1050 C   0  0  0  0  0  0  0  0  0  0  0  0
   57.0370   32.2340   44.8640 C   0  0  0  0  0  0  0  0  0  0  0  0
   57.9640   33.2760   45.4940 C   0  0  0  0  0  0  0  0  0  0  0  0
   59.2950   32.7070   45.7060 N   0  0  0  0  0  0  0  0  0  0  0  0
   59.5670   31.8370   46.8190 C   0  0  0  0  0  0  0  0  0  0  0  0
   59.6910   32.3650   48.1160 C   0  0  0  0  0  0  0  0  0  0  0  0
   59.5980   33.7550   48.3460 C   0  0  0  0  0  0  0  0  0  0  0  0
   59.6570   34.2700   49.6380 C   0  0  0  0  0  0  0  0  0  0  0  0
   59.8000   33.4120   50.7220 C   0  0  0  0  0  0  0  0  0  0  0  0
   59.9300   32.0400   50.5170 C   0  0  0  0  0  0  0  0  0  0  0  0
   59.9300   31.4900   49.2100 C   0  0  0  0  0  0  0  0  0  0  0  0
   60.1470   30.1430   48.9870 N   0  0  0  0  0  0  0  0  0  0  0  0
   60.6810   29.2910   50.0770 C   0  0  0  0  0  0  0  0  0  0  0  0
   59.9100   29.5970   47.7370 C   0  0  0  0  0  0  0  0  0  0  0  0
   59.8830   28.1940   47.5300 C   0  0  0  0  0  0  0  0  0  0  0  0
   59.6840   27.6450   46.2550 C   0  0  0  0  0  0  0  0  0  0  0  0
   59.7070   26.2170   46.0570 N   0  0  0  0  0  0  0  0  0  0  0  0
   58.3710   25.7400   45.7930 C   0  0  0  0  0  0  0  0  0  0  0  0
   57.2580   26.4160   46.3230 C   0  0  0  0  0  0  0  0  0  0  0  0
   55.9650   25.9600   46.0590 C   0  0  0  0  0  0  0  0  0  0  0  0
   55.7660   24.8400   45.2450 C   0  0  0  0  0  0  0  0  0  0  0  0
   56.8630   24.1710   44.6740 C   0  0  0  0  0  0  0  0  0  0  0  0
   56.6530   22.9350   43.8370 C   0  0  0  0  0  0  0  0  0  0  0  0
   56.3510   23.3080   42.5390 F   0  0  0  0  0  0  0  0  0  0  0  0
   57.7950   22.1540   43.8260 F   0  0  0  0  0  0  0  0  0  0  0  0
   55.6120   22.1720   44.3400 F   0  0  0  0  0  0  0  0  0  0  0  0
   58.1640   24.6130   44.9760 C   0  0  0  0  0  0  0  0  0  0  0  0
   59.5030   28.5010   45.1650 C   0  0  0  0  0  0  0  0  0  0  0  0
   59.4870   29.8800   45.3450 C   0  0  0  0  0  0  0  0  0  0  0  0
   59.6620   30.4460   46.6250 C   0  0  0  0  0  0  0  0  0  0  0  0
   56.7023   31.6982   41.4054 H   0  0  0  0  0  0  0  0  0  0  0  0
   57.4120   33.2251   40.7797 H   0  0  0  0  0  0  0  0  0  0  0  0
   58.3860   31.7158   40.7797 H   0  0  0  0  0  0  0  0  0  0  0  0
   59.2395   32.6534   42.7058 H   0  0  0  0  0  0  0  0  0  0  0  0
   57.7427   33.6058   43.0257 H   0  0  0  0  0  0  0  0  0  0  0  0
   56.0109   31.1567   42.4872 H   0  0  0  0  0  0  0  0  0  0  0  0
   57.3762   29.9811   42.3787 H   0  0  0  0  0  0  0  0  0  0  0  0
   56.3890   30.0948   45.1092 H   0  0  0  0  0  0  0  0  0  0  0  0
   55.0259   29.7826   43.9819 H   0  0  0  0  0  0  0  0  0  0  0  0
   56.4578   28.6981   43.9819 H   0  0  0  0  0  0  0  0  0  0  0  0
   56.1078   32.7248   44.5388 H   0  0  0  0  0  0  0  0  0  0  0  0
   56.8128   31.4577   45.6104 H   0  0  0  0  0  0  0  0  0  0  0  0
   58.0429   34.1445   44.8236 H   0  0  0  0  0  0  0  0  0  0  0  0
   57.5480   33.5862   46.4639 H   0  0  0  0  0  0  0  0  0  0  0  0
   59.9520   32.6950   44.8930 H   0  0  0  0  0  0  0  0  0  0  0  0
   59.4774   34.4396   47.4935 H   0  0  0  0  0  0  0  0  0  0  0  0
   59.5905   35.3558   49.8009 H   0  0  0  0  0  0  0  0  0  0  0  0
   59.8106   33.8172   51.7446 H   0  0  0  0  0  0  0  0  0  0  0  0
   60.0345   31.3716   51.3844 H   0  0  0  0  0  0  0  0  0  0  0  0
   60.4082   29.7262   51.0497 H   0  0  0  0  0  0  0  0  0  0  0  0
   60.2544   28.2804   49.9949 H   0  0  0  0  0  0  0  0  0  0  0  0
   61.7765   29.2344   49.9949 H   0  0  0  0  0  0  0  0  0  0  0  0
   60.0213   27.5212   48.3892 H   0  0  0  0  0  0  0  0  0  0  0  0
   60.3320   25.9580   45.2580 H   0  0  0  0  0  0  0  0  0  0  0  0
   60.1010   25.7570   46.9110 H   0  0  0  0  0  0  0  0  0  0  0  0
   57.4066   27.3084   46.9487 H   0  0  0  0  0  0  0  0  0  0  0  0
   55.1000   26.4832   46.4926 H   0  0  0  0  0  0  0  0  0  0  0  0
   54.7448   24.4803   45.0504 H   0  0  0  0  0  0  0  0  0  0  0  0
   59.0301   24.0710   44.5685 H   0  0  0  0  0  0  0  0  0  0  0  0
   59.3722   28.0807   44.1569 H   0  0  0  0  0  0  0  0  0  0  0  0
   59.3357   30.5385   44.4769 H   0  0  0  0  0  0  0  0  0  0  0  0
  1  2  1  0
  2  3  1  0
  3  4  1  0
  4  5  1  0
  3  6  1  0
  6  7  1  0
  7  8  1  0
  8  9  1  0
  9 10  2  0
 10 11  1  0
 11 12  2  0
 12 13  1  0
 13 14  2  0
 14 15  1  0
 15 16  2  0
 16 17  1  0
 16 18  1  0
 18 19  2  0
 19 20  1  0
 20 21  1  0
 21 22  1  0
 22 23  2  0
 23 24  1  0
 24 25  2  0
 25 26  1  0
 26 27  1  0
 27 28  1  0
 27 29  1  0
 27 30  1  0
 26 31  2  0
 20 32  2  0
 32 33  1  0
 33 34  2  0
 34  9  1  0
 15 10  1  0
 34 18  1  0
 31 22  1  0
  1 35  1  0
  1 36  1  0
  1 37  1  0
  2 38  1  0
  2 39  1  0
  4 40  1  0
  4 41  1  0
  5 42  1  0
  5 43  1  0
  5 44  1  0
  6 45  1  0
  6 46  1  0
  7 47  1  0
  7 48  1  0
  8 49  1  0
 11 50  1  0
 12 51  1  0
 13 52  1  0
 14 53  1  0
 17 54  1  0
 17 55  1  0
 17 56  1  0
 19 57  1  0
 21 58  1  0
 21 59  1  0
 23 60  1  0
 24 61  1  0
 25 62  1  0
 31 63  1  0
 32 64  1  0
 33 65  1  0
M  CHG  2  16   1  21   1
M  END
>  <UniqueID>  (7) 
7

>  <SMILES>  (7) 
CCN(CC)CCNc1c2ccccc2[n+](C)c2cc([NH2+]c3cccc(C(F)(F)F)c3)ccc12

>  <Energy>  (7) 
94.13241023084198

>  <Genealogy>  (7) 
CCN(CC)CCNc1c2ccccc2[n+](C)c2cc([NH2+]c3cccc(C(F)(F)F)c3)ccc12 (protonated)
CCN(CC)CCNc1c2ccccc2[n+](C)c2cc([NH2+]c3cccc(C(F)(F)F)c3)ccc12 (3D coordinates assigned)
CCN(CC)CCNc1c2ccccc2[n+](C)c2cc([NH2+]c3cccc(C(F)(F)F)c3)ccc12 (optimized conformer: 94.13241023084198 kcal/mol)

>  <smiles>  (7) 
CCN(CC)CCNc1c2ccccc2[n+](C)c2cc(Nc3cccc(C(F)(F)F)c3)ccc12

>  <score_type>  (7) 
oracle

>  <origin>  (7) 
adg

>  <m_score__min__energy>  (7) 
-5.5099999999999998

>  <m_primary>  (7) 
energy

$$$$
7:0
     RDKit          3D

 53 54  0  0  0  0  0  0  0  0999 V2000
   56.5840   29.9290   42.9290 C   0  0  0  0  0  0  0  0  0  0  0  0
   55.3250   29.7060   43.7500 C   0  0  0  0  0  0  0  0  0  0  0  0
   55.6460   28.9530   44.9150 O   0  0  0  0  0  0  0  0  0  0  0  0
   56.9240   28.9380   45.4840 C   0  0  0  0  0  0  0  0  0  0  0  0
   57.5140   30.1070   45.8610 N   0  0  0  0  0  0  0  0  0  0  0  0
   58.7350   30.1500   46.4570 C   0  0  0  0  0  0  0  0  0  0  0  0
   59.3240   31.4820   46.8540 C   0  0  0  0  0  0  0  0  0  0  0  0
   58.4650   32.2670   47.7760 N   0  0  0  0  0  0  0  0  0  0  0  0
   59.2610   33.0850   48.7070 C   0  0  0  0  0  0  0  0  0  0  0  0
   57.4450   33.0900   47.0910 C   0  0  0  0  0  0  0  0  0  0  0  0
   58.0380   33.7840   45.8530 C   0  0  0  0  0  0  0  0  0  0  0  0
   57.7780   33.0810   44.5300 C   0  0  0  0  0  0  0  0  0  0  0  0
   57.0280   34.3590   44.8720 C   0  0  0  0  0  0  0  0  0  0  0  0
   59.4220   28.9560   46.7020 C   0  0  0  0  0  0  0  0  0  0  0  0
   58.8460   27.7440   46.3250 C   0  0  0  0  0  0  0  0  0  0  0  0
   57.5960   27.7160   45.6860 C   0  0  0  0  0  0  0  0  0  0  0  0
   56.9860   26.3860   45.2740 C   0  0  0  0  0  0  0  0  0  0  0  0
   56.1260   25.7550   46.3110 N   0  0  0  0  0  0  0  0  0  0  0  0
   56.8850   25.1310   47.4200 C   0  0  0  0  0  0  0  0  0  0  0  0
   56.2910   23.7790   47.8070 C   0  0  0  0  0  0  0  0  0  0  0  0
   55.1300   24.8300   45.7260 C   0  0  0  0  0  0  0  0  0  0  0  0
   55.7180   24.0670   44.5390 C   0  0  0  0  0  0  0  0  0  0  0  0
   57.4396   30.0805   43.6036 H   0  0  0  0  0  0  0  0  0  0  0  0
   56.7686   29.0496   42.2945 H   0  0  0  0  0  0  0  0  0  0  0  0
   56.4553   30.8183   42.2945 H   0  0  0  0  0  0  0  0  0  0  0  0
   54.9033   30.6778   44.0461 H   0  0  0  0  0  0  0  0  0  0  0  0
   54.5875   29.1546   43.1483 H   0  0  0  0  0  0  0  0  0  0  0  0
   60.2891   31.3004   47.3496 H   0  0  0  0  0  0  0  0  0  0  0  0
   59.4282   32.0733   45.9323 H   0  0  0  0  0  0  0  0  0  0  0  0
   59.0020   32.8188   49.7424 H   0  0  0  0  0  0  0  0  0  0  0  0
   60.3314   32.8972   48.5369 H   0  0  0  0  0  0  0  0  0  0  0  0
   59.0441   34.1499   48.5369 H   0  0  0  0  0  0  0  0  0  0  0  0
   56.6125   32.4433   46.7768 H   0  0  0  0  0  0  0  0  0  0  0  0
   57.0903   33.8621   47.7896 H   0  0  0  0  0  0  0  0  0  0  0  0
   58.9270   34.1740   46.3703 H   0  0  0  0  0  0  0  0  0  0  0  0
   58.5465   33.0882   43.7430 H   0  0  0  0  0  0  0  0  0  0  0  0
   57.4851   32.0626   44.2348 H   0  0  0  0  0  0  0  0  0  0  0  0
   57.2541   35.2906   44.3325 H   0  0  0  0  0  0  0  0  0  0  0  0
   55.9680   34.6480   44.9267 H   0  0  0  0  0  0  0  0  0  0  0  0
   60.4086   28.9736   47.1881 H   0  0  0  0  0  0  0  0  0  0  0  0
   59.3751   26.8016   46.5298 H   0  0  0  0  0  0  0  0  0  0  0  0
   56.3745   26.5521   44.3749 H   0  0  0  0  0  0  0  0  0  0  0  0
   57.8255   25.6965   45.1013 H   0  0  0  0  0  0  0  0  0  0  0  0
   57.9284   24.9865   47.1032 H   0  0  0  0  0  0  0  0  0  0  0  0
   56.8323   25.7964   48.2943 H   0  0  0  0  0  0  0  0  0  0  0  0
   56.2541   23.6950   48.9032 H   0  0  0  0  0  0  0  0  0  0  0  0
   55.2732   23.6952   47.3983 H   0  0  0  0  0  0  0  0  0  0  0  0
   56.9177   22.9726   47.3983 H   0  0  0  0  0  0  0  0  0  0  0  0
   54.8136   24.1098   46.4949 H   0  0  0  0  0  0  0  0  0  0  0  0
   54.2716   25.4195   45.3717 H   0  0  0  0  0  0  0  0  0  0  0  0
   56.3506   23.2461   44.9078 H   0  0  0  0  0  0  0  0  0  0  0  0
   54.9019   23.6547   43.9275 H   0  0  0  0  0  0  0  0  0  0  0  0
   56.3247   24.7512   43.9275 H   0  0  0  0  0  0  0  0  0  0  0  0
  1  2  1  0
  2  3  1  0
  3  4  1  0
  4  5  2  0
  5  6  1  0
  6  7  1  0
  7  8  1  0
  8  9  1  0
  8 10  1  0
 10 11  1  0
 11 12  1  0
 12 13  1  0
  6 14  2  0
 14 15  1  0
 15 16  2  0
 16 17  1  0
 17 18  1  0
 18 19  1  0
 19 20  1  0
 18 21  1  0
 21 22  1  0
 16  4  1  0
 13 11  1  0
  1 23  1  0
  1 24  1  0
  1 25  1  0
  2 26  1  0
  2 27  1  0
  7 28  1  0
  7 29  1  0
  9 30  1  0
  9 31  1  0
  9 32  1  0
 10 33  1  0
 10 34  1  0
 11 35  1  0
 12 36  1  0
 12 37  1  0
 13 38  1  0
 13 39  1  0
 14 40  1  0
 15 41  1  0
 17 42  1  0
 17 43  1  0
 19 44  1  0
 19 45  1  0
 20 46  1  0
 20 47  1  0
 20 48  1  0
 21 49  1  0
 21 50  1  0
 22 51  1  0
 22 52  1  0
 22 53  1  0
M  END
>  <UniqueID>  (8) 
8

>  <SMILES>  (8) 
CCOc1nc(CN(C)CC2CC2)ccc1CN(CC)CC

>  <Energy>  (8) 
314.0746016428163

>  <Genealogy>  (8) 
CCOc1nc(CN(C)CC2CC2)ccc1CN(CC)CC (3D coordinates assigned)
CCOc1nc(CN(C)CC2CC2)ccc1CN(CC)CC (nonaromatic ring conformer: 314.0746016428163 kcal/mol)

>  <smiles>  (8) 
CCOc1nc(CN(C)CC2CC2)ccc1CN(CC)CC

>  <score_type>  (8) 
oracle

>  <origin>  (8) 
adg

>  <m_score__min__energy>  (8) 
-6.4699999999999998

>  <m_primary>  (8) 
energy

$$$$
8:0
     RDKit          3D

 56 57  0  0  0  0  0  0  0  0999 V2000
   56.6410   29.3460   43.0190 C   0  0  0  0  0  0  0  0  0  0  0  0
   56.7400   30.8620   43.1410 C   0  0  0  0  0  0  0  0  0  0  0  0
   56.4620   31.2800   44.4750 O   0  0  0  0  0  0  0  0  0  0  0  0
   57.4070   31.2360   45.5040 C   0  0  0  0  0  0  0  0  0  0  0  0
   57.7710   30.1130   46.1510 N   0  0  0  0  0  0  0  0  0  0  0  0
   58.6800   30.4510   47.0510 N   0  0  0  0  0  0  0  0  0  0  0  0
   59.2310   29.5010   48.0190 C   0  0  0  0  0  0  0  0  0  0  0  0
   58.6460   28.1010   47.8000 C   0  0  0  0  0  0  0  0  0  0  0  0
   58.9590   27.6060   46.4400 N   0  0  0  0  0  0  0  0  0  0  0  0
   58.6420   26.1690   46.3380 C   0  0  0  0  0  0  0  0  0  0  0  0
   60.3720   27.8590   46.0790 C   0  0  0  0  0  0  0  0  0  0  0  0
   60.4510   28.7670   44.8560 C   0  0  0  0  0  0  0  0  0  0  0  0
   58.8940   31.7870   47.0040 C   0  0  0  0  0  0  0  0  0  0  0  0
   59.7570   32.5220   47.9490 C   0  0  0  0  0  0  0  0  0  0  0  0
   61.0180   32.9630   47.5260 C   0  0  0  0  0  0  0  0  0  0  0  0
   61.8500   33.6800   48.3900 C   0  0  0  0  0  0  0  0  0  0  0  0
   63.1040   34.0930   47.9160 O   0  0  0  0  0  0  0  0  0  0  0  0
   63.7420   33.5570   46.7610 C   0  0  0  0  0  0  0  0  0  0  0  0
   61.4060   33.9620   49.6940 C   0  0  0  0  0  0  0  0  0  0  0  0
   60.1480   33.5300   50.1190 C   0  0  0  0  0  0  0  0  0  0  0  0
   59.3100   32.8050   49.2510 C   0  0  0  0  0  0  0  0  0  0  0  0
   58.0420   32.3490   49.6480 O   0  0  0  0  0  0  0  0  0  0  0  0
   57.7280   31.8710   50.9510 C   0  0  0  0  0  0  0  0  0  0  0  0
   58.0890   32.3290   46.0080 C   0  0  0  0  0  0  0  0  0  0  0  0
   57.9690   33.7300   45.5400 C   0  0  0  0  0  0  0  0  0  0  0  0
   59.1640   34.5600   45.1870 C   0  0  0  0  0  0  0  0  0  0  0  0
   56.8250   34.2460   45.4340 O   0  0  0  0  0  0  0  0  0  0  0  0
   56.6118   28.8985   44.0234 H   0  0  0  0  0  0  0  0  0  0  0  0
   55.7236   29.0812   42.4728 H   0  0  0  0  0  0  0  0  0  0  0  0
   57.5161   28.9642   42.4728 H   0  0  0  0  0  0  0  0  0  0  0  0
   57.7567   31.1805   42.8674 H   0  0  0  0  0  0  0  0  0  0  0  0
   56.0017   31.3197   42.4662 H   0  0  0  0  0  0  0  0  0  0  0  0
   60.3237   29.4580   47.9004 H   0  0  0  0  0  0  0  0  0  0  0  0
   58.9693   29.8383   49.0328 H   0  0  0  0  0  0  0  0  0  0  0  0
   59.0744   27.4112   48.5421 H   0  0  0  0  0  0  0  0  0  0  0  0
   57.5531   28.1545   47.9123 H   0  0  0  0  0  0  0  0  0  0  0  0
   58.5478   25.7418   47.3473 H   0  0  0  0  0  0  0  0  0  0  0  0
   57.6939   26.0403   45.7953 H   0  0  0  0  0  0  0  0  0  0  0  0
   59.4480   25.6533   45.7953 H   0  0  0  0  0  0  0  0  0  0  0  0
   60.8814   28.3441   46.9247 H   0  0  0  0  0  0  0  0  0  0  0  0
   60.8590   26.9007   45.8455 H   0  0  0  0  0  0  0  0  0  0  0  0
   60.5421   29.8137   45.1817 H   0  0  0  0  0  0  0  0  0  0  0  0
   61.3287   28.4932   44.2521 H   0  0  0  0  0  0  0  0  0  0  0  0
   59.5392   28.6489   44.2521 H   0  0  0  0  0  0  0  0  0  0  0  0
   61.3566   32.7424   46.5029 H   0  0  0  0  0  0  0  0  0  0  0  0
   64.5502   32.8780   47.0704 H   0  0  0  0  0  0  0  0  0  0  0  0
   63.0065   33.0018   46.1603 H   0  0  0  0  0  0  0  0  0  0  0  0
   64.1620   34.3772   46.1603 H   0  0  0  0  0  0  0  0  0  0  0  0
   62.0527   34.5256   50.3826 H   0  0  0  0  0  0  0  0  0  0  0  0
   59.8091   33.7581   51.1403 H   0  0  0  0  0  0  0  0  0  0  0  0
   58.1685   32.5415   51.7036 H   0  0  0  0  0  0  0  0  0  0  0  0
   56.6357   31.8441   51.0783 H   0  0  0  0  0  0  0  0  0  0  0  0
   58.1371   30.8579   51.0783 H   0  0  0  0  0  0  0  0  0  0  0  0
   59.6575   34.9028   46.1084 H   0  0  0  0  0  0  0  0  0  0  0  0
   59.8686   33.9559   44.5966 H   0  0  0  0  0  0  0  0  0  0  0  0
   58.8439   35.4312   44.5966 H   0  0  0  0  0  0  0  0  0  0  0  0
  1  2  1  0
  2  3  1  0
  3  4  1  0
  4  5  2  0
  5  6  1  0
  6  7  1  0
  7  8  1  0
  8  9  1  0
  9 10  1  0
  9 11  1  0
 11 12  1  0
  6 13  1  0
 13 14  1  0
 14 15  2  0
 15 16  1  0
 16 17  1  0
 17 18  1  0
 16 19  2  0
 19 20  1  0
 20 21  2  0
 21 22  1  0
 22 23  1  0
 13 24  2  0
 24 25  1  0
 25 26  1  0
 25 27  2  0
 24  4  1  0
 21 14  1  0
  1 28  1  0
  1 29  1  0
  1 30  1  0
  2 31  1  0
  2 32  1  0
  7 33  1  0
  7 34  1  0
  8 35  1  0
  8 36  1  0
 10 37  1  0
 10 38  1  0
 10 39  1  0
 11 40  1  0
 11 41  1  0
 12 42  1  0
 12 43  1  0
 12 44  1  0
 15 45  1  0
 18 46  1  0
 18 47  1  0
 18 48  1  0
 19 49  1  0
 20 50  1  0
 23 51  1  0
 23 52  1  0
 23 53  1  0
 26 54  1  0
 26 55  1  0
 26 56  1  0
M  END
>  <UniqueID>  (9) 
9

>  <SMILES>  (9) 
CCOc1nn(CCN(C)CC)c(-c2cc(OC)ccc2OC)c1C(C)=O

>  <Energy>  (9) 
82.21635214981835

>  <Genealogy>  (9) 
CCOc1nn(CCN(C)CC)c(-c2cc(OC)ccc2OC)c1C(C)=O (3D coordinates assigned)
CCOc1nn(CCN(C)CC)c(-c2cc(OC)ccc2OC)c1C(C)=O (optimized conformer: 82.21635214981835 kcal/mol)

>  <smiles>  (9) 
CCOc1nn(CCN(C)CC)c(-c2cc(OC)ccc2OC)c1C(C)=O

>  <score_type>  (9) 
oracle

>  <origin>  (9) 
adg

>  <m_score__min__energy>  (9) 
-6.9500000000000002

>  <m_primary>  (9) 
energy

$$$$
9:0
     RDKit          3D

 45 47  0  0  0  0  0  0  0  0999 V2000
   59.6490   33.2570   50.0250 C   0  0  0  0  0  0  0  0  0  0  0  0
   58.5320   32.3430   49.5300 C   0  0  0  0  0  0  0  0  0  0  0  0
   58.6460   31.0100   50.1410 N   0  0  0  0  0  0  0  0  0  0  0  0
   60.0330   30.7070   50.5220 C   0  0  0  0  0  0  0  0  0  0  0  0
   60.4550   29.3340   49.9850 C   0  0  0  0  0  0  0  0  0  0  0  0
   61.0890   29.4390   48.6690 N   0  0  0  0  0  0  0  0  0  0  0  0
   60.7330   30.4620   47.7250 C   0  0  0  0  0  0  0  0  0  0  0  0
   61.5470   31.5970   47.5780 C   0  0  0  0  0  0  0  0  0  0  0  0
   62.7780   31.6990   48.2600 C   0  0  0  0  0  0  0  0  0  0  0  0
   63.5950   32.8130   48.0920 C   0  0  0  0  0  0  0  0  0  0  0  0
   63.2070   33.8370   47.2370 C   0  0  0  0  0  0  0  0  0  0  0  0
   61.9890   33.7650   46.5620 C   0  0  0  0  0  0  0  0  0  0  0  0
   61.1160   32.6620   46.7430 C   0  0  0  0  0  0  0  0  0  0  0  0
   59.8790   32.6030   46.1300 N   0  0  0  0  0  0  0  0  0  0  0  0
   59.2940   33.8210   45.5260 C   0  0  0  0  0  0  0  0  0  0  0  0
   59.1780   31.4110   46.1010 C   0  0  0  0  0  0  0  0  0  0  0  0
   58.0620   31.2230   45.2470 C   0  0  0  0  0  0  0  0  0  0  0  0
   57.3390   30.0190   45.2370 C   0  0  0  0  0  0  0  0  0  0  0  0
   56.2020   29.8570   44.3680 N   0  0  0  0  0  0  0  0  0  0  0  0
   55.1460   29.3410   44.7890 O   0  0  0  0  0  0  0  0  0  0  0  0
   56.2550   30.2760   43.0580 O   0  0  0  0  0  0  0  0  0  0  0  0
   57.7500   28.9740   46.0720 C   0  0  0  0  0  0  0  0  0  0  0  0
   58.8650   29.1190   46.8910 C   0  0  0  0  0  0  0  0  0  0  0  0
   59.5870   30.3280   46.9200 C   0  0  0  0  0  0  0  0  0  0  0  0
   59.6570   33.2636   51.1250 H   0  0  0  0  0  0  0  0  0  0  0  0
   60.6164   32.8881   49.6535 H   0  0  0  0  0  0  0  0  0  0  0  0
   59.4788   34.2783   49.6535 H   0  0  0  0  0  0  0  0  0  0  0  0
   57.5598   32.7820   49.7985 H   0  0  0  0  0  0  0  0  0  0  0  0
   58.6144   32.2411   48.4378 H   0  0  0  0  0  0  0  0  0  0  0  0
   58.0700   31.0130   51.0160 H   0  0  0  0  0  0  0  0  0  0  0  0
   60.6984   31.4777   50.1057 H   0  0  0  0  0  0  0  0  0  0  0  0
   60.1035   30.6944   51.6197 H   0  0  0  0  0  0  0  0  0  0  0  0
   61.1677   28.8795   50.6889 H   0  0  0  0  0  0  0  0  0  0  0  0
   59.5525   28.7135   49.8825 H   0  0  0  0  0  0  0  0  0  0  0  0
   61.8860   28.8010   48.4420 H   0  0  0  0  0  0  0  0  0  0  0  0
   63.0956   30.8884   48.9324 H   0  0  0  0  0  0  0  0  0  0  0  0
   64.5483   32.8828   48.6364 H   0  0  0  0  0  0  0  0  0  0  0  0
   63.8631   34.7079   47.0920 H   0  0  0  0  0  0  0  0  0  0  0  0
   61.7006   34.5768   45.8781 H   0  0  0  0  0  0  0  0  0  0  0  0
   58.9658   34.5042   46.3232 H   0  0  0  0  0  0  0  0  0  0  0  0
   60.0503   34.3208   44.9030 H   0  0  0  0  0  0  0  0  0  0  0  0
   58.4311   33.5431   44.9030 H   0  0  0  0  0  0  0  0  0  0  0  0
   57.7552   32.0393   44.5765 H   0  0  0  0  0  0  0  0  0  0  0  0
   57.1863   28.0294   46.0808 H   0  0  0  0  0  0  0  0  0  0  0  0
   59.1869   28.2789   47.5239 H   0  0  0  0  0  0  0  0  0  0  0  0
  1  2  1  0
  2  3  1  0
  3  4  1  0
  4  5  1  0
  5  6  1  0
  6  7  1  0
  7  8  2  0
  8  9  1  0
  9 10  2  0
 10 11  1  0
 11 12  2  0
 12 13  1  0
 13 14  2  0
 14 15  1  0
 14 16  1  0
 16 17  2  0
 17 18  1  0
 18 19  1  0
 19 20  2  0
 19 21  1  0
 18 22  2  0
 22 23  1  0
 23 24  2  0
 24  7  1  0
 13  8  1  0
 24 16  1  0
  1 25  1  0
  1 26  1  0
  1 27  1  0
  2 28  1  0
  2 29  1  0
  3 30  1  0
  4 31  1  0
  4 32  1  0
  5 33  1  0
  5 34  1  0
  6 35  1  0
  9 36  1  0
 10 37  1  0
 11 38  1  0
 12 39  1  0
 15 40  1  0
 15 41  1  0
 15 42  1  0
 17 43  1  0
 22 44  1  0
 23 45  1  0
M  CHG  3  14   1  19   1  21  -1
M  END
>  <UniqueID>  (10) 
10

>  <SMILES>  (10) 
CCNCCNc1c2ccccc2[n+](C)c2cc([N+](=O)[O-])ccc12

>  <Energy>  (10) 
66.90209326921975

>  <Genealogy>  (10) 
CCNCCNc1c2ccccc2[n+](C)c2cc([N+](=O)[O-])ccc12 (3D coordinates assigned)
CCNCCNc1c2ccccc2[n+](C)c2cc([N+](=O)[O-])ccc12 (optimized conformer: 66.90209326921975 kcal/mol)

>  <smiles>  (10) 
CCNCCNc1c2ccccc2[n+](C)c2cc([N+](=O)[O-])ccc12

>  <score_type>  (10) 
oracle

>  <origin>  (10) 
adg

>  <m_score__min__energy>  (10) 
-5.7400000000000002

>  <m_primary>  (10) 
energy

$$$$
10:0
     RDKit          3D

 53 54  0  0  0  0  0  0  0  0999 V2000
   58.1372   32.4189   42.1881 H   0  0  0  0  0  0  0  0  0  0  0  0
   57.7160   32.1390   43.1650 C   0  0  0  0  0  0  0  0  0  0  0  0
   56.8510   31.1130   43.2030 C   0  0  0  0  0  0  0  0  0  0  0  0
   55.8711   31.2512   42.7226 H   0  0  0  0  0  0  0  0  0  0  0  0
   57.1290   29.7900   43.8560 C   0  0  0  0  0  0  0  0  0  0  0  0
   58.1908   29.5337   43.7260 H   0  0  0  0  0  0  0  0  0  0  0  0
   56.5030   29.0145   43.3905 H   0  0  0  0  0  0  0  0  0  0  0  0
   56.8300   29.8690   45.2340 O   0  0  0  0  0  0  0  0  0  0  0  0
   57.7310   29.0830   45.9900 C   0  0  0  0  0  0  0  0  0  0  0  0
   58.4438   28.5926   45.3107 H   0  0  0  0  0  0  0  0  0  0  0  0
   57.1638   28.3248   46.5499 H   0  0  0  0  0  0  0  0  0  0  0  0
   58.4990   29.9640   46.9790 C   0  0  0  0  0  0  0  0  0  0  0  0
   58.0870   29.8217   47.9890 H   0  0  0  0  0  0  0  0  0  0  0  0
   58.3965   31.0171   46.6781 H   0  0  0  0  0  0  0  0  0  0  0  0
   59.9340   29.5970   46.9790 N   0  0  0  0  0  0  0  0  0  0  0  0
   60.4600   29.4780   48.3580 C   0  0  0  0  0  0  0  0  0  0  0  0
   61.5278   29.7423   48.3640 H   0  0  0  0  0  0  0  0  0  0  0  0
   60.3282   28.4425   48.7050 H   0  0  0  0  0  0  0  0  0  0  0  0
   59.7020   30.4180   49.2930 C   0  0  0  0  0  0  0  0  0  0  0  0
   59.9186   30.1494   50.3375 H   0  0  0  0  0  0  0  0  0  0  0  0
   60.0199   31.4546   49.1075 H   0  0  0  0  0  0  0  0  0  0  0  0
   58.6216   30.3270   49.1075 H   0  0  0  0  0  0  0  0  0  0  0  0
   60.1780   28.3640   46.1980 C   0  0  0  0  0  0  0  0  0  0  0  0
   60.8354   27.6944   46.7720 H   0  0  0  0  0  0  0  0  0  0  0  0
   59.2163   27.8677   46.0008 H   0  0  0  0  0  0  0  0  0  0  0  0
   60.8440   28.7060   44.8680 C   0  0  0  0  0  0  0  0  0  0  0  0
   61.8079   29.2010   45.0572 H   0  0  0  0  0  0  0  0  0  0  0  0
   61.0123   27.7828   44.2941 H   0  0  0  0  0  0  0  0  0  0  0  0
   60.1918   29.3807   44.2941 H   0  0  0  0  0  0  0  0  0  0  0  0
   58.1400   32.9170   44.3460 C   0  0  0  0  0  0  0  0  0  0  0  0
   59.1640   33.8740   44.2620 C   0  0  0  0  0  0  0  0  0  0  0  0
   59.6636   34.0582   43.2995 H   0  0  0  0  0  0  0  0  0  0  0  0
   59.5510   34.5930   45.3950 C   0  0  0  0  0  0  0  0  0  0  0  0
   60.3454   35.3498   45.3168 H   0  0  0  0  0  0  0  0  0  0  0  0
   58.9320   34.3560   46.6350 C   0  0  0  0  0  0  0  0  0  0  0  0
   59.3550   35.0740   47.8140 N   0  0  0  0  0  0  0  0  0  0  0  0
   58.5220   35.5350   48.2490 H   0  0  0  0  0  0  0  0  0  0  0  0
   60.0310   35.8330   47.5610 H   0  0  0  0  0  0  0  0  0  0  0  0
   59.9630   34.1700   48.8050 C   0  0  0  0  0  0  0  0  0  0  0  0
   60.0781   34.7102   49.7563 H   0  0  0  0  0  0  0  0  0  0  0  0
   59.3027   33.2981   48.9226 H   0  0  0  0  0  0  0  0  0  0  0  0
   61.3110   33.6780   48.3590 C   0  0  0  0  0  0  0  0  0  0  0  0
   61.5800   32.5510   47.1400 S   0  0  0  0  0  0  0  0  0  0  0  0
   63.2580   32.6220   47.1960 C   0  0  0  0  0  0  0  0  0  0  0  0
   63.9483   32.0389   46.5687 H   0  0  0  0  0  0  0  0  0  0  0  0
   63.6250   33.5430   48.1700 C   0  0  0  0  0  0  0  0  0  0  0  0
   64.6719   33.7816   48.4089 H   0  0  0  0  0  0  0  0  0  0  0  0
   62.5370   34.1380   48.8180 C   0  0  0  0  0  0  0  0  0  0  0  0
   62.6428   34.8934   49.6105 H   0  0  0  0  0  0  0  0  0  0  0  0
   57.9300   33.3730   46.7220 C   0  0  0  0  0  0  0  0  0  0  0  0
   57.4476   33.1676   47.6890 H   0  0  0  0  0  0  0  0  0  0  0  0
   57.5440   32.6560   45.5870 C   0  0  0  0  0  0  0  0  0  0  0  0
   56.7671   31.8815   45.6680 H   0  0  0  0  0  0  0  0  0  0  0  0
  1  2  1  0
  2  3  2  0
  3  4  1  0
  3  5  1  0
  5  6  1  0
  5  7  1  0
  5  8  1  0
  8  9  1  0
  9 10  1  0
  9 11  1  0
  9 12  1  0
 12 13  1  0
 12 14  1  0
 12 15  1  0
 15 16  1  0
 16 17  1  0
 16 18  1  0
 16 19  1  0
 19 20  1  0
 19 21  1  0
 19 22  1  0
 15 23  1  0
 23 24  1  0
 23 25  1  0
 23 26  1  0
 26 27  1  0
 26 28  1  0
 26 29  1  0
  2 30  1  0
 30 31  2  0
 31 32  1  0
 31 33  1  0
 33 34  1  0
 33 35  2  0
 35 36  1  0
 36 37  1  0
 36 38  1  0
 36 39  1  0
 39 40  1  0
 39 41  1  0
 39 42  1  0
 42 43  1  0
 43 44  1  0
 44 45  1  0
 44 46  2  0
 46 47  1  0
 46 48  1  0
 48 49  1  0
 35 50  1  0
 50 51  1  0
 50 52  2  0
 52 53  1  0
 52 30  1  0
 48 42  2  0
M  CHG  1  36   1
M  END
>  <UniqueID>  (11) 
11

>  <SMILES>  (11) 
CCN(CC)CCOC/C=C\c1ccc([NH2+]Cc2cccs2)cc1

>  <Energy>  (11) 
80.07770390321582

>  <Genealogy>  (11) 
CCN(CC)CCOCC=Cc1ccc([NH2+]Cc2cccs2)cc1 (protonated)
CCN(CC)CCOC/C=C\c1ccc([NH2+]Cc2cccs2)cc1 (cis-trans isomerization)
CCN(CC)CCOC/C=C\c1ccc([NH2+]Cc2cccs2)cc1 (3D coordinates assigned)
CCN(CC)CCOC/C=C\c1ccc([NH2+]Cc2cccs2)cc1 (optimized conformer: 80.07770390321582 kcal/mol)

>  <smiles>  (11) 
CCN(CC)CCOCC=Cc1ccc(NCc2cccs2)cc1

>  <score_type>  (11) 
oracle

>  <origin>  (11) 
adg

>  <m_score__min__energy>  (11) 
-5.8600000000000003

>  <m_primary>  (11) 
energy

$$$$
11:0
     RDKit          3D

 41 42  0  0  0  0  0  0  0  0999 V2000
   58.6770   34.3620   44.9470 C   0  0  0  0  0  0  0  0  0  0  0  0
   57.3150   33.9080   45.4790 C   0  0  0  0  0  0  0  0  0  0  0  0
   57.3960   33.3710   46.8490 N   0  0  0  0  0  0  0  0  0  0  0  0
   58.7140   33.6130   47.4630 C   0  0  0  0  0  0  0  0  0  0  0  0
   59.3950   32.2950   47.8450 C   0  0  0  0  0  0  0  0  0  0  0  0
   58.5450   31.2180   47.5090 O   0  0  0  0  0  0  0  0  0  0  0  0
   58.9580   30.0530   48.1920 C   0  0  0  0  0  0  0  0  0  0  0  0
   60.2360   29.5250   47.5420 C   0  0  0  0  0  0  0  0  0  0  0  0
   59.9290   28.4870   46.5550 N   0  0  0  0  0  0  0  0  0  0  0  0
   58.5930   28.2640   46.0700 C   0  0  0  0  0  0  0  0  0  0  0  0
   57.8590   27.1560   46.5190 C   0  0  0  0  0  0  0  0  0  0  0  0
   56.5450   26.9780   46.0840 C   0  0  0  0  0  0  0  0  0  0  0  0
   55.8760   25.9920   46.4910 O   0  0  0  0  0  0  0  0  0  0  0  0
   55.9900   27.8450   45.2450 O   0  0  0  0  0  0  0  0  0  0  0  0
   56.6390   28.9040   44.7750 C   0  0  0  0  0  0  0  0  0  0  0  0
   55.9910   29.7660   43.8840 C   0  0  0  0  0  0  0  0  0  0  0  0
   56.6640   30.8700   43.3580 C   0  0  0  0  0  0  0  0  0  0  0  0
   57.9920   31.1160   43.7150 C   0  0  0  0  0  0  0  0  0  0  0  0
   58.6510   30.2680   44.6090 C   0  0  0  0  0  0  0  0  0  0  0  0
   57.9790   29.1590   45.1640 C   0  0  0  0  0  0  0  0  0  0  0  0
   59.3450   34.5847   45.7921 H   0  0  0  0  0  0  0  0  0  0  0  0
   59.1163   33.5617   44.3334 H   0  0  0  0  0  0  0  0  0  0  0  0
   58.5482   35.2658   44.3334 H   0  0  0  0  0  0  0  0  0  0  0  0
   56.6305   34.7691   45.4773 H   0  0  0  0  0  0  0  0  0  0  0  0
   56.9517   33.1020   44.8245 H   0  0  0  0  0  0  0  0  0  0  0  0
   56.6650   33.8510   47.4250 H   0  0  0  0  0  0  0  0  0  0  0  0
   57.1820   32.3460   46.8410 H   0  0  0  0  0  0  0  0  0  0  0  0
   59.3509   34.1518   46.7460 H   0  0  0  0  0  0  0  0  0  0  0  0
   58.5698   34.2092   48.3761 H   0  0  0  0  0  0  0  0  0  0  0  0
   60.3442   32.1992   47.2973 H   0  0  0  0  0  0  0  0  0  0  0  0
   59.5963   32.2832   48.9264 H   0  0  0  0  0  0  0  0  0  0  0  0
   59.1527   30.2933   49.2476 H   0  0  0  0  0  0  0  0  0  0  0  0
   58.1686   29.2889   48.1366 H   0  0  0  0  0  0  0  0  0  0  0  0
   60.7555   30.3556   47.0417 H   0  0  0  0  0  0  0  0  0  0  0  0
   60.8744   29.0888   48.3244 H   0  0  0  0  0  0  0  0  0  0  0  0
   60.7000   27.8670   46.2210 H   0  0  0  0  0  0  0  0  0  0  0  0
   58.3163   26.4321   47.2096 H   0  0  0  0  0  0  0  0  0  0  0  0
   54.9469   29.5731   43.5967 H   0  0  0  0  0  0  0  0  0  0  0  0
   56.1480   31.5472   42.6615 H   0  0  0  0  0  0  0  0  0  0  0  0
   58.5216   31.9815   43.2902 H   0  0  0  0  0  0  0  0  0  0  0  0
   59.6982   30.4662   44.8811 H   0  0  0  0  0  0  0  0  0  0  0  0
  1  2  1  0
  2  3  1  0
  3  4  1  0
  4  5  1  0
  5  6  1  0
  6  7  1  0
  7  8  1  0
  8  9  1  0
  9 10  1  0
 10 11  2  0
 11 12  1  0
 12 13  2  0
 12 14  1  0
 14 15  1  0
 15 16  2  0
 16 17  1  0
 17 18  2  0
 18 19  1  0
 19 20  2  0
 20 10  1  0
 20 15  1  0
  1 21  1  0
  1 22  1  0
  1 23  1  0
  2 24  1  0
  2 25  1  0
  3 26  1  0
  3 27  1  0
  4 28  1  0
  4 29  1  0
  5 30  1  0
  5 31  1  0
  7 32  1  0
  7 33  1  0
  8 34  1  0
  8 35  1  0
  9 36  1  0
 11 37  1  0
 16 38  1  0
 17 39  1  0
 18 40  1  0
 19 41  1  0
M  CHG  1   3   1
M  END
>  <UniqueID>  (12) 
12

>  <SMILES>  (12) 
CC[NH2+]CCOCCNc1cc(=O)oc2ccccc12

>  <Energy>  (12) 
42.13875609440241

>  <Genealogy>  (12) 
CC[NH2+]CCOCCNc1cc(=O)oc2ccccc12 (protonated)
CC[NH2+]CCOCCNc1cc(=O)oc2ccccc12 (3D coordinates assigned)
CC[NH2+]CCOCCNc1cc(=O)oc2ccccc12 (optimized conformer: 42.13875609440241 kcal/mol)

>  <smiles>  (12) 
CCNCCOCCNc1cc(=O)oc2ccccc12

>  <score_type>  (12) 
oracle

>  <origin>  (12) 
adg

>  <m_score__min__energy>  (12) 
-4.6200000000000001

>  <m_primary>  (12) 
energy

$$$$
12:0
     RDKit          3D

 59 61  0  0  0  0  0  0  0  0999 V2000
   60.6230   29.9550   46.3240 C   0  0  0  0  0  0  0  0  0  0  0  0
   59.5130   29.8460   47.3740 C   0  0  0  0  0  0  0  0  0  0  0  0
   58.1710   29.7950   46.7760 N   0  0  0  0  0  0  0  0  0  0  0  0
   57.8420   28.4620   46.2500 C   0  0  0  0  0  0  0  0  0  0  0  0
   57.0000   28.5790   44.9680 C   0  0  0  0  0  0  0  0  0  0  0  0
   56.5140   29.9450   44.7150 N   0  0  0  0  0  0  0  0  0  0  0  0
   57.2950   30.6460   43.6870 C   0  0  0  0  0  0  0  0  0  0  0  0
   57.7580   32.0050   44.2110 C   0  0  0  0  0  0  0  0  0  0  0  0
   57.0290   32.3540   45.4380 N   0  0  0  0  0  0  0  0  0  0  0  0
   57.2550   33.7620   45.7820 C   0  0  0  0  0  0  0  0  0  0  0  0
   58.6690   33.9660   46.3400 C   0  0  0  0  0  0  0  0  0  0  0  0
   59.1590   32.7910   47.0760 N   0  0  0  0  0  0  0  0  0  0  0  0
   60.0350   32.8850   48.2160 C   0  0  0  0  0  0  0  0  0  0  0  0
   61.3970   33.1950   48.0280 C   0  0  0  0  0  0  0  0  0  0  0  0
   61.8960   33.5210   46.7460 C   0  0  0  0  0  0  0  0  0  0  0  0
   63.2520   33.7650   46.5490 C   0  0  0  0  0  0  0  0  0  0  0  0
   64.1380   33.6570   47.6130 C   0  0  0  0  0  0  0  0  0  0  0  0
   63.6700   33.3490   48.8890 C   0  0  0  0  0  0  0  0  0  0  0  0
   62.2850   33.1580   49.1370 C   0  0  0  0  0  0  0  0  0  0  0  0
   61.8010   32.9200   50.4100 N   0  0  0  0  0  0  0  0  0  0  0  0
   62.6760   33.1390   51.5850 C   0  0  0  0  0  0  0  0  0  0  0  0
   60.4870   32.5300   50.5920 C   0  0  0  0  0  0  0  0  0  0  0  0
   60.0110   32.0670   51.8460 C   0  0  0  0  0  0  0  0  0  0  0  0
   58.6590   31.7870   52.0450 C   0  0  0  0  0  0  0  0  0  0  0  0
   57.7510   31.9600   51.0080 C   0  0  0  0  0  0  0  0  0  0  0  0
   58.1970   32.3560   49.7500 C   0  0  0  0  0  0  0  0  0  0  0  0
   59.5690   32.5830   49.5080 C   0  0  0  0  0  0  0  0  0  0  0  0
   61.5962   30.0506   46.8278 H   0  0  0  0  0  0  0  0  0  0  0  0
   60.6227   29.0525   45.6951 H   0  0  0  0  0  0  0  0  0  0  0  0
   60.4472   30.8402   45.6951 H   0  0  0  0  0  0  0  0  0  0  0  0
   59.6721   28.9293   47.9608 H   0  0  0  0  0  0  0  0  0  0  0  0
   59.5622   30.7457   48.0049 H   0  0  0  0  0  0  0  0  0  0  0  0
   58.1070   30.4970   46.0010 H   0  0  0  0  0  0  0  0  0  0  0  0
   58.7735   27.9229   46.0228 H   0  0  0  0  0  0  0  0  0  0  0  0
   57.2611   27.9152   47.0073 H   0  0  0  0  0  0  0  0  0  0  0  0
   57.6180   28.2643   44.1142 H   0  0  0  0  0  0  0  0  0  0  0  0
   56.1163   27.9370   45.0981 H   0  0  0  0  0  0  0  0  0  0  0  0
   56.5420   30.4980   45.6050 H   0  0  0  0  0  0  0  0  0  0  0  0
   58.1740   30.0400   43.4224 H   0  0  0  0  0  0  0  0  0  0  0  0
   56.6637   30.7997   42.7994 H   0  0  0  0  0  0  0  0  0  0  0  0
   58.8354   31.9620   44.4289 H   0  0  0  0  0  0  0  0  0  0  0  0
   57.5583   32.7701   43.4464 H   0  0  0  0  0  0  0  0  0  0  0  0
   57.4110   31.7680   46.2170 H   0  0  0  0  0  0  0  0  0  0  0  0
   57.1312   34.3782   44.8792 H   0  0  0  0  0  0  0  0  0  0  0  0
   56.5263   34.0585   46.5508 H   0  0  0  0  0  0  0  0  0  0  0  0
   59.3529   34.1681   45.5025 H   0  0  0  0  0  0  0  0  0  0  0  0
   58.6317   34.8100   47.0445 H   0  0  0  0  0  0  0  0  0  0  0  0
   58.7220   31.8660   46.8620 H   0  0  0  0  0  0  0  0  0  0  0  0
   61.2037   33.5826   45.8934 H   0  0  0  0  0  0  0  0  0  0  0  0
   63.6218   34.0432   45.5511 H   0  0  0  0  0  0  0  0  0  0  0  0
   65.2139   33.8153   47.4478 H   0  0  0  0  0  0  0  0  0  0  0  0
   64.3860   33.2522   49.7185 H   0  0  0  0  0  0  0  0  0  0  0  0
   62.0946   32.9935   52.5074 H   0  0  0  0  0  0  0  0  0  0  0  0
   63.5097   32.4218   51.5601 H   0  0  0  0  0  0  0  0  0  0  0  0
   63.0735   34.1643   51.5601 H   0  0  0  0  0  0  0  0  0  0  0  0
   60.7201   31.9265   52.6752 H   0  0  0  0  0  0  0  0  0  0  0  0
   58.3112   31.4285   53.0250 H   0  0  0  0  0  0  0  0  0  0  0  0
   56.6790   31.7840   51.1809 H   0  0  0  0  0  0  0  0  0  0  0  0
   57.4714   32.4936   48.9348 H   0  0  0  0  0  0  0  0  0  0  0  0
  1  2  1  0
  2  3  1  0
  3  4  1  0
  4  5  1  0
  5  6  1  0
  6  7  1  0
  7  8  1  0
  8  9  1  0
  9 10  1  0
 10 11  1  0
 11 12  1  0
 12 13  1  0
 13 14  2  0
 14 15  1  0
 15 16  2  0
 16 17  1  0
 17 18  2  0
 18 19  1  0
 19 20  2  0
 20 21  1  0
 20 22  1  0
 22 23  2  0
 23 24  1  0
 24 25  2  0
 25 26  1  0
 26 27  2  0
 27 13  1  0
 19 14  1  0
 27 22  1  0
  1 28  1  0
  1 29  1  0
  1 30  1  0
  2 31  1  0
  2 32  1  0
  3 33  1  0
  4 34  1  0
  4 35  1  0
  5 36  1  0
  5 37  1  0
  6 38  1  0
  7 39  1  0
  7 40  1  0
  8 41  1  0
  8 42  1  0
  9 43  1  0
 10 44  1  0
 10 45  1  0
 11 46  1  0
 11 47  1  0
 12 48  1  0
 15 49  1  0
 16 50  1  0
 17 51  1  0
 18 52  1  0
 21 53  1  0
 21 54  1  0
 21 55  1  0
 23 56  1  0
 24 57  1  0
 25 58  1  0
 26 59  1  0
M  CHG  1  20   1
M  END
>  <UniqueID>  (13) 
13

>  <SMILES>  (13) 
CCNCCNCCNCCNc1c2ccccc2[n+](C)c2ccccc12

>  <Energy>  (13) 
77.20939986576363

>  <Genealogy>  (13) 
CCNCCNCCNCCNc1c2ccccc2[n+](C)c2ccccc12 (3D coordinates assigned)
CCNCCNCCNCCNc1c2ccccc2[n+](C)c2ccccc12 (optimized conformer: 77.20939986576363 kcal/mol)

>  <smiles>  (13) 
CCNCCNCCNCCNc1c2ccccc2[n+](C)c2ccccc12

>  <score_type>  (13) 
oracle

>  <origin>  (13) 
adg

>  <m_score__min__energy>  (13) 
-6.04

>  <m_primary>  (13) 
energy

$$$$
13:0
     RDKit          3D

 79 82  0  0  0  0  0  0  0  0999 V2000
   63.0890   33.9140   52.3420 C   0  0  0  0  0  0  0  0  0  0  0  0
   62.8010   33.5270   53.8020 C   0  0  0  0  0  0  0  0  0  0  0  0
   61.7410   32.4990   53.9630 N   0  0  0  0  0  0  0  0  0  0  0  0
   60.5470   32.8310   53.1410 C   0  0  0  0  0  0  0  0  0  0  0  0
   59.8390   34.1010   53.6200 C   0  0  0  0  0  0  0  0  0  0  0  0
   62.2610   31.1230   53.6930 C   0  0  0  0  0  0  0  0  0  0  0  0
   61.2400   30.2440   52.9480 C   0  0  0  0  0  0  0  0  0  0  0  0
   61.7230   29.8810   51.6170 N   0  0  0  0  0  0  0  0  0  0  0  0
   62.3320   30.8690   50.7740 C   0  0  0  0  0  0  0  0  0  0  0  0
   63.7270   31.0190   50.7570 C   0  0  0  0  0  0  0  0  0  0  0  0
   64.5460   30.2470   51.6070 C   0  0  0  0  0  0  0  0  0  0  0  0
   65.9260   30.4310   51.6220 C   0  0  0  0  0  0  0  0  0  0  0  0
   66.5100   31.3930   50.8060 C   0  0  0  0  0  0  0  0  0  0  0  0
   65.7200   32.1620   49.9510 C   0  0  0  0  0  0  0  0  0  0  0  0
   64.3160   31.9730   49.8830 C   0  0  0  0  0  0  0  0  0  0  0  0
   63.5220   32.6980   49.0140 N   0  0  0  0  0  0  0  0  0  0  0  0
   64.1430   33.4620   47.9090 C   0  0  0  0  0  0  0  0  0  0  0  0
   62.1460   32.6830   49.1550 C   0  0  0  0  0  0  0  0  0  0  0  0
   61.3150   33.6090   48.4760 C   0  0  0  0  0  0  0  0  0  0  0  0
   59.9140   33.5310   48.5600 C   0  0  0  0  0  0  0  0  0  0  0  0
   59.0560   34.4060   47.8730 O   0  0  0  0  0  0  0  0  0  0  0  0
   59.3260   35.0420   46.6250 C   0  0  0  0  0  0  0  0  0  0  0  0
   59.4000   34.0540   45.4290 C   0  0  0  0  0  0  0  0  0  0  0  0
   58.1530   33.2850   45.0660 N   0  0  0  0  0  0  0  0  0  0  0  0
   56.9890   34.2150   45.0810 C   0  0  0  0  0  0  0  0  0  0  0  0
   58.3390   32.6540   43.7170 C   0  0  0  0  0  0  0  0  0  0  0  0
   57.3240   31.5470   43.3390 C   0  0  0  0  0  0  0  0  0  0  0  0
   57.7670   30.1330   43.7290 C   0  0  0  0  0  0  0  0  0  0  0  0
   57.8560   29.8780   45.2390 C   0  0  0  0  0  0  0  0  0  0  0  0
   58.7130   30.9090   45.9850 C   0  0  0  0  0  0  0  0  0  0  0  0
   57.9890   32.2640   46.1590 C   0  0  0  0  0  0  0  0  0  0  0  0
   59.3340   32.5500   49.3610 C   0  0  0  0  0  0  0  0  0  0  0  0
   60.1270   31.6680   50.0880 C   0  0  0  0  0  0  0  0  0  0  0  0
   61.5320   31.7320   50.0110 C   0  0  0  0  0  0  0  0  0  0  0  0
   63.7456   34.7963   52.3192 H   0  0  0  0  0  0  0  0  0  0  0  0
   63.5843   33.0751   51.8312 H   0  0  0  0  0  0  0  0  0  0  0  0
   62.1432   34.1475   51.8312 H   0  0  0  0  0  0  0  0  0  0  0  0
   63.7294   33.1371   54.2448 H   0  0  0  0  0  0  0  0  0  0  0  0
   62.4377   34.4361   54.3036 H   0  0  0  0  0  0  0  0  0  0  0  0
   61.4490   32.5700   54.9670 H   0  0  0  0  0  0  0  0  0  0  0  0
   60.8662   32.9771   52.0985 H   0  0  0  0  0  0  0  0  0  0  0  0
   59.8356   31.9971   53.2336 H   0  0  0  0  0  0  0  0  0  0  0  0
   59.8274   34.1218   54.7197 H   0  0  0  0  0  0  0  0  0  0  0  0
   60.3749   34.9842   53.2422 H   0  0  0  0  0  0  0  0  0  0  0  0
   58.8059   34.1096   53.2422 H   0  0  0  0  0  0  0  0  0  0  0  0
   63.1711   31.2035   53.0804 H   0  0  0  0  0  0  0  0  0  0  0  0
   62.4679   30.6470   54.6629 H   0  0  0  0  0  0  0  0  0  0  0  0
   61.0661   29.3261   53.5288 H   0  0  0  0  0  0  0  0  0  0  0  0
   60.3070   30.8155   52.8349 H   0  0  0  0  0  0  0  0  0  0  0  0
   61.7240   28.8860   51.2960 H   0  0  0  0  0  0  0  0  0  0  0  0
   64.0900   29.4922   52.2645 H   0  0  0  0  0  0  0  0  0  0  0  0
   66.5551   29.8142   52.2806 H   0  0  0  0  0  0  0  0  0  0  0  0
   67.5986   31.5484   50.8345 H   0  0  0  0  0  0  0  0  0  0  0  0
   66.1939   32.9276   49.3191 H   0  0  0  0  0  0  0  0  0  0  0  0
   64.7852   34.2521   48.3252 H   0  0  0  0  0  0  0  0  0  0  0  0
   64.7496   32.7844   47.2903 H   0  0  0  0  0  0  0  0  0  0  0  0
   63.3557   33.9174   47.2903 H   0  0  0  0  0  0  0  0  0  0  0  0
   61.7755   34.4043   47.8715 H   0  0  0  0  0  0  0  0  0  0  0  0
   58.5266   35.7708   46.4255 H   0  0  0  0  0  0  0  0  0  0  0  0
   60.3134   35.5190   46.7120 H   0  0  0  0  0  0  0  0  0  0  0  0
   59.6955   34.6349   44.5429 H   0  0  0  0  0  0  0  0  0  0  0  0
   60.1133   33.2824   45.7543 H   0  0  0  0  0  0  0  0  0  0  0  0
   56.7107   34.4373   46.1217 H   0  0  0  0  0  0  0  0  0  0  0  0
   57.2591   35.1488   44.5662 H   0  0  0  0  0  0  0  0  0  0  0  0
   56.1378   33.7454   44.5662 H   0  0  0  0  0  0  0  0  0  0  0  0
   58.2666   33.4494   42.9606 H   0  0  0  0  0  0  0  0  0  0  0  0
   59.3194   32.1567   43.7551 H   0  0  0  0  0  0  0  0  0  0  0  0
   56.3722   31.7631   43.8463 H   0  0  0  0  0  0  0  0  0  0  0  0
   57.2335   31.5602   42.2428 H   0  0  0  0  0  0  0  0  0  0  0  0
   57.0459   29.4194   43.3038 H   0  0  0  0  0  0  0  0  0  0  0  0
   58.7863   30.0090   43.3344 H   0  0  0  0  0  0  0  0  0  0  0  0
   56.8387   29.9033   45.6568 H   0  0  0  0  0  0  0  0  0  0  0  0
   58.3384   28.8986   45.3736 H   0  0  0  0  0  0  0  0  0  0  0  0
   58.9590   30.5098   46.9801 H   0  0  0  0  0  0  0  0  0  0  0  0
   59.6185   31.0876   45.3865 H   0  0  0  0  0  0  0  0  0  0  0  0
   56.9136   32.0531   46.2541 H   0  0  0  0  0  0  0  0  0  0  0  0
   58.4589   32.7213   47.0422 H   0  0  0  0  0  0  0  0  0  0  0  0
   58.2383   32.4720   49.4193 H   0  0  0  0  0  0  0  0  0  0  0  0
   59.6515   30.9121   50.7302 H   0  0  0  0  0  0  0  0  0  0  0  0
  1  2  1  0
  2  3  1  0
  3  4  1  0
  4  5  1  0
  3  6  1  0
  6  7  1  0
  7  8  1  0
  8  9  1  0
  9 10  2  0
 10 11  1  0
 11 12  2  0
 12 13  1  0
 13 14  2  0
 14 15  1  0
 15 16  2  0
 16 17  1  0
 16 18  1  0
 18 19  2  0
 19 20  1  0
 20 21  1  0
 21 22  1  0
 22 23  1  0
 23 24  1  0
 24 25  1  0
 24 26  1  0
 26 27  1  0
 27 28  1  0
 28 29  1  0
 29 30  1  0
 30 31  1  0
 20 32  2  0
 32 33  1  0
 33 34  2  0
 34  9  1  0
 15 10  1  0
 34 18  1  0
 31 24  1  0
  1 35  1  0
  1 36  1  0
  1 37  1  0
  2 38  1  0
  2 39  1  0
  3 40  1  0
  4 41  1  0
  4 42  1  0
  5 43  1  0
  5 44  1  0
  5 45  1  0
  6 46  1  0
  6 47  1  0
  7 48  1  0
  7 49  1  0
  8 50  1  0
 11 51  1  0
 12 52  1  0
 13 53  1  0
 14 54  1  0
 17 55  1  0
 17 56  1  0
 17 57  1  0
 19 58  1  0
 22 59  1  0
 22 60  1  0
 23 61  1  0
 23 62  1  0
 25 63  1  0
 25 64  1  0
 25 65  1  0
 26 66  1  0
 26 67  1  0
 27 68  1  0
 27 69  1  0
 28 70  1  0
 28 71  1  0
 29 72  1  0
 29 73  1  0
 30 74  1  0
 30 75  1  0
 31 76  1  0
 31 77  1  0
 32 78  1  0
 33 79  1  0
M  CHG  3   3   1  16   1  24   1
M  END
>  <UniqueID>  (14) 
14

>  <SMILES>  (14) 
CC[NH+](CC)CCNc1c2ccccc2[n+](C)c2cc(OCC[N+]3(C)CCCCCC3)ccc12

>  <Energy>  (14) 
132.7801626151385

>  <Genealogy>  (14) 
CC[NH+](CC)CCNc1c2ccccc2[n+](C)c2cc(OCC[N+]3(C)CCCCCC3)ccc12 (protonated)
CC[NH+](CC)CCNc1c2ccccc2[n+](C)c2cc(OCC[N+]3(C)CCCCCC3)ccc12 (3D coordinates assigned)
CC[NH+](CC)CCNc1c2ccccc2[n+](C)c2cc(OCC[N+]3(C)CCCCCC3)ccc12 (nonaromatic ring conformer: 132.7801626151385 kcal/mol)

>  <smiles>  (14) 
CCN(CC)CCNc1c2ccccc2[n+](C)c2cc(OCC[N+]3(C)CCCCCC3)ccc12

>  <score_type>  (14) 
oracle

>  <origin>  (14) 
adg

>  <m_score__min__energy>  (14) 
-2.1499999999999999

>  <m_primary>  (14) 
energy

$$$$
14:0
     RDKit          3D

 48 50  0  0  1  0  0  0  0  0999 V2000
   63.3740   33.8950   46.3830 C   0  0  0  0  0  0  0  0  0  0  0  0
   63.6480   33.7560   47.8500 C   0  0  0  0  0  0  0  0  0  0  0  0
   63.0220   32.6210   48.3930 N   0  0  0  0  0  0  0  0  0  0  0  0
   62.6310   31.5960   47.4480 C   0  0  0  0  0  0  0  0  0  0  0  0
   63.3620   32.1470   49.6690 C   0  0  0  0  0  0  0  0  0  0  0  0
   62.5100   31.0600   50.2520 C   0  0  0  0  0  0  0  0  0  0  0  0
   61.5980   31.6840   51.3030 C   0  0  0  0  0  0  0  0  0  0  0  0
   60.2690   31.9350   50.7830 N   0  0  0  0  0  0  0  0  0  0  0  0
   59.9500   32.5500   49.5970 C   0  0  0  0  0  0  0  0  0  0  0  0
   60.3840   34.2440   49.3430 S   0  0  0  0  0  0  0  0  0  0  0  0
   59.6550   34.2690   47.6800 C   0  0  0  0  0  0  0  0  0  0  0  0
   59.6320   35.3280   46.8540 N   0  0  0  0  0  0  0  0  0  0  0  0
   59.0530   35.1890   45.6510 C   0  0  0  0  0  0  0  0  0  0  0  0
   58.5440   34.0160   45.3630 N   0  0  0  0  0  0  0  0  0  0  0  0
   58.5580   32.9270   46.1920 C   0  0  0  0  0  0  0  0  0  0  0  0
   58.0250   31.9410   45.8080 N   0  0  0  0  0  0  0  0  0  0  0  0
   58.0960   30.8750   45.0840 C   0  0  0  0  0  0  0  0  0  0  0  0
   59.1900   29.9640   45.2050 C   0  0  0  0  0  0  0  0  0  0  0  0
   59.1840   28.7670   44.5490 C   0  0  0  0  0  0  0  0  0  0  0  0
   58.1310   28.4010   43.7540 C   0  0  0  0  0  0  0  0  0  0  0  0
   58.1170   26.7290   42.8360 Br  0  0  0  0  0  0  0  0  0  0  0  0
   57.0450   29.2580   43.6050 C   0  0  0  0  0  0  0  0  0  0  0  0
   57.0130   30.4690   44.2480 C   0  0  0  0  0  0  0  0  0  0  0  0
   59.1520   33.0120   47.4630 C   0  0  0  0  0  0  0  0  0  0  0  0
   59.2830   32.1010   48.4160 C   0  0  0  0  0  0  0  0  0  0  0  0
   58.9220   30.6850   48.5500 C   0  0  0  0  0  0  0  0  0  0  0  0
   58.6460   29.5730   48.6760 N   0  0  0  0  0  0  0  0  0  0  0  0
   62.4017   34.3882   46.2367 H   0  0  0  0  0  0  0  0  0  0  0  0
   64.1659   34.5004   45.9178 H   0  0  0  0  0  0  0  0  0  0  0  0
   63.3533   32.8984   45.9178 H   0  0  0  0  0  0  0  0  0  0  0  0
   64.7340   33.6709   48.0028 H   0  0  0  0  0  0  0  0  0  0  0  0
   63.2454   34.6444   48.3585 H   0  0  0  0  0  0  0  0  0  0  0  0
   62.2907   30.7040   47.9945 H   0  0  0  0  0  0  0  0  0  0  0  0
   61.8134   31.9727   46.8158 H   0  0  0  0  0  0  0  0  0  0  0  0
   63.4918   31.3325   46.8158 H   0  0  0  0  0  0  0  0  0  0  0  0
   64.3923   31.7654   49.6152 H   0  0  0  0  0  0  0  0  0  0  0  0
   63.2143   33.0083   50.3370 H   0  0  0  0  0  0  0  0  0  0  0  0
   61.9034   30.5966   49.4599 H   0  0  0  0  0  0  0  0  0  0  0  0
   63.1422   30.2843   50.7087 H   0  0  0  0  0  0  0  0  0  0  0  0
   61.5213   30.9984   52.1598 H   0  0  0  0  0  0  0  0  0  0  0  0
   62.0342   32.6477   51.6048 H   0  0  0  0  0  0  0  0  0  0  0  0
   59.4670   31.5990   51.4040 H   0  0  0  0  0  0  0  0  0  0  0  0
   60.0560   36.2330   47.1440 H   0  0  0  0  0  0  0  0  0  0  0  0
   59.0076   36.0244   44.9369 H   0  0  0  0  0  0  0  0  0  0  0  0
   60.0502   30.2313   45.8364 H   0  0  0  0  0  0  0  0  0  0  0  0
   60.0396   28.0848   44.6609 H   0  0  0  0  0  0  0  0  0  0  0  0
   56.2021   28.9607   42.9638 H   0  0  0  0  0  0  0  0  0  0  0  0
   56.1455   31.1328   44.1183 H   0  0  0  0  0  0  0  0  0  0  0  0
  1  2  1  0
  2  3  1  0
  3  4  1  0
  3  5  1  0
  5  6  1  0
  6  7  1  0
  7  8  1  0
  8  9  1  0
  9 10  1  0
 10 11  1  0
 11 12  1  0
 12 13  1  0
 13 14  2  0
 14 15  1  0
 15 16  2  0
 16 17  1  0
 17 18  2  0
 18 19  1  0
 19 20  2  0
 20 21  1  0
 20 22  1  0
 22 23  2  0
 15 24  1  0
 24 25  1  0
 25 26  1  0
 26 27  3  0
 25  9  2  0
 24 11  2  0
 23 17  1  0
  1 28  1  0
  1 29  1  0
  1 30  1  0
  2 31  1  0
  2 32  1  0
  4 33  1  0
  4 34  1  0
  4 35  1  0
  5 36  1  0
  5 37  1  0
  6 38  1  0
  6 39  1  0
  7 40  1  0
  7 41  1  0
  8 42  1  0
 12 43  1  0
 13 44  1  0
 18 45  1  0
 19 46  1  0
 22 47  1  0
 23 48  1  0
M  END
>  <smiles>  (15) 
CCN(C)CCCNc1sc2[nH]cnc(=Nc3ccc(Br)cc3)c2c1C#N

>  <score_type>  (15) 
oracle

>  <origin>  (15) 
adg

>  <m_score__min__energy>  (15) 
-7.75

>  <m_primary>  (15) 
energy

$$$$
15:0
     RDKit          3D

 32 34  0  0  0  0  0  0  0  0999 V2000
   59.5380   29.5650   46.2850 C   0  0  0  0  0  0  0  0  0  0  0  0
   59.7000   30.8480   47.0380 C   0  0  0  0  0  0  0  0  0  0  0  0
   58.4410   31.3010   47.5380 O   0  0  0  0  0  0  0  0  0  0  0  0
   57.7660   32.2830   46.8140 C   0  0  0  0  0  0  0  0  0  0  0  0
   57.0760   33.0900   47.4840 O   0  0  0  0  0  0  0  0  0  0  0  0
   57.8630   32.3580   45.3750 C   0  0  0  0  0  0  0  0  0  0  0  0
   58.5950   33.2680   44.6380 C   0  0  0  0  0  0  0  0  0  0  0  0
   59.4100   34.3400   45.1090 N   0  0  0  0  0  0  0  0  0  0  0  0
   60.0610   34.2780   46.3460 C   0  0  0  0  0  0  0  0  0  0  0  0
   59.4580   34.6790   47.5040 C   0  0  0  0  0  0  0  0  0  0  0  0
   60.0520   34.6320   48.7490 C   0  0  0  0  0  0  0  0  0  0  0  0
   61.3510   34.1360   48.7790 C   0  0  0  0  0  0  0  0  0  0  0  0
   62.0060   33.7170   47.6300 C   0  0  0  0  0  0  0  0  0  0  0  0
   63.7750   33.0360   47.6350 Br  0  0  0  0  0  0  0  0  0  0  0  0
   61.3410   33.7960   46.4100 C   0  0  0  0  0  0  0  0  0  0  0  0
   58.3970   32.9710   43.3320 N   0  0  0  0  0  0  0  0  0  0  0  0
   57.5420   31.8800   43.2630 C   0  0  0  0  0  0  0  0  0  0  0  0
   57.0550   31.2230   42.1400 N   0  0  0  0  0  0  0  0  0  0  0  0
   56.0370   29.9550   42.9600 S   0  0  0  0  0  0  0  0  0  0  0  0
   56.3380   30.3890   44.5020 N   0  0  0  0  0  0  0  0  0  0  0  0
   57.2540   31.5510   44.4540 C   0  0  0  0  0  0  0  0  0  0  0  0
   59.4329   28.7329   46.9967 H   0  0  0  0  0  0  0  0  0  0  0  0
   58.6399   29.6220   45.6524 H   0  0  0  0  0  0  0  0  0  0  0  0
   60.4221   29.3970   45.6524 H   0  0  0  0  0  0  0  0  0  0  0  0
   60.3873   30.6875   47.8817 H   0  0  0  0  0  0  0  0  0  0  0  0
   60.1053   31.6101   46.3562 H   0  0  0  0  0  0  0  0  0  0  0  0
   59.4730   35.1690   44.4460 H   0  0  0  0  0  0  0  0  0  0  0  0
   58.4300   35.0653   47.4402 H   0  0  0  0  0  0  0  0  0  0  0  0
   59.5315   34.9654   49.6589 H   0  0  0  0  0  0  0  0  0  0  0  0
   61.8755   34.0740   49.7439 H   0  0  0  0  0  0  0  0  0  0  0  0
   61.8476   33.4687   45.4901 H   0  0  0  0  0  0  0  0  0  0  0  0
   58.8280   33.4940   42.5490 H   0  0  0  0  0  0  0  0  0  0  0  0
  1  2  1  0
  2  3  1  0
  3  4  1  0
  4  5  2  0
  4  6  1  0
  6  7  2  0
  7  8  1  0
  8  9  1  0
  9 10  2  0
 10 11  1  0
 11 12  2  0
 12 13  1  0
 13 14  1  0
 13 15  2  0
  7 16  1  0
 16 17  1  0
 17 18  2  0
 18 19  1  0
 19 20  1  0
 20 21  2  0
 21  6  1  0
 15  9  1  0
 21 17  1  0
  1 22  1  0
  1 23  1  0
  1 24  1  0
  2 25  1  0
  2 26  1  0
  8 27  1  0
 10 28  1  0
 11 29  1  0
 12 30  1  0
 15 31  1  0
 16 32  1  0
M  END
>  <smiles>  (16) 
CCOC(=O)c1c(Nc2cccc(Br)c2)[nH]c2nsnc12

>  <score_type>  (16) 
oracle

>  <origin>  (16) 
adg

>  <m_score__min__energy>  (16) 
-6.9400000000000004

>  <m_primary>  (16) 
energy

$$$$
16:0
     RDKit          3D

 38 40  0  0  0  0  0  0  0  0999 V2000
   55.5230   29.7160   43.7400 C   0  0  0  0  0  0  0  0  0  0  0  0
   56.1450   30.7430   44.4780 O   0  0  0  0  0  0  0  0  0  0  0  0
   57.1850   31.3090   43.7080 C   0  0  0  0  0  0  0  0  0  0  0  0
   58.5340   30.8300   44.2430 C   0  0  0  0  0  0  0  0  0  0  0  0
   58.6840   31.1810   45.6610 N   0  0  0  0  0  0  0  0  0  0  0  0
   58.8790   30.3440   46.7230 C   0  0  0  0  0  0  0  0  0  0  0  0
   58.8200   28.8730   46.6520 C   0  0  0  0  0  0  0  0  0  0  0  0
   59.8790   28.0880   47.1280 C   0  0  0  0  0  0  0  0  0  0  0  0
   59.8180   26.6940   47.0430 C   0  0  0  0  0  0  0  0  0  0  0  0
   58.6970   26.0660   46.4670 C   0  0  0  0  0  0  0  0  0  0  0  0
   58.5870   24.6710   46.3610 O   0  0  0  0  0  0  0  0  0  0  0  0
   58.1220   23.9880   45.2020 C   0  0  0  0  0  0  0  0  0  0  0  0
   57.6520   26.8550   45.9740 C   0  0  0  0  0  0  0  0  0  0  0  0
   57.7130   28.2500   46.0580 C   0  0  0  0  0  0  0  0  0  0  0  0
   59.2040   30.9940   47.8750 N   0  0  0  0  0  0  0  0  0  0  0  0
   59.1970   32.2820   47.4950 C   0  0  0  0  0  0  0  0  0  0  0  0
   59.4990   33.3490   48.2770 N   0  0  0  0  0  0  0  0  0  0  0  0
   59.5000   34.5970   47.7190 C   0  0  0  0  0  0  0  0  0  0  0  0
   59.2070   34.7700   46.3460 C   0  0  0  0  0  0  0  0  0  0  0  0
   58.9060   33.6520   45.5490 C   0  0  0  0  0  0  0  0  0  0  0  0
   58.9010   32.4050   46.1750 C   0  0  0  0  0  0  0  0  0  0  0  0
   55.0798   28.9843   44.4315 H   0  0  0  0  0  0  0  0  0  0  0  0
   54.7336   30.1463   43.1062 H   0  0  0  0  0  0  0  0  0  0  0  0
   56.2701   29.2158   43.1062 H   0  0  0  0  0  0  0  0  0  0  0  0
   57.0753   30.9978   42.6587 H   0  0  0  0  0  0  0  0  0  0  0  0
   57.1336   32.4059   43.7726 H   0  0  0  0  0  0  0  0  0  0  0  0
   58.5990   29.7375   44.1326 H   0  0  0  0  0  0  0  0  0  0  0  0
   59.3356   31.3197   43.6706 H   0  0  0  0  0  0  0  0  0  0  0  0
   60.7625   28.5712   47.5707 H   0  0  0  0  0  0  0  0  0  0  0  0
   60.6493   26.0850   47.4278 H   0  0  0  0  0  0  0  0  0  0  0  0
   57.5270   23.1140   45.5055 H   0  0  0  0  0  0  0  0  0  0  0  0
   57.4974   24.6665   44.6024 H   0  0  0  0  0  0  0  0  0  0  0  0
   58.9823   23.6556   44.6024 H   0  0  0  0  0  0  0  0  0  0  0  0
   56.7749   26.3742   45.5164 H   0  0  0  0  0  0  0  0  0  0  0  0
   56.8902   28.8600   45.6569 H   0  0  0  0  0  0  0  0  0  0  0  0
   59.7304   35.4734   48.3425 H   0  0  0  0  0  0  0  0  0  0  0  0
   59.2147   35.7769   45.9031 H   0  0  0  0  0  0  0  0  0  0  0  0
   58.6837   33.7558   44.4767 H   0  0  0  0  0  0  0  0  0  0  0  0
  1  2  1  0
  2  3  1  0
  3  4  1  0
  4  5  1  0
  5  6  1  0
  6  7  1  0
  7  8  2  0
  8  9  1  0
  9 10  2  0
 10 11  1  0
 11 12  1  0
 10 13  1  0
 13 14  2  0
  6 15  2  0
 15 16  1  0
 16 17  2  0
 17 18  1  0
 18 19  2  0
 19 20  1  0
 20 21  2  0
 21  5  1  0
 14  7  1  0
 21 16  1  0
  1 22  1  0
  1 23  1  0
  1 24  1  0
  3 25  1  0
  3 26  1  0
  4 27  1  0
  4 28  1  0
  8 29  1  0
  9 30  1  0
 12 31  1  0
 12 32  1  0
 12 33  1  0
 13 34  1  0
 14 35  1  0
 18 36  1  0
 19 37  1  0
 20 38  1  0
M  END
>  <UniqueID>  (17) 
15

>  <SMILES>  (17) 
COCCn1c(-c2ccc(OC)cc2)nc2ncccc21

>  <Energy>  (17) 
82.5624509453145

>  <Genealogy>  (17) 
COCCn1c(-c2ccc(OC)cc2)nc2ncccc21 (3D coordinates assigned)
COCCn1c(-c2ccc(OC)cc2)nc2ncccc21 (optimized conformer: 82.5624509453145 kcal/mol)

>  <smiles>  (17) 
COCCn1c(-c2ccc(OC)cc2)nc2ncccc21

>  <score_type>  (17) 
oracle

>  <origin>  (17) 
adg

>  <m_score__min__energy>  (17) 
-5.7199999999999998

>  <m_primary>  (17) 
energy

$$$$
17:0
     RDKit          3D

 57 58  0  0  0  0  0  0  0  0999 V2000
   60.2040   30.5770   48.0030 C   0  0  0  0  0  0  0  0  0  0  0  0
   61.4530   30.9700   47.2120 C   0  0  0  0  0  0  0  0  0  0  0  0
   62.1230   32.1560   47.7900 N   0  0  0  0  0  0  0  0  0  0  0  0
   63.4150   32.5190   47.1490 C   0  0  0  0  0  0  0  0  0  0  0  0
   63.3900   33.8470   46.3770 C   0  0  0  0  0  0  0  0  0  0  0  0
   62.2240   32.0820   49.2680 C   0  0  0  0  0  0  0  0  0  0  0  0
   61.6130   33.3340   49.9210 C   0  0  0  0  0  0  0  0  0  0  0  0
   61.2390   34.3640   48.9240 N   0  0  0  0  0  0  0  0  0  0  0  0
   59.7820   34.5780   48.8800 C   0  0  0  0  0  0  0  0  0  0  0  0
   59.2210   34.1710   47.5420 C   0  0  0  0  0  0  0  0  0  0  0  0
   58.1920   33.2200   47.4660 C   0  0  0  0  0  0  0  0  0  0  0  0
   57.6980   32.8150   46.2230 C   0  0  0  0  0  0  0  0  0  0  0  0
   58.2220   33.3460   45.0390 C   0  0  0  0  0  0  0  0  0  0  0  0
   57.7110   32.8780   43.8170 O   0  0  0  0  0  0  0  0  0  0  0  0
   57.9070   31.5670   43.2860 C   0  0  0  0  0  0  0  0  0  0  0  0
   57.3450   30.5130   44.2040 C   0  0  0  0  0  0  0  0  0  0  0  0
   56.1750   30.6640   44.6500 O   0  0  0  0  0  0  0  0  0  0  0  0
   58.1030   29.3460   44.5800 N   0  0  0  0  0  0  0  0  0  0  0  0
   59.5710   29.3510   44.5390 C   0  0  0  0  0  0  0  0  0  0  0  0
   60.1220   28.3400   45.5490 C   0  0  0  0  0  0  0  0  0  0  0  0
   59.5360   27.0680   45.3520 O   0  0  0  0  0  0  0  0  0  0  0  0
   58.1540   27.1300   45.6480 C   0  0  0  0  0  0  0  0  0  0  0  0
   57.4230   28.0470   44.6620 C   0  0  0  0  0  0  0  0  0  0  0  0
   59.2430   34.3130   45.1150 C   0  0  0  0  0  0  0  0  0  0  0  0
   59.7440   34.7110   46.3560 C   0  0  0  0  0  0  0  0  0  0  0  0
   60.4162   30.6438   49.0803 H   0  0  0  0  0  0  0  0  0  0  0  0
   59.3793   31.2591   47.7488 H   0  0  0  0  0  0  0  0  0  0  0  0
   59.9184   29.5456   47.7488 H   0  0  0  0  0  0  0  0  0  0  0  0
   62.1578   30.1255   47.2180 H   0  0  0  0  0  0  0  0  0  0  0  0
   61.1420   31.2205   46.1870 H   0  0  0  0  0  0  0  0  0  0  0  0
   64.1804   32.5928   47.9356 H   0  0  0  0  0  0  0  0  0  0  0  0
   63.6316   31.7317   46.4119 H   0  0  0  0  0  0  0  0  0  0  0  0
   63.3742   34.6850   47.0894 H   0  0  0  0  0  0  0  0  0  0  0  0
   64.2869   33.9203   45.7444 H   0  0  0  0  0  0  0  0  0  0  0  0
   62.4910   33.8865   45.7444 H   0  0  0  0  0  0  0  0  0  0  0  0
   61.6848   31.1910   49.6221 H   0  0  0  0  0  0  0  0  0  0  0  0
   63.2866   32.0223   49.5461 H   0  0  0  0  0  0  0  0  0  0  0  0
   60.7121   33.0380   50.4784 H   0  0  0  0  0  0  0  0  0  0  0  0
   62.3725   33.7705   50.5862 H   0  0  0  0  0  0  0  0  0  0  0  0
   61.5520   34.0380   47.9790 H   0  0  0  0  0  0  0  0  0  0  0  0
   61.7280   35.2690   49.1230 H   0  0  0  0  0  0  0  0  0  0  0  0
   59.3054   33.9772   49.6686 H   0  0  0  0  0  0  0  0  0  0  0  0
   59.5781   35.6475   49.0370 H   0  0  0  0  0  0  0  0  0  0  0  0
   57.7726   32.7917   48.3883 H   0  0  0  0  0  0  0  0  0  0  0  0
   56.8890   32.0712   46.1748 H   0  0  0  0  0  0  0  0  0  0  0  0
   57.4040   31.4971   42.3103 H   0  0  0  0  0  0  0  0  0  0  0  0
   58.9882   31.3940   43.1807 H   0  0  0  0  0  0  0  0  0  0  0  0
   59.9090   29.0786   43.5283 H   0  0  0  0  0  0  0  0  0  0  0  0
   59.9379   30.3561   44.7944 H   0  0  0  0  0  0  0  0  0  0  0  0
   61.2116   28.2594   45.4218 H   0  0  0  0  0  0  0  0  0  0  0  0
   59.8815   28.6872   46.5647 H   0  0  0  0  0  0  0  0  0  0  0  0
   57.7264   26.1186   45.5836 H   0  0  0  0  0  0  0  0  0  0  0  0
   58.0303   27.5362   46.6627 H   0  0  0  0  0  0  0  0  0  0  0  0
   57.4142   27.5778   43.6671 H   0  0  0  0  0  0  0  0  0  0  0  0
   56.3919   28.2024   45.0123 H   0  0  0  0  0  0  0  0  0  0  0  0
   59.6473   34.7565   44.1931 H   0  0  0  0  0  0  0  0  0  0  0  0
   60.5545   35.4531   46.4050 H   0  0  0  0  0  0  0  0  0  0  0  0
  1  2  1  0
  2  3  1  0
  3  4  1  0
  4  5  1  0
  3  6  1  0
  6  7  1  0
  7  8  1  0
  8  9  1  0
  9 10  1  0
 10 11  2  0
 11 12  1  0
 12 13  2  0
 13 14  1  0
 14 15  1  0
 15 16  1  0
 16 17  2  0
 16 18  1  0
 18 19  1  0
 19 20  1  0
 20 21  1  0
 21 22  1  0
 22 23  1  0
 13 24  1  0
 24 25  2  0
 25 10  1  0
 23 18  1  0
  1 26  1  0
  1 27  1  0
  1 28  1  0
  2 29  1  0
  2 30  1  0
  4 31  1  0
  4 32  1  0
  5 33  1  0
  5 34  1  0
  5 35  1  0
  6 36  1  0
  6 37  1  0
  7 38  1  0
  7 39  1  0
  8 40  1  0
  8 41  1  0
  9 42  1  0
  9 43  1  0
 11 44  1  0
 12 45  1  0
 15 46  1  0
 15 47  1  0
 19 48  1  0
 19 49  1  0
 20 50  1  0
 20 51  1  0
 22 52  1  0
 22 53  1  0
 23 54  1  0
 23 55  1  0
 24 56  1  0
 25 57  1  0
M  CHG  1   8   1
M  END
>  <UniqueID>  (18) 
16

>  <SMILES>  (18) 
CCN(CC)CC[NH2+]Cc1ccc(OCC(=O)N2CCOCC2)cc1

>  <Energy>  (18) 
58.73785409717561

>  <Genealogy>  (18) 
CCN(CC)CC[NH2+]Cc1ccc(OCC(=O)N2CCOCC2)cc1 (protonated)
CCN(CC)CC[NH2+]Cc1ccc(OCC(=O)N2CCOCC2)cc1 (3D coordinates assigned)
CCN(CC)CC[NH2+]Cc1ccc(OCC(=O)N2CCOCC2)cc1 (nonaromatic ring conformer: 58.73785409717561 kcal/mol)

>  <smiles>  (18) 
CCN(CC)CCNCc1ccc(OCC(=O)N2CCOCC2)cc1

>  <score_type>  (18) 
oracle

>  <origin>  (18) 
adg

>  <m_score__min__energy>  (18) 
-5.8600000000000003

>  <m_primary>  (18) 
energy

$$$$
18:0
     RDKit          3D

 50 52  0  0  0  0  0  0  0  0999 V2000
   62.8090   34.2050   49.0960 C   0  0  0  0  0  0  0  0  0  0  0  0
   63.7560   33.0510   48.7430 C   0  0  0  0  0  0  0  0  0  0  0  0
   63.6650   32.6470   47.3130 N   0  0  2  0  0  0  0  0  0  0  0  0
   63.2770   33.8210   46.5030 C   0  0  0  0  0  0  0  0  0  0  0  0
   62.6920   31.5310   47.1500 C   0  0  0  0  0  0  0  0  0  0  0  0
   61.8450   31.2160   48.4070 C   0  0  0  0  0  0  0  0  0  0  0  0
   60.8100   30.0980   48.2140 C   0  0  0  0  0  0  0  0  0  0  0  0
   59.4530   30.6350   48.0810 N   0  0  0  0  0  0  0  0  0  0  0  0
   58.9670   31.0790   46.8070 C   0  0  0  0  0  0  0  0  0  0  0  0
   59.0670   32.4410   46.4380 C   0  0  0  0  0  0  0  0  0  0  0  0
   59.5540   33.4010   47.3490 C   0  0  0  0  0  0  0  0  0  0  0  0
   59.6560   34.7410   46.9850 C   0  0  0  0  0  0  0  0  0  0  0  0
   59.2690   35.1520   45.7140 C   0  0  0  0  0  0  0  0  0  0  0  0
   58.7690   34.2280   44.7970 C   0  0  0  0  0  0  0  0  0  0  0  0
   58.6520   32.8560   45.1330 C   0  0  0  0  0  0  0  0  0  0  0  0
   58.1460   31.9330   44.2370 N   0  0  0  0  0  0  0  0  0  0  0  0
   57.7380   32.3380   42.8780 C   0  0  0  0  0  0  0  0  0  0  0  0
   58.0060   30.6320   44.6420 C   0  0  0  0  0  0  0  0  0  0  0  0
   57.3570   29.3470   43.7620 S   0  0  0  0  0  0  0  0  0  0  0  0
   57.5440   28.1950   44.9680 C   0  0  0  0  0  0  0  0  0  0  0  0
   58.1170   28.7970   46.0880 C   0  0  0  0  0  0  0  0  0  0  0  0
   58.3730   28.0180   47.3430 C   0  0  0  0  0  0  0  0  0  0  0  0
   58.3880   30.1770   45.8990 C   0  0  0  0  0  0  0  0  0  0  0  0
   62.7340   34.2964   50.1896 H   0  0  0  0  0  0  0  0  0  0  0  0
   63.2012   35.1428   48.6757 H   0  0  0  0  0  0  0  0  0  0  0  0
   61.8126   34.0033   48.6757 H   0  0  0  0  0  0  0  0  0  0  0  0
   64.7884   33.3665   48.9541 H   0  0  0  0  0  0  0  0  0  0  0  0
   63.4620   32.1832   49.3517 H   0  0  0  0  0  0  0  0  0  0  0  0
   64.6130   32.3440   46.9950 H   0  0  0  0  0  0  0  0  0  0  0  0
   63.0024   34.6518   47.1696 H   0  0  0  0  0  0  0  0  0  0  0  0
   64.1227   34.1243   45.8683 H   0  0  0  0  0  0  0  0  0  0  0  0
   62.4171   33.5606   45.8683 H   0  0  0  0  0  0  0  0  0  0  0  0
   62.0050   31.7934   46.3320 H   0  0  0  0  0  0  0  0  0  0  0  0
   63.2881   30.6293   46.9457 H   0  0  0  0  0  0  0  0  0  0  0  0
   62.5282   30.9159   49.2152 H   0  0  0  0  0  0  0  0  0  0  0  0
   61.2786   32.1298   48.6395 H   0  0  0  0  0  0  0  0  0  0  0  0
   61.0608   29.5328   47.3043 H   0  0  0  0  0  0  0  0  0  0  0  0
   60.8369   29.4479   49.1009 H   0  0  0  0  0  0  0  0  0  0  0  0
   58.8890   30.8780   48.9270 H   0  0  0  0  0  0  0  0  0  0  0  0
   59.8568   33.0875   48.3590 H   0  0  0  0  0  0  0  0  0  0  0  0
   60.0438   35.4768   47.7049 H   0  0  0  0  0  0  0  0  0  0  0  0
   59.3577   36.2112   45.4306 H   0  0  0  0  0  0  0  0  0  0  0  0
   58.4607   34.5691   43.7977 H   0  0  0  0  0  0  0  0  0  0  0  0
   56.9587   33.1115   42.9444 H   0  0  0  0  0  0  0  0  0  0  0  0
   58.6083   32.7396   42.3383 H   0  0  0  0  0  0  0  0  0  0  0  0
   57.3428   31.4648   42.3383 H   0  0  0  0  0  0  0  0  0  0  0  0
   57.2602   27.1353   44.8880 H   0  0  0  0  0  0  0  0  0  0  0  0
   58.1646   28.6523   48.2172 H   0  0  0  0  0  0  0  0  0  0  0  0
   57.7179   27.1347   47.3663 H   0  0  0  0  0  0  0  0  0  0  0  0
   59.4244   27.6955   47.3663 H   0  0  0  0  0  0  0  0  0  0  0  0
  1  2  1  0
  2  3  1  0
  3  4  1  0
  3  5  1  0
  5  6  1  0
  6  7  1  0
  7  8  1  0
  8  9  1  0
  9 10  2  0
 10 11  1  0
 11 12  2  0
 12 13  1  0
 13 14  2  0
 14 15  1  0
 15 16  2  0
 16 17  1  0
 16 18  1  0
 18 19  1  0
 19 20  1  0
 20 21  2  0
 21 22  1  0
 21 23  1  0
 23  9  1  0
 15 10  1  0
 23 18  2  0
  1 24  1  0
  1 25  1  0
  1 26  1  0
  2 27  1  0
  2 28  1  0
  3 29  1  6
  4 30  1  0
  4 31  1  0
  4 32  1  0
  5 33  1  0
  5 34  1  0
  6 35  1  0
  6 36  1  0
  7 37  1  0
  7 38  1  0
  8 39  1  0
 11 40  1  0
 12 41  1  0
 13 42  1  0
 14 43  1  0
 17 44  1  0
 17 45  1  0
 17 46  1  0
 20 47  1  0
 22 48  1  0
 22 49  1  0
 22 50  1  0
M  CHG  2   3   1  16   1
M  END
>  <UniqueID>  (19) 
17

>  <SMILES>  (19) 
CC[N@H+](C)CCCNc1c2ccccc2[n+](C)c2scc(C)c12

>  <Energy>  (19) 
98.91746814315454

>  <Genealogy>  (19) 
CC[NH+](C)CCCNc1c2ccccc2[n+](C)c2scc(C)c12 (protonated)
CC[N@H+](C)CCCNc1c2ccccc2[n+](C)c2scc(C)c12 (chirality)
CC[N@H+](C)CCCNc1c2ccccc2[n+](C)c2scc(C)c12 (3D coordinates assigned)
CC[N@H+](C)CCCNc1c2ccccc2[n+](C)c2scc(C)c12 (optimized conformer: 98.91746814315454 kcal/mol)

>  <smiles>  (19) 
CCN(C)CCCNc1c2ccccc2[n+](C)c2scc(C)c12

>  <score_type>  (19) 
oracle

>  <origin>  (19) 
adg

>  <m_score__min__energy>  (19) 
-4.8099999999999996

>  <m_primary>  (19) 
energy

$$$$
19:0
     RDKit          3D

 61 63  0  0  0  0  0  0  0  0999 V2000
   57.5830   32.6530   52.0040 C   0  0  0  0  0  0  0  0  0  0  0  0
   58.9140   33.1590   51.4580 C   0  0  0  0  0  0  0  0  0  0  0  0
   59.7030   32.0300   50.9100 N   0  0  0  0  0  0  0  0  0  0  0  0
   60.9720   31.8840   51.6460 C   0  0  0  0  0  0  0  0  0  0  0  0
   58.9420   30.7630   50.9520 C   0  0  0  0  0  0  0  0  0  0  0  0
   58.9070   30.1180   49.5620 C   0  0  0  0  0  0  0  0  0  0  0  0
   59.4270   31.0350   48.5460 N   0  0  0  0  0  0  0  0  0  0  0  0
   59.0430   30.9230   47.1660 C   0  0  0  0  0  0  0  0  0  0  0  0
   59.1080   29.6700   46.5310 C   0  0  0  0  0  0  0  0  0  0  0  0
   59.7150   28.5660   47.1690 C   0  0  0  0  0  0  0  0  0  0  0  0
   59.8060   27.3340   46.5260 C   0  0  0  0  0  0  0  0  0  0  0  0
   59.3120   27.1830   45.2360 C   0  0  0  0  0  0  0  0  0  0  0  0
   58.7120   28.2600   44.5860 C   0  0  0  0  0  0  0  0  0  0  0  0
   58.5780   29.5200   45.2240 C   0  0  0  0  0  0  0  0  0  0  0  0
   57.9660   30.5890   44.6010 N   0  0  0  0  0  0  0  0  0  0  0  0
   57.1400   30.3630   43.3940 C   0  0  0  0  0  0  0  0  0  0  0  0
   58.1140   31.8640   45.1140 C   0  0  0  0  0  0  0  0  0  0  0  0
   57.7730   33.0030   44.3440 C   0  0  0  0  0  0  0  0  0  0  0  0
   57.8660   34.2830   44.8740 C   0  0  0  0  0  0  0  0  0  0  0  0
   58.3190   34.4740   46.1690 C   0  0  0  0  0  0  0  0  0  0  0  0
   58.7230   33.3820   46.9580 C   0  0  0  0  0  0  0  0  0  0  0  0
   59.2240   33.5880   48.2570 O   0  0  0  0  0  0  0  0  0  0  0  0
   60.1830   34.5690   48.6520 C   0  0  0  0  0  0  0  0  0  0  0  0
   61.5360   33.9110   48.9450 C   0  0  0  0  0  0  0  0  0  0  0  0
   61.8240   32.8540   47.9520 N   0  0  0  0  0  0  0  0  0  0  0  0
   62.4560   33.4360   46.7560 C   0  0  0  0  0  0  0  0  0  0  0  0
   62.7130   31.8240   48.5210 C   0  0  0  0  0  0  0  0  0  0  0  0
   58.6300   32.0600   46.4290 C   0  0  0  0  0  0  0  0  0  0  0  0
   57.6101   32.6633   53.1036 H   0  0  0  0  0  0  0  0  0  0  0  0
   56.7703   33.3049   51.6511 H   0  0  0  0  0  0  0  0  0  0  0  0
   57.4086   31.6258   51.6511 H   0  0  0  0  0  0  0  0  0  0  0  0
   58.7247   33.8917   50.6597 H   0  0  0  0  0  0  0  0  0  0  0  0
   59.4810   33.6316   52.2736 H   0  0  0  0  0  0  0  0  0  0  0  0
   60.7733   31.9069   52.7277 H   0  0  0  0  0  0  0  0  0  0  0  0
   61.4422   30.9258   51.3798 H   0  0  0  0  0  0  0  0  0  0  0  0
   61.6475   32.7104   51.3798 H   0  0  0  0  0  0  0  0  0  0  0  0
   59.4243   30.0732   51.6602 H   0  0  0  0  0  0  0  0  0  0  0  0
   57.9119   30.9745   51.2747 H   0  0  0  0  0  0  0  0  0  0  0  0
   59.5223   29.2063   49.5727 H   0  0  0  0  0  0  0  0  0  0  0  0
   57.8632   29.8749   49.3141 H   0  0  0  0  0  0  0  0  0  0  0  0
   60.1860   31.7050   48.8040 H   0  0  0  0  0  0  0  0  0  0  0  0
   60.1204   28.6804   48.1851 H   0  0  0  0  0  0  0  0  0  0  0  0
   60.2696   26.4791   47.0401 H   0  0  0  0  0  0  0  0  0  0  0  0
   59.3947   26.2115   44.7268 H   0  0  0  0  0  0  0  0  0  0  0  0
   58.3358   28.1308   43.5604 H   0  0  0  0  0  0  0  0  0  0  0  0
   56.1195   30.0838   43.6951 H   0  0  0  0  0  0  0  0  0  0  0  0
   57.1062   31.2849   42.7949 H   0  0  0  0  0  0  0  0  0  0  0  0
   57.5803   29.5523   42.7949 H   0  0  0  0  0  0  0  0  0  0  0  0
   57.4284   32.8711   43.3077 H   0  0  0  0  0  0  0  0  0  0  0  0
   57.5782   35.1505   44.2619 H   0  0  0  0  0  0  0  0  0  0  0  0
   58.3633   35.4913   46.5851 H   0  0  0  0  0  0  0  0  0  0  0  0
   60.3053   35.3024   47.8413 H   0  0  0  0  0  0  0  0  0  0  0  0
   59.8255   35.0681   49.5647 H   0  0  0  0  0  0  0  0  0  0  0  0
   62.3268   34.6743   48.9008 H   0  0  0  0  0  0  0  0  0  0  0  0
   61.5016   33.4580   49.9468 H   0  0  0  0  0  0  0  0  0  0  0  0
   63.2330   34.1515   47.0633 H   0  0  0  0  0  0  0  0  0  0  0  0
   62.9120   32.6349   46.1557 H   0  0  0  0  0  0  0  0  0  0  0  0
   61.6952   33.9563   46.1557 H   0  0  0  0  0  0  0  0  0  0  0  0
   62.6726   31.8708   49.6193 H   0  0  0  0  0  0  0  0  0  0  0  0
   62.3848   30.8296   48.1841 H   0  0  0  0  0  0  0  0  0  0  0  0
   63.7447   32.0033   48.1841 H   0  0  0  0  0  0  0  0  0  0  0  0
  1  2  1  0
  2  3  1  0
  3  4  1  0
  3  5  1  0
  5  6  1  0
  6  7  1  0
  7  8  1  0
  8  9  2  0
  9 10  1  0
 10 11  2  0
 11 12  1  0
 12 13  2  0
 13 14  1  0
 14 15  2  0
 15 16  1  0
 15 17  1  0
 17 18  2  0
 18 19  1  0
 19 20  2  0
 20 21  1  0
 21 22  1  0
 22 23  1  0
 23 24  1  0
 24 25  1  0
 25 26  1  0
 25 27  1  0
 21 28  2  0
 28  8  1  0
 14  9  1  0
 28 17  1  0
  1 29  1  0
  1 30  1  0
  1 31  1  0
  2 32  1  0
  2 33  1  0
  4 34  1  0
  4 35  1  0
  4 36  1  0
  5 37  1  0
  5 38  1  0
  6 39  1  0
  6 40  1  0
  7 41  1  0
 10 42  1  0
 11 43  1  0
 12 44  1  0
 13 45  1  0
 16 46  1  0
 16 47  1  0
 16 48  1  0
 18 49  1  0
 19 50  1  0
 20 51  1  0
 23 52  1  0
 23 53  1  0
 24 54  1  0
 24 55  1  0
 26 56  1  0
 26 57  1  0
 26 58  1  0
 27 59  1  0
 27 60  1  0
 27 61  1  0
M  CHG  1  15   1
M  END
>  <UniqueID>  (20) 
18

>  <SMILES>  (20) 
CCN(C)CCNc1c2ccccc2[n+](C)c2cccc(OCCN(C)C)c12

>  <Energy>  (20) 
88.42130532184673

>  <Genealogy>  (20) 
CCN(C)CCNc1c2ccccc2[n+](C)c2cccc(OCCN(C)C)c12 (3D coordinates assigned)
CCN(C)CCNc1c2ccccc2[n+](C)c2cccc(OCCN(C)C)c12 (optimized conformer: 88.42130532184673 kcal/mol)

>  <smiles>  (20) 
CCN(C)CCNc1c2ccccc2[n+](C)c2cccc(OCCN(C)C)c12

>  <score_type>  (20) 
oracle

>  <origin>  (20) 
adg

>  <m_score__min__energy>  (20) 
-4.5

>  <m_primary>  (20) 
energy

$$$$
20:0
     RDKit          3D

 52 54  0  0  0  0  0  0  0  0999 V2000
   56.6560   30.3820   42.8630 C   0  0  0  0  0  0  0  0  0  0  0  0
   55.8020   30.5420   44.1160 C   0  0  0  0  0  0  0  0  0  0  0  0
   55.9990   29.3950   45.0160 N   0  0  0  0  0  0  0  0  0  0  0  0
   57.3270   28.7720   44.8650 C   0  0  0  0  0  0  0  0  0  0  0  0
   58.4410   29.5400   45.6090 C   0  0  0  0  0  0  0  0  0  0  0  0
   57.9060   30.3460   46.7210 N   0  0  0  0  0  0  0  0  0  0  0  0
   58.8980   31.3120   47.1720 C   0  0  0  0  0  0  0  0  0  0  0  0
   58.9820   32.5980   46.5770 C   0  0  0  0  0  0  0  0  0  0  0  0
   58.0260   33.0460   45.6300 C   0  0  0  0  0  0  0  0  0  0  0  0
   58.1760   34.2670   44.9780 C   0  0  0  0  0  0  0  0  0  0  0  0
   59.2750   35.0670   45.2470 C   0  0  0  0  0  0  0  0  0  0  0  0
   60.2030   34.6790   46.2110 C   0  0  0  0  0  0  0  0  0  0  0  0
   60.0470   33.4690   46.9370 C   0  0  0  0  0  0  0  0  0  0  0  0
   60.9070   33.1330   47.9630 N   0  0  0  0  0  0  0  0  0  0  0  0
   61.8070   34.1640   48.5360 C   0  0  0  0  0  0  0  0  0  0  0  0
   60.8890   31.8620   48.5010 C   0  0  0  0  0  0  0  0  0  0  0  0
   61.9110   31.4170   49.3760 C   0  0  0  0  0  0  0  0  0  0  0  0
   61.8390   30.1720   50.0210 C   0  0  0  0  0  0  0  0  0  0  0  0
   62.8350   29.7290   50.9080 O   0  0  0  0  0  0  0  0  0  0  0  0
   63.8620   30.5500   51.4520 C   0  0  0  0  0  0  0  0  0  0  0  0
   60.7460   29.3400   49.7880 C   0  0  0  0  0  0  0  0  0  0  0  0
   60.6770   28.1220   50.4850 O   0  0  0  0  0  0  0  0  0  0  0  0
   60.6240   28.0000   51.9030 C   0  0  0  0  0  0  0  0  0  0  0  0
   59.7600   29.7300   48.8700 C   0  0  0  0  0  0  0  0  0  0  0  0
   59.8420   30.9610   48.1750 C   0  0  0  0  0  0  0  0  0  0  0  0
   57.6990   30.1866   43.1527 H   0  0  0  0  0  0  0  0  0  0  0  0
   56.2771   29.5392   42.2662 H   0  0  0  0  0  0  0  0  0  0  0  0
   56.6079   31.3048   42.2662 H   0  0  0  0  0  0  0  0  0  0  0  0
   56.0914   31.4665   44.6372 H   0  0  0  0  0  0  0  0  0  0  0  0
   54.7426   30.5909   43.8240 H   0  0  0  0  0  0  0  0  0  0  0  0
   55.8540   29.7080   46.0040 H   0  0  0  0  0  0  0  0  0  0  0  0
   57.2811   27.7477   45.2633 H   0  0  0  0  0  0  0  0  0  0  0  0
   57.5770   28.7849   43.7939 H   0  0  0  0  0  0  0  0  0  0  0  0
   59.1645   28.8156   46.0111 H   0  0  0  0  0  0  0  0  0  0  0  0
   58.9199   30.2237   44.8926 H   0  0  0  0  0  0  0  0  0  0  0  0
   57.0220   30.8270   46.4520 H   0  0  0  0  0  0  0  0  0  0  0  0
   57.5970   29.7250   47.4990 H   0  0  0  0  0  0  0  0  0  0  0  0
   57.1509   32.4180   45.4068 H   0  0  0  0  0  0  0  0  0  0  0  0
   57.4215   34.5969   44.2487 H   0  0  0  0  0  0  0  0  0  0  0  0
   59.4150   36.0101   44.6984 H   0  0  0  0  0  0  0  0  0  0  0  0
   61.0724   35.3219   46.4133 H   0  0  0  0  0  0  0  0  0  0  0  0
   61.7660   34.1171   49.6342 H   0  0  0  0  0  0  0  0  0  0  0  0
   62.8377   33.9790   48.1993 H   0  0  0  0  0  0  0  0  0  0  0  0
   61.4845   35.1603   48.1993 H   0  0  0  0  0  0  0  0  0  0  0  0
   62.7829   32.0635   49.5544 H   0  0  0  0  0  0  0  0  0  0  0  0
   63.8169   30.5140   52.5505 H   0  0  0  0  0  0  0  0  0  0  0  0
   64.8423   30.1838   51.1130 H   0  0  0  0  0  0  0  0  0  0  0  0
   63.7207   31.5869   51.1130 H   0  0  0  0  0  0  0  0  0  0  0  0
   61.0218   28.9156   52.3649 H   0  0  0  0  0  0  0  0  0  0  0  0
   59.5809   27.8529   52.2196 H   0  0  0  0  0  0  0  0  0  0  0  0
   61.2284   27.1372   52.2196 H   0  0  0  0  0  0  0  0  0  0  0  0
   58.9037   29.0646   48.6857 H   0  0  0  0  0  0  0  0  0  0  0  0
  1  2  1  0
  2  3  1  0
  3  4  1  0
  4  5  1  0
  5  6  1  0
  6  7  1  0
  7  8  2  0
  8  9  1  0
  9 10  2  0
 10 11  1  0
 11 12  2  0
 12 13  1  0
 13 14  2  0
 14 15  1  0
 14 16  1  0
 16 17  2  0
 17 18  1  0
 18 19  1  0
 19 20  1  0
 18 21  2  0
 21 22  1  0
 22 23  1  0
 21 24  1  0
 24 25  2  0
 25  7  1  0
 13  8  1  0
 25 16  1  0
  1 26  1  0
  1 27  1  0
  1 28  1  0
  2 29  1  0
  2 30  1  0
  3 31  1  0
  4 32  1  0
  4 33  1  0
  5 34  1  0
  5 35  1  0
  6 36  1  0
  6 37  1  0
  9 38  1  0
 10 39  1  0
 11 40  1  0
 12 41  1  0
 15 42  1  0
 15 43  1  0
 15 44  1  0
 17 45  1  0
 20 46  1  0
 20 47  1  0
 20 48  1  0
 23 49  1  0
 23 50  1  0
 23 51  1  0
 24 52  1  0
M  CHG  2   6   1  14   1
M  END
>  <UniqueID>  (21) 
19

>  <SMILES>  (21) 
CCNCC[NH2+]c1c2ccccc2[n+](C)c2cc(OC)c(OC)cc12

>  <Energy>  (21) 
79.05033727094303

>  <Genealogy>  (21) 
CCNCC[NH2+]c1c2ccccc2[n+](C)c2cc(OC)c(OC)cc12 (protonated)
CCNCC[NH2+]c1c2ccccc2[n+](C)c2cc(OC)c(OC)cc12 (3D coordinates assigned)
CCNCC[NH2+]c1c2ccccc2[n+](C)c2cc(OC)c(OC)cc12 (optimized conformer: 79.05033727094303 kcal/mol)

>  <smiles>  (21) 
CCNCCNc1c2ccccc2[n+](C)c2cc(OC)c(OC)cc12

>  <score_type>  (21) 
oracle

>  <origin>  (21) 
adg

>  <m_score__min__energy>  (21) 
-3.6600000000000001

>  <m_primary>  (21) 
energy

$$$$
21:0
     RDKit          3D

 58 59  0  0  0  0  0  0  0  0999 V2000
   66.7740   31.8250   50.5430 C   0  0  0  0  0  0  0  0  0  0  0  0
   65.8490   32.9670   50.1050 C   0  0  0  0  0  0  0  0  0  0  0  0
   64.4520   32.5250   49.8520 N   0  0  0  0  0  0  0  0  0  0  0  0
   64.1180   31.2160   50.4770 C   0  0  0  0  0  0  0  0  0  0  0  0
   62.6190   30.8810   50.4930 C   0  0  0  0  0  0  0  0  0  0  0  0
   63.4700   33.5680   50.2590 C   0  0  0  0  0  0  0  0  0  0  0  0
   62.7490   34.2300   49.0710 C   0  0  0  0  0  0  0  0  0  0  0  0
   63.5300   34.0980   47.9020 O   0  0  0  0  0  0  0  0  0  0  0  0
   62.7830   33.4820   46.8710 C   0  0  0  0  0  0  0  0  0  0  0  0
   62.4690   32.0490   47.2160 C   0  0  0  0  0  0  0  0  0  0  0  0
   63.4140   31.2170   47.2720 O   0  0  0  0  0  0  0  0  0  0  0  0
   61.1210   31.6260   47.5010 N   0  0  0  0  0  0  0  0  0  0  0  0
   60.0920   32.6190   47.8380 C   0  0  0  0  0  0  0  0  0  0  0  0
   59.1950   32.8640   46.6540 C   0  0  0  0  0  0  0  0  0  0  0  0
   59.2470   34.0890   45.9740 C   0  0  0  0  0  0  0  0  0  0  0  0
   58.3850   34.3380   44.9040 C   0  0  0  0  0  0  0  0  0  0  0  0
   57.4630   33.3680   44.5070 C   0  0  0  0  0  0  0  0  0  0  0  0
   57.3950   32.1380   45.1720 C   0  0  0  0  0  0  0  0  0  0  0  0
   56.4530   31.1960   44.7350 O   0  0  0  0  0  0  0  0  0  0  0  0
   56.6960   30.2270   43.7210 C   0  0  0  0  0  0  0  0  0  0  0  0
   58.2680   31.8910   46.2500 C   0  0  0  0  0  0  0  0  0  0  0  0
   60.7240   30.2590   47.2910 C   0  0  0  0  0  0  0  0  0  0  0  0
   60.7500   29.7020   46.0030 C   0  0  0  0  0  0  0  0  0  0  0  0
   60.3770   28.3690   45.8040 C   0  0  0  0  0  0  0  0  0  0  0  0
   59.9790   27.5830   46.8890 C   0  0  0  0  0  0  0  0  0  0  0  0
   59.9560   28.1290   48.1750 C   0  0  0  0  0  0  0  0  0  0  0  0
   60.3280   29.4610   48.3770 C   0  0  0  0  0  0  0  0  0  0  0  0
   66.8087   31.7821   51.6416 H   0  0  0  0  0  0  0  0  0  0  0  0
   66.3905   30.8715   50.1508 H   0  0  0  0  0  0  0  0  0  0  0  0
   67.7863   32.0022   50.1508 H   0  0  0  0  0  0  0  0  0  0  0  0
   65.8362   33.7300   50.8973 H   0  0  0  0  0  0  0  0  0  0  0  0
   66.2436   33.3620   49.1572 H   0  0  0  0  0  0  0  0  0  0  0  0
   64.3510   32.3820   48.8180 H   0  0  0  0  0  0  0  0  0  0  0  0
   64.6406   30.4255   49.9185 H   0  0  0  0  0  0  0  0  0  0  0  0
   64.4348   31.2818   51.5283 H   0  0  0  0  0  0  0  0  0  0  0  0
   62.2717   30.8034   51.5339 H   0  0  0  0  0  0  0  0  0  0  0  0
   62.0600   31.6764   49.9783 H   0  0  0  0  0  0  0  0  0  0  0  0
   62.4518   29.9233   49.9783 H   0  0  0  0  0  0  0  0  0  0  0  0
   62.7147   33.1007   50.9080 H   0  0  0  0  0  0  0  0  0  0  0  0
   64.0335   34.3584   50.7764 H   0  0  0  0  0  0  0  0  0  0  0  0
   61.7756   33.7414   48.9167 H   0  0  0  0  0  0  0  0  0  0  0  0
   62.5983   35.2979   49.2877 H   0  0  0  0  0  0  0  0  0  0  0  0
   61.8414   34.0330   46.7301 H   0  0  0  0  0  0  0  0  0  0  0  0
   63.3799   33.4981   45.9472 H   0  0  0  0  0  0  0  0  0  0  0  0
   59.4891   32.2458   48.6790 H   0  0  0  0  0  0  0  0  0  0  0  0
   60.5832   33.5631   48.1163 H   0  0  0  0  0  0  0  0  0  0  0  0
   59.9701   34.8574   46.2848 H   0  0  0  0  0  0  0  0  0  0  0  0
   58.4326   35.3002   44.3730 H   0  0  0  0  0  0  0  0  0  0  0  0
   56.7848   33.5717   43.6653 H   0  0  0  0  0  0  0  0  0  0  0  0
   56.9383   29.2608   44.1877 H   0  0  0  0  0  0  0  0  0  0  0  0
   55.7976   30.1172   43.0959 H   0  0  0  0  0  0  0  0  0  0  0  0
   57.5399   30.5542   43.0959 H   0  0  0  0  0  0  0  0  0  0  0  0
   58.2226   30.9277   46.7792 H   0  0  0  0  0  0  0  0  0  0  0  0
   61.0650   30.3164   45.1467 H   0  0  0  0  0  0  0  0  0  0  0  0
   60.3969   27.9384   44.7920 H   0  0  0  0  0  0  0  0  0  0  0  0
   59.6840   26.5352   46.7306 H   0  0  0  0  0  0  0  0  0  0  0  0
   59.6448   27.5099   49.0293 H   0  0  0  0  0  0  0  0  0  0  0  0
   60.3106   29.8864   49.3913 H   0  0  0  0  0  0  0  0  0  0  0  0
  1  2  1  0
  2  3  1  0
  3  4  1  0
  4  5  1  0
  3  6  1  0
  6  7  1  0
  7  8  1  0
  8  9  1  0
  9 10  1  0
 10 11  2  0
 10 12  1  0
 12 13  1  0
 13 14  1  0
 14 15  2  0
 15 16  1  0
 16 17  2  0
 17 18  1  0
 18 19  1  0
 19 20  1  0
 18 21  2  0
 12 22  1  0
 22 23  2  0
 23 24  1  0
 24 25  2  0
 25 26  1  0
 26 27  2  0
 21 14  1  0
 27 22  1  0
  1 28  1  0
  1 29  1  0
  1 30  1  0
  2 31  1  0
  2 32  1  0
  3 33  1  0
  4 34  1  0
  4 35  1  0
  5 36  1  0
  5 37  1  0
  5 38  1  0
  6 39  1  0
  6 40  1  0
  7 41  1  0
  7 42  1  0
  9 43  1  0
  9 44  1  0
 13 45  1  0
 13 46  1  0
 15 47  1  0
 16 48  1  0
 17 49  1  0
 20 50  1  0
 20 51  1  0
 20 52  1  0
 21 53  1  0
 23 54  1  0
 24 55  1  0
 25 56  1  0
 26 57  1  0
 27 58  1  0
M  CHG  1   3   1
M  END
>  <UniqueID>  (22) 
20

>  <SMILES>  (22) 
CC[NH+](CC)CCOCC(=O)N(Cc1cccc(OC)c1)c1ccccc1

>  <Energy>  (22) 
66.00584640349118

>  <Genealogy>  (22) 
CC[NH+](CC)CCOCC(=O)N(Cc1cccc(OC)c1)c1ccccc1 (protonated)
CC[NH+](CC)CCOCC(=O)N(Cc1cccc(OC)c1)c1ccccc1 (3D coordinates assigned)
CC[NH+](CC)CCOCC(=O)N(Cc1cccc(OC)c1)c1ccccc1 (optimized conformer: 66.00584640349118 kcal/mol)

>  <smiles>  (22) 
CCN(CC)CCOCC(=O)N(Cc1cccc(OC)c1)c1ccccc1

>  <score_type>  (22) 
oracle

>  <origin>  (22) 
adg

>  <m_score__min__energy>  (22) 
-5.6100000000000003

>  <m_primary>  (22) 
energy

$$$$
22:0
     RDKit          3D

 58 61  0  0  0  0  0  0  0  0999 V2000
   58.2690   33.7570   47.3860 C   0  0  0  0  0  0  0  0  0  0  0  0
   58.3350   33.5400   45.8570 C   0  0  0  0  0  0  0  0  0  0  0  0
   59.5650   34.2710   45.2940 C   0  0  0  0  0  0  0  0  0  0  0  0
   57.0560   34.1260   45.2260 C   0  0  0  0  0  0  0  0  0  0  0  0
   58.4380   32.1050   45.5170 N   0  0  0  0  0  0  0  0  0  0  0  0
   57.7480   31.4320   44.5590 C   0  0  0  0  0  0  0  0  0  0  0  0
   58.0720   30.0990   44.6640 C   0  0  0  0  0  0  0  0  0  0  0  0
   58.9630   30.0310   45.6880 C   0  0  0  0  0  0  0  0  0  0  0  0
   59.1740   31.2470   46.2180 N   0  0  0  0  0  0  0  0  0  0  0  0
   59.5620   28.7630   46.0750 C   0  0  0  0  0  0  0  0  0  0  0  0
   60.4630   28.7040   46.9530 O   0  0  0  0  0  0  0  0  0  0  0  0
   59.1110   27.5820   45.3940 N   0  0  0  0  0  0  0  0  0  0  0  0
   57.8590   27.5840   44.5930 C   0  0  0  0  0  0  0  0  0  0  0  0
   57.8720   26.4080   43.5750 C   0  0  0  0  0  0  0  0  0  0  0  0
   57.7440   25.0320   44.2470 C   0  0  0  0  0  0  0  0  0  0  0  0
   56.5990   25.0290   45.1620 N   0  0  0  0  0  0  0  0  0  0  0  0
   55.4280   24.2420   44.8650 C   0  0  0  0  0  0  0  0  0  0  0  0
   55.1250   24.0050   43.6640 O   0  0  0  0  0  0  0  0  0  0  0  0
   54.5310   23.7320   45.9690 C   0  0  0  0  0  0  0  0  0  0  0  0
   53.7000   22.5940   45.5450 N   0  0  0  0  0  0  0  0  0  0  0  0
   54.2490   21.3100   46.0100 C   0  0  0  0  0  0  0  0  0  0  0  0
   55.7730   21.1960   45.7940 C   0  0  0  0  0  0  0  0  0  0  0  0
   56.2100   19.8380   45.2600 C   0  0  0  0  0  0  0  0  0  0  0  0
   56.3480   21.0720   44.3840 C   0  0  0  0  0  0  0  0  0  0  0  0
   56.5850   26.0580   46.2060 C   0  0  0  0  0  0  0  0  0  0  0  0
   56.6420   27.4410   45.5500 C   0  0  0  0  0  0  0  0  0  0  0  0
   57.7260   28.9280   43.7950 C   0  0  0  0  0  0  0  0  0  0  0  0
   58.5519   32.8270   47.9009 H   0  0  0  0  0  0  0  0  0  0  0  0
   58.9634   34.5606   47.6726 H   0  0  0  0  0  0  0  0  0  0  0  0
   57.2448   34.0379   47.6726 H   0  0  0  0  0  0  0  0  0  0  0  0
   60.1847   34.6393   46.1248 H   0  0  0  0  0  0  0  0  0  0  0  0
   60.1540   33.5762   44.6772 H   0  0  0  0  0  0  0  0  0  0  0  0
   59.2362   35.1204   44.6772 H   0  0  0  0  0  0  0  0  0  0  0  0
   56.3660   34.4421   46.0222 H   0  0  0  0  0  0  0  0  0  0  0  0
   57.3189   34.9935   44.6028 H   0  0  0  0  0  0  0  0  0  0  0  0
   56.5707   33.3604   44.6028 H   0  0  0  0  0  0  0  0  0  0  0  0
   57.0538   31.8744   43.8293 H   0  0  0  0  0  0  0  0  0  0  0  0
   59.6470   26.6980   45.5430 H   0  0  0  0  0  0  0  0  0  0  0  0
   57.0306   26.5378   42.8785 H   0  0  0  0  0  0  0  0  0  0  0  0
   58.8415   26.4323   43.0560 H   0  0  0  0  0  0  0  0  0  0  0  0
   57.5968   24.2616   43.4758 H   0  0  0  0  0  0  0  0  0  0  0  0
   58.6620   24.8190   44.8144 H   0  0  0  0  0  0  0  0  0  0  0  0
   55.1591   23.4136   46.8140 H   0  0  0  0  0  0  0  0  0  0  0  0
   53.8535   24.5511   46.2519 H   0  0  0  0  0  0  0  0  0  0  0  0
   53.6390   22.5790   44.4990 H   0  0  0  0  0  0  0  0  0  0  0  0
   54.0379   21.2064   47.0846 H   0  0  0  0  0  0  0  0  0  0  0  0
   53.7712   20.5135   45.4208 H   0  0  0  0  0  0  0  0  0  0  0  0
   56.0135   21.8629   46.6351 H   0  0  0  0  0  0  0  0  0  0  0  0
   57.1079   19.3506   45.6676 H   0  0  0  0  0  0  0  0  0  0  0  0
   55.7269   18.8562   45.1473 H   0  0  0  0  0  0  0  0  0  0  0  0
   57.3452   21.4781   44.1590 H   0  0  0  0  0  0  0  0  0  0  0  0
   56.0063   21.3533   43.3770 H   0  0  0  0  0  0  0  0  0  0  0  0
   55.6621   25.9692   46.7979 H   0  0  0  0  0  0  0  0  0  0  0  0
   57.4543   25.9261   46.8670 H   0  0  0  0  0  0  0  0  0  0  0  0
   55.7178   27.5992   44.9748 H   0  0  0  0  0  0  0  0  0  0  0  0
   56.7483   28.1906   46.3480 H   0  0  0  0  0  0  0  0  0  0  0  0
   58.4086   28.9046   42.9327 H   0  0  0  0  0  0  0  0  0  0  0  0
   56.6850   29.0355   43.4562 H   0  0  0  0  0  0  0  0  0  0  0  0
  1  2  1  0
  2  3  1  0
  2  4  1  0
  2  5  1  0
  5  6  1  0
  6  7  2  0
  7  8  1  0
  8  9  2  0
  8 10  1  0
 10 11  2  0
 10 12  1  0
 12 13  1  0
 13 14  1  0
 14 15  1  0
 15 16  1  0
 16 17  1  0
 17 18  2  0
 17 19  1  0
 19 20  1  0
 20 21  1  0
 21 22  1  0
 22 23  1  0
 23 24  1  0
 16 25  1  0
 25 26  1  0
 13 27  1  0
  9  5  1  0
 26 13  1  0
 27  7  1  0
 24 22  1  0
  1 28  1  0
  1 29  1  0
  1 30  1  0
  3 31  1  0
  3 32  1  0
  3 33  1  0
  4 34  1  0
  4 35  1  0
  4 36  1  0
  6 37  1  0
 12 38  1  0
 14 39  1  0
 14 40  1  0
 15 41  1  0
 15 42  1  0
 19 43  1  0
 19 44  1  0
 20 45  1  0
 21 46  1  0
 21 47  1  0
 22 48  1  0
 23 49  1  0
 23 50  1  0
 24 51  1  0
 24 52  1  0
 25 53  1  0
 25 54  1  0
 26 55  1  0
 26 56  1  0
 27 57  1  0
 27 58  1  0
M  END
>  <UniqueID>  (23) 
21

>  <SMILES>  (23) 
CC(C)(C)n1cc2c(n1)C(=O)NC1(CCN(C(=O)CNCC3CC3)CC1)C2

>  <Energy>  (23) 
358.0209752042608

>  <Genealogy>  (23) 
CC(C)(C)n1cc2c(n1)C(=O)NC1(CCN(C(=O)CNCC3CC3)CC1)C2 (3D coordinates assigned)
CC(C)(C)n1cc2c(n1)C(=O)NC1(CCN(C(=O)CNCC3CC3)CC1)C2 (nonaromatic ring conformer: 358.0209752042608 kcal/mol)

>  <smiles>  (23) 
CC(C)(C)n1cc2c(n1)C(=O)NC1(CCN(C(=O)CNCC3CC3)CC1)C2

>  <score_type>  (23) 
oracle

>  <origin>  (23) 
adg

>  <m_score__min__energy>  (23) 
-8.1600000000000001

>  <m_primary>  (23) 
energy

$$$$
23:0
     RDKit          3D

 38 39  0  0  0  0  0  0  0  0999 V2000
   58.9230   32.5490   49.5340 C   0  0  0  0  0  0  0  0  0  0  0  0
   58.2760   32.4900   48.2660 O   0  0  0  0  0  0  0  0  0  0  0  0
   58.6270   33.2670   47.1500 C   0  0  0  0  0  0  0  0  0  0  0  0
   59.2260   34.5350   47.3000 C   0  0  0  0  0  0  0  0  0  0  0  0
   59.5250   35.3150   46.1830 C   0  0  0  0  0  0  0  0  0  0  0  0
   59.2290   34.8470   44.9030 C   0  0  0  0  0  0  0  0  0  0  0  0
   58.6430   33.5920   44.7370 C   0  0  0  0  0  0  0  0  0  0  0  0
   58.3510   32.7830   45.8490 C   0  0  0  0  0  0  0  0  0  0  0  0
   57.7430   31.4520   45.6080 C   0  0  0  0  0  0  0  0  0  0  0  0
   58.1960   30.2190   46.0440 C   0  0  0  0  0  0  0  0  0  0  0  0
   57.2760   29.3290   45.5220 C   0  0  0  0  0  0  0  0  0  0  0  0
   57.2720   27.8620   45.6710 C   0  0  0  0  0  0  0  0  0  0  0  0
   58.3690   27.2660   45.8500 O   0  0  0  0  0  0  0  0  0  0  0  0
   56.0510   27.1090   45.6110 N   0  0  0  0  0  0  0  0  0  0  0  0
   56.0540   25.6500   45.7440 C   0  0  0  0  0  0  0  0  0  0  0  0
   57.0210   24.9890   44.7400 C   0  0  0  0  0  0  0  0  0  0  0  0
   58.1240   24.2010   45.4650 C   0  0  0  0  0  0  0  0  0  0  0  0
   56.2510   24.0600   43.7940 C   0  0  0  0  0  0  0  0  0  0  0  0
   56.3450   30.0040   44.8220 N   0  0  0  0  0  0  0  0  0  0  0  0
   56.6570   31.2650   44.8920 O   0  0  0  0  0  0  0  0  0  0  0  0
   58.1703   32.4804   50.3332 H   0  0  0  0  0  0  0  0  0  0  0  0
   59.6307   31.7117   49.6239 H   0  0  0  0  0  0  0  0  0  0  0  0
   59.4675   33.5005   49.6239 H   0  0  0  0  0  0  0  0  0  0  0  0
   59.4594   34.9121   48.3066 H   0  0  0  0  0  0  0  0  0  0  0  0
   59.9951   36.3011   46.3119 H   0  0  0  0  0  0  0  0  0  0  0  0
   59.4577   35.4677   44.0241 H   0  0  0  0  0  0  0  0  0  0  0  0
   58.4068   33.2315   43.7250 H   0  0  0  0  0  0  0  0  0  0  0  0
   59.0799   29.9990   46.6607 H   0  0  0  0  0  0  0  0  0  0  0  0
   55.1450   27.6120   45.4940 H   0  0  0  0  0  0  0  0  0  0  0  0
   56.3647   25.3855   46.7655 H   0  0  0  0  0  0  0  0  0  0  0  0
   55.0381   25.2838   45.5345 H   0  0  0  0  0  0  0  0  0  0  0  0
   57.4979   25.7887   44.1543 H   0  0  0  0  0  0  0  0  0  0  0  0
   57.9891   24.2974   46.5524 H   0  0  0  0  0  0  0  0  0  0  0  0
   58.0640   23.1401   45.1807 H   0  0  0  0  0  0  0  0  0  0  0  0
   59.1082   24.6017   45.1807 H   0  0  0  0  0  0  0  0  0  0  0  0
   55.6585   23.3452   44.3839 H   0  0  0  0  0  0  0  0  0  0  0  0
   55.5795   24.6573   43.1597 H   0  0  0  0  0  0  0  0  0  0  0  0
   56.9625   23.5110   43.1597 H   0  0  0  0  0  0  0  0  0  0  0  0
  1  2  1  0
  2  3  1  0
  3  4  2  0
  4  5  1  0
  5  6  2  0
  6  7  1  0
  7  8  2  0
  8  9  1  0
  9 10  2  0
 10 11  1  0
 11 12  1  0
 12 13  2  0
 12 14  1  0
 14 15  1  0
 15 16  1  0
 16 17  1  0
 16 18  1  0
 11 19  2  0
 19 20  1  0
  8  3  1  0
 20  9  1  0
  1 21  1  0
  1 22  1  0
  1 23  1  0
  4 24  1  0
  5 25  1  0
  6 26  1  0
  7 27  1  0
 10 28  1  0
 14 29  1  0
 15 30  1  0
 15 31  1  0
 16 32  1  0
 17 33  1  0
 17 34  1  0
 17 35  1  0
 18 36  1  0
 18 37  1  0
 18 38  1  0
M  END
>  <UniqueID>  (24) 
22

>  <SMILES>  (24) 
COc1ccccc1-c1cc(C(=O)NCC(C)C)no1

>  <Energy>  (24) 
63.145676463860426

>  <Genealogy>  (24) 
COc1ccccc1-c1cc(C(=O)NCC(C)C)no1 (3D coordinates assigned)
COc1ccccc1-c1cc(C(=O)NCC(C)C)no1 (optimized conformer: 63.145676463860426 kcal/mol)

>  <smiles>  (24) 
COc1ccccc1-c1cc(C(=O)NCC(C)C)no1

>  <score_type>  (24) 
oracle

>  <origin>  (24) 
adg

>  <m_score__min__energy>  (24) 
-7.6500000000000004

>  <m_primary>  (24) 
energy

$$$$
24:0
     RDKit          3D

 53 55  0  0  0  0  0  0  0  0999 V2000
   62.6694   32.8174   49.4923 H   0  0  0  0  0  0  0  0  0  0  0  0
   62.0440   33.3050   48.7300 C   0  0  0  0  0  0  0  0  0  0  0  0
   62.4410   33.2950   47.3910 C   0  0  0  0  0  0  0  0  0  0  0  0
   63.3782   32.7983   47.0995 H   0  0  0  0  0  0  0  0  0  0  0  0
   61.6480   33.9160   46.4200 C   0  0  0  0  0  0  0  0  0  0  0  0
   61.9626   33.9044   45.3660 H   0  0  0  0  0  0  0  0  0  0  0  0
   60.4520   34.5540   46.7860 C   0  0  0  0  0  0  0  0  0  0  0  0
   59.6050   35.2260   45.7370 C   0  0  0  0  0  0  0  0  0  0  0  0
   60.0956   35.1247   44.7577 H   0  0  0  0  0  0  0  0  0  0  0  0
   59.4933   36.2881   46.0005 H   0  0  0  0  0  0  0  0  0  0  0  0
   58.2780   34.6160   45.6740 N   0  0  0  0  0  0  0  0  0  0  0  0
   58.0430   33.3490   45.5050 C   0  0  0  0  0  0  0  0  0  0  0  0
   57.7140   32.8370   44.2950 N   0  0  0  0  0  0  0  0  0  0  0  0
   57.5210   31.4960   44.3750 C   0  0  0  0  0  0  0  0  0  0  0  0
   57.1720   30.6850   43.2980 C   0  0  0  0  0  0  0  0  0  0  0  0
   57.0317   31.1164   42.2959 H   0  0  0  0  0  0  0  0  0  0  0  0
   57.0020   29.3070   43.5120 C   0  0  0  0  0  0  0  0  0  0  0  0
   56.7309   28.6554   42.6682 H   0  0  0  0  0  0  0  0  0  0  0  0
   57.1760   28.7450   44.8050 C   0  0  0  0  0  0  0  0  0  0  0  0
   57.0080   27.3340   45.0540 N   0  0  0  0  0  0  0  0  0  0  0  0
   56.2830   26.8180   44.5060 H   0  0  0  0  0  0  0  0  0  0  0  0
   57.7690   26.5650   46.0390 C   0  0  0  0  0  0  0  0  0  0  0  0
   57.4532   25.5121   45.9978 H   0  0  0  0  0  0  0  0  0  0  0  0
   57.5769   26.9813   47.0389 H   0  0  0  0  0  0  0  0  0  0  0  0
   59.2720   26.6520   45.7480 C   0  0  0  0  0  0  0  0  0  0  0  0
   59.4671   27.5406   45.1297 H   0  0  0  0  0  0  0  0  0  0  0  0
   59.5784   25.7374   45.2193 H   0  0  0  0  0  0  0  0  0  0  0  0
   60.0830   26.7580   47.0480 C   0  0  0  0  0  0  0  0  0  0  0  0
   61.0369   26.2259   46.9178 H   0  0  0  0  0  0  0  0  0  0  0  0
   59.4906   26.3108   47.8598 H   0  0  0  0  0  0  0  0  0  0  0  0
   60.3640   28.1670   47.4030 N   0  0  0  0  0  0  0  0  0  0  0  0
   59.4900   28.7350   48.4590 C   0  0  0  0  0  0  0  0  0  0  0  0
   58.7774   27.9567   48.7697 H   0  0  0  0  0  0  0  0  0  0  0  0
   59.0017   29.6166   48.0182 H   0  0  0  0  0  0  0  0  0  0  0  0
   60.2350   29.2300   49.7100 C   0  0  0  0  0  0  0  0  0  0  0  0
   59.7100   28.8811   50.6115 H   0  0  0  0  0  0  0  0  0  0  0  0
   61.2610   28.8334   49.7067 H   0  0  0  0  0  0  0  0  0  0  0  0
   60.2669   30.3295   49.7067 H   0  0  0  0  0  0  0  0  0  0  0  0
   60.6350   29.0860   46.2690 C   0  0  0  0  0  0  0  0  0  0  0  0
   61.4639   28.6685   45.6786 H   0  0  0  0  0  0  0  0  0  0  0  0
   59.6980   29.1642   45.6982 H   0  0  0  0  0  0  0  0  0  0  0  0
   61.0130   30.5100   46.6840 C   0  0  0  0  0  0  0  0  0  0  0  0
   61.0314   30.5793   47.7817 H   0  0  0  0  0  0  0  0  0  0  0  0
   62.0077   30.7566   46.2843 H   0  0  0  0  0  0  0  0  0  0  0  0
   60.2715   31.2174   46.2843 H   0  0  0  0  0  0  0  0  0  0  0  0
   57.5340   29.5860   45.8780 C   0  0  0  0  0  0  0  0  0  0  0  0
   57.6824   29.1749   46.8874 H   0  0  0  0  0  0  0  0  0  0  0  0
   57.6960   30.9470   45.6350 C   0  0  0  0  0  0  0  0  0  0  0  0
   58.1120   32.1600   46.7180 S   0  0  0  0  0  0  0  0  0  0  0  0
   60.0570   34.5560   48.1350 C   0  0  0  0  0  0  0  0  0  0  0  0
   59.1189   35.0483   48.4309 H   0  0  0  0  0  0  0  0  0  0  0  0
   60.8530   33.9340   49.1020 C   0  0  0  0  0  0  0  0  0  0  0  0
   60.5412   33.9399   50.1569 H   0  0  0  0  0  0  0  0  0  0  0  0
  1  2  1  0
  2  3  2  0
  3  4  1  0
  3  5  1  0
  5  6  1  0
  5  7  2  0
  7  8  1  0
  8  9  1  0
  8 10  1  0
  8 11  1  0
 11 12  2  0
 12 13  1  0
 13 14  1  0
 14 15  2  0
 15 16  1  0
 15 17  1  0
 17 18  1  0
 17 19  2  0
 19 20  1  0
 20 21  1  0
 20 22  1  0
 22 23  1  0
 22 24  1  0
 22 25  1  0
 25 26  1  0
 25 27  1  0
 25 28  1  0
 28 29  1  0
 28 30  1  0
 28 31  1  0
 31 32  1  0
 32 33  1  0
 32 34  1  0
 32 35  1  0
 35 36  1  0
 35 37  1  0
 35 38  1  0
 31 39  1  0
 39 40  1  0
 39 41  1  0
 39 42  1  0
 42 43  1  0
 42 44  1  0
 42 45  1  0
 19 46  1  0
 46 47  1  0
 46 48  2  0
 48 49  1  0
  7 50  1  0
 50 51  1  0
 50 52  2  0
 52 53  1  0
 52  2  1  0
 49 12  1  0
 48 14  1  0
M  CHG  1  13  -1
M  END
>  <UniqueID>  (25) 
23

>  <SMILES>  (25) 
CCN(CC)CCCNc1ccc2[n-]/c(=N/Cc3ccccc3)sc2c1

>  <Energy>  (25) 
91.54821535822254

>  <Genealogy>  (25) 
CCN(CC)CCCNc1ccc2[n-]c(=NCc3ccccc3)sc2c1 (protonated)
CCN(CC)CCCNc1ccc2[n-]/c(=N/Cc3ccccc3)sc2c1 (cis-trans isomerization)
CCN(CC)CCCNc1ccc2[n-]/c(=N/Cc3ccccc3)sc2c1 (3D coordinates assigned)
CCN(CC)CCCNc1ccc2[n-]/c(=N/Cc3ccccc3)sc2c1 (optimized conformer: 91.54821535822254 kcal/mol)

>  <smiles>  (25) 
CCN(CC)CCCNc1ccc2[nH]c(=NCc3ccccc3)sc2c1

>  <score_type>  (25) 
oracle

>  <origin>  (25) 
adg

>  <m_score__min__energy>  (25) 
-9.0299999999999994

>  <m_primary>  (25) 
energy

$$$$
25:0
     RDKit          3D

 52 54  0  0  0  0  0  0  0  0999 V2000
   58.5170   34.5590   45.7580 C   0  0  0  0  0  0  0  0  0  0  0  0
   57.4680   33.5110   45.3850 C   0  0  0  0  0  0  0  0  0  0  0  0
   58.0990   32.2890   44.6980 C   0  0  0  0  0  0  0  0  0  0  0  0
   57.5500   31.0340   45.2560 N   0  0  0  0  0  0  0  0  0  0  0  0
   56.4030   30.5010   44.4870 C   0  0  0  0  0  0  0  0  0  0  0  0
   56.6400   30.4280   42.9690 C   0  0  0  0  0  0  0  0  0  0  0  0
   58.5900   30.0180   45.5450 C   0  0  0  0  0  0  0  0  0  0  0  0
   59.1100   30.1720   46.9870 C   0  0  0  0  0  0  0  0  0  0  0  0
   58.8770   31.5210   47.5080 N   0  0  0  0  0  0  0  0  0  0  0  0
   59.7420   32.1210   48.4930 C   0  0  0  0  0  0  0  0  0  0  0  0
   60.9530   32.7260   48.1110 C   0  0  0  0  0  0  0  0  0  0  0  0
   61.2580   32.9470   46.7500 C   0  0  0  0  0  0  0  0  0  0  0  0
   62.4460   33.5690   46.3770 C   0  0  0  0  0  0  0  0  0  0  0  0
   63.3370   34.0080   47.3490 C   0  0  0  0  0  0  0  0  0  0  0  0
   63.0500   33.8230   48.7010 C   0  0  0  0  0  0  0  0  0  0  0  0
   61.8630   33.1650   49.1130 C   0  0  0  0  0  0  0  0  0  0  0  0
   61.5680   32.9660   50.4490 N   0  0  0  0  0  0  0  0  0  0  0  0
   62.6200   33.1430   51.4750 C   0  0  0  0  0  0  0  0  0  0  0  0
   60.2880   32.5990   50.8230 C   0  0  0  0  0  0  0  0  0  0  0  0
   59.8550   32.6710   52.1720 C   0  0  0  0  0  0  0  0  0  0  0  0
   58.5780   32.2500   52.5440 C   0  0  0  0  0  0  0  0  0  0  0  0
   57.6950   31.7760   51.5850 C   0  0  0  0  0  0  0  0  0  0  0  0
   55.9480   31.2160   52.1030 Br  0  0  0  0  0  0  0  0  0  0  0  0
   58.0780   31.7330   50.2450 C   0  0  0  0  0  0  0  0  0  0  0  0
   59.3620   32.1470   49.8460 C   0  0  0  0  0  0  0  0  0  0  0  0
   58.5896   34.6315   46.8532 H   0  0  0  0  0  0  0  0  0  0  0  0
   59.4928   34.2643   45.3446 H   0  0  0  0  0  0  0  0  0  0  0  0
   58.2233   35.5351   45.3446 H   0  0  0  0  0  0  0  0  0  0  0  0
   56.9553   33.1795   46.3000 H   0  0  0  0  0  0  0  0  0  0  0  0
   56.7609   33.9719   44.6796 H   0  0  0  0  0  0  0  0  0  0  0  0
   57.8836   32.3295   43.6201 H   0  0  0  0  0  0  0  0  0  0  0  0
   59.1851   32.3076   44.8711 H   0  0  0  0  0  0  0  0  0  0  0  0
   56.1854   29.4861   44.8512 H   0  0  0  0  0  0  0  0  0  0  0  0
   55.5669   31.1986   44.6428 H   0  0  0  0  0  0  0  0  0  0  0  0
   57.6747   30.1093   42.7743 H   0  0  0  0  0  0  0  0  0  0  0  0
   55.9430   29.7029   42.5235 H   0  0  0  0  0  0  0  0  0  0  0  0
   56.4718   31.4196   42.5235 H   0  0  0  0  0  0  0  0  0  0  0  0
   58.1589   29.0136   45.4211 H   0  0  0  0  0  0  0  0  0  0  0  0
   59.4288   30.1598   44.8477 H   0  0  0  0  0  0  0  0  0  0  0  0
   58.5918   29.4469   47.6317 H   0  0  0  0  0  0  0  0  0  0  0  0
   60.1949   29.9906   46.9805 H   0  0  0  0  0  0  0  0  0  0  0  0
   58.0350   32.0500   47.1840 H   0  0  0  0  0  0  0  0  0  0  0  0
   60.5477   32.6235   45.9748 H   0  0  0  0  0  0  0  0  0  0  0  0
   62.6798   33.7132   45.3119 H   0  0  0  0  0  0  0  0  0  0  0  0
   64.2726   34.5035   47.0506 H   0  0  0  0  0  0  0  0  0  0  0  0
   63.7552   34.1931   49.4598 H   0  0  0  0  0  0  0  0  0  0  0  0
   62.1717   33.0676   52.4767 H   0  0  0  0  0  0  0  0  0  0  0  0
   63.3841   32.3608   51.3554 H   0  0  0  0  0  0  0  0  0  0  0  0
   63.0861   34.1322   51.3554 H   0  0  0  0  0  0  0  0  0  0  0  0
   60.5383   33.0658   52.9383 H   0  0  0  0  0  0  0  0  0  0  0  0
   58.2709   32.2940   53.5993 H   0  0  0  0  0  0  0  0  0  0  0  0
   57.3660   31.3702   49.4890 H   0  0  0  0  0  0  0  0  0  0  0  0
  1  2  1  0
  2  3  1  0
  3  4  1  0
  4  5  1  0
  5  6  1  0
  4  7  1  0
  7  8  1  0
  8  9  1  0
  9 10  1  0
 10 11  2  0
 11 12  1  0
 12 13  2  0
 13 14  1  0
 14 15  2  0
 15 16  1  0
 16 17  2  0
 17 18  1  0
 17 19  1  0
 19 20  2  0
 20 21  1  0
 21 22  2  0
 22 23  1  0
 22 24  1  0
 24 25  2  0
 25 10  1  0
 16 11  1  0
 25 19  1  0
  1 26  1  0
  1 27  1  0
  1 28  1  0
  2 29  1  0
  2 30  1  0
  3 31  1  0
  3 32  1  0
  5 33  1  0
  5 34  1  0
  6 35  1  0
  6 36  1  0
  6 37  1  0
  7 38  1  0
  7 39  1  0
  8 40  1  0
  8 41  1  0
  9 42  1  0
 12 43  1  0
 13 44  1  0
 14 45  1  0
 15 46  1  0
 18 47  1  0
 18 48  1  0
 18 49  1  0
 20 50  1  0
 21 51  1  0
 24 52  1  0
M  CHG  1  17   1
M  END
>  <UniqueID>  (26) 
24

>  <SMILES>  (26) 
CCCN(CC)CCNc1c2ccccc2[n+](C)c2ccc(Br)cc12

>  <Energy>  (26) 
78.76974271503668

>  <Genealogy>  (26) 
CCCN(CC)CCNc1c2ccccc2[n+](C)c2ccc(Br)cc12 (3D coordinates assigned)
CCCN(CC)CCNc1c2ccccc2[n+](C)c2ccc(Br)cc12 (optimized conformer: 78.76974271503668 kcal/mol)

>  <smiles>  (26) 
CCCN(CC)CCNc1c2ccccc2[n+](C)c2ccc(Br)cc12

>  <score_type>  (26) 
oracle

>  <origin>  (26) 
adg

>  <m_score__min__energy>  (26) 
-6.0499999999999998

>  <m_primary>  (26) 
energy

$$$$
26:0
     RDKit          3D

 48 51  0  0  0  0  0  0  0  0999 V2000
   57.4490   28.6000   43.2590 C   0  0  0  0  0  0  0  0  0  0  0  0
   57.8910   28.5160   44.6660 N   0  0  0  0  0  0  0  0  0  0  0  0
   58.2900   29.6550   45.3370 C   0  0  0  0  0  0  0  0  0  0  0  0
   58.2780   31.0210   44.6860 C   0  0  0  0  0  0  0  0  0  0  0  0
   56.9920   31.6810   44.9450 N   0  0  0  0  0  0  0  0  0  0  0  0
   57.0930   33.1440   44.8360 C   0  0  0  0  0  0  0  0  0  0  0  0
   58.1590   33.7050   45.7310 C   0  0  0  0  0  0  0  0  0  0  0  0
   59.1400   34.6160   45.3580 C   0  0  0  0  0  0  0  0  0  0  0  0
   59.9710   34.9930   46.4200 C   0  0  0  0  0  0  0  0  0  0  0  0
   59.6440   34.3890   47.6270 C   0  0  0  0  0  0  0  0  0  0  0  0
   58.3190   33.3850   47.3740 S   0  0  0  0  0  0  0  0  0  0  0  0
   58.6770   29.5770   46.6830 C   0  0  0  0  0  0  0  0  0  0  0  0
   58.7160   28.3510   47.3350 C   0  0  0  0  0  0  0  0  0  0  0  0
   59.0710   28.3020   48.5450 O   0  0  0  0  0  0  0  0  0  0  0  0
   58.3690   27.1870   46.6380 C   0  0  0  0  0  0  0  0  0  0  0  0
   58.4090   25.9220   47.2460 C   0  0  0  0  0  0  0  0  0  0  0  0
   58.0660   24.7830   46.5180 C   0  0  0  0  0  0  0  0  0  0  0  0
   58.0560   23.5740   47.1360 F   0  0  0  0  0  0  0  0  0  0  0  0
   57.6920   24.9110   45.1740 C   0  0  0  0  0  0  0  0  0  0  0  0
   57.3230   23.7620   44.3950 N   0  0  0  0  0  0  0  0  0  0  0  0
   56.4180   23.9420   43.2550 C   0  0  0  0  0  0  0  0  0  0  0  0
   56.0810   22.5930   42.6210 C   0  0  0  0  0  0  0  0  0  0  0  0
   55.9250   21.6260   43.6370 O   0  0  0  0  0  0  0  0  0  0  0  0
   57.1870   21.2820   44.1840 C   0  0  0  0  0  0  0  0  0  0  0  0
   58.0710   22.5050   44.5310 C   0  0  0  0  0  0  0  0  0  0  0  0
   57.6390   26.1490   44.6110 N   0  0  0  0  0  0  0  0  0  0  0  0
   57.9600   27.2880   45.2880 C   0  0  0  0  0  0  0  0  0  0  0  0
   56.3688   28.8053   43.2256 H   0  0  0  0  0  0  0  0  0  0  0  0
   57.9922   29.4110   42.7518 H   0  0  0  0  0  0  0  0  0  0  0  0
   57.6568   27.6463   42.7518 H   0  0  0  0  0  0  0  0  0  0  0  0
   59.0928   31.6316   45.1022 H   0  0  0  0  0  0  0  0  0  0  0  0
   58.4180   30.9088   43.6007 H   0  0  0  0  0  0  0  0  0  0  0  0
   56.6680   31.4290   45.9090 H   0  0  0  0  0  0  0  0  0  0  0  0
   57.3302   33.4065   43.7944 H   0  0  0  0  0  0  0  0  0  0  0  0
   56.1293   33.5739   45.1467 H   0  0  0  0  0  0  0  0  0  0  0  0
   59.2521   35.0013   44.3338 H   0  0  0  0  0  0  0  0  0  0  0  0
   60.8050   35.7015   46.3087 H   0  0  0  0  0  0  0  0  0  0  0  0
   60.1630   34.5413   48.5848 H   0  0  0  0  0  0  0  0  0  0  0  0
   58.9516   30.4933   47.2262 H   0  0  0  0  0  0  0  0  0  0  0  0
   58.7117   25.8291   48.2994 H   0  0  0  0  0  0  0  0  0  0  0  0
   55.4903   24.4210   43.6014 H   0  0  0  0  0  0  0  0  0  0  0  0
   56.9136   24.5743   42.5037 H   0  0  0  0  0  0  0  0  0  0  0  0
   55.1453   22.6793   42.0491 H   0  0  0  0  0  0  0  0  0  0  0  0
   56.8946   22.2898   41.9456 H   0  0  0  0  0  0  0  0  0  0  0  0
   57.0201   20.7023   45.1039 H   0  0  0  0  0  0  0  0  0  0  0  0
   57.7235   20.7061   43.4155 H   0  0  0  0  0  0  0  0  0  0  0  0
   58.4239   22.4088   45.5684 H   0  0  0  0  0  0  0  0  0  0  0  0
   58.9193   22.5291   43.8311 H   0  0  0  0  0  0  0  0  0  0  0  0
  1  2  1  0
  2  3  1  0
  3  4  1  0
  4  5  1  0
  5  6  1  0
  6  7  1  0
  7  8  2  0
  8  9  1  0
  9 10  2  0
 10 11  1  0
  3 12  2  0
 12 13  1  0
 13 14  2  0
 13 15  1  0
 15 16  2  0
 16 17  1  0
 17 18  1  0
 17 19  2  0
 19 20  1  0
 20 21  1  0
 21 22  1  0
 22 23  1  0
 23 24  1  0
 24 25  1  0
 19 26  1  0
 26 27  2  0
 27  2  1  0
 11  7  1  0
 27 15  1  0
 25 20  1  0
  1 28  1  0
  1 29  1  0
  1 30  1  0
  4 31  1  0
  4 32  1  0
  5 33  1  0
  6 34  1  0
  6 35  1  0
  8 36  1  0
  9 37  1  0
 10 38  1  0
 12 39  1  0
 16 40  1  0
 21 41  1  0
 21 42  1  0
 22 43  1  0
 22 44  1  0
 24 45  1  0
 24 46  1  0
 25 47  1  0
 25 48  1  0
M  END
>  <UniqueID>  (27) 
25

>  <SMILES>  (27) 
Cn1c(CNCc2cccs2)cc(=O)c2cc(F)c(N3CCOCC3)nc21

>  <Energy>  (27) 
95.84073991845281

>  <Genealogy>  (27) 
Cn1c(CNCc2cccs2)cc(=O)c2cc(F)c(N3CCOCC3)nc21 (3D coordinates assigned)
Cn1c(CNCc2cccs2)cc(=O)c2cc(F)c(N3CCOCC3)nc21 (nonaromatic ring conformer: 95.84073991845281 kcal/mol)

>  <smiles>  (27) 
Cn1c(CNCc2cccs2)cc(=O)c2cc(F)c(N3CCOCC3)nc21

>  <score_type>  (27) 
oracle

>  <origin>  (27) 
adg

>  <m_score__min__energy>  (27) 
-7.9900000000000002

>  <m_primary>  (27) 
energy

$$$$
27:0
     RDKit          3D

 47 49  0  0  0  0  0  0  0  0999 V2000
   63.1070   34.2150   49.3960 C   0  0  0  0  0  0  0  0  0  0  0  0
   64.0410   33.1150   48.8760 C   0  0  0  0  0  0  0  0  0  0  0  0
   63.6950   32.6800   47.4970 N   0  0  2  0  0  0  0  0  0  0  0  0
   63.3720   33.8370   46.6410 C   0  0  0  0  0  0  0  0  0  0  0  0
   62.6630   31.5980   47.4620 C   0  0  0  0  0  0  0  0  0  0  0  0
   61.8920   31.2920   48.7750 C   0  0  0  0  0  0  0  0  0  0  0  0
   60.7210   30.3040   48.6590 C   0  0  0  0  0  0  0  0  0  0  0  0
   59.4800   30.9720   48.2540 N   0  0  0  0  0  0  0  0  0  0  0  0
   59.0560   31.0250   46.8820 C   0  0  0  0  0  0  0  0  0  0  0  0
   58.8830   29.8350   46.1320 C   0  0  0  0  0  0  0  0  0  0  0  0
   59.2740   28.5840   46.6560 C   0  0  0  0  0  0  0  0  0  0  0  0
   59.0870   27.4140   45.9240 C   0  0  0  0  0  0  0  0  0  0  0  0
   58.5130   27.4650   44.6590 C   0  0  0  0  0  0  0  0  0  0  0  0
   58.1120   28.6860   44.1160 C   0  0  0  0  0  0  0  0  0  0  0  0
   58.2780   29.8940   44.8370 C   0  0  0  0  0  0  0  0  0  0  0  0
   57.8610   31.1060   44.3160 N   0  0  0  0  0  0  0  0  0  0  0  0
   57.1690   31.1800   43.0170 C   0  0  0  0  0  0  0  0  0  0  0  0
   58.1310   32.2480   45.0210 C   0  0  0  0  0  0  0  0  0  0  0  0
   57.8510   33.8400   44.5410 S   0  0  0  0  0  0  0  0  0  0  0  0
   58.5350   34.5550   45.8990 C   0  0  0  0  0  0  0  0  0  0  0  0
   58.9970   33.5560   46.7480 C   0  0  0  0  0  0  0  0  0  0  0  0
   59.9500   33.9720   48.1660 Cl  0  0  0  0  0  0  0  0  0  0  0  0
   58.7450   32.2490   46.2680 C   0  0  0  0  0  0  0  0  0  0  0  0
   63.1113   34.2099   50.4960 H   0  0  0  0  0  0  0  0  0  0  0  0
   63.4546   35.1933   49.0325 H   0  0  0  0  0  0  0  0  0  0  0  0
   62.0853   34.0306   49.0325 H   0  0  0  0  0  0  0  0  0  0  0  0
   65.0721   33.4981   48.8769 H   0  0  0  0  0  0  0  0  0  0  0  0
   63.9330   32.2436   49.5386 H   0  0  0  0  0  0  0  0  0  0  0  0
   64.5660   32.2720   47.0770 H   0  0  0  0  0  0  0  0  0  0  0  0
   63.1299   34.7043   47.2728 H   0  0  0  0  0  0  0  0  0  0  0  0
   64.2377   34.0763   46.0059 H   0  0  0  0  0  0  0  0  0  0  0  0
   62.5076   33.5933   46.0059 H   0  0  0  0  0  0  0  0  0  0  0  0
   61.9189   31.8784   46.7020 H   0  0  0  0  0  0  0  0  0  0  0  0
   63.2308   30.6794   47.2529 H   0  0  0  0  0  0  0  0  0  0  0  0
   62.6106   30.8776   49.4974 H   0  0  0  0  0  0  0  0  0  0  0  0
   61.4418   32.2476   49.0818 H   0  0  0  0  0  0  0  0  0  0  0  0
   60.9739   29.5391   47.9100 H   0  0  0  0  0  0  0  0  0  0  0  0
   60.5574   29.8516   49.6482 H   0  0  0  0  0  0  0  0  0  0  0  0
   59.0060   31.5880   48.9520 H   0  0  0  0  0  0  0  0  0  0  0  0
   59.7320   28.5326   47.6548 H   0  0  0  0  0  0  0  0  0  0  0  0
   59.3944   26.4467   46.3481 H   0  0  0  0  0  0  0  0  0  0  0  0
   58.3743   26.5381   44.0832 H   0  0  0  0  0  0  0  0  0  0  0  0
   57.6603   28.7110   43.1133 H   0  0  0  0  0  0  0  0  0  0  0  0
   56.0878   31.2956   43.1836 H   0  0  0  0  0  0  0  0  0  0  0  0
   57.5468   32.0429   42.4489 H   0  0  0  0  0  0  0  0  0  0  0  0
   57.3558   30.2568   42.4489 H   0  0  0  0  0  0  0  0  0  0  0  0
   58.6056   35.6367   46.0857 H   0  0  0  0  0  0  0  0  0  0  0  0
  1  2  1  0
  2  3  1  0
  3  4  1  0
  3  5  1  0
  5  6  1  0
  6  7  1  0
  7  8  1  0
  8  9  1  0
  9 10  2  0
 10 11  1  0
 11 12  2  0
 12 13  1  0
 13 14  2  0
 14 15  1  0
 15 16  2  0
 16 17  1  0
 16 18  1  0
 18 19  1  0
 19 20  1  0
 20 21  2  0
 21 22  1  0
 21 23  1  0
 23  9  1  0
 15 10  1  0
 23 18  2  0
  1 24  1  0
  1 25  1  0
  1 26  1  0
  2 27  1  0
  2 28  1  0
  3 29  1  6
  4 30  1  0
  4 31  1  0
  4 32  1  0
  5 33  1  0
  5 34  1  0
  6 35  1  0
  6 36  1  0
  7 37  1  0
  7 38  1  0
  8 39  1  0
 11 40  1  0
 12 41  1  0
 13 42  1  0
 14 43  1  0
 17 44  1  0
 17 45  1  0
 17 46  1  0
 20 47  1  0
M  CHG  2   3   1  16   1
M  END
>  <UniqueID>  (28) 
26

>  <SMILES>  (28) 
CC[N@H+](C)CCCNc1c2ccccc2[n+](C)c2scc(Cl)c12

>  <Energy>  (28) 
101.07576454559995

>  <Genealogy>  (28) 
CC[NH+](C)CCCNc1c2ccccc2[n+](C)c2scc(Cl)c12 (protonated)
CC[N@H+](C)CCCNc1c2ccccc2[n+](C)c2scc(Cl)c12 (chirality)
CC[N@H+](C)CCCNc1c2ccccc2[n+](C)c2scc(Cl)c12 (3D coordinates assigned)
CC[N@H+](C)CCCNc1c2ccccc2[n+](C)c2scc(Cl)c12 (optimized conformer: 101.07576454559995 kcal/mol)

>  <smiles>  (28) 
CCN(C)CCCNc1c2ccccc2[n+](C)c2scc(Cl)c12

>  <score_type>  (28) 
oracle

>  <origin>  (28) 
adg

>  <m_score__min__energy>  (28) 
-4.75

>  <m_primary>  (28) 
energy

$$$$
28:0
     RDKit          3D

 68 71  0  0  0  0  0  0  0  0999 V2000
   51.0360   24.1250   43.1910 C   0  0  0  0  0  0  0  0  0  0  0  0
   51.3600   24.0960   44.6880 C   0  0  0  0  0  0  0  0  0  0  0  0
   52.5350   23.2630   45.0280 N   0  0  0  0  0  0  0  0  0  0  0  0
   52.5010   22.6050   46.3540 C   0  0  0  0  0  0  0  0  0  0  0  0
   53.5490   21.4990   46.5460 C   0  0  0  0  0  0  0  0  0  0  0  0
   53.8410   23.7810   44.5660 C   0  0  0  0  0  0  0  0  0  0  0  0
   54.4630   24.6750   45.6420 C   0  0  0  0  0  0  0  0  0  0  0  0
   55.8130   24.3240   45.8850 O   0  0  0  0  0  0  0  0  0  0  0  0
   56.4230   25.2170   46.7980 C   0  0  0  0  0  0  0  0  0  0  0  0
   57.8910   24.8410   47.0150 C   0  0  0  0  0  0  0  0  0  0  0  0
   58.7590   25.7480   46.3340 O   0  0  0  0  0  0  0  0  0  0  0  0
   58.9760   27.1010   46.6610 C   0  0  0  0  0  0  0  0  0  0  0  0
   59.9840   27.4780   47.5510 C   0  0  0  0  0  0  0  0  0  0  0  0
   60.1760   28.8060   47.8870 C   0  0  0  0  0  0  0  0  0  0  0  0
   59.3860   29.8350   47.3270 C   0  0  0  0  0  0  0  0  0  0  0  0
   58.4210   29.4830   46.3360 C   0  0  0  0  0  0  0  0  0  0  0  0
   58.1710   28.0940   46.0590 C   0  0  0  0  0  0  0  0  0  0  0  0
   57.0620   27.6410   45.1280 C   0  0  0  0  0  0  0  0  0  0  0  0
   57.7650   30.5340   45.6470 C   0  0  0  0  0  0  0  0  0  0  0  0
   56.9260   30.2900   44.7380 O   0  0  0  0  0  0  0  0  0  0  0  0
   58.0700   31.8720   45.9350 C   0  0  0  0  0  0  0  0  0  0  0  0
   57.4670   32.9160   45.2000 C   0  0  0  0  0  0  0  0  0  0  0  0
   57.7830   34.2460   45.4620 C   0  0  0  0  0  0  0  0  0  0  0  0
   58.7060   34.5570   46.4520 C   0  0  0  0  0  0  0  0  0  0  0  0
   59.3100   33.5420   47.1920 C   0  0  0  0  0  0  0  0  0  0  0  0
   58.9930   32.1750   46.9640 C   0  0  0  0  0  0  0  0  0  0  0  0
   59.5660   31.1590   47.7030 N   0  0  0  0  0  0  0  0  0  0  0  0
   60.3270   31.4900   48.9370 C   0  0  0  0  0  0  0  0  0  0  0  0
   61.6590   32.1510   48.6470 C   0  0  0  0  0  0  0  0  0  0  0  0
   62.1640   33.0920   49.5620 C   0  0  0  0  0  0  0  0  0  0  0  0
   63.4060   33.6990   49.3430 C   0  0  0  0  0  0  0  0  0  0  0  0
   64.1600   33.3650   48.2160 C   0  0  0  0  0  0  0  0  0  0  0  0
   63.6770   32.4190   47.3080 C   0  0  0  0  0  0  0  0  0  0  0  0
   62.4350   31.8130   47.5190 C   0  0  0  0  0  0  0  0  0  0  0  0
   49.9490   24.2223   43.0529 H   0  0  0  0  0  0  0  0  0  0  0  0
   51.5432   24.9813   42.7226 H   0  0  0  0  0  0  0  0  0  0  0  0
   51.3831   23.1922   42.7226 H   0  0  0  0  0  0  0  0  0  0  0  0
   51.5570   25.1259   45.0204 H   0  0  0  0  0  0  0  0  0  0  0  0
   50.4924   23.6490   45.1953 H   0  0  0  0  0  0  0  0  0  0  0  0
   52.6686   23.3736   47.1228 H   0  0  0  0  0  0  0  0  0  0  0  0
   51.5172   22.1199   46.4361 H   0  0  0  0  0  0  0  0  0  0  0  0
   53.7100   21.3291   47.6208 H   0  0  0  0  0  0  0  0  0  0  0  0
   53.1919   20.5701   46.0774 H   0  0  0  0  0  0  0  0  0  0  0  0
   54.4958   21.8056   46.0774 H   0  0  0  0  0  0  0  0  0  0  0  0
   54.5152   22.9365   44.3603 H   0  0  0  0  0  0  0  0  0  0  0  0
   53.6905   24.3715   43.6502 H   0  0  0  0  0  0  0  0  0  0  0  0
   54.4196   25.7219   45.3071 H   0  0  0  0  0  0  0  0  0  0  0  0
   53.8960   24.5411   46.5751 H   0  0  0  0  0  0  0  0  0  0  0  0
   56.3666   26.2397   46.3968 H   0  0  0  0  0  0  0  0  0  0  0  0
   55.8943   25.1581   47.7608 H   0  0  0  0  0  0  0  0  0  0  0  0
   58.1141   24.8699   48.0917 H   0  0  0  0  0  0  0  0  0  0  0  0
   58.0564   23.8303   46.6135 H   0  0  0  0  0  0  0  0  0  0  0  0
   60.6346   26.7079   47.9911 H   0  0  0  0  0  0  0  0  0  0  0  0
   60.9639   29.0677   48.6086 H   0  0  0  0  0  0  0  0  0  0  0  0
   56.2048   27.2909   45.7219 H   0  0  0  0  0  0  0  0  0  0  0  0
   56.7489   28.4833   44.4936 H   0  0  0  0  0  0  0  0  0  0  0  0
   57.4282   26.8204   44.4936 H   0  0  0  0  0  0  0  0  0  0  0  0
   56.7391   32.6754   44.4112 H   0  0  0  0  0  0  0  0  0  0  0  0
   57.3021   35.0500   44.8855 H   0  0  0  0  0  0  0  0  0  0  0  0
   58.9613   35.6080   46.6528 H   0  0  0  0  0  0  0  0  0  0  0  0
   60.0457   33.8035   47.9669 H   0  0  0  0  0  0  0  0  0  0  0  0
   59.7217   32.1738   49.5502 H   0  0  0  0  0  0  0  0  0  0  0  0
   60.5338   30.5454   49.4614 H   0  0  0  0  0  0  0  0  0  0  0  0
   61.5788   33.3528   50.4561 H   0  0  0  0  0  0  0  0  0  0  0  0
   63.7888   34.4404   50.0598 H   0  0  0  0  0  0  0  0  0  0  0  0
   65.1338   33.8464   48.0431 H   0  0  0  0  0  0  0  0  0  0  0  0
   64.2755   32.1505   46.4250 H   0  0  0  0  0  0  0  0  0  0  0  0
   62.0609   31.0683   46.8011 H   0  0  0  0  0  0  0  0  0  0  0  0
  1  2  1  0
  2  3  1  0
  3  4  1  0
  4  5  1  0
  3  6  1  0
  6  7  1  0
  7  8  1  0
  8  9  1  0
  9 10  1  0
 10 11  1  0
 11 12  1  0
 12 13  2  0
 13 14  1  0
 14 15  2  0
 15 16  1  0
 16 17  2  0
 17 18  1  0
 16 19  1  0
 19 20  2  0
 19 21  1  0
 21 22  2  0
 22 23  1  0
 23 24  2  0
 24 25  1  0
 25 26  2  0
 26 27  1  0
 27 28  1  0
 28 29  1  0
 29 30  2  0
 30 31  1  0
 31 32  2  0
 32 33  1  0
 33 34  2  0
 17 12  1  0
 26 21  1  0
 34 29  1  0
 27 15  1  0
  1 35  1  0
  1 36  1  0
  1 37  1  0
  2 38  1  0
  2 39  1  0
  4 40  1  0
  4 41  1  0
  5 42  1  0
  5 43  1  0
  5 44  1  0
  6 45  1  0
  6 46  1  0
  7 47  1  0
  7 48  1  0
  9 49  1  0
  9 50  1  0
 10 51  1  0
 10 52  1  0
 13 53  1  0
 14 54  1  0
 18 55  1  0
 18 56  1  0
 18 57  1  0
 22 58  1  0
 23 59  1  0
 24 60  1  0
 25 61  1  0
 28 62  1  0
 28 63  1  0
 30 64  1  0
 31 65  1  0
 32 66  1  0
 33 67  1  0
 34 68  1  0
M  END
>  <UniqueID>  (29) 
27

>  <SMILES>  (29) 
CCN(CC)CCOCCOc1ccc2c(c1C)c(=O)c1ccccc1n2Cc1ccccc1

>  <Energy>  (29) 
110.13506240864741

>  <Genealogy>  (29) 
CCN(CC)CCOCCOc1ccc2c(c1C)c(=O)c1ccccc1n2Cc1ccccc1 (3D coordinates assigned)
CCN(CC)CCOCCOc1ccc2c(c1C)c(=O)c1ccccc1n2Cc1ccccc1 (optimized conformer: 110.13506240864741 kcal/mol)

>  <smiles>  (29) 
CCN(CC)CCOCCOc1ccc2c(c1C)c(=O)c1ccccc1n2Cc1ccccc1

>  <score_type>  (29) 
oracle

>  <origin>  (29) 
adg

>  <m_score__min__energy>  (29) 
-9.3000000000000007

>  <m_primary>  (29) 
energy

$$$$
29:0
     RDKit          3D

 59 62  0  0  0  0  0  0  0  0999 V2000
   59.3060   34.6990   45.1220 C   0  0  0  0  0  0  0  0  0  0  0  0
   60.0100   35.0980   46.4180 C   0  0  0  0  0  0  0  0  0  0  0  0
   60.4190   33.8950   47.1770 N   0  0  0  0  0  0  0  0  0  0  0  0
   59.4450   33.5680   48.2420 C   0  0  0  0  0  0  0  0  0  0  0  0
   60.0440   33.8430   49.6200 C   0  0  0  0  0  0  0  0  0  0  0  0
   61.8030   34.0130   47.7050 C   0  0  0  0  0  0  0  0  0  0  0  0
   62.8100   33.5950   46.6260 C   0  0  0  0  0  0  0  0  0  0  0  0
   63.7420   32.5700   47.1200 N   0  0  0  0  0  0  0  0  0  0  0  0
   63.1390   31.8280   48.2110 C   0  0  0  0  0  0  0  0  0  0  0  0
   63.7510   31.7500   49.4970 C   0  0  0  0  0  0  0  0  0  0  0  0
   65.0160   32.3320   49.7500 C   0  0  0  0  0  0  0  0  0  0  0  0
   65.6020   32.2550   51.0100 C   0  0  0  0  0  0  0  0  0  0  0  0
   64.9530   31.5960   52.0450 C   0  0  0  0  0  0  0  0  0  0  0  0
   63.7140   30.9970   51.8280 C   0  0  0  0  0  0  0  0  0  0  0  0
   63.0870   31.0500   50.5590 C   0  0  0  0  0  0  0  0  0  0  0  0
   61.8690   30.4320   50.3370 N   0  0  0  0  0  0  0  0  0  0  0  0
   61.1610   29.7300   51.4260 C   0  0  0  0  0  0  0  0  0  0  0  0
   61.3350   30.4660   49.0780 C   0  0  0  0  0  0  0  0  0  0  0  0
   59.9240   29.7170   48.5360 S   0  0  0  0  0  0  0  0  0  0  0  0
   60.0500   30.2500   46.9410 C   0  0  0  0  0  0  0  0  0  0  0  0
   59.1520   29.8610   45.8330 C   0  0  0  0  0  0  0  0  0  0  0  0
   59.2550   28.5600   45.3070 C   0  0  0  0  0  0  0  0  0  0  0  0
   58.3760   28.1230   44.3150 C   0  0  0  0  0  0  0  0  0  0  0  0
   57.3840   28.9760   43.8330 C   0  0  0  0  0  0  0  0  0  0  0  0
   57.2800   30.2770   44.3290 C   0  0  0  0  0  0  0  0  0  0  0  0
   58.1660   30.7380   45.3170 C   0  0  0  0  0  0  0  0  0  0  0  0
   58.0800   32.1060   45.7340 N   0  0  0  0  0  0  0  0  0  0  0  0
   61.2210   30.9970   46.8110 C   0  0  0  0  0  0  0  0  0  0  0  0
   61.9340   31.1310   48.0180 C   0  0  0  0  0  0  0  0  0  0  0  0
   58.3717   34.1695   45.3603 H   0  0  0  0  0  0  0  0  0  0  0  0
   59.0769   35.6015   44.5363 H   0  0  0  0  0  0  0  0  0  0  0  0
   59.9626   34.0387   44.5363 H   0  0  0  0  0  0  0  0  0  0  0  0
   60.9022   35.6944   46.1766 H   0  0  0  0  0  0  0  0  0  0  0  0
   59.3149   35.6879   47.0335 H   0  0  0  0  0  0  0  0  0  0  0  0
   58.5438   34.1847   48.1097 H   0  0  0  0  0  0  0  0  0  0  0  0
   59.1885   32.5006   48.1730 H   0  0  0  0  0  0  0  0  0  0  0  0
   59.3375   33.5187   50.3983 H   0  0  0  0  0  0  0  0  0  0  0  0
   60.9876   33.2879   49.7270 H   0  0  0  0  0  0  0  0  0  0  0  0
   60.2382   34.9204   49.7270 H   0  0  0  0  0  0  0  0  0  0  0  0
   61.9941   35.0559   47.9980 H   0  0  0  0  0  0  0  0  0  0  0  0
   61.9147   33.3551   48.5794 H   0  0  0  0  0  0  0  0  0  0  0  0
   62.2606   33.1911   45.7629 H   0  0  0  0  0  0  0  0  0  0  0  0
   63.3951   34.4818   46.3408 H   0  0  0  0  0  0  0  0  0  0  0  0
   64.0330   31.9160   46.3620 H   0  0  0  0  0  0  0  0  0  0  0  0
   64.6300   33.0260   47.4260 H   0  0  0  0  0  0  0  0  0  0  0  0
   65.5443   32.8533   48.9381 H   0  0  0  0  0  0  0  0  0  0  0  0
   66.5839   32.7185   51.1865 H   0  0  0  0  0  0  0  0  0  0  0  0
   65.4187   31.5465   53.0403 H   0  0  0  0  0  0  0  0  0  0  0  0
   63.2140   30.4739   52.6565 H   0  0  0  0  0  0  0  0  0  0  0  0
   61.5284   30.0942   52.3968 H   0  0  0  0  0  0  0  0  0  0  0  0
   60.0812   29.9242   51.3463 H   0  0  0  0  0  0  0  0  0  0  0  0
   61.3460   28.6486   51.3463 H   0  0  0  0  0  0  0  0  0  0  0  0
   60.0355   27.8811   45.6811 H   0  0  0  0  0  0  0  0  0  0  0  0
   58.4660   27.1033   43.9125 H   0  0  0  0  0  0  0  0  0  0  0  0
   56.6831   28.6239   43.0618 H   0  0  0  0  0  0  0  0  0  0  0  0
   56.4976   30.9468   43.9428 H   0  0  0  0  0  0  0  0  0  0  0  0
   58.8880   32.6010   46.1680 H   0  0  0  0  0  0  0  0  0  0  0  0
   57.2380   32.6790   45.4990 H   0  0  0  0  0  0  0  0  0  0  0  0
   61.5544   31.4377   45.8599 H   0  0  0  0  0  0  0  0  0  0  0  0
  1  2  1  0
  2  3  1  0
  3  4  1  0
  4  5  1  0
  3  6  1  0
  6  7  1  0
  7  8  1  0
  8  9  1  0
  9 10  2  0
 10 11  1  0
 11 12  2  0
 12 13  1  0
 13 14  2  0
 14 15  1  0
 15 16  2  0
 16 17  1  0
 16 18  1  0
 18 19  1  0
 19 20  1  0
 20 21  1  0
 21 22  2  0
 22 23  1  0
 23 24  2  0
 24 25  1  0
 25 26  2  0
 26 27  1  0
 20 28  2  0
 28 29  1  0
 29  9  1  0
 15 10  1  0
 29 18  2  0
 26 21  1  0
  1 30  1  0
  1 31  1  0
  1 32  1  0
  2 33  1  0
  2 34  1  0
  4 35  1  0
  4 36  1  0
  5 37  1  0
  5 38  1  0
  5 39  1  0
  6 40  1  0
  6 41  1  0
  7 42  1  0
  7 43  1  0
  8 44  1  0
  8 45  1  0
 11 46  1  0
 12 47  1  0
 13 48  1  0
 14 49  1  0
 17 50  1  0
 17 51  1  0
 17 52  1  0
 22 53  1  0
 23 54  1  0
 24 55  1  0
 25 56  1  0
 27 57  1  0
 27 58  1  0
 28 59  1  0
M  CHG  2   8   1  16   1
M  END
>  <UniqueID>  (30) 
28

>  <SMILES>  (30) 
CCN(CC)CC[NH2+]c1c2ccccc2[n+](C)c2sc(-c3ccccc3N)cc12

>  <Energy>  (30) 
111.9027049079606

>  <Genealogy>  (30) 
CCN(CC)CC[NH2+]c1c2ccccc2[n+](C)c2sc(-c3ccccc3N)cc12 (protonated)
CCN(CC)CC[NH2+]c1c2ccccc2[n+](C)c2sc(-c3ccccc3N)cc12 (3D coordinates assigned)
CCN(CC)CC[NH2+]c1c2ccccc2[n+](C)c2sc(-c3ccccc3N)cc12 (optimized conformer: 111.9027049079606 kcal/mol)

>  <smiles>  (30) 
CCN(CC)CCNc1c2ccccc2[n+](C)c2sc(-c3ccccc3N)cc12

>  <score_type>  (30) 
oracle

>  <origin>  (30) 
adg

>  <m_score__min__energy>  (30) 
-6.7999999999999998

>  <m_primary>  (30) 
energy

$$$$
30:0
     RDKit          3D

 35 38  0  0  0  0  0  0  0  0999 V2000
   57.5730   32.4550   44.2400 C   0  0  0  0  0  0  0  0  0  0  0  0
   57.9890   31.1140   44.6940 N   0  0  0  0  0  0  0  0  0  0  0  0
   57.4360   29.9930   44.1140 C   0  0  0  0  0  0  0  0  0  0  0  0
   56.5730   30.0890   43.1970 O   0  0  0  0  0  0  0  0  0  0  0  0
   57.8260   28.7650   44.5390 N   0  0  0  0  0  0  0  0  0  0  0  0
   57.4000   27.5940   44.0950 N   0  0  0  0  0  0  0  0  0  0  0  0
   58.0410   26.6270   44.7900 C   0  0  0  0  0  0  0  0  0  0  0  0
   57.8390   25.1690   44.5940 C   0  0  0  0  0  0  0  0  0  0  0  0
   57.0150   24.6930   43.5550 C   0  0  0  0  0  0  0  0  0  0  0  0
   56.8280   23.3190   43.3730 C   0  0  0  0  0  0  0  0  0  0  0  0
   57.4590   22.4060   44.2210 C   0  0  0  0  0  0  0  0  0  0  0  0
   58.2800   22.8660   45.2520 C   0  0  0  0  0  0  0  0  0  0  0  0
   58.4710   24.2370   45.4390 C   0  0  0  0  0  0  0  0  0  0  0  0
   58.9060   27.2220   45.7090 C   0  0  0  0  0  0  0  0  0  0  0  0
   58.7310   28.5820   45.5060 C   0  0  0  0  0  0  0  0  0  0  0  0
   59.3310   29.6720   46.1340 C   0  0  0  0  0  0  0  0  0  0  0  0
   60.2870   29.5170   47.1520 C   0  0  0  0  0  0  0  0  0  0  0  0
   60.8600   30.6380   47.7500 C   0  0  0  0  0  0  0  0  0  0  0  0
   60.4870   31.9180   47.3410 C   0  0  0  0  0  0  0  0  0  0  0  0
   59.5380   32.0880   46.3300 C   0  0  0  0  0  0  0  0  0  0  0  0
   58.9360   30.9710   45.7010 C   0  0  0  0  0  0  0  0  0  0  0  0
   57.3751   33.0930   45.1140 H   0  0  0  0  0  0  0  0  0  0  0  0
   58.3747   32.9020   43.6338 H   0  0  0  0  0  0  0  0  0  0  0  0
   56.6591   32.3697   43.6338 H   0  0  0  0  0  0  0  0  0  0  0  0
   56.6750   27.4670   43.3540 H   0  0  0  0  0  0  0  0  0  0  0  0
   56.5157   25.4064   42.8829 H   0  0  0  0  0  0  0  0  0  0  0  0
   56.1822   22.9563   42.5597 H   0  0  0  0  0  0  0  0  0  0  0  0
   57.3092   21.3259   44.0766 H   0  0  0  0  0  0  0  0  0  0  0  0
   58.7779   22.1468   45.9190 H   0  0  0  0  0  0  0  0  0  0  0  0
   59.1204   24.5913   46.2530 H   0  0  0  0  0  0  0  0  0  0  0  0
   59.5734   26.7259   46.4291 H   0  0  0  0  0  0  0  0  0  0  0  0
   60.5837   28.5091   47.4776 H   0  0  0  0  0  0  0  0  0  0  0  0
   61.6083   30.5128   48.5465 H   0  0  0  0  0  0  0  0  0  0  0  0
   60.9426   32.7987   47.8171 H   0  0  0  0  0  0  0  0  0  0  0  0
   59.2543   33.1040   46.0180 H   0  0  0  0  0  0  0  0  0  0  0  0
  1  2  1  0
  2  3  1  0
  3  4  2  0
  3  5  1  0
  5  6  1  0
  6  7  2  0
  7  8  1  0
  8  9  2  0
  9 10  1  0
 10 11  2  0
 11 12  1  0
 12 13  2  0
  7 14  1  0
 14 15  2  0
 15 16  1  0
 16 17  2  0
 17 18  1  0
 18 19  2  0
 19 20  1  0
 20 21  2  0
 21  2  1  0
 15  5  1  0
 21 16  1  0
 13  8  1  0
  1 22  1  0
  1 23  1  0
  1 24  1  0
  6 25  1  0
  9 26  1  0
 10 27  1  0
 11 28  1  0
 12 29  1  0
 13 30  1  0
 14 31  1  0
 17 32  1  0
 18 33  1  0
 19 34  1  0
 20 35  1  0
M  CHG  1   6   1
M  END
>  <UniqueID>  (31) 
29

>  <SMILES>  (31) 
Cn1c(=O)n2[nH+]c(-c3ccccc3)cc2c2ccccc21

>  <Energy>  (31) 
88.43244650805025

>  <Genealogy>  (31) 
Cn1c(=O)n2[nH+]c(-c3ccccc3)cc2c2ccccc21 (protonated)
Cn1c(=O)n2[nH+]c(-c3ccccc3)cc2c2ccccc21 (3D coordinates assigned)
Cn1c(=O)n2[nH+]c(-c3ccccc3)cc2c2ccccc21 (optimized conformer: 88.43244650805025 kcal/mol)

>  <smiles>  (31) 
Cn1c(=O)n2nc(-c3ccccc3)cc2c2ccccc21

>  <score_type>  (31) 
oracle

>  <origin>  (31) 
adg

>  <m_score__min__energy>  (31) 
-5.8700000000000001

>  <m_primary>  (31) 
energy

$$$$
