0:0
     RDKit          3D

 54 57  0  0  0  0  0  0  0  0999 V2000
   60.3760   29.3400   45.2210 C   0  0  0  0  0  0  0  0  0  0  0  0
   60.5800   30.0170   46.4570 O   0  0  0  0  0  0  0  0  0  0  0  0
   60.6880   29.3790   47.7040 C   0  0  0  0  0  0  0  0  0  0  0  0
   60.3110   28.0320   47.8810 C   0  0  0  0  0  0  0  0  0  0  0  0
   60.4150   27.4280   49.1370 C   0  0  0  0  0  0  0  0  0  0  0  0
   60.8950   28.1540   50.2250 C   0  0  0  0  0  0  0  0  0  0  0  0
   61.2730   29.4880   50.0650 C   0  0  0  0  0  0  0  0  0  0  0  0
   61.1770   30.1110   48.8080 C   0  0  0  0  0  0  0  0  0  0  0  0
   61.5690   31.4880   48.6590 N   0  0  0  0  0  0  0  0  0  0  0  0
   61.3500   32.4350   49.7590 C   0  0  0  0  0  0  0  0  0  0  0  0
   61.7550   33.8570   49.3440 C   0  0  0  0  0  0  0  0  0  0  0  0
   61.2490   34.1960   47.9960 N   0  0  0  0  0  0  0  0  0  0  0  0
   59.7890   34.4350   48.0010 C   0  0  0  0  0  0  0  0  0  0  0  0
   59.1360   33.8290   46.7680 C   0  0  0  0  0  0  0  0  0  0  0  0
   59.0730   34.5650   45.5400 C   0  0  0  0  0  0  0  0  0  0  0  0
   59.6430   35.9490   45.4080 C   0  0  0  0  0  0  0  0  0  0  0  0
   58.5080   34.0060   44.4310 N   0  0  0  0  0  0  0  0  0  0  0  0
   57.9850   32.7640   44.5110 C   0  0  0  0  0  0  0  0  0  0  0  0
   57.3990   32.0910   43.5110 N   0  0  0  0  0  0  0  0  0  0  0  0
   57.0480   30.9310   44.1200 C   0  0  0  0  0  0  0  0  0  0  0  0
   56.4040   29.7840   43.4150 C   0  0  0  0  0  0  0  0  0  0  0  0
   57.4200   30.8960   45.4230 N   0  0  0  0  0  0  0  0  0  0  0  0
   58.0000   32.0640   45.6430 N   0  0  0  0  0  0  0  0  0  0  0  0
   58.5480   32.5300   46.7970 C   0  0  0  0  0  0  0  0  0  0  0  0
   58.4960   31.6930   48.0500 C   0  0  0  0  0  0  0  0  0  0  0  0
   61.6750   33.2420   46.9330 C   0  0  0  0  0  0  0  0  0  0  0  0
   62.2930   31.9370   47.4670 C   0  0  0  0  0  0  0  0  0  0  0  0
   60.0637   28.3038   45.4177 H   0  0  0  0  0  0  0  0  0  0  0  0
   59.5934   29.8558   44.6452 H   0  0  0  0  0  0  0  0  0  0  0  0
   61.3133   29.3375   44.6452 H   0  0  0  0  0  0  0  0  0  0  0  0
   59.9328   27.4531   47.0255 H   0  0  0  0  0  0  0  0  0  0  0  0
   60.1172   26.3771   49.2669 H   0  0  0  0  0  0  0  0  0  0  0  0
   60.9762   27.6750   51.2119 H   0  0  0  0  0  0  0  0  0  0  0  0
   61.6488   30.0563   50.9286 H   0  0  0  0  0  0  0  0  0  0  0  0
   60.2847   32.4291   50.0331 H   0  0  0  0  0  0  0  0  0  0  0  0
   61.9679   32.1286   50.6159 H   0  0  0  0  0  0  0  0  0  0  0  0
   61.3419   34.5722   50.0706 H   0  0  0  0  0  0  0  0  0  0  0  0
   62.8535   33.9092   49.3222 H   0  0  0  0  0  0  0  0  0  0  0  0
   59.3523   33.9781   48.9013 H   0  0  0  0  0  0  0  0  0  0  0  0
   59.6103   35.5204   47.9960 H   0  0  0  0  0  0  0  0  0  0  0  0
   59.8168   36.3710   46.4089 H   0  0  0  0  0  0  0  0  0  0  0  0
   60.5952   35.9026   44.8592 H   0  0  0  0  0  0  0  0  0  0  0  0
   58.9343   36.5866   44.8592 H   0  0  0  0  0  0  0  0  0  0  0  0
   57.2560   32.3830   42.5190 H   0  0  0  0  0  0  0  0  0  0  0  0
   56.0059   29.0750   44.1559 H   0  0  0  0  0  0  0  0  0  0  0  0
   55.5826   30.1555   42.7848 H   0  0  0  0  0  0  0  0  0  0  0  0
   57.1488   29.2761   42.7848 H   0  0  0  0  0  0  0  0  0  0  0  0
   58.5368   32.3497   48.9315 H   0  0  0  0  0  0  0  0  0  0  0  0
   57.5602   31.1150   48.0663 H   0  0  0  0  0  0  0  0  0  0  0  0
   59.3530   31.0037   48.0663 H   0  0  0  0  0  0  0  0  0  0  0  0
   60.7935   32.9838   46.3277 H   0  0  0  0  0  0  0  0  0  0  0  0
   62.4590   33.7477   46.3502 H   0  0  0  0  0  0  0  0  0  0  0  0
   62.2315   31.1607   46.6901 H   0  0  0  0  0  0  0  0  0  0  0  0
   63.3450   32.1189   47.7319 H   0  0  0  0  0  0  0  0  0  0  0  0
  1  2  1  0
  2  3  1  0
  3  4  2  0
  4  5  1  0
  5  6  2  0
  6  7  1  0
  7  8  2  0
  8  9  1  0
  9 10  1  0
 10 11  1  0
 11 12  1  0
 12 13  1  0
 13 14  1  0
 14 15  1  0
 15 16  1  0
 15 17  2  0
 17 18  1  0
 18 19  2  0
 19 20  1  0
 20 21  1  0
 20 22  2  0
 22 23  1  0
 23 24  1  0
 24 25  1  0
 12 26  1  0
 26 27  1  0
  8  3  1  0
 27  9  1  0
 24 14  2  0
 23 18  1  0
  1 28  1  0
  1 29  1  0
  1 30  1  0
  4 31  1  0
  5 32  1  0
  6 33  1  0
  7 34  1  0
 10 35  1  0
 10 36  1  0
 11 37  1  0
 11 38  1  0
 13 39  1  0
 13 40  1  0
 16 41  1  0
 16 42  1  0
 16 43  1  0
 19 44  1  0
 21 45  1  0
 21 46  1  0
 21 47  1  0
 25 48  1  0
 25 49  1  0
 25 50  1  0
 26 51  1  0
 26 52  1  0
 27 53  1  0
 27 54  1  0
M  CHG  1  19   1
M  END
>  <UniqueID>  (1) 
1

>  <SMILES>  (1) 
COc1ccccc1N1CCN(Cc2c(C)nc3[nH+]c(C)nn3c2C)CC1

>  <Energy>  (1) 
110.25486400185352

>  <Genealogy>  (1) 
COc1ccccc1N1CCN(Cc2c(C)nc3[nH+]c(C)nn3c2C)CC1 (protonated)
COc1ccccc1N1CCN(Cc2c(C)nc3[nH+]c(C)nn3c2C)CC1 (3D coordinates assigned)
COc1ccccc1N1CCN(Cc2c(C)nc3[nH+]c(C)nn3c2C)CC1 (nonaromatic ring conformer: 110.25486400185352 kcal/mol)

>  <smiles>  (1) 
COc1ccccc1N1CCN(Cc2c(C)nc3nc(C)nn3c2C)CC1

>  <score_type>  (1) 
oracle

>  <origin>  (1) 
adg

>  <m_score__min__energy>  (1) 
-7.1600000000000001

>  <m_primary>  (1) 
energy

$$$$
1:0
     RDKit          3D

 37 38  0  0  0  0  0  0  0  0999 V2000
   55.5820   27.0660   46.7400 H   0  0  0  0  0  0  0  0  0  0  0  0
   55.0710   26.3470   46.2850 O   0  0  0  0  0  0  0  0  0  0  0  0
   55.9310   25.2430   46.1860 C   0  0  0  0  0  0  0  0  0  0  0  0
   55.6410   24.6360   45.3157 H   0  0  0  0  0  0  0  0  0  0  0  0
   55.8521   24.6488   47.1084 H   0  0  0  0  0  0  0  0  0  0  0  0
   57.3820   25.7020   46.0180 C   0  0  0  0  0  0  0  0  0  0  0  0
   57.5973   25.8279   44.9466 H   0  0  0  0  0  0  0  0  0  0  0  0
   58.0427   24.9405   46.4581 H   0  0  0  0  0  0  0  0  0  0  0  0
   57.6150   26.9730   46.7050 N   0  0  0  0  0  0  0  0  0  0  0  0
   57.4080   28.1480   46.1900 C   0  0  0  0  0  0  0  0  0  0  0  0
   56.4610   28.3390   45.2320 N   0  0  0  0  0  0  0  0  0  0  0  0
   56.2660   29.5740   44.7030 C   0  0  0  0  0  0  0  0  0  0  0  0
   55.2020   29.7880   43.6800 C   0  0  0  0  0  0  0  0  0  0  0  0
   54.2430   29.9809   44.1832 H   0  0  0  0  0  0  0  0  0  0  0  0
   55.4662   30.6510   43.0512 H   0  0  0  0  0  0  0  0  0  0  0  0
   55.1120   28.8900   43.0512 H   0  0  0  0  0  0  0  0  0  0  0  0
   57.0010   30.6230   45.1520 N   0  0  0  0  0  0  0  0  0  0  0  0
   57.9470   30.4410   46.1090 C   0  0  0  0  0  0  0  0  0  0  0  0
   58.6410   31.4630   46.5130 N   0  0  0  0  0  0  0  0  0  0  0  0
   58.2240   32.8560   46.7310 C   0  0  0  0  0  0  0  0  0  0  0  0
   57.2561   32.8099   47.2516 H   0  0  0  0  0  0  0  0  0  0  0  0
   59.1340   33.6200   47.7280 C   0  0  0  0  0  0  0  0  0  0  0  0
   58.4934   34.2616   48.3509 H   0  0  0  0  0  0  0  0  0  0  0  0
   59.6737   32.8512   48.3003 H   0  0  0  0  0  0  0  0  0  0  0  0
   60.2090   34.5050   47.0830 C   0  0  0  0  0  0  0  0  0  0  0  0
   60.6394   35.1621   47.8530 H   0  0  0  0  0  0  0  0  0  0  0  0
   60.9791   33.8498   46.6498 H   0  0  0  0  0  0  0  0  0  0  0  0
   59.6310   35.3670   45.9630 C   0  0  0  0  0  0  0  0  0  0  0  0
   58.8519   36.0233   46.3780 H   0  0  0  0  0  0  0  0  0  0  0  0
   60.4419   35.9671   45.5244 H   0  0  0  0  0  0  0  0  0  0  0  0
   59.0200   34.4930   44.8690 C   0  0  0  0  0  0  0  0  0  0  0  0
   58.6144   35.1417   44.0786 H   0  0  0  0  0  0  0  0  0  0  0  0
   59.8085   33.8368   44.4720 H   0  0  0  0  0  0  0  0  0  0  0  0
   57.8910   33.6100   45.4170 C   0  0  0  0  0  0  0  0  0  0  0  0
   57.0172   34.2514   45.6043 H   0  0  0  0  0  0  0  0  0  0  0  0
   57.7113   32.8357   44.6567 H   0  0  0  0  0  0  0  0  0  0  0  0
   58.1440   29.2020   46.6220 N   0  0  0  0  0  0  0  0  0  0  0  0
  1  2  1  0
  2  3  1  0
  3  4  1  0
  3  5  1  0
  3  6  1  0
  6  7  1  0
  6  8  1  0
  6  9  1  0
  9 10  2  0
 10 11  1  0
 11 12  1  0
 12 13  1  0
 13 14  1  0
 13 15  1  0
 13 16  1  0
 12 17  2  0
 17 18  1  0
 18 19  2  0
 19 20  1  0
 20 21  1  0
 20 22  1  0
 22 23  1  0
 22 24  1  0
 22 25  1  0
 25 26  1  0
 25 27  1  0
 25 28  1  0
 28 29  1  0
 28 30  1  0
 28 31  1  0
 31 32  1  0
 31 33  1  0
 31 34  1  0
 34 35  1  0
 34 36  1  0
 18 37  1  0
 37 10  1  0
 34 20  1  0
M  CHG  2  11  -1  37  -1
M  END
>  <UniqueID>  (2) 
2

>  <SMILES>  (2) 
Cc1n/c(=N/C2CCCCC2)[n-]/c(=N/CCO)[n-]1

>  <Energy>  (2) 
35.31653001992346

>  <Genealogy>  (2) 
Cc1nc(=NC2CCCCC2)[n-]c(=NCCO)[n-]1 (protonated)
Cc1n/c(=N/C2CCCCC2)[n-]/c(=N/CCO)[n-]1 (cis-trans isomerization)
Cc1n/c(=N/C2CCCCC2)[n-]/c(=N/CCO)[n-]1 (3D coordinates assigned)
Cc1n/c(=N/C2CCCCC2)[n-]/c(=N/CCO)[n-]1 (nonaromatic ring conformer: 35.31653001992346 kcal/mol)

>  <smiles>  (2) 
Cc1nc(=NC2CCCCC2)[nH]c(=NCCO)[nH]1

>  <score_type>  (2) 
oracle

>  <origin>  (2) 
adg

>  <m_score__min__energy>  (2) 
-10.300000000000001

>  <m_primary>  (2) 
energy

$$$$
2:0
     RDKit          3D

 44 47  0  0  0  0  0  0  0  0999 V2000
   56.4570   19.6790   45.1790 C   0  0  0  0  0  0  0  0  0  0  0  0
   56.1710   20.6240   44.1530 O   0  0  0  0  0  0  0  0  0  0  0  0
   56.5760   21.9660   44.1780 C   0  0  0  0  0  0  0  0  0  0  0  0
   57.1660   22.5570   45.3090 C   0  0  0  0  0  0  0  0  0  0  0  0
   57.5540   23.9000   45.2840 C   0  0  0  0  0  0  0  0  0  0  0  0
   57.3580   24.6810   44.1300 C   0  0  0  0  0  0  0  0  0  0  0  0
   57.7690   26.1070   44.1050 C   0  0  0  0  0  0  0  0  0  0  0  0
   58.2070   26.8760   45.1680 C   0  0  0  0  0  0  0  0  0  0  0  0
   58.4630   28.1090   44.6800 N   0  0  0  0  0  0  0  0  0  0  0  0
   58.9370   29.2680   45.3970 C   0  0  0  0  0  0  0  0  0  0  0  0
   58.3090   30.5140   45.2160 C   0  0  0  0  0  0  0  0  0  0  0  0
   58.7570   31.6450   45.9030 C   0  0  0  0  0  0  0  0  0  0  0  0
   59.8320   31.5550   46.7930 C   0  0  0  0  0  0  0  0  0  0  0  0
   60.2590   32.7170   47.4530 O   0  0  0  0  0  0  0  0  0  0  0  0
   61.5600   32.9560   47.9180 C   0  0  0  0  0  0  0  0  0  0  0  0
   62.6510   33.1020   47.0390 C   0  0  0  0  0  0  0  0  0  0  0  0
   63.9360   33.3220   47.5440 C   0  0  0  0  0  0  0  0  0  0  0  0
   64.1450   33.3860   48.9250 C   0  0  0  0  0  0  0  0  0  0  0  0
   63.0690   33.2230   49.8020 C   0  0  0  0  0  0  0  0  0  0  0  0
   61.7830   33.0020   49.3000 C   0  0  0  0  0  0  0  0  0  0  0  0
   60.4800   30.3210   46.9620 C   0  0  0  0  0  0  0  0  0  0  0  0
   60.0350   29.1870   46.2770 C   0  0  0  0  0  0  0  0  0  0  0  0
   58.1910   28.1020   43.3830 N   0  0  0  0  0  0  0  0  0  0  0  0
   57.7730   26.9020   43.0140 N   0  0  0  0  0  0  0  0  0  0  0  0
   56.7680   24.0840   43.0020 C   0  0  0  0  0  0  0  0  0  0  0  0
   56.3820   22.7400   43.0300 C   0  0  0  0  0  0  0  0  0  0  0  0
   56.3142   20.1509   46.1623 H   0  0  0  0  0  0  0  0  0  0  0  0
   55.7792   18.8179   45.0836 H   0  0  0  0  0  0  0  0  0  0  0  0
   57.4985   19.3382   45.0836 H   0  0  0  0  0  0  0  0  0  0  0  0
   57.3233   21.9593   46.2189 H   0  0  0  0  0  0  0  0  0  0  0  0
   58.0167   24.3502   46.1746 H   0  0  0  0  0  0  0  0  0  0  0  0
   58.3243   26.5465   46.2109 H   0  0  0  0  0  0  0  0  0  0  0  0
   57.4563   30.5985   44.5263 H   0  0  0  0  0  0  0  0  0  0  0  0
   58.2605   32.6134   45.7427 H   0  0  0  0  0  0  0  0  0  0  0  0
   62.4915   33.0428   45.9522 H   0  0  0  0  0  0  0  0  0  0  0  0
   64.7838   33.4449   46.8539 H   0  0  0  0  0  0  0  0  0  0  0  0
   65.1556   33.5645   49.3210 H   0  0  0  0  0  0  0  0  0  0  0  0
   63.2342   33.2687   50.8886 H   0  0  0  0  0  0  0  0  0  0  0  0
   60.9413   32.8634   49.9945 H   0  0  0  0  0  0  0  0  0  0  0  0
   61.3442   30.2462   47.6385 H   0  0  0  0  0  0  0  0  0  0  0  0
   60.5455   28.2240   46.4258 H   0  0  0  0  0  0  0  0  0  0  0  0
   57.4840   26.6580   42.0430 H   0  0  0  0  0  0  0  0  0  0  0  0
   56.6088   24.6786   42.0904 H   0  0  0  0  0  0  0  0  0  0  0  0
   55.9211   22.2873   42.1397 H   0  0  0  0  0  0  0  0  0  0  0  0
  1  2  1  0
  2  3  1  0
  3  4  2  0
  4  5  1  0
  5  6  2  0
  6  7  1  0
  7  8  2  0
  8  9  1  0
  9 10  1  0
 10 11  2  0
 11 12  1  0
 12 13  2  0
 13 14  1  0
 14 15  1  0
 15 16  2  0
 16 17  1  0
 17 18  2  0
 18 19  1  0
 19 20  2  0
 13 21  1  0
 21 22  2  0
  9 23  1  0
 23 24  2  0
  6 25  1  0
 25 26  2  0
 26  3  1  0
 24  7  1  0
 22 10  1  0
 20 15  1  0
  1 27  1  0
  1 28  1  0
  1 29  1  0
  4 30  1  0
  5 31  1  0
  8 32  1  0
 11 33  1  0
 12 34  1  0
 16 35  1  0
 17 36  1  0
 18 37  1  0
 19 38  1  0
 20 39  1  0
 21 40  1  0
 22 41  1  0
 24 42  1  0
 25 43  1  0
 26 44  1  0
M  CHG  1  24   1
M  END
>  <UniqueID>  (3) 
3

>  <SMILES>  (3) 
COc1ccc(-c2cn(-c3ccc(Oc4ccccc4)cc3)n[nH+]2)cc1

>  <Energy>  (3) 
94.824174221085

>  <Genealogy>  (3) 
COc1ccc(-c2cn(-c3ccc(Oc4ccccc4)cc3)n[nH+]2)cc1 (protonated)
COc1ccc(-c2cn(-c3ccc(Oc4ccccc4)cc3)n[nH+]2)cc1 (3D coordinates assigned)
COc1ccc(-c2cn(-c3ccc(Oc4ccccc4)cc3)n[nH+]2)cc1 (optimized conformer: 94.824174221085 kcal/mol)

>  <smiles>  (3) 
COc1ccc(-c2cn(-c3ccc(Oc4ccccc4)cc3)nn2)cc1

>  <score_type>  (3) 
oracle

>  <origin>  (3) 
adg

>  <m_score__min__energy>  (3) 
-5.8799999999999999

>  <m_primary>  (3) 
energy

$$$$
3:0
     RDKit          3D

 24 24  0  0  0  0  0  0  0  0999 V2000
   62.9725   34.3158   45.9308 H   0  0  0  0  0  0  0  0  0  0  0  0
   62.3720   33.8380   46.7190 C   0  0  0  0  0  0  0  0  0  0  0  0
   61.1190   33.4570   46.4190 C   0  0  0  0  0  0  0  0  0  0  0  0
   60.9579   32.4388   46.0353 H   0  0  0  0  0  0  0  0  0  0  0  0
   59.9750   34.3220   46.5770 N   0  0  0  0  0  0  0  0  0  0  0  0
   59.3720   34.5880   47.8890 C   0  0  0  0  0  0  0  0  0  0  0  0
   60.0693   34.2804   48.6822 H   0  0  0  0  0  0  0  0  0  0  0  0
   59.1600   35.6632   47.9839 H   0  0  0  0  0  0  0  0  0  0  0  0
   58.4350   34.0197   47.9839 H   0  0  0  0  0  0  0  0  0  0  0  0
   59.4100   34.9280   45.3690 C   0  0  0  0  0  0  0  0  0  0  0  0
   58.6854   35.7052   45.6532 H   0  0  0  0  0  0  0  0  0  0  0  0
   60.2171   35.3794   44.7733 H   0  0  0  0  0  0  0  0  0  0  0  0
   58.9033   34.1544   44.7733 H   0  0  0  0  0  0  0  0  0  0  0  0
   62.9910   33.6500   48.0550 C   0  0  0  0  0  0  0  0  0  0  0  0
   62.4520   34.2310   49.2190 C   0  0  0  0  0  0  0  0  0  0  0  0
   61.5369   34.8387   49.1615 H   0  0  0  0  0  0  0  0  0  0  0  0
   63.0860   34.0310   50.4460 C   0  0  0  0  0  0  0  0  0  0  0  0
   62.6665   34.4738   51.3614 H   0  0  0  0  0  0  0  0  0  0  0  0
   64.2520   33.2690   50.5100 C   0  0  0  0  0  0  0  0  0  0  0  0
   64.7553   33.1028   51.4739 H   0  0  0  0  0  0  0  0  0  0  0  0
   64.7730   32.7200   49.3390 C   0  0  0  0  0  0  0  0  0  0  0  0
   65.6944   32.1204   49.3778 H   0  0  0  0  0  0  0  0  0  0  0  0
   64.1460   32.9230   48.1480 N   0  0  0  0  0  0  0  0  0  0  0  0
   64.5630   32.4970   47.2900 H   0  0  0  0  0  0  0  0  0  0  0  0
  1  2  1  0
  2  3  2  0
  3  4  1  0
  3  5  1  0
  5  6  1  0
  6  7  1  0
  6  8  1  0
  6  9  1  0
  5 10  1  0
 10 11  1  0
 10 12  1  0
 10 13  1  0
  2 14  1  0
 14 15  2  0
 15 16  1  0
 15 17  1  0
 17 18  1  0
 17 19  2  0
 19 20  1  0
 19 21  1  0
 21 22  1  0
 21 23  2  0
 23 24  1  0
 23 14  1  0
M  CHG  1  23   1
M  END
>  <UniqueID>  (4) 
4

>  <SMILES>  (4) 
CN(C)/C=C/c1cccc[nH+]1

>  <Energy>  (4) 
22.05079080305951

>  <Genealogy>  (4) 
CN(C)C=Cc1cccc[nH+]1 (protonated)
CN(C)/C=C/c1cccc[nH+]1 (cis-trans isomerization)
CN(C)/C=C/c1cccc[nH+]1 (3D coordinates assigned)
CN(C)/C=C/c1cccc[nH+]1 (optimized conformer: 22.05079080305951 kcal/mol)

>  <smiles>  (4) 
CN(C)C=Cc1ccccn1

>  <score_type>  (4) 
oracle

>  <origin>  (4) 
adg

>  <m_score__min__energy>  (4) 
-2.7599999999999998

>  <m_primary>  (4) 
energy

$$$$
4:0
     RDKit          3D

 51 54  0  0  0  0  0  0  0  0999 V2000
   57.2290   20.9630   46.3430 C   0  0  0  0  0  0  0  0  0  0  0  0
   57.1410   22.1020   47.1910 O   0  0  0  0  0  0  0  0  0  0  0  0
   57.3800   23.4210   46.7740 C   0  0  0  0  0  0  0  0  0  0  0  0
   56.5110   24.4830   47.0920 C   0  0  0  0  0  0  0  0  0  0  0  0
   56.7960   25.7790   46.6540 C   0  0  0  0  0  0  0  0  0  0  0  0
   57.9560   26.0430   45.9130 C   0  0  0  0  0  0  0  0  0  0  0  0
   58.2130   27.3800   45.4520 N   0  0  0  0  0  0  0  0  0  0  0  0
   58.0790   27.8110   44.0830 C   0  0  0  0  0  0  0  0  0  0  0  0
   58.3100   26.7380   42.8560 S   0  0  0  0  0  0  0  0  0  0  0  0
   57.4350   29.1420   43.7560 C   0  0  1  0  0  0  0  0  0  0  0  0
   56.0030   29.3390   44.2300 C   0  0  0  0  0  0  0  0  0  0  0  0
   55.8060   30.8400   44.1470 C   0  0  0  0  0  0  0  0  0  0  0  0
   57.2120   31.4360   44.0440 C   0  0  0  0  0  0  0  0  0  0  0  0
   58.1920   30.3420   44.1600 N   0  0  0  0  0  0  0  0  0  0  0  0
   58.8990   30.3020   45.7800 S   0  0  0  0  0  0  0  0  0  0  0  0
   57.9450   29.6220   46.7170 O   0  0  0  0  0  0  0  0  0  0  0  0
   60.1210   29.4230   45.7440 O   0  0  0  0  0  0  0  0  0  0  0  0
   59.4340   31.9000   46.3770 C   0  0  0  0  0  0  0  0  0  0  0  0
   58.4960   32.9400   46.2430 C   0  0  0  0  0  0  0  0  0  0  0  0
   58.7800   34.2330   46.6680 C   0  0  0  0  0  0  0  0  0  0  0  0
   60.0160   34.5320   47.2240 C   0  0  0  0  0  0  0  0  0  0  0  0
   60.9910   33.5360   47.3540 C   0  0  0  0  0  0  0  0  0  0  0  0
   62.2390   33.8680   47.9050 C   0  0  0  0  0  0  0  0  0  0  0  0
   63.2290   32.8990   48.0410 C   0  0  0  0  0  0  0  0  0  0  0  0
   62.9830   31.5920   47.6330 C   0  0  0  0  0  0  0  0  0  0  0  0
   61.7470   31.2420   47.0870 C   0  0  0  0  0  0  0  0  0  0  0  0
   60.7190   32.2010   46.9310 C   0  0  0  0  0  0  0  0  0  0  0  0
   58.8070   24.9770   45.5730 C   0  0  0  0  0  0  0  0  0  0  0  0
   58.5230   23.6810   46.0100 C   0  0  0  0  0  0  0  0  0  0  0  0
   57.2993   20.0532   46.9572 H   0  0  0  0  0  0  0  0  0  0  0  0
   56.3324   20.9084   45.7081 H   0  0  0  0  0  0  0  0  0  0  0  0
   58.1233   21.0468   45.7081 H   0  0  0  0  0  0  0  0  0  0  0  0
   55.6056   24.2916   47.6867 H   0  0  0  0  0  0  0  0  0  0  0  0
   56.1035   26.5996   46.8930 H   0  0  0  0  0  0  0  0  0  0  0  0
   58.5820   28.0590   46.1520 H   0  0  0  0  0  0  0  0  0  0  0  0
   57.4390   29.0544   42.6595 H   0  0  0  0  0  0  0  0  0  0  0  0
   55.2953   28.8126   43.5726 H   0  0  0  0  0  0  0  0  0  0  0  0
   55.8270   28.9390   45.2395 H   0  0  0  0  0  0  0  0  0  0  0  0
   55.2127   31.1006   43.2581 H   0  0  0  0  0  0  0  0  0  0  0  0
   55.2633   31.2277   45.0217 H   0  0  0  0  0  0  0  0  0  0  0  0
   57.3314   31.9400   43.0736 H   0  0  0  0  0  0  0  0  0  0  0  0
   57.3701   32.1709   44.8470 H   0  0  0  0  0  0  0  0  0  0  0  0
   57.5160   32.7254   45.7919 H   0  0  0  0  0  0  0  0  0  0  0  0
   58.0215   35.0227   46.5631 H   0  0  0  0  0  0  0  0  0  0  0  0
   60.2304   35.5560   47.5639 H   0  0  0  0  0  0  0  0  0  0  0  0
   62.4356   34.9000   48.2311 H   0  0  0  0  0  0  0  0  0  0  0  0
   64.2055   33.1666   48.4709 H   0  0  0  0  0  0  0  0  0  0  0  0
   63.7680   30.8291   47.7414 H   0  0  0  0  0  0  0  0  0  0  0  0
   61.5694   30.2029   46.7727 H   0  0  0  0  0  0  0  0  0  0  0  0
   59.7009   25.1643   44.9599 H   0  0  0  0  0  0  0  0  0  0  0  0
   59.2043   22.8571   45.7511 H   0  0  0  0  0  0  0  0  0  0  0  0
  1  2  1  0
  2  3  1  0
  3  4  2  0
  4  5  1  0
  5  6  2  0
  6  7  1  0
  7  8  1  0
  8  9  2  0
  8 10  1  0
 10 11  1  0
 11 12  1  0
 12 13  1  0
 13 14  1  0
 14 15  1  0
 15 16  2  0
 15 17  2  0
 15 18  1  0
 18 19  2  0
 19 20  1  0
 20 21  2  0
 21 22  1  0
 22 23  2  0
 23 24  1  0
 24 25  2  0
 25 26  1  0
 26 27  2  0
  6 28  1  0
 28 29  2  0
 29  3  1  0
 14 10  1  0
 27 18  1  0
 27 22  1  0
  1 30  1  0
  1 31  1  0
  1 32  1  0
  4 33  1  0
  5 34  1  0
  7 35  1  0
 10 36  1  6
 11 37  1  0
 11 38  1  0
 12 39  1  0
 12 40  1  0
 13 41  1  0
 13 42  1  0
 19 43  1  0
 20 44  1  0
 21 45  1  0
 23 46  1  0
 24 47  1  0
 25 48  1  0
 26 49  1  0
 28 50  1  0
 29 51  1  0
M  END
>  <UniqueID>  (5) 
5

>  <SMILES>  (5) 
COc1ccc(NC(=S)[C@H]2CCCN2S(=O)(=O)c2cccc3ccccc23)cc1

>  <Energy>  (5) 
78.35451299986771

>  <Genealogy>  (5) 
COc1ccc(NC(=S)[C@H]2CCCN2S(=O)(=O)c2cccc3ccccc23)cc1 (chirality)
COc1ccc(NC(=S)[C@H]2CCCN2S(=O)(=O)c2cccc3ccccc23)cc1 (3D coordinates assigned)
COc1ccc(NC(=S)[C@H]2CCCN2S(=O)(=O)c2cccc3ccccc23)cc1 (nonaromatic ring conformer: 78.35451299986771 kcal/mol)

>  <smiles>  (5) 
COc1ccc(NC(=S)C2CCCN2S(=O)(=O)c2cccc3ccccc23)cc1

>  <score_type>  (5) 
oracle

>  <origin>  (5) 
adg

>  <m_score__min__energy>  (5) 
-9.0500000000000007

>  <m_primary>  (5) 
energy

$$$$
5:0
     RDKit          3D

 38 40  0  0  1  0  0  0  0  0999 V2000
   59.4240   33.7760   50.8460 C   0  0  0  0  0  0  0  0  0  0  0  0
   60.1860   33.8130   49.5800 C   0  0  0  0  0  0  0  0  0  0  0  0
   59.5470   34.1860   48.4200 C   0  0  0  0  0  0  0  0  0  0  0  0
   60.2850   34.2100   47.2530 C   0  0  0  0  0  0  0  0  0  0  0  0
   59.7280   34.5520   46.1530 N   0  0  0  0  0  0  0  0  0  0  0  0
   59.0540   33.6880   45.2220 C   0  0  0  0  0  0  0  0  0  0  0  0
   57.7480   33.1630   45.7470 C   0  0  0  0  0  0  0  0  0  0  0  0
   57.3880   31.8730   45.2640 N   0  0  0  0  0  0  0  0  0  0  0  0
   58.1040   30.7690   45.8130 C   0  0  0  0  0  0  0  0  0  0  0  0
   57.3770   29.4730   45.6490 C   0  0  0  0  0  0  0  0  0  0  0  0
   56.2230   29.7020   44.8820 O   0  0  0  0  0  0  0  0  0  0  0  0
   56.7220   30.2550   43.6780 C   0  0  0  0  0  0  0  0  0  0  0  0
   57.0860   31.7230   43.8950 C   0  0  0  0  0  0  0  0  0  0  0  0
   61.5850   33.8860   47.2180 N   0  0  0  0  0  0  0  0  0  0  0  0
   62.4800   33.8270   46.2870 N   0  0  0  0  0  0  0  0  0  0  0  0
   63.6850   33.4390   46.7410 C   0  0  0  0  0  0  0  0  0  0  0  0
   63.5010   33.2380   48.1020 C   0  0  0  0  0  0  0  0  0  0  0  0
   62.1770   33.5270   48.3680 C   0  0  0  0  0  0  0  0  0  0  0  0
   61.4980   33.4860   49.5420 N   0  0  0  0  0  0  0  0  0  0  0  0
   60.1222   33.8099   51.6953 H   0  0  0  0  0  0  0  0  0  0  0  0
   58.7478   34.6424   50.8924 H   0  0  0  0  0  0  0  0  0  0  0  0
   58.8349   32.8482   50.8924 H   0  0  0  0  0  0  0  0  0  0  0  0
   58.4809   34.4568   48.4221 H   0  0  0  0  0  0  0  0  0  0  0  0
   58.8588   34.2525   44.2983 H   0  0  0  0  0  0  0  0  0  0  0  0
   59.7086   32.8221   45.0440 H   0  0  0  0  0  0  0  0  0  0  0  0
   57.8154   33.1117   46.8437 H   0  0  0  0  0  0  0  0  0  0  0  0
   56.9700   33.8555   45.3931 H   0  0  0  0  0  0  0  0  0  0  0  0
   59.0774   30.6934   45.3063 H   0  0  0  0  0  0  0  0  0  0  0  0
   58.2209   30.9511   46.8915 H   0  0  0  0  0  0  0  0  0  0  0  0
   58.0249   28.7467   45.1364 H   0  0  0  0  0  0  0  0  0  0  0  0
   57.1002   29.0695   46.6342 H   0  0  0  0  0  0  0  0  0  0  0  0
   57.6179   29.6990   43.3644 H   0  0  0  0  0  0  0  0  0  0  0  0
   55.9498   30.1836   42.8979 H   0  0  0  0  0  0  0  0  0  0  0  0
   57.9604   31.9901   43.2834 H   0  0  0  0  0  0  0  0  0  0  0  0
   56.2556   32.3817   43.6009 H   0  0  0  0  0  0  0  0  0  0  0  0
   64.6113   33.3096   46.1620 H   0  0  0  0  0  0  0  0  0  0  0  0
   64.2613   32.9121   48.8271 H   0  0  0  0  0  0  0  0  0  0  0  0
   61.9710   33.2040   50.4320 H   0  0  0  0  0  0  0  0  0  0  0  0
  1  2  1  0
  2  3  2  0
  3  4  1  0
  4  5  2  0
  5  6  1  0
  6  7  1  0
  7  8  1  0
  8  9  1  0
  9 10  1  0
 10 11  1  0
 11 12  1  0
 12 13  1  0
  4 14  1  0
 14 15  1  0
 15 16  2  0
 16 17  1  0
 17 18  2  0
 18 19  1  0
 19  2  1  0
 13  8  1  0
 18 14  1  0
  1 20  1  0
  1 21  1  0
  1 22  1  0
  3 23  1  0
  6 24  1  0
  6 25  1  0
  7 26  1  0
  7 27  1  0
  9 28  1  0
  9 29  1  0
 10 30  1  0
 10 31  1  0
 12 32  1  0
 12 33  1  0
 13 34  1  0
 13 35  1  0
 16 36  1  0
 17 37  1  0
 19 38  1  0
M  END
>  <smiles>  (6) 
Cc1cc(=NCCN2CCOCC2)n2nccc2[nH]1

>  <score_type>  (6) 
oracle

>  <origin>  (6) 
adg

>  <m_score__min__energy>  (6) 
-6.8700000000000001

>  <m_primary>  (6) 
energy

$$$$
6:0
     RDKit          3D

 44 46  0  0  0  0  0  0  0  0999 V2000
   57.0160   34.3990   44.8860 C   0  0  0  0  0  0  0  0  0  0  0  0
   57.7980   33.5720   45.8720 C   0  0  0  0  0  0  0  0  0  0  0  0
   58.5670   34.2290   46.8480 C   0  0  0  0  0  0  0  0  0  0  0  0
   59.3460   33.4970   47.7480 C   0  0  0  0  0  0  0  0  0  0  0  0
   59.3650   32.1030   47.6830 C   0  0  0  0  0  0  0  0  0  0  0  0
   58.5910   31.4360   46.7320 C   0  0  0  0  0  0  0  0  0  0  0  0
   57.7790   32.1550   45.8450 C   0  0  0  0  0  0  0  0  0  0  0  0
   56.9910   31.4230   44.8980 N   0  0  0  0  0  0  0  0  0  0  0  0
   56.7510   30.0140   44.9730 C   0  0  0  0  0  0  0  0  0  0  0  0
   55.5750   29.5670   44.8890 O   0  0  0  0  0  0  0  0  0  0  0  0
   57.8630   29.1220   45.1330 N   0  0  0  0  0  0  0  0  0  0  0  0
   57.7390   27.7140   45.3930 C   0  0  0  0  0  0  0  0  0  0  0  0
   58.8820   26.9050   45.3470 C   0  0  0  0  0  0  0  0  0  0  0  0
   58.7920   25.5370   45.6160 C   0  0  0  0  0  0  0  0  0  0  0  0
   57.5600   24.9660   45.9470 C   0  0  0  0  0  0  0  0  0  0  0  0
   56.4040   25.7680   46.0210 C   0  0  0  0  0  0  0  0  0  0  0  0
   55.1440   25.2540   46.3680 O   0  0  0  0  0  0  0  0  0  0  0  0
   54.3010   24.4760   45.5160 C   0  0  0  0  0  0  0  0  0  0  0  0
   54.5740   22.9830   45.7050 C   0  0  0  0  0  0  0  0  0  0  0  0
   55.4480   22.4940   44.6420 N   0  0  0  0  0  0  0  0  0  0  0  0
   56.2770   21.4390   44.7030 C   0  0  0  0  0  0  0  0  0  0  0  0
   56.8510   21.2850   43.4600 C   0  0  0  0  0  0  0  0  0  0  0  0
   56.3760   22.2290   42.6220 N   0  0  0  0  0  0  0  0  0  0  0  0
   55.5180   22.9460   43.3760 C   0  0  0  0  0  0  0  0  0  0  0  0
   56.5050   27.1380   45.7510 C   0  0  0  0  0  0  0  0  0  0  0  0
   56.3590   35.0938   45.4298 H   0  0  0  0  0  0  0  0  0  0  0  0
   57.7115   34.9707   44.2540 H   0  0  0  0  0  0  0  0  0  0  0  0
   56.4063   33.7366   44.2540 H   0  0  0  0  0  0  0  0  0  0  0  0
   58.5555   35.3275   46.9038 H   0  0  0  0  0  0  0  0  0  0  0  0
   59.9447   34.0199   48.5083 H   0  0  0  0  0  0  0  0  0  0  0  0
   59.9909   31.5291   48.3822 H   0  0  0  0  0  0  0  0  0  0  0  0
   58.6188   30.3377   46.6785 H   0  0  0  0  0  0  0  0  0  0  0  0
   58.8160   29.5090   44.9510 H   0  0  0  0  0  0  0  0  0  0  0  0
   59.8566   27.3498   45.0975 H   0  0  0  0  0  0  0  0  0  0  0  0
   59.6929   24.9078   45.5672 H   0  0  0  0  0  0  0  0  0  0  0  0
   57.4927   23.8871   46.1504 H   0  0  0  0  0  0  0  0  0  0  0  0
   53.2490   24.6847   45.7603 H   0  0  0  0  0  0  0  0  0  0  0  0
   54.5097   24.7447   44.4699 H   0  0  0  0  0  0  0  0  0  0  0  0
   55.0603   22.8225   46.6785 H   0  0  0  0  0  0  0  0  0  0  0  0
   53.6208   22.4352   45.6679 H   0  0  0  0  0  0  0  0  0  0  0  0
   56.4640   20.8109   45.5865 H   0  0  0  0  0  0  0  0  0  0  0  0
   57.5846   20.5104   43.1920 H   0  0  0  0  0  0  0  0  0  0  0  0
   54.9407   23.8032   42.9991 H   0  0  0  0  0  0  0  0  0  0  0  0
   55.6090   27.7725   45.8194 H   0  0  0  0  0  0  0  0  0  0  0  0
  1  2  1  0
  2  3  2  0
  3  4  1  0
  4  5  2  0
  5  6  1  0
  6  7  2  0
  7  8  1  0
  8  9  1  0
  9 10  2  0
  9 11  1  0
 11 12  1  0
 12 13  2  0
 13 14  1  0
 14 15  2  0
 15 16  1  0
 16 17  1  0
 17 18  1  0
 18 19  1  0
 19 20  1  0
 20 21  1  0
 21 22  2  0
 22 23  1  0
 23 24  2  0
 16 25  2  0
  7  2  1  0
 25 12  1  0
 24 20  1  0
  1 26  1  0
  1 27  1  0
  1 28  1  0
  3 29  1  0
  4 30  1  0
  5 31  1  0
  6 32  1  0
 11 33  1  0
 13 34  1  0
 14 35  1  0
 15 36  1  0
 18 37  1  0
 18 38  1  0
 19 39  1  0
 19 40  1  0
 21 41  1  0
 22 42  1  0
 24 43  1  0
 25 44  1  0
M  CHG  1   8  -1
M  END
>  <UniqueID>  (7) 
6

>  <SMILES>  (7) 
Cc1ccccc1[N-]C(=O)Nc1cccc(OCCn2ccnc2)c1

>  <Energy>  (7) 
82.67856051875442

>  <Genealogy>  (7) 
Cc1ccccc1[N-]C(=O)Nc1cccc(OCCn2ccnc2)c1 (protonated)
Cc1ccccc1[N-]C(=O)Nc1cccc(OCCn2ccnc2)c1 (3D coordinates assigned)
Cc1ccccc1[N-]C(=O)Nc1cccc(OCCn2ccnc2)c1 (optimized conformer: 82.67856051875442 kcal/mol)

>  <smiles>  (7) 
Cc1ccccc1NC(=O)Nc1cccc(OCCn2ccnc2)c1

>  <score_type>  (7) 
oracle

>  <origin>  (7) 
adg

>  <m_score__min__energy>  (7) 
-9.6799999999999997

>  <m_primary>  (7) 
energy

$$$$
7:0
     RDKit          3D

 47 49  0  0  0  0  0  0  0  0999 V2000
   60.1950   33.3340   49.3230 C   0  0  0  0  0  0  0  0  0  0  0  0
   59.8350   34.4810   48.4340 C   0  0  0  0  0  0  0  0  0  0  0  0
   60.6000   34.5460   47.2010 N   0  0  0  0  0  0  0  0  0  0  0  0
   61.5180   33.4310   47.0860 C   0  0  0  0  0  0  0  0  0  0  0  0
   62.9270   33.8180   46.7520 C   0  0  0  0  0  0  0  0  0  0  0  0
   59.6660   34.6130   46.1100 C   0  0  0  0  0  0  0  0  0  0  0  0
   58.6130   33.5570   46.1230 C   0  0  0  0  0  0  0  0  0  0  0  0
   59.1340   32.2360   45.9070 O   0  0  0  0  0  0  0  0  0  0  0  0
   58.2380   31.3560   45.2800 C   0  0  0  0  0  0  0  0  0  0  0  0
   57.4300   31.7900   44.2450 C   0  0  0  0  0  0  0  0  0  0  0  0
   56.5490   30.9310   43.6290 C   0  0  0  0  0  0  0  0  0  0  0  0
   56.4720   29.6200   44.0490 C   0  0  0  0  0  0  0  0  0  0  0  0
   57.2620   29.1490   45.0760 C   0  0  0  0  0  0  0  0  0  0  0  0
   57.2070   27.7660   45.5490 C   0  0  0  0  0  0  0  0  0  0  0  0
   58.3510   27.1670   45.9530 N   0  0  0  0  0  0  0  0  0  0  0  0
   58.3520   25.8920   46.3920 C   0  0  0  0  0  0  0  0  0  0  0  0
   59.4520   25.3710   46.7610 O   0  0  0  0  0  0  0  0  0  0  0  0
   57.1640   25.1510   46.4400 C   0  0  0  0  0  0  0  0  0  0  0  0
   57.1800   23.8360   46.8920 C   0  0  0  0  0  0  0  0  0  0  0  0
   55.9420   23.1800   46.9000 C   0  0  0  0  0  0  0  0  0  0  0  0
   54.7850   23.8000   46.4880 C   0  0  0  0  0  0  0  0  0  0  0  0
   54.8560   25.0830   46.0610 N   0  0  0  0  0  0  0  0  0  0  0  0
   56.0050   25.7790   46.0240 C   0  0  0  0  0  0  0  0  0  0  0  0
   56.0610   27.0600   45.5940 N   0  0  0  0  0  0  0  0  0  0  0  0
   58.1240   30.0410   45.6620 C   0  0  0  0  0  0  0  0  0  0  0  0
   60.0986   33.6411   50.3749 H   0  0  0  0  0  0  0  0  0  0  0  0
   59.5187   32.4896   49.1241 H   0  0  0  0  0  0  0  0  0  0  0  0
   61.2325   33.0275   49.1241 H   0  0  0  0  0  0  0  0  0  0  0  0
   58.7697   34.3939   48.1740 H   0  0  0  0  0  0  0  0  0  0  0  0
   60.0651   35.3984   48.9956 H   0  0  0  0  0  0  0  0  0  0  0  0
   61.5276   32.8935   48.0457 H   0  0  0  0  0  0  0  0  0  0  0  0
   61.1568   32.8132   46.2506 H   0  0  0  0  0  0  0  0  0  0  0  0
   63.4945   33.9739   47.6813 H   0  0  0  0  0  0  0  0  0  0  0  0
   63.3981   33.0160   46.1648 H   0  0  0  0  0  0  0  0  0  0  0  0
   62.9224   34.7481   46.1648 H   0  0  0  0  0  0  0  0  0  0  0  0
   59.1682   35.5933   46.1453 H   0  0  0  0  0  0  0  0  0  0  0  0
   60.2507   34.4563   45.1915 H   0  0  0  0  0  0  0  0  0  0  0  0
   58.1084   33.5784   47.1002 H   0  0  0  0  0  0  0  0  0  0  0  0
   57.9212   33.7749   45.2960 H   0  0  0  0  0  0  0  0  0  0  0  0
   57.4924   32.8358   43.9097 H   0  0  0  0  0  0  0  0  0  0  0  0
   55.9106   31.2877   42.8073 H   0  0  0  0  0  0  0  0  0  0  0  0
   55.7662   28.9362   43.5548 H   0  0  0  0  0  0  0  0  0  0  0  0
   58.1058   23.3422   47.2223 H   0  0  0  0  0  0  0  0  0  0  0  0
   55.8936   22.1371   47.2464 H   0  0  0  0  0  0  0  0  0  0  0  0
   53.8238   23.2654   46.5051 H   0  0  0  0  0  0  0  0  0  0  0  0
   55.1500   27.4740   45.2950 H   0  0  0  0  0  0  0  0  0  0  0  0
   58.7603   29.6830   46.4848 H   0  0  0  0  0  0  0  0  0  0  0  0
  1  2  1  0
  2  3  1  0
  3  4  1  0
  4  5  1  0
  3  6  1  0
  6  7  1  0
  7  8  1  0
  8  9  1  0
  9 10  2  0
 10 11  1  0
 11 12  2  0
 12 13  1  0
 13 14  1  0
 14 15  2  0
 15 16  1  0
 16 17  2  0
 16 18  1  0
 18 19  2  0
 19 20  1  0
 20 21  2  0
 21 22  1  0
 22 23  2  0
 23 24  1  0
 13 25  2  0
 25  9  1  0
 24 14  1  0
 23 18  1  0
  1 26  1  0
  1 27  1  0
  1 28  1  0
  2 29  1  0
  2 30  1  0
  4 31  1  0
  4 32  1  0
  5 33  1  0
  5 34  1  0
  5 35  1  0
  6 36  1  0
  6 37  1  0
  7 38  1  0
  7 39  1  0
 10 40  1  0
 11 41  1  0
 12 42  1  0
 19 43  1  0
 20 44  1  0
 21 45  1  0
 24 46  1  0
 25 47  1  0
M  END
>  <smiles>  (8) 
CCN(CC)CCOc1cccc(-c2nc(=O)c3cccnc3[nH]2)c1

>  <score_type>  (8) 
oracle

>  <origin>  (8) 
adg

>  <m_score__min__energy>  (8) 
-7.75

>  <m_primary>  (8) 
energy

$$$$
8:0
     RDKit          3D

 40 42  0  0  0  0  0  0  0  0999 V2000
   65.5620   32.6570   50.0450 C   0  0  0  0  0  0  0  0  0  0  0  0
   64.9940   33.3530   48.9410 O   0  0  0  0  0  0  0  0  0  0  0  0
   63.6620   33.2190   48.5210 C   0  0  0  0  0  0  0  0  0  0  0  0
   63.2860   33.3080   47.1690 C   0  0  0  0  0  0  0  0  0  0  0  0
   61.9460   33.1680   46.7990 C   0  0  0  0  0  0  0  0  0  0  0  0
   60.9550   32.9530   47.7710 C   0  0  0  0  0  0  0  0  0  0  0  0
   61.3320   32.8460   49.1300 C   0  0  0  0  0  0  0  0  0  0  0  0
   62.6810   32.9780   49.4880 C   0  0  0  0  0  0  0  0  0  0  0  0
   60.3200   32.4900   50.1970 C   0  0  0  0  0  0  0  0  0  0  0  0
   58.8680   32.6890   49.7370 C   0  0  0  0  0  0  0  0  0  0  0  0
   58.6710   32.1230   48.3340 C   0  0  0  0  0  0  0  0  0  0  0  0
   59.5640   32.8250   47.4080 N   0  0  0  0  0  0  0  0  0  0  0  0
   58.9030   33.6500   46.0200 S   0  0  0  0  0  0  0  0  0  0  0  0
   59.9900   34.4450   45.3530 O   0  0  0  0  0  0  0  0  0  0  0  0
   57.8060   34.5860   46.4470 O   0  0  0  0  0  0  0  0  0  0  0  0
   58.2000   32.4980   44.8850 C   0  0  0  0  0  0  0  0  0  0  0  0
   58.2140   32.7840   43.5150 C   0  0  0  0  0  0  0  0  0  0  0  0
   57.6410   31.8920   42.6060 C   0  0  0  0  0  0  0  0  0  0  0  0
   57.0480   30.7110   43.0600 C   0  0  0  0  0  0  0  0  0  0  0  0
   57.0210   30.4110   44.4340 C   0  0  0  0  0  0  0  0  0  0  0  0
   56.3890   29.1640   44.9200 C   0  0  0  0  0  0  0  0  0  0  0  0
   55.1450   28.9920   44.8130 O   0  0  0  0  0  0  0  0  0  0  0  0
   57.1600   28.1640   45.5030 O   0  0  0  0  0  0  0  0  0  0  0  0
   57.6000   31.3150   45.3420 C   0  0  0  0  0  0  0  0  0  0  0  0
   65.1997   33.1009   50.9840 H   0  0  0  0  0  0  0  0  0  0  0  0
   65.2668   31.5982   50.0021 H   0  0  0  0  0  0  0  0  0  0  0  0
   66.6585   32.7340   50.0021 H   0  0  0  0  0  0  0  0  0  0  0  0
   64.0505   33.4887   46.3990 H   0  0  0  0  0  0  0  0  0  0  0  0
   61.6646   33.2267   45.7372 H   0  0  0  0  0  0  0  0  0  0  0  0
   62.9721   32.8907   50.5452 H   0  0  0  0  0  0  0  0  0  0  0  0
   60.4586   31.4344   50.4734 H   0  0  0  0  0  0  0  0  0  0  0  0
   60.4903   33.1634   51.0499 H   0  0  0  0  0  0  0  0  0  0  0  0
   58.1929   32.1715   50.4345 H   0  0  0  0  0  0  0  0  0  0  0  0
   58.6435   33.7657   49.7216 H   0  0  0  0  0  0  0  0  0  0  0  0
   58.9084   31.0489   48.3327 H   0  0  0  0  0  0  0  0  0  0  0  0
   57.6259   32.2615   48.0201 H   0  0  0  0  0  0  0  0  0  0  0  0
   58.6775   33.7137   43.1533 H   0  0  0  0  0  0  0  0  0  0  0  0
   57.6565   32.1197   41.5299 H   0  0  0  0  0  0  0  0  0  0  0  0
   56.5997   30.0119   42.3387 H   0  0  0  0  0  0  0  0  0  0  0  0
   57.5824   31.0930   46.4192 H   0  0  0  0  0  0  0  0  0  0  0  0
  1  2  1  0
  2  3  1  0
  3  4  2  0
  4  5  1  0
  5  6  2  0
  6  7  1  0
  7  8  2  0
  7  9  1  0
  9 10  1  0
 10 11  1  0
 11 12  1  0
 12 13  1  0
 13 14  2  0
 13 15  2  0
 13 16  1  0
 16 17  2  0
 17 18  1  0
 18 19  2  0
 19 20  1  0
 20 21  1  0
 21 22  2  0
 21 23  1  0
 20 24  2  0
  8  3  1  0
 24 16  1  0
 12  6  1  0
  1 25  1  0
  1 26  1  0
  1 27  1  0
  4 28  1  0
  5 29  1  0
  8 30  1  0
  9 31  1  0
  9 32  1  0
 10 33  1  0
 10 34  1  0
 11 35  1  0
 11 36  1  0
 17 37  1  0
 18 38  1  0
 19 39  1  0
 24 40  1  0
M  CHG  1  23  -1
M  END
>  <UniqueID>  (9) 
7

>  <SMILES>  (9) 
COc1ccc2c(c1)CCCN2S(=O)(=O)c1cccc(C(=O)[O-])c1

>  <Energy>  (9) 
45.80465481622863

>  <Genealogy>  (9) 
COc1ccc2c(c1)CCCN2S(=O)(=O)c1cccc(C(=O)[O-])c1 (protonated)
COc1ccc2c(c1)CCCN2S(=O)(=O)c1cccc(C(=O)[O-])c1 (3D coordinates assigned)
COc1ccc2c(c1)CCCN2S(=O)(=O)c1cccc(C(=O)[O-])c1 (nonaromatic ring conformer: 45.80465481622863 kcal/mol)

>  <smiles>  (9) 
COc1ccc2c(c1)CCCN2S(=O)(=O)c1cccc(C(=O)O)c1

>  <score_type>  (9) 
oracle

>  <origin>  (9) 
adg

>  <m_score__min__energy>  (9) 
-11.59

>  <m_primary>  (9) 
energy

$$$$
9:0
     RDKit          3D

 50 52  0  0  0  0  0  0  0  0999 V2000
   56.7850   26.4180   45.7330 C   0  0  0  0  0  0  0  0  0  0  0  0
   56.0220   27.6150   45.6220 O   0  0  0  0  0  0  0  0  0  0  0  0
   56.5140   28.8230   45.1020 C   0  0  0  0  0  0  0  0  0  0  0  0
   55.7670   29.6220   44.2160 C   0  0  0  0  0  0  0  0  0  0  0  0
   56.2990   30.8180   43.7250 C   0  0  0  0  0  0  0  0  0  0  0  0
   57.5840   31.2310   44.1050 C   0  0  0  0  0  0  0  0  0  0  0  0
   58.1380   32.5360   43.5940 C   0  0  0  0  0  0  0  0  0  0  0  0
   58.1170   33.5700   44.6500 N   0  0  0  0  0  0  0  0  0  0  0  0
   57.3270   33.1280   45.8270 C   0  0  0  0  0  0  0  0  0  0  0  0
   57.7600   33.8600   47.1020 C   0  0  0  0  0  0  0  0  0  0  0  0
   59.1640   33.5420   47.4470 N   0  0  0  0  0  0  0  0  0  0  0  0
   59.7180   34.5610   48.3620 C   0  0  0  0  0  0  0  0  0  0  0  0
   60.6820   33.9270   49.3340 C   0  0  0  0  0  0  0  0  0  0  0  0
   62.0420   33.8170   49.0000 C   0  0  0  0  0  0  0  0  0  0  0  0
   62.9430   33.2210   49.8870 C   0  0  0  0  0  0  0  0  0  0  0  0
   64.7890   33.0740   49.4190 Br  0  0  0  0  0  0  0  0  0  0  0  0
   62.4920   32.7320   51.1140 C   0  0  0  0  0  0  0  0  0  0  0  0
   61.1430   32.8340   51.4600 C   0  0  0  0  0  0  0  0  0  0  0  0
   60.2250   33.4320   50.5740 C   0  0  0  0  0  0  0  0  0  0  0  0
   58.8610   33.5500   50.8900 O   0  0  0  0  0  0  0  0  0  0  0  0
   58.2830   33.1710   52.1350 C   0  0  0  0  0  0  0  0  0  0  0  0
   60.0290   33.3210   46.2580 C   0  0  0  0  0  0  0  0  0  0  0  0
   59.4890   34.0200   45.0000 C   0  0  0  0  0  0  0  0  0  0  0  0
   58.3260   30.4390   44.9950 C   0  0  0  0  0  0  0  0  0  0  0  0
   57.7950   29.2430   45.4860 C   0  0  0  0  0  0  0  0  0  0  0  0
   58.5270   28.4880   46.3430 F   0  0  0  0  0  0  0  0  0  0  0  0
   56.9380   26.1779   46.7955 H   0  0  0  0  0  0  0  0  0  0  0  0
   56.2459   25.5929   45.2446 H   0  0  0  0  0  0  0  0  0  0  0  0
   57.7606   26.5584   45.2446 H   0  0  0  0  0  0  0  0  0  0  0  0
   54.7599   29.3039   43.9085 H   0  0  0  0  0  0  0  0  0  0  0  0
   55.7063   31.4385   43.0368 H   0  0  0  0  0  0  0  0  0  0  0  0
   59.1754   32.3813   43.2626 H   0  0  0  0  0  0  0  0  0  0  0  0
   57.5128   32.8780   42.7561 H   0  0  0  0  0  0  0  0  0  0  0  0
   56.2626   33.3340   45.6407 H   0  0  0  0  0  0  0  0  0  0  0  0
   57.4982   32.0512   45.9726 H   0  0  0  0  0  0  0  0  0  0  0  0
   57.6655   34.9444   46.9436 H   0  0  0  0  0  0  0  0  0  0  0  0
   57.1136   33.5330   47.9298 H   0  0  0  0  0  0  0  0  0  0  0  0
   60.2464   35.3264   47.7747 H   0  0  0  0  0  0  0  0  0  0  0  0
   58.8928   35.0201   48.9262 H   0  0  0  0  0  0  0  0  0  0  0  0
   62.4003   34.2024   48.0340 H   0  0  0  0  0  0  0  0  0  0  0  0
   63.2024   32.2642   51.8115 H   0  0  0  0  0  0  0  0  0  0  0  0
   60.7954   32.4457   52.4287 H   0  0  0  0  0  0  0  0  0  0  0  0
   58.8924   33.5706   52.9590 H   0  0  0  0  0  0  0  0  0  0  0  0
   57.2626   33.5759   52.2039 H   0  0  0  0  0  0  0  0  0  0  0  0
   58.2475   32.0737   52.2039 H   0  0  0  0  0  0  0  0  0  0  0  0
   61.0339   33.7121   46.4751 H   0  0  0  0  0  0  0  0  0  0  0  0
   60.0510   32.2398   46.0566 H   0  0  0  0  0  0  0  0  0  0  0  0
   59.4705   35.1052   45.1787 H   0  0  0  0  0  0  0  0  0  0  0  0
   60.1520   33.7622   44.1610 H   0  0  0  0  0  0  0  0  0  0  0  0
   59.3303   30.7611   45.3076 H   0  0  0  0  0  0  0  0  0  0  0  0
  1  2  1  0
  2  3  1  0
  3  4  2  0
  4  5  1  0
  5  6  2  0
  6  7  1  0
  7  8  1  0
  8  9  1  0
  9 10  1  0
 10 11  1  0
 11 12  1  0
 12 13  1  0
 13 14  2  0
 14 15  1  0
 15 16  1  0
 15 17  2  0
 17 18  1  0
 18 19  2  0
 19 20  1  0
 20 21  1  0
 11 22  1  0
 22 23  1  0
  6 24  1  0
 24 25  2  0
 25 26  1  0
 25  3  1  0
 23  8  1  0
 19 13  1  0
  1 27  1  0
  1 28  1  0
  1 29  1  0
  4 30  1  0
  5 31  1  0
  7 32  1  0
  7 33  1  0
  9 34  1  0
  9 35  1  0
 10 36  1  0
 10 37  1  0
 12 38  1  0
 12 39  1  0
 14 40  1  0
 17 41  1  0
 18 42  1  0
 21 43  1  0
 21 44  1  0
 21 45  1  0
 22 46  1  0
 22 47  1  0
 23 48  1  0
 23 49  1  0
 24 50  1  0
M  END
>  <UniqueID>  (10) 
8

>  <SMILES>  (10) 
COc1ccc(CN2CCN(Cc3cc(Br)ccc3OC)CC2)cc1F

>  <Energy>  (10) 
62.820536764139334

>  <Genealogy>  (10) 
COc1ccc(CN2CCN(Cc3cc(Br)ccc3OC)CC2)cc1F (3D coordinates assigned)
COc1ccc(CN2CCN(Cc3cc(Br)ccc3OC)CC2)cc1F (nonaromatic ring conformer: 62.820536764139334 kcal/mol)

>  <smiles>  (10) 
COc1ccc(CN2CCN(Cc3cc(Br)ccc3OC)CC2)cc1F

>  <score_type>  (10) 
oracle

>  <origin>  (10) 
adg

>  <m_score__min__energy>  (10) 
-7.7999999999999998

>  <m_primary>  (10) 
energy

$$$$
10:0
     RDKit          3D

 41 43  0  0  0  0  0  0  0  0999 V2000
   57.4673   26.1968   46.0993 H   0  0  0  0  0  0  0  0  0  0  0  0
   57.8410   27.2000   46.3520 C   0  0  0  0  0  0  0  0  0  0  0  0
   58.7480   27.3640   47.3950 C   0  0  0  0  0  0  0  0  0  0  0  0
   59.0529   26.4959   47.9979 H   0  0  0  0  0  0  0  0  0  0  0  0
   59.2730   28.6290   47.6790 C   0  0  0  0  0  0  0  0  0  0  0  0
   59.9642   28.7498   48.5261 H   0  0  0  0  0  0  0  0  0  0  0  0
   58.9300   29.7560   46.8950 C   0  0  0  0  0  0  0  0  0  0  0  0
   59.4800   31.0660   47.0780 C   0  0  0  0  0  0  0  0  0  0  0  0
   60.6600   31.3050   47.5970 N   0  0  0  0  0  0  0  0  0  0  0  0
   62.0420   31.2140   47.1230 C   0  0  0  0  0  0  0  0  0  0  0  0
   62.1053   31.6953   46.1359 H   0  0  0  0  0  0  0  0  0  0  0  0
   62.3028   30.1462   47.0801 H   0  0  0  0  0  0  0  0  0  0  0  0
   63.0590   31.8980   48.0700 C   0  0  0  0  0  0  0  0  0  0  0  0
   63.5771   32.6824   47.4987 H   0  0  0  0  0  0  0  0  0  0  0  0
   63.7193   31.0947   48.4288 H   0  0  0  0  0  0  0  0  0  0  0  0
   62.4870   32.5260   49.2920 N   0  0  0  0  0  0  0  0  0  0  0  0
   61.4910   32.7630   49.0580 H   0  0  0  0  0  0  0  0  0  0  0  0
   62.4320   31.6070   50.4450 C   0  0  0  0  0  0  0  0  0  0  0  0
   62.4667   32.1876   51.3786 H   0  0  0  0  0  0  0  0  0  0  0  0
   61.4976   31.0278   50.4080 H   0  0  0  0  0  0  0  0  0  0  0  0
   63.2907   30.9205   50.4080 H   0  0  0  0  0  0  0  0  0  0  0  0
   63.1470   33.7940   49.6570 C   0  0  0  0  0  0  0  0  0  0  0  0
   63.1926   33.8815   50.7526 H   0  0  0  0  0  0  0  0  0  0  0  0
   64.1669   33.8083   49.2453 H   0  0  0  0  0  0  0  0  0  0  0  0
   62.5736   34.6376   49.2453 H   0  0  0  0  0  0  0  0  0  0  0  0
   58.7950   32.1780   46.5000 C   0  0  0  0  0  0  0  0  0  0  0  0
   59.1480   33.5410   46.7550 C   0  0  0  0  0  0  0  0  0  0  0  0
   60.0720   33.9160   47.7870 N   0  0  0  0  0  0  0  0  0  0  0  0
   61.2410   34.2390   47.4920 O   0  0  0  0  0  0  0  0  0  0  0  0
   59.7460   33.7000   49.1060 O   0  0  0  0  0  0  0  0  0  0  0  0
   58.5350   34.5690   46.0200 C   0  0  0  0  0  0  0  0  0  0  0  0
   58.8306   35.6136   46.1972 H   0  0  0  0  0  0  0  0  0  0  0  0
   57.5580   34.2830   45.0700 C   0  0  0  0  0  0  0  0  0  0  0  0
   57.0908   35.0995   44.4998 H   0  0  0  0  0  0  0  0  0  0  0  0
   57.1720   32.9670   44.8410 C   0  0  0  0  0  0  0  0  0  0  0  0
   56.3877   32.7476   44.1016 H   0  0  0  0  0  0  0  0  0  0  0  0
   57.7750   31.9220   45.5450 C   0  0  0  0  0  0  0  0  0  0  0  0
   57.3910   30.6530   45.2740 N   0  0  0  0  0  0  0  0  0  0  0  0
   57.9130   29.5830   45.9190 C   0  0  0  0  0  0  0  0  0  0  0  0
   57.4070   28.3100   45.6280 C   0  0  0  0  0  0  0  0  0  0  0  0
   56.6648   28.1853   44.8257 H   0  0  0  0  0  0  0  0  0  0  0  0
  1  2  1  0
  2  3  2  0
  3  4  1  0
  3  5  1  0
  5  6  1  0
  5  7  2  0
  7  8  1  0
  8  9  2  0
  9 10  1  0
 10 11  1  0
 10 12  1  0
 10 13  1  0
 13 14  1  0
 13 15  1  0
 13 16  1  0
 16 17  1  0
 16 18  1  0
 18 19  1  0
 18 20  1  0
 18 21  1  0
 16 22  1  0
 22 23  1  0
 22 24  1  0
 22 25  1  0
  8 26  1  0
 26 27  2  0
 27 28  1  0
 28 29  2  0
 28 30  1  0
 27 31  1  0
 31 32  1  0
 31 33  2  0
 33 34  1  0
 33 35  1  0
 35 36  1  0
 35 37  2  0
 37 38  1  0
 38 39  1  0
 39 40  2  0
 40 41  1  0
 40  2  1  0
 39  7  1  0
 37 26  1  0
M  CHG  4  16   1  28   1  30  -1  38  -1
M  END
>  <UniqueID>  (11) 
9

>  <SMILES>  (11) 
C[NH+](C)CC/N=c1/c2ccccc2[n-]c2cccc([N+](=O)[O-])c12

>  <Energy>  (11) 
82.02096248377156

>  <Genealogy>  (11) 
C[NH+](C)CCN=c1c2ccccc2[n-]c2cccc([N+](=O)[O-])c12 (protonated)
C[NH+](C)CC/N=c1/c2ccccc2[n-]c2cccc([N+](=O)[O-])c12 (cis-trans isomerization)
C[NH+](C)CC/N=c1/c2ccccc2[n-]c2cccc([N+](=O)[O-])c12 (3D coordinates assigned)
C[NH+](C)CC/N=c1/c2ccccc2[n-]c2cccc([N+](=O)[O-])c12 (optimized conformer: 82.02096248377156 kcal/mol)

>  <smiles>  (11) 
CN(C)CCN=c1c2ccccc2[nH]c2cccc([N+](=O)[O-])c12

>  <score_type>  (11) 
oracle

>  <origin>  (11) 
adg

>  <m_score__min__energy>  (11) 
-5.9000000000000004

>  <m_primary>  (11) 
energy

$$$$
11:0
     RDKit          3D

 48 50  0  0  0  0  0  0  0  0999 V2000
   61.5290   30.7550   48.6380 C   0  0  0  0  0  0  0  0  0  0  0  0
   62.3310   31.3700   47.4790 C   0  0  0  0  0  0  0  0  0  0  0  0
   62.5730   32.8290   47.6160 N   0  0  0  0  0  0  0  0  0  0  0  0
   64.0220   33.1270   47.7560 C   0  0  0  0  0  0  0  0  0  0  0  0
   64.4910   33.0870   49.2140 C   0  0  0  0  0  0  0  0  0  0  0  0
   61.9300   33.6030   46.5120 C   0  0  0  0  0  0  0  0  0  0  0  0
   60.6610   34.3590   46.9670 C   0  0  0  0  0  0  0  0  0  0  0  0
   59.9250   33.6160   48.0200 N   0  0  0  0  0  0  0  0  0  0  0  0
   58.8980   32.7420   47.7160 C   0  0  0  0  0  0  0  0  0  0  0  0
   58.5560   32.3440   46.3330 C   0  0  0  0  0  0  0  0  0  0  0  0
   58.6080   30.9930   45.9520 C   0  0  0  0  0  0  0  0  0  0  0  0
   58.2470   30.6110   44.6570 C   0  0  0  0  0  0  0  0  0  0  0  0
   57.8070   31.5700   43.7420 C   0  0  0  0  0  0  0  0  0  0  0  0
   57.7190   32.9120   44.1230 C   0  0  0  0  0  0  0  0  0  0  0  0
   58.0810   33.3000   45.4170 C   0  0  0  0  0  0  0  0  0  0  0  0
   57.9850   34.6070   45.7710 F   0  0  0  0  0  0  0  0  0  0  0  0
   58.1650   32.1790   48.7120 N   0  0  0  0  0  0  0  0  0  0  0  0
   58.4240   32.4210   50.0170 C   0  0  0  0  0  0  0  0  0  0  0  0
   57.6400   31.8210   51.0100 C   0  0  0  0  0  0  0  0  0  0  0  0
   57.9190   32.0560   52.3590 C   0  0  0  0  0  0  0  0  0  0  0  0
   58.9830   32.8890   52.7180 C   0  0  0  0  0  0  0  0  0  0  0  0
   59.7700   33.4900   51.7320 C   0  0  0  0  0  0  0  0  0  0  0  0
   59.4930   33.2600   50.3700 C   0  0  0  0  0  0  0  0  0  0  0  0
   60.2450   33.8460   49.3380 C   0  0  0  0  0  0  0  0  0  0  0  0
   61.2220   34.5930   49.6350 O   0  0  0  0  0  0  0  0  0  0  0  0
   61.9580   31.0840   49.5960 H   0  0  0  0  0  0  0  0  0  0  0  0
   60.4811   31.0833   48.5736 H   0  0  0  0  0  0  0  0  0  0  0  0
   61.5742   29.6578   48.5736 H   0  0  0  0  0  0  0  0  0  0  0  0
   63.3051   30.8618   47.4251 H   0  0  0  0  0  0  0  0  0  0  0  0
   61.7291   31.2324   46.5686 H   0  0  0  0  0  0  0  0  0  0  0  0
   62.1260   33.0840   48.5240 H   0  0  0  0  0  0  0  0  0  0  0  0
   64.5924   32.3824   47.1814 H   0  0  0  0  0  0  0  0  0  0  0  0
   64.1917   34.1460   47.3781 H   0  0  0  0  0  0  0  0  0  0  0  0
   63.6199   33.1613   49.8815 H   0  0  0  0  0  0  0  0  0  0  0  0
   65.0186   32.1406   49.4036 H   0  0  0  0  0  0  0  0  0  0  0  0
   65.1712   33.9304   49.4036 H   0  0  0  0  0  0  0  0  0  0  0  0
   62.6557   34.3349   46.1276 H   0  0  0  0  0  0  0  0  0  0  0  0
   61.6255   32.8830   45.7381 H   0  0  0  0  0  0  0  0  0  0  0  0
   60.9551   35.3418   47.3641 H   0  0  0  0  0  0  0  0  0  0  0  0
   59.9968   34.4670   46.0969 H   0  0  0  0  0  0  0  0  0  0  0  0
   58.9344   30.2321   46.6763 H   0  0  0  0  0  0  0  0  0  0  0  0
   58.3095   29.5542   44.3582 H   0  0  0  0  0  0  0  0  0  0  0  0
   57.5296   31.2691   42.7210 H   0  0  0  0  0  0  0  0  0  0  0  0
   57.3642   33.6646   43.4035 H   0  0  0  0  0  0  0  0  0  0  0  0
   56.8039   31.1642   50.7280 H   0  0  0  0  0  0  0  0  0  0  0  0
   57.3015   31.5856   53.1384 H   0  0  0  0  0  0  0  0  0  0  0  0
   59.2014   33.0719   53.7805 H   0  0  0  0  0  0  0  0  0  0  0  0
   60.6068   34.1435   52.0197 H   0  0  0  0  0  0  0  0  0  0  0  0
  1  2  1  0
  2  3  1  0
  3  4  1  0
  4  5  1  0
  3  6  1  0
  6  7  1  0
  7  8  1  0
  8  9  1  0
  9 10  1  0
 10 11  2  0
 11 12  1  0
 12 13  2  0
 13 14  1  0
 14 15  2  0
 15 16  1  0
  9 17  2  0
 17 18  1  0
 18 19  2  0
 19 20  1  0
 20 21  2  0
 21 22  1  0
 22 23  2  0
 23 24  1  0
 24 25  2  0
 24  8  1  0
 15 10  1  0
 23 18  1  0
  1 26  1  0
  1 27  1  0
  1 28  1  0
  2 29  1  0
  2 30  1  0
  3 31  1  0
  4 32  1  0
  4 33  1  0
  5 34  1  0
  5 35  1  0
  5 36  1  0
  6 37  1  0
  6 38  1  0
  7 39  1  0
  7 40  1  0
 11 41  1  0
 12 42  1  0
 13 43  1  0
 14 44  1  0
 19 45  1  0
 20 46  1  0
 21 47  1  0
 22 48  1  0
M  CHG  1   3   1
M  END
>  <UniqueID>  (12) 
10

>  <SMILES>  (12) 
CC[NH+](CC)CCn1c(-c2ccccc2F)nc2ccccc2c1=O

>  <Energy>  (12) 
67.8986230048781

>  <Genealogy>  (12) 
CC[NH+](CC)CCn1c(-c2ccccc2F)nc2ccccc2c1=O (protonated)
CC[NH+](CC)CCn1c(-c2ccccc2F)nc2ccccc2c1=O (3D coordinates assigned)
CC[NH+](CC)CCn1c(-c2ccccc2F)nc2ccccc2c1=O (optimized conformer: 67.8986230048781 kcal/mol)

>  <smiles>  (12) 
CCN(CC)CCn1c(-c2ccccc2F)nc2ccccc2c1=O

>  <score_type>  (12) 
oracle

>  <origin>  (12) 
adg

>  <m_score__min__energy>  (12) 
-5.21

>  <m_primary>  (12) 
energy

$$$$
12:0
     RDKit          3D

 40 42  0  0  0  0  0  0  0  0999 V2000
   58.0170   34.2060   44.8730 C   0  0  0  0  0  0  0  0  0  0  0  0
   58.4110   32.8790   45.4590 C   0  0  0  0  0  0  0  0  0  0  0  0
   58.3010   31.6490   44.8050 C   0  0  0  0  0  0  0  0  0  0  0  0
   57.7780   31.4190   43.4410 C   0  0  0  0  0  0  0  0  0  0  0  0
   58.4560   31.8050   42.4510 O   0  0  0  0  0  0  0  0  0  0  0  0
   56.4150   30.8320   43.2080 C   0  0  0  0  0  0  0  0  0  0  0  0
   56.2540   29.5400   43.9500 C   0  0  0  0  0  0  0  0  0  0  0  0
   55.1730   29.3760   44.8640 N   0  0  0  0  0  0  0  0  0  0  0  0
   57.0560   28.5900   43.7530 O   0  0  0  0  0  0  0  0  0  0  0  0
   58.8370   30.7160   45.6770 C   0  0  0  0  0  0  0  0  0  0  0  0
   59.0590   29.3440   45.5310 C   0  0  0  0  0  0  0  0  0  0  0  0
   59.6820   28.6550   46.5850 C   0  0  0  0  0  0  0  0  0  0  0  0
   59.9990   26.7780   46.4350 Br  0  0  0  0  0  0  0  0  0  0  0  0
   60.0850   29.3460   47.7460 C   0  0  0  0  0  0  0  0  0  0  0  0
   59.8770   30.7290   47.8600 C   0  0  0  0  0  0  0  0  0  0  0  0
   59.2480   31.3970   46.8010 C   0  0  0  0  0  0  0  0  0  0  0  0
   58.9920   32.7190   46.6800 N   0  0  0  0  0  0  0  0  0  0  0  0
   59.3710   33.7840   47.6200 C   0  0  0  0  0  0  0  0  0  0  0  0
   60.8660   33.8250   47.7920 C   0  0  0  0  0  0  0  0  0  0  0  0
   61.4270   33.8890   49.0780 C   0  0  0  0  0  0  0  0  0  0  0  0
   62.8150   33.9040   49.2430 C   0  0  0  0  0  0  0  0  0  0  0  0
   63.6530   33.8530   48.1250 C   0  0  0  0  0  0  0  0  0  0  0  0
   63.1040   33.7880   46.8420 C   0  0  0  0  0  0  0  0  0  0  0  0
   61.7150   33.7740   46.6740 C   0  0  0  0  0  0  0  0  0  0  0  0
   57.8058   34.9173   45.6851 H   0  0  0  0  0  0  0  0  0  0  0  0
   58.8394   34.5915   44.2525 H   0  0  0  0  0  0  0  0  0  0  0  0
   57.1174   34.0803   44.2525 H   0  0  0  0  0  0  0  0  0  0  0  0
   55.6522   31.5442   43.5556 H   0  0  0  0  0  0  0  0  0  0  0  0
   56.2965   30.6360   42.1321 H   0  0  0  0  0  0  0  0  0  0  0  0
   55.2140   28.6560   45.6200 H   0  0  0  0  0  0  0  0  0  0  0  0
   58.7539   28.8173   44.6148 H   0  0  0  0  0  0  0  0  0  0  0  0
   60.5661   28.7968   48.5687 H   0  0  0  0  0  0  0  0  0  0  0  0
   60.1998   31.2753   48.7586 H   0  0  0  0  0  0  0  0  0  0  0  0
   59.0244   34.7522   47.2295 H   0  0  0  0  0  0  0  0  0  0  0  0
   58.9051   33.5811   48.5956 H   0  0  0  0  0  0  0  0  0  0  0  0
   60.7707   33.9275   49.9599 H   0  0  0  0  0  0  0  0  0  0  0  0
   63.2481   33.9559   50.2528 H   0  0  0  0  0  0  0  0  0  0  0  0
   64.7452   33.8641   48.2557 H   0  0  0  0  0  0  0  0  0  0  0  0
   63.7643   33.7478   45.9631 H   0  0  0  0  0  0  0  0  0  0  0  0
   61.2861   33.7228   45.6624 H   0  0  0  0  0  0  0  0  0  0  0  0
  1  2  1  0
  2  3  2  0
  3  4  1  0
  4  5  2  0
  4  6  1  0
  6  7  1  0
  7  8  1  0
  7  9  2  0
  3 10  1  0
 10 11  2  0
 11 12  1  0
 12 13  1  0
 12 14  2  0
 14 15  1  0
 15 16  2  0
 16 17  1  0
 17 18  1  0
 18 19  1  0
 19 20  2  0
 20 21  1  0
 21 22  2  0
 22 23  1  0
 23 24  2  0
 17  2  1  0
 24 19  1  0
 16 10  1  0
  1 25  1  0
  1 26  1  0
  1 27  1  0
  6 28  1  0
  6 29  1  0
  8 30  1  0
 11 31  1  0
 14 32  1  0
 15 33  1  0
 18 34  1  0
 18 35  1  0
 20 36  1  0
 21 37  1  0
 22 38  1  0
 23 39  1  0
 24 40  1  0
M  CHG  1   8  -1
M  END
>  <UniqueID>  (13) 
11

>  <SMILES>  (13) 
Cc1c(C(=O)CC([NH-])=O)c2cc(Br)ccc2n1Cc1ccccc1

>  <Energy>  (13) 
76.82322925542442

>  <Genealogy>  (13) 
Cc1c(C(=O)CC([NH-])=O)c2cc(Br)ccc2n1Cc1ccccc1 (protonated)
Cc1c(C(=O)CC([NH-])=O)c2cc(Br)ccc2n1Cc1ccccc1 (3D coordinates assigned)
Cc1c(C(=O)CC([NH-])=O)c2cc(Br)ccc2n1Cc1ccccc1 (optimized conformer: 76.82322925542442 kcal/mol)

>  <smiles>  (13) 
Cc1c(C(=O)CC(N)=O)c2cc(Br)ccc2n1Cc1ccccc1

>  <score_type>  (13) 
oracle

>  <origin>  (13) 
adg

>  <m_score__min__energy>  (13) 
-11.83

>  <m_primary>  (13) 
energy

$$$$
13:0
     RDKit          3D

 33 35  0  0  0  0  0  0  0  0999 V2000
   56.6470   23.7040   43.1870 C   0  0  0  0  0  0  0  0  0  0  0  0
   56.9910   24.2800   44.4430 O   0  0  0  0  0  0  0  0  0  0  0  0
   57.2970   25.6350   44.6400 C   0  0  0  0  0  0  0  0  0  0  0  0
   58.1260   26.3490   43.7560 C   0  0  0  0  0  0  0  0  0  0  0  0
   58.4100   27.6960   43.9850 C   0  0  0  0  0  0  0  0  0  0  0  0
   57.8820   28.3560   45.1040 C   0  0  0  0  0  0  0  0  0  0  0  0
   58.1770   29.7470   45.3260 N   0  0  0  0  0  0  0  0  0  0  0  0
   59.5630   30.3370   46.0480 S   0  0  0  0  0  0  0  0  0  0  0  0
   59.2090   31.9640   45.9640 C   0  0  0  0  0  0  0  0  0  0  0  0
   59.9420   33.0660   46.3910 C   0  0  0  0  0  0  0  0  0  0  0  0
   59.3840   34.3390   46.1940 C   0  0  0  0  0  0  0  0  0  0  0  0
   58.1210   34.4770   45.5840 C   0  0  0  0  0  0  0  0  0  0  0  0
   57.4020   33.3430   45.1630 C   0  0  0  0  0  0  0  0  0  0  0  0
   57.9650   32.0790   45.3590 C   0  0  0  0  0  0  0  0  0  0  0  0
   57.4040   30.8300   45.0160 C   0  0  0  0  0  0  0  0  0  0  0  0
   56.2620   30.7220   44.4920 O   0  0  0  0  0  0  0  0  0  0  0  0
   57.0430   27.6470   45.9810 C   0  0  0  0  0  0  0  0  0  0  0  0
   56.7510   26.2880   45.7560 C   0  0  0  0  0  0  0  0  0  0  0  0
   55.9200   25.5520   46.6160 O   0  0  0  0  0  0  0  0  0  0  0  0
   56.3380   24.4140   47.3630 C   0  0  0  0  0  0  0  0  0  0  0  0
   56.0894   22.7703   43.3522 H   0  0  0  0  0  0  0  0  0  0  0  0
   56.0218   24.4089   42.6193 H   0  0  0  0  0  0  0  0  0  0  0  0
   57.5640   23.4878   42.6193 H   0  0  0  0  0  0  0  0  0  0  0  0
   58.5534   25.8422   42.8782 H   0  0  0  0  0  0  0  0  0  0  0  0
   59.0536   28.2448   43.2817 H   0  0  0  0  0  0  0  0  0  0  0  0
   60.9261   32.9442   46.8672 H   0  0  0  0  0  0  0  0  0  0  0  0
   59.9357   35.2339   46.5176 H   0  0  0  0  0  0  0  0  0  0  0  0
   57.6936   35.4797   45.4357 H   0  0  0  0  0  0  0  0  0  0  0  0
   56.4153   33.4494   44.6885 H   0  0  0  0  0  0  0  0  0  0  0  0
   56.6098   28.1594   46.8526 H   0  0  0  0  0  0  0  0  0  0  0  0
   56.2581   24.6317   48.4383 H   0  0  0  0  0  0  0  0  0  0  0  0
   55.6964   23.5560   47.1139 H   0  0  0  0  0  0  0  0  0  0  0  0
   57.3825   24.1753   47.1139 H   0  0  0  0  0  0  0  0  0  0  0  0
  1  2  1  0
  2  3  1  0
  3  4  2  0
  4  5  1  0
  5  6  2  0
  6  7  1  0
  7  8  1  0
  8  9  1  0
  9 10  2  0
 10 11  1  0
 11 12  2  0
 12 13  1  0
 13 14  2  0
 14 15  1  0
 15 16  2  0
  6 17  1  0
 17 18  2  0
 18 19  1  0
 19 20  1  0
 18  3  1  0
 15  7  1  0
 14  9  1  0
  1 21  1  0
  1 22  1  0
  1 23  1  0
  4 24  1  0
  5 25  1  0
 10 26  1  0
 11 27  1  0
 12 28  1  0
 13 29  1  0
 17 30  1  0
 20 31  1  0
 20 32  1  0
 20 33  1  0
M  END
>  <UniqueID>  (14) 
12

>  <SMILES>  (14) 
COc1ccc(-n2sc3ccccc3c2=O)cc1OC

>  <Energy>  (14) 
79.25626510098657

>  <Genealogy>  (14) 
COc1ccc(-n2sc3ccccc3c2=O)cc1OC (3D coordinates assigned)
COc1ccc(-n2sc3ccccc3c2=O)cc1OC (optimized conformer: 79.25626510098657 kcal/mol)

>  <smiles>  (14) 
COc1ccc(-n2sc3ccccc3c2=O)cc1OC

>  <score_type>  (14) 
oracle

>  <origin>  (14) 
adg

>  <m_score__min__energy>  (14) 
-7.0700000000000003

>  <m_primary>  (14) 
energy

$$$$
14:0
     RDKit          3D

 46 47  0  0  0  0  0  0  0  0999 V2000
   56.6540   30.2590   42.7130 C   0  0  0  0  0  0  0  0  0  0  0  0
   56.0520   30.4720   44.1110 C   0  0  0  0  0  0  0  0  0  0  0  0
   57.0230   30.9490   45.1260 N   0  0  0  0  0  0  0  0  0  0  0  0
   57.8130   29.8470   45.7180 C   0  0  0  0  0  0  0  0  0  0  0  0
   59.2580   29.9100   45.2310 C   0  0  0  0  0  0  0  0  0  0  0  0
   57.8820   32.0630   44.6640 C   0  0  0  0  0  0  0  0  0  0  0  0
   57.5350   33.3560   45.3690 C   0  0  0  0  0  0  0  0  0  0  0  0
   56.6990   34.0910   44.8600 O   0  0  0  0  0  0  0  0  0  0  0  0
   58.1760   33.7550   46.6110 N   0  0  0  0  0  0  0  0  0  0  0  0
   59.2250   34.7940   46.3820 C   0  0  0  0  0  0  0  0  0  0  0  0
   60.6570   34.3250   46.7040 C   0  0  0  0  0  0  0  0  0  0  0  0
   60.7140   33.6750   48.0180 N   0  0  0  0  0  0  0  0  0  0  0  0
   61.9890   33.4920   48.6530 C   0  0  0  0  0  0  0  0  0  0  0  0
   62.3100   34.2240   49.8080 C   0  0  0  0  0  0  0  0  0  0  0  0
   63.5480   34.0440   50.4350 C   0  0  0  0  0  0  0  0  0  0  0  0
   64.4700   33.1300   49.9150 C   0  0  0  0  0  0  0  0  0  0  0  0
   64.1540   32.3940   48.7680 C   0  0  0  0  0  0  0  0  0  0  0  0
   62.9150   32.5690   48.1370 C   0  0  0  0  0  0  0  0  0  0  0  0
   62.6240   31.8560   47.0200 F   0  0  0  0  0  0  0  0  0  0  0  0
   59.5360   32.9680   48.5320 C   0  0  0  0  0  0  0  0  0  0  0  0
   58.6360   32.5660   47.3640 C   0  0  0  0  0  0  0  0  0  0  0  0
   57.6869   29.8935   42.8104 H   0  0  0  0  0  0  0  0  0  0  0  0
   56.0534   29.5188   42.1640 H   0  0  0  0  0  0  0  0  0  0  0  0
   56.6525   31.2122   42.1640 H   0  0  0  0  0  0  0  0  0  0  0  0
   55.2453   31.2154   44.0294 H   0  0  0  0  0  0  0  0  0  0  0  0
   55.6941   29.4899   44.4536 H   0  0  0  0  0  0  0  0  0  0  0  0
   57.7953   29.9361   46.8142 H   0  0  0  0  0  0  0  0  0  0  0  0
   57.3735   28.8866   45.4108 H   0  0  0  0  0  0  0  0  0  0  0  0
   59.9358   29.9396   46.0969 H   0  0  0  0  0  0  0  0  0  0  0  0
   59.4790   29.0206   44.6226 H   0  0  0  0  0  0  0  0  0  0  0  0
   59.4007   30.8152   44.6226 H   0  0  0  0  0  0  0  0  0  0  0  0
   58.9333   31.8137   44.8704 H   0  0  0  0  0  0  0  0  0  0  0  0
   57.7186   32.2020   43.5851 H   0  0  0  0  0  0  0  0  0  0  0  0
   57.4370   34.2020   47.2080 H   0  0  0  0  0  0  0  0  0  0  0  0
   59.1894   35.0933   45.3241 H   0  0  0  0  0  0  0  0  0  0  0  0
   59.0023   35.6254   47.0670 H   0  0  0  0  0  0  0  0  0  0  0  0
   60.9830   33.6098   45.9344 H   0  0  0  0  0  0  0  0  0  0  0  0
   61.3188   35.2036   46.7184 H   0  0  0  0  0  0  0  0  0  0  0  0
   61.5856   34.9413   50.2211 H   0  0  0  0  0  0  0  0  0  0  0  0
   63.7962   34.6218   51.3375 H   0  0  0  0  0  0  0  0  0  0  0  0
   65.4434   32.9898   50.4077 H   0  0  0  0  0  0  0  0  0  0  0  0
   64.8804   31.6757   48.3601 H   0  0  0  0  0  0  0  0  0  0  0  0
   59.8568   32.0669   49.0753 H   0  0  0  0  0  0  0  0  0  0  0  0
   58.9800   33.6278   49.2143 H   0  0  0  0  0  0  0  0  0  0  0  0
   59.1995   31.9077   46.6864 H   0  0  0  0  0  0  0  0  0  0  0  0
   57.7546   32.0447   47.7657 H   0  0  0  0  0  0  0  0  0  0  0  0
  1  2  1  0
  2  3  1  0
  3  4  1  0
  4  5  1  0
  3  6  1  0
  6  7  1  0
  7  8  2  0
  7  9  1  0
  9 10  1  0
 10 11  1  0
 11 12  1  0
 12 13  1  0
 13 14  2  0
 14 15  1  0
 15 16  2  0
 16 17  1  0
 17 18  2  0
 18 19  1  0
 12 20  1  0
 20 21  1  0
 21  9  1  0
 18 13  1  0
  1 22  1  0
  1 23  1  0
  1 24  1  0
  2 25  1  0
  2 26  1  0
  4 27  1  0
  4 28  1  0
  5 29  1  0
  5 30  1  0
  5 31  1  0
  6 32  1  0
  6 33  1  0
  9 34  1  0
 10 35  1  0
 10 36  1  0
 11 37  1  0
 11 38  1  0
 14 39  1  0
 15 40  1  0
 16 41  1  0
 17 42  1  0
 20 43  1  0
 20 44  1  0
 21 45  1  0
 21 46  1  0
M  CHG  1   9   1
M  END
>  <UniqueID>  (15) 
13

>  <SMILES>  (15) 
CCN(CC)CC(=O)[NH+]1CCN(c2ccccc2F)CC1

>  <Energy>  (15) 
59.856571611783295

>  <Genealogy>  (15) 
CCN(CC)CC(=O)[NH+]1CCN(c2ccccc2F)CC1 (protonated)
CCN(CC)CC(=O)[NH+]1CCN(c2ccccc2F)CC1 (3D coordinates assigned)
CCN(CC)CC(=O)[NH+]1CCN(c2ccccc2F)CC1 (nonaromatic ring conformer: 59.856571611783295 kcal/mol)

>  <smiles>  (15) 
CCN(CC)CC(=O)N1CCN(c2ccccc2F)CC1

>  <score_type>  (15) 
oracle

>  <origin>  (15) 
adg

>  <m_score__min__energy>  (15) 
-5.0800000000000001

>  <m_primary>  (15) 
energy

$$$$
15:0
     RDKit          3D

 57 59  0  0  0  0  0  0  0  0999 V2000
   56.2800   23.3260   43.0100 C   0  0  0  0  0  0  0  0  0  0  0  0
   56.8980   21.9580   43.3140 C   0  0  0  0  0  0  0  0  0  0  0  0
   57.9580   22.0210   44.4230 C   0  0  0  0  0  0  0  0  0  0  0  0
   57.4420   21.4780   45.7640 C   0  0  0  0  0  0  0  0  0  0  0  0
   57.4250   22.5140   46.7430 O   0  0  0  0  0  0  0  0  0  0  0  0
   57.3580   23.8920   46.4700 C   0  0  0  0  0  0  0  0  0  0  0  0
   56.0960   24.4700   46.3010 C   0  0  0  0  0  0  0  0  0  0  0  0
   55.9670   25.8360   46.0360 C   0  0  0  0  0  0  0  0  0  0  0  0
   57.1070   26.6550   45.9510 C   0  0  0  0  0  0  0  0  0  0  0  0
   56.9740   28.1080   45.7050 C   0  0  0  0  0  0  0  0  0  0  0  0
   55.9170   28.5620   45.1890 O   0  0  0  0  0  0  0  0  0  0  0  0
   58.0300   29.0000   46.0890 N   0  0  0  0  0  0  0  0  0  0  0  0
   58.1590   30.3750   45.7050 C   0  0  0  0  0  0  0  0  0  0  0  0
   57.7900   30.8300   44.4190 C   0  0  0  0  0  0  0  0  0  0  0  0
   57.9280   32.1840   44.0800 C   0  0  0  0  0  0  0  0  0  0  0  0
   58.4760   33.0590   45.0180 C   0  0  0  0  0  0  0  0  0  0  0  0
   58.9030   32.6120   46.2430 C   0  0  0  0  0  0  0  0  0  0  0  0
   58.7170   31.2790   46.6240 C   0  0  0  0  0  0  0  0  0  0  0  0
   59.3900   33.7250   47.0990 C   0  0  1  0  0  0  0  0  0  0  0  0
   60.8240   33.5660   47.6990 C   0  0  0  0  0  0  0  0  0  0  0  0
   61.8430   32.7640   46.9610 N   0  0  0  0  0  0  0  0  0  0  0  0
   63.1310   33.4540   46.7610 C   0  0  0  0  0  0  0  0  0  0  0  0
   62.0520   31.4060   47.4900 C   0  0  0  0  0  0  0  0  0  0  0  0
   59.1680   34.9930   46.2350 C   0  0  0  0  0  0  0  0  0  0  0  0
   58.6080   34.5290   44.8740 C   0  0  0  0  0  0  0  0  0  0  0  0
   58.3760   26.0740   46.1200 C   0  0  0  0  0  0  0  0  0  0  0  0
   58.5020   24.7040   46.3700 C   0  0  0  0  0  0  0  0  0  0  0  0
   56.0473   23.8411   43.9537 H   0  0  0  0  0  0  0  0  0  0  0  0
   56.9929   23.9295   42.4290 H   0  0  0  0  0  0  0  0  0  0  0  0
   55.3559   23.1899   42.4290 H   0  0  0  0  0  0  0  0  0  0  0  0
   56.0979   21.2726   43.6303 H   0  0  0  0  0  0  0  0  0  0  0  0
   57.3954   21.6067   42.3979 H   0  0  0  0  0  0  0  0  0  0  0  0
   58.8285   21.4244   44.1127 H   0  0  0  0  0  0  0  0  0  0  0  0
   58.2231   23.0782   44.5712 H   0  0  0  0  0  0  0  0  0  0  0  0
   56.4220   21.0888   45.6297 H   0  0  0  0  0  0  0  0  0  0  0  0
   58.1101   20.6736   46.1055 H   0  0  0  0  0  0  0  0  0  0  0  0
   55.1955   23.8429   46.3774 H   0  0  0  0  0  0  0  0  0  0  0  0
   54.9678   26.2732   45.8930 H   0  0  0  0  0  0  0  0  0  0  0  0
   57.3925   30.1187   43.6801 H   0  0  0  0  0  0  0  0  0  0  0  0
   57.6099   32.5492   43.0924 H   0  0  0  0  0  0  0  0  0  0  0  0
   59.0042   30.9427   47.6312 H   0  0  0  0  0  0  0  0  0  0  0  0
   58.8270   33.7663   48.0431 H   0  0  0  0  0  0  0  0  0  0  0  0
   61.2366   34.5790   47.8153 H   0  0  0  0  0  0  0  0  0  0  0  0
   60.6568   32.9880   48.6198 H   0  0  0  0  0  0  0  0  0  0  0  0
   61.4420   32.6340   45.9990 H   0  0  0  0  0  0  0  0  0  0  0  0
   63.5752   33.6920   47.7388 H   0  0  0  0  0  0  0  0  0  0  0  0
   63.8134   32.8006   46.1975 H   0  0  0  0  0  0  0  0  0  0  0  0
   62.9651   34.3840   46.1975 H   0  0  0  0  0  0  0  0  0  0  0  0
   62.0474   31.4361   48.5896 H   0  0  0  0  0  0  0  0  0  0  0  0
   61.2447   30.7470   47.1378 H   0  0  0  0  0  0  0  0  0  0  0  0
   63.0201   31.0203   47.1378 H   0  0  0  0  0  0  0  0  0  0  0  0
   58.4495   35.6638   46.7287 H   0  0  0  0  0  0  0  0  0  0  0  0
   60.1113   35.5428   46.1009 H   0  0  0  0  0  0  0  0  0  0  0  0
   57.6296   34.9912   44.6765 H   0  0  0  0  0  0  0  0  0  0  0  0
   59.2562   34.8137   44.0321 H   0  0  0  0  0  0  0  0  0  0  0  0
   59.2768   26.7020   46.0551 H   0  0  0  0  0  0  0  0  0  0  0  0
   59.5009   24.2591   46.4891 H   0  0  0  0  0  0  0  0  0  0  0  0
  1  2  1  0
  2  3  1  0
  3  4  1  0
  4  5  1  0
  5  6  1  0
  6  7  2  0
  7  8  1  0
  8  9  2  0
  9 10  1  0
 10 11  2  0
 10 12  1  0
 12 13  1  0
 13 14  2  0
 14 15  1  0
 15 16  2  0
 16 17  1  0
 17 18  2  0
 17 19  1  0
 19 20  1  0
 20 21  1  0
 21 22  1  0
 21 23  1  0
 19 24  1  0
 24 25  1  0
  9 26  1  0
 26 27  2  0
 27  6  1  0
 18 13  1  0
 25 16  1  0
  1 28  1  0
  1 29  1  0
  1 30  1  0
  2 31  1  0
  2 32  1  0
  3 33  1  0
  3 34  1  0
  4 35  1  0
  4 36  1  0
  7 37  1  0
  8 38  1  0
 14 39  1  0
 15 40  1  0
 18 41  1  0
 19 42  1  1
 20 43  1  0
 20 44  1  0
 21 45  1  0
 22 46  1  0
 22 47  1  0
 22 48  1  0
 23 49  1  0
 23 50  1  0
 23 51  1  0
 24 52  1  0
 24 53  1  0
 25 54  1  0
 25 55  1  0
 26 56  1  0
 27 57  1  0
M  CHG  2  12  -1  21   1
M  END
>  <UniqueID>  (16) 
14

>  <SMILES>  (16) 
CCCCOc1ccc(C(=O)[N-]c2ccc3c(c2)[C@@H](C[NH+](C)C)CC3)cc1

>  <Energy>  (16) 
75.1539583005523

>  <Genealogy>  (16) 
CCCCOc1ccc(C(=O)[N-]c2ccc3c(c2)C(C[NH+](C)C)CC3)cc1 (protonated)
CCCCOc1ccc(C(=O)[N-]c2ccc3c(c2)[C@@H](C[NH+](C)C)CC3)cc1 (chirality)
CCCCOc1ccc(C(=O)[N-]c2ccc3c(c2)[C@@H](C[NH+](C)C)CC3)cc1 (3D coordinates assigned)
CCCCOc1ccc(C(=O)[N-]c2ccc3c(c2)[C@@H](C[NH+](C)C)CC3)cc1 (nonaromatic ring conformer: 75.1539583005523 kcal/mol)

>  <smiles>  (16) 
CCCCOc1ccc(C(=O)Nc2ccc3c(c2)C(CN(C)C)CC3)cc1

>  <score_type>  (16) 
oracle

>  <origin>  (16) 
adg

>  <m_score__min__energy>  (16) 
-8.0099999999999998

>  <m_primary>  (16) 
energy

$$$$
16:0
     RDKit          3D

 41 42  0  0  0  0  0  0  0  0999 V2000
   59.1040   33.7210   52.8490 C   0  0  0  0  0  0  0  0  0  0  0  0
   60.1940   33.2540   52.0600 O   0  0  0  0  0  0  0  0  0  0  0  0
   60.3210   33.4670   50.6800 C   0  0  0  0  0  0  0  0  0  0  0  0
   61.4740   34.0380   50.1070 C   0  0  0  0  0  0  0  0  0  0  0  0
   61.5560   34.2330   48.7250 C   0  0  0  0  0  0  0  0  0  0  0  0
   60.4910   33.8610   47.8940 C   0  0  0  0  0  0  0  0  0  0  0  0
   60.5620   34.0500   46.5450 N   0  0  0  0  0  0  0  0  0  0  0  0
   59.5380   33.6990   45.7210 C   0  0  0  0  0  0  0  0  0  0  0  0
   58.3720   33.1210   46.2420 C   0  0  0  0  0  0  0  0  0  0  0  0
   57.2330   32.7580   45.3250 C   0  0  0  0  0  0  0  0  0  0  0  0
   57.2500   31.3120   45.0060 N   0  0  0  0  0  0  0  0  0  0  0  0
   58.5900   30.6880   45.1390 C   0  0  0  0  0  0  0  0  0  0  0  0
   58.5960   29.3670   45.9330 C   0  0  0  0  0  0  0  0  0  0  0  0
   57.3020   29.0790   46.3910 O   0  0  0  0  0  0  0  0  0  0  0  0
   56.6190   31.0270   43.6990 C   0  0  0  0  0  0  0  0  0  0  0  0
   55.9150   29.6710   43.7370 C   0  0  0  0  0  0  0  0  0  0  0  0
   55.1430   29.5770   44.9010 O   0  0  0  0  0  0  0  0  0  0  0  0
   58.2730   32.9190   47.6250 C   0  0  0  0  0  0  0  0  0  0  0  0
   59.3320   33.2860   48.4620 C   0  0  0  0  0  0  0  0  0  0  0  0
   59.2560   33.0950   49.8510 C   0  0  0  0  0  0  0  0  0  0  0  0
   59.3515   33.6150   53.9155 H   0  0  0  0  0  0  0  0  0  0  0  0
   58.9131   34.7799   52.6204 H   0  0  0  0  0  0  0  0  0  0  0  0
   58.2057   33.1288   52.6204 H   0  0  0  0  0  0  0  0  0  0  0  0
   62.3156   34.3325   50.7512 H   0  0  0  0  0  0  0  0  0  0  0  0
   62.4608   34.6806   48.2880 H   0  0  0  0  0  0  0  0  0  0  0  0
   61.4170   34.4780   46.1200 H   0  0  0  0  0  0  0  0  0  0  0  0
   59.6256   33.8700   44.6379 H   0  0  0  0  0  0  0  0  0  0  0  0
   56.2813   33.0068   45.8173 H   0  0  0  0  0  0  0  0  0  0  0  0
   57.3418   33.3252   44.3888 H   0  0  0  0  0  0  0  0  0  0  0  0
   58.9780   30.4856   44.1298 H   0  0  0  0  0  0  0  0  0  0  0  0
   59.2146   31.3976   45.7014 H   0  0  0  0  0  0  0  0  0  0  0  0
   58.9421   28.5513   45.2812 H   0  0  0  0  0  0  0  0  0  0  0  0
   59.2715   29.4661   46.7955 H   0  0  0  0  0  0  0  0  0  0  0  0
   56.7730   29.9120   46.2890 H   0  0  0  0  0  0  0  0  0  0  0  0
   55.8829   31.8123   43.4720 H   0  0  0  0  0  0  0  0  0  0  0  0
   57.3972   31.0056   42.9219 H   0  0  0  0  0  0  0  0  0  0  0  0
   55.2636   29.5716   42.8562 H   0  0  0  0  0  0  0  0  0  0  0  0
   56.6667   28.8680   43.7305 H   0  0  0  0  0  0  0  0  0  0  0  0
   55.6280   30.0930   45.5960 H   0  0  0  0  0  0  0  0  0  0  0  0
   57.3632   32.4721   48.0522 H   0  0  0  0  0  0  0  0  0  0  0  0
   58.3520   32.6493   50.2915 H   0  0  0  0  0  0  0  0  0  0  0  0
  1  2  1  0
  2  3  1  0
  3  4  2  0
  4  5  1  0
  5  6  2  0
  6  7  1  0
  7  8  2  0
  8  9  1  0
  9 10  1  0
 10 11  1  0
 11 12  1  0
 12 13  1  0
 13 14  1  0
 11 15  1  0
 15 16  1  0
 16 17  1  0
  9 18  2  0
 18 19  1  0
 19 20  2  0
 20  3  1  0
 19  6  1  0
  1 21  1  0
  1 22  1  0
  1 23  1  0
  4 24  1  0
  5 25  1  0
  7 26  1  0
  8 27  1  0
 10 28  1  0
 10 29  1  0
 12 30  1  0
 12 31  1  0
 13 32  1  0
 13 33  1  0
 14 34  1  0
 15 35  1  0
 15 36  1  0
 16 37  1  0
 16 38  1  0
 17 39  1  0
 18 40  1  0
 20 41  1  0
M  CHG  1   7   1
M  END
>  <UniqueID>  (17) 
15

>  <SMILES>  (17) 
COc1ccc2[nH+]cc(CN(CCO)CCO)cc2c1

>  <Energy>  (17) 
43.630802765628786

>  <Genealogy>  (17) 
COc1ccc2[nH+]cc(CN(CCO)CCO)cc2c1 (protonated)
COc1ccc2[nH+]cc(CN(CCO)CCO)cc2c1 (3D coordinates assigned)
COc1ccc2[nH+]cc(CN(CCO)CCO)cc2c1 (optimized conformer: 43.630802765628786 kcal/mol)

>  <smiles>  (17) 
COc1ccc2ncc(CN(CCO)CCO)cc2c1

>  <score_type>  (17) 
oracle

>  <origin>  (17) 
adg

>  <m_score__min__energy>  (17) 
-5.4699999999999998

>  <m_primary>  (17) 
energy

$$$$
17:0
     RDKit          3D

 44 46  0  0  0  0  0  0  0  0999 V2000
   65.3640   32.8950   49.7530 C   0  0  0  0  0  0  0  0  0  0  0  0
   64.0390   33.1590   49.1060 C   0  0  0  0  0  0  0  0  0  0  0  0
   63.7590   32.6870   47.8190 C   0  0  0  0  0  0  0  0  0  0  0  0
   62.5380   32.9050   47.2670 N   0  0  0  0  0  0  0  0  0  0  0  0
   61.5620   33.5680   47.9460 C   0  0  0  0  0  0  0  0  0  0  0  0
   60.2730   33.7830   47.3380 N   0  0  0  0  0  0  0  0  0  0  0  0
   59.1840   32.8250   47.5750 C   0  0  0  0  0  0  0  0  0  0  0  0
   57.8190   33.4390   47.2320 C   0  0  0  0  0  0  0  0  0  0  0  0
   57.7840   34.0420   45.8810 N   0  0  0  0  0  0  0  0  0  0  0  0
   57.0520   33.2580   44.8610 C   0  0  0  0  0  0  0  0  0  0  0  0
   57.7410   31.9370   44.4520 C   0  0  0  0  0  0  0  0  0  0  0  0
   57.0220   30.7970   44.9230 O   0  0  0  0  0  0  0  0  0  0  0  0
   57.5150   29.4830   44.9810 C   0  0  0  0  0  0  0  0  0  0  0  0
   57.8650   28.8510   46.1910 C   0  0  0  0  0  0  0  0  0  0  0  0
   58.3520   27.5400   46.1840 C   0  0  0  0  0  0  0  0  0  0  0  0
   58.4930   26.8500   44.9780 C   0  0  0  0  0  0  0  0  0  0  0  0
   58.1460   27.4690   43.7750 C   0  0  0  0  0  0  0  0  0  0  0  0
   57.6580   28.7800   43.7780 C   0  0  0  0  0  0  0  0  0  0  0  0
   59.0500   34.6310   45.3870 C   0  0  0  0  0  0  0  0  0  0  0  0
   60.0140   34.9780   46.5250 C   0  0  0  0  0  0  0  0  0  0  0  0
   61.8130   34.0150   49.2070 N   0  0  0  0  0  0  0  0  0  0  0  0
   63.0190   33.8210   49.7980 C   0  0  0  0  0  0  0  0  0  0  0  0
   65.2490   32.9179   50.8467 H   0  0  0  0  0  0  0  0  0  0  0  0
   65.7325   31.9058   49.4437 H   0  0  0  0  0  0  0  0  0  0  0  0
   66.0835   33.6674   49.4437 H   0  0  0  0  0  0  0  0  0  0  0  0
   64.5281   32.1394   47.2545 H   0  0  0  0  0  0  0  0  0  0  0  0
   59.3453   31.9361   46.9475 H   0  0  0  0  0  0  0  0  0  0  0  0
   59.1854   32.5531   48.6409 H   0  0  0  0  0  0  0  0  0  0  0  0
   57.0553   32.6490   47.2840 H   0  0  0  0  0  0  0  0  0  0  0  0
   57.6256   34.2424   47.9581 H   0  0  0  0  0  0  0  0  0  0  0  0
   56.0567   33.0164   45.2624 H   0  0  0  0  0  0  0  0  0  0  0  0
   57.0111   33.8826   43.9564 H   0  0  0  0  0  0  0  0  0  0  0  0
   57.8014   31.8916   43.3546 H   0  0  0  0  0  0  0  0  0  0  0  0
   58.7438   31.9198   44.9037 H   0  0  0  0  0  0  0  0  0  0  0  0
   57.7549   29.3902   47.1434 H   0  0  0  0  0  0  0  0  0  0  0  0
   58.6247   27.0511   47.1309 H   0  0  0  0  0  0  0  0  0  0  0  0
   58.8772   25.8193   44.9756 H   0  0  0  0  0  0  0  0  0  0  0  0
   58.2565   26.9255   42.8250 H   0  0  0  0  0  0  0  0  0  0  0  0
   57.3844   29.2626   42.8281 H   0  0  0  0  0  0  0  0  0  0  0  0
   59.5389   33.9078   44.7177 H   0  0  0  0  0  0  0  0  0  0  0  0
   58.8031   35.5642   44.8596 H   0  0  0  0  0  0  0  0  0  0  0  0
   60.9611   35.3448   46.1025 H   0  0  0  0  0  0  0  0  0  0  0  0
   59.5643   35.7576   47.1575 H   0  0  0  0  0  0  0  0  0  0  0  0
   63.1947   34.1843   50.8213 H   0  0  0  0  0  0  0  0  0  0  0  0
  1  2  1  0
  2  3  2  0
  3  4  1  0
  4  5  2  0
  5  6  1  0
  6  7  1  0
  7  8  1  0
  8  9  1  0
  9 10  1  0
 10 11  1  0
 11 12  1  0
 12 13  1  0
 13 14  2  0
 14 15  1  0
 15 16  2  0
 16 17  1  0
 17 18  2  0
  9 19  1  0
 19 20  1  0
  5 21  1  0
 21 22  2  0
 22  2  1  0
 20  6  1  0
 18 13  1  0
  1 23  1  0
  1 24  1  0
  1 25  1  0
  3 26  1  0
  7 27  1  0
  7 28  1  0
  8 29  1  0
  8 30  1  0
 10 31  1  0
 10 32  1  0
 11 33  1  0
 11 34  1  0
 14 35  1  0
 15 36  1  0
 16 37  1  0
 17 38  1  0
 18 39  1  0
 19 40  1  0
 19 41  1  0
 20 42  1  0
 20 43  1  0
 22 44  1  0
M  END
>  <UniqueID>  (18) 
16

>  <SMILES>  (18) 
Cc1cnc(N2CCN(CCOc3ccccc3)CC2)nc1

>  <Energy>  (18) 
55.74542774416769

>  <Genealogy>  (18) 
Cc1cnc(N2CCN(CCOc3ccccc3)CC2)nc1 (3D coordinates assigned)
Cc1cnc(N2CCN(CCOc3ccccc3)CC2)nc1 (nonaromatic ring conformer: 55.74542774416769 kcal/mol)

>  <smiles>  (18) 
Cc1cnc(N2CCN(CCOc3ccccc3)CC2)nc1

>  <score_type>  (18) 
oracle

>  <origin>  (18) 
adg

>  <m_score__min__energy>  (18) 
-7.1299999999999999

>  <m_primary>  (18) 
energy

$$$$
18:0
     RDKit          3D

 55 59  0  0  0  0  0  0  0  0999 V2000
   57.7640   29.7760   46.5980 O   0  0  0  0  0  0  0  0  0  0  0  0
   58.1990   30.8570   46.1060 C   0  0  0  0  0  0  0  0  0  0  0  0
   57.9330   31.1610   44.7630 C   0  0  0  0  0  0  0  0  0  0  0  0
   57.2100   30.2910   43.9250 C   0  0  0  0  0  0  0  0  0  0  0  0
   56.9570   30.6430   42.5960 C   0  0  0  0  0  0  0  0  0  0  0  0
   57.4200   31.8600   42.0930 C   0  0  0  0  0  0  0  0  0  0  0  0
   58.1380   32.7320   42.9170 C   0  0  0  0  0  0  0  0  0  0  0  0
   58.3990   32.3870   44.2530 C   0  0  0  0  0  0  0  0  0  0  0  0
   59.1020   33.2280   45.0560 N   0  0  0  0  0  0  0  0  0  0  0  0
   59.3970   32.9070   46.3490 C   0  0  0  0  0  0  0  0  0  0  0  0
   60.2890   33.8580   47.1450 C   0  0  0  0  0  0  0  0  0  0  0  0
   61.1810   33.1720   48.1090 N   0  0  0  0  0  0  0  0  0  0  0  0
   62.4560   32.7070   47.5170 C   0  0  0  0  0  0  0  0  0  0  0  0
   63.4460   32.2550   48.5930 C   0  0  0  0  0  0  0  0  0  0  0  0
   63.7070   33.3570   49.5310 N   0  0  0  0  0  0  0  0  0  0  0  0
   64.9580   33.4250   50.2510 C   0  0  0  0  0  0  0  0  0  0  0  0
   65.0680   34.1940   51.4260 C   0  0  0  0  0  0  0  0  0  0  0  0
   66.2810   34.2600   52.1180 C   0  0  0  0  0  0  0  0  0  0  0  0
   67.3960   33.5630   51.6480 C   0  0  0  0  0  0  0  0  0  0  0  0
   67.3010   32.7970   50.4840 C   0  0  0  0  0  0  0  0  0  0  0  0
   66.0900   32.7280   49.7870 C   0  0  0  0  0  0  0  0  0  0  0  0
   62.6890   34.4050   49.7010 C   0  0  0  0  0  0  0  0  0  0  0  0
   61.2920   33.8320   49.4340 C   0  0  0  0  0  0  0  0  0  0  0  0
   58.9160   31.7290   46.8850 N   0  0  0  0  0  0  0  0  0  0  0  0
   59.1120   31.4010   48.2760 C   0  0  0  0  0  0  0  0  0  0  0  0
   59.9850   30.3620   48.6400 C   0  0  0  0  0  0  0  0  0  0  0  0
   60.1970   30.0600   49.9890 C   0  0  0  0  0  0  0  0  0  0  0  0
   59.5530   30.8030   50.9830 C   0  0  0  0  0  0  0  0  0  0  0  0
   59.7600   30.5090   52.2900 F   0  0  0  0  0  0  0  0  0  0  0  0
   58.7020   31.8540   50.6290 C   0  0  0  0  0  0  0  0  0  0  0  0
   58.4880   32.1590   49.2810 C   0  0  0  0  0  0  0  0  0  0  0  0
   56.8430   29.3311   44.3173 H   0  0  0  0  0  0  0  0  0  0  0  0
   56.3919   29.9595   41.9452 H   0  0  0  0  0  0  0  0  0  0  0  0
   57.2196   32.1335   41.0465 H   0  0  0  0  0  0  0  0  0  0  0  0
   58.4995   33.6911   42.5176 H   0  0  0  0  0  0  0  0  0  0  0  0
   59.4220   34.1420   44.6670 H   0  0  0  0  0  0  0  0  0  0  0  0
   60.9125   34.4236   46.4369 H   0  0  0  0  0  0  0  0  0  0  0  0
   59.6229   34.5087   47.7306 H   0  0  0  0  0  0  0  0  0  0  0  0
   62.2496   31.8616   46.8442 H   0  0  0  0  0  0  0  0  0  0  0  0
   62.9059   33.5466   46.9669 H   0  0  0  0  0  0  0  0  0  0  0  0
   63.0222   31.4015   49.1425 H   0  0  0  0  0  0  0  0  0  0  0  0
   64.3902   31.9580   48.1131 H   0  0  0  0  0  0  0  0  0  0  0  0
   64.1939   34.7462   51.8015 H   0  0  0  0  0  0  0  0  0  0  0  0
   66.3573   34.8626   53.0351 H   0  0  0  0  0  0  0  0  0  0  0  0
   68.3491   33.6172   52.1945 H   0  0  0  0  0  0  0  0  0  0  0  0
   68.1794   32.2473   50.1149 H   0  0  0  0  0  0  0  0  0  0  0  0
   66.0216   32.1248   48.8697 H   0  0  0  0  0  0  0  0  0  0  0  0
   62.7331   34.7913   50.7300 H   0  0  0  0  0  0  0  0  0  0  0  0
   62.8869   35.2179   48.9868 H   0  0  0  0  0  0  0  0  0  0  0  0
   61.0611   33.0924   50.2148 H   0  0  0  0  0  0  0  0  0  0  0  0
   60.5832   34.6731   49.4438 H   0  0  0  0  0  0  0  0  0  0  0  0
   60.5037   29.7839   47.8610 H   0  0  0  0  0  0  0  0  0  0  0  0
   60.8712   29.2369   50.2683 H   0  0  0  0  0  0  0  0  0  0  0  0
   58.2001   32.4418   51.4116 H   0  0  0  0  0  0  0  0  0  0  0  0
   57.8286   32.9956   49.0065 H   0  0  0  0  0  0  0  0  0  0  0  0
  1  2  2  0
  2  3  1  0
  3  4  2  0
  4  5  1  0
  5  6  2  0
  6  7  1  0
  7  8  2  0
  8  9  1  0
  9 10  2  0
 10 11  1  0
 11 12  1  0
 12 13  1  0
 13 14  1  0
 14 15  1  0
 15 16  1  0
 16 17  2  0
 17 18  1  0
 18 19  2  0
 19 20  1  0
 20 21  2  0
 15 22  1  0
 22 23  1  0
 10 24  1  0
 24 25  1  0
 25 26  2  0
 26 27  1  0
 27 28  2  0
 28 29  1  0
 28 30  1  0
 30 31  2  0
 24  2  1  0
 31 25  1  0
  8  3  1  0
 23 12  1  0
 21 16  1  0
  4 32  1  0
  5 33  1  0
  6 34  1  0
  7 35  1  0
  9 36  1  0
 11 37  1  0
 11 38  1  0
 13 39  1  0
 13 40  1  0
 14 41  1  0
 14 42  1  0
 17 43  1  0
 18 44  1  0
 19 45  1  0
 20 46  1  0
 21 47  1  0
 22 48  1  0
 22 49  1  0
 23 50  1  0
 23 51  1  0
 26 52  1  0
 27 53  1  0
 30 54  1  0
 31 55  1  0
M  CHG  1   9   1
M  END
>  <UniqueID>  (19) 
17

>  <SMILES>  (19) 
O=c1c2ccccc2[nH+]c(CN2CCN(c3ccccc3)CC2)n1-c1ccc(F)cc1

>  <Energy>  (19) 
89.18893754284223

>  <Genealogy>  (19) 
O=c1c2ccccc2[nH+]c(CN2CCN(c3ccccc3)CC2)n1-c1ccc(F)cc1 (protonated)
O=c1c2ccccc2[nH+]c(CN2CCN(c3ccccc3)CC2)n1-c1ccc(F)cc1 (3D coordinates assigned)
O=c1c2ccccc2[nH+]c(CN2CCN(c3ccccc3)CC2)n1-c1ccc(F)cc1 (nonaromatic ring conformer: 89.18893754284223 kcal/mol)

>  <smiles>  (19) 
O=c1c2ccccc2nc(CN2CCN(c3ccccc3)CC2)n1-c1ccc(F)cc1

>  <score_type>  (19) 
oracle

>  <origin>  (19) 
adg

>  <m_score__min__energy>  (19) 
-6.9199999999999999

>  <m_primary>  (19) 
energy

$$$$
19:0
     RDKit          3D

 49 51  0  0  0  0  0  0  0  0999 V2000
   58.9450   30.9670   49.7330 C   0  0  0  0  0  0  0  0  0  0  0  0
   60.4250   30.7570   50.0650 C   0  0  0  0  0  0  0  0  0  0  0  0
   61.2940   31.7890   49.4190 N   0  0  0  0  0  0  0  0  0  0  0  0
   62.7340   31.4530   49.5680 C   0  0  0  0  0  0  0  0  0  0  0  0
   63.5850   31.9950   48.4140 C   0  0  0  0  0  0  0  0  0  0  0  0
   61.0430   33.1370   49.9940 C   0  0  0  0  0  0  0  0  0  0  0  0
   60.5560   34.1680   48.9470 C   0  0  0  0  0  0  0  0  0  0  0  0
   61.4230   34.2180   47.6780 C   0  0  0  0  0  0  0  0  0  0  0  0
   60.9910   33.2240   46.6970 N   0  0  0  0  0  0  0  0  0  0  0  0
   59.6230   33.1050   46.2680 C   0  0  0  0  0  0  0  0  0  0  0  0
   58.9060   34.2770   45.9740 C   0  0  0  0  0  0  0  0  0  0  0  0
   57.6210   34.2150   45.4420 C   0  0  0  0  0  0  0  0  0  0  0  0
   57.0280   32.9830   45.1880 C   0  0  0  0  0  0  0  0  0  0  0  0
   57.7060   31.7990   45.4860 C   0  0  0  0  0  0  0  0  0  0  0  0
   57.0950   30.6120   45.2370 N   0  0  0  0  0  0  0  0  0  0  0  0
   57.6790   29.4230   45.5210 C   0  0  0  0  0  0  0  0  0  0  0  0
   57.0010   28.2310   45.2350 C   0  0  0  0  0  0  0  0  0  0  0  0
   57.5880   27.0010   45.5360 C   0  0  0  0  0  0  0  0  0  0  0  0
   58.8530   26.9540   46.1260 C   0  0  0  0  0  0  0  0  0  0  0  0
   59.5370   28.1380   46.4180 C   0  0  0  0  0  0  0  0  0  0  0  0
   58.9590   29.3870   46.1140 C   0  0  0  0  0  0  0  0  0  0  0  0
   59.6180   30.6000   46.3960 C   0  0  0  0  0  0  0  0  0  0  0  0
   60.7360   30.5710   46.9810 O   0  0  0  0  0  0  0  0  0  0  0  0
   59.0110   31.8350   46.0500 C   0  0  0  0  0  0  0  0  0  0  0  0
   58.3680   31.0489   50.6659 H   0  0  0  0  0  0  0  0  0  0  0  0
   58.8281   31.8907   49.1473 H   0  0  0  0  0  0  0  0  0  0  0  0
   58.5757   30.1123   49.1473 H   0  0  0  0  0  0  0  0  0  0  0  0
   60.5562   30.8139   51.1557 H   0  0  0  0  0  0  0  0  0  0  0  0
   60.7238   29.7708   49.6803 H   0  0  0  0  0  0  0  0  0  0  0  0
   61.1010   31.8380   48.3940 H   0  0  0  0  0  0  0  0  0  0  0  0
   63.1015   31.8849   50.5106 H   0  0  0  0  0  0  0  0  0  0  0  0
   62.8239   30.3567   49.5637 H   0  0  0  0  0  0  0  0  0  0  0  0
   64.4471   32.5441   48.8206 H   0  0  0  0  0  0  0  0  0  0  0  0
   63.9418   31.1574   47.7966 H   0  0  0  0  0  0  0  0  0  0  0  0
   62.9768   32.6725   47.7966 H   0  0  0  0  0  0  0  0  0  0  0  0
   60.2758   33.0453   50.7769 H   0  0  0  0  0  0  0  0  0  0  0  0
   62.0000   33.5046   50.3927 H   0  0  0  0  0  0  0  0  0  0  0  0
   59.5280   33.9072   48.6550 H   0  0  0  0  0  0  0  0  0  0  0  0
   60.6199   35.1596   49.4189 H   0  0  0  0  0  0  0  0  0  0  0  0
   61.3449   35.2198   47.2305 H   0  0  0  0  0  0  0  0  0  0  0  0
   62.4628   33.9964   47.9603 H   0  0  0  0  0  0  0  0  0  0  0  0
   61.6910   32.5240   46.3640 H   0  0  0  0  0  0  0  0  0  0  0  0
   59.3664   35.2572   46.1669 H   0  0  0  0  0  0  0  0  0  0  0  0
   57.0732   35.1431   45.2219 H   0  0  0  0  0  0  0  0  0  0  0  0
   56.0198   32.9409   44.7501 H   0  0  0  0  0  0  0  0  0  0  0  0
   56.0037   28.2644   44.7721 H   0  0  0  0  0  0  0  0  0  0  0  0
   57.0534   26.0670   45.3081 H   0  0  0  0  0  0  0  0  0  0  0  0
   59.3125   25.9828   46.3616 H   0  0  0  0  0  0  0  0  0  0  0  0
   60.5310   28.0945   46.8872 H   0  0  0  0  0  0  0  0  0  0  0  0
  1  2  1  0
  2  3  1  0
  3  4  1  0
  4  5  1  0
  3  6  1  0
  6  7  1  0
  7  8  1  0
  8  9  1  0
  9 10  1  0
 10 11  2  0
 11 12  1  0
 12 13  2  0
 13 14  1  0
 14 15  1  0
 15 16  1  0
 16 17  2  0
 17 18  1  0
 18 19  2  0
 19 20  1  0
 20 21  2  0
 21 22  1  0
 22 23  2  0
 22 24  1  0
 24 10  1  0
 24 14  2  0
 21 16  1  0
  1 25  1  0
  1 26  1  0
  1 27  1  0
  2 28  1  0
  2 29  1  0
  3 30  1  0
  4 31  1  0
  4 32  1  0
  5 33  1  0
  5 34  1  0
  5 35  1  0
  6 36  1  0
  6 37  1  0
  7 38  1  0
  7 39  1  0
  8 40  1  0
  8 41  1  0
  9 42  1  0
 11 43  1  0
 12 44  1  0
 13 45  1  0
 17 46  1  0
 18 47  1  0
 19 48  1  0
 20 49  1  0
M  CHG  2   3   1  15  -1
M  END
>  <UniqueID>  (20) 
18

>  <SMILES>  (20) 
CC[NH+](CC)CCCNc1cccc2[n-]c3ccccc3c(=O)c12

>  <Energy>  (20) 
66.09624034648438

>  <Genealogy>  (20) 
CC[NH+](CC)CCCNc1cccc2[n-]c3ccccc3c(=O)c12 (protonated)
CC[NH+](CC)CCCNc1cccc2[n-]c3ccccc3c(=O)c12 (3D coordinates assigned)
CC[NH+](CC)CCCNc1cccc2[n-]c3ccccc3c(=O)c12 (optimized conformer: 66.09624034648438 kcal/mol)

>  <smiles>  (20) 
CCN(CC)CCCNc1cccc2[nH]c3ccccc3c(=O)c12

>  <score_type>  (20) 
oracle

>  <origin>  (20) 
adg

>  <m_score__min__energy>  (20) 
-6.5700000000000003

>  <m_primary>  (20) 
energy

$$$$
20:0
     RDKit          3D

 64 68  0  0  0  0  0  0  0  0999 V2000
   60.2990   28.5130   52.3170 C   0  0  0  0  0  0  0  0  0  0  0  0
   60.2840   28.4200   50.8960 O   0  0  0  0  0  0  0  0  0  0  0  0
   60.9240   29.3230   50.0330 C   0  0  0  0  0  0  0  0  0  0  0  0
   61.9240   30.2070   50.4820 C   0  0  0  0  0  0  0  0  0  0  0  0
   62.5460   31.0950   49.5940 C   0  0  0  0  0  0  0  0  0  0  0  0
   62.1410   31.1220   48.2480 C   0  0  0  0  0  0  0  0  0  0  0  0
   61.1610   30.2300   47.7940 C   0  0  0  0  0  0  0  0  0  0  0  0
   60.5450   29.3320   48.6830 C   0  0  0  0  0  0  0  0  0  0  0  0
   59.5510   28.4330   48.2620 O   0  0  0  0  0  0  0  0  0  0  0  0
   58.5460   28.7380   47.3000 C   0  0  0  0  0  0  0  0  0  0  0  0
   62.8130   32.0490   47.2690 C   0  0  0  0  0  0  0  0  0  0  0  0
   63.3400   33.2680   47.9210 N   0  0  0  0  0  0  0  0  0  0  0  0
   62.2890   34.2040   48.3880 C   0  0  0  0  0  0  0  0  0  0  0  0
   60.9540   33.9150   47.7470 C   0  0  0  0  0  0  0  0  0  0  0  0
   60.7140   34.2500   46.3980 C   0  0  0  0  0  0  0  0  0  0  0  0
   59.4760   33.9500   45.7880 C   0  0  0  0  0  0  0  0  0  0  0  0
   58.4540   33.2970   46.5190 C   0  0  0  0  0  0  0  0  0  0  0  0
   57.2090   32.9650   45.9660 O   0  0  0  0  0  0  0  0  0  0  0  0
   57.0390   32.1240   44.8300 C   0  0  0  0  0  0  0  0  0  0  0  0
   58.7220   32.9720   47.8480 C   0  0  0  0  0  0  0  0  0  0  0  0
   57.9270   32.3610   48.6930 O   0  0  0  0  0  0  0  0  0  0  0  0
   58.5760   32.2440   49.8370 C   0  0  0  0  0  0  0  0  0  0  0  0
   58.0110   31.5970   51.0320 C   0  0  0  0  0  0  0  0  0  0  0  0
   57.3710   30.5190   50.8990 O   0  0  0  0  0  0  0  0  0  0  0  0
   58.2120   32.1450   52.3470 N   0  0  0  0  0  0  0  0  0  0  0  0
   58.5110   31.2460   53.4640 C   0  0  0  0  0  0  0  0  0  0  0  0
   58.9700   32.0540   54.6810 C   0  0  0  0  0  0  0  0  0  0  0  0
   59.7280   33.1660   54.2530 O   0  0  0  0  0  0  0  0  0  0  0  0
   58.8890   34.1380   53.6480 C   0  0  0  0  0  0  0  0  0  0  0  0
   57.8770   33.5420   52.6420 C   0  0  0  0  0  0  0  0  0  0  0  0
   59.8510   32.7890   49.7320 C   0  0  0  0  0  0  0  0  0  0  0  0
   59.9220   33.2650   48.4400 C   0  0  0  0  0  0  0  0  0  0  0  0
   64.2610   32.8940   49.0150 C   0  0  0  0  0  0  0  0  0  0  0  0
   63.5740   32.0680   50.1230 C   0  0  0  0  0  0  0  0  0  0  0  0
   60.1381   27.5153   52.7515 H   0  0  0  0  0  0  0  0  0  0  0  0
   61.2719   28.9047   52.6486 H   0  0  0  0  0  0  0  0  0  0  0  0
   59.4986   29.1908   52.6486 H   0  0  0  0  0  0  0  0  0  0  0  0
   62.2202   30.2004   51.5414 H   0  0  0  0  0  0  0  0  0  0  0  0
   60.8710   30.2322   46.7329 H   0  0  0  0  0  0  0  0  0  0  0  0
   57.6170   29.0199   47.8171 H   0  0  0  0  0  0  0  0  0  0  0  0
   58.8832   29.5742   46.6700 H   0  0  0  0  0  0  0  0  0  0  0  0
   58.3616   27.8554   46.6700 H   0  0  0  0  0  0  0  0  0  0  0  0
   63.6473   31.5145   46.7913 H   0  0  0  0  0  0  0  0  0  0  0  0
   62.0603   32.3612   46.5301 H   0  0  0  0  0  0  0  0  0  0  0  0
   62.1876   34.1093   49.4792 H   0  0  0  0  0  0  0  0  0  0  0  0
   62.5898   35.2235   48.1050 H   0  0  0  0  0  0  0  0  0  0  0  0
   61.5003   34.7508   45.8142 H   0  0  0  0  0  0  0  0  0  0  0  0
   59.3044   34.2257   44.7370 H   0  0  0  0  0  0  0  0  0  0  0  0
   56.8313   31.0962   45.1625 H   0  0  0  0  0  0  0  0  0  0  0  0
   56.1969   32.4909   44.2249 H   0  0  0  0  0  0  0  0  0  0  0  0
   57.9575   32.1350   44.2249 H   0  0  0  0  0  0  0  0  0  0  0  0
   57.6066   30.6768   53.7251 H   0  0  0  0  0  0  0  0  0  0  0  0
   59.3142   30.5561   53.1660 H   0  0  0  0  0  0  0  0  0  0  0  0
   58.0903   32.4043   55.2408 H   0  0  0  0  0  0  0  0  0  0  0  0
   59.5897   31.4173   55.3295 H   0  0  0  0  0  0  0  0  0  0  0  0
   58.3281   34.6551   54.4405 H   0  0  0  0  0  0  0  0  0  0  0  0
   59.5411   34.8208   53.0835 H   0  0  0  0  0  0  0  0  0  0  0  0
   56.8663   33.5890   53.0737 H   0  0  0  0  0  0  0  0  0  0  0  0
   57.9168   34.1232   51.7090 H   0  0  0  0  0  0  0  0  0  0  0  0
   60.6300   32.8310   50.5075 H   0  0  0  0  0  0  0  0  0  0  0  0
   65.0840   32.2987   48.5928 H   0  0  0  0  0  0  0  0  0  0  0  0
   64.6231   33.8256   49.4744 H   0  0  0  0  0  0  0  0  0  0  0  0
   64.3454   31.5007   50.6644 H   0  0  0  0  0  0  0  0  0  0  0  0
   63.0449   32.7770   50.7767 H   0  0  0  0  0  0  0  0  0  0  0  0
  1  2  1  0
  2  3  1  0
  3  4  2  0
  4  5  1  0
  5  6  2  0
  6  7  1  0
  7  8  2  0
  8  9  1  0
  9 10  1  0
  6 11  1  0
 11 12  1  0
 12 13  1  0
 13 14  1  0
 14 15  2  0
 15 16  1  0
 16 17  2  0
 17 18  1  0
 18 19  1  0
 17 20  1  0
 20 21  1  0
 21 22  1  0
 22 23  1  0
 23 24  2  0
 23 25  1  0
 25 26  1  0
 26 27  1  0
 27 28  1  0
 28 29  1  0
 29 30  1  0
 22 31  2  0
 31 32  1  0
 12 33  1  0
 33 34  1  0
  8  3  1  0
 32 14  1  0
 34  5  1  0
 32 20  2  0
 30 25  1  0
  1 35  1  0
  1 36  1  0
  1 37  1  0
  4 38  1  0
  7 39  1  0
 10 40  1  0
 10 41  1  0
 10 42  1  0
 11 43  1  0
 11 44  1  0
 13 45  1  0
 13 46  1  0
 15 47  1  0
 16 48  1  0
 19 49  1  0
 19 50  1  0
 19 51  1  0
 26 52  1  0
 26 53  1  0
 27 54  1  0
 27 55  1  0
 29 56  1  0
 29 57  1  0
 30 58  1  0
 30 59  1  0
 31 60  1  0
 33 61  1  0
 33 62  1  0
 34 63  1  0
 34 64  1  0
M  END
>  <UniqueID>  (21) 
19

>  <SMILES>  (21) 
COc1cc2c(cc1OC)CN(Cc1ccc(OC)c3oc(C(=O)N4CCOCC4)cc13)CC2

>  <Energy>  (21) 
109.32602809782273

>  <Genealogy>  (21) 
COc1cc2c(cc1OC)CN(Cc1ccc(OC)c3oc(C(=O)N4CCOCC4)cc13)CC2 (3D coordinates assigned)
COc1cc2c(cc1OC)CN(Cc1ccc(OC)c3oc(C(=O)N4CCOCC4)cc13)CC2 (nonaromatic ring conformer: 109.32602809782273 kcal/mol)

>  <smiles>  (21) 
COc1cc2c(cc1OC)CN(Cc1ccc(OC)c3oc(C(=O)N4CCOCC4)cc13)CC2

>  <score_type>  (21) 
oracle

>  <origin>  (21) 
adg

>  <m_score__min__energy>  (21) 
-9.1799999999999997

>  <m_primary>  (21) 
energy

$$$$
21:0
     RDKit          3D

 54 57  0  0  0  0  0  0  0  0999 V2000
   57.8720   32.4210   41.0700 C   0  0  0  0  0  0  0  0  0  0  0  0
   57.0280   31.5050   41.9500 C   0  0  0  0  0  0  0  0  0  0  0  0
   57.4430   31.6210   43.3920 C   0  0  0  0  0  0  0  0  0  0  0  0
   57.0860   30.6340   44.3160 C   0  0  0  0  0  0  0  0  0  0  0  0
   57.4840   30.7390   45.6090 N   0  0  0  0  0  0  0  0  0  0  0  0
   58.1760   31.8090   46.0870 C   0  0  0  0  0  0  0  0  0  0  0  0
   58.4050   32.9140   45.2170 C   0  0  0  0  0  0  0  0  0  0  0  0
   58.1040   32.7630   43.8560 C   0  0  0  0  0  0  0  0  0  0  0  0
   58.7380   34.1050   45.6190 N   0  0  0  0  0  0  0  0  0  0  0  0
   58.7720   34.5860   46.9910 C   0  0  0  0  0  0  0  0  0  0  0  0
   59.8000   33.8580   47.7870 C   0  0  0  0  0  0  0  0  0  0  0  0
   60.8010   34.5720   48.4650 C   0  0  0  0  0  0  0  0  0  0  0  0
   61.7050   33.9160   49.3220 C   0  0  0  0  0  0  0  0  0  0  0  0
   62.7430   34.6180   49.9530 O   0  0  0  0  0  0  0  0  0  0  0  0
   63.0890   34.5030   51.3290 C   0  0  0  0  0  0  0  0  0  0  0  0
   61.5650   32.5230   49.5280 C   0  0  0  0  0  0  0  0  0  0  0  0
   62.3780   31.7680   50.3940 O   0  0  0  0  0  0  0  0  0  0  0  0
   63.6780   31.2340   50.1210 C   0  0  1  0  0  0  0  0  0  0  0  0
   64.6400   32.3670   49.6850 C   0  0  0  0  0  0  0  0  0  0  0  0
   66.0850   32.0760   50.1140 C   0  0  0  0  0  0  0  0  0  0  0  0
   66.2270   31.9400   51.5910 N   0  0  1  0  0  0  0  0  0  0  0  0
   66.6780   33.2080   52.1960 C   0  0  0  0  0  0  0  0  0  0  0  0
   64.9970   31.4600   52.2750 C   0  0  0  0  0  0  0  0  0  0  0  0
   64.1870   30.5100   51.3850 C   0  0  0  0  0  0  0  0  0  0  0  0
   60.5740   31.8250   48.8310 C   0  0  0  0  0  0  0  0  0  0  0  0
   59.7020   32.4730   47.9500 C   0  0  0  0  0  0  0  0  0  0  0  0
   58.7310   31.6690   47.2610 N   0  0  0  0  0  0  0  0  0  0  0  0
   58.4804   33.0813   41.7054 H   0  0  0  0  0  0  0  0  0  0  0  0
   58.5327   31.8126   40.4349 H   0  0  0  0  0  0  0  0  0  0  0  0
   57.2117   33.0298   40.4349 H   0  0  0  0  0  0  0  0  0  0  0  0
   55.9694   31.7884   41.8552 H   0  0  0  0  0  0  0  0  0  0  0  0
   57.1761   30.4655   41.6223 H   0  0  0  0  0  0  0  0  0  0  0  0
   56.4824   29.7723   43.9946 H   0  0  0  0  0  0  0  0  0  0  0  0
   58.3910   33.5517   43.1449 H   0  0  0  0  0  0  0  0  0  0  0  0
   59.0117   35.6596   46.9899 H   0  0  0  0  0  0  0  0  0  0  0  0
   57.7867   34.4115   47.4480 H   0  0  0  0  0  0  0  0  0  0  0  0
   60.8800   35.6601   48.3245 H   0  0  0  0  0  0  0  0  0  0  0  0
   62.2268   34.7896   51.9491 H   0  0  0  0  0  0  0  0  0  0  0  0
   63.3705   33.4630   51.5506 H   0  0  0  0  0  0  0  0  0  0  0  0
   63.9371   35.1676   51.5506 H   0  0  0  0  0  0  0  0  0  0  0  0
   63.6292   30.5117   49.2928 H   0  0  0  0  0  0  0  0  0  0  0  0
   64.3134   33.3104   50.1468 H   0  0  0  0  0  0  0  0  0  0  0  0
   64.6140   32.4379   48.5876 H   0  0  0  0  0  0  0  0  0  0  0  0
   66.7270   32.9014   49.7727 H   0  0  0  0  0  0  0  0  0  0  0  0
   66.3810   31.1184   49.6609 H   0  0  0  0  0  0  0  0  0  0  0  0
   66.9830   31.2360   51.7690 H   0  0  0  0  0  0  0  0  0  0  0  0
   66.6476   33.1225   53.2922 H   0  0  0  0  0  0  0  0  0  0  0  0
   67.7075   33.4224   51.8734 H   0  0  0  0  0  0  0  0  0  0  0  0
   66.0151   34.0244   51.8734 H   0  0  0  0  0  0  0  0  0  0  0  0
   64.3712   32.3271   52.5331 H   0  0  0  0  0  0  0  0  0  0  0  0
   65.2996   30.9094   53.1779 H   0  0  0  0  0  0  0  0  0  0  0  0
   63.3251   30.1314   51.9541 H   0  0  0  0  0  0  0  0  0  0  0  0
   64.8389   29.6802   51.0744 H   0  0  0  0  0  0  0  0  0  0  0  0
   60.4778   30.7393   48.9792 H   0  0  0  0  0  0  0  0  0  0  0  0
  1  2  1  0
  2  3  1  0
  3  4  1  0
  4  5  2  0
  5  6  1  0
  6  7  1  0
  7  8  1  0
  7  9  2  0
  9 10  1  0
 10 11  1  0
 11 12  2  0
 12 13  1  0
 13 14  1  0
 14 15  1  0
 13 16  2  0
 16 17  1  0
 17 18  1  0
 18 19  1  0
 19 20  1  0
 20 21  1  0
 21 22  1  0
 21 23  1  0
 23 24  1  0
 16 25  1  0
 25 26  2  0
 26 27  1  0
  8  3  2  0
 26 11  1  0
 27  6  2  0
 24 18  1  0
  1 28  1  0
  1 29  1  0
  1 30  1  0
  2 31  1  0
  2 32  1  0
  4 33  1  0
  8 34  1  0
 10 35  1  0
 10 36  1  0
 12 37  1  0
 15 38  1  0
 15 39  1  0
 15 40  1  0
 18 41  1  6
 19 42  1  0
 19 43  1  0
 20 44  1  0
 20 45  1  0
 21 46  1  6
 22 47  1  0
 22 48  1  0
 22 49  1  0
 23 50  1  0
 23 51  1  0
 24 52  1  0
 24 53  1  0
 25 54  1  0
M  CHG  1  21   1
M  END
>  <UniqueID>  (22) 
20

>  <SMILES>  (22) 
CCc1cnc2c(c1)=NCc1cc(OC)c(OC3CC[NH+](C)CC3)cc1N=2

>  <Energy>  (22) 
86.50393167106208

>  <Genealogy>  (22) 
CCc1cnc2c(c1)=NCc1cc(OC)c(OC3CC[NH+](C)CC3)cc1N=2 (protonated)
CCc1cnc2c(c1)=NCc1cc(OC)c(OC3CC[NH+](C)CC3)cc1N=2 (3D coordinates assigned)
CCc1cnc2c(c1)=NCc1cc(OC)c(OC3CC[NH+](C)CC3)cc1N=2 (nonaromatic ring conformer: 86.50393167106208 kcal/mol)

>  <smiles>  (22) 
CCc1cnc2c(c1)=NCc1cc(OC)c(OC3CCN(C)CC3)cc1N=2

>  <score_type>  (22) 
oracle

>  <origin>  (22) 
adg

>  <m_score__min__energy>  (22) 
-6.04

>  <m_primary>  (22) 
energy

$$$$
22:0
     RDKit          3D

 31 32  0  0  0  0  0  0  0  0999 V2000
   58.1240   27.0420   43.6270 C   0  0  0  0  0  0  0  0  0  0  0  0
   57.3940   27.4560   44.9020 C   0  0  0  0  0  0  0  0  0  0  0  0
   57.5240   28.9050   45.1210 N   0  0  0  0  0  0  0  0  0  0  0  0
   58.6440   29.3860   45.7390 C   0  0  0  0  0  0  0  0  0  0  0  0
   58.8150   30.7560   45.9430 C   0  0  0  0  0  0  0  0  0  0  0  0
   60.4420   31.3780   46.7380 Br  0  0  0  0  0  0  0  0  0  0  0  0
   57.8110   31.6260   45.4960 C   0  0  0  0  0  0  0  0  0  0  0  0
   57.9070   33.0480   45.6840 N   0  0  0  0  0  0  0  0  0  0  0  0
   58.5290   33.8820   44.6470 C   0  0  0  0  0  0  0  0  0  0  0  0
   59.2850   35.0590   45.2830 C   0  0  0  0  0  0  0  0  0  0  0  0
   59.9730   34.6260   46.5070 N   0  0  0  0  0  0  0  0  0  0  0  0
   59.0360   34.1900   47.5620 C   0  0  0  0  0  0  0  0  0  0  0  0
   57.7100   33.6180   47.0190 C   0  0  0  0  0  0  0  0  0  0  0  0
   56.7240   31.1140   44.8620 N   0  0  0  0  0  0  0  0  0  0  0  0
   56.5720   29.7790   44.6690 C   0  0  0  0  0  0  0  0  0  0  0  0
   55.5450   29.3620   44.0670 O   0  0  0  0  0  0  0  0  0  0  0  0
   59.0529   26.5152   43.8909 H   0  0  0  0  0  0  0  0  0  0  0  0
   57.4795   26.3750   43.0356 H   0  0  0  0  0  0  0  0  0  0  0  0
   58.3657   27.9375   43.0356 H   0  0  0  0  0  0  0  0  0  0  0  0
   56.3288   27.1977   44.8097 H   0  0  0  0  0  0  0  0  0  0  0  0
   57.8395   26.9251   45.7562 H   0  0  0  0  0  0  0  0  0  0  0  0
   59.4201   28.6849   46.0798 H   0  0  0  0  0  0  0  0  0  0  0  0
   59.2348   33.2703   44.0659 H   0  0  0  0  0  0  0  0  0  0  0  0
   57.7408   34.2792   43.9905 H   0  0  0  0  0  0  0  0  0  0  0  0
   60.0267   35.4424   44.5669 H   0  0  0  0  0  0  0  0  0  0  0  0
   58.5636   35.8486   45.5401 H   0  0  0  0  0  0  0  0  0  0  0  0
   60.6060   33.8260   46.2650 H   0  0  0  0  0  0  0  0  0  0  0  0
   59.5287   33.4121   48.1637 H   0  0  0  0  0  0  0  0  0  0  0  0
   58.7820   35.0818   48.1537 H   0  0  0  0  0  0  0  0  0  0  0  0
   57.3492   32.8321   47.6988 H   0  0  0  0  0  0  0  0  0  0  0  0
   56.9715   34.4307   46.9540 H   0  0  0  0  0  0  0  0  0  0  0  0
  1  2  1  0
  2  3  1  0
  3  4  1  0
  4  5  2  0
  5  6  1  0
  5  7  1  0
  7  8  1  0
  8  9  1  0
  9 10  1  0
 10 11  1  0
 11 12  1  0
 12 13  1  0
  7 14  2  0
 14 15  1  0
 15 16  2  0
 15  3  1  0
 13  8  1  0
  1 17  1  0
  1 18  1  0
  1 19  1  0
  2 20  1  0
  2 21  1  0
  4 22  1  0
  9 23  1  0
  9 24  1  0
 10 25  1  0
 10 26  1  0
 11 27  1  0
 12 28  1  0
 12 29  1  0
 13 30  1  0
 13 31  1  0
M  END
>  <UniqueID>  (23) 
21

>  <SMILES>  (23) 
CCn1cc(Br)c(N2CCNCC2)nc1=O

>  <Energy>  (23) 
40.10943565613063

>  <Genealogy>  (23) 
CCn1cc(Br)c(N2CCNCC2)nc1=O (3D coordinates assigned)
CCn1cc(Br)c(N2CCNCC2)nc1=O (nonaromatic ring conformer: 40.10943565613063 kcal/mol)

>  <smiles>  (23) 
CCn1cc(Br)c(N2CCNCC2)nc1=O

>  <score_type>  (23) 
oracle

>  <origin>  (23) 
adg

>  <m_score__min__energy>  (23) 
-6.1699999999999999

>  <m_primary>  (23) 
energy

$$$$
23:0
     RDKit          3D

 55 57  0  0  0  0  0  0  0  0999 V2000
   62.2310   34.5600   49.3790 C   0  0  0  0  0  0  0  0  0  0  0  0
   63.3080   33.5770   49.6190 N   0  0  0  0  0  0  0  0  0  0  0  0
   63.9010   33.0990   48.3490 C   0  0  0  0  0  0  0  0  0  0  0  0
   62.8880   32.3010   47.5150 C   0  0  0  0  0  0  0  0  0  0  0  0
   62.0950   31.4080   48.3700 N   0  0  0  0  0  0  0  0  0  0  0  0
   61.0300   30.6280   47.7920 C   0  0  0  0  0  0  0  0  0  0  0  0
   60.0340   30.0690   48.6100 C   0  0  0  0  0  0  0  0  0  0  0  0
   59.0190   29.2860   48.0540 C   0  0  0  0  0  0  0  0  0  0  0  0
   58.9820   29.0450   46.6700 C   0  0  0  0  0  0  0  0  0  0  0  0
   57.9060   28.1730   46.0700 C   0  0  0  0  0  0  0  0  0  0  0  0
   57.4600   28.6670   44.6870 C   0  0  0  0  0  0  0  0  0  0  0  0
   56.3410   29.6820   44.7320 C   0  0  0  0  0  0  0  0  0  0  0  0
   55.1480   29.3060   44.8810 O   0  0  0  0  0  0  0  0  0  0  0  0
   56.5980   31.0760   44.5110 N   0  0  0  0  0  0  0  0  0  0  0  0
   57.8510   31.6000   43.9740 C   0  0  0  0  0  0  0  0  0  0  0  0
   57.8830   33.1190   44.1260 C   0  0  0  0  0  0  0  0  0  0  0  0
   58.3650   33.5050   45.5000 C   0  0  0  0  0  0  0  0  0  0  0  0
   57.9790   32.7600   46.6300 C   0  0  0  0  0  0  0  0  0  0  0  0
   58.4550   33.1050   47.9000 C   0  0  0  0  0  0  0  0  0  0  0  0
   59.3250   34.1870   48.0490 C   0  0  0  0  0  0  0  0  0  0  0  0
   59.7240   34.9250   46.9280 C   0  0  0  0  0  0  0  0  0  0  0  0
   59.2490   34.5850   45.6580 C   0  0  0  0  0  0  0  0  0  0  0  0
   59.9710   29.6100   45.8500 C   0  0  0  0  0  0  0  0  0  0  0  0
   60.9850   30.3960   46.4060 C   0  0  0  0  0  0  0  0  0  0  0  0
   62.5420   31.1480   49.7430 C   0  0  0  0  0  0  0  0  0  0  0  0
   62.8420   32.4650   50.4930 C   0  0  0  0  0  0  0  0  0  0  0  0
   61.8394   34.9174   50.3428 H   0  0  0  0  0  0  0  0  0  0  0  0
   62.6314   35.4105   48.8078 H   0  0  0  0  0  0  0  0  0  0  0  0
   61.4205   34.0838   48.8078 H   0  0  0  0  0  0  0  0  0  0  0  0
   64.0650   34.0880   50.1340 H   0  0  0  0  0  0  0  0  0  0  0  0
   64.2392   33.9672   47.7643 H   0  0  0  0  0  0  0  0  0  0  0  0
   64.7440   32.4355   48.5921 H   0  0  0  0  0  0  0  0  0  0  0  0
   62.2130   33.0013   47.0012 H   0  0  0  0  0  0  0  0  0  0  0  0
   63.4375   31.6911   46.7829 H   0  0  0  0  0  0  0  0  0  0  0  0
   60.0533   30.2488   49.6950 H   0  0  0  0  0  0  0  0  0  0  0  0
   58.2434   28.8552   48.7043 H   0  0  0  0  0  0  0  0  0  0  0  0
   58.2948   27.1487   45.9714 H   0  0  0  0  0  0  0  0  0  0  0  0
   57.0327   28.2085   46.7379 H   0  0  0  0  0  0  0  0  0  0  0  0
   58.3254   29.1272   44.1877 H   0  0  0  0  0  0  0  0  0  0  0  0
   57.0758   27.7914   44.1432 H   0  0  0  0  0  0  0  0  0  0  0  0
   58.6963   31.1600   44.5235 H   0  0  0  0  0  0  0  0  0  0  0  0
   57.9266   31.3397   42.9079 H   0  0  0  0  0  0  0  0  0  0  0  0
   58.5625   33.5434   43.3722 H   0  0  0  0  0  0  0  0  0  0  0  0
   56.8649   33.5108   43.9846 H   0  0  0  0  0  0  0  0  0  0  0  0
   57.2999   31.9024   46.5144 H   0  0  0  0  0  0  0  0  0  0  0  0
   58.1439   32.5239   48.7807 H   0  0  0  0  0  0  0  0  0  0  0  0
   59.6971   34.4597   49.0476 H   0  0  0  0  0  0  0  0  0  0  0  0
   60.4128   35.7743   47.0470 H   0  0  0  0  0  0  0  0  0  0  0  0
   59.5685   35.1651   44.7797 H   0  0  0  0  0  0  0  0  0  0  0  0
   59.9483   29.4336   44.7645 H   0  0  0  0  0  0  0  0  0  0  0  0
   61.7536   30.8363   45.7538 H   0  0  0  0  0  0  0  0  0  0  0  0
   61.7525   30.6015   50.2797 H   0  0  0  0  0  0  0  0  0  0  0  0
   63.4664   30.5533   49.7011 H   0  0  0  0  0  0  0  0  0  0  0  0
   61.9218   32.7890   51.0012 H   0  0  0  0  0  0  0  0  0  0  0  0
   63.6636   32.2488   51.1917 H   0  0  0  0  0  0  0  0  0  0  0  0
  1  2  1  0
  2  3  1  0
  3  4  1  0
  4  5  1  0
  5  6  1  0
  6  7  2  0
  7  8  1  0
  8  9  2  0
  9 10  1  0
 10 11  1  0
 11 12  1  0
 12 13  2  0
 12 14  1  0
 14 15  1  0
 15 16  1  0
 16 17  1  0
 17 18  2  0
 18 19  1  0
 19 20  2  0
 20 21  1  0
 21 22  2  0
  9 23  1  0
 23 24  2  0
  5 25  1  0
 25 26  1  0
 26  2  1  0
 24  6  1  0
 22 17  1  0
  1 27  1  0
  1 28  1  0
  1 29  1  0
  2 30  1  0
  3 31  1  0
  3 32  1  0
  4 33  1  0
  4 34  1  0
  7 35  1  0
  8 36  1  0
 10 37  1  0
 10 38  1  0
 11 39  1  0
 11 40  1  0
 15 41  1  0
 15 42  1  0
 16 43  1  0
 16 44  1  0
 18 45  1  0
 19 46  1  0
 20 47  1  0
 21 48  1  0
 22 49  1  0
 23 50  1  0
 24 51  1  0
 25 52  1  0
 25 53  1  0
 26 54  1  0
 26 55  1  0
M  CHG  2   2   1  14  -1
M  END
>  <UniqueID>  (24) 
22

>  <SMILES>  (24) 
C[NH+]1CCN(c2ccc(CCC(=O)[N-]CCc3ccccc3)cc2)CC1

>  <Energy>  (24) 
61.05876382736026

>  <Genealogy>  (24) 
C[NH+]1CCN(c2ccc(CCC(=O)[N-]CCc3ccccc3)cc2)CC1 (protonated)
C[NH+]1CCN(c2ccc(CCC(=O)[N-]CCc3ccccc3)cc2)CC1 (3D coordinates assigned)
C[NH+]1CCN(c2ccc(CCC(=O)[N-]CCc3ccccc3)cc2)CC1 (nonaromatic ring conformer: 61.05876382736026 kcal/mol)

>  <smiles>  (24) 
CN1CCN(c2ccc(CCC(=O)NCCc3ccccc3)cc2)CC1

>  <score_type>  (24) 
oracle

>  <origin>  (24) 
adg

>  <m_score__min__energy>  (24) 
-8.8100000000000005

>  <m_primary>  (24) 
energy

$$$$
24:0
     RDKit          3D

 55 57  0  0  0  0  0  0  0  0999 V2000
   56.3110   25.6440   46.2260 C   0  0  0  0  0  0  0  0  0  0  0  0
   57.2750   26.6790   45.8270 N   0  0  0  0  0  0  0  0  0  0  0  0
   58.1460   27.0570   46.9510 C   0  0  0  0  0  0  0  0  0  0  0  0
   58.0240   26.3450   44.5920 C   0  0  0  0  0  0  0  0  0  0  0  0
   57.7860   27.3040   43.4030 C   0  0  0  0  0  0  0  0  0  0  0  0
   58.0920   28.6920   43.7480 N   0  0  0  0  0  0  0  0  0  0  0  0
   57.1960   29.4760   44.5500 C   0  0  0  0  0  0  0  0  0  0  0  0
   56.0350   29.0420   44.7890 O   0  0  0  0  0  0  0  0  0  0  0  0
   57.6070   30.7930   45.0940 C   0  0  0  0  0  0  0  0  0  0  0  0
   58.1470   30.8830   46.3890 C   0  0  0  0  0  0  0  0  0  0  0  0
   58.5480   32.1170   46.9070 C   0  0  0  0  0  0  0  0  0  0  0  0
   58.4310   33.2830   46.1350 C   0  0  0  0  0  0  0  0  0  0  0  0
   58.8680   34.6100   46.6990 C   0  0  0  0  0  0  0  0  0  0  0  0
   60.3000   34.8200   46.4770 N   0  0  0  0  0  0  0  0  0  0  0  0
   61.3430   34.2190   47.2690 C   0  0  0  0  0  0  0  0  0  0  0  0
   62.5140   33.7000   46.6860 C   0  0  0  0  0  0  0  0  0  0  0  0
   63.5030   33.1160   47.4820 C   0  0  0  0  0  0  0  0  0  0  0  0
   63.3490   33.0430   48.8770 C   0  0  0  0  0  0  0  0  0  0  0  0
   64.4000   32.4200   49.7220 C   0  0  0  0  0  0  0  0  0  0  0  0
   64.1110   31.2810   50.4990 C   0  0  0  0  0  0  0  0  0  0  0  0
   65.1020   30.6960   51.2930 C   0  0  0  0  0  0  0  0  0  0  0  0
   66.3880   31.2400   51.3240 C   0  0  0  0  0  0  0  0  0  0  0  0
   66.6860   32.3690   50.5580 C   0  0  0  0  0  0  0  0  0  0  0  0
   65.7000   32.9590   49.7610 C   0  0  0  0  0  0  0  0  0  0  0  0
   62.1830   33.5710   49.4590 C   0  0  0  0  0  0  0  0  0  0  0  0
   61.1940   34.1530   48.6610 C   0  0  0  0  0  0  0  0  0  0  0  0
   57.8920   33.1990   44.8420 C   0  0  0  0  0  0  0  0  0  0  0  0
   57.4910   31.9640   44.3230 C   0  0  0  0  0  0  0  0  0  0  0  0
   56.2624   25.5918   47.3237 H   0  0  0  0  0  0  0  0  0  0  0  0
   55.3173   25.8949   45.8265 H   0  0  0  0  0  0  0  0  0  0  0  0
   56.6318   24.6706   45.8265 H   0  0  0  0  0  0  0  0  0  0  0  0
   57.6363   26.8358   47.9003 H   0  0  0  0  0  0  0  0  0  0  0  0
   59.0840   26.4850   46.8965 H   0  0  0  0  0  0  0  0  0  0  0  0
   58.3689   28.1328   46.8965 H   0  0  0  0  0  0  0  0  0  0  0  0
   59.0978   26.3573   44.8305 H   0  0  0  0  0  0  0  0  0  0  0  0
   57.6592   25.3589   44.2689 H   0  0  0  0  0  0  0  0  0  0  0  0
   58.4286   26.9966   42.5648 H   0  0  0  0  0  0  0  0  0  0  0  0
   56.7218   27.2487   43.1300 H   0  0  0  0  0  0  0  0  0  0  0  0
   58.9470   29.1450   43.3550 H   0  0  0  0  0  0  0  0  0  0  0  0
   58.2547   29.9743   46.9994 H   0  0  0  0  0  0  0  0  0  0  0  0
   58.9579   32.1749   47.9261 H   0  0  0  0  0  0  0  0  0  0  0  0
   58.3041   35.4154   46.2057 H   0  0  0  0  0  0  0  0  0  0  0  0
   58.6732   34.6157   47.7816 H   0  0  0  0  0  0  0  0  0  0  0  0
   60.5710   35.4940   45.7250 H   0  0  0  0  0  0  0  0  0  0  0  0
   62.6518   33.7544   45.5960 H   0  0  0  0  0  0  0  0  0  0  0  0
   64.4108   32.7095   47.0122 H   0  0  0  0  0  0  0  0  0  0  0  0
   63.0994   30.8492   50.4809 H   0  0  0  0  0  0  0  0  0  0  0  0
   64.8683   29.8053   51.8946 H   0  0  0  0  0  0  0  0  0  0  0  0
   67.1655   30.7795   51.9513 H   0  0  0  0  0  0  0  0  0  0  0  0
   67.6996   32.7956   50.5816 H   0  0  0  0  0  0  0  0  0  0  0  0
   65.9414   33.8490   49.1613 H   0  0  0  0  0  0  0  0  0  0  0  0
   62.0482   33.5257   50.5498 H   0  0  0  0  0  0  0  0  0  0  0  0
   60.2883   34.5640   49.1309 H   0  0  0  0  0  0  0  0  0  0  0  0
   57.7844   34.1092   44.2337 H   0  0  0  0  0  0  0  0  0  0  0  0
   57.0815   31.9077   43.3036 H   0  0  0  0  0  0  0  0  0  0  0  0
  1  2  1  0
  2  3  1  0
  2  4  1  0
  4  5  1  0
  5  6  1  0
  6  7  1  0
  7  8  2  0
  7  9  1  0
  9 10  2  0
 10 11  1  0
 11 12  2  0
 12 13  1  0
 13 14  1  0
 14 15  1  0
 15 16  2  0
 16 17  1  0
 17 18  2  0
 18 19  1  0
 19 20  2  0
 20 21  1  0
 21 22  2  0
 22 23  1  0
 23 24  2  0
 18 25  1  0
 25 26  2  0
 12 27  1  0
 27 28  2  0
 28  9  1  0
 26 15  1  0
 24 19  1  0
  1 29  1  0
  1 30  1  0
  1 31  1  0
  3 32  1  0
  3 33  1  0
  3 34  1  0
  4 35  1  0
  4 36  1  0
  5 37  1  0
  5 38  1  0
  6 39  1  0
 10 40  1  0
 11 41  1  0
 13 42  1  0
 13 43  1  0
 14 44  1  0
 16 45  1  0
 17 46  1  0
 20 47  1  0
 21 48  1  0
 22 49  1  0
 23 50  1  0
 24 51  1  0
 25 52  1  0
 26 53  1  0
 27 54  1  0
 28 55  1  0
M  END
>  <UniqueID>  (25) 
23

>  <SMILES>  (25) 
CN(C)CCNC(=O)c1ccc(CNc2ccc(-c3ccccc3)cc2)cc1

>  <Energy>  (25) 
64.73260900431424

>  <Genealogy>  (25) 
CN(C)CCNC(=O)c1ccc(CNc2ccc(-c3ccccc3)cc2)cc1 (3D coordinates assigned)
CN(C)CCNC(=O)c1ccc(CNc2ccc(-c3ccccc3)cc2)cc1 (optimized conformer: 64.73260900431424 kcal/mol)

>  <smiles>  (25) 
CN(C)CCNC(=O)c1ccc(CNc2ccc(-c3ccccc3)cc2)cc1

>  <score_type>  (25) 
oracle

>  <origin>  (25) 
adg

>  <m_score__min__energy>  (25) 
-8.6099999999999994

>  <m_primary>  (25) 
energy

$$$$
25:0
     RDKit          3D

 66 69  0  0  0  0  0  0  0  0999 V2000
   55.8830   30.1170   43.6080 C   0  0  0  0  0  0  0  0  0  0  0  0
   57.0320   29.6180   44.4320 C   0  0  0  0  0  0  0  0  0  0  0  0
   56.8870   28.4640   45.2180 C   0  0  0  0  0  0  0  0  0  0  0  0
   57.9500   28.0100   46.0040 C   0  0  0  0  0  0  0  0  0  0  0  0
   59.1650   28.7100   46.0290 C   0  0  0  0  0  0  0  0  0  0  0  0
   60.3300   28.1780   46.8190 C   0  0  0  0  0  0  0  0  0  0  0  0
   59.8120   27.6780   48.5010 S   0  0  0  0  0  0  0  0  0  0  0  0
   59.9800   29.3180   49.2150 C   0  0  0  0  0  0  0  0  0  0  0  0
   58.9290   29.8870   49.9200 C   0  0  0  0  0  0  0  0  0  0  0  0
   59.0580   31.1750   50.4400 C   0  0  0  0  0  0  0  0  0  0  0  0
   57.9950   31.7460   51.1550 C   0  0  0  0  0  0  0  0  0  0  0  0
   58.1120   33.0290   51.6850 C   0  0  0  0  0  0  0  0  0  0  0  0
   59.2880   33.7520   51.5040 C   0  0  0  0  0  0  0  0  0  0  0  0
   60.3540   33.2010   50.7900 C   0  0  0  0  0  0  0  0  0  0  0  0
   60.2680   31.8980   50.2400 C   0  0  0  0  0  0  0  0  0  0  0  0
   61.3050   31.3090   49.5320 N   0  0  0  0  0  0  0  0  0  0  0  0
   62.5950   31.9750   49.2470 C   0  0  0  0  0  0  0  0  0  0  0  0
   63.0260   31.7800   47.7800 C   0  0  0  0  0  0  0  0  0  0  0  0
   63.5510   33.0580   47.1090 C   0  0  0  0  0  0  0  0  0  0  0  0
   62.4350   33.8500   46.4100 C   0  0  0  0  0  0  0  0  0  0  0  0
   61.2050   33.9890   47.3220 C   0  0  0  0  0  0  0  0  0  0  0  0
   59.9000   33.5630   46.6150 C   0  0  0  0  0  0  0  0  0  0  0  0
   58.7090   33.6510   47.5880 C   0  0  0  0  0  0  0  0  0  0  0  0
   57.4130   33.1010   46.9570 C   0  0  0  0  0  0  0  0  0  0  0  0
   57.3540   33.2730   45.4260 C   0  0  0  0  0  0  0  0  0  0  0  0
   58.1360   34.5070   44.9680 C   0  0  0  0  0  0  0  0  0  0  0  0
   59.6300   34.4070   45.3390 C   0  0  0  0  0  0  0  0  0  0  0  0
   61.1640   30.0340   49.0500 C   0  0  0  0  0  0  0  0  0  0  0  0
   59.3000   29.8790   45.2620 C   0  0  0  0  0  0  0  0  0  0  0  0
   58.2380   30.3320   44.4720 C   0  0  0  0  0  0  0  0  0  0  0  0
   55.0793   30.4661   44.2729 H   0  0  0  0  0  0  0  0  0  0  0  0
   56.2212   30.9493   42.9733 H   0  0  0  0  0  0  0  0  0  0  0  0
   55.5056   29.3017   42.9733 H   0  0  0  0  0  0  0  0  0  0  0  0
   55.9337   27.9152   45.2154 H   0  0  0  0  0  0  0  0  0  0  0  0
   57.8327   27.0975   46.6070 H   0  0  0  0  0  0  0  0  0  0  0  0
   60.7488   27.3046   46.2976 H   0  0  0  0  0  0  0  0  0  0  0  0
   61.0843   28.9737   46.9078 H   0  0  0  0  0  0  0  0  0  0  0  0
   57.9960   29.3236   50.0685 H   0  0  0  0  0  0  0  0  0  0  0  0
   57.0641   31.1778   51.2980 H   0  0  0  0  0  0  0  0  0  0  0  0
   57.2755   33.4707   52.2464 H   0  0  0  0  0  0  0  0  0  0  0  0
   59.3779   34.7638   51.9262 H   0  0  0  0  0  0  0  0  0  0  0  0
   61.2745   33.7874   50.6524 H   0  0  0  0  0  0  0  0  0  0  0  0
   62.4924   33.0516   49.4482 H   0  0  0  0  0  0  0  0  0  0  0  0
   63.3632   31.5245   49.8926 H   0  0  0  0  0  0  0  0  0  0  0  0
   63.8224   31.0218   47.7511 H   0  0  0  0  0  0  0  0  0  0  0  0
   62.1289   31.4728   47.2224 H   0  0  0  0  0  0  0  0  0  0  0  0
   64.0110   33.6974   47.8769 H   0  0  0  0  0  0  0  0  0  0  0  0
   64.2826   32.7601   46.3435 H   0  0  0  0  0  0  0  0  0  0  0  0
   62.8099   34.8525   46.1561 H   0  0  0  0  0  0  0  0  0  0  0  0
   62.1376   33.3084   45.4999 H   0  0  0  0  0  0  0  0  0  0  0  0
   61.3494   33.3556   48.2096 H   0  0  0  0  0  0  0  0  0  0  0  0
   61.1080   35.0497   47.5968 H   0  0  0  0  0  0  0  0  0  0  0  0
   60.0215   32.5176   46.2951 H   0  0  0  0  0  0  0  0  0  0  0  0
   58.9420   33.0662   48.4901 H   0  0  0  0  0  0  0  0  0  0  0  0
   58.5465   34.7105   47.8352 H   0  0  0  0  0  0  0  0  0  0  0  0
   57.3401   32.0284   47.1900 H   0  0  0  0  0  0  0  0  0  0  0  0
   56.5770   33.6773   47.3800 H   0  0  0  0  0  0  0  0  0  0  0  0
   57.7847   32.3800   44.9494 H   0  0  0  0  0  0  0  0  0  0  0  0
   56.3015   33.4043   45.1344 H   0  0  0  0  0  0  0  0  0  0  0  0
   58.0456   34.6010   43.8758 H   0  0  0  0  0  0  0  0  0  0  0  0
   57.7151   35.3872   45.4760 H   0  0  0  0  0  0  0  0  0  0  0  0
   60.1670   33.9457   44.4971 H   0  0  0  0  0  0  0  0  0  0  0  0
   59.9788   35.4289   45.5490 H   0  0  0  0  0  0  0  0  0  0  0  0
   62.0058   29.5644   48.5200 H   0  0  0  0  0  0  0  0  0  0  0  0
   60.2454   30.4410   45.2826 H   0  0  0  0  0  0  0  0  0  0  0  0
   58.3496   31.2522   43.8797 H   0  0  0  0  0  0  0  0  0  0  0  0
  1  2  1  0
  2  3  2  0
  3  4  1  0
  4  5  2  0
  5  6  1  0
  6  7  1  0
  7  8  1  0
  8  9  2  0
  9 10  1  0
 10 11  2  0
 11 12  1  0
 12 13  2  0
 13 14  1  0
 14 15  2  0
 15 16  1  0
 16 17  1  0
 17 18  1  0
 18 19  1  0
 19 20  1  0
 20 21  1  0
 21 22  1  0
 22 23  1  0
 23 24  1  0
 24 25  1  0
 25 26  1  0
 26 27  1  0
 16 28  2  0
  5 29  1  0
 29 30  2  0
 30  2  1  0
 28  8  1  0
 15 10  1  0
 27 22  1  0
  1 31  1  0
  1 32  1  0
  1 33  1  0
  3 34  1  0
  4 35  1  0
  6 36  1  0
  6 37  1  0
  9 38  1  0
 11 39  1  0
 12 40  1  0
 13 41  1  0
 14 42  1  0
 17 43  1  0
 17 44  1  0
 18 45  1  0
 18 46  1  0
 19 47  1  0
 19 48  1  0
 20 49  1  0
 20 50  1  0
 21 51  1  0
 21 52  1  0
 22 53  1  0
 23 54  1  0
 23 55  1  0
 24 56  1  0
 24 57  1  0
 25 58  1  0
 25 59  1  0
 26 60  1  0
 26 61  1  0
 27 62  1  0
 27 63  1  0
 28 64  1  0
 29 65  1  0
 30 66  1  0
M  CHG  1  16   1
M  END
>  <UniqueID>  (26) 
24

>  <SMILES>  (26) 
Cc1ccc(CSc2cc3ccccc3[n+](CCCCCC3CCCCC3)c2)cc1

>  <Energy>  (26) 
63.88541688641071

>  <Genealogy>  (26) 
Cc1ccc(CSc2cc3ccccc3[n+](CCCCCC3CCCCC3)c2)cc1 (3D coordinates assigned)
Cc1ccc(CSc2cc3ccccc3[n+](CCCCCC3CCCCC3)c2)cc1 (nonaromatic ring conformer: 63.88541688641071 kcal/mol)

>  <smiles>  (26) 
Cc1ccc(CSc2cc3ccccc3[n+](CCCCCC3CCCCC3)c2)cc1

>  <score_type>  (26) 
oracle

>  <origin>  (26) 
adg

>  <m_score__min__energy>  (26) 
-8.0399999999999991

>  <m_primary>  (26) 
energy

$$$$
26:0
     RDKit          3D

 56 57  0  0  0  0  0  0  0  0999 V2000
   63.4040   33.5180   46.7190 C   0  0  0  0  0  0  0  0  0  0  0  0
   61.9040   33.7770   46.5280 C   0  0  0  0  0  0  0  0  0  0  0  0
   61.0250   32.9540   47.3990 N   0  0  0  0  0  0  0  0  0  0  0  0
   61.4910   32.8440   48.8030 C   0  0  0  0  0  0  0  0  0  0  0  0
   60.5310   33.5170   49.7840 C   0  0  0  0  0  0  0  0  0  0  0  0
   59.6150   33.3940   47.3270 C   0  0  0  0  0  0  0  0  0  0  0  0
   58.9270   32.7860   46.1370 C   0  0  0  0  0  0  0  0  0  0  0  0
   58.3390   33.4500   45.0690 C   0  0  0  0  0  0  0  0  0  0  0  0
   58.2500   34.9300   44.8700 C   0  0  0  0  0  0  0  0  0  0  0  0
   57.8490   32.5420   44.2050 N   0  0  0  0  0  0  0  0  0  0  0  0
   58.1160   31.3270   44.6620 N   0  0  0  0  0  0  0  0  0  0  0  0
   57.6620   30.1050   43.9930 C   0  0  0  0  0  0  0  0  0  0  0  0
   56.1760   29.8450   44.2640 C   0  0  0  0  0  0  0  0  0  0  0  0
   56.0180   28.7070   45.1770 N   0  0  0  0  0  0  0  0  0  0  0  0
   57.1600   27.7890   45.0860 C   0  0  0  0  0  0  0  0  0  0  0  0
   57.3730   27.0810   46.4280 C   0  0  0  0  0  0  0  0  0  0  0  0
   56.2880   26.0280   46.6850 C   0  0  0  0  0  0  0  0  0  0  0  0
   55.0530   26.3950   46.0000 N   0  0  0  0  0  0  0  0  0  0  0  0
   58.7690   31.4360   45.8440 C   0  0  0  0  0  0  0  0  0  0  0  0
   59.2400   30.3100   46.6690 C   0  0  0  0  0  0  0  0  0  0  0  0
   58.9210   30.0860   48.0020 C   0  0  0  0  0  0  0  0  0  0  0  0
   59.5200   28.9350   48.5270 C   0  0  0  0  0  0  0  0  0  0  0  0
   60.3140   28.2560   47.6150 C   0  0  0  0  0  0  0  0  0  0  0  0
   60.2670   29.0840   46.1520 S   0  0  0  0  0  0  0  0  0  0  0  0
   63.6353   33.4781   47.7937 H   0  0  0  0  0  0  0  0  0  0  0  0
   63.6733   32.5601   46.2501 H   0  0  0  0  0  0  0  0  0  0  0  0
   63.9789   34.3302   46.2501 H   0  0  0  0  0  0  0  0  0  0  0  0
   61.7074   34.8375   46.7440 H   0  0  0  0  0  0  0  0  0  0  0  0
   61.6665   33.5006   45.4901 H   0  0  0  0  0  0  0  0  0  0  0  0
   61.5769   31.7792   49.0654 H   0  0  0  0  0  0  0  0  0  0  0  0
   62.4627   33.3541   48.8774 H   0  0  0  0  0  0  0  0  0  0  0  0
   60.8457   33.2964   50.8147 H   0  0  0  0  0  0  0  0  0  0  0  0
   60.5438   34.6049   49.6216 H   0  0  0  0  0  0  0  0  0  0  0  0
   59.5127   33.1340   49.6216 H   0  0  0  0  0  0  0  0  0  0  0  0
   59.0927   33.0827   48.2437 H   0  0  0  0  0  0  0  0  0  0  0  0
   59.5918   34.4892   47.2266 H   0  0  0  0  0  0  0  0  0  0  0  0
   58.2199   35.4305   45.8491 H   0  0  0  0  0  0  0  0  0  0  0  0
   59.1289   35.2778   44.3073 H   0  0  0  0  0  0  0  0  0  0  0  0
   57.3358   35.1700   44.3073 H   0  0  0  0  0  0  0  0  0  0  0  0
   57.3380   32.7460   43.3170 H   0  0  0  0  0  0  0  0  0  0  0  0
   57.8160   30.2108   42.9090 H   0  0  0  0  0  0  0  0  0  0  0  0
   58.2417   29.2566   44.3857 H   0  0  0  0  0  0  0  0  0  0  0  0
   55.7277   30.7406   44.7189 H   0  0  0  0  0  0  0  0  0  0  0  0
   55.6731   29.6144   43.3132 H   0  0  0  0  0  0  0  0  0  0  0  0
   55.1650   28.1740   44.8820 H   0  0  0  0  0  0  0  0  0  0  0  0
   56.9629   27.0389   44.3059 H   0  0  0  0  0  0  0  0  0  0  0  0
   58.0642   28.3622   44.8332 H   0  0  0  0  0  0  0  0  0  0  0  0
   58.3559   26.5872   46.4198 H   0  0  0  0  0  0  0  0  0  0  0  0
   57.3204   27.8339   47.2282 H   0  0  0  0  0  0  0  0  0  0  0  0
   56.6336   25.0525   46.3121 H   0  0  0  0  0  0  0  0  0  0  0  0
   56.0939   25.9711   47.7662 H   0  0  0  0  0  0  0  0  0  0  0  0
   55.2600   26.5020   44.9790 H   0  0  0  0  0  0  0  0  0  0  0  0
   54.7790   27.3450   46.3450 H   0  0  0  0  0  0  0  0  0  0  0  0
   58.2637   30.7467   48.5864 H   0  0  0  0  0  0  0  0  0  0  0  0
   59.3747   28.6007   49.5648 H   0  0  0  0  0  0  0  0  0  0  0  0
   60.8783   27.3331   47.8145 H   0  0  0  0  0  0  0  0  0  0  0  0
  1  2  1  0
  2  3  1  0
  3  4  1  0
  4  5  1  0
  3  6  1  0
  6  7  1  0
  7  8  1  0
  8  9  1  0
  8 10  2  0
 10 11  1  0
 11 12  1  0
 12 13  1  0
 13 14  1  0
 14 15  1  0
 15 16  1  0
 16 17  1  0
 17 18  1  0
 11 19  1  0
 19 20  1  0
 20 21  2  0
 21 22  1  0
 22 23  2  0
 23 24  1  0
 19  7  2  0
 24 20  1  0
  1 25  1  0
  1 26  1  0
  1 27  1  0
  2 28  1  0
  2 29  1  0
  4 30  1  0
  4 31  1  0
  5 32  1  0
  5 33  1  0
  5 34  1  0
  6 35  1  0
  6 36  1  0
  9 37  1  0
  9 38  1  0
  9 39  1  0
 10 40  1  0
 12 41  1  0
 12 42  1  0
 13 43  1  0
 13 44  1  0
 14 45  1  0
 15 46  1  0
 15 47  1  0
 16 48  1  0
 16 49  1  0
 17 50  1  0
 17 51  1  0
 18 52  1  0
 18 53  1  0
 21 54  1  0
 22 55  1  0
 23 56  1  0
M  CHG  1  10   1
M  END
>  <UniqueID>  (27) 
25

>  <SMILES>  (27) 
CCN(CC)Cc1c(C)[nH+]n(CCNCCCN)c1-c1cccs1

>  <Energy>  (27) 
103.96194562963588

>  <Genealogy>  (27) 
CCN(CC)Cc1c(C)[nH+]n(CCNCCCN)c1-c1cccs1 (protonated)
CCN(CC)Cc1c(C)[nH+]n(CCNCCCN)c1-c1cccs1 (3D coordinates assigned)
CCN(CC)Cc1c(C)[nH+]n(CCNCCCN)c1-c1cccs1 (optimized conformer: 103.96194562963588 kcal/mol)

>  <smiles>  (27) 
CCN(CC)Cc1c(C)nn(CCNCCCN)c1-c1cccs1

>  <score_type>  (27) 
oracle

>  <origin>  (27) 
adg

>  <m_score__min__energy>  (27) 
-6.7300000000000004

>  <m_primary>  (27) 
energy

$$$$
27:0
     RDKit          3D

 34 35  0  0  0  0  0  0  0  0999 V2000
   58.1600   27.8340   43.8040 C   0  0  0  0  0  0  0  0  0  0  0  0
   57.5950   28.5060   44.9230 O   0  0  0  0  0  0  0  0  0  0  0  0
   56.7660   29.6250   44.7920 C   0  0  0  0  0  0  0  0  0  0  0  0
   55.5140   29.4970   44.8820 O   0  0  0  0  0  0  0  0  0  0  0  0
   57.3600   30.9590   44.5490 C   0  0  0  0  0  0  0  0  0  0  0  0
   57.5760   31.4240   43.2430 C   0  0  0  0  0  0  0  0  0  0  0  0
   58.1430   32.6780   43.0340 C   0  0  0  0  0  0  0  0  0  0  0  0
   58.4900   33.4670   44.1300 C   0  0  0  0  0  0  0  0  0  0  0  0
   58.2770   33.0190   45.4030 N   0  0  0  0  0  0  0  0  0  0  0  0
   58.6900   33.8440   46.5480 C   0  0  0  0  0  0  0  0  0  0  0  0
   59.9610   34.6420   46.2270 C   0  0  0  0  0  0  0  0  0  0  0  0
   61.1400   34.1500   47.0260 C   0  0  0  0  0  0  0  0  0  0  0  0
   62.3470   33.8260   46.3840 C   0  0  0  0  0  0  0  0  0  0  0  0
   63.4550   33.4190   47.1320 C   0  0  0  0  0  0  0  0  0  0  0  0
   63.3680   33.3360   48.5260 C   0  0  0  0  0  0  0  0  0  0  0  0
   64.7620   32.8290   49.4630 Cl  0  0  0  0  0  0  0  0  0  0  0  0
   62.1720   33.6640   49.1720 C   0  0  0  0  0  0  0  0  0  0  0  0
   61.0620   34.0750   48.4260 C   0  0  0  0  0  0  0  0  0  0  0  0
   57.7250   31.7870   45.6250 C   0  0  0  0  0  0  0  0  0  0  0  0
   58.8307   27.0362   44.1557 H   0  0  0  0  0  0  0  0  0  0  0  0
   57.3557   27.3950   43.1954 H   0  0  0  0  0  0  0  0  0  0  0  0
   58.7306   28.5510   43.1954 H   0  0  0  0  0  0  0  0  0  0  0  0
   57.2970   30.7970   42.3833 H   0  0  0  0  0  0  0  0  0  0  0  0
   58.3161   33.0440   42.0112 H   0  0  0  0  0  0  0  0  0  0  0  0
   58.9389   34.4582   43.9684 H   0  0  0  0  0  0  0  0  0  0  0  0
   57.8794   34.5449   46.7962 H   0  0  0  0  0  0  0  0  0  0  0  0
   58.9016   33.1790   47.3983 H   0  0  0  0  0  0  0  0  0  0  0  0
   60.1871   34.5378   45.1555 H   0  0  0  0  0  0  0  0  0  0  0  0
   59.7822   35.6951   46.4895 H   0  0  0  0  0  0  0  0  0  0  0  0
   62.4201   33.8930   45.2885 H   0  0  0  0  0  0  0  0  0  0  0  0
   64.3968   33.1636   46.6242 H   0  0  0  0  0  0  0  0  0  0  0  0
   62.1038   33.5988   50.2679 H   0  0  0  0  0  0  0  0  0  0  0  0
   60.1252   34.3402   48.9379 H   0  0  0  0  0  0  0  0  0  0  0  0
   57.5650   31.4405   46.6567 H   0  0  0  0  0  0  0  0  0  0  0  0
  1  2  1  0
  2  3  1  0
  3  4  2  0
  3  5  1  0
  5  6  2  0
  6  7  1  0
  7  8  2  0
  8  9  1  0
  9 10  1  0
 10 11  1  0
 11 12  1  0
 12 13  2  0
 13 14  1  0
 14 15  2  0
 15 16  1  0
 15 17  1  0
 17 18  2  0
  9 19  2  0
 19  5  1  0
 18 12  1  0
  1 20  1  0
  1 21  1  0
  1 22  1  0
  6 23  1  0
  7 24  1  0
  8 25  1  0
 10 26  1  0
 10 27  1  0
 11 28  1  0
 11 29  1  0
 13 30  1  0
 14 31  1  0
 17 32  1  0
 18 33  1  0
 19 34  1  0
M  CHG  1   9   1
M  END
>  <UniqueID>  (28) 
26

>  <SMILES>  (28) 
COC(=O)c1ccc[n+](CCc2ccc(Cl)cc2)c1

>  <Energy>  (28) 
29.17794540843035

>  <Genealogy>  (28) 
COC(=O)c1ccc[n+](CCc2ccc(Cl)cc2)c1 (3D coordinates assigned)
COC(=O)c1ccc[n+](CCc2ccc(Cl)cc2)c1 (optimized conformer: 29.17794540843035 kcal/mol)

>  <smiles>  (28) 
COC(=O)c1ccc[n+](CCc2ccc(Cl)cc2)c1

>  <score_type>  (28) 
oracle

>  <origin>  (28) 
adg

>  <m_score__min__energy>  (28) 
-5.5899999999999999

>  <m_primary>  (28) 
energy

$$$$
28:0
     RDKit          3D

 44 47  0  0  0  0  0  0  0  0999 V2000
   63.2880   34.2070   46.5450 C   0  0  0  0  0  0  0  0  0  0  0  0
   61.8770   34.3020   46.7050 O   0  0  0  0  0  0  0  0  0  0  0  0
   60.9930   33.2120   46.6420 C   0  0  0  0  0  0  0  0  0  0  0  0
   61.4360   31.8840   46.7470 C   0  0  0  0  0  0  0  0  0  0  0  0
   60.5240   30.8230   46.6740 C   0  0  0  0  0  0  0  0  0  0  0  0
   59.1550   31.0740   46.4250 C   0  0  0  0  0  0  0  0  0  0  0  0
   58.7000   32.4150   46.4060 C   0  0  0  0  0  0  0  0  0  0  0  0
   57.3350   32.6990   46.3490 O   0  0  0  0  0  0  0  0  0  0  0  0
   59.6270   33.4690   46.4900 C   0  0  0  0  0  0  0  0  0  0  0  0
   59.1870   34.7880   46.4310 O   0  0  0  0  0  0  0  0  0  0  0  0
   58.2430   29.8940   46.2450 C   0  0  0  0  0  0  0  0  0  0  0  0
   57.0800   29.9620   45.4590 C   0  0  0  0  0  0  0  0  0  0  0  0
   56.2820   28.8360   45.2540 C   0  0  0  0  0  0  0  0  0  0  0  0
   55.1220   28.9870   44.5030 O   0  0  0  0  0  0  0  0  0  0  0  0
   56.6690   27.5820   45.7790 C   0  0  0  0  0  0  0  0  0  0  0  0
   55.9080   26.4080   45.6180 O   0  0  0  0  0  0  0  0  0  0  0  0
   56.3270   25.2110   44.9730 C   0  0  0  0  0  0  0  0  0  0  0  0
   57.8850   27.4860   46.4860 C   0  0  0  0  0  0  0  0  0  0  0  0
   58.6450   28.6410   46.7580 C   0  0  0  0  0  0  0  0  0  0  0  0
   59.9290   28.5800   47.5780 C   0  0  2  0  0  0  0  0  0  0  0  0
   61.0100   29.4030   46.8640 C   0  0  0  0  0  0  0  0  0  0  0  0
   60.4490   27.2120   47.8550 N   0  0  0  0  0  0  0  0  0  0  0  0
   60.3160   26.8450   49.2750 C   0  0  0  0  0  0  0  0  0  0  0  0
   59.9270   26.1620   46.9600 C   0  0  0  0  0  0  0  0  0  0  0  0
   58.3980   26.1470   46.9340 C   0  0  0  0  0  0  0  0  0  0  0  0
   63.7678   34.1747   47.5343 H   0  0  0  0  0  0  0  0  0  0  0  0
   63.5330   33.2903   45.9885 H   0  0  0  0  0  0  0  0  0  0  0  0
   63.6537   35.0826   45.9885 H   0  0  0  0  0  0  0  0  0  0  0  0
   62.5068   31.6750   46.8876 H   0  0  0  0  0  0  0  0  0  0  0  0
   56.9730   33.6450   46.3970 H   0  0  0  0  0  0  0  0  0  0  0  0
   56.7941   30.9188   44.9977 H   0  0  0  0  0  0  0  0  0  0  0  0
   56.5903   24.4588   45.7312 H   0  0  0  0  0  0  0  0  0  0  0  0
   55.5096   24.8277   44.3446 H   0  0  0  0  0  0  0  0  0  0  0  0
   57.2050   25.4211   44.3446 H   0  0  0  0  0  0  0  0  0  0  0  0
   59.6738   28.9934   48.5649 H   0  0  0  0  0  0  0  0  0  0  0  0
   61.9271   29.4081   47.4714 H   0  0  0  0  0  0  0  0  0  0  0  0
   61.2213   28.9547   45.8819 H   0  0  0  0  0  0  0  0  0  0  0  0
   60.6236   27.6938   49.9034 H   0  0  0  0  0  0  0  0  0  0  0  0
   59.2681   26.5896   49.4911 H   0  0  0  0  0  0  0  0  0  0  0  0
   60.9569   25.9775   49.4911 H   0  0  0  0  0  0  0  0  0  0  0  0
   60.2987   26.3454   45.9411 H   0  0  0  0  0  0  0  0  0  0  0  0
   60.2723   25.1881   47.3373 H   0  0  0  0  0  0  0  0  0  0  0  0
   58.0520   25.3708   46.2356 H   0  0  0  0  0  0  0  0  0  0  0  0
   58.0190   25.9315   47.9439 H   0  0  0  0  0  0  0  0  0  0  0  0
  1  2  1  0
  2  3  1  0
  3  4  2  0
  4  5  1  0
  5  6  2  0
  6  7  1  0
  7  8  1  0
  7  9  2  0
  9 10  1  0
  6 11  1  0
 11 12  2  0
 12 13  1  0
 13 14  1  0
 13 15  2  0
 15 16  1  0
 16 17  1  0
 15 18  1  0
 18 19  2  0
 19 20  1  0
 20 21  1  0
 20 22  1  0
 22 23  1  0
 22 24  1  0
 24 25  1  0
  9  3  1  0
 19 11  1  0
 21  5  1  0
 25 18  1  0
  1 26  1  0
  1 27  1  0
  1 28  1  0
  4 29  1  0
  8 30  1  0
 12 31  1  0
 17 32  1  0
 17 33  1  0
 17 34  1  0
 20 35  1  1
 21 36  1  0
 21 37  1  0
 23 38  1  0
 23 39  1  0
 23 40  1  0
 24 41  1  0
 24 42  1  0
 25 43  1  0
 25 44  1  0
M  CHG  2  10  -1  14  -1
M  END
>  <UniqueID>  (29) 
27

>  <SMILES>  (29) 
COc1cc2c(c(O)c1[O-])-c1cc([O-])c(OC)c3c1[C@H](C2)N(C)CC3

>  <Energy>  (29) 
70.44591286796734

>  <Genealogy>  (29) 
COc1cc2c(c(O)c1[O-])-c1cc([O-])c(OC)c3c1C(C2)N(C)CC3 (protonated)
COc1cc2c(c(O)c1[O-])-c1cc([O-])c(OC)c3c1[C@H](C2)N(C)CC3 (chirality)
COc1cc2c(c(O)c1[O-])-c1cc([O-])c(OC)c3c1[C@H](C2)N(C)CC3 (3D coordinates assigned)
COc1cc2c(c(O)c1[O-])-c1cc([O-])c(OC)c3c1[C@H](C2)N(C)CC3 (nonaromatic ring conformer: 70.44591286796734 kcal/mol)

>  <smiles>  (29) 
COc1cc2c(c(O)c1O)-c1cc(O)c(OC)c3c1C(C2)N(C)CC3

>  <score_type>  (29) 
oracle

>  <origin>  (29) 
adg

>  <m_score__min__energy>  (29) 
-9.5199999999999996

>  <m_primary>  (29) 
energy

$$$$
29:0
     RDKit          3D

 54 58  0  0  0  0  0  0  0  0999 V2000
   55.1520   27.4960   45.3680 H   0  0  0  0  0  0  0  0  0  0  0  0
   55.1800   26.7140   45.9790 O   0  0  0  0  0  0  0  0  0  0  0  0
   56.4970   26.2340   45.9590 C   0  0  0  0  0  0  0  0  0  0  0  0
   56.5820   25.4502   45.1919 H   0  0  0  0  0  0  0  0  0  0  0  0
   56.7364   25.8295   46.9535 H   0  0  0  0  0  0  0  0  0  0  0  0
   57.4890   27.3570   45.6390 C   0  0  0  0  0  0  0  0  0  0  0  0
   58.4677   26.9169   45.3973 H   0  0  0  0  0  0  0  0  0  0  0  0
   57.5742   28.0156   46.5159 H   0  0  0  0  0  0  0  0  0  0  0  0
   57.0180   28.1540   44.4890 N   0  0  0  0  0  0  0  0  0  0  0  0
   56.2370   29.3220   44.9280 C   0  0  0  0  0  0  0  0  0  0  0  0
   56.1044   29.3735   46.0188 H   0  0  0  0  0  0  0  0  0  0  0  0
   55.1923   29.4138   44.5961 H   0  0  0  0  0  0  0  0  0  0  0  0
   57.2620   30.3130   44.3970 C   0  0  0  0  0  0  0  0  0  0  0  0
   57.0149   31.1269   43.6995 H   0  0  0  0  0  0  0  0  0  0  0  0
   57.9210   31.1350   45.4710 C   0  0  0  0  0  0  0  0  0  0  0  0
   58.1960   30.6920   46.7160 N   0  0  0  0  0  0  0  0  0  0  0  0
   58.7140   31.7000   47.4030 N   0  0  0  0  0  0  0  0  0  0  0  0
   59.1090   31.5870   48.7830 C   0  0  0  0  0  0  0  0  0  0  0  0
   60.1790   30.7480   49.1360 C   0  0  0  0  0  0  0  0  0  0  0  0
   60.7020   30.1733   48.3574 H   0  0  0  0  0  0  0  0  0  0  0  0
   60.5840   30.6380   50.4690 C   0  0  0  0  0  0  0  0  0  0  0  0
   61.4232   29.9778   50.7333 H   0  0  0  0  0  0  0  0  0  0  0  0
   59.9260   31.3650   51.4710 C   0  0  0  0  0  0  0  0  0  0  0  0
   60.3880   31.2790   52.8960 C   0  0  0  0  0  0  0  0  0  0  0  0
   59.5326   31.4382   53.5690 H   0  0  0  0  0  0  0  0  0  0  0  0
   60.8207   30.2849   53.0818 H   0  0  0  0  0  0  0  0  0  0  0  0
   61.1494   32.0508   53.0818 H   0  0  0  0  0  0  0  0  0  0  0  0
   58.8810   32.2320   51.1180 C   0  0  0  0  0  0  0  0  0  0  0  0
   58.3793   32.8285   51.8942 H   0  0  0  0  0  0  0  0  0  0  0  0
   58.4740   32.3420   49.7860 C   0  0  0  0  0  0  0  0  0  0  0  0
   57.6521   33.0230   49.5199 H   0  0  0  0  0  0  0  0  0  0  0  0
   58.7560   32.7920   46.6070 C   0  0  0  0  0  0  0  0  0  0  0  0
   59.1180   33.9750   47.0180 N   0  0  0  0  0  0  0  0  0  0  0  0
   60.3620   34.6210   46.7190 C   0  0  0  0  0  0  0  0  0  0  0  0
   60.3430   35.7280   46.1190 O   0  0  0  0  0  0  0  0  0  0  0  0
   61.6510   34.0620   47.1700 C   0  0  0  0  0  0  0  0  0  0  0  0
   62.6970   33.5680   46.3870 C   0  0  0  0  0  0  0  0  0  0  0  0
   62.7160   33.5501   45.2873 H   0  0  0  0  0  0  0  0  0  0  0  0
   63.6830   33.1150   47.1950 N   0  0  0  0  0  0  0  0  0  0  0  0
   64.5880   32.6870   46.8970 H   0  0  0  0  0  0  0  0  0  0  0  0
   63.2990   33.2960   48.4460 N   0  0  0  0  0  0  0  0  0  0  0  0
   63.9760   32.9820   49.5770 C   0  0  0  0  0  0  0  0  0  0  0  0
   64.9733   32.5200   49.5332 H   0  0  0  0  0  0  0  0  0  0  0  0
   63.3620   33.2660   50.8050 C   0  0  0  0  0  0  0  0  0  0  0  0
   63.8699   33.0312   51.7521 H   0  0  0  0  0  0  0  0  0  0  0  0
   62.0840   33.8570   50.8050 C   0  0  0  0  0  0  0  0  0  0  0  0
   61.5892   34.0856   51.7605 H   0  0  0  0  0  0  0  0  0  0  0  0
   61.4530   34.1490   49.6290 N   0  0  0  0  0  0  0  0  0  0  0  0
   62.0850   33.8570   48.4650 C   0  0  0  0  0  0  0  0  0  0  0  0
   58.2510   32.4720   45.3590 C   0  0  0  0  0  0  0  0  0  0  0  0
   58.1387   33.1281   44.4833 H   0  0  0  0  0  0  0  0  0  0  0  0
   58.0440   29.0780   43.9750 C   0  0  0  0  0  0  0  0  0  0  0  0
   59.0141   28.9803   44.4842 H   0  0  0  0  0  0  0  0  0  0  0  0
   58.3604   28.9857   42.9255 H   0  0  0  0  0  0  0  0  0  0  0  0
  1  2  1  0
  2  3  1  0
  3  4  1  0
  3  5  1  0
  3  6  1  0
  6  7  1  0
  6  8  1  0
  6  9  1  0
  9 10  1  0
 10 11  1  0
 10 12  1  0
 10 13  1  0
 13 14  1  0
 13 15  1  0
 15 16  1  0
 16 17  1  0
 17 18  1  0
 18 19  2  0
 19 20  1  0
 19 21  1  0
 21 22  1  0
 21 23  2  0
 23 24  1  0
 24 25  1  0
 24 26  1  0
 24 27  1  0
 23 28  1  0
 28 29  1  0
 28 30  2  0
 30 31  1  0
 17 32  1  0
 32 33  2  0
 33 34  1  0
 34 35  2  0
 34 36  1  0
 36 37  1  0
 37 38  1  0
 37 39  2  0
 39 40  1  0
 39 41  1  0
 41 42  1  0
 42 43  1  0
 42 44  2  0
 44 45  1  0
 44 46  1  0
 46 47  1  0
 46 48  2  0
 48 49  1  0
 32 50  1  0
 50 51  1  0
 13 52  1  0
 52 53  1  0
 52 54  1  0
 52  9  1  0
 50 15  2  0
 30 18  1  0
 49 36  2  0
 49 41  1  0
M  CHG  2  16  -1  39   1
M  END
>  <UniqueID>  (30) 
28

>  <SMILES>  (30) 
Cc1ccc(-n2[n-]c(C3CN(CCO)C3)c/c2=N\C(=O)c2c[nH+]n3cccnc23)cc1

>  <Energy>  (30) 
207.09959084626226

>  <Genealogy>  (30) 
Cc1ccc(-n2[n-]c(C3CN(CCO)C3)cc2=NC(=O)c2c[nH+]n3cccnc23)cc1 (protonated)
Cc1ccc(-n2[n-]c(C3CN(CCO)C3)c/c2=N\C(=O)c2c[nH+]n3cccnc23)cc1 (cis-trans isomerization)
Cc1ccc(-n2[n-]c(C3CN(CCO)C3)c/c2=N\C(=O)c2c[nH+]n3cccnc23)cc1 (3D coordinates assigned)
Cc1ccc(-n2[n-]c(C3CN(CCO)C3)c/c2=N\C(=O)c2c[nH+]n3cccnc23)cc1 (nonaromatic ring conformer: 207.09959084626226 kcal/mol)

>  <smiles>  (30) 
Cc1ccc(-n2[nH]c(C3CN(CCO)C3)cc2=NC(=O)c2cnn3cccnc23)cc1

>  <score_type>  (30) 
oracle

>  <origin>  (30) 
adg

>  <m_score__min__energy>  (30) 
-8.9000000000000004

>  <m_primary>  (30) 
energy

$$$$
30:0
     RDKit          3D

 48 50  0  0  0  0  0  0  0  0999 V2000
   60.0150   33.0170   51.5530 C   0  0  0  0  0  0  0  0  0  0  0  0
   61.1540   33.7970   51.2060 O   0  0  0  0  0  0  0  0  0  0  0  0
   62.2770   33.3050   50.5210 C   0  0  0  0  0  0  0  0  0  0  0  0
   63.5110   33.0910   51.1670 C   0  0  0  0  0  0  0  0  0  0  0  0
   64.6140   32.6240   50.4460 C   0  0  0  0  0  0  0  0  0  0  0  0
   64.4990   32.3660   49.0780 C   0  0  0  0  0  0  0  0  0  0  0  0
   63.2810   32.5690   48.4290 C   0  0  0  0  0  0  0  0  0  0  0  0
   62.1660   33.0310   49.1440 C   0  0  0  0  0  0  0  0  0  0  0  0
   60.9190   33.2260   48.4600 N   0  0  0  0  0  0  0  0  0  0  0  0
   60.1140   32.0580   48.0830 C   0  0  0  0  0  0  0  0  0  0  0  0
   58.8040   32.4690   47.3990 C   0  0  0  0  0  0  0  0  0  0  0  0
   59.0480   33.5040   46.3810 N   0  0  0  0  0  0  0  0  0  0  0  0
   58.2930   33.5340   45.1530 C   0  0  0  0  0  0  0  0  0  0  0  0
   58.7770   34.1080   44.1410 O   0  0  0  0  0  0  0  0  0  0  0  0
   56.9420   32.8790   45.0420 C   0  0  0  0  0  0  0  0  0  0  0  0
   57.0850   31.4750   44.6570 N   0  0  0  0  0  0  0  0  0  0  0  0
   57.0540   30.4740   45.5220 N   0  0  0  0  0  0  0  0  0  0  0  0
   57.2550   29.3360   44.8280 C   0  0  0  0  0  0  0  0  0  0  0  0
   57.2210   27.9690   45.4350 C   0  0  0  0  0  0  0  0  0  0  0  0
   57.8680   27.9760   46.6560 F   0  0  0  0  0  0  0  0  0  0  0  0
   57.8500   27.0650   44.5980 F   0  0  0  0  0  0  0  0  0  0  0  0
   55.9070   27.5810   45.6190 F   0  0  0  0  0  0  0  0  0  0  0  0
   57.4040   29.6190   43.4810 C   0  0  0  0  0  0  0  0  0  0  0  0
   57.3060   30.9940   43.4150 C   0  0  0  0  0  0  0  0  0  0  0  0
   57.3900   31.8200   42.1690 C   0  0  0  0  0  0  0  0  0  0  0  0
   60.0050   34.5900   46.6410 C   0  0  0  0  0  0  0  0  0  0  0  0
   60.4940   34.5780   48.0920 C   0  0  0  0  0  0  0  0  0  0  0  0
   59.9302   32.9589   52.6482 H   0  0  0  0  0  0  0  0  0  0  0  0
   59.1098   33.4857   51.1395 H   0  0  0  0  0  0  0  0  0  0  0  0
   60.1248   32.0036   51.1395 H   0  0  0  0  0  0  0  0  0  0  0  0
   63.6069   33.2924   52.2441 H   0  0  0  0  0  0  0  0  0  0  0  0
   65.5741   32.4594   50.9569 H   0  0  0  0  0  0  0  0  0  0  0  0
   65.3694   32.0025   48.5121 H   0  0  0  0  0  0  0  0  0  0  0  0
   63.1944   32.3658   47.3514 H   0  0  0  0  0  0  0  0  0  0  0  0
   60.6964   31.4320   47.3910 H   0  0  0  0  0  0  0  0  0  0  0  0
   59.8632   31.5039   48.9996 H   0  0  0  0  0  0  0  0  0  0  0  0
   58.3569   31.5872   46.9168 H   0  0  0  0  0  0  0  0  0  0  0  0
   58.1219   32.8766   48.1597 H   0  0  0  0  0  0  0  0  0  0  0  0
   56.4300   32.9378   46.0138 H   0  0  0  0  0  0  0  0  0  0  0  0
   56.3547   33.4015   44.2725 H   0  0  0  0  0  0  0  0  0  0  0  0
   57.5636   28.9113   42.6542 H   0  0  0  0  0  0  0  0  0  0  0  0
   57.4979   32.8809   42.4390 H   0  0  0  0  0  0  0  0  0  0  0  0
   58.2604   31.5021   41.5763 H   0  0  0  0  0  0  0  0  0  0  0  0
   56.4734   31.6838   41.5763 H   0  0  0  0  0  0  0  0  0  0  0  0
   60.8701   34.4706   45.9722 H   0  0  0  0  0  0  0  0  0  0  0  0
   59.4952   35.5475   46.4586 H   0  0  0  0  0  0  0  0  0  0  0  0
   61.3432   35.2692   48.1971 H   0  0  0  0  0  0  0  0  0  0  0  0
   59.6748   34.8946   48.7544 H   0  0  0  0  0  0  0  0  0  0  0  0
  1  2  1  0
  2  3  1  0
  3  4  2  0
  4  5  1  0
  5  6  2  0
  6  7  1  0
  7  8  2  0
  8  9  1  0
  9 10  1  0
 10 11  1  0
 11 12  1  0
 12 13  1  0
 13 14  2  0
 13 15  1  0
 15 16  1  0
 16 17  1  0
 17 18  2  0
 18 19  1  0
 19 20  1  0
 19 21  1  0
 19 22  1  0
 18 23  1  0
 23 24  2  0
 24 25  1  0
 12 26  1  0
 26 27  1  0
  8  3  1  0
 27  9  1  0
 24 16  1  0
  1 28  1  0
  1 29  1  0
  1 30  1  0
  4 31  1  0
  5 32  1  0
  6 33  1  0
  7 34  1  0
 10 35  1  0
 10 36  1  0
 11 37  1  0
 11 38  1  0
 15 39  1  0
 15 40  1  0
 23 41  1  0
 25 42  1  0
 25 43  1  0
 25 44  1  0
 26 45  1  0
 26 46  1  0
 27 47  1  0
 27 48  1  0
M  END
>  <UniqueID>  (31) 
29

>  <SMILES>  (31) 
COc1ccccc1N1CCN(C(=O)Cn2nc(C(F)(F)F)cc2C)CC1

>  <Energy>  (31) 
80.94997106425498

>  <Genealogy>  (31) 
COc1ccccc1N1CCN(C(=O)Cn2nc(C(F)(F)F)cc2C)CC1 (3D coordinates assigned)
COc1ccccc1N1CCN(C(=O)Cn2nc(C(F)(F)F)cc2C)CC1 (nonaromatic ring conformer: 80.94997106425498 kcal/mol)

>  <smiles>  (31) 
COc1ccccc1N1CCN(C(=O)Cn2nc(C(F)(F)F)cc2C)CC1

>  <score_type>  (31) 
oracle

>  <origin>  (31) 
adg

>  <m_score__min__energy>  (31) 
-7.0999999999999996

>  <m_primary>  (31) 
energy

$$$$
31:0
     RDKit          3D

 30 32  0  0  0  0  0  0  0  0999 V2000
   57.0370   34.5740   44.9460 C   0  0  0  0  0  0  0  0  0  0  0  0
   57.8900   33.4840   45.5070 C   0  0  0  0  0  0  0  0  0  0  0  0
   59.0890   33.6690   46.1060 N   0  0  0  0  0  0  0  0  0  0  0  0
   59.5620   32.4260   46.3760 C   0  0  0  0  0  0  0  0  0  0  0  0
   60.8830   32.1650   47.0280 C   0  0  0  0  0  0  0  0  0  0  0  0
   58.7020   31.4710   45.9530 N   0  0  0  0  0  0  0  0  0  0  0  0
   58.7360   30.1160   45.9620 C   0  0  0  0  0  0  0  0  0  0  0  0
   59.7310   29.5010   46.4370 O   0  0  0  0  0  0  0  0  0  0  0  0
   57.6730   29.4410   45.4130 N   0  0  0  0  0  0  0  0  0  0  0  0
   57.6150   28.0010   45.3850 C   0  0  0  0  0  0  0  0  0  0  0  0
   57.8070   27.2930   44.1840 C   0  0  0  0  0  0  0  0  0  0  0  0
   57.7700   25.8960   44.1750 C   0  0  0  0  0  0  0  0  0  0  0  0
   57.5500   25.1920   45.3620 C   0  0  0  0  0  0  0  0  0  0  0  0
   57.3740   25.8870   46.5620 C   0  0  0  0  0  0  0  0  0  0  0  0
   57.4120   27.2840   46.5760 C   0  0  0  0  0  0  0  0  0  0  0  0
   56.6640   30.1320   44.8610 N   0  0  0  0  0  0  0  0  0  0  0  0
   56.6450   31.4690   44.8490 N   0  0  0  0  0  0  0  0  0  0  0  0
   57.6770   32.1280   45.4120 C   0  0  0  0  0  0  0  0  0  0  0  0
   56.5875   35.1484   45.7694 H   0  0  0  0  0  0  0  0  0  0  0  0
   57.6549   35.2417   44.3277 H   0  0  0  0  0  0  0  0  0  0  0  0
   56.2403   34.1347   44.3277 H   0  0  0  0  0  0  0  0  0  0  0  0
   59.5610   34.5810   46.3020 H   0  0  0  0  0  0  0  0  0  0  0  0
   60.7634   32.1886   48.1212 H   0  0  0  0  0  0  0  0  0  0  0  0
   61.2544   31.1761   46.7211 H   0  0  0  0  0  0  0  0  0  0  0  0
   61.6025   32.9383   46.7211 H   0  0  0  0  0  0  0  0  0  0  0  0
   57.9871   27.8418   43.2479 H   0  0  0  0  0  0  0  0  0  0  0  0
   57.9144   25.3493   43.2315 H   0  0  0  0  0  0  0  0  0  0  0  0
   57.5154   24.0926   45.3520 H   0  0  0  0  0  0  0  0  0  0  0  0
   57.2052   25.3332   47.4973 H   0  0  0  0  0  0  0  0  0  0  0  0
   57.2822   27.8252   47.5248 H   0  0  0  0  0  0  0  0  0  0  0  0
  1  2  1  0
  2  3  1  0
  3  4  2  0
  4  5  1  0
  4  6  1  0
  6  7  1  0
  7  8  2  0
  7  9  1  0
  9 10  1  0
 10 11  2  0
 11 12  1  0
 12 13  2  0
 13 14  1  0
 14 15  2  0
  9 16  1  0
 16 17  2  0
 17 18  1  0
 18  2  2  0
 18  6  1  0
 15 10  1  0
  1 19  1  0
  1 20  1  0
  1 21  1  0
  3 22  1  0
  5 23  1  0
  5 24  1  0
  5 25  1  0
 11 26  1  0
 12 27  1  0
 13 28  1  0
 14 29  1  0
 15 30  1  0
M  CHG  1   3   1
M  END
>  <UniqueID>  (32) 
30

>  <SMILES>  (32) 
Cc1[nH+]c(C)n2c(=O)n(-c3ccccc3)nnc12

>  <Energy>  (32) 
78.655883193242

>  <Genealogy>  (32) 
Cc1[nH+]c(C)n2c(=O)n(-c3ccccc3)nnc12 (protonated)
Cc1[nH+]c(C)n2c(=O)n(-c3ccccc3)nnc12 (3D coordinates assigned)
Cc1[nH+]c(C)n2c(=O)n(-c3ccccc3)nnc12 (optimized conformer: 78.655883193242 kcal/mol)

>  <smiles>  (32) 
Cc1nc(C)n2c(=O)n(-c3ccccc3)nnc12

>  <score_type>  (32) 
oracle

>  <origin>  (32) 
adg

>  <m_score__min__energy>  (32) 
-5.2300000000000004

>  <m_primary>  (32) 
energy

$$$$
32:0
     RDKit          3D

 54 56  0  0  0  0  0  0  0  0999 V2000
   61.5300   33.8420   48.1890 C   0  0  0  0  0  0  0  0  0  0  0  0
   60.1540   34.1830   48.7520 C   0  0  0  0  0  0  0  0  0  0  0  0
   59.1600   34.2740   47.6590 N   0  0  0  0  0  0  0  0  0  0  0  0
   59.7340   34.9200   46.4540 C   0  0  0  0  0  0  0  0  0  0  0  0
   58.8770   34.6740   45.2120 C   0  0  0  0  0  0  0  0  0  0  0  0
   58.5000   32.9720   47.3910 C   0  0  0  0  0  0  0  0  0  0  0  0
   58.5440   31.9900   48.5740 C   0  0  0  0  0  0  0  0  0  0  0  0
   59.3770   30.8480   48.2220 N   0  0  0  0  0  0  0  0  0  0  0  0
   59.7810   30.5690   46.8790 C   0  0  0  0  0  0  0  0  0  0  0  0
   60.8380   31.0780   46.4140 O   0  0  0  0  0  0  0  0  0  0  0  0
   58.9420   29.7030   46.0200 C   0  0  0  0  0  0  0  0  0  0  0  0
   58.7810   28.3310   46.3400 C   0  0  0  0  0  0  0  0  0  0  0  0
   59.5160   27.7260   47.5210 C   0  0  0  0  0  0  0  0  0  0  0  0
   57.9360   27.5320   45.5310 C   0  0  0  0  0  0  0  0  0  0  0  0
   57.6470   26.1170   45.8600 C   0  0  0  0  0  0  0  0  0  0  0  0
   56.5420   25.7940   46.6650 C   0  0  0  0  0  0  0  0  0  0  0  0
   56.2770   24.4610   46.9950 C   0  0  0  0  0  0  0  0  0  0  0  0
   57.1190   23.4440   46.5350 C   0  0  0  0  0  0  0  0  0  0  0  0
   58.2280   23.7600   45.7460 C   0  0  0  0  0  0  0  0  0  0  0  0
   58.4970   25.0910   45.4130 C   0  0  0  0  0  0  0  0  0  0  0  0
   57.3640   28.0630   44.4140 N   0  0  0  0  0  0  0  0  0  0  0  0
   57.5250   29.3680   44.0640 C   0  0  0  0  0  0  0  0  0  0  0  0
   56.8940   29.8660   42.9110 C   0  0  0  0  0  0  0  0  0  0  0  0
   57.0160   31.2090   42.5610 C   0  0  0  0  0  0  0  0  0  0  0  0
   57.7610   32.0730   43.3620 C   0  0  0  0  0  0  0  0  0  0  0  0
   58.3970   31.5960   44.5110 C   0  0  0  0  0  0  0  0  0  0  0  0
   58.3040   30.2310   44.8710 C   0  0  0  0  0  0  0  0  0  0  0  0
   62.2323   33.6680   49.0175 H   0  0  0  0  0  0  0  0  0  0  0  0
   61.4590   32.9343   47.5717 H   0  0  0  0  0  0  0  0  0  0  0  0
   61.8910   34.6778   47.5717 H   0  0  0  0  0  0  0  0  0  0  0  0
   59.8461   33.3978   49.4581 H   0  0  0  0  0  0  0  0  0  0  0  0
   60.2087   35.1531   49.2677 H   0  0  0  0  0  0  0  0  0  0  0  0
   59.8023   36.0037   46.6299 H   0  0  0  0  0  0  0  0  0  0  0  0
   60.7277   34.4839   46.2742 H   0  0  0  0  0  0  0  0  0  0  0  0
   57.8617   34.3826   45.5189 H   0  0  0  0  0  0  0  0  0  0  0  0
   58.8286   35.5945   44.6117 H   0  0  0  0  0  0  0  0  0  0  0  0
   59.3242   33.8679   44.6117 H   0  0  0  0  0  0  0  0  0  0  0  0
   57.4462   33.1640   47.1405 H   0  0  0  0  0  0  0  0  0  0  0  0
   59.0537   32.4997   46.5661 H   0  0  0  0  0  0  0  0  0  0  0  0
   58.9665   32.4951   49.4551 H   0  0  0  0  0  0  0  0  0  0  0  0
   57.5251   31.6454   48.8045 H   0  0  0  0  0  0  0  0  0  0  0  0
   59.0703   28.0929   48.4573 H   0  0  0  0  0  0  0  0  0  0  0  0
   59.4346   26.6297   47.4810 H   0  0  0  0  0  0  0  0  0  0  0  0
   60.5762   28.0166   47.4810 H   0  0  0  0  0  0  0  0  0  0  0  0
   55.8829   26.5922   47.0371 H   0  0  0  0  0  0  0  0  0  0  0  0
   55.4048   24.2123   47.6174 H   0  0  0  0  0  0  0  0  0  0  0  0
   56.9085   22.3959   46.7941 H   0  0  0  0  0  0  0  0  0  0  0  0
   58.8911   22.9596   45.3859 H   0  0  0  0  0  0  0  0  0  0  0  0
   59.3765   25.3358   44.7994 H   0  0  0  0  0  0  0  0  0  0  0  0
   56.7580   27.4510   43.8200 H   0  0  0  0  0  0  0  0  0  0  0  0
   56.2989   29.1897   42.2797 H   0  0  0  0  0  0  0  0  0  0  0  0
   56.5245   31.5875   41.6526 H   0  0  0  0  0  0  0  0  0  0  0  0
   57.8486   33.1348   43.0883 H   0  0  0  0  0  0  0  0  0  0  0  0
   58.9751   32.2879   45.1412 H   0  0  0  0  0  0  0  0  0  0  0  0
  1  2  1  0
  2  3  1  0
  3  4  1  0
  4  5  1  0
  3  6  1  0
  6  7  1  0
  7  8  1  0
  8  9  1  0
  9 10  2  0
  9 11  1  0
 11 12  2  0
 12 13  1  0
 12 14  1  0
 14 15  1  0
 15 16  2  0
 16 17  1  0
 17 18  2  0
 18 19  1  0
 19 20  2  0
 14 21  2  0
 21 22  1  0
 22 23  2  0
 23 24  1  0
 24 25  2  0
 25 26  1  0
 26 27  2  0
 27 11  1  0
 20 15  1  0
 27 22  1  0
  1 28  1  0
  1 29  1  0
  1 30  1  0
  2 31  1  0
  2 32  1  0
  4 33  1  0
  4 34  1  0
  5 35  1  0
  5 36  1  0
  5 37  1  0
  6 38  1  0
  6 39  1  0
  7 40  1  0
  7 41  1  0
 13 42  1  0
 13 43  1  0
 13 44  1  0
 16 45  1  0
 17 46  1  0
 18 47  1  0
 19 48  1  0
 20 49  1  0
 21 50  1  0
 23 51  1  0
 24 52  1  0
 25 53  1  0
 26 54  1  0
M  CHG  2   8  -1  21   1
M  END
>  <UniqueID>  (33) 
31

>  <SMILES>  (33) 
CCN(CC)CC[N-]C(=O)c1c(C)c(-c2ccccc2)[nH+]c2ccccc12

>  <Energy>  (33) 
74.31747454476888

>  <Genealogy>  (33) 
CCN(CC)CC[N-]C(=O)c1c(C)c(-c2ccccc2)[nH+]c2ccccc12 (protonated)
CCN(CC)CC[N-]C(=O)c1c(C)c(-c2ccccc2)[nH+]c2ccccc12 (3D coordinates assigned)
CCN(CC)CC[N-]C(=O)c1c(C)c(-c2ccccc2)[nH+]c2ccccc12 (optimized conformer: 74.31747454476888 kcal/mol)

>  <smiles>  (33) 
CCN(CC)CCNC(=O)c1c(C)c(-c2ccccc2)nc2ccccc12

>  <score_type>  (33) 
oracle

>  <origin>  (33) 
adg

>  <m_score__min__energy>  (33) 
-7.2699999999999996

>  <m_primary>  (33) 
energy

$$$$
33:0
     RDKit          3D

 35 37  0  0  0  0  0  0  0  0999 V2000
   63.2330   33.1320   47.1470 C   0  0  0  0  0  0  0  0  0  0  0  0
   61.8140   33.5950   47.2980 C   0  0  0  0  0  0  0  0  0  0  0  0
   61.2830   33.8450   48.5730 C   0  0  0  0  0  0  0  0  0  0  0  0
   59.9710   34.3060   48.7100 C   0  0  0  0  0  0  0  0  0  0  0  0
   59.1850   34.5350   47.5790 C   0  0  0  0  0  0  0  0  0  0  0  0
   59.7100   34.3100   46.2950 C   0  0  0  0  0  0  0  0  0  0  0  0
   58.8610   34.5350   45.0740 C   0  0  0  0  0  0  0  0  0  0  0  0
   57.1550   33.9430   45.3480 S   0  0  0  0  0  0  0  0  0  0  0  0
   57.4400   32.3360   44.6110 C   0  0  0  0  0  0  0  0  0  0  0  0
   57.7370   32.1460   43.3120 N   0  0  0  0  0  0  0  0  0  0  0  0
   57.8820   30.8390   43.1750 N   0  0  0  0  0  0  0  0  0  0  0  0
   57.6700   30.2760   44.3820 C   0  0  0  0  0  0  0  0  0  0  0  0
   57.7340   28.8280   44.6870 C   0  0  0  0  0  0  0  0  0  0  0  0
   58.0610   27.8790   43.6990 C   0  0  0  0  0  0  0  0  0  0  0  0
   58.1160   26.5180   44.0160 C   0  0  0  0  0  0  0  0  0  0  0  0
   57.8470   26.0900   45.3170 C   0  0  0  0  0  0  0  0  0  0  0  0
   57.5220   27.0210   46.3060 C   0  0  0  0  0  0  0  0  0  0  0  0
   57.4640   28.3830   45.9940 C   0  0  0  0  0  0  0  0  0  0  0  0
   57.3930   31.2020   45.2710 O   0  0  0  0  0  0  0  0  0  0  0  0
   61.0270   33.8420   46.1620 C   0  0  0  0  0  0  0  0  0  0  0  0
   63.6790   32.9865   48.1419 H   0  0  0  0  0  0  0  0  0  0  0  0
   63.2516   32.1812   46.5942 H   0  0  0  0  0  0  0  0  0  0  0  0
   63.8088   33.8889   46.5942 H   0  0  0  0  0  0  0  0  0  0  0  0
   61.9015   33.6775   49.4671 H   0  0  0  0  0  0  0  0  0  0  0  0
   59.5561   34.4891   49.7122 H   0  0  0  0  0  0  0  0  0  0  0  0
   58.1511   34.8928   47.6934 H   0  0  0  0  0  0  0  0  0  0  0  0
   58.8366   35.6108   44.8456 H   0  0  0  0  0  0  0  0  0  0  0  0
   59.2971   33.9737   44.2345 H   0  0  0  0  0  0  0  0  0  0  0  0
   58.1200   30.3700   42.2750 H   0  0  0  0  0  0  0  0  0  0  0  0
   58.2744   28.2103   42.6720 H   0  0  0  0  0  0  0  0  0  0  0  0
   58.3718   25.7833   43.2384 H   0  0  0  0  0  0  0  0  0  0  0  0
   57.8910   25.0189   45.5635 H   0  0  0  0  0  0  0  0  0  0  0  0
   57.3115   26.6827   47.3313 H   0  0  0  0  0  0  0  0  0  0  0  0
   57.2054   29.1117   46.7763 H   0  0  0  0  0  0  0  0  0  0  0  0
   61.4455   33.6675   45.1598 H   0  0  0  0  0  0  0  0  0  0  0  0
  1  2  1  0
  2  3  2  0
  3  4  1  0
  4  5  2  0
  5  6  1  0
  6  7  1  0
  7  8  1  0
  8  9  1  0
  9 10  2  0
 10 11  1  0
 11 12  2  0
 12 13  1  0
 13 14  2  0
 14 15  1  0
 15 16  2  0
 16 17  1  0
 17 18  2  0
 12 19  1  0
  6 20  2  0
 20  2  1  0
 19  9  1  0
 18 13  1  0
  1 21  1  0
  1 22  1  0
  1 23  1  0
  3 24  1  0
  4 25  1  0
  5 26  1  0
  7 27  1  0
  7 28  1  0
 11 29  1  0
 14 30  1  0
 15 31  1  0
 16 32  1  0
 17 33  1  0
 18 34  1  0
 20 35  1  0
M  CHG  1  11   1
M  END
>  <UniqueID>  (34) 
32

>  <SMILES>  (34) 
Cc1cccc(CSc2n[nH+]c(-c3ccccc3)o2)c1

>  <Energy>  (34) 
68.40340933574318

>  <Genealogy>  (34) 
Cc1cccc(CSc2n[nH+]c(-c3ccccc3)o2)c1 (protonated)
Cc1cccc(CSc2n[nH+]c(-c3ccccc3)o2)c1 (3D coordinates assigned)
Cc1cccc(CSc2n[nH+]c(-c3ccccc3)o2)c1 (optimized conformer: 68.40340933574318 kcal/mol)

>  <smiles>  (34) 
Cc1cccc(CSc2nnc(-c3ccccc3)o2)c1

>  <score_type>  (34) 
oracle

>  <origin>  (34) 
adg

>  <m_score__min__energy>  (34) 
-7.0199999999999996

>  <m_primary>  (34) 
energy

$$$$
34:0
     RDKit          3D

 52 52  0  0  0  0  0  0  0  0999 V2000
   57.0430   26.9760   45.9490 C   0  0  0  0  0  0  0  0  0  0  0  0
   57.8100   28.3000   46.1260 C   0  0  0  0  0  0  0  0  0  0  0  0
   58.2870   28.9380   44.8630 N   0  0  0  0  0  0  0  0  0  0  0  0
   59.6790   28.5630   44.4950 C   0  0  0  0  0  0  0  0  0  0  0  0
   60.7390   29.1670   45.4210 C   0  0  0  0  0  0  0  0  0  0  0  0
   57.2900   28.8680   43.7550 C   0  0  0  0  0  0  0  0  0  0  0  0
   56.2040   29.9560   43.7500 C   0  0  0  0  0  0  0  0  0  0  0  0
   56.3900   30.8850   44.8560 N   0  0  0  0  0  0  0  0  0  0  0  0
   57.3850   31.9120   44.8520 C   0  0  0  0  0  0  0  0  0  0  0  0
   58.5720   31.6490   44.5170 O   0  0  0  0  0  0  0  0  0  0  0  0
   57.0090   33.3020   45.2500 C   0  0  0  0  0  0  0  0  0  0  0  0
   58.1560   34.2000   45.0650 N   0  0  0  0  0  0  0  0  0  0  0  0
   58.7620   34.5890   46.3480 C   0  0  0  0  0  0  0  0  0  0  0  0
   59.7020   33.5300   46.8800 C   0  0  0  0  0  0  0  0  0  0  0  0
   61.0790   33.6190   46.6290 C   0  0  0  0  0  0  0  0  0  0  0  0
   61.9480   32.6560   47.1420 C   0  0  0  0  0  0  0  0  0  0  0  0
   61.4540   31.6010   47.9140 C   0  0  0  0  0  0  0  0  0  0  0  0
   60.0760   31.4950   48.1910 C   0  0  0  0  0  0  0  0  0  0  0  0
   59.5650   30.4150   49.0100 N   0  0  0  0  0  0  0  0  0  0  0  0
   59.9640   29.0260   48.7430 C   0  0  0  0  0  0  0  0  0  0  0  0
   58.6280   30.6890   50.1050 C   0  0  0  0  0  0  0  0  0  0  0  0
   59.2080   32.4710   47.6590 C   0  0  0  0  0  0  0  0  0  0  0  0
   56.8007   26.5577   46.9371 H   0  0  0  0  0  0  0  0  0  0  0  0
   56.1131   27.1626   45.3918 H   0  0  0  0  0  0  0  0  0  0  0  0
   57.6674   26.2622   45.3918 H   0  0  0  0  0  0  0  0  0  0  0  0
   57.1444   29.0122   46.6355 H   0  0  0  0  0  0  0  0  0  0  0  0
   58.7147   28.0516   46.7003 H   0  0  0  0  0  0  0  0  0  0  0  0
   58.3360   29.9610   45.0920 H   0  0  0  0  0  0  0  0  0  0  0  0
   59.7663   27.4672   44.5338 H   0  0  0  0  0  0  0  0  0  0  0  0
   59.8656   28.9607   43.4865 H   0  0  0  0  0  0  0  0  0  0  0  0
   60.4480   29.0012   46.4688 H   0  0  0  0  0  0  0  0  0  0  0  0
   61.7098   28.6865   45.2296 H   0  0  0  0  0  0  0  0  0  0  0  0
   60.8205   30.2472   45.2296 H   0  0  0  0  0  0  0  0  0  0  0  0
   57.8391   28.9375   42.8044 H   0  0  0  0  0  0  0  0  0  0  0  0
   56.7546   27.9181   43.9001 H   0  0  0  0  0  0  0  0  0  0  0  0
   56.2554   30.5110   42.8017 H   0  0  0  0  0  0  0  0  0  0  0  0
   55.2226   29.4717   43.8608 H   0  0  0  0  0  0  0  0  0  0  0  0
   56.1712   33.6465   44.6260 H   0  0  0  0  0  0  0  0  0  0  0  0
   56.7099   33.3083   46.3085 H   0  0  0  0  0  0  0  0  0  0  0  0
   58.8780   33.7130   44.4830 H   0  0  0  0  0  0  0  0  0  0  0  0
   59.3251   35.5231   46.2051 H   0  0  0  0  0  0  0  0  0  0  0  0
   57.9506   34.7187   47.0793 H   0  0  0  0  0  0  0  0  0  0  0  0
   61.4745   34.4499   46.0264 H   0  0  0  0  0  0  0  0  0  0  0  0
   63.0266   32.7273   46.9381 H   0  0  0  0  0  0  0  0  0  0  0  0
   62.1481   30.8450   48.3098 H   0  0  0  0  0  0  0  0  0  0  0  0
   60.1156   28.4984   49.6962 H   0  0  0  0  0  0  0  0  0  0  0  0
   59.1743   28.5220   48.1665 H   0  0  0  0  0  0  0  0  0  0  0  0
   60.9008   29.0180   48.1665 H   0  0  0  0  0  0  0  0  0  0  0  0
   59.1368   30.5402   51.0688 H   0  0  0  0  0  0  0  0  0  0  0  0
   58.2744   31.7282   50.0336 H   0  0  0  0  0  0  0  0  0  0  0  0
   57.7702   30.0041   50.0336 H   0  0  0  0  0  0  0  0  0  0  0  0
   58.1282   32.4018   47.8571 H   0  0  0  0  0  0  0  0  0  0  0  0
  1  2  1  0
  2  3  1  0
  3  4  1  0
  4  5  1  0
  3  6  1  0
  6  7  1  0
  7  8  1  0
  8  9  1  0
  9 10  2  0
  9 11  1  0
 11 12  1  0
 12 13  1  0
 13 14  1  0
 14 15  2  0
 15 16  1  0
 16 17  2  0
 17 18  1  0
 18 19  1  0
 19 20  1  0
 19 21  1  0
 18 22  2  0
 22 14  1  0
  1 23  1  0
  1 24  1  0
  1 25  1  0
  2 26  1  0
  2 27  1  0
  3 28  1  0
  4 29  1  0
  4 30  1  0
  5 31  1  0
  5 32  1  0
  5 33  1  0
  6 34  1  0
  6 35  1  0
  7 36  1  0
  7 37  1  0
 11 38  1  0
 11 39  1  0
 12 40  1  0
 13 41  1  0
 13 42  1  0
 15 43  1  0
 16 44  1  0
 17 45  1  0
 20 46  1  0
 20 47  1  0
 20 48  1  0
 21 49  1  0
 21 50  1  0
 21 51  1  0
 22 52  1  0
M  CHG  2   3   1   8  -1
M  END
>  <UniqueID>  (35) 
33

>  <SMILES>  (35) 
CC[NH+](CC)CC[N-]C(=O)CNCc1cccc(N(C)C)c1

>  <Energy>  (35) 
53.46483300808983

>  <Genealogy>  (35) 
CC[NH+](CC)CC[N-]C(=O)CNCc1cccc(N(C)C)c1 (protonated)
CC[NH+](CC)CC[N-]C(=O)CNCc1cccc(N(C)C)c1 (3D coordinates assigned)
CC[NH+](CC)CC[N-]C(=O)CNCc1cccc(N(C)C)c1 (optimized conformer: 53.46483300808983 kcal/mol)

>  <smiles>  (35) 
CCN(CC)CCNC(=O)CNCc1cccc(N(C)C)c1

>  <score_type>  (35) 
oracle

>  <origin>  (35) 
adg

>  <m_score__min__energy>  (35) 
-6.29

>  <m_primary>  (35) 
energy

$$$$
35:0
     RDKit          3D

 47 49  0  0  0  0  0  0  0  0999 V2000
   64.3930   32.7070   49.0000 C   0  0  0  0  0  0  0  0  0  0  0  0
   63.2790   32.7760   48.0410 N   0  0  0  0  0  0  0  0  0  0  0  0
   63.7340   33.4300   46.8020 C   0  0  0  0  0  0  0  0  0  0  0  0
   62.1280   33.5090   48.6120 C   0  0  0  0  0  0  0  0  0  0  0  0
   61.1580   32.5810   49.3720 C   0  0  0  0  0  0  0  0  0  0  0  0
   60.8920   31.2170   48.6960 C   0  0  0  0  0  0  0  0  0  0  0  0
   61.2470   31.1780   47.2620 N   0  0  0  0  0  0  0  0  0  0  0  0
   60.0880   30.9930   46.3950 C   0  0  0  0  0  0  0  0  0  0  0  0
   59.7110   29.6830   45.9800 C   0  0  0  0  0  0  0  0  0  0  0  0
   60.3940   28.5270   46.4410 C   0  0  0  0  0  0  0  0  0  0  0  0
   59.9920   27.2500   46.0600 C   0  0  0  0  0  0  0  0  0  0  0  0
   58.8970   27.0840   45.2270 C   0  0  0  0  0  0  0  0  0  0  0  0
   58.2110   28.1960   44.7500 C   0  0  0  0  0  0  0  0  0  0  0  0
   58.6190   29.5140   45.0850 C   0  0  0  0  0  0  0  0  0  0  0  0
   57.9660   30.6120   44.5690 N   0  0  0  0  0  0  0  0  0  0  0  0
   57.0730   30.4560   43.3970 C   0  0  0  0  0  0  0  0  0  0  0  0
   58.1700   31.8590   45.1180 C   0  0  0  0  0  0  0  0  0  0  0  0
   57.2930   32.9360   44.8220 C   0  0  0  0  0  0  0  0  0  0  0  0
   57.5410   34.2190   45.2940 C   0  0  0  0  0  0  0  0  0  0  0  0
   58.6610   34.4660   46.0720 C   0  0  0  0  0  0  0  0  0  0  0  0
   59.5140   33.4250   46.4220 C   0  0  0  0  0  0  0  0  0  0  0  0
   59.2680   32.0920   45.9960 C   0  0  0  0  0  0  0  0  0  0  0  0
   63.9960   32.7316   50.0256 H   0  0  0  0  0  0  0  0  0  0  0  0
   64.9523   31.7725   48.8457 H   0  0  0  0  0  0  0  0  0  0  0  0
   65.0634   33.5653   48.8457 H   0  0  0  0  0  0  0  0  0  0  0  0
   64.3454   34.3089   47.0545 H   0  0  0  0  0  0  0  0  0  0  0  0
   64.3354   32.7218   46.2131 H   0  0  0  0  0  0  0  0  0  0  0  0
   62.8609   33.7477   46.2131 H   0  0  0  0  0  0  0  0  0  0  0  0
   62.5056   34.2720   49.3086 H   0  0  0  0  0  0  0  0  0  0  0  0
   61.5730   33.9636   47.7782 H   0  0  0  0  0  0  0  0  0  0  0  0
   61.5799   32.3904   50.3698 H   0  0  0  0  0  0  0  0  0  0  0  0
   60.1906   33.1040   49.3985 H   0  0  0  0  0  0  0  0  0  0  0  0
   61.4822   30.4504   49.2195 H   0  0  0  0  0  0  0  0  0  0  0  0
   59.8091   31.0351   48.7611 H   0  0  0  0  0  0  0  0  0  0  0  0
   62.0100   30.4900   47.1130 H   0  0  0  0  0  0  0  0  0  0  0  0
   61.7220   32.0710   47.0050 H   0  0  0  0  0  0  0  0  0  0  0  0
   61.2577   28.6427   47.1123 H   0  0  0  0  0  0  0  0  0  0  0  0
   60.5449   26.3703   46.4211 H   0  0  0  0  0  0  0  0  0  0  0  0
   58.5703   26.0727   44.9430 H   0  0  0  0  0  0  0  0  0  0  0  0
   57.3351   28.0514   44.1004 H   0  0  0  0  0  0  0  0  0  0  0  0
   56.0439   30.2762   43.7415 H   0  0  0  0  0  0  0  0  0  0  0  0
   57.1015   31.3727   42.7897 H   0  0  0  0  0  0  0  0  0  0  0  0
   57.4106   29.6032   42.7897 H   0  0  0  0  0  0  0  0  0  0  0  0
   56.3999   32.7509   44.2070 H   0  0  0  0  0  0  0  0  0  0  0  0
   56.8487   35.0384   45.0503 H   0  0  0  0  0  0  0  0  0  0  0  0
   58.8760   35.4892   46.4139 H   0  0  0  0  0  0  0  0  0  0  0  0
   60.3976   33.6380   47.0416 H   0  0  0  0  0  0  0  0  0  0  0  0
  1  2  1  0
  2  3  1  0
  2  4  1  0
  4  5  1  0
  5  6  1  0
  6  7  1  0
  7  8  1  0
  8  9  2  0
  9 10  1  0
 10 11  2  0
 11 12  1  0
 12 13  2  0
 13 14  1  0
 14 15  2  0
 15 16  1  0
 15 17  1  0
 17 18  2  0
 18 19  1  0
 19 20  2  0
 20 21  1  0
 21 22  2  0
 22  8  1  0
 14  9  1  0
 22 17  1  0
  1 23  1  0
  1 24  1  0
  1 25  1  0
  3 26  1  0
  3 27  1  0
  3 28  1  0
  4 29  1  0
  4 30  1  0
  5 31  1  0
  5 32  1  0
  6 33  1  0
  6 34  1  0
  7 35  1  0
  7 36  1  0
 10 37  1  0
 11 38  1  0
 12 39  1  0
 13 40  1  0
 16 41  1  0
 16 42  1  0
 16 43  1  0
 18 44  1  0
 19 45  1  0
 20 46  1  0
 21 47  1  0
M  CHG  2   7   1  15   1
M  END
>  <UniqueID>  (36) 
34

>  <SMILES>  (36) 
CN(C)CCC[NH2+]c1c2ccccc2[n+](C)c2ccccc12

>  <Energy>  (36) 
77.49276857682293

>  <Genealogy>  (36) 
CN(C)CCC[NH2+]c1c2ccccc2[n+](C)c2ccccc12 (protonated)
CN(C)CCC[NH2+]c1c2ccccc2[n+](C)c2ccccc12 (3D coordinates assigned)
CN(C)CCC[NH2+]c1c2ccccc2[n+](C)c2ccccc12 (optimized conformer: 77.49276857682293 kcal/mol)

>  <smiles>  (36) 
CN(C)CCCNc1c2ccccc2[n+](C)c2ccccc12

>  <score_type>  (36) 
oracle

>  <origin>  (36) 
adg

>  <m_score__min__energy>  (36) 
-3.7200000000000002

>  <m_primary>  (36) 
energy

$$$$
36:0
     RDKit          3D

 73 75  0  0  1  0  0  0  0  0999 V2000
   64.7050   33.0640   49.5150 C   0  0  0  0  0  0  0  0  0  0  0  0
   63.4420   33.7720   49.1460 C   0  0  0  0  0  0  0  0  0  0  0  0
   62.5040   32.8600   48.5380 N   0  0  0  0  0  0  0  0  0  0  0  0
   62.8560   32.5810   47.1590 C   0  0  0  0  0  0  0  0  0  0  0  0
   63.2160   33.8420   46.4350 C   0  0  0  0  0  0  0  0  0  0  0  0
   62.1280   31.7250   49.2770 C   0  0  0  0  0  0  0  0  0  0  0  0
   60.9590   30.9190   48.9020 C   0  0  0  0  0  0  0  0  0  0  0  0
   59.6980   31.5790   48.7240 N   0  0  0  0  0  0  0  0  0  0  0  0
   59.1560   31.5340   47.3780 C   0  0  0  0  0  0  0  0  0  0  0  0
   59.0820   32.6670   46.5960 C   0  0  0  0  0  0  0  0  0  0  0  0
   59.5400   33.8400   47.1490 C   0  0  0  0  0  0  0  0  0  0  0  0
   59.4700   34.9700   46.3630 C   0  0  0  0  0  0  0  0  0  0  0  0
   58.9740   34.9640   45.0850 C   0  0  0  0  0  0  0  0  0  0  0  0
   58.5180   33.7510   44.5610 C   0  0  0  0  0  0  0  0  0  0  0  0
   58.5720   32.5800   45.3300 C   0  0  0  0  0  0  0  0  0  0  0  0
   58.1250   31.4020   44.7920 N   0  0  0  0  0  0  0  0  0  0  0  0
   57.6190   31.4790   43.4540 C   0  0  0  0  0  0  0  0  0  0  0  0
   58.1970   30.3080   45.5440 C   0  0  0  0  0  0  0  0  0  0  0  0
   57.7800   29.0830   45.0600 C   0  0  0  0  0  0  0  0  0  0  0  0
   57.8400   27.9150   45.7710 C   0  0  0  0  0  0  0  0  0  0  0  0
   57.4490   26.6400   45.3210 N   0  0  0  0  0  0  0  0  0  0  0  0
   58.2510   25.4840   45.2840 C   0  0  0  0  0  0  0  0  0  0  0  0
   59.4490   25.4690   45.6470 O   0  0  0  0  0  0  0  0  0  0  0  0
   57.7310   24.1420   44.8030 C   0  0  0  0  0  0  0  0  0  0  0  0
   56.9930   24.3470   43.5040 C   0  0  0  0  0  0  0  0  0  0  0  0
   55.9420   23.2410   43.3620 C   0  0  0  0  0  0  0  0  0  0  0  0
   55.9470   22.4530   44.6340 C   0  0  0  0  0  0  0  0  0  0  0  0
   54.9030   22.8000   45.6300 C   0  0  0  0  0  0  0  0  0  0  0  0
   55.0150   24.1660   46.1640 C   0  0  0  0  0  0  0  0  0  0  0  0
   55.4760   24.2770   47.4970 O   0  0  0  0  0  0  0  0  0  0  0  0
   54.7430   25.2420   45.5720 N   0  0  0  0  0  0  0  0  0  0  0  0
   54.8330   26.4790   46.1150 O   0  0  0  0  0  0  0  0  0  0  0  0
   58.3560   28.0000   47.0570 C   0  0  0  0  0  0  0  0  0  0  0  0
   58.7750   29.2060   47.5590 C   0  0  0  0  0  0  0  0  0  0  0  0
   58.7040   30.3600   46.8230 C   0  0  0  0  0  0  0  0  0  0  0  0
   64.7915   33.0155   50.6105 H   0  0  0  0  0  0  0  0  0  0  0  0
   64.6875   32.0442   49.1031 H   0  0  0  0  0  0  0  0  0  0  0  0
   65.5658   33.6111   49.1031 H   0  0  0  0  0  0  0  0  0  0  0  0
   62.9913   34.2021   50.0526 H   0  0  0  0  0  0  0  0  0  0  0  0
   63.6806   34.5667   48.4239 H   0  0  0  0  0  0  0  0  0  0  0  0
   63.7160   31.8954   47.1382 H   0  0  0  0  0  0  0  0  0  0  0  0
   61.9889   32.1238   46.6599 H   0  0  0  0  0  0  0  0  0  0  0  0
   63.4417   34.6327   47.1657 H   0  0  0  0  0  0  0  0  0  0  0  0
   64.0990   33.6631   45.8038 H   0  0  0  0  0  0  0  0  0  0  0  0
   62.3717   34.1562   45.8038 H   0  0  0  0  0  0  0  0  0  0  0  0
   62.9921   31.0445   49.2621 H   0  0  0  0  0  0  0  0  0  0  0  0
   61.8171   32.1604   50.2381 H   0  0  0  0  0  0  0  0  0  0  0  0
   61.2006   30.4199   47.9520 H   0  0  0  0  0  0  0  0  0  0  0  0
   60.7974   30.2617   49.7691 H   0  0  0  0  0  0  0  0  0  0  0  0
   59.1340   32.0760   49.4020 H   0  0  0  0  0  0  0  0  0  0  0  0
   59.9437   33.8747   48.1717 H   0  0  0  0  0  0  0  0  0  0  0  0
   59.8292   35.9220   46.7810 H   0  0  0  0  0  0  0  0  0  0  0  0
   58.9359   35.8876   44.4888 H   0  0  0  0  0  0  0  0  0  0  0  0
   58.1141   33.7150   43.5385 H   0  0  0  0  0  0  0  0  0  0  0  0
   56.5319   31.6444   43.4821 H   0  0  0  0  0  0  0  0  0  0  0  0
   58.1034   32.3138   42.9263 H   0  0  0  0  0  0  0  0  0  0  0  0
   57.8332   30.5379   42.9263 H   0  0  0  0  0  0  0  0  0  0  0  0
   57.3740   29.0439   44.0384 H   0  0  0  0  0  0  0  0  0  0  0  0
   56.4510   26.5050   44.9700 H   0  0  0  0  0  0  0  0  0  0  0  0
   58.5741   23.4533   44.6451 H   0  0  0  0  0  0  0  0  0  0  0  0
   57.0536   23.7111   45.5550 H   0  0  0  0  0  0  0  0  0  0  0  0
   56.4990   25.3298   43.5090 H   0  0  0  0  0  0  0  0  0  0  0  0
   57.6975   24.3080   42.6601 H   0  0  0  0  0  0  0  0  0  0  0  0
   54.9489   23.6848   43.1986 H   0  0  0  0  0  0  0  0  0  0  0  0
   56.1730   22.5936   42.5032 H   0  0  0  0  0  0  0  0  0  0  0  0
   55.8193   21.3925   44.3711 H   0  0  0  0  0  0  0  0  0  0  0  0
   56.9047   22.6899   45.1204 H   0  0  0  0  0  0  0  0  0  0  0  0
   53.9188   22.6961   45.1498 H   0  0  0  0  0  0  0  0  0  0  0  0
   55.0344   22.1145   46.4802 H   0  0  0  0  0  0  0  0  0  0  0  0
   55.5160   25.1540   47.9840 H   0  0  0  0  0  0  0  0  0  0  0  0
   54.7570   26.7030   47.1030 H   0  0  0  0  0  0  0  0  0  0  0  0
   58.4294   27.0946   47.6774 H   0  0  0  0  0  0  0  0  0  0  0  0
   59.1794   29.2480   48.5811 H   0  0  0  0  0  0  0  0  0  0  0  0
  1  2  1  0
  2  3  1  0
  3  4  1  0
  4  5  1  0
  3  6  1  0
  6  7  1  0
  7  8  1  0
  8  9  1  0
  9 10  2  0
 10 11  1  0
 11 12  2  0
 12 13  1  0
 13 14  2  0
 14 15  1  0
 15 16  2  0
 16 17  1  0
 16 18  1  0
 18 19  2  0
 19 20  1  0
 20 21  1  0
 21 22  1  0
 22 23  2  0
 22 24  1  0
 24 25  1  0
 25 26  1  0
 26 27  1  0
 27 28  1  0
 28 29  1  0
 29 30  1  0
 29 31  2  0
 31 32  1  0
 20 33  2  0
 33 34  1  0
 34 35  2  0
 35  9  1  0
 15 10  1  0
 35 18  1  0
  1 36  1  0
  1 37  1  0
  1 38  1  0
  2 39  1  0
  2 40  1  0
  4 41  1  0
  4 42  1  0
  5 43  1  0
  5 44  1  0
  5 45  1  0
  6 46  1  0
  6 47  1  0
  7 48  1  0
  7 49  1  0
  8 50  1  0
 11 51  1  0
 12 52  1  0
 13 53  1  0
 14 54  1  0
 17 55  1  0
 17 56  1  0
 17 57  1  0
 19 58  1  0
 21 59  1  0
 24 60  1  0
 24 61  1  0
 25 62  1  0
 25 63  1  0
 26 64  1  0
 26 65  1  0
 27 66  1  0
 27 67  1  0
 28 68  1  0
 28 69  1  0
 30 70  1  0
 32 71  1  0
 33 72  1  0
 34 73  1  0
M  CHG  1  16   1
M  END
>  <smiles>  (37) 
CCN(CC)CCNc1c2ccccc2[n+](C)c2cc(NC(=O)CCCCCC(O)=NO)ccc12

>  <score_type>  (37) 
oracle

>  <origin>  (37) 
adg

>  <m_score__min__energy>  (37) 
-8.8399999999999999

>  <m_primary>  (37) 
energy

$$$$
37:0
     RDKit          3D

 28 30  0  0  1  0  0  0  0  0999 V2000
   60.6830   34.5560   48.9720 N   0  0  0  0  0  0  0  0  0  0  0  0
   59.9170   33.6090   48.5760 C   0  0  0  0  0  0  0  0  0  0  0  0
   59.7110   32.5220   49.3420 N   0  0  0  0  0  0  0  0  0  0  0  0
   58.8980   31.5550   48.8840 C   0  0  0  0  0  0  0  0  0  0  0  0
   58.3000   31.6560   47.6960 N   0  0  0  0  0  0  0  0  0  0  0  0
   58.4940   32.7380   46.9160 C   0  0  0  0  0  0  0  0  0  0  0  0
   59.3180   33.7660   47.3300 C   0  0  0  0  0  0  0  0  0  0  0  0
   59.3210   34.6910   46.3690 N   0  0  0  0  0  0  0  0  0  0  0  0
   58.5270   34.2920   45.3520 C   0  0  0  0  0  0  0  0  0  0  0  0
   58.0190   33.0930   45.6860 N   0  0  0  0  0  0  0  0  0  0  0  0
   57.1150   32.2330   44.9520 C   0  0  1  0  0  0  0  0  0  0  0  0
   57.5230   32.3160   43.5160 C   0  0  0  0  0  0  0  0  0  0  0  0
   57.5420   31.0470   43.0980 C   0  0  0  0  0  0  0  0  0  0  0  0
   57.1630   30.1300   44.2090 C   0  0  2  0  0  0  0  0  0  0  0  0
   55.7170   29.7550   43.9920 C   0  0  0  0  0  0  0  0  0  0  0  0
   55.1850   29.3520   45.2010 O   0  0  0  0  0  0  0  0  0  0  0  0
   57.3610   30.9190   45.3240 O   0  0  0  0  0  0  0  0  0  0  0  0
   60.8560   35.3430   48.3060 H   0  0  0  0  0  0  0  0  0  0  0  0
   60.1660   32.4130   50.2770 H   0  0  0  0  0  0  0  0  0  0  0  0
   58.7221   30.6618   49.5015 H   0  0  0  0  0  0  0  0  0  0  0  0
   58.3319   34.8459   44.4219 H   0  0  0  0  0  0  0  0  0  0  0  0
   56.0692   32.5224   45.1323 H   0  0  0  0  0  0  0  0  0  0  0  0
   57.7556   33.2198   42.9337 H   0  0  0  0  0  0  0  0  0  0  0  0
   57.8007   30.7252   42.0784 H   0  0  0  0  0  0  0  0  0  0  0  0
   57.7250   29.1879   44.2910 H   0  0  0  0  0  0  0  0  0  0  0  0
   55.1605   30.6248   43.6127 H   0  0  0  0  0  0  0  0  0  0  0  0
   55.6441   28.9402   43.2566 H   0  0  0  0  0  0  0  0  0  0  0  0
   55.6420   29.7160   45.9990 H   0  0  0  0  0  0  0  0  0  0  0  0
  1  2  2  3
  2  3  1  0
  3  4  1  0
  4  5  2  0
  5  6  1  0
  6  7  2  0
  7  8  1  0
  8  9  2  0
  9 10  1  0
 10 11  1  0
 11 12  1  0
 12 13  2  0
 13 14  1  0
 14 15  1  0
 15 16  1  0
 14 17  1  0
  7  2  1  0
 17 11  1  0
 10  6  1  0
  1 18  1  0
  3 19  1  0
  4 20  1  0
  9 21  1  0
 11 22  1  6
 12 23  1  0
 13 24  1  0
 14 25  1  1
 15 26  1  0
 15 27  1  0
 16 28  1  0
M  END
>  <smiles>  (38) 
N=c1[nH]cnc2c1ncn2C1C=CC(CO)O1

>  <score_type>  (38) 
oracle

>  <origin>  (38) 
adg

>  <m_score__min__energy>  (38) 
-6.5099999999999998

>  <m_primary>  (38) 
energy

$$$$
38:0
     RDKit          3D

 55 57  0  0  0  0  0  0  0  0999 V2000
   57.3450   32.6140   40.4870 C   0  0  0  0  0  0  0  0  0  0  0  0
   57.1000   31.6580   41.6510 C   0  0  0  0  0  0  0  0  0  0  0  0
   57.9010   32.0640   42.8970 C   0  0  0  0  0  0  0  0  0  0  0  0
   57.6970   31.0960   44.0060 N   0  0  0  0  0  0  0  0  0  0  0  0
   57.3810   31.8380   45.2520 C   0  0  0  0  0  0  0  0  0  0  0  0
   57.7080   33.3350   45.1440 C   0  0  0  0  0  0  0  0  0  0  0  0
   58.7320   33.7580   46.1940 C   0  0  0  0  0  0  0  0  0  0  0  0
   56.6320   30.1150   43.6520 C   0  0  0  0  0  0  0  0  0  0  0  0
   55.7900   29.7300   44.8730 C   0  0  0  0  0  0  0  0  0  0  0  0
   56.0110   28.3330   45.2440 N   0  0  0  0  0  0  0  0  0  0  0  0
   57.2670   27.7370   45.6050 C   0  0  0  0  0  0  0  0  0  0  0  0
   57.4870   26.5450   45.2640 O   0  0  0  0  0  0  0  0  0  0  0  0
   58.3010   28.4620   46.3690 C   0  0  0  0  0  0  0  0  0  0  0  0
   58.3880   28.3300   47.7640 C   0  0  0  0  0  0  0  0  0  0  0  0
   59.3710   29.0190   48.4790 C   0  0  0  0  0  0  0  0  0  0  0  0
   60.3040   29.8230   47.8080 C   0  0  0  0  0  0  0  0  0  0  0  0
   61.3040   30.5410   48.5500 N   0  0  0  0  0  0  0  0  0  0  0  0
   61.7380   30.2290   49.7960 C   0  0  0  0  0  0  0  0  0  0  0  0
   62.7010   31.1380   50.2220 C   0  0  0  0  0  0  0  0  0  0  0  0
   62.8510   32.0240   49.1780 C   0  0  0  0  0  0  0  0  0  0  0  0
   63.7020   33.1200   49.0440 C   0  0  0  0  0  0  0  0  0  0  0  0
   63.6710   33.8310   47.8310 C   0  0  0  0  0  0  0  0  0  0  0  0
   62.8090   33.4270   46.7880 C   0  0  0  0  0  0  0  0  0  0  0  0
   61.9630   32.3150   46.9510 C   0  0  0  0  0  0  0  0  0  0  0  0
   61.9950   31.6390   48.1770 C   0  0  0  0  0  0  0  0  0  0  0  0
   60.2320   29.9380   46.4110 C   0  0  0  0  0  0  0  0  0  0  0  0
   59.2470   29.2510   45.6960 C   0  0  0  0  0  0  0  0  0  0  0  0
   57.6002   33.6100   40.8780 H   0  0  0  0  0  0  0  0  0  0  0  0
   58.1757   32.2376   39.8720 H   0  0  0  0  0  0  0  0  0  0  0  0
   56.4356   32.6835   39.8720 H   0  0  0  0  0  0  0  0  0  0  0  0
   56.0282   31.6646   41.8983 H   0  0  0  0  0  0  0  0  0  0  0  0
   57.4274   30.6535   41.3448 H   0  0  0  0  0  0  0  0  0  0  0  0
   58.9704   32.0965   42.6412 H   0  0  0  0  0  0  0  0  0  0  0  0
   57.5514   33.0527   43.2289 H   0  0  0  0  0  0  0  0  0  0  0  0
   56.3080   31.7259   45.4669 H   0  0  0  0  0  0  0  0  0  0  0  0
   58.0008   31.4177   46.0577 H   0  0  0  0  0  0  0  0  0  0  0  0
   58.1154   33.5412   44.1432 H   0  0  0  0  0  0  0  0  0  0  0  0
   56.7825   33.9049   45.3134 H   0  0  0  0  0  0  0  0  0  0  0  0
   58.3186   33.5872   47.1990 H   0  0  0  0  0  0  0  0  0  0  0  0
   59.6506   33.1657   46.0698 H   0  0  0  0  0  0  0  0  0  0  0  0
   58.9647   34.8259   46.0698 H   0  0  0  0  0  0  0  0  0  0  0  0
   55.9744   30.5612   42.8914 H   0  0  0  0  0  0  0  0  0  0  0  0
   57.1167   29.2052   43.2681 H   0  0  0  0  0  0  0  0  0  0  0  0
   56.0682   30.3751   45.7194 H   0  0  0  0  0  0  0  0  0  0  0  0
   54.7274   29.8612   44.6207 H   0  0  0  0  0  0  0  0  0  0  0  0
   57.6782   27.6804   48.2972 H   0  0  0  0  0  0  0  0  0  0  0  0
   59.4134   28.9303   49.5746 H   0  0  0  0  0  0  0  0  0  0  0  0
   61.3782   29.3748   50.3884 H   0  0  0  0  0  0  0  0  0  0  0  0
   63.2298   31.1473   51.1865 H   0  0  0  0  0  0  0  0  0  0  0  0
   64.3758   33.4190   49.8604 H   0  0  0  0  0  0  0  0  0  0  0  0
   64.3221   34.7070   47.6939 H   0  0  0  0  0  0  0  0  0  0  0  0
   62.7990   33.9862   45.8408 H   0  0  0  0  0  0  0  0  0  0  0  0
   61.2965   31.9864   46.1400 H   0  0  0  0  0  0  0  0  0  0  0  0
   60.9545   30.5720   45.8762 H   0  0  0  0  0  0  0  0  0  0  0  0
   59.2129   29.3291   44.5993 H   0  0  0  0  0  0  0  0  0  0  0  0
  1  2  1  0
  2  3  1  0
  3  4  1  0
  4  5  1  0
  5  6  1  0
  6  7  1  0
  4  8  1  0
  8  9  1  0
  9 10  1  0
 10 11  1  0
 11 12  2  0
 11 13  1  0
 13 14  2  0
 14 15  1  0
 15 16  2  0
 16 17  1  0
 17 18  1  0
 18 19  2  0
 19 20  1  0
 20 21  2  0
 21 22  1  0
 22 23  2  0
 23 24  1  0
 24 25  2  0
 16 26  1  0
 26 27  2  0
 27 13  1  0
 25 17  1  0
 25 20  1  0
  1 28  1  0
  1 29  1  0
  1 30  1  0
  2 31  1  0
  2 32  1  0
  3 33  1  0
  3 34  1  0
  5 35  1  0
  5 36  1  0
  6 37  1  0
  6 38  1  0
  7 39  1  0
  7 40  1  0
  7 41  1  0
  8 42  1  0
  8 43  1  0
  9 44  1  0
  9 45  1  0
 14 46  1  0
 15 47  1  0
 18 48  1  0
 19 49  1  0
 21 50  1  0
 22 51  1  0
 23 52  1  0
 24 53  1  0
 26 54  1  0
 27 55  1  0
M  CHG  1  10  -1
M  END
>  <UniqueID>  (39) 
35

>  <SMILES>  (39) 
CCCN(CCC)CC[N-]C(=O)c1ccc(-n2ccc3ccccc32)cc1

>  <Energy>  (39) 
93.45255386101991

>  <Genealogy>  (39) 
CCCN(CCC)CC[N-]C(=O)c1ccc(-n2ccc3ccccc32)cc1 (protonated)
CCCN(CCC)CC[N-]C(=O)c1ccc(-n2ccc3ccccc32)cc1 (3D coordinates assigned)
CCCN(CCC)CC[N-]C(=O)c1ccc(-n2ccc3ccccc32)cc1 (optimized conformer: 93.45255386101991 kcal/mol)

>  <smiles>  (39) 
CCCN(CCC)CCNC(=O)c1ccc(-n2ccc3ccccc32)cc1

>  <score_type>  (39) 
oracle

>  <origin>  (39) 
adg

>  <m_score__min__energy>  (39) 
-9.3399999999999999

>  <m_primary>  (39) 
energy

$$$$
39:0
     RDKit          3D

 47 48  0  0  0  0  0  0  0  0999 V2000
   63.7350   33.2160   46.7280 C   0  0  0  0  0  0  0  0  0  0  0  0
   62.4820   33.5180   47.5600 C   0  0  0  0  0  0  0  0  0  0  0  0
   61.8870   32.2910   48.1500 N   0  0  0  0  0  0  0  0  0  0  0  0
   61.7090   31.2260   47.1130 C   0  0  0  0  0  0  0  0  0  0  0  0
   60.7740   30.1140   47.5930 C   0  0  0  0  0  0  0  0  0  0  0  0
   62.7430   31.8190   49.2690 C   0  0  0  0  0  0  0  0  0  0  0  0
   62.4150   32.4850   50.6260 C   0  0  0  0  0  0  0  0  0  0  0  0
   61.4670   31.6440   51.4930 C   0  0  0  0  0  0  0  0  0  0  0  0
   60.4330   32.5020   52.0930 N   0  0  0  0  0  0  0  0  0  0  0  0
   59.1430   32.4120   51.3880 C   0  0  0  0  0  0  0  0  0  0  0  0
   59.2160   33.0060   50.0090 C   0  0  0  0  0  0  0  0  0  0  0  0
   59.7750   34.2180   49.6740 C   0  0  0  0  0  0  0  0  0  0  0  0
   59.6620   34.3550   48.3770 O   0  0  0  0  0  0  0  0  0  0  0  0
   59.0640   33.2760   47.9190 C   0  0  0  0  0  0  0  0  0  0  0  0
   58.7580   33.0520   46.4930 C   0  0  0  0  0  0  0  0  0  0  0  0
   58.2090   31.8280   46.0710 C   0  0  0  0  0  0  0  0  0  0  0  0
   57.9180   31.6130   44.7210 C   0  0  0  0  0  0  0  0  0  0  0  0
   58.1700   32.6150   43.7790 C   0  0  0  0  0  0  0  0  0  0  0  0
   57.7700   32.3170   41.9350 Br  0  0  0  0  0  0  0  0  0  0  0  0
   58.7150   33.8360   44.1890 C   0  0  0  0  0  0  0  0  0  0  0  0
   59.0080   34.0550   45.5390 C   0  0  0  0  0  0  0  0  0  0  0  0
   58.7620   32.3940   48.8990 N   0  0  0  0  0  0  0  0  0  0  0  0
   64.5813   33.0120   47.4005 H   0  0  0  0  0  0  0  0  0  0  0  0
   63.5506   32.3366   46.0935 H   0  0  0  0  0  0  0  0  0  0  0  0
   63.9715   34.0829   46.0935 H   0  0  0  0  0  0  0  0  0  0  0  0
   62.7553   34.2052   48.3743 H   0  0  0  0  0  0  0  0  0  0  0  0
   61.7334   33.9661   46.8900 H   0  0  0  0  0  0  0  0  0  0  0  0
   60.9640   32.5730   48.5540 H   0  0  0  0  0  0  0  0  0  0  0  0
   61.2849   31.6804   46.2055 H   0  0  0  0  0  0  0  0  0  0  0  0
   62.6936   30.7798   46.9095 H   0  0  0  0  0  0  0  0  0  0  0  0
   60.7593   30.0965   48.6928 H   0  0  0  0  0  0  0  0  0  0  0  0
   59.7578   30.3010   47.2157 H   0  0  0  0  0  0  0  0  0  0  0  0
   61.1327   29.1450   47.2157 H   0  0  0  0  0  0  0  0  0  0  0  0
   62.6092   30.7322   49.3741 H   0  0  0  0  0  0  0  0  0  0  0  0
   63.7788   32.0919   49.0188 H   0  0  0  0  0  0  0  0  0  0  0  0
   63.3541   32.6361   51.1785 H   0  0  0  0  0  0  0  0  0  0  0  0
   61.9074   33.4370   50.4114 H   0  0  0  0  0  0  0  0  0  0  0  0
   60.9856   30.8779   50.8674 H   0  0  0  0  0  0  0  0  0  0  0  0
   62.0455   31.1635   52.2958 H   0  0  0  0  0  0  0  0  0  0  0  0
   60.2960   32.2270   53.0950 H   0  0  0  0  0  0  0  0  0  0  0  0
   58.8563   31.3533   51.3046 H   0  0  0  0  0  0  0  0  0  0  0  0
   58.3984   32.9799   51.9651 H   0  0  0  0  0  0  0  0  0  0  0  0
   60.2323   34.9386   50.3679 H   0  0  0  0  0  0  0  0  0  0  0  0
   58.0076   31.0358   46.8071 H   0  0  0  0  0  0  0  0  0  0  0  0
   57.4894   30.6526   44.3986 H   0  0  0  0  0  0  0  0  0  0  0  0
   58.9135   34.6251   43.4488 H   0  0  0  0  0  0  0  0  0  0  0  0
   59.4364   35.0171   45.8565 H   0  0  0  0  0  0  0  0  0  0  0  0
  1  2  1  0
  2  3  1  0
  3  4  1  0
  4  5  1  0
  3  6  1  0
  6  7  1  0
  7  8  1  0
  8  9  1  0
  9 10  1  0
 10 11  1  0
 11 12  2  0
 12 13  1  0
 13 14  1  0
 14 15  1  0
 15 16  2  0
 16 17  1  0
 17 18  2  0
 18 19  1  0
 18 20  1  0
 20 21  2  0
 14 22  2  0
 22 11  1  0
 21 15  1  0
  1 23  1  0
  1 24  1  0
  1 25  1  0
  2 26  1  0
  2 27  1  0
  3 28  1  0
  4 29  1  0
  4 30  1  0
  5 31  1  0
  5 32  1  0
  5 33  1  0
  6 34  1  0
  6 35  1  0
  7 36  1  0
  7 37  1  0
  8 38  1  0
  8 39  1  0
  9 40  1  0
 10 41  1  0
 10 42  1  0
 12 43  1  0
 16 44  1  0
 17 45  1  0
 20 46  1  0
 21 47  1  0
M  CHG  1   3   1
M  END
>  <UniqueID>  (40) 
36

>  <SMILES>  (40) 
CC[NH+](CC)CCCNCc1coc(-c2ccc(Br)cc2)n1

>  <Energy>  (40) 
76.77977942719554

>  <Genealogy>  (40) 
CC[NH+](CC)CCCNCc1coc(-c2ccc(Br)cc2)n1 (protonated)
CC[NH+](CC)CCCNCc1coc(-c2ccc(Br)cc2)n1 (3D coordinates assigned)
CC[NH+](CC)CCCNCc1coc(-c2ccc(Br)cc2)n1 (optimized conformer: 76.77977942719554 kcal/mol)

>  <smiles>  (40) 
CCN(CC)CCCNCc1coc(-c2ccc(Br)cc2)n1

>  <score_type>  (40) 
oracle

>  <origin>  (40) 
adg

>  <m_score__min__energy>  (40) 
-4.6699999999999999

>  <m_primary>  (40) 
energy

$$$$
40:0
     RDKit          3D

 38 39  0  0  0  0  0  0  0  0999 V2000
   64.9020   33.7820   51.3020 C   0  0  0  0  0  0  0  0  0  0  0  0
   64.9080   33.5530   49.8970 O   0  0  0  0  0  0  0  0  0  0  0  0
   63.9210   32.8350   49.2050 C   0  0  0  0  0  0  0  0  0  0  0  0
   62.7900   32.3040   49.8540 C   0  0  0  0  0  0  0  0  0  0  0  0
   61.8400   31.6020   49.1140 C   0  0  0  0  0  0  0  0  0  0  0  0
   62.0050   31.4450   47.7360 C   0  0  0  0  0  0  0  0  0  0  0  0
   60.7820   30.5540   46.7710 S   0  0  0  0  0  0  0  0  0  0  0  0
   59.7840   32.0210   46.4520 C   0  0  0  0  0  0  0  0  0  0  0  0
   60.1460   33.2080   47.1060 C   0  0  0  0  0  0  0  0  0  0  0  0
   59.4390   34.3890   46.8790 C   0  0  0  0  0  0  0  0  0  0  0  0
   58.3760   34.4020   45.9780 C   0  0  0  0  0  0  0  0  0  0  0  0
   58.0140   33.2350   45.3060 C   0  0  0  0  0  0  0  0  0  0  0  0
   58.6930   32.0240   45.5460 C   0  0  0  0  0  0  0  0  0  0  0  0
   58.3010   30.7980   44.7450 C   0  0  0  0  0  0  0  0  0  0  0  0
   56.9820   30.2790   45.1710 N   0  0  0  0  0  0  0  0  0  0  0  0
   56.0030   30.4240   44.0830 C   0  0  0  0  0  0  0  0  0  0  0  0
   57.0750   28.8640   45.5690 C   0  0  0  0  0  0  0  0  0  0  0  0
   63.1500   31.9660   47.1270 C   0  0  0  0  0  0  0  0  0  0  0  0
   64.0690   32.6470   47.8640 N   0  0  0  0  0  0  0  0  0  0  0  0
   64.9273   32.8178   51.8308 H   0  0  0  0  0  0  0  0  0  0  0  0
   65.7849   34.3761   51.5804 H   0  0  0  0  0  0  0  0  0  0  0  0
   63.9892   34.3291   51.5804 H   0  0  0  0  0  0  0  0  0  0  0  0
   62.6570   32.4421   50.9372 H   0  0  0  0  0  0  0  0  0  0  0  0
   60.9604   31.1717   49.6152 H   0  0  0  0  0  0  0  0  0  0  0  0
   60.9956   33.2076   47.8047 H   0  0  0  0  0  0  0  0  0  0  0  0
   59.7205   35.3097   47.4111 H   0  0  0  0  0  0  0  0  0  0  0  0
   57.8215   35.3345   45.7966 H   0  0  0  0  0  0  0  0  0  0  0  0
   57.1883   33.2602   44.5797 H   0  0  0  0  0  0  0  0  0  0  0  0
   58.2539   31.0659   43.6792 H   0  0  0  0  0  0  0  0  0  0  0  0
   59.0547   30.0152   44.9155 H   0  0  0  0  0  0  0  0  0  0  0  0
   55.0000   30.5725   44.5096 H   0  0  0  0  0  0  0  0  0  0  0  0
   56.2700   31.2924   43.4628 H   0  0  0  0  0  0  0  0  0  0  0  0
   56.0068   29.5155   43.4628 H   0  0  0  0  0  0  0  0  0  0  0  0
   57.0798   28.7914   46.6666 H   0  0  0  0  0  0  0  0  0  0  0  0
   56.2111   28.3130   45.1688 H   0  0  0  0  0  0  0  0  0  0  0  0
   58.0036   28.4308   45.1688 H   0  0  0  0  0  0  0  0  0  0  0  0
   63.3089   31.8250   46.0477 H   0  0  0  0  0  0  0  0  0  0  0  0
   64.9120   33.0340   47.3840 H   0  0  0  0  0  0  0  0  0  0  0  0
  1  2  1  0
  2  3  1  0
  3  4  2  0
  4  5  1  0
  5  6  2  0
  6  7  1  0
  7  8  1  0
  8  9  2  0
  9 10  1  0
 10 11  2  0
 11 12  1  0
 12 13  2  0
 13 14  1  0
 14 15  1  0
 15 16  1  0
 15 17  1  0
  6 18  1  0
 18 19  2  0
 19  3  1  0
 13  8  1  0
  1 20  1  0
  1 21  1  0
  1 22  1  0
  4 23  1  0
  5 24  1  0
  9 25  1  0
 10 26  1  0
 11 27  1  0
 12 28  1  0
 14 29  1  0
 14 30  1  0
 16 31  1  0
 16 32  1  0
 16 33  1  0
 17 34  1  0
 17 35  1  0
 17 36  1  0
 18 37  1  0
 19 38  1  0
M  CHG  1  19   1
M  END
>  <UniqueID>  (41) 
37

>  <SMILES>  (41) 
COc1ccc(Sc2ccccc2CN(C)C)c[nH+]1

>  <Energy>  (41) 
34.571575056796554

>  <Genealogy>  (41) 
COc1ccc(Sc2ccccc2CN(C)C)c[nH+]1 (protonated)
COc1ccc(Sc2ccccc2CN(C)C)c[nH+]1 (3D coordinates assigned)
COc1ccc(Sc2ccccc2CN(C)C)c[nH+]1 (optimized conformer: 34.571575056796554 kcal/mol)

>  <smiles>  (41) 
COc1ccc(Sc2ccccc2CN(C)C)cn1

>  <score_type>  (41) 
oracle

>  <origin>  (41) 
adg

>  <m_score__min__energy>  (41) 
-5.4299999999999997

>  <m_primary>  (41) 
energy

$$$$
41:0
     RDKit          3D

 33 34  0  0  0  0  0  0  0  0999 V2000
   63.6830   32.7430   46.7280 O   0  0  0  0  0  0  0  0  0  0  0  0
   62.6270   32.6100   47.4050 C   0  0  0  0  0  0  0  0  0  0  0  0
   61.8520   33.8200   47.8390 C   0  0  0  0  0  0  0  0  0  0  0  0
   60.4650   33.4810   48.2020 N   0  0  0  0  0  0  0  0  0  0  0  0
   59.5440   33.7490   47.1200 C   0  0  0  0  0  0  0  0  0  0  0  0
   59.9880   34.4000   45.9530 C   0  0  0  0  0  0  0  0  0  0  0  0
   59.1150   34.6150   44.8850 C   0  0  0  0  0  0  0  0  0  0  0  0
   57.7860   34.1920   44.9690 C   0  0  0  0  0  0  0  0  0  0  0  0
   57.3290   33.5550   46.1240 C   0  0  0  0  0  0  0  0  0  0  0  0
   58.1990   33.3320   47.1980 C   0  0  0  0  0  0  0  0  0  0  0  0
   57.7320   32.7130   48.3110 F   0  0  0  0  0  0  0  0  0  0  0  0
   62.1380   31.3430   47.7270 O   0  0  0  0  0  0  0  0  0  0  0  0
   61.4710   30.4900   46.8050 C   0  0  0  0  0  0  0  0  0  0  0  0
   60.0160   30.4260   47.1610 C   0  0  0  0  0  0  0  0  0  0  0  0
   59.6460   30.8010   48.3070 O   0  0  0  0  0  0  0  0  0  0  0  0
   59.0100   29.9180   46.2110 C   0  0  0  0  0  0  0  0  0  0  0  0
   58.3040   28.7190   46.2990 C   0  0  0  0  0  0  0  0  0  0  0  0
   57.3710   28.5460   45.2680 C   0  0  0  0  0  0  0  0  0  0  0  0
   57.3430   29.6060   44.3770 C   0  0  0  0  0  0  0  0  0  0  0  0
   56.2740   29.7550   43.0000 Cl  0  0  0  0  0  0  0  0  0  0  0  0
   58.4690   30.7570   44.8530 S   0  0  0  0  0  0  0  0  0  0  0  0
   62.3494   34.2668   48.7124 H   0  0  0  0  0  0  0  0  0  0  0  0
   61.8216   34.5265   46.9964 H   0  0  0  0  0  0  0  0  0  0  0  0
   60.4170   32.4620   48.4370 H   0  0  0  0  0  0  0  0  0  0  0  0
   60.1880   34.0070   49.0640 H   0  0  0  0  0  0  0  0  0  0  0  0
   61.0311   34.7419   45.8823 H   0  0  0  0  0  0  0  0  0  0  0  0
   59.4742   35.1185   43.9754 H   0  0  0  0  0  0  0  0  0  0  0  0
   57.1003   34.3608   44.1256 H   0  0  0  0  0  0  0  0  0  0  0  0
   56.2812   33.2269   46.1906 H   0  0  0  0  0  0  0  0  0  0  0  0
   61.5838   30.8888   45.7861 H   0  0  0  0  0  0  0  0  0  0  0  0
   61.9084   29.4817   46.8495 H   0  0  0  0  0  0  0  0  0  0  0  0
   58.4637   27.9813   47.0992 H   0  0  0  0  0  0  0  0  0  0  0  0
   56.7268   27.6592   45.1757 H   0  0  0  0  0  0  0  0  0  0  0  0
  1  2  2  0
  2  3  1  0
  3  4  1  0
  4  5  1  0
  5  6  2  0
  6  7  1  0
  7  8  2  0
  8  9  1  0
  9 10  2  0
 10 11  1  0
  2 12  1  0
 12 13  1  0
 13 14  1  0
 14 15  2  0
 14 16  1  0
 16 17  2  0
 17 18  1  0
 18 19  2  0
 19 20  1  0
 19 21  1  0
 10  5  1  0
 21 16  1  0
  3 22  1  0
  3 23  1  0
  4 24  1  0
  4 25  1  0
  6 26  1  0
  7 27  1  0
  8 28  1  0
  9 29  1  0
 13 30  1  0
 13 31  1  0
 17 32  1  0
 18 33  1  0
M  CHG  1   4   1
M  END
>  <UniqueID>  (42) 
38

>  <SMILES>  (42) 
O=C(C[NH2+]c1ccccc1F)OCC(=O)c1ccc(Cl)s1

>  <Energy>  (42) 
54.573533366876596

>  <Genealogy>  (42) 
O=C(C[NH2+]c1ccccc1F)OCC(=O)c1ccc(Cl)s1 (protonated)
O=C(C[NH2+]c1ccccc1F)OCC(=O)c1ccc(Cl)s1 (3D coordinates assigned)
O=C(C[NH2+]c1ccccc1F)OCC(=O)c1ccc(Cl)s1 (optimized conformer: 54.573533366876596 kcal/mol)

>  <smiles>  (42) 
O=C(CNc1ccccc1F)OCC(=O)c1ccc(Cl)s1

>  <score_type>  (42) 
oracle

>  <origin>  (42) 
adg

>  <m_score__min__energy>  (42) 
-5.6600000000000001

>  <m_primary>  (42) 
energy

$$$$
42:0
     RDKit          3D

 44 46  0  0  0  0  0  0  0  0999 V2000
   55.5850   23.2790   47.3410 C   0  0  0  0  0  0  0  0  0  0  0  0
   56.1670   24.5490   47.5440 O   0  0  0  0  0  0  0  0  0  0  0  0
   56.5390   25.1190   46.3050 C   0  0  0  0  0  0  0  0  0  0  0  0
   55.5240   26.1290   45.8680 C   0  0  0  0  0  0  0  0  0  0  0  0
   54.3240   25.7780   45.7090 O   0  0  0  0  0  0  0  0  0  0  0  0
   55.9380   27.4800   45.6230 N   0  0  0  0  0  0  0  0  0  0  0  0
   57.2420   27.9300   45.1300 C   0  0  2  0  0  0  0  0  0  0  0  0
   58.3820   27.5150   46.0950 C   0  0  0  0  0  0  0  0  0  0  0  0
   58.6360   28.5300   47.2290 C   0  0  0  0  0  0  0  0  0  0  0  0
   58.9430   29.9400   46.6900 C   0  0  0  0  0  0  0  0  0  0  0  0
   57.9540   30.3290   45.6270 C   0  0  0  0  0  0  0  0  0  0  0  0
   57.2600   29.4090   44.8760 C   0  0  0  0  0  0  0  0  0  0  0  0
   56.6440   30.1300   43.8730 C   0  0  0  0  0  0  0  0  0  0  0  0
   56.9920   31.4250   44.0150 N   0  0  0  0  0  0  0  0  0  0  0  0
   57.7850   31.5490   45.0710 N   0  0  0  0  0  0  0  0  0  0  0  0
   58.3880   32.7870   45.4750 C   0  0  0  0  0  0  0  0  0  0  0  0
   58.6950   33.7620   44.5160 C   0  0  0  0  0  0  0  0  0  0  0  0
   59.2690   34.9740   44.9050 C   0  0  0  0  0  0  0  0  0  0  0  0
   59.5300   35.2270   46.2540 C   0  0  0  0  0  0  0  0  0  0  0  0
   59.2080   34.2650   47.2300 C   0  0  0  0  0  0  0  0  0  0  0  0
   59.4370   34.4750   48.5990 O   0  0  0  0  0  0  0  0  0  0  0  0
   59.6840   33.4380   49.5410 C   0  0  0  0  0  0  0  0  0  0  0  0
   58.6340   33.0510   46.8320 C   0  0  0  0  0  0  0  0  0  0  0  0
   55.3717   22.8136   48.3146 H   0  0  0  0  0  0  0  0  0  0  0  0
   54.6484   23.3911   46.7751 H   0  0  0  0  0  0  0  0  0  0  0  0
   56.2814   22.6427   46.7751 H   0  0  0  0  0  0  0  0  0  0  0  0
   57.5170   25.6111   46.4118 H   0  0  0  0  0  0  0  0  0  0  0  0
   56.5967   24.3219   45.5492 H   0  0  0  0  0  0  0  0  0  0  0  0
   57.4162   27.4290   44.1663 H   0  0  0  0  0  0  0  0  0  0  0  0
   58.1188   26.5476   46.5475 H   0  0  0  0  0  0  0  0  0  0  0  0
   59.3046   27.4625   45.4984 H   0  0  0  0  0  0  0  0  0  0  0  0
   57.7404   28.5814   47.8656 H   0  0  0  0  0  0  0  0  0  0  0  0
   59.5128   28.1878   47.7983 H   0  0  0  0  0  0  0  0  0  0  0  0
   58.8872   30.6629   47.5172 H   0  0  0  0  0  0  0  0  0  0  0  0
   59.9518   29.9393   46.2515 H   0  0  0  0  0  0  0  0  0  0  0  0
   55.9845   29.7199   43.0940 H   0  0  0  0  0  0  0  0  0  0  0  0
   56.6960   32.2090   43.3910 H   0  0  0  0  0  0  0  0  0  0  0  0
   58.4831   33.5718   43.4535 H   0  0  0  0  0  0  0  0  0  0  0  0
   59.5164   35.7318   44.1471 H   0  0  0  0  0  0  0  0  0  0  0  0
   59.9885   36.1807   46.5544 H   0  0  0  0  0  0  0  0  0  0  0  0
   59.5885   33.8388   50.5609 H   0  0  0  0  0  0  0  0  0  0  0  0
   58.9535   32.6286   49.3952 H   0  0  0  0  0  0  0  0  0  0  0  0
   60.7009   33.0448   49.3952 H   0  0  0  0  0  0  0  0  0  0  0  0
   58.3734   32.2973   47.5896 H   0  0  0  0  0  0  0  0  0  0  0  0
  1  2  1  0
  2  3  1  0
  3  4  1  0
  4  5  2  0
  4  6  1  0
  6  7  1  0
  7  8  1  0
  8  9  1  0
  9 10  1  0
 10 11  1  0
 11 12  2  0
 12 13  1  0
 13 14  2  0
 14 15  1  0
 15 16  1  0
 16 17  2  0
 17 18  1  0
 18 19  2  0
 19 20  1  0
 20 21  1  0
 21 22  1  0
 20 23  2  0
 12  7  1  0
 23 16  1  0
 15 11  1  0
  1 24  1  0
  1 25  1  0
  1 26  1  0
  3 27  1  0
  3 28  1  0
  7 29  1  6
  8 30  1  0
  8 31  1  0
  9 32  1  0
  9 33  1  0
 10 34  1  0
 10 35  1  0
 13 36  1  0
 14 37  1  0
 17 38  1  0
 18 39  1  0
 19 40  1  0
 22 41  1  0
 22 42  1  0
 22 43  1  0
 23 44  1  0
M  CHG  2   6  -1  14   1
M  END
>  <UniqueID>  (43) 
39

>  <SMILES>  (43) 
COCC(=O)[N-][C@@H]1CCCc2c1c[nH+]n2-c1cccc(OC)c1

>  <Energy>  (43) 
83.14493165076948

>  <Genealogy>  (43) 
COCC(=O)[N-]C1CCCc2c1c[nH+]n2-c1cccc(OC)c1 (protonated)
COCC(=O)[N-][C@@H]1CCCc2c1c[nH+]n2-c1cccc(OC)c1 (chirality)
COCC(=O)[N-][C@@H]1CCCc2c1c[nH+]n2-c1cccc(OC)c1 (3D coordinates assigned)
COCC(=O)[N-][C@@H]1CCCc2c1c[nH+]n2-c1cccc(OC)c1 (nonaromatic ring conformer: 83.14493165076948 kcal/mol)

>  <smiles>  (43) 
COCC(=O)NC1CCCc2c1cnn2-c1cccc(OC)c1

>  <score_type>  (43) 
oracle

>  <origin>  (43) 
adg

>  <m_score__min__energy>  (43) 
-8.1099999999999994

>  <m_primary>  (43) 
energy

$$$$
43:0
     RDKit          3D

 33 34  0  0  0  0  0  0  0  0999 V2000
   57.8270   28.2649   46.0051 H   0  0  0  0  0  0  0  0  0  0  0  0
   57.8250   29.1380   45.3360 C   0  0  0  0  0  0  0  0  0  0  0  0
   58.9510   29.6740   44.9780 N   0  0  0  0  0  0  0  0  0  0  0  0
   60.1070   29.7670   45.8660 C   0  0  0  0  0  0  0  0  0  0  0  0
   60.5578   28.7694   45.9734 H   0  0  0  0  0  0  0  0  0  0  0  0
   60.8269   30.4734   45.4269 H   0  0  0  0  0  0  0  0  0  0  0  0
   59.7030   30.2850   47.2520 C   0  0  0  0  0  0  0  0  0  0  0  0
   58.6260   30.5087   47.2507 H   0  0  0  0  0  0  0  0  0  0  0  0
   59.9389   29.5086   47.9946 H   0  0  0  0  0  0  0  0  0  0  0  0
   60.4640   31.5360   47.6140 C   0  0  0  0  0  0  0  0  0  0  0  0
   61.7710   31.7350   47.1380 C   0  0  0  0  0  0  0  0  0  0  0  0
   62.2324   30.9895   46.4736 H   0  0  0  0  0  0  0  0  0  0  0  0
   62.4870   32.8790   47.5070 C   0  0  0  0  0  0  0  0  0  0  0  0
   63.5078   33.0336   47.1274 H   0  0  0  0  0  0  0  0  0  0  0  0
   61.9090   33.8250   48.3560 C   0  0  0  0  0  0  0  0  0  0  0  0
   62.4734   34.7243   48.6438 H   0  0  0  0  0  0  0  0  0  0  0  0
   60.6120   33.6280   48.8400 C   0  0  0  0  0  0  0  0  0  0  0  0
   60.1572   34.3733   49.5091 H   0  0  0  0  0  0  0  0  0  0  0  0
   59.8920   32.4870   48.4760 C   0  0  0  0  0  0  0  0  0  0  0  0
   58.8748   32.3329   48.8653 H   0  0  0  0  0  0  0  0  0  0  0  0
   56.5440   29.6850   44.8570 C   0  0  0  0  0  0  0  0  0  0  0  0
   55.5130   28.9690   44.9410 O   0  0  0  0  0  0  0  0  0  0  0  0
   56.4130   31.0310   44.3740 N   0  0  0  0  0  0  0  0  0  0  0  0
   57.1290   32.0520   44.7480 C   0  0  0  0  0  0  0  0  0  0  0  0
   57.0170   32.5720   46.0040 N   0  0  0  0  0  0  0  0  0  0  0  0
   57.7700   33.6260   46.4180 C   0  0  0  0  0  0  0  0  0  0  0  0
   57.6484   34.0225   47.4368 H   0  0  0  0  0  0  0  0  0  0  0  0
   58.6980   34.2050   45.5490 C   0  0  0  0  0  0  0  0  0  0  0  0
   59.6730   35.5660   46.0710 Cl  0  0  0  0  0  0  0  0  0  0  0  0
   58.8420   33.6850   44.2610 C   0  0  0  0  0  0  0  0  0  0  0  0
   59.5708   34.1281   43.5663 H   0  0  0  0  0  0  0  0  0  0  0  0
   58.0590   32.6010   43.8560 C   0  0  0  0  0  0  0  0  0  0  0  0
   58.1719   32.1822   42.8451 H   0  0  0  0  0  0  0  0  0  0  0  0
  1  2  1  0
  2  3  2  0
  3  4  1  0
  4  5  1  0
  4  6  1  0
  4  7  1  0
  7  8  1  0
  7  9  1  0
  7 10  1  0
 10 11  2  0
 11 12  1  0
 11 13  1  0
 13 14  1  0
 13 15  2  0
 15 16  1  0
 15 17  1  0
 17 18  1  0
 17 19  2  0
 19 20  1  0
  2 21  1  0
 21 22  2  0
 21 23  1  0
 23 24  2  0
 24 25  1  0
 25 26  1  0
 26 27  1  0
 26 28  2  0
 28 29  1  0
 28 30  1  0
 30 31  1  0
 30 32  2  0
 32 33  1  0
 19 10  1  0
 32 24  1  0
M  CHG  1  25  -1
M  END
>  <UniqueID>  (44) 
40

>  <SMILES>  (44) 
O=C(/C=N/CCc1ccccc1)/N=c1/ccc(Cl)c[n-]1

>  <Energy>  (44) 
34.85015210507191

>  <Genealogy>  (44) 
O=C(C=NCCc1ccccc1)N=c1ccc(Cl)c[n-]1 (protonated)
O=C(/C=N/CCc1ccccc1)/N=c1/ccc(Cl)c[n-]1 (cis-trans isomerization)
O=C(/C=N/CCc1ccccc1)/N=c1/ccc(Cl)c[n-]1 (3D coordinates assigned)
O=C(/C=N/CCc1ccccc1)/N=c1/ccc(Cl)c[n-]1 (optimized conformer: 34.85015210507191 kcal/mol)

>  <smiles>  (44) 
O=C(C=NCCc1ccccc1)N=c1ccc(Cl)c[nH]1

>  <score_type>  (44) 
oracle

>  <origin>  (44) 
adg

>  <m_score__min__energy>  (44) 
-9.2899999999999991

>  <m_primary>  (44) 
energy

$$$$
44:0
     RDKit          3D

 44 46  0  0  0  0  0  0  0  0999 V2000
   60.0510   28.3870   45.6290 C   0  0  0  0  0  0  0  0  0  0  0  0
   58.7770   27.7390   45.0960 C   0  0  0  0  0  0  0  0  0  0  0  0
   58.0980   28.6220   44.1490 N   0  0  0  0  0  0  0  0  0  0  0  0
   56.7080   28.9430   44.2920 C   0  0  0  0  0  0  0  0  0  0  0  0
   56.0350   28.4510   45.2380 O   0  0  0  0  0  0  0  0  0  0  0  0
   56.0560   29.8940   43.3360 C   0  0  0  0  0  0  0  0  0  0  0  0
   56.8840   31.0890   43.1760 N   0  0  0  0  0  0  0  0  0  0  0  0
   57.2820   31.6310   42.0010 C   0  0  0  0  0  0  0  0  0  0  0  0
   58.1190   32.7200   42.2230 C   0  0  0  0  0  0  0  0  0  0  0  0
   58.2300   32.8200   43.5930 C   0  0  0  0  0  0  0  0  0  0  0  0
   58.9570   33.7140   44.3760 C   0  0  0  0  0  0  0  0  0  0  0  0
   58.8980   33.5650   45.7760 C   0  0  0  0  0  0  0  0  0  0  0  0
   59.8230   34.6500   46.8090 S   0  0  0  0  0  0  0  0  0  0  0  0
   58.9490   35.1560   47.9250 O   0  0  0  0  0  0  0  0  0  0  0  0
   60.2900   35.8260   45.9970 O   0  0  0  0  0  0  0  0  0  0  0  0
   61.2050   33.7980   47.4490 N   0  0  0  0  0  0  0  0  0  0  0  0
   62.4270   34.1520   46.7300 C   0  0  0  0  0  0  0  0  0  0  0  0
   63.3640   32.9620   46.8580 C   0  0  0  0  0  0  0  0  0  0  0  0
   62.4680   31.7810   47.1980 C   0  0  0  0  0  0  0  0  0  0  0  0
   61.0600   32.3520   47.2850 C   0  0  0  0  0  0  0  0  0  0  0  0
   58.1270   32.5230   46.3470 C   0  0  0  0  0  0  0  0  0  0  0  0
   57.4040   31.6370   45.5280 C   0  0  0  0  0  0  0  0  0  0  0  0
   57.4750   31.8170   44.1450 C   0  0  0  0  0  0  0  0  0  0  0  0
   60.0342   28.3785   46.7288 H   0  0  0  0  0  0  0  0  0  0  0  0
   60.9259   27.8244   45.2713 H   0  0  0  0  0  0  0  0  0  0  0  0
   60.1115   29.4254   45.2713 H   0  0  0  0  0  0  0  0  0  0  0  0
   59.0369   26.7984   44.5883 H   0  0  0  0  0  0  0  0  0  0  0  0
   58.1012   27.5457   45.9421 H   0  0  0  0  0  0  0  0  0  0  0  0
   58.6290   29.0420   43.3520 H   0  0  0  0  0  0  0  0  0  0  0  0
   55.9336   29.4023   42.3597 H   0  0  0  0  0  0  0  0  0  0  0  0
   55.0725   30.1867   43.7323 H   0  0  0  0  0  0  0  0  0  0  0  0
   56.9848   31.2616   41.0084 H   0  0  0  0  0  0  0  0  0  0  0  0
   58.5914   33.3638   41.4664 H   0  0  0  0  0  0  0  0  0  0  0  0
   59.5585   34.5116   43.9156 H   0  0  0  0  0  0  0  0  0  0  0  0
   62.2019   34.3461   45.6709 H   0  0  0  0  0  0  0  0  0  0  0  0
   62.8826   35.0631   47.1450 H   0  0  0  0  0  0  0  0  0  0  0  0
   63.8928   32.7842   45.9100 H   0  0  0  0  0  0  0  0  0  0  0  0
   64.1342   33.1270   47.6258 H   0  0  0  0  0  0  0  0  0  0  0  0
   62.5247   31.0158   46.4098 H   0  0  0  0  0  0  0  0  0  0  0  0
   62.7708   31.2957   48.1376 H   0  0  0  0  0  0  0  0  0  0  0  0
   60.5022   32.1286   46.3636 H   0  0  0  0  0  0  0  0  0  0  0  0
   60.5044   31.9111   48.1258 H   0  0  0  0  0  0  0  0  0  0  0  0
   58.0934   32.4057   47.4402 H   0  0  0  0  0  0  0  0  0  0  0  0
   56.8009   30.8268   45.9637 H   0  0  0  0  0  0  0  0  0  0  0  0
  1  2  1  0
  2  3  1  0
  3  4  1  0
  4  5  2  0
  4  6  1  0
  6  7  1  0
  7  8  1  0
  8  9  2  0
  9 10  1  0
 10 11  2  0
 11 12  1  0
 12 13  1  0
 13 14  2  0
 13 15  2  0
 13 16  1  0
 16 17  1  0
 17 18  1  0
 18 19  1  0
 19 20  1  0
 12 21  2  0
 21 22  1  0
 22 23  2  0
 23  7  1  0
 23 10  1  0
 20 16  1  0
  1 24  1  0
  1 25  1  0
  1 26  1  0
  2 27  1  0
  2 28  1  0
  3 29  1  0
  6 30  1  0
  6 31  1  0
  8 32  1  0
  9 33  1  0
 11 34  1  0
 17 35  1  0
 17 36  1  0
 18 37  1  0
 18 38  1  0
 19 39  1  0
 19 40  1  0
 20 41  1  0
 20 42  1  0
 21 43  1  0
 22 44  1  0
M  END
>  <UniqueID>  (45) 
41

>  <SMILES>  (45) 
CCNC(=O)Cn1ccc2cc(S(=O)(=O)N3CCCC3)ccc21

>  <Energy>  (45) 
70.74058746402157

>  <Genealogy>  (45) 
CCNC(=O)Cn1ccc2cc(S(=O)(=O)N3CCCC3)ccc21 (3D coordinates assigned)
CCNC(=O)Cn1ccc2cc(S(=O)(=O)N3CCCC3)ccc21 (nonaromatic ring conformer: 70.74058746402157 kcal/mol)

>  <smiles>  (45) 
CCNC(=O)Cn1ccc2cc(S(=O)(=O)N3CCCC3)ccc21

>  <score_type>  (45) 
oracle

>  <origin>  (45) 
adg

>  <m_score__min__energy>  (45) 
-8.2699999999999996

>  <m_primary>  (45) 
energy

$$$$
45:0
     RDKit          3D

 35 35  0  0  0  0  0  0  0  0999 V2000
   59.6570   33.8410   51.1240 C   0  0  0  0  0  0  0  0  0  0  0  0
   59.7810   33.7170   49.6780 N   0  0  0  0  0  0  0  0  0  0  0  0
   60.9910   34.0660   48.9920 C   0  0  0  0  0  0  0  0  0  0  0  0
   61.9470   34.5850   49.6320 O   0  0  0  0  0  0  0  0  0  0  0  0
   61.1150   33.8550   47.5720 N   0  0  0  0  0  0  0  0  0  0  0  0
   60.1960   34.5640   46.6630 C   0  0  0  0  0  0  0  0  0  0  0  0
   59.2480   33.5980   45.9990 C   0  0  0  0  0  0  0  0  0  0  0  0
   58.6350   33.9320   44.7820 C   0  0  0  0  0  0  0  0  0  0  0  0
   57.7820   33.0250   44.1480 C   0  0  0  0  0  0  0  0  0  0  0  0
   57.5260   31.7650   44.7170 C   0  0  0  0  0  0  0  0  0  0  0  0
   56.6480   30.8280   44.0680 N   0  0  0  0  0  0  0  0  0  0  0  0
   56.6840   30.6760   42.8280 O   0  0  0  0  0  0  0  0  0  0  0  0
   55.7550   30.0810   44.8010 O   0  0  0  0  0  0  0  0  0  0  0  0
   58.1440   31.4340   45.9350 C   0  0  0  0  0  0  0  0  0  0  0  0
   58.9980   32.3400   46.5690 C   0  0  0  0  0  0  0  0  0  0  0  0
   62.2460   33.0590   47.0530 C   0  0  0  0  0  0  0  0  0  0  0  0
   63.5600   33.8400   47.1400 C   0  0  0  0  0  0  0  0  0  0  0  0
   62.3460   31.7090   47.7740 C   0  0  0  0  0  0  0  0  0  0  0  0
   60.3538   33.1442   51.6129 H   0  0  0  0  0  0  0  0  0  0  0  0
   59.8969   34.8713   51.4256 H   0  0  0  0  0  0  0  0  0  0  0  0
   58.6267   33.6011   51.4256 H   0  0  0  0  0  0  0  0  0  0  0  0
   58.9480   33.4070   49.1300 H   0  0  0  0  0  0  0  0  0  0  0  0
   59.6159   35.3001   47.2389 H   0  0  0  0  0  0  0  0  0  0  0  0
   60.7886   35.0673   45.8848 H   0  0  0  0  0  0  0  0  0  0  0  0
   58.8271   34.9136   44.3243 H   0  0  0  0  0  0  0  0  0  0  0  0
   57.3063   33.2992   43.1948 H   0  0  0  0  0  0  0  0  0  0  0  0
   57.9536   30.4524   46.3935 H   0  0  0  0  0  0  0  0  0  0  0  0
   59.4772   32.0658   47.5204 H   0  0  0  0  0  0  0  0  0  0  0  0
   62.0549   32.8546   45.9892 H   0  0  0  0  0  0  0  0  0  0  0  0
   63.8240   33.9969   48.1962 H   0  0  0  0  0  0  0  0  0  0  0  0
   64.3589   33.2700   46.6431 H   0  0  0  0  0  0  0  0  0  0  0  0
   63.4411   34.8142   46.6431 H   0  0  0  0  0  0  0  0  0  0  0  0
   62.3339   31.8725   48.8617 H   0  0  0  0  0  0  0  0  0  0  0  0
   61.4922   31.0768   47.4887 H   0  0  0  0  0  0  0  0  0  0  0  0
   63.2836   31.2095   47.4887 H   0  0  0  0  0  0  0  0  0  0  0  0
  1  2  1  0
  2  3  1  0
  3  4  2  0
  3  5  1  0
  5  6  1  0
  6  7  1  0
  7  8  2  0
  8  9  1  0
  9 10  2  0
 10 11  1  0
 11 12  2  0
 11 13  1  0
 10 14  1  0
 14 15  2  0
  5 16  1  0
 16 17  1  0
 16 18  1  0
 15  7  1  0
  1 19  1  0
  1 20  1  0
  1 21  1  0
  2 22  1  0
  6 23  1  0
  6 24  1  0
  8 25  1  0
  9 26  1  0
 14 27  1  0
 15 28  1  0
 16 29  1  0
 17 30  1  0
 17 31  1  0
 17 32  1  0
 18 33  1  0
 18 34  1  0
 18 35  1  0
M  CHG  2  11   1  13  -1
M  END
>  <UniqueID>  (46) 
42

>  <SMILES>  (46) 
CNC(=O)N(Cc1ccc([N+](=O)[O-])cc1)C(C)C

>  <Energy>  (46) 
28.29456493224717

>  <Genealogy>  (46) 
CNC(=O)N(Cc1ccc([N+](=O)[O-])cc1)C(C)C (3D coordinates assigned)
CNC(=O)N(Cc1ccc([N+](=O)[O-])cc1)C(C)C (optimized conformer: 28.29456493224717 kcal/mol)

>  <smiles>  (46) 
CNC(=O)N(Cc1ccc([N+](=O)[O-])cc1)C(C)C

>  <score_type>  (46) 
oracle

>  <origin>  (46) 
adg

>  <m_score__min__energy>  (46) 
-6.1799999999999997

>  <m_primary>  (46) 
energy

$$$$
46:0
     RDKit          3D

 65 64  0  0  0  0  0  0  0  0999 V2000
   59.2320   34.6150   47.5220 C   0  0  0  0  0  0  0  0  0  0  0  0
   59.7090   35.0750   46.1430 C   0  0  0  0  0  0  0  0  0  0  0  0
   58.8390   34.5270   45.0000 C   0  0  0  0  0  0  0  0  0  0  0  0
   57.4150   34.1740   45.4640 C   0  0  0  0  0  0  0  0  0  0  0  0
   57.0330   32.7170   45.1550 C   0  0  0  0  0  0  0  0  0  0  0  0
   58.0790   32.0040   44.2850 C   0  0  0  0  0  0  0  0  0  0  0  0
   57.4320   31.3820   43.0360 C   0  0  0  0  0  0  0  0  0  0  0  0
   56.2600   30.4420   43.3930 C   0  0  0  0  0  0  0  0  0  0  0  0
   56.5940   29.4240   44.5030 C   0  0  0  0  0  0  0  0  0  0  0  0
   57.7910   28.5020   44.2050 C   0  0  0  0  0  0  0  0  0  0  0  0
   58.3140   27.7750   45.4560 C   0  0  0  0  0  0  0  0  0  0  0  0
   58.8410   28.7390   46.5380 C   0  0  0  0  0  0  0  0  0  0  0  0
   60.0170   29.6160   46.0780 C   0  0  0  0  0  0  0  0  0  0  0  0
   60.1640   30.8560   46.9030 C   0  0  0  0  0  0  0  0  0  0  0  0
   60.3530   31.9690   46.3400 O   0  0  0  0  0  0  0  0  0  0  0  0
   60.0900   30.7630   48.2960 O   0  0  0  0  0  0  0  0  0  0  0  0
   61.1490   30.2370   49.0870 C   0  0  0  0  0  0  0  0  0  0  0  0
   62.1690   31.3370   49.4380 C   0  0  0  0  0  0  0  0  0  0  0  0
   62.1440   32.5390   48.5540 N   0  0  0  0  0  0  0  0  0  0  0  0
   62.0980   33.7940   49.3540 C   0  0  0  0  0  0  0  0  0  0  0  0
   60.9040   33.8390   50.3160 C   0  0  0  0  0  0  0  0  0  0  0  0
   63.2470   32.5830   47.5580 C   0  0  0  0  0  0  0  0  0  0  0  0
   63.1820   33.8060   46.6360 C   0  0  0  0  0  0  0  0  0  0  0  0
   59.7905   35.1536   48.3017 H   0  0  0  0  0  0  0  0  0  0  0  0
   58.1578   34.8268   47.6279 H   0  0  0  0  0  0  0  0  0  0  0  0
   59.4047   33.5338   47.6279 H   0  0  0  0  0  0  0  0  0  0  0  0
   59.6817   36.1742   46.1099 H   0  0  0  0  0  0  0  0  0  0  0  0
   60.7287   34.6885   45.9986 H   0  0  0  0  0  0  0  0  0  0  0  0
   58.7742   35.2887   44.2090 H   0  0  0  0  0  0  0  0  0  0  0  0
   59.3106   33.6036   44.6327 H   0  0  0  0  0  0  0  0  0  0  0  0
   57.3500   34.3317   46.5507 H   0  0  0  0  0  0  0  0  0  0  0  0
   56.7168   34.8234   44.9156 H   0  0  0  0  0  0  0  0  0  0  0  0
   56.9324   32.1703   46.1042 H   0  0  0  0  0  0  0  0  0  0  0  0
   56.0872   32.7324   44.5935 H   0  0  0  0  0  0  0  0  0  0  0  0
   58.8404   32.7326   43.9697 H   0  0  0  0  0  0  0  0  0  0  0  0
   58.5357   31.1985   44.8788 H   0  0  0  0  0  0  0  0  0  0  0  0
   57.0544   32.1905   42.3928 H   0  0  0  0  0  0  0  0  0  0  0  0
   58.1986   30.7851   42.5203 H   0  0  0  0  0  0  0  0  0  0  0  0
   55.4125   31.0570   43.7300 H   0  0  0  0  0  0  0  0  0  0  0  0
   56.0263   29.8632   42.4873 H   0  0  0  0  0  0  0  0  0  0  0  0
   56.8160   29.9840   45.4234 H   0  0  0  0  0  0  0  0  0  0  0  0
   55.7159   28.7673   44.5908 H   0  0  0  0  0  0  0  0  0  0  0  0
   57.4785   27.7489   43.4666 H   0  0  0  0  0  0  0  0  0  0  0  0
   58.6074   29.1340   43.8255 H   0  0  0  0  0  0  0  0  0  0  0  0
   57.4932   27.1816   45.8852 H   0  0  0  0  0  0  0  0  0  0  0  0
   59.1570   27.1428   45.1403 H   0  0  0  0  0  0  0  0  0  0  0  0
   58.0162   29.3996   46.8436 H   0  0  0  0  0  0  0  0  0  0  0  0
   59.2141   28.1156   47.3639 H   0  0  0  0  0  0  0  0  0  0  0  0
   60.9448   29.0299   46.1535 H   0  0  0  0  0  0  0  0  0  0  0  0
   59.8176   29.9257   45.0415 H   0  0  0  0  0  0  0  0  0  0  0  0
   60.7326   29.8215   50.0165 H   0  0  0  0  0  0  0  0  0  0  0  0
   61.6616   29.4517   48.5121 H   0  0  0  0  0  0  0  0  0  0  0  0
   61.9694   31.6688   50.4676 H   0  0  0  0  0  0  0  0  0  0  0  0
   63.1621   30.8832   49.3043 H   0  0  0  0  0  0  0  0  0  0  0  0
   61.2460   32.4730   48.0160 H   0  0  0  0  0  0  0  0  0  0  0  0
   63.0255   33.8719   49.9403 H   0  0  0  0  0  0  0  0  0  0  0  0
   61.9899   34.6328   48.6506 H   0  0  0  0  0  0  0  0  0  0  0  0
   61.2685   33.8253   51.3538 H   0  0  0  0  0  0  0  0  0  0  0  0
   60.3275   34.7595   50.1420 H   0  0  0  0  0  0  0  0  0  0  0  0
   60.2598   32.9645   50.1420 H   0  0  0  0  0  0  0  0  0  0  0  0
   64.2049   32.6035   48.0983 H   0  0  0  0  0  0  0  0  0  0  0  0
   63.1488   31.6902   46.9229 H   0  0  0  0  0  0  0  0  0  0  0  0
   63.1333   34.7214   47.2440 H   0  0  0  0  0  0  0  0  0  0  0  0
   64.0799   33.8348   46.0012 H   0  0  0  0  0  0  0  0  0  0  0  0
   62.2861   33.7394   46.0012 H   0  0  0  0  0  0  0  0  0  0  0  0
  1  2  1  0
  2  3  1  0
  3  4  1  0
  4  5  1  0
  5  6  1  0
  6  7  1  0
  7  8  1  0
  8  9  1  0
  9 10  1  0
 10 11  1  0
 11 12  1  0
 12 13  1  0
 13 14  1  0
 14 15  2  0
 14 16  1  0
 16 17  1  0
 17 18  1  0
 18 19  1  0
 19 20  1  0
 20 21  1  0
 19 22  1  0
 22 23  1  0
  1 24  1  0
  1 25  1  0
  1 26  1  0
  2 27  1  0
  2 28  1  0
  3 29  1  0
  3 30  1  0
  4 31  1  0
  4 32  1  0
  5 33  1  0
  5 34  1  0
  6 35  1  0
  6 36  1  0
  7 37  1  0
  7 38  1  0
  8 39  1  0
  8 40  1  0
  9 41  1  0
  9 42  1  0
 10 43  1  0
 10 44  1  0
 11 45  1  0
 11 46  1  0
 12 47  1  0
 12 48  1  0
 13 49  1  0
 13 50  1  0
 17 51  1  0
 17 52  1  0
 18 53  1  0
 18 54  1  0
 19 55  1  0
 20 56  1  0
 20 57  1  0
 21 58  1  0
 21 59  1  0
 21 60  1  0
 22 61  1  0
 22 62  1  0
 23 63  1  0
 23 64  1  0
 23 65  1  0
M  CHG  1  19   1
M  END
>  <UniqueID>  (47) 
43

>  <SMILES>  (47) 
CCCCCCCCCCCCCC(=O)OCC[NH+](CC)CC

>  <Energy>  (47) 
39.68516507994312

>  <Genealogy>  (47) 
CCCCCCCCCCCCCC(=O)OCC[NH+](CC)CC (protonated)
CCCCCCCCCCCCCC(=O)OCC[NH+](CC)CC (3D coordinates assigned)
CCCCCCCCCCCCCC(=O)OCC[NH+](CC)CC (optimized conformer: 39.68516507994312 kcal/mol)

>  <smiles>  (47) 
CCCCCCCCCCCCCC(=O)OCCN(CC)CC

>  <score_type>  (47) 
oracle

>  <origin>  (47) 
adg

>  <m_score__min__energy>  (47) 
-3.77

>  <m_primary>  (47) 
energy

$$$$
47:0
     RDKit          3D

 51 54  0  0  0  0  0  0  0  0999 V2000
   64.9120   33.7720   51.2310 C   0  0  0  0  0  0  0  0  0  0  0  0
   63.3420   34.6230   50.8600 S   0  0  0  0  0  0  0  0  0  0  0  0
   62.8360   33.4030   49.6520 C   0  0  0  0  0  0  0  0  0  0  0  0
   63.4710   33.3300   48.4520 N   0  0  0  0  0  0  0  0  0  0  0  0
   63.0980   32.4170   47.5190 C   0  0  0  0  0  0  0  0  0  0  0  0
   62.0450   31.5360   47.7800 C   0  0  0  0  0  0  0  0  0  0  0  0
   61.4170   31.6090   49.0390 C   0  0  0  0  0  0  0  0  0  0  0  0
   61.8170   32.5510   49.9350 N   0  0  0  0  0  0  0  0  0  0  0  0
   60.2550   30.7230   49.3860 C   0  0  0  0  0  0  0  0  0  0  0  0
   60.2750   29.4310   48.5710 C   0  0  0  0  0  0  0  0  0  0  0  0
   60.4570   29.7520   47.1510 N   0  0  0  0  0  0  0  0  0  0  0  0
   59.5970   29.1880   46.1450 C   0  0  0  0  0  0  0  0  0  0  0  0
   59.9610   28.0260   45.4480 C   0  0  0  0  0  0  0  0  0  0  0  0
   59.0930   27.5030   44.4890 C   0  0  0  0  0  0  0  0  0  0  0  0
   57.8730   28.1310   44.2340 C   0  0  0  0  0  0  0  0  0  0  0  0
   57.5370   29.2950   44.9410 C   0  0  0  0  0  0  0  0  0  0  0  0
   56.2410   29.9740   44.7160 C   0  0  0  0  0  0  0  0  0  0  0  0
   55.1720   29.3120   44.7800 O   0  0  0  0  0  0  0  0  0  0  0  0
   56.1590   31.3890   44.4940 N   0  0  0  0  0  0  0  0  0  0  0  0
   57.1520   32.3530   44.8720 C   0  0  0  0  0  0  0  0  0  0  0  0
   57.1120   32.8720   46.1720 C   0  0  0  0  0  0  0  0  0  0  0  0
   58.0470   33.8220   46.5880 C   0  0  0  0  0  0  0  0  0  0  0  0
   59.0320   34.2790   45.6980 C   0  0  0  0  0  0  0  0  0  0  0  0
   60.0320   35.3120   46.1240 C   0  0  0  0  0  0  0  0  0  0  0  0
   59.0590   33.7870   44.3860 C   0  0  0  0  0  0  0  0  0  0  0  0
   58.1140   32.8410   43.9530 C   0  0  0  0  0  0  0  0  0  0  0  0
   58.1540   32.3830   42.5190 C   0  0  0  0  0  0  0  0  0  0  0  0
   58.4050   29.7860   45.8680 N   0  0  0  0  0  0  0  0  0  0  0  0
   61.6430   30.5150   46.7410 C   0  0  0  0  0  0  0  0  0  0  0  0
   65.0422   33.7014   52.3210 H   0  0  0  0  0  0  0  0  0  0  0  0
   64.8924   32.7611   50.7979 H   0  0  0  0  0  0  0  0  0  0  0  0
   65.7483   34.3403   50.7979 H   0  0  0  0  0  0  0  0  0  0  0  0
   63.6260   32.3706   46.5551 H   0  0  0  0  0  0  0  0  0  0  0  0
   60.3036   30.4719   50.4558 H   0  0  0  0  0  0  0  0  0  0  0  0
   59.3260   31.2642   49.1534 H   0  0  0  0  0  0  0  0  0  0  0  0
   61.1048   28.7947   48.9125 H   0  0  0  0  0  0  0  0  0  0  0  0
   59.3233   28.8964   48.7073 H   0  0  0  0  0  0  0  0  0  0  0  0
   60.9216   27.5320   45.6557 H   0  0  0  0  0  0  0  0  0  0  0  0
   59.3704   26.5950   43.9335 H   0  0  0  0  0  0  0  0  0  0  0  0
   57.1813   27.7170   43.4855 H   0  0  0  0  0  0  0  0  0  0  0  0
   56.3365   32.5280   46.8722 H   0  0  0  0  0  0  0  0  0  0  0  0
   58.0118   34.2133   47.6155 H   0  0  0  0  0  0  0  0  0  0  0  0
   60.0716   35.3529   47.2225 H   0  0  0  0  0  0  0  0  0  0  0  0
   61.0243   35.0457   45.7310 H   0  0  0  0  0  0  0  0  0  0  0  0
   59.7337   36.2951   45.7310 H   0  0  0  0  0  0  0  0  0  0  0  0
   59.8289   34.1454   43.6869 H   0  0  0  0  0  0  0  0  0  0  0  0
   58.2497   31.2877   42.4865 H   0  0  0  0  0  0  0  0  0  0  0  0
   57.2260   32.6853   42.0115 H   0  0  0  0  0  0  0  0  0  0  0  0
   59.0155   32.8415   42.0115 H   0  0  0  0  0  0  0  0  0  0  0  0
   62.4789   29.8168   46.5869 H   0  0  0  0  0  0  0  0  0  0  0  0
   61.3978   31.0523   45.8130 H   0  0  0  0  0  0  0  0  0  0  0  0
  1  2  1  0
  2  3  1  0
  3  4  2  0
  4  5  1  0
  5  6  2  0
  6  7  1  0
  7  8  2  0
  7  9  1  0
  9 10  1  0
 10 11  1  0
 11 12  1  0
 12 13  2  0
 13 14  1  0
 14 15  2  0
 15 16  1  0
 16 17  1  0
 17 18  2  0
 17 19  1  0
 19 20  1  0
 20 21  2  0
 21 22  1  0
 22 23  2  0
 23 24  1  0
 23 25  1  0
 25 26  2  0
 26 27  1  0
 16 28  2  0
 11 29  1  0
  8  3  1  0
 28 12  1  0
 29  6  1  0
 26 20  1  0
  1 30  1  0
  1 31  1  0
  1 32  1  0
  5 33  1  0
  9 34  1  0
  9 35  1  0
 10 36  1  0
 10 37  1  0
 13 38  1  0
 14 39  1  0
 15 40  1  0
 21 41  1  0
 22 42  1  0
 24 43  1  0
 24 44  1  0
 24 45  1  0
 25 46  1  0
 27 47  1  0
 27 48  1  0
 27 49  1  0
 29 50  1  0
 29 51  1  0
M  CHG  1  19  -1
M  END
>  <UniqueID>  (48) 
44

>  <SMILES>  (48) 
CSc1ncc2c(n1)CCN(c1cccc(C(=O)[N-]c3ccc(C)cc3C)n1)C2

>  <Energy>  (48) 
60.74215875106863

>  <Genealogy>  (48) 
CSc1ncc2c(n1)CCN(c1cccc(C(=O)[N-]c3ccc(C)cc3C)n1)C2 (protonated)
CSc1ncc2c(n1)CCN(c1cccc(C(=O)[N-]c3ccc(C)cc3C)n1)C2 (3D coordinates assigned)
CSc1ncc2c(n1)CCN(c1cccc(C(=O)[N-]c3ccc(C)cc3C)n1)C2 (nonaromatic ring conformer: 60.74215875106863 kcal/mol)

>  <smiles>  (48) 
CSc1ncc2c(n1)CCN(c1cccc(C(=O)Nc3ccc(C)cc3C)n1)C2

>  <score_type>  (48) 
oracle

>  <origin>  (48) 
adg

>  <m_score__min__energy>  (48) 
-11.73

>  <m_primary>  (48) 
energy

$$$$
48:0
     RDKit          3D

 49 52  0  0  0  0  0  0  0  0999 V2000
   58.0810   26.0210   42.1920 O   0  0  0  0  0  0  0  0  0  0  0  0
   57.8180   26.5780   43.2920 C   0  0  0  0  0  0  0  0  0  0  0  0
   57.9300   27.9650   43.4070 C   0  0  0  0  0  0  0  0  0  0  0  0
   57.6360   28.5810   44.6360 C   0  0  0  0  0  0  0  0  0  0  0  0
   57.7390   30.0520   44.8170 C   0  0  0  0  0  0  0  0  0  0  0  0
   58.1430   30.5690   46.0600 C   0  0  0  0  0  0  0  0  0  0  0  0
   58.2440   31.9490   46.2580 C   0  0  0  0  0  0  0  0  0  0  0  0
   57.9390   32.8410   45.2250 C   0  0  0  0  0  0  0  0  0  0  0  0
   58.0660   34.2160   45.4790 O   0  0  0  0  0  0  0  0  0  0  0  0
   59.2420   34.8650   45.9680 C   0  0  0  0  0  0  0  0  0  0  0  0
   59.4280   34.6270   47.4720 C   0  0  0  0  0  0  0  0  0  0  0  0
   60.8750   34.2380   47.8110 C   0  0  0  0  0  0  0  0  0  0  0  0
   61.4550   33.4170   46.7230 N   0  0  0  0  0  0  0  0  0  0  0  0
   61.6060   32.0090   47.1300 C   0  0  0  0  0  0  0  0  0  0  0  0
   63.0320   31.8070   47.6330 C   0  0  0  0  0  0  0  0  0  0  0  0
   63.7790   33.0720   47.2660 C   0  0  0  0  0  0  0  0  0  0  0  0
   62.8170   33.8560   46.3910 C   0  0  0  0  0  0  0  0  0  0  0  0
   57.5110   32.3300   43.9850 C   0  0  0  0  0  0  0  0  0  0  0  0
   57.4110   30.9510   43.7850 C   0  0  0  0  0  0  0  0  0  0  0  0
   57.2680   27.8330   45.6750 O   0  0  0  0  0  0  0  0  0  0  0  0
   57.1480   26.5100   45.6130 C   0  0  0  0  0  0  0  0  0  0  0  0
   56.7520   25.7950   46.7480 C   0  0  0  0  0  0  0  0  0  0  0  0
   56.6220   24.4050   46.6930 C   0  0  0  0  0  0  0  0  0  0  0  0
   56.8860   23.7220   45.5020 C   0  0  0  0  0  0  0  0  0  0  0  0
   57.2840   24.4250   44.3600 C   0  0  0  0  0  0  0  0  0  0  0  0
   57.4180   25.8250   44.4060 C   0  0  0  0  0  0  0  0  0  0  0  0
   58.2453   28.5700   42.5441 H   0  0  0  0  0  0  0  0  0  0  0  0
   58.3819   29.8813   46.8846 H   0  0  0  0  0  0  0  0  0  0  0  0
   58.5664   32.3370   47.2355 H   0  0  0  0  0  0  0  0  0  0  0  0
   60.1178   34.4702   45.4321 H   0  0  0  0  0  0  0  0  0  0  0  0
   59.1362   35.9468   45.7991 H   0  0  0  0  0  0  0  0  0  0  0  0
   59.1706   35.5493   48.0134 H   0  0  0  0  0  0  0  0  0  0  0  0
   58.7707   33.7975   47.7718 H   0  0  0  0  0  0  0  0  0  0  0  0
   61.4761   35.1506   47.9368 H   0  0  0  0  0  0  0  0  0  0  0  0
   60.8793   33.6525   48.7422 H   0  0  0  0  0  0  0  0  0  0  0  0
   60.8915   31.7751   47.9330 H   0  0  0  0  0  0  0  0  0  0  0  0
   61.4070   31.3440   46.2767 H   0  0  0  0  0  0  0  0  0  0  0  0
   63.0371   31.6612   48.7233 H   0  0  0  0  0  0  0  0  0  0  0  0
   63.4978   30.9163   47.1861 H   0  0  0  0  0  0  0  0  0  0  0  0
   64.0354   33.6455   48.1690 H   0  0  0  0  0  0  0  0  0  0  0  0
   64.7264   32.8576   46.7497 H   0  0  0  0  0  0  0  0  0  0  0  0
   62.9226   34.9329   46.5891 H   0  0  0  0  0  0  0  0  0  0  0  0
   63.0311   33.6785   45.3267 H   0  0  0  0  0  0  0  0  0  0  0  0
   57.2537   33.0208   43.1685 H   0  0  0  0  0  0  0  0  0  0  0  0
   57.0729   30.5644   42.8123 H   0  0  0  0  0  0  0  0  0  0  0  0
   56.5423   26.3286   47.6867 H   0  0  0  0  0  0  0  0  0  0  0  0
   56.3113   23.8469   47.5885 H   0  0  0  0  0  0  0  0  0  0  0  0
   56.7804   22.6278   45.4628 H   0  0  0  0  0  0  0  0  0  0  0  0
   57.4923   23.8832   43.4256 H   0  0  0  0  0  0  0  0  0  0  0  0
  1  2  2  0
  2  3  1  0
  3  4  2  0
  4  5  1  0
  5  6  2  0
  6  7  1  0
  7  8  2  0
  8  9  1  0
  9 10  1  0
 10 11  1  0
 11 12  1  0
 12 13  1  0
 13 14  1  0
 14 15  1  0
 15 16  1  0
 16 17  1  0
  8 18  1  0
 18 19  2  0
  4 20  1  0
 20 21  1  0
 21 22  2  0
 22 23  1  0
 23 24  2  0
 24 25  1  0
 25 26  2  0
 26  2  1  0
 19  5  1  0
 26 21  1  0
 17 13  1  0
  3 27  1  0
  6 28  1  0
  7 29  1  0
 10 30  1  0
 10 31  1  0
 11 32  1  0
 11 33  1  0
 12 34  1  0
 12 35  1  0
 14 36  1  0
 14 37  1  0
 15 38  1  0
 15 39  1  0
 16 40  1  0
 16 41  1  0
 17 42  1  0
 17 43  1  0
 18 44  1  0
 19 45  1  0
 22 46  1  0
 23 47  1  0
 24 48  1  0
 25 49  1  0
M  END
>  <UniqueID>  (49) 
45

>  <SMILES>  (49) 
O=c1cc(-c2ccc(OCCCN3CCCC3)cc2)oc2ccccc12

>  <Energy>  (49) 
60.910279905290935

>  <Genealogy>  (49) 
O=c1cc(-c2ccc(OCCCN3CCCC3)cc2)oc2ccccc12 (3D coordinates assigned)
O=c1cc(-c2ccc(OCCCN3CCCC3)cc2)oc2ccccc12 (nonaromatic ring conformer: 60.910279905290935 kcal/mol)

>  <smiles>  (49) 
O=c1cc(-c2ccc(OCCCN3CCCC3)cc2)oc2ccccc12

>  <score_type>  (49) 
oracle

>  <origin>  (49) 
adg

>  <m_score__min__energy>  (49) 
-7.8700000000000001

>  <m_primary>  (49) 
energy

$$$$
