0:0
     RDKit          3D

 54 56  0  0  0  0  0  0  0  0999 V2000
   59.6540   35.2370   46.4480 C   0  0  0  0  0  0  0  0  0  0  0  0
   59.2570   33.9110   47.0800 C   0  0  0  0  0  0  0  0  0  0  0  0
   59.2420   32.9100   46.0860 O   0  0  0  0  0  0  0  0  0  0  0  0
   58.6300   33.4140   44.9170 C   0  0  0  0  0  0  0  0  0  0  0  0
   57.8630   32.3050   44.2540 C   0  0  0  0  0  0  0  0  0  0  0  0
   57.7210   32.2700   42.8570 C   0  0  0  0  0  0  0  0  0  0  0  0
   57.0320   31.2180   42.2460 C   0  0  0  0  0  0  0  0  0  0  0  0
   56.4990   30.1850   43.0210 C   0  0  0  0  0  0  0  0  0  0  0  0
   56.6590   30.1930   44.4190 C   0  0  0  0  0  0  0  0  0  0  0  0
   56.1850   29.1190   45.2450 N   0  0  0  0  0  0  0  0  0  0  0  0
   56.9880   28.0150   45.6740 C   0  0  0  0  0  0  0  0  0  0  0  0
   56.6610   26.8450   45.3360 O   0  0  0  0  0  0  0  0  0  0  0  0
   58.2450   28.2290   46.4900 C   0  0  2  0  0  0  0  0  0  0  0  0
   58.1610   29.4840   47.3970 C   0  0  0  0  0  0  0  0  0  0  0  0
   59.5690   29.9890   47.7330 C   0  0  0  0  0  0  0  0  0  0  0  0
   60.2880   30.4660   46.5190 N   0  0  1  0  0  0  0  0  0  0  0  0
   61.7500   30.4750   46.7750 C   0  0  0  0  0  0  0  0  0  0  0  0
   62.1670   31.6210   47.6710 C   0  0  0  0  0  0  0  0  0  0  0  0
   62.7750   32.7630   47.1210 C   0  0  0  0  0  0  0  0  0  0  0  0
   63.1690   33.8200   47.9490 C   0  0  0  0  0  0  0  0  0  0  0  0
   62.9630   33.7430   49.3320 C   0  0  0  0  0  0  0  0  0  0  0  0
   63.3510   34.7660   50.1330 F   0  0  0  0  0  0  0  0  0  0  0  0
   62.3580   32.6100   49.8880 C   0  0  0  0  0  0  0  0  0  0  0  0
   61.9590   31.5530   49.0630 C   0  0  0  0  0  0  0  0  0  0  0  0
   59.9440   29.6980   45.2840 C   0  0  0  0  0  0  0  0  0  0  0  0
   59.4980   28.2580   45.5810 C   0  0  0  0  0  0  0  0  0  0  0  0
   57.3340   31.2590   45.0290 C   0  0  0  0  0  0  0  0  0  0  0  0
   59.8732   35.9692   47.2391 H   0  0  0  0  0  0  0  0  0  0  0  0
   60.5483   35.0926   45.8240 H   0  0  0  0  0  0  0  0  0  0  0  0
   58.8275   35.6078   45.8240 H   0  0  0  0  0  0  0  0  0  0  0  0
   59.9839   33.6433   47.8609 H   0  0  0  0  0  0  0  0  0  0  0  0
   58.2572   34.0004   47.5299 H   0  0  0  0  0  0  0  0  0  0  0  0
   57.9430   34.2311   45.1825 H   0  0  0  0  0  0  0  0  0  0  0  0
   59.3979   33.7993   44.2301 H   0  0  0  0  0  0  0  0  0  0  0  0
   58.1533   33.0729   42.2417 H   0  0  0  0  0  0  0  0  0  0  0  0
   56.9093   31.2036   41.1530 H   0  0  0  0  0  0  0  0  0  0  0  0
   55.9523   29.3625   42.5366 H   0  0  0  0  0  0  0  0  0  0  0  0
   58.3393   27.3683   47.1684 H   0  0  0  0  0  0  0  0  0  0  0  0
   57.6067   30.2757   46.8716 H   0  0  0  0  0  0  0  0  0  0  0  0
   57.6424   29.2187   48.3301 H   0  0  0  0  0  0  0  0  0  0  0  0
   59.4881   30.8202   48.4489 H   0  0  0  0  0  0  0  0  0  0  0  0
   60.1396   29.1525   48.1627 H   0  0  0  0  0  0  0  0  0  0  0  0
   59.9810   31.4570   46.3630 H   0  0  0  0  0  0  0  0  0  0  0  0
   62.0308   29.5275   47.2581 H   0  0  0  0  0  0  0  0  0  0  0  0
   62.2610   30.5989   45.8088 H   0  0  0  0  0  0  0  0  0  0  0  0
   62.9417   32.8259   46.0355 H   0  0  0  0  0  0  0  0  0  0  0  0
   63.6412   34.7127   47.5129 H   0  0  0  0  0  0  0  0  0  0  0  0
   62.1961   32.5506   50.9744 H   0  0  0  0  0  0  0  0  0  0  0  0
   61.4810   30.6652   49.5027 H   0  0  0  0  0  0  0  0  0  0  0  0
   59.1267   30.2184   44.7632 H   0  0  0  0  0  0  0  0  0  0  0  0
   60.8524   29.6417   44.6662 H   0  0  0  0  0  0  0  0  0  0  0  0
   59.2632   27.7535   44.6321 H   0  0  0  0  0  0  0  0  0  0  0  0
   60.3171   27.7438   46.1052 H   0  0  0  0  0  0  0  0  0  0  0  0
   57.4506   31.2770   46.1227 H   0  0  0  0  0  0  0  0  0  0  0  0
  1  2  1  0
  2  3  1  0
  3  4  1  0
  4  5  1  0
  5  6  2  0
  6  7  1  0
  7  8  2  0
  8  9  1  0
  9 10  1  0
 10 11  1  0
 11 12  2  0
 11 13  1  0
 13 14  1  0
 14 15  1  0
 15 16  1  0
 16 17  1  0
 17 18  1  0
 18 19  2  0
 19 20  1  0
 20 21  2  0
 21 22  1  0
 21 23  1  0
 23 24  2  0
 16 25  1  0
 25 26  1  0
  9 27  2  0
 27  5  1  0
 26 13  1  0
 24 18  1  0
  1 28  1  0
  1 29  1  0
  1 30  1  0
  2 31  1  0
  2 32  1  0
  4 33  1  0
  4 34  1  0
  6 35  1  0
  7 36  1  0
  8 37  1  0
 13 38  1  1
 14 39  1  0
 14 40  1  0
 15 41  1  0
 15 42  1  0
 16 43  1  6
 17 44  1  0
 17 45  1  0
 19 46  1  0
 20 47  1  0
 23 48  1  0
 24 49  1  0
 25 50  1  0
 25 51  1  0
 26 52  1  0
 26 53  1  0
 27 54  1  0
M  CHG  2  10  -1  16   1
M  END
>  <UniqueID>  (1) 
1

>  <SMILES>  (1) 
CCOCc1cccc([N-]C(=O)C2CC[NH+](Cc3ccc(F)cc3)CC2)c1

>  <Energy>  (1) 
70.44839462476307

>  <Genealogy>  (1) 
CCOCc1cccc([N-]C(=O)C2CC[NH+](Cc3ccc(F)cc3)CC2)c1 (protonated)
CCOCc1cccc([N-]C(=O)C2CC[NH+](Cc3ccc(F)cc3)CC2)c1 (3D coordinates assigned)
CCOCc1cccc([N-]C(=O)C2CC[NH+](Cc3ccc(F)cc3)CC2)c1 (nonaromatic ring conformer: 70.44839462476307 kcal/mol)

>  <smiles>  (1) 
CCOCc1cccc(NC(=O)C2CCN(Cc3ccc(F)cc3)CC2)c1

>  <score_type>  (1) 
oracle

>  <origin>  (1) 
adg

>  <m_score__min__energy>  (1) 
-8.7200000000000006

>  <m_primary>  (1) 
energy

$$$$
1:0
     RDKit          3D

 55 57  0  0  0  0  0  0  0  0999 V2000
   62.8950   34.2220   49.2020 C   0  0  0  0  0  0  0  0  0  0  0  0
   63.7340   32.9870   48.8480 C   0  0  0  0  0  0  0  0  0  0  0  0
   63.6440   32.6280   47.4080 N   0  0  2  0  0  0  0  0  0  0  0  0
   63.3690   33.8420   46.6140 C   0  0  0  0  0  0  0  0  0  0  0  0
   62.5910   31.5990   47.1920 C   0  0  0  0  0  0  0  0  0  0  0  0
   61.9360   31.0980   48.4990 C   0  0  0  0  0  0  0  0  0  0  0  0
   60.4730   31.1390   48.4240 N   0  0  0  0  0  0  0  0  0  0  0  0
   59.7700   31.2350   47.1700 C   0  0  0  0  0  0  0  0  0  0  0  0
   59.5060   30.0790   46.4110 C   0  0  0  0  0  0  0  0  0  0  0  0
   58.7070   30.1800   45.2440 C   0  0  0  0  0  0  0  0  0  0  0  0
   58.2690   31.4200   44.8170 N   0  0  0  0  0  0  0  0  0  0  0  0
   57.3870   31.5050   43.6300 C   0  0  0  0  0  0  0  0  0  0  0  0
   58.7210   32.5770   45.4270 C   0  0  0  0  0  0  0  0  0  0  0  0
   59.4340   32.4980   46.6510 C   0  0  0  0  0  0  0  0  0  0  0  0
   59.9600   33.7450   47.3460 C   0  0  0  0  0  0  0  0  0  0  0  0
   59.2830   35.0310   46.8870 C   0  0  0  0  0  0  0  0  0  0  0  0
   59.2630   35.0810   45.3690 C   0  0  0  0  0  0  0  0  0  0  0  0
   58.3990   33.9450   44.8270 C   0  0  0  0  0  0  0  0  0  0  0  0
   58.4350   28.9350   44.3910 C   0  0  0  0  0  0  0  0  0  0  0  0
   58.9480   27.6120   44.9720 C   0  0  0  0  0  0  0  0  0  0  0  0
   60.2870   27.8010   45.6630 C   0  0  0  0  0  0  0  0  0  0  0  0
   60.1010   28.7490   46.8390 C   0  0  0  0  0  0  0  0  0  0  0  0
   62.8290   34.3192   50.2957 H   0  0  0  0  0  0  0  0  0  0  0  0
   63.3702   35.1208   48.7820 H   0  0  0  0  0  0  0  0  0  0  0  0
   61.8844   34.1114   48.7820 H   0  0  0  0  0  0  0  0  0  0  0  0
   64.7860   33.1933   49.0945 H   0  0  0  0  0  0  0  0  0  0  0  0
   63.3400   32.1393   49.4279 H   0  0  0  0  0  0  0  0  0  0  0  0
   64.5670   32.2460   47.0930 H   0  0  0  0  0  0  0  0  0  0  0  0
   63.1775   34.6874   47.2912 H   0  0  0  0  0  0  0  0  0  0  0  0
   64.2383   34.0699   45.9796 H   0  0  0  0  0  0  0  0  0  0  0  0
   62.4864   33.6731   45.9796 H   0  0  0  0  0  0  0  0  0  0  0  0
   61.8067   32.0330   46.5544 H   0  0  0  0  0  0  0  0  0  0  0  0
   63.0796   30.7318   46.7238 H   0  0  0  0  0  0  0  0  0  0  0  0
   62.2544   30.0612   48.6823 H   0  0  0  0  0  0  0  0  0  0  0  0
   62.2555   31.7598   49.3175 H   0  0  0  0  0  0  0  0  0  0  0  0
   59.9200   30.9140   49.2810 H   0  0  0  0  0  0  0  0  0  0  0  0
   56.3414   31.6058   43.9566 H   0  0  0  0  0  0  0  0  0  0  0  0
   57.6684   32.3802   43.0260 H   0  0  0  0  0  0  0  0  0  0  0  0
   57.4961   30.5922   43.0260 H   0  0  0  0  0  0  0  0  0  0  0  0
   59.7984   33.6342   48.4284 H   0  0  0  0  0  0  0  0  0  0  0  0
   61.0260   33.8322   47.0888 H   0  0  0  0  0  0  0  0  0  0  0  0
   58.2515   35.0581   47.2680 H   0  0  0  0  0  0  0  0  0  0  0  0
   59.8408   35.8964   47.2742 H   0  0  0  0  0  0  0  0  0  0  0  0
   58.8473   36.0450   45.0406 H   0  0  0  0  0  0  0  0  0  0  0  0
   60.2890   34.9715   44.9878 H   0  0  0  0  0  0  0  0  0  0  0  0
   57.3460   34.1781   45.0433 H   0  0  0  0  0  0  0  0  0  0  0  0
   58.6053   33.8756   43.7487 H   0  0  0  0  0  0  0  0  0  0  0  0
   57.3467   28.8470   44.2571 H   0  0  0  0  0  0  0  0  0  0  0  0
   58.9865   29.0863   43.4513 H   0  0  0  0  0  0  0  0  0  0  0  0
   58.2175   27.2329   45.7018 H   0  0  0  0  0  0  0  0  0  0  0  0
   59.0784   26.8956   44.1475 H   0  0  0  0  0  0  0  0  0  0  0  0
   60.6567   26.8303   46.0252 H   0  0  0  0  0  0  0  0  0  0  0  0
   61.0173   28.2209   44.9556 H   0  0  0  0  0  0  0  0  0  0  0  0
   59.4282   28.2785   47.5711 H   0  0  0  0  0  0  0  0  0  0  0  0
   61.0911   28.9454   47.2761 H   0  0  0  0  0  0  0  0  0  0  0  0
  1  2  1  0
  2  3  1  0
  3  4  1  0
  3  5  1  0
  5  6  1  0
  6  7  1  0
  7  8  1  0
  8  9  2  0
  9 10  1  0
 10 11  2  0
 11 12  1  0
 11 13  1  0
 13 14  2  0
 14 15  1  0
 15 16  1  0
 16 17  1  0
 17 18  1  0
 10 19  1  0
 19 20  1  0
 20 21  1  0
 21 22  1  0
 14  8  1  0
 22  9  1  0
 18 13  1  0
  1 23  1  0
  1 24  1  0
  1 25  1  0
  2 26  1  0
  2 27  1  0
  3 28  1  6
  4 29  1  0
  4 30  1  0
  4 31  1  0
  5 32  1  0
  5 33  1  0
  6 34  1  0
  6 35  1  0
  7 36  1  0
 12 37  1  0
 12 38  1  0
 12 39  1  0
 15 40  1  0
 15 41  1  0
 16 42  1  0
 16 43  1  0
 17 44  1  0
 17 45  1  0
 18 46  1  0
 18 47  1  0
 19 48  1  0
 19 49  1  0
 20 50  1  0
 20 51  1  0
 21 52  1  0
 21 53  1  0
 22 54  1  0
 22 55  1  0
M  CHG  2   3   1  11   1
M  END
>  <UniqueID>  (2) 
2

>  <SMILES>  (2) 
CC[N@H+](C)CCNc1c2c([n+](C)c3c1CCCC3)CCCC2

>  <Energy>  (2) 
73.83498502352843

>  <Genealogy>  (2) 
CC[NH+](C)CCNc1c2c([n+](C)c3c1CCCC3)CCCC2 (protonated)
CC[N@H+](C)CCNc1c2c([n+](C)c3c1CCCC3)CCCC2 (chirality)
CC[N@H+](C)CCNc1c2c([n+](C)c3c1CCCC3)CCCC2 (3D coordinates assigned)
CC[N@H+](C)CCNc1c2c([n+](C)c3c1CCCC3)CCCC2 (nonaromatic ring conformer: 73.83498502352843 kcal/mol)

>  <smiles>  (2) 
CCN(C)CCNc1c2c([n+](C)c3c1CCCC3)CCCC2

>  <score_type>  (2) 
oracle

>  <origin>  (2) 
adg

>  <m_score__min__energy>  (2) 
-5.0099999999999998

>  <m_primary>  (2) 
energy

$$$$
2:0
     RDKit          3D

 39 38  0  0  0  0  0  0  0  0999 V2000
   59.5640   35.0310   46.3900 C   0  0  0  0  0  0  0  0  0  0  0  0
   59.2550   34.3160   45.0660 C   0  0  0  0  0  0  0  0  0  0  0  0
   58.2780   33.2050   45.1740 N   0  0  0  0  0  0  0  0  0  0  0  0
   57.0680   33.4910   45.9600 C   0  0  0  0  0  0  0  0  0  0  0  0
   58.0290   32.4510   43.9270 C   0  0  0  0  0  0  0  0  0  0  0  0
   57.0160   31.3040   44.0770 C   0  0  0  0  0  0  0  0  0  0  0  0
   57.2910   30.5630   45.2510 O   0  0  0  0  0  0  0  0  0  0  0  0
   58.2880   29.5900   45.0070 C   0  0  0  0  0  0  0  0  0  0  0  0
   59.5950   29.9930   45.7060 C   0  0  0  0  0  0  0  0  0  0  0  0
   59.4960   31.2550   46.4680 N   0  0  0  0  0  0  0  0  0  0  0  0
   60.0780   31.2170   47.8240 C   0  0  0  0  0  0  0  0  0  0  0  0
   61.3600   32.0580   47.9510 C   0  0  0  0  0  0  0  0  0  0  0  0
   61.6040   32.7610   46.7470 O   0  0  0  0  0  0  0  0  0  0  0  0
   62.8200   33.4730   46.8290 C   0  0  0  0  0  0  0  0  0  0  0  0
   59.2831   34.3811   47.2319 H   0  0  0  0  0  0  0  0  0  0  0  0
   60.6395   35.2556   46.4431 H   0  0  0  0  0  0  0  0  0  0  0  0
   58.9906   35.9682   46.4431 H   0  0  0  0  0  0  0  0  0  0  0  0
   58.8525   35.0587   44.3615 H   0  0  0  0  0  0  0  0  0  0  0  0
   60.2003   33.8663   44.7282 H   0  0  0  0  0  0  0  0  0  0  0  0
   57.3057   33.4348   47.0325 H   0  0  0  0  0  0  0  0  0  0  0  0
   56.7033   34.5001   45.7176 H   0  0  0  0  0  0  0  0  0  0  0  0
   56.2901   32.7520   45.7176 H   0  0  0  0  0  0  0  0  0  0  0  0
   57.6472   33.1520   43.1701 H   0  0  0  0  0  0  0  0  0  0  0  0
   58.9861   31.9923   43.6378 H   0  0  0  0  0  0  0  0  0  0  0  0
   56.0003   31.7215   44.1398 H   0  0  0  0  0  0  0  0  0  0  0  0
   57.0937   30.6385   43.2046 H   0  0  0  0  0  0  0  0  0  0  0  0
   57.9514   28.6176   45.3958 H   0  0  0  0  0  0  0  0  0  0  0  0
   58.4647   29.5167   43.9238 H   0  0  0  0  0  0  0  0  0  0  0  0
   59.8794   29.1891   46.4009 H   0  0  0  0  0  0  0  0  0  0  0  0
   60.3457   30.1513   44.9177 H   0  0  0  0  0  0  0  0  0  0  0  0
   58.4840   31.5160   46.5420 H   0  0  0  0  0  0  0  0  0  0  0  0
   59.9670   32.0180   45.9270 H   0  0  0  0  0  0  0  0  0  0  0  0
   59.3336   31.6028   48.5360 H   0  0  0  0  0  0  0  0  0  0  0  0
   60.3471   30.1721   48.0377 H   0  0  0  0  0  0  0  0  0  0  0  0
   61.2425   32.7776   48.7746 H   0  0  0  0  0  0  0  0  0  0  0  0
   62.2094   31.3895   48.1551 H   0  0  0  0  0  0  0  0  0  0  0  0
   63.0839   33.6275   47.8856 H   0  0  0  0  0  0  0  0  0  0  0  0
   63.6157   32.8981   46.3326 H   0  0  0  0  0  0  0  0  0  0  0  0
   62.7081   34.4482   46.3326 H   0  0  0  0  0  0  0  0  0  0  0  0
  1  2  1  0
  2  3  1  0
  3  4  1  0
  3  5  1  0
  5  6  1  0
  6  7  1  0
  7  8  1  0
  8  9  1  0
  9 10  1  0
 10 11  1  0
 11 12  1  0
 12 13  1  0
 13 14  1  0
  1 15  1  0
  1 16  1  0
  1 17  1  0
  2 18  1  0
  2 19  1  0
  4 20  1  0
  4 21  1  0
  4 22  1  0
  5 23  1  0
  5 24  1  0
  6 25  1  0
  6 26  1  0
  8 27  1  0
  8 28  1  0
  9 29  1  0
  9 30  1  0
 10 31  1  0
 10 32  1  0
 11 33  1  0
 11 34  1  0
 12 35  1  0
 12 36  1  0
 14 37  1  0
 14 38  1  0
 14 39  1  0
M  CHG  1  10   1
M  END
>  <UniqueID>  (3) 
3

>  <SMILES>  (3) 
CCN(C)CCOCC[NH2+]CCOC

>  <Energy>  (3) 
41.71292897124307

>  <Genealogy>  (3) 
CCN(C)CCOCC[NH2+]CCOC (protonated)
CCN(C)CCOCC[NH2+]CCOC (3D coordinates assigned)
CCN(C)CCOCC[NH2+]CCOC (optimized conformer: 41.71292897124307 kcal/mol)

>  <smiles>  (3) 
CCN(C)CCOCCNCCOC

>  <score_type>  (3) 
oracle

>  <origin>  (3) 
adg

>  <m_score__min__energy>  (3) 
-1.49

>  <m_primary>  (3) 
energy

$$$$
3:0
     RDKit          3D

 67 71  0  0  0  0  0  0  0  0999 V2000
   55.5710   24.0650   44.4190 C   0  0  0  0  0  0  0  0  0  0  0  0
   54.9600   24.5540   45.7340 C   0  0  0  0  0  0  0  0  0  0  0  0
   54.6470   23.3730   46.6570 C   0  0  0  0  0  0  0  0  0  0  0  0
   55.8980   25.4590   46.3890 N   0  0  0  0  0  0  0  0  0  0  0  0
   57.1340   25.0370   46.9790 C   0  0  0  0  0  0  0  0  0  0  0  0
   57.2160   24.8610   48.2250 O   0  0  0  0  0  0  0  0  0  0  0  0
   58.3320   24.7630   46.1110 C   0  0  0  0  0  0  0  0  0  0  0  0
   59.0820   26.0450   45.6580 C   0  0  2  0  0  0  0  0  0  0  0  0
   59.7310   26.7480   46.8930 C   0  0  0  0  0  0  0  0  0  0  0  0
   59.4420   28.2610   47.0440 C   0  0  1  0  0  0  0  0  0  0  0  0
   60.2860   28.8940   48.1420 C   0  0  0  0  0  0  0  0  0  0  0  0
   61.1520   29.7530   47.8170 O   0  0  0  0  0  0  0  0  0  0  0  0
   60.0340   28.6750   49.5400 N   0  0  0  0  0  0  0  0  0  0  0  0
   60.4340   27.4280   50.1960 C   0  0  0  0  0  0  0  0  0  0  0  0
   60.7410   27.6890   51.6760 C   0  0  0  0  0  0  0  0  0  0  0  0
   59.6930   28.4090   52.2970 O   0  0  0  0  0  0  0  0  0  0  0  0
   59.5960   29.6990   51.7240 C   0  0  0  0  0  0  0  0  0  0  0  0
   59.1630   29.6070   50.2590 C   0  0  0  0  0  0  0  0  0  0  0  0
   59.4090   28.9960   45.6640 C   0  0  2  0  0  0  0  0  0  0  0  0
   60.7030   28.8110   44.8350 C   0  0  0  0  0  0  0  0  0  0  0  0
   59.2090   30.5030   45.8180 C   0  0  0  0  0  0  0  0  0  0  0  0
   60.0890   31.3700   46.3830 N   0  0  0  0  0  0  0  0  0  0  0  0
   59.6300   32.6020   46.0970 C   0  0  0  0  0  0  0  0  0  0  0  0
   60.2220   33.8200   46.4250 C   0  0  0  0  0  0  0  0  0  0  0  0
   59.6070   34.9980   45.9620 C   0  0  0  0  0  0  0  0  0  0  0  0
   58.4340   34.9310   45.1750 C   0  0  0  0  0  0  0  0  0  0  0  0
   57.8650   33.6870   44.8480 C   0  0  0  0  0  0  0  0  0  0  0  0
   58.4890   32.5400   45.3390 C   0  0  0  0  0  0  0  0  0  0  0  0
   58.2160   31.2020   45.1570 C   0  0  0  0  0  0  0  0  0  0  0  0
   57.2600   30.5680   44.2160 C   0  0  0  0  0  0  0  0  0  0  0  0
   57.0110   29.1330   44.6720 C   0  0  0  0  0  0  0  0  0  0  0  0
   58.2720   28.3930   44.9110 N   0  0  0  0  0  0  0  0  0  0  0  0
   58.2030   26.9520   44.8100 C   0  0  0  0  0  0  0  0  0  0  0  0
   57.4300   26.4300   43.9580 O   0  0  0  0  0  0  0  0  0  0  0  0
   56.4132   23.3910   44.6343 H   0  0  0  0  0  0  0  0  0  0  0  0
   54.8083   23.5250   43.8387 H   0  0  0  0  0  0  0  0  0  0  0  0
   55.9307   24.9275   43.8387 H   0  0  0  0  0  0  0  0  0  0  0  0
   54.0195   25.0820   45.5180 H   0  0  0  0  0  0  0  0  0  0  0  0
   54.7322   23.6945   47.7055 H   0  0  0  0  0  0  0  0  0  0  0  0
   53.6238   23.0181   46.4643 H   0  0  0  0  0  0  0  0  0  0  0  0
   55.3601   22.5580   46.4643 H   0  0  0  0  0  0  0  0  0  0  0  0
   59.0334   24.1321   46.6766 H   0  0  0  0  0  0  0  0  0  0  0  0
   57.9625   24.2685   45.2005 H   0  0  0  0  0  0  0  0  0  0  0  0
   59.9069   25.7630   44.9871 H   0  0  0  0  0  0  0  0  0  0  0  0
   59.3634   26.2435   47.7987 H   0  0  0  0  0  0  0  0  0  0  0  0
   60.8176   26.6681   46.7417 H   0  0  0  0  0  0  0  0  0  0  0  0
   58.4143   28.3921   47.4136 H   0  0  0  0  0  0  0  0  0  0  0  0
   59.6164   26.6963   50.1171 H   0  0  0  0  0  0  0  0  0  0  0  0
   61.3357   27.0343   49.7041 H   0  0  0  0  0  0  0  0  0  0  0  0
   60.8688   26.7256   52.1912 H   0  0  0  0  0  0  0  0  0  0  0  0
   61.6611   28.2884   51.7403 H   0  0  0  0  0  0  0  0  0  0  0  0
   58.8547   30.2883   52.2837 H   0  0  0  0  0  0  0  0  0  0  0  0
   60.5824   30.1834   51.7723 H   0  0  0  0  0  0  0  0  0  0  0  0
   58.1241   29.2491   50.2074 H   0  0  0  0  0  0  0  0  0  0  0  0
   59.2366   30.6022   49.7962 H   0  0  0  0  0  0  0  0  0  0  0  0
   61.5594   28.6886   45.5144 H   0  0  0  0  0  0  0  0  0  0  0  0
   60.6075   27.9174   44.2007 H   0  0  0  0  0  0  0  0  0  0  0  0
   60.8617   29.6956   44.2007 H   0  0  0  0  0  0  0  0  0  0  0  0
   60.9830   31.1480   46.8740 H   0  0  0  0  0  0  0  0  0  0  0  0
   61.1417   33.8595   47.0272 H   0  0  0  0  0  0  0  0  0  0  0  0
   60.0413   35.9768   46.2138 H   0  0  0  0  0  0  0  0  0  0  0  0
   57.9633   35.8582   44.8161 H   0  0  0  0  0  0  0  0  0  0  0  0
   56.9596   33.6208   44.2268 H   0  0  0  0  0  0  0  0  0  0  0  0
   56.3127   31.1272   44.2166 H   0  0  0  0  0  0  0  0  0  0  0  0
   57.6747   30.5731   43.1972 H   0  0  0  0  0  0  0  0  0  0  0  0
   56.4306   29.1542   45.6062 H   0  0  0  0  0  0  0  0  0  0  0  0
   56.4632   28.6152   43.8709 H   0  0  0  0  0  0  0  0  0  0  0  0
  1  2  1  0
  2  3  1  0
  2  4  1  0
  4  5  1  0
  5  6  2  0
  5  7  1  0
  7  8  1  0
  8  9  1  0
  9 10  1  0
 10 11  1  0
 11 12  2  0
 11 13  1  0
 13 14  1  0
 14 15  1  0
 15 16  1  0
 16 17  1  0
 17 18  1  0
 10 19  1  0
 19 20  1  6
 19 21  1  0
 21 22  1  0
 22 23  1  0
 23 24  2  0
 24 25  1  0
 25 26  2  0
 26 27  1  0
 27 28  2  0
 28 29  1  0
 29 30  1  0
 30 31  1  0
 31 32  1  0
 32 33  1  0
 33 34  2  0
 33  8  1  0
 18 13  1  0
 32 19  1  0
 29 21  2  0
 28 23  1  0
  1 35  1  0
  1 36  1  0
  1 37  1  0
  2 38  1  0
  3 39  1  0
  3 40  1  0
  3 41  1  0
  7 42  1  0
  7 43  1  0
  8 44  1  6
  9 45  1  0
  9 46  1  0
 10 47  1  1
 14 48  1  0
 14 49  1  0
 15 50  1  0
 15 51  1  0
 17 52  1  0
 17 53  1  0
 18 54  1  0
 18 55  1  0
 20 56  1  0
 20 57  1  0
 20 58  1  0
 22 59  1  0
 24 60  1  0
 25 61  1  0
 26 62  1  0
 27 63  1  0
 30 64  1  0
 30 65  1  0
 31 66  1  0
 31 67  1  0
M  CHG  1   4  -1
M  END
>  <UniqueID>  (4) 
4

>  <SMILES>  (4) 
CC(C)[N-]C(=O)C[C@@H]1C[C@@H](C(=O)N2CCOCC2)C2(C)c3[nH]c4ccccc4c3CCN2C1=O

>  <Energy>  (4) 
122.86919204515272

>  <Genealogy>  (4) 
CC(C)[N-]C(=O)CC1CC(C(=O)N2CCOCC2)C2(C)c3[nH]c4ccccc4c3CCN2C1=O (protonated)
CC(C)[N-]C(=O)C[C@@H]1C[C@@H](C(=O)N2CCOCC2)C2(C)c3[nH]c4ccccc4c3CCN2C1=O (chirality)
CC(C)[N-]C(=O)C[C@@H]1C[C@@H](C(=O)N2CCOCC2)C2(C)c3[nH]c4ccccc4c3CCN2C1=O (3D coordinates assigned)
CC(C)[N-]C(=O)C[C@@H]1C[C@@H](C(=O)N2CCOCC2)C2(C)c3[nH]c4ccccc4c3CCN2C1=O (nonaromatic ring conformer: 122.86919204515272 kcal/mol)

>  <smiles>  (4) 
CC(C)NC(=O)CC1CC(C(=O)N2CCOCC2)C2(C)c3[nH]c4ccccc4c3CCN2C1=O

>  <score_type>  (4) 
oracle

>  <origin>  (4) 
adg

>  <m_score__min__energy>  (4) 
-10.640000000000001

>  <m_primary>  (4) 
energy

$$$$
4:0
     RDKit          3D

 43 45  0  0  0  0  0  0  0  0999 V2000
   59.6350   27.9380   47.9110 C   0  0  0  0  0  0  0  0  0  0  0  0
   59.4230   27.3940   46.5030 C   0  0  0  0  0  0  0  0  0  0  0  0
   59.4850   28.4890   45.5100 N   0  0  0  0  0  0  0  0  0  0  0  0
   60.8160   28.6070   44.8930 C   0  0  0  0  0  0  0  0  0  0  0  0
   58.3940   28.4260   44.5070 C   0  0  0  0  0  0  0  0  0  0  0  0
   57.3710   29.5810   44.5960 C   0  0  0  0  0  0  0  0  0  0  0  0
   57.6410   30.4470   45.7440 N   0  0  0  0  0  0  0  0  0  0  0  0
   57.9840   31.8400   45.6070 C   0  0  0  0  0  0  0  0  0  0  0  0
   57.0820   32.7230   44.9860 C   0  0  0  0  0  0  0  0  0  0  0  0
   57.3760   34.0810   44.8730 C   0  0  0  0  0  0  0  0  0  0  0  0
   58.5720   34.5850   45.3790 C   0  0  0  0  0  0  0  0  0  0  0  0
   59.4910   33.7290   46.0020 C   0  0  0  0  0  0  0  0  0  0  0  0
   60.6930   34.2370   46.5010 C   0  0  0  0  0  0  0  0  0  0  0  0
   61.6160   33.3770   47.1060 C   0  0  0  0  0  0  0  0  0  0  0  0
   62.8230   33.8900   47.6040 C   0  0  0  0  0  0  0  0  0  0  0  0
   63.7420   33.0300   48.2000 C   0  0  0  0  0  0  0  0  0  0  0  0
   63.4560   31.6700   48.2950 C   0  0  0  0  0  0  0  0  0  0  0  0
   62.2480   31.1840   47.7930 C   0  0  0  0  0  0  0  0  0  0  0  0
   61.3420   32.0300   47.2090 N   0  0  0  0  0  0  0  0  0  0  0  0
   60.1690   31.5170   46.7270 C   0  0  0  0  0  0  0  0  0  0  0  0
   59.2060   32.3480   46.1200 C   0  0  0  0  0  0  0  0  0  0  0  0
   59.3381   27.1763   48.6469 H   0  0  0  0  0  0  0  0  0  0  0  0
   60.6968   28.1890   48.0511 H   0  0  0  0  0  0  0  0  0  0  0  0
   59.0231   28.8413   48.0511 H   0  0  0  0  0  0  0  0  0  0  0  0
   60.2074   26.6563   46.2780 H   0  0  0  0  0  0  0  0  0  0  0  0
   58.4313   26.9210   46.4498 H   0  0  0  0  0  0  0  0  0  0  0  0
   61.5807   28.6748   45.6809 H   0  0  0  0  0  0  0  0  0  0  0  0
   61.0104   27.7226   44.2685 H   0  0  0  0  0  0  0  0  0  0  0  0
   60.8517   29.5118   44.2685 H   0  0  0  0  0  0  0  0  0  0  0  0
   58.8475   28.4457   43.5050 H   0  0  0  0  0  0  0  0  0  0  0  0
   57.8368   27.4996   44.7101 H   0  0  0  0  0  0  0  0  0  0  0  0
   57.4267   30.1800   43.6751 H   0  0  0  0  0  0  0  0  0  0  0  0
   56.3682   29.1461   44.7192 H   0  0  0  0  0  0  0  0  0  0  0  0
   57.3930   30.0880   46.6930 H   0  0  0  0  0  0  0  0  0  0  0  0
   56.1332   32.3372   44.5847 H   0  0  0  0  0  0  0  0  0  0  0  0
   56.6606   34.7573   44.3823 H   0  0  0  0  0  0  0  0  0  0  0  0
   58.7961   35.6582   45.2894 H   0  0  0  0  0  0  0  0  0  0  0  0
   60.9134   35.3115   46.4184 H   0  0  0  0  0  0  0  0  0  0  0  0
   63.0422   34.9650   47.5242 H   0  0  0  0  0  0  0  0  0  0  0  0
   64.6905   33.4233   48.5944 H   0  0  0  0  0  0  0  0  0  0  0  0
   64.1775   30.9838   48.7625 H   0  0  0  0  0  0  0  0  0  0  0  0
   62.0207   30.1103   47.8669 H   0  0  0  0  0  0  0  0  0  0  0  0
   59.9742   30.4379   46.8146 H   0  0  0  0  0  0  0  0  0  0  0  0
  1  2  1  0
  2  3  1  0
  3  4  1  0
  3  5  1  0
  5  6  1  0
  6  7  1  0
  7  8  1  0
  8  9  2  0
  9 10  1  0
 10 11  2  0
 11 12  1  0
 12 13  2  0
 13 14  1  0
 14 15  2  0
 15 16  1  0
 16 17  2  0
 17 18  1  0
 18 19  2  0
 19 20  1  0
 20 21  2  0
 21  8  1  0
 21 12  1  0
 19 14  1  0
  1 22  1  0
  1 23  1  0
  1 24  1  0
  2 25  1  0
  2 26  1  0
  4 27  1  0
  4 28  1  0
  4 29  1  0
  5 30  1  0
  5 31  1  0
  6 32  1  0
  6 33  1  0
  7 34  1  0
  9 35  1  0
 10 36  1  0
 11 37  1  0
 13 38  1  0
 15 39  1  0
 16 40  1  0
 17 41  1  0
 18 42  1  0
 20 43  1  0
M  CHG  1  19   1
M  END
>  <UniqueID>  (5) 
5

>  <SMILES>  (5) 
CCN(C)CCNc1cccc2cc3cccc[n+]3cc12

>  <Energy>  (5) 
56.31845467221102

>  <Genealogy>  (5) 
CCN(C)CCNc1cccc2cc3cccc[n+]3cc12 (3D coordinates assigned)
CCN(C)CCNc1cccc2cc3cccc[n+]3cc12 (optimized conformer: 56.31845467221102 kcal/mol)

>  <smiles>  (5) 
CCN(C)CCNc1cccc2cc3cccc[n+]3cc12

>  <score_type>  (5) 
oracle

>  <origin>  (5) 
adg

>  <m_score__min__energy>  (5) 
-5.75

>  <m_primary>  (5) 
energy

$$$$
5:0
     RDKit          3D

 63 66  0  0  0  0  0  0  0  0999 V2000
   56.6790   26.0840   46.1000 C   0  0  0  0  0  0  0  0  0  0  0  0
   57.9250   25.2500   45.8280 C   0  0  0  0  0  0  0  0  0  0  0  0
   58.9910   25.6340   46.6960 O   0  0  0  0  0  0  0  0  0  0  0  0
   59.5880   26.9050   46.7480 C   0  0  0  0  0  0  0  0  0  0  0  0
   60.2060   27.5010   45.6320 C   0  0  0  0  0  0  0  0  0  0  0  0
   60.7850   28.7690   45.7360 C   0  0  0  0  0  0  0  0  0  0  0  0
   60.7540   29.4620   46.9540 C   0  0  0  0  0  0  0  0  0  0  0  0
   61.3360   30.7340   47.0680 C   0  0  0  0  0  0  0  0  0  0  0  0
   61.3100   31.4150   48.2930 C   0  0  0  0  0  0  0  0  0  0  0  0
   62.1040   32.9790   48.4580 S   0  0  0  0  0  0  0  0  0  0  0  0
   63.2280   33.0700   47.4640 O   0  0  0  0  0  0  0  0  0  0  0  0
   62.6790   33.1210   49.8390 O   0  0  0  0  0  0  0  0  0  0  0  0
   60.9750   34.2690   48.1610 N   0  0  0  0  0  0  0  0  0  0  0  0
   60.1850   34.0250   46.9470 C   0  0  1  0  0  0  0  0  0  0  0  0
   58.8010   33.4630   47.3410 C   0  0  0  0  0  0  0  0  0  0  0  0
   57.6610   34.0040   46.4540 C   0  0  0  0  0  0  0  0  0  0  0  0
   58.0600   34.1590   45.0340 N   0  0  2  0  0  0  0  0  0  0  0  0
   58.3550   32.8680   44.3480 C   0  0  0  0  0  0  0  0  0  0  0  0
   57.4390   31.6860   44.7650 C   0  0  0  0  0  0  0  0  0  0  0  0
   58.2680   30.5930   45.4630 C   0  0  0  0  0  0  0  0  0  0  0  0
   57.3710   29.4370   45.9640 C   0  0  0  0  0  0  0  0  0  0  0  0
   56.1100   29.2980   45.2120 N   0  0  0  0  0  0  0  0  0  0  0  0
   56.2860   29.6020   43.7870 C   0  0  0  0  0  0  0  0  0  0  0  0
   56.6750   31.0780   43.5620 C   0  0  0  0  0  0  0  0  0  0  0  0
   59.1950   35.1220   44.8800 C   0  0  0  0  0  0  0  0  0  0  0  0
   60.0380   35.3310   46.1580 C   0  0  0  0  0  0  0  0  0  0  0  0
   60.6960   30.8240   49.4050 C   0  0  0  0  0  0  0  0  0  0  0  0
   60.1070   29.5620   49.2990 C   0  0  0  0  0  0  0  0  0  0  0  0
   60.1320   28.8710   48.0790 C   0  0  0  0  0  0  0  0  0  0  0  0
   59.5530   27.5980   47.9630 C   0  0  0  0  0  0  0  0  0  0  0  0
   56.5330   26.1817   47.1859 H   0  0  0  0  0  0  0  0  0  0  0  0
   56.8018   27.0825   45.6552 H   0  0  0  0  0  0  0  0  0  0  0  0
   55.8027   25.5898   45.6552 H   0  0  0  0  0  0  0  0  0  0  0  0
   57.6910   24.1878   45.9922 H   0  0  0  0  0  0  0  0  0  0  0  0
   58.2403   25.4160   44.7873 H   0  0  0  0  0  0  0  0  0  0  0  0
   60.2333   26.9651   44.6718 H   0  0  0  0  0  0  0  0  0  0  0  0
   61.2669   29.2248   44.8585 H   0  0  0  0  0  0  0  0  0  0  0  0
   61.8143   31.1983   46.1929 H   0  0  0  0  0  0  0  0  0  0  0  0
   60.6958   33.2887   46.3091 H   0  0  0  0  0  0  0  0  0  0  0  0
   58.5943   33.7386   48.3857 H   0  0  0  0  0  0  0  0  0  0  0  0
   58.8362   32.3719   47.2058 H   0  0  0  0  0  0  0  0  0  0  0  0
   57.3508   34.9859   46.8408 H   0  0  0  0  0  0  0  0  0  0  0  0
   56.8398   33.2730   46.4887 H   0  0  0  0  0  0  0  0  0  0  0  0
   57.2430   34.5900   44.5410 H   0  0  0  0  0  0  0  0  0  0  0  0
   58.2427   33.0225   43.2647 H   0  0  0  0  0  0  0  0  0  0  0  0
   59.3770   32.5870   44.6423 H   0  0  0  0  0  0  0  0  0  0  0  0
   56.6896   32.0883   45.4625 H   0  0  0  0  0  0  0  0  0  0  0  0
   59.0036   30.1919   44.7502 H   0  0  0  0  0  0  0  0  0  0  0  0
   58.7708   31.0423   46.3321 H   0  0  0  0  0  0  0  0  0  0  0  0
   57.9343   28.4964   45.8749 H   0  0  0  0  0  0  0  0  0  0  0  0
   57.1012   29.6668   47.0054 H   0  0  0  0  0  0  0  0  0  0  0  0
   55.3960   29.9530   45.6110 H   0  0  0  0  0  0  0  0  0  0  0  0
   57.0800   28.9582   43.3806 H   0  0  0  0  0  0  0  0  0  0  0  0
   55.3292   29.4180   43.2765 H   0  0  0  0  0  0  0  0  0  0  0  0
   57.3159   31.1408   42.6702 H   0  0  0  0  0  0  0  0  0  0  0  0
   55.7445   31.6509   43.4360 H   0  0  0  0  0  0  0  0  0  0  0  0
   58.7807   36.0955   44.5790 H   0  0  0  0  0  0  0  0  0  0  0  0
   59.8710   34.6900   44.1274 H   0  0  0  0  0  0  0  0  0  0  0  0
   59.5447   36.0806   46.7942 H   0  0  0  0  0  0  0  0  0  0  0  0
   61.0406   35.6724   45.8610 H   0  0  0  0  0  0  0  0  0  0  0  0
   60.6777   31.3569   50.3671 H   0  0  0  0  0  0  0  0  0  0  0  0
   59.6217   29.1084   50.1758 H   0  0  0  0  0  0  0  0  0  0  0  0
   59.0664   27.1400   48.8367 H   0  0  0  0  0  0  0  0  0  0  0  0
  1  2  1  0
  2  3  1  0
  3  4  1  0
  4  5  2  0
  5  6  1  0
  6  7  2  0
  7  8  1  0
  8  9  2  0
  9 10  1  0
 10 11  2  0
 10 12  2  0
 10 13  1  0
 13 14  1  0
 14 15  1  0
 15 16  1  0
 16 17  1  0
 17 18  1  0
 18 19  1  0
 19 20  1  0
 20 21  1  0
 21 22  1  0
 22 23  1  0
 23 24  1  0
 17 25  1  0
 25 26  1  0
  9 27  1  0
 27 28  2  0
 28 29  1  0
 29 30  2  0
 30  4  1  0
 29  7  1  0
 26 14  1  0
 24 19  1  0
  1 31  1  0
  1 32  1  0
  1 33  1  0
  2 34  1  0
  2 35  1  0
  5 36  1  0
  6 37  1  0
  8 38  1  0
 14 39  1  6
 15 40  1  0
 15 41  1  0
 16 42  1  0
 16 43  1  0
 17 44  1  6
 18 45  1  0
 18 46  1  0
 19 47  1  0
 20 48  1  0
 20 49  1  0
 21 50  1  0
 21 51  1  0
 22 52  1  0
 23 53  1  0
 23 54  1  0
 24 55  1  0
 24 56  1  0
 25 57  1  0
 25 58  1  0
 26 59  1  0
 26 60  1  0
 27 61  1  0
 28 62  1  0
 30 63  1  0
M  CHG  2  13  -1  17   1
M  END
>  <UniqueID>  (6) 
6

>  <SMILES>  (6) 
CCOc1ccc2cc(S(=O)(=O)[N-]C3CC[NH+](CC4CCNCC4)CC3)ccc2c1

>  <Energy>  (6) 
79.7774479910942

>  <Genealogy>  (6) 
CCOc1ccc2cc(S(=O)(=O)[N-]C3CC[NH+](CC4CCNCC4)CC3)ccc2c1 (protonated)
CCOc1ccc2cc(S(=O)(=O)[N-]C3CC[NH+](CC4CCNCC4)CC3)ccc2c1 (3D coordinates assigned)
CCOc1ccc2cc(S(=O)(=O)[N-]C3CC[NH+](CC4CCNCC4)CC3)ccc2c1 (nonaromatic ring conformer: 79.7774479910942 kcal/mol)

>  <smiles>  (6) 
CCOc1ccc2cc(S(=O)(=O)NC3CCN(CC4CCNCC4)CC3)ccc2c1

>  <score_type>  (6) 
oracle

>  <origin>  (6) 
adg

>  <m_score__min__energy>  (6) 
-8.9299999999999997

>  <m_primary>  (6) 
energy

$$$$
6:0
     RDKit          3D

 33 33  0  0  0  0  0  0  0  0999 V2000
   57.7235   32.4595   43.5235 H   0  0  0  0  0  0  0  0  0  0  0  0
   57.3970   32.5040   44.5730 C   0  0  0  0  0  0  0  0  0  0  0  0
   57.0140   31.4170   45.1640 N   0  0  0  0  0  0  0  0  0  0  0  0
   56.2360   30.4860   44.5120 O   0  0  0  0  0  0  0  0  0  0  0  0
   56.7460   29.7680   43.4000 C   0  0  0  0  0  0  0  0  0  0  0  0
   57.4860   30.3886   42.8734 H   0  0  0  0  0  0  0  0  0  0  0  0
   55.9184   29.5184   42.7197 H   0  0  0  0  0  0  0  0  0  0  0  0
   57.4140   28.4760   43.8760 C   0  0  0  0  0  0  0  0  0  0  0  0
   58.4233   28.4171   43.4426 H   0  0  0  0  0  0  0  0  0  0  0  0
   56.7915   27.6302   43.5488 H   0  0  0  0  0  0  0  0  0  0  0  0
   57.5230   28.4210   45.3520 N   0  0  0  0  0  0  0  0  0  0  0  0
   58.7960   28.9400   45.9100 C   0  0  0  0  0  0  0  0  0  0  0  0
   59.0759   28.3116   46.7684 H   0  0  0  0  0  0  0  0  0  0  0  0
   58.6112   29.9888   46.1853 H   0  0  0  0  0  0  0  0  0  0  0  0
   59.9710   28.9500   44.9200 C   0  0  0  0  0  0  0  0  0  0  0  0
   60.9196   28.9581   45.4769 H   0  0  0  0  0  0  0  0  0  0  0  0
   59.9249   28.0514   44.2872 H   0  0  0  0  0  0  0  0  0  0  0  0
   59.9097   29.8477   44.2872 H   0  0  0  0  0  0  0  0  0  0  0  0
   57.0210   27.1830   45.9950 C   0  0  0  0  0  0  0  0  0  0  0  0
   56.7981   27.4081   47.0484 H   0  0  0  0  0  0  0  0  0  0  0  0
   56.1322   26.8714   45.4268 H   0  0  0  0  0  0  0  0  0  0  0  0
   58.0020   26.0080   45.9530 C   0  0  0  0  0  0  0  0  0  0  0  0
   58.2551   25.7048   46.9796 H   0  0  0  0  0  0  0  0  0  0  0  0
   57.5383   25.1619   45.4246 H   0  0  0  0  0  0  0  0  0  0  0  0
   58.9172   26.3132   45.4246 H   0  0  0  0  0  0  0  0  0  0  0  0
   57.4050   33.8230   45.2890 C   0  0  0  0  0  0  0  0  0  0  0  0
   56.3807   34.1169   45.0163 H   0  0  0  0  0  0  0  0  0  0  0  0
   58.7630   34.5100   45.3110 C   0  0  0  0  0  0  0  0  0  0  0  0
   59.6145   34.0627   44.7773 H   0  0  0  0  0  0  0  0  0  0  0  0
   59.1308   35.5147   45.0555 H   0  0  0  0  0  0  0  0  0  0  0  0
   58.2240   33.8510   46.5690 C   0  0  0  0  0  0  0  0  0  0  0  0
   58.6858   32.9267   46.9464 H   0  0  0  0  0  0  0  0  0  0  0  0
   58.0405   34.1816   47.6020 H   0  0  0  0  0  0  0  0  0  0  0  0
  1  2  1  0
  2  3  2  0
  3  4  1  0
  4  5  1  0
  5  6  1  0
  5  7  1  0
  5  8  1  0
  8  9  1  0
  8 10  1  0
  8 11  1  0
 11 12  1  0
 12 13  1  0
 12 14  1  0
 12 15  1  0
 15 16  1  0
 15 17  1  0
 15 18  1  0
 11 19  1  0
 19 20  1  0
 19 21  1  0
 19 22  1  0
 22 23  1  0
 22 24  1  0
 22 25  1  0
  2 26  1  0
 26 27  1  0
 26 28  1  0
 28 29  1  0
 28 30  1  0
 28 31  1  0
 31 32  1  0
 31 33  1  0
 31 26  1  0
M  END
>  <UniqueID>  (7) 
7

>  <SMILES>  (7) 
CCN(CC)CCO/N=C\C1CC1

>  <Energy>  (7) 
292.2488020850549

>  <Genealogy>  (7) 
CCN(CC)CCO/N=C\C1CC1 (cis-trans isomerization)
CCN(CC)CCO/N=C\C1CC1 (3D coordinates assigned)
CCN(CC)CCO/N=C\C1CC1 (nonaromatic ring conformer: 292.2488020850549 kcal/mol)

>  <smiles>  (7) 
CCN(CC)CCON=CC1CC1

>  <score_type>  (7) 
oracle

>  <origin>  (7) 
adg

>  <m_score__min__energy>  (7) 
-4.8300000000000001

>  <m_primary>  (7) 
energy

$$$$
7:0
     RDKit          3D

 63 65  0  0  0  0  0  0  0  0999 V2000
   63.3920   34.2170   46.3980 C   0  0  0  0  0  0  0  0  0  0  0  0
   63.7330   33.5730   47.7370 C   0  0  0  0  0  0  0  0  0  0  0  0
   63.5610   32.1150   47.6650 N   0  0  0  0  0  0  0  0  0  0  0  0
   62.9100   31.5890   48.8720 C   0  0  0  0  0  0  0  0  0  0  0  0
   61.6140   30.8700   48.5010 C   0  0  0  0  0  0  0  0  0  0  0  0
   61.3480   31.0010   47.0680 N   0  0  0  0  0  0  0  0  0  0  0  0
   59.9980   31.0250   46.5840 C   0  0  0  0  0  0  0  0  0  0  0  0
   59.3180   29.8180   46.3800 C   0  0  0  0  0  0  0  0  0  0  0  0
   59.7620   28.6240   46.9850 C   0  0  0  0  0  0  0  0  0  0  0  0
   59.0480   27.4400   46.8250 C   0  0  0  0  0  0  0  0  0  0  0  0
   57.8810   27.4270   46.0690 C   0  0  0  0  0  0  0  0  0  0  0  0
   57.4420   28.5910   45.4370 C   0  0  0  0  0  0  0  0  0  0  0  0
   58.1750   29.8000   45.5430 C   0  0  0  0  0  0  0  0  0  0  0  0
   57.8260   30.9340   44.8350 N   0  0  0  0  0  0  0  0  0  0  0  0
   56.8870   30.8330   43.6940 C   0  0  0  0  0  0  0  0  0  0  0  0
   58.3730   32.1600   45.1790 C   0  0  0  0  0  0  0  0  0  0  0  0
   57.9030   33.3670   44.6090 C   0  0  0  0  0  0  0  0  0  0  0  0
   58.4920   34.5850   44.9260 C   0  0  0  0  0  0  0  0  0  0  0  0
   59.4810   34.6570   45.8960 C   0  0  0  0  0  0  0  0  0  0  0  0
   59.9060   33.5020   46.5770 C   0  0  0  0  0  0  0  0  0  0  0  0
   60.6370   33.6240   47.8230 N   0  0  0  0  0  0  0  0  0  0  0  0
   60.0960   34.2500   49.0380 C   0  0  0  0  0  0  0  0  0  0  0  0
   60.4670   33.4700   50.3310 C   0  0  0  0  0  0  0  0  0  0  0  0
   59.4220   32.5550   50.8850 N   0  0  0  0  0  0  0  0  0  0  0  0
   60.1090   31.3940   51.5030 C   0  0  0  0  0  0  0  0  0  0  0  0
   58.6190   33.2250   51.9320 C   0  0  0  0  0  0  0  0  0  0  0  0
   58.5260   32.0440   49.8180 C   0  0  0  0  0  0  0  0  0  0  0  0
   59.4320   32.2310   46.1290 C   0  0  0  0  0  0  0  0  0  0  0  0
   62.8837   35.1769   46.5717 H   0  0  0  0  0  0  0  0  0  0  0  0
   64.3169   34.3897   45.8281 H   0  0  0  0  0  0  0  0  0  0  0  0
   62.7294   33.5491   45.8281 H   0  0  0  0  0  0  0  0  0  0  0  0
   64.7779   33.8021   47.9933 H   0  0  0  0  0  0  0  0  0  0  0  0
   63.0573   33.9736   48.5071 H   0  0  0  0  0  0  0  0  0  0  0  0
   64.5140   31.6820   47.6060 H   0  0  0  0  0  0  0  0  0  0  0  0
   63.5880   30.8814   49.3716 H   0  0  0  0  0  0  0  0  0  0  0  0
   62.6762   32.4252   49.5474 H   0  0  0  0  0  0  0  0  0  0  0  0
   61.7055   29.8040   48.7563 H   0  0  0  0  0  0  0  0  0  0  0  0
   60.7825   31.3236   49.0603 H   0  0  0  0  0  0  0  0  0  0  0  0
   62.1300   31.2210   46.4110 H   0  0  0  0  0  0  0  0  0  0  0  0
   60.6813   28.6284   47.5891 H   0  0  0  0  0  0  0  0  0  0  0  0
   59.4072   26.5137   47.2971 H   0  0  0  0  0  0  0  0  0  0  0  0
   57.3025   26.4968   45.9689 H   0  0  0  0  0  0  0  0  0  0  0  0
   56.5134   28.5703   44.8477 H   0  0  0  0  0  0  0  0  0  0  0  0
   55.8602   30.7226   44.0728 H   0  0  0  0  0  0  0  0  0  0  0  0
   56.9557   31.7437   43.0809 H   0  0  0  0  0  0  0  0  0  0  0  0
   57.1478   29.9577   43.0809 H   0  0  0  0  0  0  0  0  0  0  0  0
   57.0587   33.3406   43.9044 H   0  0  0  0  0  0  0  0  0  0  0  0
   58.1717   35.4987   44.4040 H   0  0  0  0  0  0  0  0  0  0  0  0
   59.9381   35.6285   46.1354 H   0  0  0  0  0  0  0  0  0  0  0  0
   61.5280   33.0880   47.9110 H   0  0  0  0  0  0  0  0  0  0  0  0
   60.4968   35.2714   49.1160 H   0  0  0  0  0  0  0  0  0  0  0  0
   58.9993   34.2488   48.9523 H   0  0  0  0  0  0  0  0  0  0  0  0
   61.3582   32.8640   50.1109 H   0  0  0  0  0  0  0  0  0  0  0  0
   60.6153   34.2407   51.1017 H   0  0  0  0  0  0  0  0  0  0  0  0
   60.0588   31.4788   52.5986 H   0  0  0  0  0  0  0  0  0  0  0  0
   59.6158   30.4639   51.1843 H   0  0  0  0  0  0  0  0  0  0  0  0
   61.1617   31.3786   51.1843 H   0  0  0  0  0  0  0  0  0  0  0  0
   58.9834   32.9209   52.9243 H   0  0  0  0  0  0  0  0  0  0  0  0
   58.7137   34.3157   51.8250 H   0  0  0  0  0  0  0  0  0  0  0  0
   57.5629   32.9364   51.8250 H   0  0  0  0  0  0  0  0  0  0  0  0
   57.6569   31.5483   50.2752 H   0  0  0  0  0  0  0  0  0  0  0  0
   58.1835   32.8826   49.1940 H   0  0  0  0  0  0  0  0  0  0  0  0
   59.0734   31.3223   49.1940 H   0  0  0  0  0  0  0  0  0  0  0  0
  1  2  1  0
  2  3  1  0
  3  4  1  0
  4  5  1  0
  5  6  1  0
  6  7  1  0
  7  8  2  0
  8  9  1  0
  9 10  2  0
 10 11  1  0
 11 12  2  0
 12 13  1  0
 13 14  2  0
 14 15  1  0
 14 16  1  0
 16 17  2  0
 17 18  1  0
 18 19  2  0
 19 20  1  0
 20 21  1  0
 21 22  1  0
 22 23  1  0
 23 24  1  0
 24 25  1  0
 24 26  1  0
 24 27  1  0
 20 28  2  0
 28  7  1  0
 13  8  1  0
 28 16  1  0
  1 29  1  0
  1 30  1  0
  1 31  1  0
  2 32  1  0
  2 33  1  0
  3 34  1  0
  4 35  1  0
  4 36  1  0
  5 37  1  0
  5 38  1  0
  6 39  1  0
  9 40  1  0
 10 41  1  0
 11 42  1  0
 12 43  1  0
 15 44  1  0
 15 45  1  0
 15 46  1  0
 17 47  1  0
 18 48  1  0
 19 49  1  0
 21 50  1  0
 22 51  1  0
 22 52  1  0
 23 53  1  0
 23 54  1  0
 25 55  1  0
 25 56  1  0
 25 57  1  0
 26 58  1  0
 26 59  1  0
 26 60  1  0
 27 61  1  0
 27 62  1  0
 27 63  1  0
M  CHG  2  14   1  24   1
M  END
>  <UniqueID>  (8) 
8

>  <SMILES>  (8) 
CCNCCNc1c2ccccc2[n+](C)c2cccc(NCC[N+](C)(C)C)c12

>  <Energy>  (8) 
102.3225310757153

>  <Genealogy>  (8) 
CCNCCNc1c2ccccc2[n+](C)c2cccc(NCC[N+](C)(C)C)c12 (3D coordinates assigned)
CCNCCNc1c2ccccc2[n+](C)c2cccc(NCC[N+](C)(C)C)c12 (optimized conformer: 102.3225310757153 kcal/mol)

>  <smiles>  (8) 
CCNCCNc1c2ccccc2[n+](C)c2cccc(NCC[N+](C)(C)C)c12

>  <score_type>  (8) 
oracle

>  <origin>  (8) 
adg

>  <m_score__min__energy>  (8) 
-4.1299999999999999

>  <m_primary>  (8) 
energy

$$$$
8:0
     RDKit          3D

 23 23  0  0  0  0  0  0  0  0999 V2000
   58.0490   27.7230   44.4400 C   0  0  0  0  0  0  0  0  0  0  0  0
   57.1140   28.1280   45.5840 C   0  0  0  0  0  0  0  0  0  0  0  0
   56.1260   29.1410   45.1740 N   0  0  0  0  0  0  0  0  0  0  0  0
   56.6150   30.0110   44.0960 C   0  0  0  0  0  0  0  0  0  0  0  0
   57.3700   31.1830   44.6660 C   0  0  0  0  0  0  0  0  0  0  0  0
   57.4600   32.3900   43.9540 C   0  0  0  0  0  0  0  0  0  0  0  0
   58.1490   33.4790   44.4970 C   0  0  0  0  0  0  0  0  0  0  0  0
   58.7490   33.3710   45.7550 C   0  0  0  0  0  0  0  0  0  0  0  0
   59.6880   34.8610   46.4970 Br  0  0  0  0  0  0  0  0  0  0  0  0
   58.6600   32.1740   46.4720 C   0  0  0  0  0  0  0  0  0  0  0  0
   57.9710   31.0830   45.9310 C   0  0  0  0  0  0  0  0  0  0  0  0
   58.9834   27.3183   44.8560 H   0  0  0  0  0  0  0  0  0  0  0  0
   57.5605   26.9558   43.8213 H   0  0  0  0  0  0  0  0  0  0  0  0
   58.2745   28.6041   43.8213 H   0  0  0  0  0  0  0  0  0  0  0  0
   56.5777   27.2338   45.9345 H   0  0  0  0  0  0  0  0  0  0  0  0
   57.7320   28.5675   46.3808 H   0  0  0  0  0  0  0  0  0  0  0  0
   55.8680   29.7340   45.9980 H   0  0  0  0  0  0  0  0  0  0  0  0
   57.2836   29.4340   43.4402 H   0  0  0  0  0  0  0  0  0  0  0  0
   55.7541   30.3866   43.5236 H   0  0  0  0  0  0  0  0  0  0  0  0
   56.9866   32.4792   42.9651 H   0  0  0  0  0  0  0  0  0  0  0  0
   58.2189   34.4213   43.9338 H   0  0  0  0  0  0  0  0  0  0  0  0
   59.1320   32.0899   47.4620 H   0  0  0  0  0  0  0  0  0  0  0  0
   57.8999   30.1435   46.4988 H   0  0  0  0  0  0  0  0  0  0  0  0
  1  2  1  0
  2  3  1  0
  3  4  1  0
  4  5  1  0
  5  6  2  0
  6  7  1  0
  7  8  2  0
  8  9  1  0
  8 10  1  0
 10 11  2  0
 11  5  1  0
  1 12  1  0
  1 13  1  0
  1 14  1  0
  2 15  1  0
  2 16  1  0
  3 17  1  0
  4 18  1  0
  4 19  1  0
  6 20  1  0
  7 21  1  0
 10 22  1  0
 11 23  1  0
M  END
>  <UniqueID>  (9) 
9

>  <SMILES>  (9) 
CCNCc1ccc(Br)cc1

>  <Energy>  (9) 
19.177471892761872

>  <Genealogy>  (9) 
CCNCc1ccc(Br)cc1 (3D coordinates assigned)
CCNCc1ccc(Br)cc1 (optimized conformer: 19.177471892761872 kcal/mol)

>  <smiles>  (9) 
CCNCc1ccc(Br)cc1

>  <score_type>  (9) 
oracle

>  <origin>  (9) 
adg

>  <m_score__min__energy>  (9) 
-5.5199999999999996

>  <m_primary>  (9) 
energy

$$$$
9:0
     RDKit          3D

 54 56  0  0  0  0  0  0  0  0999 V2000
   63.2480   33.8150   46.3610 C   0  0  0  0  0  0  0  0  0  0  0  0
   63.3790   32.6360   47.3210 C   0  0  0  0  0  0  0  0  0  0  0  0
   64.1310   33.0010   48.6100 C   0  0  0  0  0  0  0  0  0  0  0  0
   63.2710   32.8940   49.8020 N   0  0  0  0  0  0  0  0  0  0  0  0
   63.2120   31.5110   50.3130 C   0  0  0  0  0  0  0  0  0  0  0  0
   61.7760   31.0430   50.5900 C   0  0  0  0  0  0  0  0  0  0  0  0
   60.8650   32.0350   50.1620 O   0  0  0  0  0  0  0  0  0  0  0  0
   59.5400   31.6960   50.5310 C   0  0  0  0  0  0  0  0  0  0  0  0
   58.8890   30.8540   49.4330 C   0  0  0  0  0  0  0  0  0  0  0  0
   59.7400   30.7970   48.2460 N   0  0  0  0  0  0  0  0  0  0  0  0
   59.2380   31.2580   46.9820 C   0  0  0  0  0  0  0  0  0  0  0  0
   58.5550   30.3770   46.1250 C   0  0  0  0  0  0  0  0  0  0  0  0
   58.3380   29.0320   46.4940 C   0  0  0  0  0  0  0  0  0  0  0  0
   57.6210   28.1740   45.6630 C   0  0  0  0  0  0  0  0  0  0  0  0
   57.1010   28.6410   44.4620 C   0  0  0  0  0  0  0  0  0  0  0  0
   57.3190   29.9610   44.0680 C   0  0  0  0  0  0  0  0  0  0  0  0
   58.0830   30.8470   44.8710 C   0  0  0  0  0  0  0  0  0  0  0  0
   58.3600   32.1400   44.4640 N   0  0  0  0  0  0  0  0  0  0  0  0
   58.1280   32.5370   43.0580 C   0  0  0  0  0  0  0  0  0  0  0  0
   58.8800   33.0500   45.3630 C   0  0  0  0  0  0  0  0  0  0  0  0
   58.9300   34.4390   45.0770 C   0  0  0  0  0  0  0  0  0  0  0  0
   59.5000   35.3410   45.9760 C   0  0  0  0  0  0  0  0  0  0  0  0
   60.0180   34.8910   47.1850 C   0  0  0  0  0  0  0  0  0  0  0  0
   59.9440   33.5400   47.5140 C   0  0  0  0  0  0  0  0  0  0  0  0
   59.3650   32.6100   46.6240 C   0  0  0  0  0  0  0  0  0  0  0  0
   63.1445   34.7467   46.9365 H   0  0  0  0  0  0  0  0  0  0  0  0
   64.1452   33.8733   45.7272 H   0  0  0  0  0  0  0  0  0  0  0  0
   62.3599   33.6749   45.7272 H   0  0  0  0  0  0  0  0  0  0  0  0
   62.3709   32.2866   47.5887 H   0  0  0  0  0  0  0  0  0  0  0  0
   63.9583   31.8536   46.8089 H   0  0  0  0  0  0  0  0  0  0  0  0
   64.9862   32.3191   48.7271 H   0  0  0  0  0  0  0  0  0  0  0  0
   64.4632   34.0461   48.5243 H   0  0  0  0  0  0  0  0  0  0  0  0
   62.3100   33.2460   49.5850 H   0  0  0  0  0  0  0  0  0  0  0  0
   63.6720   33.4900   50.5610 H   0  0  0  0  0  0  0  0  0  0  0  0
   63.6630   30.8404   49.5667 H   0  0  0  0  0  0  0  0  0  0  0  0
   63.7599   31.4852   51.2665 H   0  0  0  0  0  0  0  0  0  0  0  0
   61.5834   30.1082   50.0432 H   0  0  0  0  0  0  0  0  0  0  0  0
   61.6490   30.8703   51.6689 H   0  0  0  0  0  0  0  0  0  0  0  0
   59.5591   31.1203   51.4681 H   0  0  0  0  0  0  0  0  0  0  0  0
   58.9575   32.6186   50.6709 H   0  0  0  0  0  0  0  0  0  0  0  0
   58.7276   29.8332   49.8098 H   0  0  0  0  0  0  0  0  0  0  0  0
   57.9305   31.3174   49.1564 H   0  0  0  0  0  0  0  0  0  0  0  0
   60.7760   30.7940   48.3840 H   0  0  0  0  0  0  0  0  0  0  0  0
   58.7391   28.6575   47.4474 H   0  0  0  0  0  0  0  0  0  0  0  0
   57.4663   27.1256   45.9579 H   0  0  0  0  0  0  0  0  0  0  0  0
   56.5152   27.9671   43.8196 H   0  0  0  0  0  0  0  0  0  0  0  0
   56.8921   30.3208   43.1202 H   0  0  0  0  0  0  0  0  0  0  0  0
   57.5731   33.4865   43.0319 H   0  0  0  0  0  0  0  0  0  0  0  0
   59.0946   32.6630   42.5483 H   0  0  0  0  0  0  0  0  0  0  0  0
   57.5437   31.7567   42.5483 H   0  0  0  0  0  0  0  0  0  0  0  0
   58.5121   34.8111   44.1300 H   0  0  0  0  0  0  0  0  0  0  0  0
   59.5396   36.4118   45.7273 H   0  0  0  0  0  0  0  0  0  0  0  0
   60.4862   35.6020   47.8816 H   0  0  0  0  0  0  0  0  0  0  0  0
   60.3416   33.1933   48.4793 H   0  0  0  0  0  0  0  0  0  0  0  0
  1  2  1  0
  2  3  1  0
  3  4  1  0
  4  5  1  0
  5  6  1  0
  6  7  1  0
  7  8  1  0
  8  9  1  0
  9 10  1  0
 10 11  1  0
 11 12  2  0
 12 13  1  0
 13 14  2  0
 14 15  1  0
 15 16  2  0
 16 17  1  0
 17 18  2  0
 18 19  1  0
 18 20  1  0
 20 21  2  0
 21 22  1  0
 22 23  2  0
 23 24  1  0
 24 25  2  0
 25 11  1  0
 17 12  1  0
 25 20  1  0
  1 26  1  0
  1 27  1  0
  1 28  1  0
  2 29  1  0
  2 30  1  0
  3 31  1  0
  3 32  1  0
  4 33  1  0
  4 34  1  0
  5 35  1  0
  5 36  1  0
  6 37  1  0
  6 38  1  0
  8 39  1  0
  8 40  1  0
  9 41  1  0
  9 42  1  0
 10 43  1  0
 13 44  1  0
 14 45  1  0
 15 46  1  0
 16 47  1  0
 19 48  1  0
 19 49  1  0
 19 50  1  0
 21 51  1  0
 22 52  1  0
 23 53  1  0
 24 54  1  0
M  CHG  2   4   1  18   1
M  END
>  <UniqueID>  (10) 
10

>  <SMILES>  (10) 
CCC[NH2+]CCOCCNc1c2ccccc2[n+](C)c2ccccc12

>  <Energy>  (10) 
76.57551077264037

>  <Genealogy>  (10) 
CCC[NH2+]CCOCCNc1c2ccccc2[n+](C)c2ccccc12 (protonated)
CCC[NH2+]CCOCCNc1c2ccccc2[n+](C)c2ccccc12 (3D coordinates assigned)
CCC[NH2+]CCOCCNc1c2ccccc2[n+](C)c2ccccc12 (optimized conformer: 76.57551077264037 kcal/mol)

>  <smiles>  (10) 
CCCNCCOCCNc1c2ccccc2[n+](C)c2ccccc12

>  <score_type>  (10) 
oracle

>  <origin>  (10) 
adg

>  <m_score__min__energy>  (10) 
-4.2599999999999998

>  <m_primary>  (10) 
energy

$$$$
10:0
     RDKit          3D

 47 50  0  0  0  0  0  0  0  0999 V2000
   65.1060   32.9040   49.7520 C   0  0  0  0  0  0  0  0  0  0  0  0
   64.1340   31.9760   49.0030 C   0  0  0  0  0  0  0  0  0  0  0  0
   62.8780   32.6190   48.5080 N   0  0  1  0  0  0  0  0  0  0  0  0
   63.0720   33.2640   47.1790 C   0  0  0  0  0  0  0  0  0  0  0  0
   61.7360   33.8660   46.6670 C   0  0  0  0  0  0  0  0  0  0  0  0
   60.6390   33.6080   47.6410 N   0  0  1  0  0  0  0  0  0  0  0  0
   59.3530   34.2390   47.2000 C   0  0  0  0  0  0  0  0  0  0  0  0
   59.1300   34.3490   45.6700 C   0  0  0  0  0  0  0  0  0  0  0  0
   58.5210   33.1090   45.0810 C   0  0  0  0  0  0  0  0  0  0  0  0
   58.0650   32.9830   43.7700 C   0  0  0  0  0  0  0  0  0  0  0  0
   57.5910   31.6940   43.7000 C   0  0  0  0  0  0  0  0  0  0  0  0
   57.0200   30.9880   42.6430 C   0  0  0  0  0  0  0  0  0  0  0  0
   56.6260   29.6580   42.8820 C   0  0  0  0  0  0  0  0  0  0  0  0
   56.8110   29.0750   44.1570 C   0  0  0  0  0  0  0  0  0  0  0  0
   57.3930   29.8160   45.2020 C   0  0  0  0  0  0  0  0  0  0  0  0
   57.7720   31.1300   44.9350 C   0  0  0  0  0  0  0  0  0  0  0  0
   58.3260   31.9880   45.7540 O   0  0  0  0  0  0  0  0  0  0  0  0
   60.5120   32.1400   47.8380 C   0  0  0  0  0  0  0  0  0  0  0  0
   61.8430   31.5550   48.3710 C   0  0  0  0  0  0  0  0  0  0  0  0
   61.0210   34.2170   48.9500 C   0  0  0  0  0  0  0  0  0  0  0  0
   62.3650   33.6410   49.4590 C   0  0  0  0  0  0  0  0  0  0  0  0
   64.9725   32.7765   50.8364 H   0  0  0  0  0  0  0  0  0  0  0  0
   66.1405   32.6499   49.4776 H   0  0  0  0  0  0  0  0  0  0  0  0
   64.9000   33.9491   49.4776 H   0  0  0  0  0  0  0  0  0  0  0  0
   64.6655   31.5591   48.1348 H   0  0  0  0  0  0  0  0  0  0  0  0
   63.8160   31.2195   49.7355 H   0  0  0  0  0  0  0  0  0  0  0  0
   63.8187   34.0664   47.2715 H   0  0  0  0  0  0  0  0  0  0  0  0
   63.4181   32.5049   46.4621 H   0  0  0  0  0  0  0  0  0  0  0  0
   61.8552   34.9516   46.5356 H   0  0  0  0  0  0  0  0  0  0  0  0
   61.4779   33.3934   45.7078 H   0  0  0  0  0  0  0  0  0  0  0  0
   58.5275   33.6434   47.6168 H   0  0  0  0  0  0  0  0  0  0  0  0
   59.3953   35.2758   47.5650 H   0  0  0  0  0  0  0  0  0  0  0  0
   58.4592   35.1981   45.4726 H   0  0  0  0  0  0  0  0  0  0  0  0
   60.1148   34.4899   45.2006 H   0  0  0  0  0  0  0  0  0  0  0  0
   58.0807   33.7413   42.9733 H   0  0  0  0  0  0  0  0  0  0  0  0
   56.8820   31.4539   41.6561 H   0  0  0  0  0  0  0  0  0  0  0  0
   56.1714   29.0686   42.0721 H   0  0  0  0  0  0  0  0  0  0  0  0
   56.4978   28.0353   44.3330 H   0  0  0  0  0  0  0  0  0  0  0  0
   57.5439   29.3724   46.1972 H   0  0  0  0  0  0  0  0  0  0  0  0
   59.7102   31.9388   48.5637 H   0  0  0  0  0  0  0  0  0  0  0  0
   60.2729   31.6677   46.8737 H   0  0  0  0  0  0  0  0  0  0  0  0
   61.6658   31.0968   49.3552 H   0  0  0  0  0  0  0  0  0  0  0  0
   62.2065   30.8030   47.6552 H   0  0  0  0  0  0  0  0  0  0  0  0
   61.1204   35.3053   48.8250 H   0  0  0  0  0  0  0  0  0  0  0  0
   60.2383   33.9835   49.6868 H   0  0  0  0  0  0  0  0  0  0  0  0
   63.0990   34.4554   49.5482 H   0  0  0  0  0  0  0  0  0  0  0  0
   62.2055   33.1705   50.4404 H   0  0  0  0  0  0  0  0  0  0  0  0
  1  2  1  0
  3  2  1  1
  3  4  1  0
  4  5  1  0
  5  6  1  0
  6  7  1  6
  7  8  1  0
  8  9  1  0
  9 10  2  0
 10 11  1  0
 11 12  2  0
 12 13  1  0
 13 14  2  0
 14 15  1  0
 15 16  2  0
 16 17  1  0
  6 18  1  0
 18 19  1  0
  6 20  1  0
 20 21  1  0
 19  3  1  0
 21  3  1  0
 17  9  1  0
 16 11  1  0
  1 22  1  0
  1 23  1  0
  1 24  1  0
  2 25  1  0
  2 26  1  0
  4 27  1  0
  4 28  1  0
  5 29  1  0
  5 30  1  0
  7 31  1  0
  7 32  1  0
  8 33  1  0
  8 34  1  0
 10 35  1  0
 12 36  1  0
 13 37  1  0
 14 38  1  0
 15 39  1  0
 18 40  1  0
 18 41  1  0
 19 42  1  0
 19 43  1  0
 20 44  1  0
 20 45  1  0
 21 46  1  0
 21 47  1  0
M  CHG  2   3   1   6   1
M  END
>  <UniqueID>  (11) 
11

>  <SMILES>  (11) 
CC[N+]12CC[N+](CCc3cc4ccccc4o3)(CC1)CC2

>  <Energy>  (11) 
110.75774546323366

>  <Genealogy>  (11) 
CC[N+]12CC[N+](CCc3cc4ccccc4o3)(CC1)CC2 (3D coordinates assigned)
CC[N+]12CC[N+](CCc3cc4ccccc4o3)(CC1)CC2 (nonaromatic ring conformer: 110.75774546323366 kcal/mol)

>  <smiles>  (11) 
CC[N+]12CC[N+](CCc3cc4ccccc4o3)(CC1)CC2

>  <score_type>  (11) 
oracle

>  <origin>  (11) 
adg

>  <m_score__min__energy>  (11) 
-4.6699999999999999

>  <m_primary>  (11) 
energy

$$$$
11:0
     RDKit          3D

 65 68  0  0  0  0  0  0  0  0999 V2000
   59.2580   33.8660   51.7400 C   0  0  0  0  0  0  0  0  0  0  0  0
   59.8520   33.7720   50.3320 C   0  0  0  0  0  0  0  0  0  0  0  0
   60.1920   32.3850   49.9600 N   0  0  0  0  0  0  0  0  0  0  0  0
   59.0550   31.4550   50.0350 C   0  0  0  0  0  0  0  0  0  0  0  0
   59.1480   30.3240   48.9940 C   0  0  0  0  0  0  0  0  0  0  0  0
   60.2750   30.5470   48.0680 N   0  0  0  0  0  0  0  0  0  0  0  0
   59.7950   30.7800   46.7090 C   0  0  0  0  0  0  0  0  0  0  0  0
   59.4290   29.6790   45.8920 C   0  0  0  0  0  0  0  0  0  0  0  0
   59.8940   28.3700   46.1700 C   0  0  0  0  0  0  0  0  0  0  0  0
   59.4560   27.2780   45.4270 C   0  0  0  0  0  0  0  0  0  0  0  0
   58.5450   27.4580   44.3980 C   0  0  0  0  0  0  0  0  0  0  0  0
   58.0940   28.7350   44.0810 C   0  0  0  0  0  0  0  0  0  0  0  0
   58.5590   29.8790   44.7850 C   0  0  0  0  0  0  0  0  0  0  0  0
   58.1380   31.1510   44.4520 N   0  0  0  0  0  0  0  0  0  0  0  0
   57.3970   31.3770   43.1890 C   0  0  0  0  0  0  0  0  0  0  0  0
   58.4620   32.2230   45.2580 C   0  0  0  0  0  0  0  0  0  0  0  0
   57.8260   33.4780   45.1060 C   0  0  0  0  0  0  0  0  0  0  0  0
   58.2610   34.5890   45.8140 C   0  0  0  0  0  0  0  0  0  0  0  0
   59.3830   34.5030   46.6250 C   0  0  0  0  0  0  0  0  0  0  0  0
   60.0260   33.2710   46.8240 C   0  0  0  0  0  0  0  0  0  0  0  0
   61.3620   33.2510   47.3730 N   0  0  0  0  0  0  0  0  0  0  0  0
   62.5390   33.8390   46.7290 C   0  0  0  0  0  0  0  0  0  0  0  0
   63.7670   32.9370   46.9110 C   0  0  0  0  0  0  0  0  0  0  0  0
   63.6660   32.0690   48.1740 C   0  0  0  0  0  0  0  0  0  0  0  0
   64.1590   32.7870   49.3600 N   0  0  0  0  0  0  0  0  0  0  0  0
   63.3150   33.5980   50.0710 C   0  0  0  0  0  0  0  0  0  0  0  0
   63.7740   34.2840   51.1990 C   0  0  0  0  0  0  0  0  0  0  0  0
   65.1030   34.1410   51.5960 C   0  0  0  0  0  0  0  0  0  0  0  0
   65.9540   33.3160   50.8650 C   0  0  0  0  0  0  0  0  0  0  0  0
   65.4630   32.6420   49.7440 C   0  0  0  0  0  0  0  0  0  0  0  0
   59.4430   32.0880   46.2760 C   0  0  0  0  0  0  0  0  0  0  0  0
   60.0578   33.7394   52.4846 H   0  0  0  0  0  0  0  0  0  0  0  0
   58.7851   34.8502   51.8735 H   0  0  0  0  0  0  0  0  0  0  0  0
   58.5044   33.0759   51.8735 H   0  0  0  0  0  0  0  0  0  0  0  0
   59.1180   34.1619   49.6115 H   0  0  0  0  0  0  0  0  0  0  0  0
   60.7804   34.3618   50.3179 H   0  0  0  0  0  0  0  0  0  0  0  0
   60.9940   32.0140   50.5220 H   0  0  0  0  0  0  0  0  0  0  0  0
   59.0305   31.0083   51.0399 H   0  0  0  0  0  0  0  0  0  0  0  0
   58.1401   32.0283   49.8246 H   0  0  0  0  0  0  0  0  0  0  0  0
   59.2953   29.3667   49.5155 H   0  0  0  0  0  0  0  0  0  0  0  0
   58.2149   30.3069   48.4117 H   0  0  0  0  0  0  0  0  0  0  0  0
   60.7850   31.3640   48.4560 H   0  0  0  0  0  0  0  0  0  0  0  0
   60.9440   29.7460   48.0870 H   0  0  0  0  0  0  0  0  0  0  0  0
   60.6136   28.2142   46.9872 H   0  0  0  0  0  0  0  0  0  0  0  0
   59.8333   26.2706   45.6566 H   0  0  0  0  0  0  0  0  0  0  0  0
   58.1781   26.5896   43.8312 H   0  0  0  0  0  0  0  0  0  0  0  0
   57.3628   28.8622   43.2692 H   0  0  0  0  0  0  0  0  0  0  0  0
   56.3680   31.6908   43.4187 H   0  0  0  0  0  0  0  0  0  0  0  0
   57.8984   32.1631   42.6053 H   0  0  0  0  0  0  0  0  0  0  0  0
   57.3744   30.4449   42.6053 H   0  0  0  0  0  0  0  0  0  0  0  0
   56.9743   33.5740   44.4165 H   0  0  0  0  0  0  0  0  0  0  0  0
   57.7148   35.5403   45.7320 H   0  0  0  0  0  0  0  0  0  0  0  0
   59.7720   35.4072   47.1161 H   0  0  0  0  0  0  0  0  0  0  0  0
   61.5120   32.7690   48.2900 H   0  0  0  0  0  0  0  0  0  0  0  0
   62.3383   33.9626   45.6545 H   0  0  0  0  0  0  0  0  0  0  0  0
   62.7455   34.8141   47.1944 H   0  0  0  0  0  0  0  0  0  0  0  0
   63.8560   32.2784   46.0345 H   0  0  0  0  0  0  0  0  0  0  0  0
   64.6498   33.5848   47.0157 H   0  0  0  0  0  0  0  0  0  0  0  0
   62.6136   31.7924   48.3349 H   0  0  0  0  0  0  0  0  0  0  0  0
   64.2874   31.1730   48.0288 H   0  0  0  0  0  0  0  0  0  0  0  0
   62.2683   33.7103   49.7520 H   0  0  0  0  0  0  0  0  0  0  0  0
   63.0919   34.9318   51.7692 H   0  0  0  0  0  0  0  0  0  0  0  0
   65.4769   34.6765   52.4811 H   0  0  0  0  0  0  0  0  0  0  0  0
   67.0047   33.1959   51.1678 H   0  0  0  0  0  0  0  0  0  0  0  0
   66.1320   31.9885   49.1649 H   0  0  0  0  0  0  0  0  0  0  0  0
  1  2  1  0
  2  3  1  0
  3  4  1  0
  4  5  1  0
  5  6  1  0
  6  7  1  0
  7  8  2  0
  8  9  1  0
  9 10  2  0
 10 11  1  0
 11 12  2  0
 12 13  1  0
 13 14  2  0
 14 15  1  0
 14 16  1  0
 16 17  2  0
 17 18  1  0
 18 19  2  0
 19 20  1  0
 20 21  1  0
 21 22  1  0
 22 23  1  0
 23 24  1  0
 24 25  1  0
 25 26  2  0
 26 27  1  0
 27 28  2  0
 28 29  1  0
 29 30  2  0
 20 31  2  0
 31  7  1  0
 13  8  1  0
 31 16  1  0
 30 25  1  0
  1 32  1  0
  1 33  1  0
  1 34  1  0
  2 35  1  0
  2 36  1  0
  3 37  1  0
  4 38  1  0
  4 39  1  0
  5 40  1  0
  5 41  1  0
  6 42  1  0
  6 43  1  0
  9 44  1  0
 10 45  1  0
 11 46  1  0
 12 47  1  0
 15 48  1  0
 15 49  1  0
 15 50  1  0
 17 51  1  0
 18 52  1  0
 19 53  1  0
 21 54  1  0
 22 55  1  0
 22 56  1  0
 23 57  1  0
 23 58  1  0
 24 59  1  0
 24 60  1  0
 26 61  1  0
 27 62  1  0
 28 63  1  0
 29 64  1  0
 30 65  1  0
M  CHG  3   6   1  14   1  25   1
M  END
>  <UniqueID>  (12) 
12

>  <SMILES>  (12) 
CCNCC[NH2+]c1c2ccccc2[n+](C)c2cccc(NCCC[n+]3ccccc3)c12

>  <Energy>  (12) 
105.71749132075684

>  <Genealogy>  (12) 
CCNCC[NH2+]c1c2ccccc2[n+](C)c2cccc(NCCC[n+]3ccccc3)c12 (protonated)
CCNCC[NH2+]c1c2ccccc2[n+](C)c2cccc(NCCC[n+]3ccccc3)c12 (3D coordinates assigned)
CCNCC[NH2+]c1c2ccccc2[n+](C)c2cccc(NCCC[n+]3ccccc3)c12 (optimized conformer: 105.71749132075684 kcal/mol)

>  <smiles>  (12) 
CCNCCNc1c2ccccc2[n+](C)c2cccc(NCCC[n+]3ccccc3)c12

>  <score_type>  (12) 
oracle

>  <origin>  (12) 
adg

>  <m_score__min__energy>  (12) 
-3.23

>  <m_primary>  (12) 
energy

$$$$
12:0
     RDKit          3D

 50 52  0  0  0  0  0  0  0  0999 V2000
   55.9060   29.7450   43.6140 C   0  0  0  0  0  0  0  0  0  0  0  0
   56.9420   29.8110   44.7400 C   0  0  0  0  0  0  0  0  0  0  0  0
   57.3640   31.1880   45.0410 N   0  0  0  0  0  0  0  0  0  0  0  0
   57.5950   31.9770   43.8230 C   0  0  0  0  0  0  0  0  0  0  0  0
   57.9660   33.4240   44.1790 C   0  0  0  0  0  0  0  0  0  0  0  0
   57.8680   33.7660   45.6790 C   0  0  0  0  0  0  0  0  0  0  0  0
   59.1870   33.6500   46.4610 C   0  0  0  0  0  0  0  0  0  0  0  0
   59.8060   32.3310   46.2950 N   0  0  0  0  0  0  0  0  0  0  0  0
   60.5960   31.7140   47.3260 C   0  0  0  0  0  0  0  0  0  0  0  0
   60.1360   30.5480   47.9390 C   0  0  0  0  0  0  0  0  0  0  0  0
   60.7800   30.0180   49.0260 C   0  0  0  0  0  0  0  0  0  0  0  0
   61.9210   30.5810   49.5430 N   0  0  0  0  0  0  0  0  0  0  0  0
   62.5680   29.9890   50.7290 C   0  0  0  0  0  0  0  0  0  0  0  0
   62.4680   31.6870   48.9140 C   0  0  0  0  0  0  0  0  0  0  0  0
   63.6740   32.2760   49.3660 C   0  0  0  0  0  0  0  0  0  0  0  0
   64.2440   33.3550   48.6890 C   0  0  0  0  0  0  0  0  0  0  0  0
   63.6430   33.8590   47.5410 C   0  0  0  0  0  0  0  0  0  0  0  0
   62.4520   33.3090   47.0750 C   0  0  0  0  0  0  0  0  0  0  0  0
   61.8250   32.2550   47.7690 C   0  0  0  0  0  0  0  0  0  0  0  0
   60.0710   28.8110   49.5380 C   0  0  0  0  0  0  0  0  0  0  0  0
   58.8510   28.6530   48.6160 C   0  0  0  0  0  0  0  0  0  0  0  0
   58.9340   29.7620   47.5580 C   0  0  0  0  0  0  0  0  0  0  0  0
   54.8970   29.6807   44.0474 H   0  0  0  0  0  0  0  0  0  0  0  0
   55.9813   30.6498   42.9929 H   0  0  0  0  0  0  0  0  0  0  0  0
   56.0955   28.8571   42.9929 H   0  0  0  0  0  0  0  0  0  0  0  0
   56.5041   29.3704   45.6478 H   0  0  0  0  0  0  0  0  0  0  0  0
   57.8312   29.2554   44.4074 H   0  0  0  0  0  0  0  0  0  0  0  0
   56.6290   31.6580   45.6200 H   0  0  0  0  0  0  0  0  0  0  0  0
   58.4167   31.5238   43.2491 H   0  0  0  0  0  0  0  0  0  0  0  0
   56.6720   31.9844   43.2247 H   0  0  0  0  0  0  0  0  0  0  0  0
   59.0020   33.6014   43.8545 H   0  0  0  0  0  0  0  0  0  0  0  0
   57.2347   34.0663   43.6665 H   0  0  0  0  0  0  0  0  0  0  0  0
   57.5077   34.8013   45.7698 H   0  0  0  0  0  0  0  0  0  0  0  0
   57.1845   33.0247   46.1187 H   0  0  0  0  0  0  0  0  0  0  0  0
   59.8848   34.4188   46.0976 H   0  0  0  0  0  0  0  0  0  0  0  0
   58.9640   33.7904   47.5290 H   0  0  0  0  0  0  0  0  0  0  0  0
   59.3860   31.7130   45.5660 H   0  0  0  0  0  0  0  0  0  0  0  0
   62.1136   30.4048   51.6404 H   0  0  0  0  0  0  0  0  0  0  0  0
   62.4301   28.8978   50.7155 H   0  0  0  0  0  0  0  0  0  0  0  0
   63.6427   30.2230   50.7155 H   0  0  0  0  0  0  0  0  0  0  0  0
   64.1687   31.8771   50.2639 H   0  0  0  0  0  0  0  0  0  0  0  0
   65.1728   33.8087   49.0652 H   0  0  0  0  0  0  0  0  0  0  0  0
   64.1100   34.6948   46.9993 H   0  0  0  0  0  0  0  0  0  0  0  0
   61.9952   33.7017   46.1546 H   0  0  0  0  0  0  0  0  0  0  0  0
   60.7202   27.9251   49.4772 H   0  0  0  0  0  0  0  0  0  0  0  0
   59.7829   28.9151   50.5945 H   0  0  0  0  0  0  0  0  0  0  0  0
   58.8713   27.6664   48.1300 H   0  0  0  0  0  0  0  0  0  0  0  0
   57.9157   28.7304   49.1898 H   0  0  0  0  0  0  0  0  0  0  0  0
   59.0527   29.3323   46.5524 H   0  0  0  0  0  0  0  0  0  0  0  0
   58.0235   30.3784   47.5248 H   0  0  0  0  0  0  0  0  0  0  0  0
  1  2  1  0
  2  3  1  0
  3  4  1  0
  4  5  1  0
  5  6  1  0
  6  7  1  0
  7  8  1  0
  8  9  1  0
  9 10  2  0
 10 11  1  0
 11 12  2  0
 12 13  1  0
 12 14  1  0
 14 15  2  0
 15 16  1  0
 16 17  2  0
 17 18  1  0
 18 19  2  0
 11 20  1  0
 20 21  1  0
 21 22  1  0
 19  9  1  0
 22 10  1  0
 19 14  1  0
  1 23  1  0
  1 24  1  0
  1 25  1  0
  2 26  1  0
  2 27  1  0
  3 28  1  0
  4 29  1  0
  4 30  1  0
  5 31  1  0
  5 32  1  0
  6 33  1  0
  6 34  1  0
  7 35  1  0
  7 36  1  0
  8 37  1  0
 13 38  1  0
 13 39  1  0
 13 40  1  0
 15 41  1  0
 16 42  1  0
 17 43  1  0
 18 44  1  0
 20 45  1  0
 20 46  1  0
 21 47  1  0
 21 48  1  0
 22 49  1  0
 22 50  1  0
M  CHG  1  12   1
M  END
>  <UniqueID>  (13) 
13

>  <SMILES>  (13) 
CCNCCCCNc1c2c([n+](C)c3ccccc13)CCC2

>  <Energy>  (13) 
64.97176685973047

>  <Genealogy>  (13) 
CCNCCCCNc1c2c([n+](C)c3ccccc13)CCC2 (3D coordinates assigned)
CCNCCCCNc1c2c([n+](C)c3ccccc13)CCC2 (nonaromatic ring conformer: 64.97176685973047 kcal/mol)

>  <smiles>  (13) 
CCNCCCCNc1c2c([n+](C)c3ccccc13)CCC2

>  <score_type>  (13) 
oracle

>  <origin>  (13) 
adg

>  <m_score__min__energy>  (13) 
-5.3600000000000003

>  <m_primary>  (13) 
energy

$$$$
13:0
     RDKit          3D

 71 74  0  0  0  0  0  0  0  0999 V2000
   63.2070   33.8320   46.9720 C   0  0  0  0  0  0  0  0  0  0  0  0
   63.4430   32.5590   47.8070 C   0  0  2  0  0  0  0  0  0  0  0  0
   62.7810   31.3430   47.1280 C   0  0  0  0  0  0  0  0  0  0  0  0
   61.4930   31.0040   47.7420 N   0  0  0  0  0  0  0  0  0  0  0  0
   60.2810   30.9970   46.9670 C   0  0  0  0  0  0  0  0  0  0  0  0
   59.8680   29.7970   46.3650 C   0  0  0  0  0  0  0  0  0  0  0  0
   60.3960   28.5570   46.7860 C   0  0  0  0  0  0  0  0  0  0  0  0
   59.9510   27.3660   46.2170 C   0  0  0  0  0  0  0  0  0  0  0  0
   58.9690   27.3890   45.2330 C   0  0  0  0  0  0  0  0  0  0  0  0
   58.4470   28.6050   44.7920 C   0  0  0  0  0  0  0  0  0  0  0  0
   58.9120   29.8350   45.3240 C   0  0  0  0  0  0  0  0  0  0  0  0
   58.4740   31.0510   44.8420 N   0  0  0  0  0  0  0  0  0  0  0  0
   57.7980   31.1160   43.5260 C   0  0  0  0  0  0  0  0  0  0  0  0
   58.6900   32.2050   45.5740 C   0  0  0  0  0  0  0  0  0  0  0  0
   58.0610   33.4210   45.2210 C   0  0  0  0  0  0  0  0  0  0  0  0
   58.3360   34.5960   45.9000 C   0  0  0  0  0  0  0  0  0  0  0  0
   59.1610   34.5880   47.0110 C   0  0  0  0  0  0  0  0  0  0  0  0
   59.7130   33.3840   47.4980 C   0  0  0  0  0  0  0  0  0  0  0  0
   60.4180   33.3520   48.7730 N   0  0  0  0  0  0  0  0  0  0  0  0
   59.6840   33.9200   49.9210 C   0  0  0  0  0  0  0  0  0  0  0  0
   59.1770   32.8310   50.8890 C   0  0  0  0  0  0  0  0  0  0  0  0
   58.7570   31.5230   50.1890 C   0  0  0  0  0  0  0  0  0  0  0  0
   59.8930   30.5850   50.0200 N   0  0  0  0  0  0  0  0  0  0  0  0
   60.8100   30.6220   51.1840 C   0  0  0  0  0  0  0  0  0  0  0  0
   60.5450   29.4580   52.1560 C   0  0  0  0  0  0  0  0  0  0  0  0
   60.6970   28.1740   51.5660 O   0  0  0  0  0  0  0  0  0  0  0  0
   60.4530   28.1550   50.1680 C   0  0  0  0  0  0  0  0  0  0  0  0
   59.4310   29.2090   49.7100 C   0  0  0  0  0  0  0  0  0  0  0  0
   59.5660   32.1930   46.7030 C   0  0  0  0  0  0  0  0  0  0  0  0
   63.0060   32.6890   49.2240 N   0  0  0  0  0  0  0  0  0  0  0  0
   63.5710   31.6370   50.0860 C   0  0  0  0  0  0  0  0  0  0  0  0
   63.2280   34.0190   49.8190 C   0  0  0  0  0  0  0  0  0  0  0  0
   63.0484   34.6877   47.6448 H   0  0  0  0  0  0  0  0  0  0  0  0
   64.0852   34.0224   46.3375 H   0  0  0  0  0  0  0  0  0  0  0  0
   62.3190   33.6949   46.3375 H   0  0  0  0  0  0  0  0  0  0  0  0
   64.5313   32.4036   47.8447 H   0  0  0  0  0  0  0  0  0  0  0  0
   62.6175   31.5752   46.0653 H   0  0  0  0  0  0  0  0  0  0  0  0
   63.4522   30.4798   47.2483 H   0  0  0  0  0  0  0  0  0  0  0  0
   61.5180   30.4150   48.6050 H   0  0  0  0  0  0  0  0  0  0  0  0
   61.1662   28.5312   47.5709 H   0  0  0  0  0  0  0  0  0  0  0  0
   60.3768   26.4067   46.5464 H   0  0  0  0  0  0  0  0  0  0  0  0
   58.6028   26.4459   44.8012 H   0  0  0  0  0  0  0  0  0  0  0  0
   57.6632   28.6102   44.0203 H   0  0  0  0  0  0  0  0  0  0  0  0
   56.7132   31.2203   43.6758 H   0  0  0  0  0  0  0  0  0  0  0  0
   58.1753   31.9820   42.9624 H   0  0  0  0  0  0  0  0  0  0  0  0
   58.0034   30.1940   42.9624 H   0  0  0  0  0  0  0  0  0  0  0  0
   57.3393   33.4339   44.3910 H   0  0  0  0  0  0  0  0  0  0  0  0
   57.8955   35.5426   45.5538 H   0  0  0  0  0  0  0  0  0  0  0  0
   59.3900   35.5346   47.5223 H   0  0  0  0  0  0  0  0  0  0  0  0
   61.3090   33.8820   48.6620 H   0  0  0  0  0  0  0  0  0  0  0  0
   60.6010   32.3510   49.0110 H   0  0  0  0  0  0  0  0  0  0  0  0
   60.3552   34.5967   50.4702 H   0  0  0  0  0  0  0  0  0  0  0  0
   58.8071   34.4554   49.5280 H   0  0  0  0  0  0  0  0  0  0  0  0
   59.9814   32.5996   51.6027 H   0  0  0  0  0  0  0  0  0  0  0  0
   58.2796   33.2331   51.3820 H   0  0  0  0  0  0  0  0  0  0  0  0
   57.9799   31.0322   50.7934 H   0  0  0  0  0  0  0  0  0  0  0  0
   58.3831   31.7825   49.1875 H   0  0  0  0  0  0  0  0  0  0  0  0
   61.8469   30.5557   50.8229 H   0  0  0  0  0  0  0  0  0  0  0  0
   60.6398   31.5649   51.7243 H   0  0  0  0  0  0  0  0  0  0  0  0
   61.2505   29.5397   52.9960 H   0  0  0  0  0  0  0  0  0  0  0  0
   59.4966   29.5412   52.4782 H   0  0  0  0  0  0  0  0  0  0  0  0
   61.4032   28.3413   49.6460 H   0  0  0  0  0  0  0  0  0  0  0  0
   60.0311   27.1683   49.9263 H   0  0  0  0  0  0  0  0  0  0  0  0
   59.2852   29.1171   48.6236 H   0  0  0  0  0  0  0  0  0  0  0  0
   58.4879   29.0321   50.2479 H   0  0  0  0  0  0  0  0  0  0  0  0
   63.4245   31.9099   51.1415 H   0  0  0  0  0  0  0  0  0  0  0  0
   63.0640   30.6827   49.8802 H   0  0  0  0  0  0  0  0  0  0  0  0
   64.6465   31.5327   49.8802 H   0  0  0  0  0  0  0  0  0  0  0  0
   63.2143   33.9369   50.9158 H   0  0  0  0  0  0  0  0  0  0  0  0
   64.2036   34.4085   49.4926 H   0  0  0  0  0  0  0  0  0  0  0  0
   62.4318   34.7042   49.4926 H   0  0  0  0  0  0  0  0  0  0  0  0
  1  2  1  0
  2  3  1  0
  3  4  1  0
  4  5  1  0
  5  6  2  0
  6  7  1  0
  7  8  2  0
  8  9  1  0
  9 10  2  0
 10 11  1  0
 11 12  2  0
 12 13  1  0
 12 14  1  0
 14 15  2  0
 15 16  1  0
 16 17  2  0
 17 18  1  0
 18 19  1  0
 19 20  1  0
 20 21  1  0
 21 22  1  0
 22 23  1  0
 23 24  1  0
 24 25  1  0
 25 26  1  0
 26 27  1  0
 27 28  1  0
 18 29  2  0
  2 30  1  0
 30 31  1  0
 30 32  1  0
 29  5  1  0
 11  6  1  0
 29 14  1  0
 28 23  1  0
  1 33  1  0
  1 34  1  0
  1 35  1  0
  2 36  1  1
  3 37  1  0
  3 38  1  0
  4 39  1  0
  7 40  1  0
  8 41  1  0
  9 42  1  0
 10 43  1  0
 13 44  1  0
 13 45  1  0
 13 46  1  0
 15 47  1  0
 16 48  1  0
 17 49  1  0
 19 50  1  0
 19 51  1  0
 20 52  1  0
 20 53  1  0
 21 54  1  0
 21 55  1  0
 22 56  1  0
 22 57  1  0
 24 58  1  0
 24 59  1  0
 25 60  1  0
 25 61  1  0
 27 62  1  0
 27 63  1  0
 28 64  1  0
 28 65  1  0
 31 66  1  0
 31 67  1  0
 31 68  1  0
 32 69  1  0
 32 70  1  0
 32 71  1  0
M  CHG  2  12   1  19   1
M  END
>  <UniqueID>  (14) 
14

>  <SMILES>  (14) 
C[C@H](CNc1c2ccccc2[n+](C)c2cccc([NH2+]CCCN3CCOCC3)c12)N(C)C

>  <Energy>  (14) 
122.99520161050367

>  <Genealogy>  (14) 
CC(CNc1c2ccccc2[n+](C)c2cccc([NH2+]CCCN3CCOCC3)c12)N(C)C (protonated)
C[C@H](CNc1c2ccccc2[n+](C)c2cccc([NH2+]CCCN3CCOCC3)c12)N(C)C (chirality)
C[C@H](CNc1c2ccccc2[n+](C)c2cccc([NH2+]CCCN3CCOCC3)c12)N(C)C (3D coordinates assigned)
C[C@H](CNc1c2ccccc2[n+](C)c2cccc([NH2+]CCCN3CCOCC3)c12)N(C)C (nonaromatic ring conformer: 122.99520161050367 kcal/mol)

>  <smiles>  (14) 
CC(CNc1c2ccccc2[n+](C)c2cccc(NCCCN3CCOCC3)c12)N(C)C

>  <score_type>  (14) 
oracle

>  <origin>  (14) 
adg

>  <m_score__min__energy>  (14) 
-4.0300000000000002

>  <m_primary>  (14) 
energy

$$$$
14:0
     RDKit          3D

 71 73  0  0  0  0  0  0  0  0999 V2000
   63.0130   34.5920   50.5120 C   0  0  0  0  0  0  0  0  0  0  0  0
   62.4810   33.5590   49.4990 C   0  0  0  0  0  0  0  0  0  0  0  0
   63.4470   32.4900   49.0610 N   0  0  0  0  0  0  0  0  0  0  0  0
   64.8630   32.8870   49.3960 C   0  0  0  0  0  0  0  0  0  0  0  0
   65.6240   31.9560   50.3560 C   0  0  0  0  0  0  0  0  0  0  0  0
   63.3910   32.2940   47.5670 C   0  0  0  0  0  0  0  0  0  0  0  0
   63.3800   33.5770   46.7130 C   0  0  0  0  0  0  0  0  0  0  0  0
   63.0460   31.2260   49.7760 C   0  0  0  0  0  0  0  0  0  0  0  0
   62.4070   31.4040   51.1880 C   0  0  0  0  0  0  0  0  0  0  0  0
   61.3770   30.3020   51.5730 C   0  0  0  0  0  0  0  0  0  0  0  0
   59.9840   30.8210   51.5930 N   0  0  2  0  0  0  0  0  0  0  0  0
   59.0350   29.6990   51.7120 C   0  0  0  0  0  0  0  0  0  0  0  0
   59.6790   31.6350   50.3770 C   0  0  0  0  0  0  0  0  0  0  0  0
   59.0240   30.7930   49.2650 C   0  0  0  0  0  0  0  0  0  0  0  0
   59.8820   30.7350   48.0790 N   0  0  0  0  0  0  0  0  0  0  0  0
   59.3920   31.1450   46.7850 C   0  0  0  0  0  0  0  0  0  0  0  0
   58.7930   30.2080   45.9190 C   0  0  0  0  0  0  0  0  0  0  0  0
   58.7530   28.8350   46.2490 C   0  0  0  0  0  0  0  0  0  0  0  0
   58.0610   27.9310   45.4490 C   0  0  0  0  0  0  0  0  0  0  0  0
   57.4140   28.3710   44.3000 C   0  0  0  0  0  0  0  0  0  0  0  0
   57.4970   29.7090   43.9170 C   0  0  0  0  0  0  0  0  0  0  0  0
   58.2250   30.6480   44.6930 C   0  0  0  0  0  0  0  0  0  0  0  0
   58.3600   31.9660   44.2950 N   0  0  0  0  0  0  0  0  0  0  0  0
   58.0260   32.3570   42.9060 C   0  0  0  0  0  0  0  0  0  0  0  0
   58.8430   32.9100   45.1810 C   0  0  0  0  0  0  0  0  0  0  0  0
   58.7620   34.3000   44.9030 C   0  0  0  0  0  0  0  0  0  0  0  0
   59.2970   35.2430   45.7770 C   0  0  0  0  0  0  0  0  0  0  0  0
   59.9170   34.8340   46.9500 C   0  0  0  0  0  0  0  0  0  0  0  0
   59.9750   33.4800   47.2750 C   0  0  0  0  0  0  0  0  0  0  0  0
   59.4170   32.5050   46.4180 C   0  0  0  0  0  0  0  0  0  0  0  0
   62.8275   34.2318   51.5347 H   0  0  0  0  0  0  0  0  0  0  0  0
   64.0940   34.7294   50.3621 H   0  0  0  0  0  0  0  0  0  0  0  0
   62.4971   35.5519   50.3621 H   0  0  0  0  0  0  0  0  0  0  0  0
   61.6136   33.0594   49.9551 H   0  0  0  0  0  0  0  0  0  0  0  0
   62.2505   34.1339   48.5900 H   0  0  0  0  0  0  0  0  0  0  0  0
   65.4297   32.9328   48.4543 H   0  0  0  0  0  0  0  0  0  0  0  0
   64.7805   33.8483   49.9243 H   0  0  0  0  0  0  0  0  0  0  0  0
   65.3958   32.2351   51.3952 H   0  0  0  0  0  0  0  0  0  0  0  0
   65.3147   30.9152   50.1795 H   0  0  0  0  0  0  0  0  0  0  0  0
   66.7055   32.0521   50.1795 H   0  0  0  0  0  0  0  0  0  0  0  0
   64.2705   31.7024   47.2728 H   0  0  0  0  0  0  0  0  0  0  0  0
   62.4276   31.8009   47.3704 H   0  0  0  0  0  0  0  0  0  0  0  0
   63.3725   34.4568   47.3732 H   0  0  0  0  0  0  0  0  0  0  0  0
   64.2780   33.6026   46.0782 H   0  0  0  0  0  0  0  0  0  0  0  0
   62.4817   33.5872   46.0782 H   0  0  0  0  0  0  0  0  0  0  0  0
   62.3174   30.6992   49.1423 H   0  0  0  0  0  0  0  0  0  0  0  0
   63.9828   30.6748   49.9452 H   0  0  0  0  0  0  0  0  0  0  0  0
   63.2149   31.3953   51.9345 H   0  0  0  0  0  0  0  0  0  0  0  0
   61.8543   32.3548   51.1641 H   0  0  0  0  0  0  0  0  0  0  0  0
   61.4406   29.4851   50.8391 H   0  0  0  0  0  0  0  0  0  0  0  0
   61.6215   29.9488   52.5857 H   0  0  0  0  0  0  0  0  0  0  0  0
   59.8750   31.3890   52.4680 H   0  0  0  0  0  0  0  0  0  0  0  0
   58.8530   29.4839   52.7753 H   0  0  0  0  0  0  0  0  0  0  0  0
   58.0862   29.9680   51.2247 H   0  0  0  0  0  0  0  0  0  0  0  0
   59.4577   28.8080   51.2247 H   0  0  0  0  0  0  0  0  0  0  0  0
   58.9928   32.4478   50.6572 H   0  0  0  0  0  0  0  0  0  0  0  0
   60.6285   32.0307   49.9874 H   0  0  0  0  0  0  0  0  0  0  0  0
   58.8558   29.7720   49.6381 H   0  0  0  0  0  0  0  0  0  0  0  0
   58.0691   31.2620   48.9853 H   0  0  0  0  0  0  0  0  0  0  0  0
   60.9140   30.6770   48.2290 H   0  0  0  0  0  0  0  0  0  0  0  0
   59.2748   28.4765   47.1486 H   0  0  0  0  0  0  0  0  0  0  0  0
   58.0259   26.8670   45.7261 H   0  0  0  0  0  0  0  0  0  0  0  0
   56.8347   27.6613   43.6911 H   0  0  0  0  0  0  0  0  0  0  0  0
   56.9904   30.0419   42.9991 H   0  0  0  0  0  0  0  0  0  0  0  0
   57.3116   33.1933   42.9222 H   0  0  0  0  0  0  0  0  0  0  0  0
   58.9421   32.6674   42.3821 H   0  0  0  0  0  0  0  0  0  0  0  0
   57.5763   31.5007   42.3821 H   0  0  0  0  0  0  0  0  0  0  0  0
   58.2676   34.6382   43.9804 H   0  0  0  0  0  0  0  0  0  0  0  0
   59.2282   36.3144   45.5375 H   0  0  0  0  0  0  0  0  0  0  0  0
   60.3632   35.5800   47.6241 H   0  0  0  0  0  0  0  0  0  0  0  0
   60.4613   33.1664   48.2105 H   0  0  0  0  0  0  0  0  0  0  0  0
  1  2  1  0
  2  3  1  0
  3  4  1  0
  4  5  1  0
  3  6  1  0
  6  7  1  0
  3  8  1  0
  8  9  1  0
  9 10  1  0
 10 11  1  0
 11 12  1  0
 11 13  1  0
 13 14  1  0
 14 15  1  0
 15 16  1  0
 16 17  2  0
 17 18  1  0
 18 19  2  0
 19 20  1  0
 20 21  2  0
 21 22  1  0
 22 23  2  0
 23 24  1  0
 23 25  1  0
 25 26  2  0
 26 27  1  0
 27 28  2  0
 28 29  1  0
 29 30  2  0
 30 16  1  0
 22 17  1  0
 30 25  1  0
  1 31  1  0
  1 32  1  0
  1 33  1  0
  2 34  1  0
  2 35  1  0
  4 36  1  0
  4 37  1  0
  5 38  1  0
  5 39  1  0
  5 40  1  0
  6 41  1  0
  6 42  1  0
  7 43  1  0
  7 44  1  0
  7 45  1  0
  8 46  1  0
  8 47  1  0
  9 48  1  0
  9 49  1  0
 10 50  1  0
 10 51  1  0
 11 52  1  1
 12 53  1  0
 12 54  1  0
 12 55  1  0
 13 56  1  0
 13 57  1  0
 14 58  1  0
 14 59  1  0
 15 60  1  0
 18 61  1  0
 19 62  1  0
 20 63  1  0
 21 64  1  0
 24 65  1  0
 24 66  1  0
 24 67  1  0
 26 68  1  0
 27 69  1  0
 28 70  1  0
 29 71  1  0
M  CHG  3   3   1  11   1  23   1
M  END
>  <UniqueID>  (15) 
15

>  <SMILES>  (15) 
CC[N+](CC)(CC)CCC[N@H+](C)CCNc1c2ccccc2[n+](C)c2ccccc12

>  <Energy>  (15) 
119.44721252092747

>  <Genealogy>  (15) 
CC[N+](CC)(CC)CCC[NH+](C)CCNc1c2ccccc2[n+](C)c2ccccc12 (protonated)
CC[N+](CC)(CC)CCC[N@H+](C)CCNc1c2ccccc2[n+](C)c2ccccc12 (chirality)
CC[N+](CC)(CC)CCC[N@H+](C)CCNc1c2ccccc2[n+](C)c2ccccc12 (3D coordinates assigned)
CC[N+](CC)(CC)CCC[N@H+](C)CCNc1c2ccccc2[n+](C)c2ccccc12 (optimized conformer: 119.44721252092747 kcal/mol)

>  <smiles>  (15) 
CC[N+](CC)(CC)CCCN(C)CCNc1c2ccccc2[n+](C)c2ccccc12

>  <score_type>  (15) 
oracle

>  <origin>  (15) 
adg

>  <m_score__min__energy>  (15) 
-3.6200000000000001

>  <m_primary>  (15) 
energy

$$$$
15:0
     RDKit          3D

 31 32  0  0  0  0  0  0  0  0999 V2000
   60.4600   28.2140   48.3780 C   0  0  0  0  0  0  0  0  0  0  0  0
   60.3030   29.0320   47.3330 C   0  0  0  0  0  0  0  0  0  0  0  0
   59.1190   29.9510   47.2120 C   0  0  0  0  0  0  0  0  0  0  0  0
   58.2640   29.5260   46.1010 N   0  0  0  0  0  0  0  0  0  0  0  0
   57.6250   28.3360   45.9370 C   0  0  0  0  0  0  0  0  0  0  0  0
   57.6750   26.9810   47.1140 S   0  0  0  0  0  0  0  0  0  0  0  0
   57.3590   25.7080   45.8450 C   0  0  0  0  0  0  0  0  0  0  0  0
   55.8610   25.4450   45.7080 C   0  0  0  0  0  0  0  0  0  0  0  0
   55.1270   26.6060   45.9920 O   0  0  0  0  0  0  0  0  0  0  0  0
   56.9200   28.2750   44.7810 N   0  0  0  0  0  0  0  0  0  0  0  0
   57.1370   29.4660   44.1990 C   0  0  0  0  0  0  0  0  0  0  0  0
   56.6480   29.9300   42.9810 C   0  0  0  0  0  0  0  0  0  0  0  0
   57.0200   31.2270   42.5810 C   0  0  0  0  0  0  0  0  0  0  0  0
   57.8590   32.0170   43.4000 C   0  0  0  0  0  0  0  0  0  0  0  0
   58.3350   31.5170   44.6260 C   0  0  0  0  0  0  0  0  0  0  0  0
   57.9490   30.2260   44.9930 C   0  0  0  0  0  0  0  0  0  0  0  0
   61.3390   27.5550   48.4334 H   0  0  0  0  0  0  0  0  0  0  0  0
   59.7102   28.1997   49.1828 H   0  0  0  0  0  0  0  0  0  0  0  0
   61.0627   29.0331   46.5375 H   0  0  0  0  0  0  0  0  0  0  0  0
   58.5405   29.9243   48.1472 H   0  0  0  0  0  0  0  0  0  0  0  0
   59.4751   30.9742   47.0216 H   0  0  0  0  0  0  0  0  0  0  0  0
   57.7549   26.0546   44.8790 H   0  0  0  0  0  0  0  0  0  0  0  0
   57.8564   24.7747   46.1477 H   0  0  0  0  0  0  0  0  0  0  0  0
   55.6434   25.1226   44.6791 H   0  0  0  0  0  0  0  0  0  0  0  0
   55.5724   24.6599   46.4224 H   0  0  0  0  0  0  0  0  0  0  0  0
   54.2690   26.3130   46.3940 H   0  0  0  0  0  0  0  0  0  0  0  0
   56.3460   27.4800   44.4230 H   0  0  0  0  0  0  0  0  0  0  0  0
   55.9946   29.3056   42.3540 H   0  0  0  0  0  0  0  0  0  0  0  0
   56.6553   31.6290   41.6242 H   0  0  0  0  0  0  0  0  0  0  0  0
   58.1416   33.0296   43.0765 H   0  0  0  0  0  0  0  0  0  0  0  0
   58.9881   32.1216   45.2725 H   0  0  0  0  0  0  0  0  0  0  0  0
  1  2  2  0
  2  3  1  0
  3  4  1  0
  4  5  1  0
  5  6  1  0
  6  7  1  0
  7  8  1  0
  8  9  1  0
  5 10  2  0
 10 11  1  0
 11 12  2  0
 12 13  1  0
 13 14  2  0
 14 15  1  0
 15 16  2  0
 16  4  1  0
 16 11  1  0
  1 17  1  0
  1 18  1  0
  2 19  1  0
  3 20  1  0
  3 21  1  0
  7 22  1  0
  7 23  1  0
  8 24  1  0
  8 25  1  0
  9 26  1  0
 10 27  1  0
 12 28  1  0
 13 29  1  0
 14 30  1  0
 15 31  1  0
M  CHG  1  10   1
M  END
>  <UniqueID>  (16) 
16

>  <SMILES>  (16) 
C=CCn1c(SCCO)[nH+]c2ccccc21

>  <Energy>  (16) 
60.958684752193925

>  <Genealogy>  (16) 
C=CCn1c(SCCO)[nH+]c2ccccc21 (protonated)
C=CCn1c(SCCO)[nH+]c2ccccc21 (3D coordinates assigned)
C=CCn1c(SCCO)[nH+]c2ccccc21 (optimized conformer: 60.958684752193925 kcal/mol)

>  <smiles>  (16) 
C=CCn1c(SCCO)nc2ccccc21

>  <score_type>  (16) 
oracle

>  <origin>  (16) 
adg

>  <m_score__min__energy>  (16) 
-5.1699999999999999

>  <m_primary>  (16) 
energy

$$$$
16:0
     RDKit          3D

 54 56  0  0  0  0  0  0  0  0999 V2000
   63.3940   33.8260   46.6240 C   0  0  0  0  0  0  0  0  0  0  0  0
   63.7660   32.6360   47.5090 C   0  0  0  0  0  0  0  0  0  0  0  0
   63.0580   32.6740   48.8060 N   0  0  0  0  0  0  0  0  0  0  0  0
   63.8220   33.4510   49.7960 C   0  0  0  0  0  0  0  0  0  0  0  0
   62.6410   31.3490   49.3300 C   0  0  0  0  0  0  0  0  0  0  0  0
   61.3890   30.7470   48.6440 C   0  0  0  0  0  0  0  0  0  0  0  0
   61.0950   31.3650   47.3430 N   0  0  0  0  0  0  0  0  0  0  0  0
   59.8920   31.1310   46.5950 C   0  0  0  0  0  0  0  0  0  0  0  0
   59.5520   29.8080   46.2630 C   0  0  0  0  0  0  0  0  0  0  0  0
   58.5140   29.5640   45.3310 C   0  0  0  0  0  0  0  0  0  0  0  0
   57.7650   30.6170   44.8410 N   0  0  0  0  0  0  0  0  0  0  0  0
   56.5790   30.3530   43.9890 C   0  0  0  0  0  0  0  0  0  0  0  0
   58.1000   31.9260   45.1480 C   0  0  0  0  0  0  0  0  0  0  0  0
   57.4400   33.0140   44.5220 C   0  0  0  0  0  0  0  0  0  0  0  0
   57.6840   34.3260   44.9040 C   0  0  0  0  0  0  0  0  0  0  0  0
   58.5790   34.5960   45.9250 C   0  0  0  0  0  0  0  0  0  0  0  0
   59.3090   33.5690   46.5290 C   0  0  0  0  0  0  0  0  0  0  0  0
   60.3180   34.0670   47.9440 S   0  0  0  0  0  0  0  0  0  0  0  0
   59.2780   33.2400   49.1890 C   0  0  0  0  0  0  0  0  0  0  0  0
   59.1210   32.2110   46.1040 C   0  0  0  0  0  0  0  0  0  0  0  0
   58.1990   28.1280   44.9140 C   0  0  0  0  0  0  0  0  0  0  0  0
   59.2910   27.1180   45.2580 C   0  0  0  0  0  0  0  0  0  0  0  0
   59.7220   27.3020   46.7030 C   0  0  0  0  0  0  0  0  0  0  0  0
   60.3690   28.6720   46.8620 C   0  0  0  0  0  0  0  0  0  0  0  0
   63.1257   34.6843   47.2575 H   0  0  0  0  0  0  0  0  0  0  0  0
   64.2516   34.0929   45.9889 H   0  0  0  0  0  0  0  0  0  0  0  0
   62.5371   33.5569   45.9889 H   0  0  0  0  0  0  0  0  0  0  0  0
   63.5001   31.7059   46.9853 H   0  0  0  0  0  0  0  0  0  0  0  0
   64.8469   32.6825   47.7080 H   0  0  0  0  0  0  0  0  0  0  0  0
   63.5233   33.1472   50.8102 H   0  0  0  0  0  0  0  0  0  0  0  0
   64.8972   33.2634   49.6588 H   0  0  0  0  0  0  0  0  0  0  0  0
   63.6163   34.5229   49.6588 H   0  0  0  0  0  0  0  0  0  0  0  0
   63.4773   30.6477   49.1932 H   0  0  0  0  0  0  0  0  0  0  0  0
   62.3735   31.5024   50.3859 H   0  0  0  0  0  0  0  0  0  0  0  0
   61.5563   29.6706   48.4911 H   0  0  0  0  0  0  0  0  0  0  0  0
   60.5286   30.9390   49.3019 H   0  0  0  0  0  0  0  0  0  0  0  0
   61.6620   32.2040   47.0800 H   0  0  0  0  0  0  0  0  0  0  0  0
   55.7048   30.1584   44.6276 H   0  0  0  0  0  0  0  0  0  0  0  0
   56.3814   31.2291   43.3539 H   0  0  0  0  0  0  0  0  0  0  0  0
   56.7717   29.4758   43.3539 H   0  0  0  0  0  0  0  0  0  0  0  0
   56.7188   32.8138   43.7159 H   0  0  0  0  0  0  0  0  0  0  0  0
   57.1657   35.1520   44.3949 H   0  0  0  0  0  0  0  0  0  0  0  0
   58.7173   35.6328   46.2653 H   0  0  0  0  0  0  0  0  0  0  0  0
   59.6236   33.5148   50.1965 H   0  0  0  0  0  0  0  0  0  0  0  0
   58.2321   33.5558   49.0613 H   0  0  0  0  0  0  0  0  0  0  0  0
   59.3501   32.1498   49.0613 H   0  0  0  0  0  0  0  0  0  0  0  0
   57.2723   27.8183   45.4193 H   0  0  0  0  0  0  0  0  0  0  0  0
   58.1087   28.1318   43.8177 H   0  0  0  0  0  0  0  0  0  0  0  0
   58.9027   26.0982   45.1193 H   0  0  0  0  0  0  0  0  0  0  0  0
   60.1557   27.2771   44.5969 H   0  0  0  0  0  0  0  0  0  0  0  0
   58.8432   27.2315   47.3609 H   0  0  0  0  0  0  0  0  0  0  0  0
   60.4440   26.5183   46.9760 H   0  0  0  0  0  0  0  0  0  0  0  0
   60.5038   28.8698   47.9356 H   0  0  0  0  0  0  0  0  0  0  0  0
   61.3243   28.6414   46.3175 H   0  0  0  0  0  0  0  0  0  0  0  0
  1  2  1  0
  2  3  1  0
  3  4  1  0
  3  5  1  0
  5  6  1  0
  6  7  1  0
  7  8  1  0
  8  9  2  0
  9 10  1  0
 10 11  2  0
 11 12  1  0
 11 13  1  0
 13 14  2  0
 14 15  1  0
 15 16  2  0
 16 17  1  0
 17 18  1  0
 18 19  1  0
 17 20  2  0
 10 21  1  0
 21 22  1  0
 22 23  1  0
 23 24  1  0
 20  8  1  0
 24  9  1  0
 20 13  1  0
  1 25  1  0
  1 26  1  0
  1 27  1  0
  2 28  1  0
  2 29  1  0
  4 30  1  0
  4 31  1  0
  4 32  1  0
  5 33  1  0
  5 34  1  0
  6 35  1  0
  6 36  1  0
  7 37  1  0
 12 38  1  0
 12 39  1  0
 12 40  1  0
 14 41  1  0
 15 42  1  0
 16 43  1  0
 19 44  1  0
 19 45  1  0
 19 46  1  0
 21 47  1  0
 21 48  1  0
 22 49  1  0
 22 50  1  0
 23 51  1  0
 23 52  1  0
 24 53  1  0
 24 54  1  0
M  CHG  1  11   1
M  END
>  <UniqueID>  (17) 
17

>  <SMILES>  (17) 
CCN(C)CCNc1c2c([n+](C)c3cccc(SC)c13)CCCC2

>  <Energy>  (17) 
82.00369461041228

>  <Genealogy>  (17) 
CCN(C)CCNc1c2c([n+](C)c3cccc(SC)c13)CCCC2 (3D coordinates assigned)
CCN(C)CCNc1c2c([n+](C)c3cccc(SC)c13)CCCC2 (nonaromatic ring conformer: 82.00369461041228 kcal/mol)

>  <smiles>  (17) 
CCN(C)CCNc1c2c([n+](C)c3cccc(SC)c13)CCCC2

>  <score_type>  (17) 
oracle

>  <origin>  (17) 
adg

>  <m_score__min__energy>  (17) 
-6.04

>  <m_primary>  (17) 
energy

$$$$
17:0
     RDKit          3D

 50 51  0  0  0  0  0  0  0  0999 V2000
   56.7550   22.0140   46.7420 C   0  0  0  0  0  0  0  0  0  0  0  0
   56.7950   20.5410   46.3360 C   0  0  0  0  0  0  0  0  0  0  0  0
   57.7650   20.3240   45.2500 N   0  0  0  0  0  0  0  0  0  0  0  0
   57.9160   21.5100   44.3880 C   0  0  0  0  0  0  0  0  0  0  0  0
   57.1960   21.3580   43.0400 C   0  0  0  0  0  0  0  0  0  0  0  0
   56.7020   22.6730   42.5920 N   0  0  0  0  0  0  0  0  0  0  0  0
   55.6950   23.2420   43.5030 C   0  0  0  0  0  0  0  0  0  0  0  0
   56.2330   24.4750   44.1980 C   0  0  0  0  0  0  0  0  0  0  0  0
   57.4080   25.0560   43.6930 C   0  0  0  0  0  0  0  0  0  0  0  0
   58.0000   26.1440   44.3350 C   0  0  0  0  0  0  0  0  0  0  0  0
   57.4240   26.6760   45.4910 C   0  0  0  0  0  0  0  0  0  0  0  0
   58.0680   27.7980   46.1920 C   0  0  0  0  0  0  0  0  0  0  0  0
   59.0130   27.5220   47.1890 C   0  0  0  0  0  0  0  0  0  0  0  0
   59.6360   28.5630   47.8750 C   0  0  0  0  0  0  0  0  0  0  0  0
   59.3130   29.8810   47.5530 C   0  0  0  0  0  0  0  0  0  0  0  0
   58.4060   30.1390   46.5770 N   0  0  0  0  0  0  0  0  0  0  0  0
   57.7750   29.1480   45.8880 C   0  0  0  0  0  0  0  0  0  0  0  0
   56.6450   29.6110   44.6110 S   0  0  0  0  0  0  0  0  0  0  0  0
   57.1730   28.9730   43.0340 C   0  0  0  0  0  0  0  0  0  0  0  0
   56.6040   31.1110   44.5210 O   0  0  0  0  0  0  0  0  0  0  0  0
   55.2650   29.1110   44.9320 O   0  0  0  0  0  0  0  0  0  0  0  0
   56.2170   26.1510   45.9700 C   0  0  0  0  0  0  0  0  0  0  0  0
   55.6110   25.0510   45.3370 C   0  0  0  0  0  0  0  0  0  0  0  0
   54.3190   24.5150   45.8970 C   0  0  0  0  0  0  0  0  0  0  0  0
   56.7529   22.0920   47.8392 H   0  0  0  0  0  0  0  0  0  0  0  0
   57.6395   22.5294   46.3395 H   0  0  0  0  0  0  0  0  0  0  0  0
   55.8439   22.4807   46.3395 H   0  0  0  0  0  0  0  0  0  0  0  0
   57.0866   19.9348   47.2064 H   0  0  0  0  0  0  0  0  0  0  0  0
   55.7965   20.2460   45.9810 H   0  0  0  0  0  0  0  0  0  0  0  0
   57.4260   19.5360   44.6490 H   0  0  0  0  0  0  0  0  0  0  0  0
   58.6940   20.0530   45.6510 H   0  0  0  0  0  0  0  0  0  0  0  0
   57.4994   22.3822   44.9132 H   0  0  0  0  0  0  0  0  0  0  0  0
   58.9888   21.6351   44.1796 H   0  0  0  0  0  0  0  0  0  0  0  0
   57.8973   20.9567   42.2936 H   0  0  0  0  0  0  0  0  0  0  0  0
   56.3466   20.6686   43.1553 H   0  0  0  0  0  0  0  0  0  0  0  0
   56.2440   22.5550   41.6570 H   0  0  0  0  0  0  0  0  0  0  0  0
   54.7998   23.5156   42.9252 H   0  0  0  0  0  0  0  0  0  0  0  0
   55.4442   22.4894   44.2650 H   0  0  0  0  0  0  0  0  0  0  0  0
   57.8669   24.6482   42.7803 H   0  0  0  0  0  0  0  0  0  0  0  0
   58.9230   26.5842   43.9297 H   0  0  0  0  0  0  0  0  0  0  0  0
   59.2643   26.4789   47.4314 H   0  0  0  0  0  0  0  0  0  0  0  0
   60.3742   28.3475   48.6616 H   0  0  0  0  0  0  0  0  0  0  0  0
   59.7936   30.7118   48.0904 H   0  0  0  0  0  0  0  0  0  0  0  0
   57.8671   28.1343   43.1916 H   0  0  0  0  0  0  0  0  0  0  0  0
   56.2971   28.6227   42.4683 H   0  0  0  0  0  0  0  0  0  0  0  0
   57.6809   29.7680   42.4683 H   0  0  0  0  0  0  0  0  0  0  0  0
   55.7380   26.6039   46.8506 H   0  0  0  0  0  0  0  0  0  0  0  0
   54.3606   24.5323   46.9961 H   0  0  0  0  0  0  0  0  0  0  0  0
   53.4824   25.1403   45.5519 H   0  0  0  0  0  0  0  0  0  0  0  0
   54.1707   23.4811   45.5519 H   0  0  0  0  0  0  0  0  0  0  0  0
  1  2  1  0
  2  3  1  0
  3  4  1  0
  4  5  1  0
  5  6  1  0
  6  7  1  0
  7  8  1  0
  8  9  2  0
  9 10  1  0
 10 11  2  0
 11 12  1  0
 12 13  2  0
 13 14  1  0
 14 15  2  0
 15 16  1  0
 16 17  2  0
 17 18  1  0
 18 19  1  0
 18 20  2  0
 18 21  2  0
 11 22  1  0
 22 23  2  0
 23 24  1  0
 23  8  1  0
 17 12  1  0
  1 25  1  0
  1 26  1  0
  1 27  1  0
  2 28  1  0
  2 29  1  0
  3 30  1  0
  3 31  1  0
  4 32  1  0
  4 33  1  0
  5 34  1  0
  5 35  1  0
  6 36  1  0
  7 37  1  0
  7 38  1  0
  9 39  1  0
 10 40  1  0
 13 41  1  0
 14 42  1  0
 15 43  1  0
 19 44  1  0
 19 45  1  0
 19 46  1  0
 22 47  1  0
 24 48  1  0
 24 49  1  0
 24 50  1  0
M  CHG  1   3   1
M  END
>  <UniqueID>  (18) 
18

>  <SMILES>  (18) 
CC[NH2+]CCNCc1ccc(-c2cccnc2S(C)(=O)=O)cc1C

>  <Energy>  (18) 
51.62005419261995

>  <Genealogy>  (18) 
CC[NH2+]CCNCc1ccc(-c2cccnc2S(C)(=O)=O)cc1C (protonated)
CC[NH2+]CCNCc1ccc(-c2cccnc2S(C)(=O)=O)cc1C (3D coordinates assigned)
CC[NH2+]CCNCc1ccc(-c2cccnc2S(C)(=O)=O)cc1C (optimized conformer: 51.62005419261995 kcal/mol)

>  <smiles>  (18) 
CCNCCNCc1ccc(-c2cccnc2S(C)(=O)=O)cc1C

>  <score_type>  (18) 
oracle

>  <origin>  (18) 
adg

>  <m_score__min__energy>  (18) 
-6.9299999999999997

>  <m_primary>  (18) 
energy

$$$$
