0:0
     RDKit          3D

 37 39  0  0  0  0  0  0  0  0999 V2000
   58.1510   26.9330   42.7530 C   0  0  0  0  0  0  0  0  0  0  0  0
   58.2490   27.5110   44.1330 C   0  0  0  0  0  0  0  0  0  0  0  0
   57.7040   26.8240   45.2280 C   0  0  0  0  0  0  0  0  0  0  0  0
   57.8200   27.3490   46.5160 C   0  0  0  0  0  0  0  0  0  0  0  0
   58.4970   28.5530   46.7250 C   0  0  0  0  0  0  0  0  0  0  0  0
   59.0820   29.2360   45.6440 C   0  0  0  0  0  0  0  0  0  0  0  0
   59.7720   30.4840   45.8310 N   0  0  0  0  0  0  0  0  0  0  0  0
   59.1200   31.7650   45.8640 C   0  0  0  0  0  0  0  0  0  0  0  0
   57.7760   31.8760   45.4660 C   0  0  0  0  0  0  0  0  0  0  0  0
   57.1040   33.0960   45.5680 C   0  0  0  0  0  0  0  0  0  0  0  0
   57.7590   34.2140   46.0820 C   0  0  0  0  0  0  0  0  0  0  0  0
   59.0900   34.1180   46.4920 C   0  0  0  0  0  0  0  0  0  0  0  0
   59.7860   32.9010   46.3860 C   0  0  0  0  0  0  0  0  0  0  0  0
   61.2110   32.8460   46.7940 C   0  0  0  0  0  0  0  0  0  0  0  0
   62.1150   33.8310   46.3680 C   0  0  0  0  0  0  0  0  0  0  0  0
   63.4500   33.7620   46.7720 C   0  0  0  0  0  0  0  0  0  0  0  0
   63.8710   32.7520   47.5790 N   0  0  0  0  0  0  0  0  0  0  0  0
   63.0130   31.7890   48.0150 C   0  0  0  0  0  0  0  0  0  0  0  0
   61.6700   31.8200   47.6330 C   0  0  0  0  0  0  0  0  0  0  0  0
   58.9450   28.7120   44.3480 C   0  0  0  0  0  0  0  0  0  0  0  0
   57.9675   25.8506   42.8210 H   0  0  0  0  0  0  0  0  0  0  0  0
   57.3213   27.4123   42.2128 H   0  0  0  0  0  0  0  0  0  0  0  0
   59.0923   27.1121   42.2128 H   0  0  0  0  0  0  0  0  0  0  0  0
   57.1832   25.8679   45.0709 H   0  0  0  0  0  0  0  0  0  0  0  0
   57.3772   26.8134   47.3687 H   0  0  0  0  0  0  0  0  0  0  0  0
   58.5728   28.9689   47.7405 H   0  0  0  0  0  0  0  0  0  0  0  0
   60.8090   30.4600   45.9550 H   0  0  0  0  0  0  0  0  0  0  0  0
   57.2495   30.9946   45.0710 H   0  0  0  0  0  0  0  0  0  0  0  0
   56.0563   33.1748   45.2423 H   0  0  0  0  0  0  0  0  0  0  0  0
   57.2265   35.1730   46.1646 H   0  0  0  0  0  0  0  0  0  0  0  0
   59.5990   35.0028   46.9018 H   0  0  0  0  0  0  0  0  0  0  0  0
   61.7744   34.6521   45.7201 H   0  0  0  0  0  0  0  0  0  0  0  0
   64.1641   34.5282   46.4358 H   0  0  0  0  0  0  0  0  0  0  0  0
   64.8720   32.7150   47.8730 H   0  0  0  0  0  0  0  0  0  0  0  0
   63.3785   30.9843   48.6699 H   0  0  0  0  0  0  0  0  0  0  0  0
   60.9760   31.0440   47.9882 H   0  0  0  0  0  0  0  0  0  0  0  0
   59.3865   29.2467   43.4941 H   0  0  0  0  0  0  0  0  0  0  0  0
  1  2  1  0
  2  3  2  0
  3  4  1  0
  4  5  2  0
  5  6  1  0
  6  7  1  0
  7  8  1  0
  8  9  2  0
  9 10  1  0
 10 11  2  0
 11 12  1  0
 12 13  2  0
 13 14  1  0
 14 15  2  0
 15 16  1  0
 16 17  2  0
 17 18  1  0
 18 19  2  0
  6 20  2  0
 20  2  1  0
 13  8  1  0
 19 14  1  0
  1 21  1  0
  1 22  1  0
  1 23  1  0
  3 24  1  0
  4 25  1  0
  5 26  1  0
  7 27  1  0
  9 28  1  0
 10 29  1  0
 11 30  1  0
 12 31  1  0
 15 32  1  0
 16 33  1  0
 17 34  1  0
 18 35  1  0
 19 36  1  0
 20 37  1  0
M  CHG  1  17   1
M  END
>  <UniqueID>  (1) 
1

>  <SMILES>  (1) 
Cc1cccc(Nc2ccccc2-c2cc[nH+]cc2)c1

>  <Energy>  (1) 
50.78777724348252

>  <Genealogy>  (1) 
Cc1cccc(Nc2ccccc2-c2cc[nH+]cc2)c1 (protonated)
Cc1cccc(Nc2ccccc2-c2cc[nH+]cc2)c1 (3D coordinates assigned)
Cc1cccc(Nc2ccccc2-c2cc[nH+]cc2)c1 (optimized conformer: 50.78777724348252 kcal/mol)

>  <smiles>  (1) 
Cc1cccc(Nc2ccccc2-c2ccncc2)c1

>  <score_type>  (1) 
oracle

>  <origin>  (1) 
adg

>  <m_score__min__energy>  (1) 
-5.9299999999999997

>  <m_primary>  (1) 
energy

$$$$
1:0
     RDKit          3D

 37 39  0  0  0  0  0  0  0  0999 V2000
   59.8390   35.1130   46.8280 C   0  0  0  0  0  0  0  0  0  0  0  0
   59.0630   33.9510   46.2700 C   0  0  0  0  0  0  0  0  0  0  0  0
   57.7820   34.1800   45.7010 C   0  0  0  0  0  0  0  0  0  0  0  0
   57.0150   33.1170   45.1930 C   0  0  0  0  0  0  0  0  0  0  0  0
   57.5530   31.8380   45.2720 C   0  0  0  0  0  0  0  0  0  0  0  0
   56.9920   30.6850   44.8670 N   0  0  0  0  0  0  0  0  0  0  0  0
   57.9480   29.7780   45.2030 C   0  0  0  0  0  0  0  0  0  0  0  0
   57.8090   28.3660   44.9770 N   0  0  0  0  0  0  0  0  0  0  0  0
   57.0180   27.5410   45.8940 C   0  0  0  0  0  0  0  0  0  0  0  0
   57.6700   26.1580   46.0370 C   0  0  0  0  0  0  0  0  0  0  0  0
   57.9850   25.5010   44.7370 N   0  0  0  0  0  0  0  0  0  0  0  0
   57.2400   24.2410   44.5820 C   0  0  0  0  0  0  0  0  0  0  0  0
   57.7870   26.3560   43.5460 C   0  0  0  0  0  0  0  0  0  0  0  0
   58.3610   27.7600   43.7610 C   0  0  0  0  0  0  0  0  0  0  0  0
   59.0140   30.3200   45.7680 O   0  0  0  0  0  0  0  0  0  0  0  0
   58.7770   31.6030   45.8180 C   0  0  0  0  0  0  0  0  0  0  0  0
   59.5810   32.6250   46.3310 C   0  0  0  0  0  0  0  0  0  0  0  0
   60.9160   32.3120   46.9500 C   0  0  0  0  0  0  0  0  0  0  0  0
   59.8145   35.0763   47.9271 H   0  0  0  0  0  0  0  0  0  0  0  0
   60.8818   35.0573   46.4824 H   0  0  0  0  0  0  0  0  0  0  0  0
   59.3880   36.0549   46.4824 H   0  0  0  0  0  0  0  0  0  0  0  0
   57.3840   35.2045   45.6571 H   0  0  0  0  0  0  0  0  0  0  0  0
   56.0240   33.2914   44.7487 H   0  0  0  0  0  0  0  0  0  0  0  0
   56.9739   28.0284   46.8792 H   0  0  0  0  0  0  0  0  0  0  0  0
   55.9998   27.4248   45.4942 H   0  0  0  0  0  0  0  0  0  0  0  0
   58.6064   26.2735   46.6025 H   0  0  0  0  0  0  0  0  0  0  0  0
   56.9421   25.5138   46.5519 H   0  0  0  0  0  0  0  0  0  0  0  0
   56.9988   23.8331   45.5747 H   0  0  0  0  0  0  0  0  0  0  0  0
   56.3091   24.4313   44.0277 H   0  0  0  0  0  0  0  0  0  0  0  0
   57.8553   23.5170   44.0277 H   0  0  0  0  0  0  0  0  0  0  0  0
   58.2906   25.8919   42.6852 H   0  0  0  0  0  0  0  0  0  0  0  0
   56.7062   26.4492   43.3639 H   0  0  0  0  0  0  0  0  0  0  0  0
   59.4548   27.6921   43.8561 H   0  0  0  0  0  0  0  0  0  0  0  0
   58.0906   28.3880   42.8993 H   0  0  0  0  0  0  0  0  0  0  0  0
   60.8259   32.3331   48.0461 H   0  0  0  0  0  0  0  0  0  0  0  0
   61.2441   31.3126   46.6282 H   0  0  0  0  0  0  0  0  0  0  0  0
   61.6541   33.0614   46.6282 H   0  0  0  0  0  0  0  0  0  0  0  0
  1  2  1  0
  2  3  2  0
  3  4  1  0
  4  5  2  0
  5  6  1  0
  6  7  2  0
  7  8  1  0
  8  9  1  0
  9 10  1  0
 10 11  1  0
 11 12  1  0
 11 13  1  0
 13 14  1  0
  7 15  1  0
 15 16  1  0
 16 17  2  0
 17 18  1  0
 17  2  1  0
 16  5  1  0
 14  8  1  0
  1 19  1  0
  1 20  1  0
  1 21  1  0
  3 22  1  0
  4 23  1  0
  9 24  1  0
  9 25  1  0
 10 26  1  0
 10 27  1  0
 12 28  1  0
 12 29  1  0
 12 30  1  0
 13 31  1  0
 13 32  1  0
 14 33  1  0
 14 34  1  0
 18 35  1  0
 18 36  1  0
 18 37  1  0
M  END
>  <UniqueID>  (2) 
2

>  <SMILES>  (2) 
Cc1ccc2nc(N3CCN(C)CC3)oc2c1C

>  <Energy>  (2) 
80.14504015159895

>  <Genealogy>  (2) 
Cc1ccc2nc(N3CCN(C)CC3)oc2c1C (3D coordinates assigned)
Cc1ccc2nc(N3CCN(C)CC3)oc2c1C (nonaromatic ring conformer: 80.14504015159895 kcal/mol)

>  <smiles>  (2) 
Cc1ccc2nc(N3CCN(C)CC3)oc2c1C

>  <score_type>  (2) 
oracle

>  <origin>  (2) 
adg

>  <m_score__min__energy>  (2) 
-6.2599999999999998

>  <m_primary>  (2) 
energy

$$$$
2:0
     RDKit          3D

 52 55  0  0  0  0  0  0  0  0999 V2000
   63.8300   31.9250   48.6710 C   0  0  0  0  0  0  0  0  0  0  0  0
   63.3550   32.0980   47.3540 O   0  0  0  0  0  0  0  0  0  0  0  0
   63.7490   33.3590   46.8490 C   0  0  0  0  0  0  0  0  0  0  0  0
   62.5230   34.1520   46.3910 C   0  0  0  0  0  0  0  0  0  0  0  0
   61.3680   33.8280   47.2270 N   0  0  0  0  0  0  0  0  0  0  0  0
   61.3460   33.8090   48.5820 C   0  0  0  0  0  0  0  0  0  0  0  0
   60.0690   33.5130   49.0460 C   0  0  0  0  0  0  0  0  0  0  0  0
   59.2970   33.3620   47.9130 C   0  0  0  0  0  0  0  0  0  0  0  0
   57.9440   33.0690   47.7780 C   0  0  0  0  0  0  0  0  0  0  0  0
   57.4150   32.9830   46.4790 C   0  0  0  0  0  0  0  0  0  0  0  0
   58.2420   33.1950   45.3420 C   0  0  0  0  0  0  0  0  0  0  0  0
   57.7000   33.0510   44.0120 N   0  0  0  0  0  0  0  0  0  0  0  0
   58.2940   31.8990   43.3110 C   0  0  0  0  0  0  0  0  0  0  0  0
   57.9320   30.5920   43.9770 C   0  0  0  0  0  0  0  0  0  0  0  0
   56.6050   30.1410   43.9650 C   0  0  0  0  0  0  0  0  0  0  0  0
   56.2500   28.9630   44.6290 C   0  0  0  0  0  0  0  0  0  0  0  0
   57.2190   28.2190   45.3270 C   0  0  0  0  0  0  0  0  0  0  0  0
   56.8730   27.0330   46.0100 C   0  0  0  0  0  0  0  0  0  0  0  0
   55.5400   26.5870   45.9820 O   0  0  0  0  0  0  0  0  0  0  0  0
   55.1340   25.2710   45.6220 C   0  0  0  0  0  0  0  0  0  0  0  0
   57.8740   26.3230   46.7040 C   0  0  0  0  0  0  0  0  0  0  0  0
   59.1910   26.7850   46.7200 C   0  0  0  0  0  0  0  0  0  0  0  0
   59.5360   27.9560   46.0470 C   0  0  0  0  0  0  0  0  0  0  0  0
   58.5600   28.6790   45.3470 C   0  0  0  0  0  0  0  0  0  0  0  0
   58.9060   29.8590   44.6710 C   0  0  0  0  0  0  0  0  0  0  0  0
   59.6130   33.4900   45.5230 C   0  0  0  0  0  0  0  0  0  0  0  0
   60.1080   33.5630   46.8270 C   0  0  0  0  0  0  0  0  0  0  0  0
   63.0437   32.2114   49.3850 H   0  0  0  0  0  0  0  0  0  0  0  0
   64.1010   30.8704   48.8275 H   0  0  0  0  0  0  0  0  0  0  0  0
   64.7157   32.5583   48.8275 H   0  0  0  0  0  0  0  0  0  0  0  0
   64.2701   33.9199   47.6388 H   0  0  0  0  0  0  0  0  0  0  0  0
   64.4197   33.2079   45.9903 H   0  0  0  0  0  0  0  0  0  0  0  0
   62.7370   35.2282   46.4690 H   0  0  0  0  0  0  0  0  0  0  0  0
   62.2951   33.8878   45.3478 H   0  0  0  0  0  0  0  0  0  0  0  0
   62.2173   34.0011   49.2254 H   0  0  0  0  0  0  0  0  0  0  0  0
   59.7440   33.4193   50.0927 H   0  0  0  0  0  0  0  0  0  0  0  0
   57.3076   32.9095   48.6610 H   0  0  0  0  0  0  0  0  0  0  0  0
   56.3492   32.7491   46.3402 H   0  0  0  0  0  0  0  0  0  0  0  0
   56.6580   32.9480   44.0470 H   0  0  0  0  0  0  0  0  0  0  0  0
   57.9070   33.9190   43.4650 H   0  0  0  0  0  0  0  0  0  0  0  0
   57.9266   31.8845   42.2743 H   0  0  0  0  0  0  0  0  0  0  0  0
   59.3883   32.0070   43.3401 H   0  0  0  0  0  0  0  0  0  0  0  0
   55.8371   30.7182   43.4291 H   0  0  0  0  0  0  0  0  0  0  0  0
   55.2066   28.6156   44.6056 H   0  0  0  0  0  0  0  0  0  0  0  0
   54.9521   24.6814   46.5327 H   0  0  0  0  0  0  0  0  0  0  0  0
   54.2098   25.3221   45.0276 H   0  0  0  0  0  0  0  0  0  0  0  0
   55.9263   24.7926   45.0276 H   0  0  0  0  0  0  0  0  0  0  0  0
   57.6148   25.3967   47.2376 H   0  0  0  0  0  0  0  0  0  0  0  0
   59.9613   26.2216   47.2670 H   0  0  0  0  0  0  0  0  0  0  0  0
   60.5761   28.3135   46.0652 H   0  0  0  0  0  0  0  0  0  0  0  0
   59.9479   30.2115   44.6854 H   0  0  0  0  0  0  0  0  0  0  0  0
   60.2728   33.6577   44.6590 H   0  0  0  0  0  0  0  0  0  0  0  0
  1  2  1  0
  2  3  1  0
  3  4  1  0
  4  5  1  0
  5  6  1  0
  6  7  2  0
  7  8  1  0
  8  9  2  0
  9 10  1  0
 10 11  2  0
 11 12  1  0
 12 13  1  0
 13 14  1  0
 14 15  2  0
 15 16  1  0
 16 17  2  0
 17 18  1  0
 18 19  1  0
 19 20  1  0
 18 21  2  0
 21 22  1  0
 22 23  2  0
 23 24  1  0
 24 25  2  0
 11 26  1  0
 26 27  2  0
 27  5  1  0
 27  8  1  0
 25 14  1  0
 24 17  1  0
  1 28  1  0
  1 29  1  0
  1 30  1  0
  3 31  1  0
  3 32  1  0
  4 33  1  0
  4 34  1  0
  6 35  1  0
  7 36  1  0
  9 37  1  0
 10 38  1  0
 12 39  1  0
 12 40  1  0
 13 41  1  0
 13 42  1  0
 15 43  1  0
 16 44  1  0
 20 45  1  0
 20 46  1  0
 20 47  1  0
 21 48  1  0
 22 49  1  0
 23 50  1  0
 25 51  1  0
 26 52  1  0
M  CHG  1  12   1
M  END
>  <UniqueID>  (3) 
3

>  <SMILES>  (3) 
COCCn1ccc2ccc([NH2+]Cc3ccc4c(OC)cccc4c3)cc21

>  <Energy>  (3) 
90.74837404921585

>  <Genealogy>  (3) 
COCCn1ccc2ccc([NH2+]Cc3ccc4c(OC)cccc4c3)cc21 (protonated)
COCCn1ccc2ccc([NH2+]Cc3ccc4c(OC)cccc4c3)cc21 (3D coordinates assigned)
COCCn1ccc2ccc([NH2+]Cc3ccc4c(OC)cccc4c3)cc21 (optimized conformer: 90.74837404921585 kcal/mol)

>  <smiles>  (3) 
COCCn1ccc2ccc(NCc3ccc4c(OC)cccc4c3)cc21

>  <score_type>  (3) 
oracle

>  <origin>  (3) 
adg

>  <m_score__min__energy>  (3) 
-7.4400000000000004

>  <m_primary>  (3) 
energy

$$$$
3:0
     RDKit          3D

 37 37  0  0  0  0  0  0  0  0999 V2000
   55.4700   29.7520   43.8020 C   0  0  0  0  0  0  0  0  0  0  0  0
   56.4130   29.5920   44.8560 O   0  0  0  0  0  0  0  0  0  0  0  0
   57.3740   30.5480   45.2230 C   0  0  0  0  0  0  0  0  0  0  0  0
   57.4970   31.7710   44.5330 C   0  0  0  0  0  0  0  0  0  0  0  0
   58.4510   32.7120   44.9250 C   0  0  0  0  0  0  0  0  0  0  0  0
   59.2870   32.4490   46.0100 C   0  0  0  0  0  0  0  0  0  0  0  0
   59.1800   31.2410   46.7010 C   0  0  0  0  0  0  0  0  0  0  0  0
   58.2390   30.2720   46.3080 C   0  0  0  0  0  0  0  0  0  0  0  0
   58.1460   28.9600   47.0710 C   0  0  0  0  0  0  0  0  0  0  0  0
   58.4700   27.7560   46.2610 N   0  0  0  0  0  0  0  0  0  0  0  0
   59.4170   28.0180   45.1520 C   0  0  0  0  0  0  0  0  0  0  0  0
   58.8530   27.5010   43.8200 C   0  0  0  0  0  0  0  0  0  0  0  0
   57.3940   27.4130   43.8690 N   0  0  0  0  0  0  0  0  0  0  0  0
   58.8820   26.6040   47.0960 C   0  0  0  0  0  0  0  0  0  0  0  0
   57.8100   25.5080   47.0930 C   0  0  0  0  0  0  0  0  0  0  0  0
   56.5620   25.9900   46.4870 C   0  0  0  0  0  0  0  0  0  0  0  0
   55.5790   26.3710   46.0100 N   0  0  0  0  0  0  0  0  0  0  0  0
   54.4699   29.9217   44.2274 H   0  0  0  0  0  0  0  0  0  0  0  0
   55.7559   30.6145   43.1820 H   0  0  0  0  0  0  0  0  0  0  0  0
   55.4554   28.8435   43.1820 H   0  0  0  0  0  0  0  0  0  0  0  0
   56.8367   31.9855   43.6797 H   0  0  0  0  0  0  0  0  0  0  0  0
   58.5434   33.6617   44.3776 H   0  0  0  0  0  0  0  0  0  0  0  0
   60.0324   33.1954   46.3219 H   0  0  0  0  0  0  0  0  0  0  0  0
   59.8375   31.0449   47.5608 H   0  0  0  0  0  0  0  0  0  0  0  0
   58.8464   29.0039   47.9181 H   0  0  0  0  0  0  0  0  0  0  0  0
   57.0979   28.8536   47.3875 H   0  0  0  0  0  0  0  0  0  0  0  0
   59.5903   29.1015   45.0741 H   0  0  0  0  0  0  0  0  0  0  0  0
   60.3607   27.4936   45.3627 H   0  0  0  0  0  0  0  0  0  0  0  0
   59.1452   28.1899   43.0138 H   0  0  0  0  0  0  0  0  0  0  0  0
   59.2592   26.4959   43.6333 H   0  0  0  0  0  0  0  0  0  0  0  0
   56.9710   28.1770   43.2930 H   0  0  0  0  0  0  0  0  0  0  0  0
   57.0780   27.5230   44.8600 H   0  0  0  0  0  0  0  0  0  0  0  0
   57.0770   26.4830   43.5140 H   0  0  0  0  0  0  0  0  0  0  0  0
   59.8203   26.1897   46.6986 H   0  0  0  0  0  0  0  0  0  0  0  0
   59.0207   26.9539   48.1296 H   0  0  0  0  0  0  0  0  0  0  0  0
   58.1791   24.6461   46.5177 H   0  0  0  0  0  0  0  0  0  0  0  0
   57.6036   25.2186   48.1340 H   0  0  0  0  0  0  0  0  0  0  0  0
  1  2  1  0
  2  3  1  0
  3  4  2  0
  4  5  1  0
  5  6  2  0
  6  7  1  0
  7  8  2  0
  8  9  1  0
  9 10  1  0
 10 11  1  0
 11 12  1  0
 12 13  1  0
 10 14  1  0
 14 15  1  0
 15 16  1  0
 16 17  3  0
  8  3  1  0
  1 18  1  0
  1 19  1  0
  1 20  1  0
  4 21  1  0
  5 22  1  0
  6 23  1  0
  7 24  1  0
  9 25  1  0
  9 26  1  0
 11 27  1  0
 11 28  1  0
 12 29  1  0
 12 30  1  0
 13 31  1  0
 13 32  1  0
 13 33  1  0
 14 34  1  0
 14 35  1  0
 15 36  1  0
 15 37  1  0
M  CHG  1  13   1
M  END
>  <UniqueID>  (4) 
4

>  <SMILES>  (4) 
COc1ccccc1CN(CC[NH3+])CCC#N

>  <Energy>  (4) 
34.233860091799414

>  <Genealogy>  (4) 
COc1ccccc1CN(CC[NH3+])CCC#N (protonated)
COc1ccccc1CN(CC[NH3+])CCC#N (3D coordinates assigned)
COc1ccccc1CN(CC[NH3+])CCC#N (optimized conformer: 34.233860091799414 kcal/mol)

>  <smiles>  (4) 
COc1ccccc1CN(CCN)CCC#N

>  <score_type>  (4) 
oracle

>  <origin>  (4) 
adg

>  <m_score__min__energy>  (4) 
-3.0899999999999999

>  <m_primary>  (4) 
energy

$$$$
4:0
     RDKit          3D

 44 46  0  0  0  0  0  0  0  0999 V2000
   59.1130   29.1830   45.3260 C   0  0  0  0  0  0  0  0  0  0  0  0
   57.9890   30.0450   45.8990 C   0  0  0  0  0  0  0  0  0  0  0  0
   58.2350   31.4860   45.6450 N   0  0  0  0  0  0  0  0  0  0  0  0
   57.8820   32.0390   44.4270 C   0  0  0  0  0  0  0  0  0  0  0  0
   57.2940   31.2150   43.3030 C   0  0  0  0  0  0  0  0  0  0  0  0
   58.1330   33.3900   44.1700 C   0  0  0  0  0  0  0  0  0  0  0  0
   58.7130   34.1950   45.1370 C   0  0  0  0  0  0  0  0  0  0  0  0
   58.9470   35.4030   44.8650 O   0  0  0  0  0  0  0  0  0  0  0  0
   59.0400   33.6630   46.3930 C   0  0  0  0  0  0  0  0  0  0  0  0
   59.6890   34.5730   47.4320 C   0  0  0  0  0  0  0  0  0  0  0  0
   61.1250   34.1890   47.6910 C   0  0  0  0  0  0  0  0  0  0  0  0
   61.6340   34.1830   49.0010 C   0  0  0  0  0  0  0  0  0  0  0  0
   62.9640   33.8270   49.2410 C   0  0  0  0  0  0  0  0  0  0  0  0
   63.7970   33.4690   48.1780 C   0  0  0  0  0  0  0  0  0  0  0  0
   63.2990   33.4680   46.8710 C   0  0  0  0  0  0  0  0  0  0  0  0
   61.9690   33.8240   46.6270 C   0  0  0  0  0  0  0  0  0  0  0  0
   58.7990   32.2820   46.6310 C   0  0  0  0  0  0  0  0  0  0  0  0
   59.2250   31.6910   47.9240 C   0  0  0  0  0  0  0  0  0  0  0  0
   58.5180   31.9680   49.1030 C   0  0  0  0  0  0  0  0  0  0  0  0
   58.9410   31.4220   50.3200 C   0  0  0  0  0  0  0  0  0  0  0  0
   60.0720   30.6030   50.3640 C   0  0  0  0  0  0  0  0  0  0  0  0
   60.7830   30.3280   49.1910 C   0  0  0  0  0  0  0  0  0  0  0  0
   60.3630   30.8720   47.9750 C   0  0  0  0  0  0  0  0  0  0  0  0
   59.6913   28.7395   46.1499 H   0  0  0  0  0  0  0  0  0  0  0  0
   58.6819   28.3818   44.7078 H   0  0  0  0  0  0  0  0  0  0  0  0
   59.7750   29.8072   44.7078 H   0  0  0  0  0  0  0  0  0  0  0  0
   57.0384   29.7548   45.4277 H   0  0  0  0  0  0  0  0  0  0  0  0
   57.9474   29.8852   46.9865 H   0  0  0  0  0  0  0  0  0  0  0  0
   56.7038   30.3880   43.7246 H   0  0  0  0  0  0  0  0  0  0  0  0
   56.6442   31.8506   42.6835 H   0  0  0  0  0  0  0  0  0  0  0  0
   58.1064   30.8072   42.6835 H   0  0  0  0  0  0  0  0  0  0  0  0
   57.8678   33.8175   43.1918 H   0  0  0  0  0  0  0  0  0  0  0  0
   59.6576   35.6101   47.0668 H   0  0  0  0  0  0  0  0  0  0  0  0
   59.1311   34.4699   48.3744 H   0  0  0  0  0  0  0  0  0  0  0  0
   60.9818   34.4601   49.8423 H   0  0  0  0  0  0  0  0  0  0  0  0
   63.3558   33.8287   50.2689 H   0  0  0  0  0  0  0  0  0  0  0  0
   64.8433   33.1882   48.3688 H   0  0  0  0  0  0  0  0  0  0  0  0
   63.9546   33.1867   46.0337 H   0  0  0  0  0  0  0  0  0  0  0  0
   61.5810   33.8185   45.5977 H   0  0  0  0  0  0  0  0  0  0  0  0
   57.6294   32.6156   49.0711 H   0  0  0  0  0  0  0  0  0  0  0  0
   58.3826   31.6378   51.2428 H   0  0  0  0  0  0  0  0  0  0  0  0
   60.4035   30.1743   51.3212 H   0  0  0  0  0  0  0  0  0  0  0  0
   61.6733   29.6830   49.2263 H   0  0  0  0  0  0  0  0  0  0  0  0
   60.9261   30.6577   47.0547 H   0  0  0  0  0  0  0  0  0  0  0  0
  1  2  1  0
  2  3  1  0
  3  4  1  0
  4  5  1  0
  4  6  2  0
  6  7  1  0
  7  8  2  0
  7  9  1  0
  9 10  1  0
 10 11  1  0
 11 12  2  0
 12 13  1  0
 13 14  2  0
 14 15  1  0
 15 16  2  0
  9 17  2  0
 17 18  1  0
 18 19  2  0
 19 20  1  0
 20 21  2  0
 21 22  1  0
 22 23  2  0
 17  3  1  0
 23 18  1  0
 16 11  1  0
  1 24  1  0
  1 25  1  0
  1 26  1  0
  2 27  1  0
  2 28  1  0
  5 29  1  0
  5 30  1  0
  5 31  1  0
  6 32  1  0
 10 33  1  0
 10 34  1  0
 12 35  1  0
 13 36  1  0
 14 37  1  0
 15 38  1  0
 16 39  1  0
 19 40  1  0
 20 41  1  0
 21 42  1  0
 22 43  1  0
 23 44  1  0
M  END
>  <UniqueID>  (5) 
5

>  <SMILES>  (5) 
CCn1c(C)cc(=O)c(Cc2ccccc2)c1-c1ccccc1

>  <Energy>  (5) 
60.61563548391012

>  <Genealogy>  (5) 
CCn1c(C)cc(=O)c(Cc2ccccc2)c1-c1ccccc1 (3D coordinates assigned)
CCn1c(C)cc(=O)c(Cc2ccccc2)c1-c1ccccc1 (optimized conformer: 60.61563548391012 kcal/mol)

>  <smiles>  (5) 
CCn1c(C)cc(=O)c(Cc2ccccc2)c1-c1ccccc1

>  <score_type>  (5) 
oracle

>  <origin>  (5) 
adg

>  <m_score__min__energy>  (5) 
-7.5499999999999998

>  <m_primary>  (5) 
energy

$$$$
5:0
     RDKit          3D

 67 70  0  0  0  0  0  0  0  0999 V2000
   63.6880   30.5840   51.4980 C   0  0  0  0  0  0  0  0  0  0  0  0
   62.6290   30.9330   50.5390 N   0  0  0  0  0  0  0  0  0  0  0  0
   61.2880   30.3430   50.7160 C   0  0  0  0  0  0  0  0  0  0  0  0
   60.8680   29.5650   49.4920 C   0  0  0  0  0  0  0  0  0  0  0  0
   60.6380   28.1820   49.5680 C   0  0  0  0  0  0  0  0  0  0  0  0
   60.2000   27.4740   48.4470 C   0  0  0  0  0  0  0  0  0  0  0  0
   59.9780   28.1370   47.2300 C   0  0  0  0  0  0  0  0  0  0  0  0
   59.4330   27.3920   46.0350 C   0  0  0  0  0  0  0  0  0  0  0  0
   57.9880   27.6880   45.8180 N   0  0  2  0  0  0  0  0  0  0  0  0
   57.4010   26.7240   44.8640 C   0  0  0  0  0  0  0  0  0  0  0  0
   57.7060   29.0910   45.3850 C   0  0  0  0  0  0  0  0  0  0  0  0
   58.7400   29.6100   44.3630 C   0  0  0  0  0  0  0  0  0  0  0  0
   58.5210   31.1130   44.0890 C   0  0  0  0  0  0  0  0  0  0  0  0
   57.0900   31.5170   43.9950 N   0  0  0  0  0  0  0  0  0  0  0  0
   56.6510   32.3590   45.1290 C   0  0  0  0  0  0  0  0  0  0  0  0
   57.8110   33.1340   45.6980 C   0  0  0  0  0  0  0  0  0  0  0  0
   58.3270   34.2440   45.0050 C   0  0  0  0  0  0  0  0  0  0  0  0
   59.4040   34.9650   45.5330 C   0  0  0  0  0  0  0  0  0  0  0  0
   59.9660   34.5900   46.7560 C   0  0  0  0  0  0  0  0  0  0  0  0
   59.4540   33.4920   47.4550 C   0  0  0  0  0  0  0  0  0  0  0  0
   58.3780   32.7680   46.9310 C   0  0  0  0  0  0  0  0  0  0  0  0
   56.1720   30.3810   43.7630 C   0  0  0  0  0  0  0  0  0  0  0  0
   56.2510   29.3210   44.8800 C   0  0  0  0  0  0  0  0  0  0  0  0
   60.2090   29.5190   47.1500 C   0  0  0  0  0  0  0  0  0  0  0  0
   60.6570   30.2260   48.2700 C   0  0  0  0  0  0  0  0  0  0  0  0
   62.8800   31.9500   49.5320 C   0  0  0  0  0  0  0  0  0  0  0  0
   62.5100   33.2930   49.7460 C   0  0  0  0  0  0  0  0  0  0  0  0
   62.7340   34.2610   48.7610 C   0  0  0  0  0  0  0  0  0  0  0  0
   63.3250   33.9060   47.5460 C   0  0  0  0  0  0  0  0  0  0  0  0
   63.6920   32.5790   47.3140 C   0  0  0  0  0  0  0  0  0  0  0  0
   63.4730   31.6080   48.2960 C   0  0  0  0  0  0  0  0  0  0  0  0
   63.3097   30.7087   52.5234 H   0  0  0  0  0  0  0  0  0  0  0  0
   63.9920   29.5381   51.3440 H   0  0  0  0  0  0  0  0  0  0  0  0
   64.5543   31.2442   51.3440 H   0  0  0  0  0  0  0  0  0  0  0  0
   61.3054   29.6661   51.5829 H   0  0  0  0  0  0  0  0  0  0  0  0
   60.5669   31.1583   50.8750 H   0  0  0  0  0  0  0  0  0  0  0  0
   60.8041   27.6523   50.5177 H   0  0  0  0  0  0  0  0  0  0  0  0
   60.0279   26.3899   48.5181 H   0  0  0  0  0  0  0  0  0  0  0  0
   59.9974   27.6913   45.1395 H   0  0  0  0  0  0  0  0  0  0  0  0
   59.5395   26.3135   46.2232 H   0  0  0  0  0  0  0  0  0  0  0  0
   57.4760   27.5460   46.7220 H   0  0  0  0  0  0  0  0  0  0  0  0
   56.9072   25.9130   45.4194 H   0  0  0  0  0  0  0  0  0  0  0  0
   56.6623   27.2378   44.2313 H   0  0  0  0  0  0  0  0  0  0  0  0
   58.1966   26.3036   44.2313 H   0  0  0  0  0  0  0  0  0  0  0  0
   57.8060   29.6895   46.3025 H   0  0  0  0  0  0  0  0  0  0  0  0
   59.7530   29.4589   44.7643 H   0  0  0  0  0  0  0  0  0  0  0  0
   58.6189   29.0551   43.4210 H   0  0  0  0  0  0  0  0  0  0  0  0
   58.9871   31.6836   44.9058 H   0  0  0  0  0  0  0  0  0  0  0  0
   58.9728   31.3235   43.1084 H   0  0  0  0  0  0  0  0  0  0  0  0
   55.8828   33.0642   44.7788 H   0  0  0  0  0  0  0  0  0  0  0  0
   56.2416   31.7076   45.9151 H   0  0  0  0  0  0  0  0  0  0  0  0
   57.8827   34.5462   44.0452 H   0  0  0  0  0  0  0  0  0  0  0  0
   59.8087   35.8282   44.9843 H   0  0  0  0  0  0  0  0  0  0  0  0
   60.8119   35.1588   47.1695 H   0  0  0  0  0  0  0  0  0  0  0  0
   59.8978   33.1976   48.4175 H   0  0  0  0  0  0  0  0  0  0  0  0
   57.9739   31.9086   47.4861 H   0  0  0  0  0  0  0  0  0  0  0  0
   55.1421   30.7642   43.7124 H   0  0  0  0  0  0  0  0  0  0  0  0
   56.4700   29.8972   42.8211 H   0  0  0  0  0  0  0  0  0  0  0  0
   55.6328   29.6544   45.7265 H   0  0  0  0  0  0  0  0  0  0  0  0
   55.8886   28.3698   44.4630 H   0  0  0  0  0  0  0  0  0  0  0  0
   60.0367   30.0486   46.2014 H   0  0  0  0  0  0  0  0  0  0  0  0
   60.8456   31.3070   48.1941 H   0  0  0  0  0  0  0  0  0  0  0  0
   62.0402   33.5831   50.6974 H   0  0  0  0  0  0  0  0  0  0  0  0
   62.4435   35.3060   48.9441 H   0  0  0  0  0  0  0  0  0  0  0  0
   63.5007   34.6698   46.7742 H   0  0  0  0  0  0  0  0  0  0  0  0
   64.1544   32.2968   46.3566 H   0  0  0  0  0  0  0  0  0  0  0  0
   63.7659   30.5653   48.1039 H   0  0  0  0  0  0  0  0  0  0  0  0
  1  2  1  0
  2  3  1  0
  3  4  1  0
  4  5  2  0
  5  6  1  0
  6  7  2  0
  7  8  1  0
  8  9  1  0
  9 10  1  0
  9 11  1  0
 11 12  1  0
 12 13  1  0
 13 14  1  0
 14 15  1  0
 15 16  1  0
 16 17  2  0
 17 18  1  0
 18 19  2  0
 19 20  1  0
 20 21  2  0
 14 22  1  0
 22 23  1  0
  7 24  1  0
 24 25  2  0
  2 26  1  0
 26 27  2  0
 27 28  1  0
 28 29  2  0
 29 30  1  0
 30 31  2  0
 25  4  1  0
 31 26  1  0
 23 11  1  0
 21 16  1  0
  1 32  1  0
  1 33  1  0
  1 34  1  0
  3 35  1  0
  3 36  1  0
  5 37  1  0
  6 38  1  0
  8 39  1  0
  8 40  1  0
  9 41  1  1
 10 42  1  0
 10 43  1  0
 10 44  1  0
 11 45  1  0
 12 46  1  0
 12 47  1  0
 13 48  1  0
 13 49  1  0
 15 50  1  0
 15 51  1  0
 17 52  1  0
 18 53  1  0
 19 54  1  0
 20 55  1  0
 21 56  1  0
 22 57  1  0
 22 58  1  0
 23 59  1  0
 23 60  1  0
 24 61  1  0
 25 62  1  0
 27 63  1  0
 28 64  1  0
 29 65  1  0
 30 66  1  0
 31 67  1  0
M  CHG  1   9   1
M  END
>  <UniqueID>  (6) 
6

>  <SMILES>  (6) 
CN(Cc1ccc(C[N@H+](C)C2CCN(Cc3ccccc3)CC2)cc1)c1ccccc1

>  <Energy>  (6) 
90.36915892060046

>  <Genealogy>  (6) 
CN(Cc1ccc(C[NH+](C)C2CCN(Cc3ccccc3)CC2)cc1)c1ccccc1 (protonated)
CN(Cc1ccc(C[N@H+](C)C2CCN(Cc3ccccc3)CC2)cc1)c1ccccc1 (chirality)
CN(Cc1ccc(C[N@H+](C)C2CCN(Cc3ccccc3)CC2)cc1)c1ccccc1 (3D coordinates assigned)
CN(Cc1ccc(C[N@H+](C)C2CCN(Cc3ccccc3)CC2)cc1)c1ccccc1 (nonaromatic ring conformer: 90.36915892060046 kcal/mol)

>  <smiles>  (6) 
CN(Cc1ccc(CN(C)C2CCN(Cc3ccccc3)CC2)cc1)c1ccccc1

>  <score_type>  (6) 
oracle

>  <origin>  (6) 
adg

>  <m_score__min__energy>  (6) 
-7.6299999999999999

>  <m_primary>  (6) 
energy

$$$$
6:0
     RDKit          3D

 42 44  0  0  0  0  0  0  0  0999 V2000
   59.0380   24.5810   45.8560 C   0  0  0  0  0  0  0  0  0  0  0  0
   59.5500   25.8720   46.1690 O   0  0  0  0  0  0  0  0  0  0  0  0
   58.9850   27.0760   45.7240 C   0  0  0  0  0  0  0  0  0  0  0  0
   59.7610   28.1110   45.1660 C   0  0  0  0  0  0  0  0  0  0  0  0
   59.1540   29.2960   44.7410 C   0  0  0  0  0  0  0  0  0  0  0  0
   57.7690   29.4670   44.8690 C   0  0  0  0  0  0  0  0  0  0  0  0
   57.0070   30.9770   44.3590 S   0  0  0  0  0  0  0  0  0  0  0  0
   57.3180   31.2250   42.9090 O   0  0  0  0  0  0  0  0  0  0  0  0
   55.5160   30.8510   44.4990 O   0  0  0  0  0  0  0  0  0  0  0  0
   57.5640   32.3300   45.3160 N   0  0  0  0  0  0  0  0  0  0  0  0
   57.8050   31.9380   46.7250 C   0  0  0  0  0  0  0  0  0  0  0  0
   59.2920   31.7410   47.0610 C   0  0  0  0  0  0  0  0  0  0  0  0
   60.0680   32.9300   46.6830 N   0  0  0  0  0  0  0  0  0  0  0  0
   61.3110   33.2540   47.3430 C   0  0  0  0  0  0  0  0  0  0  0  0
   61.3290   33.8210   48.6320 C   0  0  0  0  0  0  0  0  0  0  0  0
   62.5510   34.1160   49.2370 C   0  0  0  0  0  0  0  0  0  0  0  0
   63.7440   33.8450   48.5660 C   0  0  0  0  0  0  0  0  0  0  0  0
   63.6950   33.2760   47.2930 C   0  0  0  0  0  0  0  0  0  0  0  0
   62.4950   32.9960   46.7190 N   0  0  0  0  0  0  0  0  0  0  0  0
   59.5490   33.8140   45.6330 C   0  0  0  0  0  0  0  0  0  0  0  0
   58.7010   33.0030   44.6500 C   0  0  0  0  0  0  0  0  0  0  0  0
   56.9950   28.4350   45.4140 C   0  0  0  0  0  0  0  0  0  0  0  0
   57.6000   27.2490   45.8410 C   0  0  0  0  0  0  0  0  0  0  0  0
   56.8370   26.2630   46.3730 F   0  0  0  0  0  0  0  0  0  0  0  0
   58.8221   24.0366   46.7871 H   0  0  0  0  0  0  0  0  0  0  0  0
   58.1133   24.6856   45.2695 H   0  0  0  0  0  0  0  0  0  0  0  0
   59.7830   24.0234   45.2695 H   0  0  0  0  0  0  0  0  0  0  0  0
   60.8491   27.9859   45.0644 H   0  0  0  0  0  0  0  0  0  0  0  0
   59.7664   30.0984   44.3039 H   0  0  0  0  0  0  0  0  0  0  0  0
   57.4015   32.7249   47.3792 H   0  0  0  0  0  0  0  0  0  0  0  0
   57.3070   30.9697   46.8811 H   0  0  0  0  0  0  0  0  0  0  0  0
   59.3988   31.5679   48.1420 H   0  0  0  0  0  0  0  0  0  0  0  0
   59.6717   30.8753   46.4985 H   0  0  0  0  0  0  0  0  0  0  0  0
   60.3859   34.0299   49.1582 H   0  0  0  0  0  0  0  0  0  0  0  0
   62.5740   34.5619   50.2423 H   0  0  0  0  0  0  0  0  0  0  0  0
   64.7115   34.0772   49.0350 H   0  0  0  0  0  0  0  0  0  0  0  0
   64.6277   33.0539   46.7537 H   0  0  0  0  0  0  0  0  0  0  0  0
   58.9289   34.5995   46.0895 H   0  0  0  0  0  0  0  0  0  0  0  0
   60.3906   34.2746   45.0950 H   0  0  0  0  0  0  0  0  0  0  0  0
   58.3084   33.6809   43.8777 H   0  0  0  0  0  0  0  0  0  0  0  0
   59.3436   32.2256   44.2111 H   0  0  0  0  0  0  0  0  0  0  0  0
   55.9058   28.5580   45.5066 H   0  0  0  0  0  0  0  0  0  0  0  0
  1  2  1  0
  2  3  1  0
  3  4  2  0
  4  5  1  0
  5  6  2  0
  6  7  1  0
  7  8  2  0
  7  9  2  0
  7 10  1  0
 10 11  1  0
 11 12  1  0
 12 13  1  0
 13 14  1  0
 14 15  2  0
 15 16  1  0
 16 17  2  0
 17 18  1  0
 18 19  2  0
 13 20  1  0
 20 21  1  0
  6 22  1  0
 22 23  2  0
 23 24  1  0
 23  3  1  0
 21 10  1  0
 19 14  1  0
  1 25  1  0
  1 26  1  0
  1 27  1  0
  4 28  1  0
  5 29  1  0
 11 30  1  0
 11 31  1  0
 12 32  1  0
 12 33  1  0
 15 34  1  0
 16 35  1  0
 17 36  1  0
 18 37  1  0
 20 38  1  0
 20 39  1  0
 21 40  1  0
 21 41  1  0
 22 42  1  0
M  END
>  <UniqueID>  (7) 
7

>  <SMILES>  (7) 
COc1ccc(S(=O)(=O)N2CCN(c3ccccn3)CC2)cc1F

>  <Energy>  (7) 
50.187240260170775

>  <Genealogy>  (7) 
COc1ccc(S(=O)(=O)N2CCN(c3ccccn3)CC2)cc1F (3D coordinates assigned)
COc1ccc(S(=O)(=O)N2CCN(c3ccccn3)CC2)cc1F (nonaromatic ring conformer: 50.187240260170775 kcal/mol)

>  <smiles>  (7) 
COc1ccc(S(=O)(=O)N2CCN(c3ccccn3)CC2)cc1F

>  <score_type>  (7) 
oracle

>  <origin>  (7) 
adg

>  <m_score__min__energy>  (7) 
-7.2800000000000002

>  <m_primary>  (7) 
energy

$$$$
7:0
     RDKit          3D

 45 48  0  0  0  0  0  0  0  0999 V2000
   56.7110   29.3720   42.9930 C   0  0  0  0  0  0  0  0  0  0  0  0
   56.1520   29.5550   44.4030 C   0  0  0  0  0  0  0  0  0  0  0  0
   57.1830   29.3040   45.4210 N   0  0  0  0  0  0  0  0  0  0  0  0
   57.6960   28.1060   45.8030 C   0  0  0  0  0  0  0  0  0  0  0  0
   57.2120   26.7800   45.3590 C   0  0  0  0  0  0  0  0  0  0  0  0
   57.8200   26.1530   44.2580 C   0  0  0  0  0  0  0  0  0  0  0  0
   57.3890   24.8920   43.8360 C   0  0  0  0  0  0  0  0  0  0  0  0
   56.3590   24.2400   44.5180 C   0  0  0  0  0  0  0  0  0  0  0  0
   55.7630   24.8460   45.6270 C   0  0  0  0  0  0  0  0  0  0  0  0
   56.1910   26.1080   46.0510 C   0  0  0  0  0  0  0  0  0  0  0  0
   58.7960   28.2330   46.5760 N   0  0  0  0  0  0  0  0  0  0  0  0
   58.9730   29.5630   46.7090 C   0  0  0  0  0  0  0  0  0  0  0  0
   60.1200   30.1520   47.4370 C   0  0  0  0  0  0  0  0  0  0  0  0
   61.0590   30.9710   46.7830 C   0  0  0  0  0  0  0  0  0  0  0  0
   62.1340   31.5190   47.4910 C   0  0  0  0  0  0  0  0  0  0  0  0
   62.2760   31.2660   48.8560 C   0  0  0  0  0  0  0  0  0  0  0  0
   61.3390   30.4690   49.5200 C   0  0  0  0  0  0  0  0  0  0  0  0
   60.2630   29.9190   48.8160 C   0  0  0  0  0  0  0  0  0  0  0  0
   57.9840   30.2260   46.0000 C   0  0  0  0  0  0  0  0  0  0  0  0
   57.9590   31.6680   45.6920 C   0  0  0  0  0  0  0  0  0  0  0  0
   57.7870   32.6090   46.7180 C   0  0  0  0  0  0  0  0  0  0  0  0
   57.7840   33.9760   46.4220 C   0  0  0  0  0  0  0  0  0  0  0  0
   57.9610   34.4070   45.1040 C   0  0  0  0  0  0  0  0  0  0  0  0
   58.1440   33.4730   44.0800 C   0  0  0  0  0  0  0  0  0  0  0  0
   58.1460   32.1050   44.3720 C   0  0  0  0  0  0  0  0  0  0  0  0
   57.7548   29.0303   43.0539 H   0  0  0  0  0  0  0  0  0  0  0  0
   56.1109   28.6234   42.4550 H   0  0  0  0  0  0  0  0  0  0  0  0
   56.6698   30.3305   42.4550 H   0  0  0  0  0  0  0  0  0  0  0  0
   55.7838   30.5858   44.5119 H   0  0  0  0  0  0  0  0  0  0  0  0
   55.3348   28.8334   44.5499 H   0  0  0  0  0  0  0  0  0  0  0  0
   58.6397   26.6574   43.7253 H   0  0  0  0  0  0  0  0  0  0  0  0
   57.8614   24.4126   42.9659 H   0  0  0  0  0  0  0  0  0  0  0  0
   56.0172   23.2499   44.1821 H   0  0  0  0  0  0  0  0  0  0  0  0
   54.9559   24.3296   46.1674 H   0  0  0  0  0  0  0  0  0  0  0  0
   55.7258   26.5767   46.9307 H   0  0  0  0  0  0  0  0  0  0  0  0
   60.9471   31.1815   45.7091 H   0  0  0  0  0  0  0  0  0  0  0  0
   62.8689   32.1507   46.9706 H   0  0  0  0  0  0  0  0  0  0  0  0
   63.1251   31.6936   49.4093 H   0  0  0  0  0  0  0  0  0  0  0  0
   61.4481   30.2743   50.5971 H   0  0  0  0  0  0  0  0  0  0  0  0
   59.5235   29.2998   49.3449 H   0  0  0  0  0  0  0  0  0  0  0  0
   57.6543   32.2714   47.7565 H   0  0  0  0  0  0  0  0  0  0  0  0
   57.6423   34.7124   47.2268 H   0  0  0  0  0  0  0  0  0  0  0  0
   57.9563   35.4823   44.8723 H   0  0  0  0  0  0  0  0  0  0  0  0
   58.2865   33.8141   43.0440 H   0  0  0  0  0  0  0  0  0  0  0  0
   58.2943   31.3713   43.5660 H   0  0  0  0  0  0  0  0  0  0  0  0
  1  2  1  0
  2  3  1  0
  3  4  1  0
  4  5  1  0
  5  6  2  0
  6  7  1  0
  7  8  2  0
  8  9  1  0
  9 10  2  0
  4 11  2  0
 11 12  1  0
 12 13  1  0
 13 14  2  0
 14 15  1  0
 15 16  2  0
 16 17  1  0
 17 18  2  0
 12 19  2  0
 19 20  1  0
 20 21  2  0
 21 22  1  0
 22 23  2  0
 23 24  1  0
 24 25  2  0
 19  3  1  0
 25 20  1  0
 10  5  1  0
 18 13  1  0
  1 26  1  0
  1 27  1  0
  1 28  1  0
  2 29  1  0
  2 30  1  0
  6 31  1  0
  7 32  1  0
  8 33  1  0
  9 34  1  0
 10 35  1  0
 14 36  1  0
 15 37  1  0
 16 38  1  0
 17 39  1  0
 18 40  1  0
 21 41  1  0
 22 42  1  0
 23 43  1  0
 24 44  1  0
 25 45  1  0
M  END
>  <UniqueID>  (8) 
8

>  <SMILES>  (8) 
CCn1c(-c2ccccc2)nc(-c2ccccc2)c1-c1ccccc1

>  <Energy>  (8) 
93.03990545920533

>  <Genealogy>  (8) 
CCn1c(-c2ccccc2)nc(-c2ccccc2)c1-c1ccccc1 (3D coordinates assigned)
CCn1c(-c2ccccc2)nc(-c2ccccc2)c1-c1ccccc1 (optimized conformer: 93.03990545920533 kcal/mol)

>  <smiles>  (8) 
CCn1c(-c2ccccc2)nc(-c2ccccc2)c1-c1ccccc1

>  <score_type>  (8) 
oracle

>  <origin>  (8) 
adg

>  <m_score__min__energy>  (8) 
-7.6699999999999999

>  <m_primary>  (8) 
energy

$$$$
8:0
     RDKit          3D

 42 43  0  0  0  0  0  0  0  0999 V2000
   60.6030   34.2660   46.5040 C   0  0  0  0  0  0  0  0  0  0  0  0
   59.3020   34.7300   45.8590 C   0  0  0  0  0  0  0  0  0  0  0  0
   58.6520   33.6200   45.1630 N   0  0  0  0  0  0  0  0  0  0  0  0
   58.5630   33.5590   43.8420 N   0  0  0  0  0  0  0  0  0  0  0  0
   57.9780   32.3880   43.5220 C   0  0  0  0  0  0  0  0  0  0  0  0
   57.7270   31.9530   42.1150 C   0  0  0  0  0  0  0  0  0  0  0  0
   57.7100   31.6720   44.6770 C   0  0  0  0  0  0  0  0  0  0  0  0
   56.9890   30.0650   44.8150 S   0  0  0  0  0  0  0  0  0  0  0  0
   55.5350   30.1460   44.4440 O   0  0  0  0  0  0  0  0  0  0  0  0
   57.0860   29.5740   46.2320 O   0  0  0  0  0  0  0  0  0  0  0  0
   57.7910   28.9480   43.7520 N   0  0  0  0  0  0  0  0  0  0  0  0
   59.1900   28.7980   44.1580 C   0  0  0  0  0  0  0  0  0  0  0  0
   59.2810   27.9120   45.4010 C   0  0  0  0  0  0  0  0  0  0  0  0
   59.8350   28.6900   46.5650 C   0  0  0  0  0  0  0  0  0  0  0  0
   59.5000   28.3320   47.8810 C   0  0  0  0  0  0  0  0  0  0  0  0
   59.9860   29.0780   48.9590 C   0  0  0  0  0  0  0  0  0  0  0  0
   60.8000   30.1910   48.7310 C   0  0  0  0  0  0  0  0  0  0  0  0
   61.1250   30.5620   47.4230 C   0  0  0  0  0  0  0  0  0  0  0  0
   60.6420   29.8180   46.3420 C   0  0  0  0  0  0  0  0  0  0  0  0
   58.1350   32.4930   45.7070 C   0  0  0  0  0  0  0  0  0  0  0  0
   58.1450   32.1480   47.1690 C   0  0  0  0  0  0  0  0  0  0  0  0
   60.5026   34.3018   47.5988 H   0  0  0  0  0  0  0  0  0  0  0  0
   60.8209   33.2347   46.1893 H   0  0  0  0  0  0  0  0  0  0  0  0
   61.4243   34.9266   46.1893 H   0  0  0  0  0  0  0  0  0  0  0  0
   58.6276   35.1130   46.6390 H   0  0  0  0  0  0  0  0  0  0  0  0
   59.5284   35.5231   45.1311 H   0  0  0  0  0  0  0  0  0  0  0  0
   57.1772   31.0002   42.1183 H   0  0  0  0  0  0  0  0  0  0  0  0
   57.1315   32.7181   41.5954 H   0  0  0  0  0  0  0  0  0  0  0  0
   58.6874   31.8204   41.5954 H   0  0  0  0  0  0  0  0  0  0  0  0
   57.7720   29.3730   42.7970 H   0  0  0  0  0  0  0  0  0  0  0  0
   59.7597   28.3357   43.3384 H   0  0  0  0  0  0  0  0  0  0  0  0
   59.6074   29.7891   44.3893 H   0  0  0  0  0  0  0  0  0  0  0  0
   58.2766   27.5438   45.6572 H   0  0  0  0  0  0  0  0  0  0  0  0
   59.9520   27.0671   45.1867 H   0  0  0  0  0  0  0  0  0  0  0  0
   58.8529   27.4615   48.0643 H   0  0  0  0  0  0  0  0  0  0  0  0
   59.7273   28.7885   49.9882 H   0  0  0  0  0  0  0  0  0  0  0  0
   61.1847   30.7747   49.5803 H   0  0  0  0  0  0  0  0  0  0  0  0
   61.7619   31.4408   47.2438 H   0  0  0  0  0  0  0  0  0  0  0  0
   60.8947   30.1169   45.3140 H   0  0  0  0  0  0  0  0  0  0  0  0
   58.1182   33.0727   47.7641 H   0  0  0  0  0  0  0  0  0  0  0  0
   57.2643   31.5333   47.4067 H   0  0  0  0  0  0  0  0  0  0  0  0
   59.0598   31.5854   47.4067 H   0  0  0  0  0  0  0  0  0  0  0  0
  1  2  1  0
  2  3  1  0
  3  4  1  0
  4  5  2  0
  5  6  1  0
  5  7  1  0
  7  8  1  0
  8  9  2  0
  8 10  2  0
  8 11  1  0
 11 12  1  0
 12 13  1  0
 13 14  1  0
 14 15  2  0
 15 16  1  0
 16 17  2  0
 17 18  1  0
 18 19  2  0
  7 20  2  0
 20 21  1  0
 20  3  1  0
 19 14  1  0
  1 22  1  0
  1 23  1  0
  1 24  1  0
  2 25  1  0
  2 26  1  0
  6 27  1  0
  6 28  1  0
  6 29  1  0
 11 30  1  0
 12 31  1  0
 12 32  1  0
 13 33  1  0
 13 34  1  0
 15 35  1  0
 16 36  1  0
 17 37  1  0
 18 38  1  0
 19 39  1  0
 21 40  1  0
 21 41  1  0
 21 42  1  0
M  END
>  <UniqueID>  (9) 
9

>  <SMILES>  (9) 
CCn1nc(C)c(S(=O)(=O)NCCc2ccccc2)c1C

>  <Energy>  (9) 
61.40518951548115

>  <Genealogy>  (9) 
CCn1nc(C)c(S(=O)(=O)NCCc2ccccc2)c1C (3D coordinates assigned)
CCn1nc(C)c(S(=O)(=O)NCCc2ccccc2)c1C (optimized conformer: 61.40518951548115 kcal/mol)

>  <smiles>  (9) 
CCn1nc(C)c(S(=O)(=O)NCCc2ccccc2)c1C

>  <score_type>  (9) 
oracle

>  <origin>  (9) 
adg

>  <m_score__min__energy>  (9) 
-7.9500000000000002

>  <m_primary>  (9) 
energy

$$$$
9:0
     RDKit          3D

 36 36  0  0  0  0  0  0  0  0999 V2000
   63.3610   34.0170   46.2890 C   0  0  0  0  0  0  0  0  0  0  0  0
   63.7950   33.8330   47.7500 C   0  0  0  0  0  0  0  0  0  0  0  0
   63.7120   32.4220   48.2030 N   0  0  0  0  0  0  0  0  0  0  0  0
   64.0920   32.2930   49.6370 C   0  0  0  0  0  0  0  0  0  0  0  0
   65.5250   32.7520   49.9300 C   0  0  0  0  0  0  0  0  0  0  0  0
   62.3900   31.8190   47.8650 C   0  0  0  0  0  0  0  0  0  0  0  0
   61.2090   32.2220   48.7800 C   0  0  0  0  0  0  0  0  0  0  0  0
   60.5900   33.8600   48.4250 S   0  0  0  0  0  0  0  0  0  0  0  0
   59.8950   34.5560   49.7860 O   0  0  0  0  0  0  0  0  0  0  0  0
   59.4600   33.8660   47.0840 C   0  0  0  0  0  0  0  0  0  0  0  0
   58.2860   33.1050   47.1510 C   0  0  0  0  0  0  0  0  0  0  0  0
   57.3900   33.1050   46.0770 C   0  0  0  0  0  0  0  0  0  0  0  0
   57.6670   33.8630   44.9350 C   0  0  0  0  0  0  0  0  0  0  0  0
   58.8370   34.6240   44.8670 C   0  0  0  0  0  0  0  0  0  0  0  0
   59.7330   34.6280   45.9420 C   0  0  0  0  0  0  0  0  0  0  0  0
   62.3486   34.4462   46.2585 H   0  0  0  0  0  0  0  0  0  0  0  0
   64.0623   34.6952   45.7808 H   0  0  0  0  0  0  0  0  0  0  0  0
   63.3611   33.0414   45.7808 H   0  0  0  0  0  0  0  0  0  0  0  0
   64.8357   34.1742   47.8528 H   0  0  0  0  0  0  0  0  0  0  0  0
   63.1080   34.4218   48.3755 H   0  0  0  0  0  0  0  0  0  0  0  0
   64.4160   31.8740   47.6510 H   0  0  0  0  0  0  0  0  0  0  0  0
   63.4008   32.9028   50.2372 H   0  0  0  0  0  0  0  0  0  0  0  0
   64.0338   31.2250   49.8939 H   0  0  0  0  0  0  0  0  0  0  0  0
   65.6790   32.8013   51.0181 H   0  0  0  0  0  0  0  0  0  0  0  0
   66.2361   32.0367   49.4911 H   0  0  0  0  0  0  0  0  0  0  0  0
   65.6882   33.7474   49.4911 H   0  0  0  0  0  0  0  0  0  0  0  0
   62.1367   32.1171   46.8369 H   0  0  0  0  0  0  0  0  0  0  0  0
   62.5145   30.7345   48.0003 H   0  0  0  0  0  0  0  0  0  0  0  0
   60.3921   31.4989   48.6393 H   0  0  0  0  0  0  0  0  0  0  0  0
   61.5770   32.2232   49.8166 H   0  0  0  0  0  0  0  0  0  0  0  0
   59.6080   35.4540   49.4840 H   0  0  0  0  0  0  0  0  0  0  0  0
   58.0686   32.5072   48.0485 H   0  0  0  0  0  0  0  0  0  0  0  0
   56.4673   32.5086   46.1307 H   0  0  0  0  0  0  0  0  0  0  0  0
   56.9633   33.8602   44.0895 H   0  0  0  0  0  0  0  0  0  0  0  0
   59.0538   35.2201   43.9683 H   0  0  0  0  0  0  0  0  0  0  0  0
   60.6521   35.2301   45.8895 H   0  0  0  0  0  0  0  0  0  0  0  0
  1  2  1  0
  2  3  1  0
  3  4  1  0
  4  5  1  0
  3  6  1  0
  6  7  1  0
  7  8  1  0
  8  9  1  1
  8 10  1  0
 10 11  2  0
 11 12  1  0
 12 13  2  0
 13 14  1  0
 14 15  2  0
 15 10  1  0
  1 16  1  0
  1 17  1  0
  1 18  1  0
  2 19  1  0
  2 20  1  0
  3 21  1  0
  4 22  1  0
  4 23  1  0
  5 24  1  0
  5 25  1  0
  5 26  1  0
  6 27  1  0
  6 28  1  0
  7 29  1  0
  7 30  1  0
  9 31  1  0
 11 32  1  0
 12 33  1  0
 13 34  1  0
 14 35  1  0
 15 36  1  0
M  CHG  2   3   1   8   1
M  END
>  <UniqueID>  (10) 
10

>  <SMILES>  (10) 
CC[NH+](CC)CC[S@+](O)c1ccccc1

>  <Energy>  (10) 
32.70654147769808

>  <Genealogy>  (10) 
CC[NH+](CC)CC[S+](O)c1ccccc1 (protonated)
CC[NH+](CC)CC[S@+](O)c1ccccc1 (chirality)
CC[NH+](CC)CC[S@+](O)c1ccccc1 (3D coordinates assigned)
CC[NH+](CC)CC[S@+](O)c1ccccc1 (optimized conformer: 32.70654147769808 kcal/mol)

>  <smiles>  (10) 
CCN(CC)CC[S+]([O-])c1ccccc1

>  <score_type>  (10) 
oracle

>  <origin>  (10) 
adg

>  <m_score__min__energy>  (10) 
-2.77

>  <m_primary>  (10) 
energy

$$$$
10:0
     RDKit          3D

 46 46  0  0  0  0  0  0  0  0999 V2000
   64.2351   31.6204   47.7704 H   0  0  0  0  0  0  0  0  0  0  0  0
   63.2600   32.0420   47.4850 C   0  0  0  0  0  0  0  0  0  0  0  0
   63.1760   33.3580   47.0340 C   0  0  0  0  0  0  0  0  0  0  0  0
   64.0846   33.9739   46.9632 H   0  0  0  0  0  0  0  0  0  0  0  0
   61.9390   33.8950   46.6720 C   0  0  0  0  0  0  0  0  0  0  0  0
   61.8798   34.9346   46.3175 H   0  0  0  0  0  0  0  0  0  0  0  0
   60.7670   33.1200   46.7560 C   0  0  0  0  0  0  0  0  0  0  0  0
   59.4380   33.7690   46.4510 C   0  0  0  0  0  0  0  0  0  0  0  0
   59.3854   34.7487   46.9485 H   0  0  0  0  0  0  0  0  0  0  0  0
   58.6233   33.1276   46.8183 H   0  0  0  0  0  0  0  0  0  0  0  0
   59.2710   33.9930   44.6430 S   0  0  0  0  0  0  0  0  0  0  0  0
   57.4560   33.7610   44.5630 C   0  0  0  0  0  0  0  0  0  0  0  0
   57.1539   33.6301   43.5134 H   0  0  0  0  0  0  0  0  0  0  0  0
   56.9653   34.6473   44.9917 H   0  0  0  0  0  0  0  0  0  0  0  0
   57.0370   32.5290   45.3640 C   0  0  0  0  0  0  0  0  0  0  0  0
   56.0931   32.7413   45.8875 H   0  0  0  0  0  0  0  0  0  0  0  0
   57.8280   32.2907   46.0904 H   0  0  0  0  0  0  0  0  0  0  0  0
   56.8480   31.3820   44.4770 N   0  0  0  0  0  0  0  0  0  0  0  0
   56.5970   31.5630   43.4780 H   0  0  0  0  0  0  0  0  0  0  0  0
   56.6410   30.0590   44.9900 C   0  0  0  0  0  0  0  0  0  0  0  0
   57.6140   29.3730   45.5200 N   0  0  0  0  0  0  0  0  0  0  0  0
   58.3340   28.2710   44.8810 C   0  0  0  0  0  0  0  0  0  0  0  0
   58.4767   28.5029   43.8152 H   0  0  0  0  0  0  0  0  0  0  0  0
   57.7440   27.3497   44.9957 H   0  0  0  0  0  0  0  0  0  0  0  0
   59.7040   28.0640   45.5390 C   0  0  0  0  0  0  0  0  0  0  0  0
   60.0095   27.0153   45.4090 H   0  0  0  0  0  0  0  0  0  0  0  0
   59.6185   28.3140   46.6068 H   0  0  0  0  0  0  0  0  0  0  0  0
   60.7600   28.9710   44.9140 C   0  0  0  0  0  0  0  0  0  0  0  0
   61.3360   29.4657   45.7099 H   0  0  0  0  0  0  0  0  0  0  0  0
   61.4378   28.3692   44.2908 H   0  0  0  0  0  0  0  0  0  0  0  0
   60.2674   29.7319   44.2908 H   0  0  0  0  0  0  0  0  0  0  0  0
   55.3540   29.4600   44.8610 N   0  0  0  0  0  0  0  0  0  0  0  0
   55.1680   28.5080   45.2510 H   0  0  0  0  0  0  0  0  0  0  0  0
   54.5810   29.9760   44.3820 H   0  0  0  0  0  0  0  0  0  0  0  0
   60.8510   31.7860   47.2270 C   0  0  0  0  0  0  0  0  0  0  0  0
   59.6790   30.9490   47.2960 N   0  0  0  0  0  0  0  0  0  0  0  0
   59.1590   30.7530   46.4130 H   0  0  0  0  0  0  0  0  0  0  0  0
   59.2670   30.2370   48.4760 C   0  0  0  0  0  0  0  0  0  0  0  0
   58.4580   29.0640   48.3340 N   0  0  0  0  0  0  0  0  0  0  0  0
   58.1050   28.5530   49.1730 H   0  0  0  0  0  0  0  0  0  0  0  0
   58.2120   28.7030   47.3830 H   0  0  0  0  0  0  0  0  0  0  0  0
   59.5700   30.6740   49.6640 N   0  0  0  0  0  0  0  0  0  0  0  0
   58.9920   31.3980   50.1440 H   0  0  0  0  0  0  0  0  0  0  0  0
   60.3910   30.2870   50.1840 H   0  0  0  0  0  0  0  0  0  0  0  0
   62.1080   31.2580   47.5750 C   0  0  0  0  0  0  0  0  0  0  0  0
   62.1840   30.2168   47.9216 H   0  0  0  0  0  0  0  0  0  0  0  0
  1  2  1  0
  2  3  2  0
  3  4  1  0
  3  5  1  0
  5  6  1  0
  5  7  2  0
  7  8  1  0
  8  9  1  0
  8 10  1  0
  8 11  1  0
 11 12  1  0
 12 13  1  0
 12 14  1  0
 12 15  1  0
 15 16  1  0
 15 17  1  0
 15 18  1  0
 18 19  1  0
 18 20  1  0
 20 21  2  0
 21 22  1  0
 22 23  1  0
 22 24  1  0
 22 25  1  0
 25 26  1  0
 25 27  1  0
 25 28  1  0
 28 29  1  0
 28 30  1  0
 28 31  1  0
 20 32  1  0
 32 33  1  0
 32 34  1  0
  7 35  1  0
 35 36  1  0
 36 37  1  0
 36 38  1  0
 38 39  1  0
 39 40  1  0
 39 41  1  0
 38 42  2  0
 42 43  1  0
 42 44  1  0
 35 45  2  0
 45 46  1  0
 45  2  1  0
M  CHG  1  42   1
M  END
>  <UniqueID>  (11) 
11

>  <SMILES>  (11) 
CCC/N=C(/N)NCCSCc1ccccc1NC(N)=[NH2+]

>  <Energy>  (11) 
39.333183024957385

>  <Genealogy>  (11) 
CCCN=C(N)NCCSCc1ccccc1NC(N)=[NH2+] (protonated)
CCC/N=C(/N)NCCSCc1ccccc1NC(N)=[NH2+] (cis-trans isomerization)
CCC/N=C(/N)NCCSCc1ccccc1NC(N)=[NH2+] (3D coordinates assigned)
CCC/N=C(/N)NCCSCc1ccccc1NC(N)=[NH2+] (optimized conformer: 39.333183024957385 kcal/mol)

>  <smiles>  (11) 
CCCN=C(N)NCCSCc1ccccc1NC(=N)N

>  <score_type>  (11) 
oracle

>  <origin>  (11) 
adg

>  <m_score__min__energy>  (11) 
-6.1100000000000003

>  <m_primary>  (11) 
energy

$$$$
11:0
     RDKit          3D

 61 63  0  0  0  0  0  0  0  0999 V2000
   63.6920   33.4610   46.6610 C   0  0  0  0  0  0  0  0  0  0  0  0
   63.4170   32.2340   47.5290 C   0  0  0  0  0  0  0  0  0  0  0  0
   63.7820   32.4500   49.0140 C   0  0  0  0  0  0  0  0  0  0  0  0
   62.6140   32.7310   49.8830 N   0  0  2  0  0  0  0  0  0  0  0  0
   61.8700   31.5190   50.1570 C   0  0  0  0  0  0  0  0  0  0  0  0
   62.1220   30.8520   51.2000 O   0  0  0  0  0  0  0  0  0  0  0  0
   60.8430   31.0370   49.2050 C   0  0  0  0  0  0  0  0  0  0  0  0
   60.4220   29.7000   49.2110 C   0  0  0  0  0  0  0  0  0  0  0  0
   59.4630   29.2630   48.2980 C   0  0  0  0  0  0  0  0  0  0  0  0
   58.8970   30.1540   47.3860 C   0  0  0  0  0  0  0  0  0  0  0  0
   59.2740   31.5120   47.3810 C   0  0  0  0  0  0  0  0  0  0  0  0
   58.6920   32.4490   46.4880 C   0  0  0  0  0  0  0  0  0  0  0  0
   57.6210   32.0610   45.6050 N   0  0  0  0  0  0  0  0  0  0  0  0
   57.7530   32.0510   44.1460 C   0  0  0  0  0  0  0  0  0  0  0  0
   56.7670   31.0590   43.5180 C   0  0  0  0  0  0  0  0  0  0  0  0
   55.8810   30.5340   44.4900 O   0  0  0  0  0  0  0  0  0  0  0  0
   56.2610   29.2300   44.8890 C   0  0  0  0  0  0  0  0  0  0  0  0
   57.4160   28.7210   44.0180 C   0  0  0  0  0  0  0  0  0  0  0  0
   58.6100   28.4300   44.8420 N   0  0  0  0  0  0  0  0  0  0  0  0
   59.8000   29.2360   44.4920 C   0  0  0  0  0  0  0  0  0  0  0  0
   61.1240   28.5830   44.8920 C   0  0  0  0  0  0  0  0  0  0  0  0
   58.8890   27.0030   45.1510 C   0  0  0  0  0  0  0  0  0  0  0  0
   58.1540   26.4490   46.3820 C   0  0  0  0  0  0  0  0  0  0  0  0
   59.1310   33.7840   46.5120 C   0  0  0  0  0  0  0  0  0  0  0  0
   60.1210   34.1980   47.4010 C   0  0  0  0  0  0  0  0  0  0  0  0
   60.7030   33.2860   48.2910 C   0  0  0  0  0  0  0  0  0  0  0  0
   60.2810   31.9440   48.2870 C   0  0  0  0  0  0  0  0  0  0  0  0
   61.7710   33.7120   49.2310 C   0  0  0  0  0  0  0  0  0  0  0  0
   61.9970   34.9420   49.4100 O   0  0  0  0  0  0  0  0  0  0  0  0
   63.8868   34.3303   47.3062 H   0  0  0  0  0  0  0  0  0  0  0  0
   64.5700   33.2716   46.0260 H   0  0  0  0  0  0  0  0  0  0  0  0
   62.8172   33.6644   46.0260 H   0  0  0  0  0  0  0  0  0  0  0  0
   62.3462   31.9912   47.4632 H   0  0  0  0  0  0  0  0  0  0  0  0
   64.0481   31.4161   47.1511 H   0  0  0  0  0  0  0  0  0  0  0  0
   64.2792   31.5414   49.3845 H   0  0  0  0  0  0  0  0  0  0  0  0
   64.4340   33.3348   49.0580 H   0  0  0  0  0  0  0  0  0  0  0  0
   62.9340   33.1420   50.7900 H   0  0  0  0  0  0  0  0  0  0  0  0
   60.8493   28.9936   49.9379 H   0  0  0  0  0  0  0  0  0  0  0  0
   59.1506   28.2083   48.2969 H   0  0  0  0  0  0  0  0  0  0  0  0
   58.1495   29.7933   46.6641 H   0  0  0  0  0  0  0  0  0  0  0  0
   56.6610   31.9830   46.0050 H   0  0  0  0  0  0  0  0  0  0  0  0
   57.5466   33.0594   43.7581 H   0  0  0  0  0  0  0  0  0  0  0  0
   58.7767   31.7436   43.8862 H   0  0  0  0  0  0  0  0  0  0  0  0
   56.1832   31.5757   42.7420 H   0  0  0  0  0  0  0  0  0  0  0  0
   57.3395   30.2268   43.0824 H   0  0  0  0  0  0  0  0  0  0  0  0
   56.5823   29.2517   45.9408 H   0  0  0  0  0  0  0  0  0  0  0  0
   55.4003   28.5552   44.7711 H   0  0  0  0  0  0  0  0  0  0  0  0
   57.1008   27.8014   43.5033 H   0  0  0  0  0  0  0  0  0  0  0  0
   57.6751   29.5009   43.2869 H   0  0  0  0  0  0  0  0  0  0  0  0
   59.8052   29.3930   43.4033 H   0  0  0  0  0  0  0  0  0  0  0  0
   59.7250   30.1799   45.0518 H   0  0  0  0  0  0  0  0  0  0  0  0
   61.1982   28.5464   45.9889 H   0  0  0  0  0  0  0  0  0  0  0  0
   61.1658   27.5610   44.4874 H   0  0  0  0  0  0  0  0  0  0  0  0
   61.9603   29.1720   44.4874 H   0  0  0  0  0  0  0  0  0  0  0  0
   58.5949   26.4011   44.2785 H   0  0  0  0  0  0  0  0  0  0  0  0
   59.9629   26.9427   45.3813 H   0  0  0  0  0  0  0  0  0  0  0  0
   58.6419   26.8168   47.2967 H   0  0  0  0  0  0  0  0  0  0  0  0
   57.1064   26.7841   46.3651 H   0  0  0  0  0  0  0  0  0  0  0  0
   58.1876   25.3496   46.3651 H   0  0  0  0  0  0  0  0  0  0  0  0
   58.6864   34.5130   45.8186 H   0  0  0  0  0  0  0  0  0  0  0  0
   60.4478   35.2483   47.4040 H   0  0  0  0  0  0  0  0  0  0  0  0
  1  2  1  0
  2  3  1  0
  3  4  1  0
  4  5  1  0
  5  6  2  0
  5  7  1  0
  7  8  1  0
  8  9  2  0
  9 10  1  0
 10 11  2  0
 11 12  1  0
 12 13  1  0
 13 14  1  0
 14 15  1  0
 15 16  1  0
 16 17  1  0
 17 18  1  0
 18 19  1  0
 19 20  1  0
 20 21  1  0
 19 22  1  0
 22 23  1  0
 12 24  2  0
 24 25  1  0
 25 26  2  0
 26 27  1  0
 26 28  1  0
 28 29  2  0
 28  4  1  0
 27  7  2  0
 27 11  1  0
  1 30  1  0
  1 31  1  0
  1 32  1  0
  2 33  1  0
  2 34  1  0
  3 35  1  0
  3 36  1  0
  4 37  1  1
  8 38  1  0
  9 39  1  0
 10 40  1  0
 13 41  1  0
 14 42  1  0
 14 43  1  0
 15 44  1  0
 15 45  1  0
 17 46  1  0
 17 47  1  0
 18 48  1  0
 18 49  1  0
 20 50  1  0
 20 51  1  0
 21 52  1  0
 21 53  1  0
 21 54  1  0
 22 55  1  0
 22 56  1  0
 23 57  1  0
 23 58  1  0
 23 59  1  0
 24 60  1  0
 25 61  1  0
M  CHG  1   4   1
M  END
>  <UniqueID>  (12) 
12

>  <SMILES>  (12) 
CCC[N@@H+]1C(=O)c2cccc3c(NCCOCCN(CC)CC)ccc(c23)C1=O

>  <Energy>  (12) 
80.73599767631025

>  <Genealogy>  (12) 
CCC[NH+]1C(=O)c2cccc3c(NCCOCCN(CC)CC)ccc(c23)C1=O (protonated)
CCC[N@@H+]1C(=O)c2cccc3c(NCCOCCN(CC)CC)ccc(c23)C1=O (chirality)
CCC[N@@H+]1C(=O)c2cccc3c(NCCOCCN(CC)CC)ccc(c23)C1=O (3D coordinates assigned)
CCC[N@@H+]1C(=O)c2cccc3c(NCCOCCN(CC)CC)ccc(c23)C1=O (nonaromatic ring conformer: 80.73599767631025 kcal/mol)

>  <smiles>  (12) 
CCCN1C(=O)c2cccc3c(NCCOCCN(CC)CC)ccc(c23)C1=O

>  <score_type>  (12) 
oracle

>  <origin>  (12) 
adg

>  <m_score__min__energy>  (12) 
-6.5599999999999996

>  <m_primary>  (12) 
energy

$$$$
12:0
     RDKit          3D

 36 37  0  0  0  0  0  0  0  0999 V2000
   55.5310   29.7250   43.6680 C   0  0  0  0  0  0  0  0  0  0  0  0
   56.7930   30.5720   43.5070 C   0  0  0  0  0  0  0  0  0  0  0  0
   57.5720   30.6910   44.8220 C   0  0  0  0  0  0  0  0  0  0  0  0
   57.1370   29.7210   45.7570 O   0  0  0  0  0  0  0  0  0  0  0  0
   58.1190   28.7200   45.9270 C   0  0  0  0  0  0  0  0  0  0  0  0
   57.5580   27.4170   45.4650 C   0  0  0  0  0  0  0  0  0  0  0  0
   56.3890   26.8230   45.9400 C   0  0  0  0  0  0  0  0  0  0  0  0
   56.1660   25.5630   45.3730 C   0  0  0  0  0  0  0  0  0  0  0  0
   55.0850   24.7210   45.6400 C   0  0  0  0  0  0  0  0  0  0  0  0
   55.0090   23.4690   44.9840 C   0  0  0  0  0  0  0  0  0  0  0  0
   53.9450   22.5810   45.2060 O   0  0  0  0  0  0  0  0  0  0  0  0
   52.6440   22.9730   45.6260 C   0  0  0  0  0  0  0  0  0  0  0  0
   56.0240   23.0840   44.0750 C   0  0  0  0  0  0  0  0  0  0  0  0
   55.9110   21.8350   43.4440 O   0  0  0  0  0  0  0  0  0  0  0  0
   57.0060   21.1110   42.8900 C   0  0  0  0  0  0  0  0  0  0  0  0
   57.1110   23.9520   43.8240 C   0  0  0  0  0  0  0  0  0  0  0  0
   57.1510   25.1750   44.4820 C   0  0  0  0  0  0  0  0  0  0  0  0
   58.3220   26.3730   44.3740 S   0  0  0  0  0  0  0  0  0  0  0  0
   55.3190   29.5827   44.7379 H   0  0  0  0  0  0  0  0  0  0  0  0
   54.6824   30.2371   43.1910 H   0  0  0  0  0  0  0  0  0  0  0  0
   55.6834   28.7456   43.1910 H   0  0  0  0  0  0  0  0  0  0  0  0
   57.4409   30.1049   42.7506 H   0  0  0  0  0  0  0  0  0  0  0  0
   56.4885   31.5828   43.1980 H   0  0  0  0  0  0  0  0  0  0  0  0
   58.6431   30.5421   44.6207 H   0  0  0  0  0  0  0  0  0  0  0  0
   57.3957   31.6908   45.2454 H   0  0  0  0  0  0  0  0  0  0  0  0
   59.0102   28.9709   45.3330 H   0  0  0  0  0  0  0  0  0  0  0  0
   58.4043   28.6507   46.9871 H   0  0  0  0  0  0  0  0  0  0  0  0
   55.7189   27.2912   46.6760 H   0  0  0  0  0  0  0  0  0  0  0  0
   54.3028   25.0264   46.3506 H   0  0  0  0  0  0  0  0  0  0  0  0
   52.6018   22.9857   46.7251 H   0  0  0  0  0  0  0  0  0  0  0  0
   52.4211   23.9782   45.2389 H   0  0  0  0  0  0  0  0  0  0  0  0
   51.9028   22.2583   45.2389 H   0  0  0  0  0  0  0  0  0  0  0  0
   57.6242   20.7023   43.7029 H   0  0  0  0  0  0  0  0  0  0  0  0
   56.6243   20.2867   42.2697 H   0  0  0  0  0  0  0  0  0  0  0  0
   57.6150   21.7851   42.2697 H   0  0  0  0  0  0  0  0  0  0  0  0
   57.9084   23.6653   43.1226 H   0  0  0  0  0  0  0  0  0  0  0  0
  1  2  1  0
  2  3  1  0
  3  4  1  0
  4  5  1  0
  5  6  1  0
  6  7  2  0
  7  8  1  0
  8  9  2  0
  9 10  1  0
 10 11  1  0
 11 12  1  0
 10 13  2  0
 13 14  1  0
 14 15  1  0
 13 16  1  0
 16 17  2  0
 17 18  1  0
 18  6  1  0
 17  8  1  0
  1 19  1  0
  1 20  1  0
  1 21  1  0
  2 22  1  0
  2 23  1  0
  3 24  1  0
  3 25  1  0
  5 26  1  0
  5 27  1  0
  7 28  1  0
  9 29  1  0
 12 30  1  0
 12 31  1  0
 12 32  1  0
 15 33  1  0
 15 34  1  0
 15 35  1  0
 16 36  1  0
M  END
>  <UniqueID>  (13) 
13

>  <SMILES>  (13) 
CCCOCc1cc2cc(OC)c(OC)cc2s1

>  <Energy>  (13) 
61.5240083048232

>  <Genealogy>  (13) 
CCCOCc1cc2cc(OC)c(OC)cc2s1 (3D coordinates assigned)
CCCOCc1cc2cc(OC)c(OC)cc2s1 (optimized conformer: 61.5240083048232 kcal/mol)

>  <smiles>  (13) 
CCCOCc1cc2cc(OC)c(OC)cc2s1

>  <score_type>  (13) 
oracle

>  <origin>  (13) 
adg

>  <m_score__min__energy>  (13) 
-5.4800000000000004

>  <m_primary>  (13) 
energy

$$$$
13:0
     RDKit          3D

 49 51  0  0  0  0  0  0  0  0999 V2000
   58.1380   32.6810   42.3750 C   0  0  0  0  0  0  0  0  0  0  0  0
   58.0180   32.5860   43.8300 N   0  0  0  0  0  0  0  0  0  0  0  0
   57.3250   31.6620   44.5480 C   0  0  0  0  0  0  0  0  0  0  0  0
   56.5980   30.4900   43.9610 C   0  0  0  0  0  0  0  0  0  0  0  0
   56.2320   29.5660   45.0250 N   0  0  0  0  0  0  0  0  0  0  0  0
   56.6500   28.1990   45.1090 C   0  0  0  0  0  0  0  0  0  0  0  0
   55.8730   27.3600   45.6360 O   0  0  0  0  0  0  0  0  0  0  0  0
   57.9950   27.7310   44.6140 C   0  0  0  0  0  0  0  0  0  0  0  0
   59.0100   27.8300   45.6840 N   0  0  0  0  0  0  0  0  0  0  0  0
   58.4360   28.4130   46.9180 C   0  0  0  0  0  0  0  0  0  0  0  0
   59.5410   28.8350   47.8960 C   0  0  0  0  0  0  0  0  0  0  0  0
   60.4650   29.8450   47.3160 N   0  0  0  0  0  0  0  0  0  0  0  0
   60.3080   31.1840   47.9270 C   0  0  0  0  0  0  0  0  0  0  0  0
   61.4950   32.0850   47.5730 C   0  0  0  0  0  0  0  0  0  0  0  0
   62.6300   31.3310   47.2450 O   0  0  0  0  0  0  0  0  0  0  0  0
   60.3940   29.9260   45.8400 C   0  0  0  0  0  0  0  0  0  0  0  0
   60.2340   28.5330   45.2170 C   0  0  0  0  0  0  0  0  0  0  0  0
   57.4030   31.9330   45.9110 C   0  0  0  0  0  0  0  0  0  0  0  0
   58.1560   33.0820   46.0070 C   0  0  0  0  0  0  0  0  0  0  0  0
   58.5340   33.8200   47.1260 C   0  0  0  0  0  0  0  0  0  0  0  0
   59.2960   34.9830   46.9190 C   0  0  0  0  0  0  0  0  0  0  0  0
   59.6580   35.3780   45.6120 C   0  0  0  0  0  0  0  0  0  0  0  0
   59.2600   34.6130   44.5000 C   0  0  0  0  0  0  0  0  0  0  0  0
   58.5070   33.4590   44.7340 C   0  0  0  0  0  0  0  0  0  0  0  0
   58.9767   33.3450   42.1188 H   0  0  0  0  0  0  0  0  0  0  0  0
   58.3212   31.6805   41.9561 H   0  0  0  0  0  0  0  0  0  0  0  0
   57.2063   33.0889   41.9561 H   0  0  0  0  0  0  0  0  0  0  0  0
   55.6889   30.8403   43.4502 H   0  0  0  0  0  0  0  0  0  0  0  0
   57.2496   29.9780   43.2376 H   0  0  0  0  0  0  0  0  0  0  0  0
   57.9151   26.6834   44.2881 H   0  0  0  0  0  0  0  0  0  0  0  0
   58.3041   28.3701   43.7737 H   0  0  0  0  0  0  0  0  0  0  0  0
   57.8351   29.2953   46.6526 H   0  0  0  0  0  0  0  0  0  0  0  0
   57.8101   27.6512   47.4058 H   0  0  0  0  0  0  0  0  0  0  0  0
   59.0716   29.2622   48.7944 H   0  0  0  0  0  0  0  0  0  0  0  0
   60.1341   27.9397   48.1339 H   0  0  0  0  0  0  0  0  0  0  0  0
   59.3815   31.6446   47.5536 H   0  0  0  0  0  0  0  0  0  0  0  0
   60.2649   31.0703   49.0203 H   0  0  0  0  0  0  0  0  0  0  0  0
   61.2226   32.7142   46.7128 H   0  0  0  0  0  0  0  0  0  0  0  0
   61.7328   32.7045   48.4503 H   0  0  0  0  0  0  0  0  0  0  0  0
   62.3810   30.3780   47.3670 H   0  0  0  0  0  0  0  0  0  0  0  0
   59.5324   30.5479   45.5554 H   0  0  0  0  0  0  0  0  0  0  0  0
   61.3301   30.3690   45.4692 H   0  0  0  0  0  0  0  0  0  0  0  0
   60.1817   28.6410   44.1236 H   0  0  0  0  0  0  0  0  0  0  0  0
   61.1005   27.9303   45.5266 H   0  0  0  0  0  0  0  0  0  0  0  0
   56.9589   31.3541   46.7342 H   0  0  0  0  0  0  0  0  0  0  0  0
   58.2456   33.5030   48.1391 H   0  0  0  0  0  0  0  0  0  0  0  0
   59.6124   35.5894   47.7805 H   0  0  0  0  0  0  0  0  0  0  0  0
   60.2550   36.2897   45.4624 H   0  0  0  0  0  0  0  0  0  0  0  0
   59.5332   34.9140   43.4779 H   0  0  0  0  0  0  0  0  0  0  0  0
  1  2  1  0
  2  3  1  0
  3  4  1  0
  4  5  1  0
  5  6  1  0
  6  7  2  0
  6  8  1  0
  8  9  1  0
  9 10  1  0
 10 11  1  0
 11 12  1  0
 12 13  1  0
 13 14  1  0
 14 15  1  0
 12 16  1  0
 16 17  1  0
  3 18  2  0
 18 19  1  0
 19 20  2  0
 20 21  1  0
 21 22  2  0
 22 23  1  0
 23 24  2  0
 24  2  1  0
 17  9  1  0
 24 19  1  0
  1 25  1  0
  1 26  1  0
  1 27  1  0
  4 28  1  0
  4 29  1  0
  8 30  1  0
  8 31  1  0
 10 32  1  0
 10 33  1  0
 11 34  1  0
 11 35  1  0
 13 36  1  0
 13 37  1  0
 14 38  1  0
 14 39  1  0
 15 40  1  0
 16 41  1  0
 16 42  1  0
 17 43  1  0
 17 44  1  0
 18 45  1  0
 20 46  1  0
 21 47  1  0
 22 48  1  0
 23 49  1  0
M  CHG  1   5  -1
M  END
>  <UniqueID>  (14) 
14

>  <SMILES>  (14) 
Cn1c(C[N-]C(=O)CN2CCN(CCO)CC2)cc2ccccc21

>  <Energy>  (14) 
92.58952240317943

>  <Genealogy>  (14) 
Cn1c(C[N-]C(=O)CN2CCN(CCO)CC2)cc2ccccc21 (protonated)
Cn1c(C[N-]C(=O)CN2CCN(CCO)CC2)cc2ccccc21 (3D coordinates assigned)
Cn1c(C[N-]C(=O)CN2CCN(CCO)CC2)cc2ccccc21 (nonaromatic ring conformer: 92.58952240317943 kcal/mol)

>  <smiles>  (14) 
Cn1c(CNC(=O)CN2CCN(CCO)CC2)cc2ccccc21

>  <score_type>  (14) 
oracle

>  <origin>  (14) 
adg

>  <m_score__min__energy>  (14) 
-9.7799999999999994

>  <m_primary>  (14) 
energy

$$$$
14:0
     RDKit          3D

 47 48  0  0  0  0  0  0  0  0999 V2000
   57.7870   25.6760   47.1460 C   0  0  0  0  0  0  0  0  0  0  0  0
   56.3390   25.4290   47.0390 N   0  0  0  0  0  0  0  0  0  0  0  0
   56.0870   24.0000   46.7950 C   0  0  0  0  0  0  0  0  0  0  0  0
   55.7270   26.2730   45.9870 C   0  0  0  0  0  0  0  0  0  0  0  0
   56.6480   27.4510   45.6750 C   0  0  0  0  0  0  0  0  0  0  0  0
   55.8710   28.6030   45.2280 N   0  0  0  0  0  0  0  0  0  0  0  0
   56.3040   29.5150   44.2120 C   0  0  0  0  0  0  0  0  0  0  0  0
   56.6670   29.0880   43.0830 O   0  0  0  0  0  0  0  0  0  0  0  0
   56.3040   30.9850   44.4920 C   0  0  0  0  0  0  0  0  0  0  0  0
   57.6040   31.4000   45.0230 N   0  0  0  0  0  0  0  0  0  0  0  0
   58.5140   30.4250   45.5590 C   0  0  0  0  0  0  0  0  0  0  0  0
   59.3960   29.7340   44.7110 C   0  0  0  0  0  0  0  0  0  0  0  0
   60.2730   28.7780   45.2350 C   0  0  0  0  0  0  0  0  0  0  0  0
   60.2680   28.4970   46.6050 C   0  0  0  0  0  0  0  0  0  0  0  0
   59.3900   29.1780   47.4550 C   0  0  0  0  0  0  0  0  0  0  0  0
   58.5170   30.1390   46.9350 C   0  0  0  0  0  0  0  0  0  0  0  0
   58.0160   33.0910   45.0520 S   0  0  0  0  0  0  0  0  0  0  0  0
   58.6310   33.4950   43.7420 O   0  0  0  0  0  0  0  0  0  0  0  0
   56.7690   33.9050   45.2580 O   0  0  0  0  0  0  0  0  0  0  0  0
   59.1580   33.3950   46.3580 C   0  0  0  0  0  0  0  0  0  0  0  0
   58.7030   33.5210   47.6790 C   0  0  0  0  0  0  0  0  0  0  0  0
   59.6030   33.8300   48.7040 C   0  0  0  0  0  0  0  0  0  0  0  0
   60.9580   34.0090   48.4170 C   0  0  0  0  0  0  0  0  0  0  0  0
   61.8270   34.3190   49.4100 F   0  0  0  0  0  0  0  0  0  0  0  0
   61.4180   33.8730   47.1030 C   0  0  0  0  0  0  0  0  0  0  0  0
   60.5210   33.5710   46.0760 C   0  0  0  0  0  0  0  0  0  0  0  0
   58.0732   25.7248   48.2070 H   0  0  0  0  0  0  0  0  0  0  0  0
   58.3357   24.8585   46.6555 H   0  0  0  0  0  0  0  0  0  0  0  0
   58.0336   26.6292   46.6555 H   0  0  0  0  0  0  0  0  0  0  0  0
   55.9943   23.4745   47.7569 H   0  0  0  0  0  0  0  0  0  0  0  0
   55.1546   23.8846   46.2228 H   0  0  0  0  0  0  0  0  0  0  0  0
   56.9236   23.5726   46.2228 H   0  0  0  0  0  0  0  0  0  0  0  0
   55.5785   25.6733   45.0769 H   0  0  0  0  0  0  0  0  0  0  0  0
   54.7567   26.6516   46.3409 H   0  0  0  0  0  0  0  0  0  0  0  0
   57.2086   27.7223   46.5817 H   0  0  0  0  0  0  0  0  0  0  0  0
   57.3421   27.1574   44.8737 H   0  0  0  0  0  0  0  0  0  0  0  0
   56.1012   31.5322   43.5596 H   0  0  0  0  0  0  0  0  0  0  0  0
   55.5252   31.2080   45.2362 H   0  0  0  0  0  0  0  0  0  0  0  0
   59.3970   29.9454   43.6315 H   0  0  0  0  0  0  0  0  0  0  0  0
   60.9677   28.2464   44.5681 H   0  0  0  0  0  0  0  0  0  0  0  0
   60.9542   27.7408   47.0141 H   0  0  0  0  0  0  0  0  0  0  0  0
   59.3863   28.9576   48.5327 H   0  0  0  0  0  0  0  0  0  0  0  0
   57.8292   30.6738   47.6065 H   0  0  0  0  0  0  0  0  0  0  0  0
   57.6370   33.3766   47.9090 H   0  0  0  0  0  0  0  0  0  0  0  0
   59.2429   33.9323   49.7383 H   0  0  0  0  0  0  0  0  0  0  0  0
   62.4868   34.0040   46.8785 H   0  0  0  0  0  0  0  0  0  0  0  0
   60.8844   33.4708   45.0426 H   0  0  0  0  0  0  0  0  0  0  0  0
  1  2  1  0
  2  3  1  0
  2  4  1  0
  4  5  1  0
  5  6  1  0
  6  7  1  0
  7  8  2  0
  7  9  1  0
  9 10  1  0
 10 11  1  0
 11 12  2  0
 12 13  1  0
 13 14  2  0
 14 15  1  0
 15 16  2  0
 10 17  1  0
 17 18  2  0
 17 19  2  0
 17 20  1  0
 20 21  2  0
 21 22  1  0
 22 23  2  0
 23 24  1  0
 23 25  1  0
 25 26  2  0
 16 11  1  0
 26 20  1  0
  1 27  1  0
  1 28  1  0
  1 29  1  0
  3 30  1  0
  3 31  1  0
  3 32  1  0
  4 33  1  0
  4 34  1  0
  5 35  1  0
  5 36  1  0
  9 37  1  0
  9 38  1  0
 12 39  1  0
 13 40  1  0
 14 41  1  0
 15 42  1  0
 16 43  1  0
 21 44  1  0
 22 45  1  0
 25 46  1  0
 26 47  1  0
M  CHG  1   6  -1
M  END
>  <UniqueID>  (15) 
15

>  <SMILES>  (15) 
CN(C)CC[N-]C(=O)CN(c1ccccc1)S(=O)(=O)c1ccc(F)cc1

>  <Energy>  (15) 
44.37622089566098

>  <Genealogy>  (15) 
CN(C)CC[N-]C(=O)CN(c1ccccc1)S(=O)(=O)c1ccc(F)cc1 (protonated)
CN(C)CC[N-]C(=O)CN(c1ccccc1)S(=O)(=O)c1ccc(F)cc1 (3D coordinates assigned)
CN(C)CC[N-]C(=O)CN(c1ccccc1)S(=O)(=O)c1ccc(F)cc1 (optimized conformer: 44.37622089566098 kcal/mol)

>  <smiles>  (15) 
CN(C)CCNC(=O)CN(c1ccccc1)S(=O)(=O)c1ccc(F)cc1

>  <score_type>  (15) 
oracle

>  <origin>  (15) 
adg

>  <m_score__min__energy>  (15) 
-9.3699999999999992

>  <m_primary>  (15) 
energy

$$$$
15:0
     RDKit          3D

 50 52  0  0  0  0  0  0  0  0999 V2000
   64.0620   33.1680   49.4610 C   0  0  0  0  0  0  0  0  0  0  0  0
   62.7830   33.7280   48.8270 C   0  0  0  0  0  0  0  0  0  0  0  0
   62.4770   33.0960   47.5190 N   0  0  1  0  0  0  0  0  0  0  0  0
   63.1030   33.8230   46.3950 C   0  0  0  0  0  0  0  0  0  0  0  0
   62.8330   31.6540   47.5030 C   0  0  0  0  0  0  0  0  0  0  0  0
   61.7080   30.7120   47.9800 C   0  0  0  0  0  0  0  0  0  0  0  0
   60.4500   31.3880   47.9710 O   0  0  0  0  0  0  0  0  0  0  0  0
   59.4540   31.3350   46.9750 C   0  0  0  0  0  0  0  0  0  0  0  0
   59.0730   32.5600   46.3990 C   0  0  0  0  0  0  0  0  0  0  0  0
   59.6980   33.7310   46.8570 O   0  0  0  0  0  0  0  0  0  0  0  0
   59.6070   34.9990   46.2170 C   0  0  0  0  0  0  0  0  0  0  0  0
   58.0960   32.5880   45.3890 C   0  0  0  0  0  0  0  0  0  0  0  0
   57.4940   31.4110   44.9530 C   0  0  0  0  0  0  0  0  0  0  0  0
   57.8470   30.1800   45.5260 C   0  0  0  0  0  0  0  0  0  0  0  0
   57.2400   28.9760   45.1210 C   0  0  0  0  0  0  0  0  0  0  0  0
   56.3450   28.9830   44.2310 O   0  0  0  0  0  0  0  0  0  0  0  0
   57.6200   27.7680   45.7320 C   0  0  0  0  0  0  0  0  0  0  0  0
   57.0290   26.4650   45.3370 C   0  0  0  0  0  0  0  0  0  0  0  0
   57.6020   25.7120   44.2950 C   0  0  0  0  0  0  0  0  0  0  0  0
   57.0410   24.4890   43.9160 C   0  0  0  0  0  0  0  0  0  0  0  0
   55.9030   24.0070   44.5680 C   0  0  0  0  0  0  0  0  0  0  0  0
   55.3480   22.7910   44.1900 O   0  0  0  0  0  0  0  0  0  0  0  0
   55.3230   24.7490   45.5990 C   0  0  0  0  0  0  0  0  0  0  0  0
   55.8800   25.9740   45.9820 C   0  0  0  0  0  0  0  0  0  0  0  0
   58.5850   27.8210   46.7470 C   0  0  0  0  0  0  0  0  0  0  0  0
   59.1360   28.9730   47.1060 O   0  0  0  0  0  0  0  0  0  0  0  0
   58.8260   30.1380   46.5480 C   0  0  0  0  0  0  0  0  0  0  0  0
   63.9750   33.2061   50.5569 H   0  0  0  0  0  0  0  0  0  0  0  0
   64.2040   32.1254   49.1404 H   0  0  0  0  0  0  0  0  0  0  0  0
   64.9245   33.7708   49.1404 H   0  0  0  0  0  0  0  0  0  0  0  0
   61.9412   33.5483   49.5119 H   0  0  0  0  0  0  0  0  0  0  0  0
   62.9377   34.8030   48.6524 H   0  0  0  0  0  0  0  0  0  0  0  0
   61.4410   33.1360   47.3710 H   0  0  0  0  0  0  0  0  0  0  0  0
   63.7730   34.6011   46.7894 H   0  0  0  0  0  0  0  0  0  0  0  0
   63.6816   33.1185   45.7795 H   0  0  0  0  0  0  0  0  0  0  0  0
   62.3204   34.2906   45.7795 H   0  0  0  0  0  0  0  0  0  0  0  0
   63.0989   31.3772   46.4722 H   0  0  0  0  0  0  0  0  0  0  0  0
   63.6662   31.5296   48.2103 H   0  0  0  0  0  0  0  0  0  0  0  0
   61.6559   29.8420   47.3089 H   0  0  0  0  0  0  0  0  0  0  0  0
   61.9290   30.3868   49.0073 H   0  0  0  0  0  0  0  0  0  0  0  0
   59.5502   35.7908   46.9784 H   0  0  0  0  0  0  0  0  0  0  0  0
   60.4961   35.1574   45.5890 H   0  0  0  0  0  0  0  0  0  0  0  0
   58.7044   35.0288   45.5890 H   0  0  0  0  0  0  0  0  0  0  0  0
   57.8045   33.5485   44.9391 H   0  0  0  0  0  0  0  0  0  0  0  0
   56.7376   31.4463   44.1551 H   0  0  0  0  0  0  0  0  0  0  0  0
   58.4961   26.0879   43.7761 H   0  0  0  0  0  0  0  0  0  0  0  0
   57.4964   23.9048   43.1028 H   0  0  0  0  0  0  0  0  0  0  0  0
   54.4264   24.3696   46.1111 H   0  0  0  0  0  0  0  0  0  0  0  0
   55.4166   26.5562   46.7921 H   0  0  0  0  0  0  0  0  0  0  0  0
   58.8900   26.8934   47.2535 H   0  0  0  0  0  0  0  0  0  0  0  0
  1  2  1  0
  2  3  1  0
  3  4  1  0
  3  5  1  0
  5  6  1  0
  6  7  1  0
  7  8  1  0
  8  9  2  0
  9 10  1  0
 10 11  1  0
  9 12  1  0
 12 13  2  0
 13 14  1  0
 14 15  1  0
 15 16  2  0
 15 17  1  0
 17 18  1  0
 18 19  2  0
 19 20  1  0
 20 21  2  0
 21 22  1  0
 21 23  1  0
 23 24  2  0
 17 25  2  0
 25 26  1  0
 26 27  1  0
 27  8  1  0
 27 14  2  0
 24 18  1  0
  1 28  1  0
  1 29  1  0
  1 30  1  0
  2 31  1  0
  2 32  1  0
  3 33  1  6
  4 34  1  0
  4 35  1  0
  4 36  1  0
  5 37  1  0
  5 38  1  0
  6 39  1  0
  6 40  1  0
 11 41  1  0
 11 42  1  0
 11 43  1  0
 12 44  1  0
 13 45  1  0
 19 46  1  0
 20 47  1  0
 23 48  1  0
 24 49  1  0
 25 50  1  0
M  CHG  2   3   1  22  -1
M  END
>  <UniqueID>  (16) 
16

>  <SMILES>  (16) 
CC[N@@H+](C)CCOc1c(OC)ccc2c(=O)c(-c3ccc([O-])cc3)coc12

>  <Energy>  (16) 
67.76475381276157

>  <Genealogy>  (16) 
CC[NH+](C)CCOc1c(OC)ccc2c(=O)c(-c3ccc([O-])cc3)coc12 (protonated)
CC[N@@H+](C)CCOc1c(OC)ccc2c(=O)c(-c3ccc([O-])cc3)coc12 (chirality)
CC[N@@H+](C)CCOc1c(OC)ccc2c(=O)c(-c3ccc([O-])cc3)coc12 (3D coordinates assigned)
CC[N@@H+](C)CCOc1c(OC)ccc2c(=O)c(-c3ccc([O-])cc3)coc12 (optimized conformer: 67.76475381276157 kcal/mol)

>  <smiles>  (16) 
CCN(C)CCOc1c(OC)ccc2c(=O)c(-c3ccc(O)cc3)coc12

>  <score_type>  (16) 
oracle

>  <origin>  (16) 
adg

>  <m_score__min__energy>  (16) 
-7.0700000000000003

>  <m_primary>  (16) 
energy

$$$$
16:0
     RDKit          3D

 23 23  0  0  0  0  0  0  0  0999 V2000
   58.8400   30.2560   43.8410 O   0  0  0  0  0  0  0  0  0  0  0  0
   57.8930   30.3340   44.6720 C   0  0  0  0  0  0  0  0  0  0  0  0
   57.1140   29.1000   44.9830 C   0  0  0  0  0  0  0  0  0  0  0  0
   55.8730   29.1790   45.1870 O   0  0  0  0  0  0  0  0  0  0  0  0
   57.7860   27.7480   45.0720 C   0  0  0  0  0  0  0  0  0  0  0  0
   56.6610   26.4900   46.0310 Br  0  0  0  0  0  0  0  0  0  0  0  0
   58.1510   27.0580   43.2960 Br  0  0  0  0  0  0  0  0  0  0  0  0
   59.4840   27.8410   46.0190 Br  0  0  0  0  0  0  0  0  0  0  0  0
   57.6140   31.6210   45.2860 N   0  0  0  0  0  0  0  0  0  0  0  0
   58.4830   31.8810   46.4500 C   0  0  0  0  0  0  0  0  0  0  0  0
   58.0980   33.2220   47.1220 C   0  0  0  0  0  0  0  0  0  0  0  0
   57.2400   34.0160   46.3180 O   0  0  0  0  0  0  0  0  0  0  0  0
   57.7480   34.0970   45.0020 C   0  0  0  0  0  0  0  0  0  0  0  0
   57.6650   32.7260   44.3010 C   0  0  0  0  0  0  0  0  0  0  0  0
   56.6310   31.5820   45.6510 H   0  0  0  0  0  0  0  0  0  0  0  0
   58.3677   31.0645   47.1780 H   0  0  0  0  0  0  0  0  0  0  0  0
   59.5274   31.9392   46.1097 H   0  0  0  0  0  0  0  0  0  0  0  0
   57.5874   33.0048   48.0718 H   0  0  0  0  0  0  0  0  0  0  0  0
   59.0260   33.7919   47.2772 H   0  0  0  0  0  0  0  0  0  0  0  0
   57.1589   34.8304   44.4319 H   0  0  0  0  0  0  0  0  0  0  0  0
   58.8022   34.4077   45.0481 H   0  0  0  0  0  0  0  0  0  0  0  0
   56.7574   32.6951   43.6803 H   0  0  0  0  0  0  0  0  0  0  0  0
   58.5645   32.5977   43.6810 H   0  0  0  0  0  0  0  0  0  0  0  0
  1  2  2  0
  2  3  1  0
  3  4  2  0
  3  5  1  0
  5  6  1  0
  5  7  1  0
  5  8  1  0
  2  9  1  0
  9 10  1  0
 10 11  1  0
 11 12  1  0
 12 13  1  0
 13 14  1  0
 14  9  1  0
  9 15  1  0
 10 16  1  0
 10 17  1  0
 11 18  1  0
 11 19  1  0
 13 20  1  0
 13 21  1  0
 14 22  1  0
 14 23  1  0
M  CHG  1   9   1
M  END
>  <UniqueID>  (17) 
17

>  <SMILES>  (17) 
O=C(C(=O)C(Br)(Br)Br)[NH+]1CCOCC1

>  <Energy>  (17) 
34.422060049344495

>  <Genealogy>  (17) 
O=C(C(=O)C(Br)(Br)Br)[NH+]1CCOCC1 (protonated)
O=C(C(=O)C(Br)(Br)Br)[NH+]1CCOCC1 (3D coordinates assigned)
O=C(C(=O)C(Br)(Br)Br)[NH+]1CCOCC1 (nonaromatic ring conformer: 34.422060049344495 kcal/mol)

>  <smiles>  (17) 
O=C(C(=O)C(Br)(Br)Br)N1CCOCC1

>  <score_type>  (17) 
oracle

>  <origin>  (17) 
adg

>  <m_score__min__energy>  (17) 
-4.5099999999999998

>  <m_primary>  (17) 
energy

$$$$
17:0
     RDKit          3D

 65 67  0  0  0  0  0  0  0  0999 V2000
   57.0110   31.2990   51.6190 C   0  0  0  0  0  0  0  0  0  0  0  0
   57.8290   32.2180   50.7120 C   0  0  0  0  0  0  0  0  0  0  0  0
   59.2660   31.8690   50.7460 N   0  0  0  0  0  0  0  0  0  0  0  0
   60.0750   32.6840   51.6770 C   0  0  0  0  0  0  0  0  0  0  0  0
   59.3100   33.8490   52.3090 C   0  0  0  0  0  0  0  0  0  0  0  0
   59.6310   30.4330   50.6610 C   0  0  0  0  0  0  0  0  0  0  0  0
   59.8210   29.8860   49.2300 C   0  0  0  0  0  0  0  0  0  0  0  0
   60.2430   30.9370   48.2780 N   0  0  0  0  0  0  0  0  0  0  0  0
   59.4760   30.8910   47.0350 C   0  0  0  0  0  0  0  0  0  0  0  0
   59.3830   29.6460   46.3360 C   0  0  0  0  0  0  0  0  0  0  0  0
   60.0410   28.4700   46.7960 C   0  0  0  0  0  0  0  0  0  0  0  0
   59.9730   27.2750   46.0860 C   0  0  0  0  0  0  0  0  0  0  0  0
   59.2640   27.2100   44.8990 C   0  0  0  0  0  0  0  0  0  0  0  0
   58.5970   28.3330   44.4270 C   0  0  0  0  0  0  0  0  0  0  0  0
   58.6140   29.5580   45.1460 C   0  0  0  0  0  0  0  0  0  0  0  0
   57.9180   30.6510   44.6920 N   0  0  0  0  0  0  0  0  0  0  0  0
   56.8640   30.4770   43.6650 C   0  0  0  0  0  0  0  0  0  0  0  0
   58.1860   31.9030   45.1970 C   0  0  0  0  0  0  0  0  0  0  0  0
   57.7940   33.0510   44.4690 C   0  0  0  0  0  0  0  0  0  0  0  0
   57.9730   34.3220   44.9750 C   0  0  0  0  0  0  0  0  0  0  0  0
   58.5090   34.4920   46.2340 C   0  0  0  0  0  0  0  0  0  0  0  0
   58.9390   33.3940   47.0010 C   0  0  0  0  0  0  0  0  0  0  0  0
   59.3880   33.6320   48.3110 O   0  0  0  0  0  0  0  0  0  0  0  0
   60.4070   34.5630   48.6820 C   0  0  0  0  0  0  0  0  0  0  0  0
   61.6970   33.8280   49.0600 C   0  0  0  0  0  0  0  0  0  0  0  0
   62.0820   32.8270   48.0400 N   0  0  0  0  0  0  0  0  0  0  0  0
   63.2970   32.1150   48.4740 C   0  0  0  0  0  0  0  0  0  0  0  0
   62.3260   33.4620   46.7320 C   0  0  0  0  0  0  0  0  0  0  0  0
   58.8760   32.0630   46.4440 C   0  0  0  0  0  0  0  0  0  0  0  0
   57.2239   31.5382   52.6713 H   0  0  0  0  0  0  0  0  0  0  0  0
   55.9393   31.4459   51.4192 H   0  0  0  0  0  0  0  0  0  0  0  0
   57.2811   30.2516   51.4192 H   0  0  0  0  0  0  0  0  0  0  0  0
   57.4615   32.1217   49.6797 H   0  0  0  0  0  0  0  0  0  0  0  0
   57.7147   33.2512   51.0719 H   0  0  0  0  0  0  0  0  0  0  0  0
   60.4378   32.0301   52.4837 H   0  0  0  0  0  0  0  0  0  0  0  0
   60.8935   33.1228   51.0875 H   0  0  0  0  0  0  0  0  0  0  0  0
   59.3618   33.7701   53.4049 H   0  0  0  0  0  0  0  0  0  0  0  0
   59.7599   34.8001   51.9882 H   0  0  0  0  0  0  0  0  0  0  0  0
   58.2584   33.8142   51.9882 H   0  0  0  0  0  0  0  0  0  0  0  0
   60.5742   30.2888   51.2083 H   0  0  0  0  0  0  0  0  0  0  0  0
   58.7842   29.8772   51.0900 H   0  0  0  0  0  0  0  0  0  0  0  0
   60.5892   29.0990   49.2513 H   0  0  0  0  0  0  0  0  0  0  0  0
   58.8520   29.4927   48.8889 H   0  0  0  0  0  0  0  0  0  0  0  0
   61.2540   30.8090   48.0570 H   0  0  0  0  0  0  0  0  0  0  0  0
   60.2830   31.8630   48.7330 H   0  0  0  0  0  0  0  0  0  0  0  0
   60.6157   28.5069   47.7332 H   0  0  0  0  0  0  0  0  0  0  0  0
   60.4842   26.3795   46.4692 H   0  0  0  0  0  0  0  0  0  0  0  0
   59.2289   26.2694   44.3298 H   0  0  0  0  0  0  0  0  0  0  0  0
   58.0446   28.2727   43.4776 H   0  0  0  0  0  0  0  0  0  0  0  0
   55.8940   30.3169   44.1585 H   0  0  0  0  0  0  0  0  0  0  0  0
   56.8115   31.3786   43.0371 H   0  0  0  0  0  0  0  0  0  0  0  0
   57.1041   29.6063   43.0371 H   0  0  0  0  0  0  0  0  0  0  0  0
   57.3359   32.9274   43.4766 H   0  0  0  0  0  0  0  0  0  0  0  0
   57.6884   35.1987   44.3747 H   0  0  0  0  0  0  0  0  0  0  0  0
   58.6023   35.5072   46.6471 H   0  0  0  0  0  0  0  0  0  0  0  0
   60.6087   35.2349   47.8347 H   0  0  0  0  0  0  0  0  0  0  0  0
   60.0601   35.1407   49.5514 H   0  0  0  0  0  0  0  0  0  0  0  0
   62.5088   34.5635   49.1604 H   0  0  0  0  0  0  0  0  0  0  0  0
   61.5218   33.2982   50.0079 H   0  0  0  0  0  0  0  0  0  0  0  0
   63.3358   32.0923   49.5731 H   0  0  0  0  0  0  0  0  0  0  0  0
   63.2770   31.0857   48.0864 H   0  0  0  0  0  0  0  0  0  0  0  0
   64.1852   32.6355   48.0864 H   0  0  0  0  0  0  0  0  0  0  0  0
   62.7167   34.4788   46.8852 H   0  0  0  0  0  0  0  0  0  0  0  0
   63.0601   32.8683   46.1674 H   0  0  0  0  0  0  0  0  0  0  0  0
   61.3833   33.5126   46.1674 H   0  0  0  0  0  0  0  0  0  0  0  0
  1  2  1  0
  2  3  1  0
  3  4  1  0
  4  5  1  0
  3  6  1  0
  6  7  1  0
  7  8  1  0
  8  9  1  0
  9 10  2  0
 10 11  1  0
 11 12  2  0
 12 13  1  0
 13 14  2  0
 14 15  1  0
 15 16  2  0
 16 17  1  0
 16 18  1  0
 18 19  2  0
 19 20  1  0
 20 21  2  0
 21 22  1  0
 22 23  1  0
 23 24  1  0
 24 25  1  0
 25 26  1  0
 26 27  1  0
 26 28  1  0
 22 29  2  0
 29  9  1  0
 15 10  1  0
 29 18  1  0
  1 30  1  0
  1 31  1  0
  1 32  1  0
  2 33  1  0
  2 34  1  0
  4 35  1  0
  4 36  1  0
  5 37  1  0
  5 38  1  0
  5 39  1  0
  6 40  1  0
  6 41  1  0
  7 42  1  0
  7 43  1  0
  8 44  1  0
  8 45  1  0
 11 46  1  0
 12 47  1  0
 13 48  1  0
 14 49  1  0
 17 50  1  0
 17 51  1  0
 17 52  1  0
 19 53  1  0
 20 54  1  0
 21 55  1  0
 24 56  1  0
 24 57  1  0
 25 58  1  0
 25 59  1  0
 27 60  1  0
 27 61  1  0
 27 62  1  0
 28 63  1  0
 28 64  1  0
 28 65  1  0
M  CHG  2   8   1  16   1
M  END
>  <UniqueID>  (18) 
18

>  <SMILES>  (18) 
CCN(CC)CC[NH2+]c1c2ccccc2[n+](C)c2cccc(OCCN(C)C)c12

>  <Energy>  (18) 
106.8694665293989

>  <Genealogy>  (18) 
CCN(CC)CC[NH2+]c1c2ccccc2[n+](C)c2cccc(OCCN(C)C)c12 (protonated)
CCN(CC)CC[NH2+]c1c2ccccc2[n+](C)c2cccc(OCCN(C)C)c12 (3D coordinates assigned)
CCN(CC)CC[NH2+]c1c2ccccc2[n+](C)c2cccc(OCCN(C)C)c12 (optimized conformer: 106.8694665293989 kcal/mol)

>  <smiles>  (18) 
CCN(CC)CCNc1c2ccccc2[n+](C)c2cccc(OCCN(C)C)c12

>  <score_type>  (18) 
oracle

>  <origin>  (18) 
adg

>  <m_score__min__energy>  (18) 
-3.3300000000000001

>  <m_primary>  (18) 
energy

$$$$
18:0
     RDKit          3D

 46 47  0  0  0  0  0  0  0  0999 V2000
   57.0140   31.2290   43.2730 C   0  0  0  0  0  0  0  0  0  0  0  0
   56.8060   30.4590   44.5130 N   0  0  0  0  0  0  0  0  0  0  0  0
   55.5010   29.7820   44.4510 C   0  0  0  0  0  0  0  0  0  0  0  0
   57.8920   29.4740   44.7160 C   0  0  0  0  0  0  0  0  0  0  0  0
   58.2010   29.3220   46.2130 C   0  0  0  0  0  0  0  0  0  0  0  0
   58.8660   30.5710   46.8140 C   0  0  0  0  0  0  0  0  0  0  0  0
   57.9160   31.6850   46.9700 N   0  0  0  0  0  0  0  0  0  0  0  0
   58.5320   32.9210   46.5440 C   0  0  0  0  0  0  0  0  0  0  0  0
   58.5260   33.2720   45.1810 C   0  0  0  0  0  0  0  0  0  0  0  0
   59.0790   34.4810   44.7570 C   0  0  0  0  0  0  0  0  0  0  0  0
   59.6370   35.3570   45.6860 C   0  0  0  0  0  0  0  0  0  0  0  0
   59.6380   35.0330   47.0450 C   0  0  0  0  0  0  0  0  0  0  0  0
   59.0800   33.8170   47.4890 C   0  0  0  0  0  0  0  0  0  0  0  0
   59.0490   33.4650   48.8500 O   0  0  0  0  0  0  0  0  0  0  0  0
   60.1190   32.8580   49.5740 C   0  0  0  0  0  0  0  0  0  0  0  0
   61.3660   32.8110   48.7330 C   0  0  0  0  0  0  0  0  0  0  0  0
   62.2470   33.9060   48.7230 C   0  0  0  0  0  0  0  0  0  0  0  0
   63.4060   33.8710   47.9420 C   0  0  0  0  0  0  0  0  0  0  0  0
   63.6970   32.7410   47.1710 C   0  0  0  0  0  0  0  0  0  0  0  0
   62.8310   31.6440   47.1840 C   0  0  0  0  0  0  0  0  0  0  0  0
   61.6720   31.6750   47.9640 C   0  0  0  0  0  0  0  0  0  0  0  0
   57.2932   32.2625   43.5257 H   0  0  0  0  0  0  0  0  0  0  0  0
   57.8191   30.7652   42.6841 H   0  0  0  0  0  0  0  0  0  0  0  0
   56.0849   31.2337   42.6841 H   0  0  0  0  0  0  0  0  0  0  0  0
   55.1370   29.5932   45.4717 H   0  0  0  0  0  0  0  0  0  0  0  0
   54.7816   30.4206   43.9175 H   0  0  0  0  0  0  0  0  0  0  0  0
   55.6088   28.8261   43.9175 H   0  0  0  0  0  0  0  0  0  0  0  0
   57.5799   28.5008   44.3093 H   0  0  0  0  0  0  0  0  0  0  0  0
   58.7961   29.8265   44.1980 H   0  0  0  0  0  0  0  0  0  0  0  0
   57.2591   29.1331   46.7488 H   0  0  0  0  0  0  0  0  0  0  0  0
   58.9074   28.4859   46.3221 H   0  0  0  0  0  0  0  0  0  0  0  0
   59.2759   30.3137   47.8018 H   0  0  0  0  0  0  0  0  0  0  0  0
   59.6589   30.8968   46.1247 H   0  0  0  0  0  0  0  0  0  0  0  0
   57.0500   31.5070   46.4090 H   0  0  0  0  0  0  0  0  0  0  0  0
   57.6320   31.7710   47.9730 H   0  0  0  0  0  0  0  0  0  0  0  0
   58.0815   32.5874   44.4436 H   0  0  0  0  0  0  0  0  0  0  0  0
   59.0744   34.7427   43.6886 H   0  0  0  0  0  0  0  0  0  0  0  0
   60.0780   36.3065   45.3483 H   0  0  0  0  0  0  0  0  0  0  0  0
   60.0769   35.7311   47.7730 H   0  0  0  0  0  0  0  0  0  0  0  0
   60.3181   33.4433   50.4838 H   0  0  0  0  0  0  0  0  0  0  0  0
   59.8304   31.8302   49.8392 H   0  0  0  0  0  0  0  0  0  0  0  0
   62.0237   34.7942   49.3322 H   0  0  0  0  0  0  0  0  0  0  0  0
   64.0895   34.7328   47.9339 H   0  0  0  0  0  0  0  0  0  0  0  0
   64.6075   32.7156   46.5543 H   0  0  0  0  0  0  0  0  0  0  0  0
   63.0622   30.7547   46.5792 H   0  0  0  0  0  0  0  0  0  0  0  0
   60.9965   30.8069   47.9762 H   0  0  0  0  0  0  0  0  0  0  0  0
  1  2  1  0
  2  3  1  0
  2  4  1  0
  4  5  1  0
  5  6  1  0
  6  7  1  0
  7  8  1  0
  8  9  2  0
  9 10  1  0
 10 11  2  0
 11 12  1  0
 12 13  2  0
 13 14  1  0
 14 15  1  0
 15 16  1  0
 16 17  2  0
 17 18  1  0
 18 19  2  0
 19 20  1  0
 20 21  2  0
 13  8  1  0
 21 16  1  0
  1 22  1  0
  1 23  1  0
  1 24  1  0
  3 25  1  0
  3 26  1  0
  3 27  1  0
  4 28  1  0
  4 29  1  0
  5 30  1  0
  5 31  1  0
  6 32  1  0
  6 33  1  0
  7 34  1  0
  7 35  1  0
  9 36  1  0
 10 37  1  0
 11 38  1  0
 12 39  1  0
 15 40  1  0
 15 41  1  0
 17 42  1  0
 18 43  1  0
 19 44  1  0
 20 45  1  0
 21 46  1  0
M  CHG  1   7   1
M  END
>  <UniqueID>  (19) 
19

>  <SMILES>  (19) 
CN(C)CCC[NH2+]c1ccccc1OCc1ccccc1

>  <Energy>  (19) 
43.862582610521066

>  <Genealogy>  (19) 
CN(C)CCC[NH2+]c1ccccc1OCc1ccccc1 (protonated)
CN(C)CCC[NH2+]c1ccccc1OCc1ccccc1 (3D coordinates assigned)
CN(C)CCC[NH2+]c1ccccc1OCc1ccccc1 (optimized conformer: 43.862582610521066 kcal/mol)

>  <smiles>  (19) 
CN(C)CCCNc1ccccc1OCc1ccccc1

>  <score_type>  (19) 
oracle

>  <origin>  (19) 
adg

>  <m_score__min__energy>  (19) 
-5.0300000000000002

>  <m_primary>  (19) 
energy

$$$$
19:0
     RDKit          3D

 51 54  0  0  0  0  0  0  0  0999 V2000
   61.8540   29.8190   50.3740 C   0  0  0  0  0  0  0  0  0  0  0  0
   61.4620   30.5640   49.2260 O   0  0  0  0  0  0  0  0  0  0  0  0
   62.1710   31.6620   48.7080 C   0  0  0  0  0  0  0  0  0  0  0  0
   62.9260   31.5690   47.5210 C   0  0  0  0  0  0  0  0  0  0  0  0
   63.5830   32.6920   47.0120 C   0  0  0  0  0  0  0  0  0  0  0  0
   63.4950   33.9170   47.6750 C   0  0  0  0  0  0  0  0  0  0  0  0
   62.7650   34.0190   48.8610 C   0  0  0  0  0  0  0  0  0  0  0  0
   62.1140   32.8940   49.3960 C   0  0  0  0  0  0  0  0  0  0  0  0
   61.3090   33.0280   50.6640 C   0  0  0  0  0  0  0  0  0  0  0  0
   59.9030   33.3200   50.3430 N   0  0  0  0  0  0  0  0  0  0  0  0
   58.9060   33.4880   51.4110 C   0  0  0  0  0  0  0  0  0  0  0  0
   58.2550   32.1680   51.7340 C   0  0  0  0  0  0  0  0  0  0  0  0
   59.0310   30.9990   51.8090 C   0  0  0  0  0  0  0  0  0  0  0  0
   58.4320   29.7750   52.1320 C   0  0  0  0  0  0  0  0  0  0  0  0
   57.0550   29.7150   52.3900 C   0  0  0  0  0  0  0  0  0  0  0  0
   56.2790   30.8790   52.3300 C   0  0  0  0  0  0  0  0  0  0  0  0
   56.8760   32.1020   52.0070 C   0  0  0  0  0  0  0  0  0  0  0  0
   59.5170   33.4990   48.9680 C   0  0  0  0  0  0  0  0  0  0  0  0
   59.6360   34.7650   48.3830 C   0  0  0  0  0  0  0  0  0  0  0  0
   59.2740   34.9710   47.0560 C   0  0  0  0  0  0  0  0  0  0  0  0
   58.7790   33.9100   46.2880 C   0  0  0  0  0  0  0  0  0  0  0  0
   58.4100   34.1320   44.9520 C   0  0  0  0  0  0  0  0  0  0  0  0
   57.9090   33.0840   44.1770 C   0  0  0  0  0  0  0  0  0  0  0  0
   57.7660   31.8100   44.7280 C   0  0  0  0  0  0  0  0  0  0  0  0
   58.1280   31.5710   46.0570 C   0  0  0  0  0  0  0  0  0  0  0  0
   58.6500   32.6110   46.8600 C   0  0  0  0  0  0  0  0  0  0  0  0
   59.0430   32.4100   48.2110 C   0  0  0  0  0  0  0  0  0  0  0  0
   59.0050   31.1570   48.8310 O   0  0  0  0  0  0  0  0  0  0  0  0
   61.5655   30.3672   51.2830 H   0  0  0  0  0  0  0  0  0  0  0  0
   61.3549   28.8388   50.3630 H   0  0  0  0  0  0  0  0  0  0  0  0
   62.9445   29.6753   50.3630 H   0  0  0  0  0  0  0  0  0  0  0  0
   62.9982   30.6069   46.9927 H   0  0  0  0  0  0  0  0  0  0  0  0
   64.1713   32.6105   46.0861 H   0  0  0  0  0  0  0  0  0  0  0  0
   64.0010   34.8026   47.2630 H   0  0  0  0  0  0  0  0  0  0  0  0
   62.6990   34.9865   49.3802 H   0  0  0  0  0  0  0  0  0  0  0  0
   61.3647   32.0872   51.2312 H   0  0  0  0  0  0  0  0  0  0  0  0
   61.7194   33.8528   51.2650 H   0  0  0  0  0  0  0  0  0  0  0  0
   59.4022   33.8775   52.3121 H   0  0  0  0  0  0  0  0  0  0  0  0
   58.1334   34.1931   51.0703 H   0  0  0  0  0  0  0  0  0  0  0  0
   60.1125   31.0454   51.6134 H   0  0  0  0  0  0  0  0  0  0  0  0
   59.0416   28.8608   52.1833 H   0  0  0  0  0  0  0  0  0  0  0  0
   56.5841   28.7528   52.6397 H   0  0  0  0  0  0  0  0  0  0  0  0
   55.1997   30.8316   52.5369 H   0  0  0  0  0  0  0  0  0  0  0  0
   56.2652   33.0159   51.9662 H   0  0  0  0  0  0  0  0  0  0  0  0
   60.0199   35.6060   48.9791 H   0  0  0  0  0  0  0  0  0  0  0  0
   59.3769   35.9706   46.6084 H   0  0  0  0  0  0  0  0  0  0  0  0
   58.5159   35.1354   44.5139 H   0  0  0  0  0  0  0  0  0  0  0  0
   57.6263   33.2633   43.1292 H   0  0  0  0  0  0  0  0  0  0  0  0
   57.3665   30.9897   44.1136 H   0  0  0  0  0  0  0  0  0  0  0  0
   58.0055   30.5639   46.4821 H   0  0  0  0  0  0  0  0  0  0  0  0
   59.8180   30.6380   49.1320 H   0  0  0  0  0  0  0  0  0  0  0  0
  1  2  1  0
  2  3  1  0
  3  4  2  0
  4  5  1  0
  5  6  2  0
  6  7  1  0
  7  8  2  0
  8  9  1  0
  9 10  1  0
 10 11  1  0
 11 12  1  0
 12 13  2  0
 13 14  1  0
 14 15  2  0
 15 16  1  0
 16 17  2  0
 10 18  1  0
 18 19  2  0
 19 20  1  0
 20 21  2  0
 21 22  1  0
 22 23  2  0
 23 24  1  0
 24 25  2  0
 25 26  1  0
 26 27  2  0
 27 28  1  0
  8  3  1  0
 17 12  1  0
 27 18  1  0
 26 21  1  0
  1 29  1  0
  1 30  1  0
  1 31  1  0
  4 32  1  0
  5 33  1  0
  6 34  1  0
  7 35  1  0
  9 36  1  0
  9 37  1  0
 11 38  1  0
 11 39  1  0
 13 40  1  0
 14 41  1  0
 15 42  1  0
 16 43  1  0
 17 44  1  0
 19 45  1  0
 20 46  1  0
 22 47  1  0
 23 48  1  0
 24 49  1  0
 25 50  1  0
 28 51  1  0
M  END
>  <UniqueID>  (20) 
20

>  <SMILES>  (20) 
COc1ccccc1CN(Cc1ccccc1)c1ccc2ccccc2c1O

>  <Energy>  (20) 
62.25674392354172

>  <Genealogy>  (20) 
COc1ccccc1CN(Cc1ccccc1)c1ccc2ccccc2c1O (3D coordinates assigned)
COc1ccccc1CN(Cc1ccccc1)c1ccc2ccccc2c1O (optimized conformer: 62.25674392354172 kcal/mol)

>  <smiles>  (20) 
COc1ccccc1CN(Cc1ccccc1)c1ccc2ccccc2c1O

>  <score_type>  (20) 
oracle

>  <origin>  (20) 
adg

>  <m_score__min__energy>  (20) 
-7.8700000000000001

>  <m_primary>  (20) 
energy

$$$$
20:0
     RDKit          3D

 55 56  0  0  0  0  0  0  0  0999 V2000
   63.0700   33.8440   46.3960 C   0  0  0  0  0  0  0  0  0  0  0  0
   63.6980   32.8050   47.3390 C   0  0  0  0  0  0  0  0  0  0  0  0
   63.1790   32.7990   48.7400 N   0  0  2  0  0  0  0  0  0  0  0  0
   64.1390   33.2440   49.7690 C   0  0  0  0  0  0  0  0  0  0  0  0
   62.4640   31.5500   49.1150 C   0  0  0  0  0  0  0  0  0  0  0  0
   60.9230   31.6470   49.1630 C   0  0  0  0  0  0  0  0  0  0  0  0
   60.4230   32.8160   48.4030 N   0  0  0  0  0  0  0  0  0  0  0  0
   59.3320   33.4980   49.1300 C   0  0  0  0  0  0  0  0  0  0  0  0
   60.1010   32.4860   46.9840 C   0  0  1  0  0  0  0  0  0  0  0  0
   60.2090   30.9700   46.6380 C   0  0  0  0  0  0  0  0  0  0  0  0
   58.8450   30.2910   46.4610 C   0  0  0  0  0  0  0  0  0  0  0  0
   58.0170   31.0190   45.4850 N   0  0  0  0  0  0  0  0  0  0  0  0
   57.0470   30.3240   44.6750 C   0  0  0  0  0  0  0  0  0  0  0  0
   55.8750   30.7820   44.5810 O   0  0  0  0  0  0  0  0  0  0  0  0
   57.4150   29.0880   43.8940 C   0  0  0  0  0  0  0  0  0  0  0  0
   57.7460   27.9390   44.8120 C   0  0  0  0  0  0  0  0  0  0  0  0
   59.0680   27.4740   44.9100 C   0  0  0  0  0  0  0  0  0  0  0  0
   59.3830   26.4280   45.7840 C   0  0  0  0  0  0  0  0  0  0  0  0
   58.3840   25.8470   46.5700 C   0  0  0  0  0  0  0  0  0  0  0  0
   57.0690   26.3130   46.4860 C   0  0  0  0  0  0  0  0  0  0  0  0
   56.7500   27.3590   45.6150 C   0  0  0  0  0  0  0  0  0  0  0  0
   58.1890   32.4690   45.3080 C   0  0  0  0  0  0  0  0  0  0  0  0
   58.7450   33.1100   46.5820 C   0  0  2  0  0  0  0  0  0  0  0  0
   58.9000   34.4720   46.3810 F   0  0  0  0  0  0  0  0  0  0  0  0
   62.5911   34.6363   46.9901 H   0  0  0  0  0  0  0  0  0  0  0  0
   63.8534   34.2842   45.7616 H   0  0  0  0  0  0  0  0  0  0  0  0
   62.3161   33.3550   45.7616 H   0  0  0  0  0  0  0  0  0  0  0  0
   63.5200   31.8083   46.9091 H   0  0  0  0  0  0  0  0  0  0  0  0
   64.7612   33.0764   47.4160 H   0  0  0  0  0  0  0  0  0  0  0  0
   62.4280   33.5310   48.7550 H   0  0  0  0  0  0  0  0  0  0  0  0
   63.7215   33.0505   50.7681 H   0  0  0  0  0  0  0  0  0  0  0  0
   65.0832   32.6917   49.6529 H   0  0  0  0  0  0  0  0  0  0  0  0
   64.3278   34.3214   49.6529 H   0  0  0  0  0  0  0  0  0  0  0  0
   62.7308   30.7749   48.3815 H   0  0  0  0  0  0  0  0  0  0  0  0
   62.7814   31.3208   50.1430 H   0  0  0  0  0  0  0  0  0  0  0  0
   60.4946   30.7309   48.7303 H   0  0  0  0  0  0  0  0  0  0  0  0
   60.6198   31.7663   50.2136 H   0  0  0  0  0  0  0  0  0  0  0  0
   59.4939   33.3968   50.2133 H   0  0  0  0  0  0  0  0  0  0  0  0
   59.3211   34.5640   48.8589 H   0  0  0  0  0  0  0  0  0  0  0  0
   58.3689   33.0408   48.8589 H   0  0  0  0  0  0  0  0  0  0  0  0
   60.8842   32.9460   46.3636 H   0  0  0  0  0  0  0  0  0  0  0  0
   60.7758   30.8649   45.7012 H   0  0  0  0  0  0  0  0  0  0  0  0
   60.7118   30.4772   47.4832 H   0  0  0  0  0  0  0  0  0  0  0  0
   58.9989   29.2615   46.1055 H   0  0  0  0  0  0  0  0  0  0  0  0
   58.3252   30.2897   47.4304 H   0  0  0  0  0  0  0  0  0  0  0  0
   56.5670   28.8027   43.2541 H   0  0  0  0  0  0  0  0  0  0  0  0
   58.3031   29.3133   43.2853 H   0  0  0  0  0  0  0  0  0  0  0  0
   59.8578   27.9337   44.2977 H   0  0  0  0  0  0  0  0  0  0  0  0
   60.4182   26.0624   45.8527 H   0  0  0  0  0  0  0  0  0  0  0  0
   58.6327   25.0229   47.2548 H   0  0  0  0  0  0  0  0  0  0  0  0
   56.2838   25.8560   47.1062 H   0  0  0  0  0  0  0  0  0  0  0  0
   55.7157   27.7290   45.5583 H   0  0  0  0  0  0  0  0  0  0  0  0
   58.8880   32.6506   44.4783 H   0  0  0  0  0  0  0  0  0  0  0  0
   57.2084   32.9160   45.0874 H   0  0  0  0  0  0  0  0  0  0  0  0
   58.0319   32.9269   47.3993 H   0  0  0  0  0  0  0  0  0  0  0  0
  1  2  1  0
  2  3  1  0
  3  4  1  0
  3  5  1  0
  5  6  1  0
  6  7  1  0
  7  8  1  0
  7  9  1  0
  9 10  1  0
 10 11  1  0
 11 12  1  0
 12 13  1  0
 13 14  2  0
 13 15  1  0
 15 16  1  0
 16 17  2  0
 17 18  1  0
 18 19  2  0
 19 20  1  0
 20 21  2  0
 12 22  1  0
 22 23  1  0
 23 24  1  0
 23  9  1  0
 21 16  1  0
  1 25  1  0
  1 26  1  0
  1 27  1  0
  2 28  1  0
  2 29  1  0
  3 30  1  6
  4 31  1  0
  4 32  1  0
  4 33  1  0
  5 34  1  0
  5 35  1  0
  6 36  1  0
  6 37  1  0
  8 38  1  0
  8 39  1  0
  8 40  1  0
  9 41  1  6
 10 42  1  0
 10 43  1  0
 11 44  1  0
 11 45  1  0
 15 46  1  0
 15 47  1  0
 17 48  1  0
 18 49  1  0
 19 50  1  0
 20 51  1  0
 21 52  1  0
 22 53  1  0
 22 54  1  0
 23 55  1  1
M  CHG  1   3   1
M  END
>  <UniqueID>  (21) 
21

>  <SMILES>  (21) 
CC[N@H+](C)CCN(C)[C@H]1CCN(C(=O)Cc2ccccc2)CC1F

>  <Energy>  (21) 
71.66481892537756

>  <Genealogy>  (21) 
CC[NH+](C)CCN(C)C1CCN(C(=O)Cc2ccccc2)CC1F (protonated)
CC[N@H+](C)CCN(C)[C@H]1CCN(C(=O)Cc2ccccc2)CC1F (chirality)
CC[N@H+](C)CCN(C)[C@H]1CCN(C(=O)Cc2ccccc2)CC1F (3D coordinates assigned)
CC[N@H+](C)CCN(C)[C@H]1CCN(C(=O)Cc2ccccc2)CC1F (nonaromatic ring conformer: 71.66481892537756 kcal/mol)

>  <smiles>  (21) 
CCN(C)CCN(C)C1CCN(C(=O)Cc2ccccc2)CC1F

>  <score_type>  (21) 
oracle

>  <origin>  (21) 
adg

>  <m_score__min__energy>  (21) 
-5.9400000000000004

>  <m_primary>  (21) 
energy

$$$$
21:0
     RDKit          3D

 57 59  0  0  0  0  0  0  0  0999 V2000
   56.6555   33.4903   45.1019 H   0  0  0  0  0  0  0  0  0  0  0  0
   57.6280   33.0110   44.9160 C   0  0  0  0  0  0  0  0  0  0  0  0
   57.6580   31.9470   44.0920 C   0  0  0  0  0  0  0  0  0  0  0  0
   57.7530   32.1800   42.6720 C   0  0  0  0  0  0  0  0  0  0  0  0
   57.8270   32.3670   41.5330 N   0  0  0  0  0  0  0  0  0  0  0  0
   57.5250   30.5520   44.5680 C   0  0  0  0  0  0  0  0  0  0  0  0
   56.3870   30.1000   44.8740 O   0  0  0  0  0  0  0  0  0  0  0  0
   58.6800   29.7070   44.6730 N   0  0  0  0  0  0  0  0  0  0  0  0
   59.6160   30.1100   44.4380 H   0  0  0  0  0  0  0  0  0  0  0  0
   58.5920   28.3270   45.1640 C   0  0  0  0  0  0  0  0  0  0  0  0
   58.0370   27.7104   44.4416 H   0  0  0  0  0  0  0  0  0  0  0  0
   60.0170   27.7270   45.2930 C   0  0  0  0  0  0  0  0  0  0  0  0
   60.2934   27.2592   44.3365 H   0  0  0  0  0  0  0  0  0  0  0  0
   60.7076   28.5435   45.5506 H   0  0  0  0  0  0  0  0  0  0  0  0
   60.0970   26.6720   46.4010 C   0  0  0  0  0  0  0  0  0  0  0  0
   59.3857   25.8634   46.1769 H   0  0  0  0  0  0  0  0  0  0  0  0
   61.1270   26.2877   46.4384 H   0  0  0  0  0  0  0  0  0  0  0  0
   59.7540   27.2740   47.7800 C   0  0  0  0  0  0  0  0  0  0  0  0
   59.3495   26.4747   48.4183 H   0  0  0  0  0  0  0  0  0  0  0  0
   60.6820   27.7022   48.1868 H   0  0  0  0  0  0  0  0  0  0  0  0
   58.7180   28.4160   47.7110 C   0  0  0  0  0  0  0  0  0  0  0  0
   58.1069   28.3990   48.6254 H   0  0  0  0  0  0  0  0  0  0  0  0
   59.2616   29.3678   47.6187 H   0  0  0  0  0  0  0  0  0  0  0  0
   57.7970   28.2710   46.4950 C   0  0  0  0  0  0  0  0  0  0  0  0
   57.2734   27.3056   46.5573 H   0  0  0  0  0  0  0  0  0  0  0  0
   57.0829   29.1076   46.5037 H   0  0  0  0  0  0  0  0  0  0  0  0
   58.8150   33.5760   45.5860 C   0  0  0  0  0  0  0  0  0  0  0  0
   59.2600   34.8780   45.4750 C   0  0  0  0  0  0  0  0  0  0  0  0
   58.7603   35.6747   44.9043 H   0  0  0  0  0  0  0  0  0  0  0  0
   60.4020   35.0200   46.1750 N   0  0  0  0  0  0  0  0  0  0  0  0
   60.7090   33.8460   46.7030 N   0  0  0  0  0  0  0  0  0  0  0  0
   61.8860   33.6410   47.5520 C   0  0  0  0  0  0  0  0  0  0  0  0
   62.6825   34.3287   47.2315 H   0  0  0  0  0  0  0  0  0  0  0  0
   62.2087   32.5944   47.4492 H   0  0  0  0  0  0  0  0  0  0  0  0
   61.5640   33.9040   49.0300 C   0  0  0  0  0  0  0  0  0  0  0  0
   61.1396   34.9141   49.1281 H   0  0  0  0  0  0  0  0  0  0  0  0
   62.4964   33.8105   49.6060 H   0  0  0  0  0  0  0  0  0  0  0  0
   60.5740   32.9030   49.5720 C   0  0  0  0  0  0  0  0  0  0  0  0
   59.2490   33.2870   49.8310 C   0  0  0  0  0  0  0  0  0  0  0  0
   58.9428   34.3324   49.6784 H   0  0  0  0  0  0  0  0  0  0  0  0
   58.3160   32.3480   50.2820 C   0  0  0  0  0  0  0  0  0  0  0  0
   57.2804   32.6588   50.4845 H   0  0  0  0  0  0  0  0  0  0  0  0
   58.6960   31.0070   50.4780 C   0  0  0  0  0  0  0  0  0  0  0  0
   57.7950   30.0270   50.9230 O   0  0  0  0  0  0  0  0  0  0  0  0
   57.4180   29.8370   52.2830 C   0  0  0  0  0  0  0  0  0  0  0  0
   58.2054   30.2338   52.9406 H   0  0  0  0  0  0  0  0  0  0  0  0
   56.4745   30.3672   52.4795 H   0  0  0  0  0  0  0  0  0  0  0  0
   57.2829   28.7632   52.4795 H   0  0  0  0  0  0  0  0  0  0  0  0
   60.0190   30.6290   50.2220 C   0  0  0  0  0  0  0  0  0  0  0  0
   60.3266   29.5842   50.3765 H   0  0  0  0  0  0  0  0  0  0  0  0
   60.9530   31.5660   49.7720 C   0  0  0  0  0  0  0  0  0  0  0  0
   61.9893   31.2548   49.5737 H   0  0  0  0  0  0  0  0  0  0  0  0
   59.7740   32.9330   46.3550 C   0  0  0  0  0  0  0  0  0  0  0  0
   59.7990   31.4780   46.7310 C   0  0  0  0  0  0  0  0  0  0  0  0
   59.8006   31.3825   47.8268 H   0  0  0  0  0  0  0  0  0  0  0  0
   58.9093   30.9779   46.3207 H   0  0  0  0  0  0  0  0  0  0  0  0
   60.7053   31.0088   46.3207 H   0  0  0  0  0  0  0  0  0  0  0  0
  1  2  1  0
  2  3  2  0
  3  4  1  0
  4  5  3  0
  3  6  1  0
  6  7  2  0
  6  8  1  0
  8  9  1  0
  8 10  1  0
 10 11  1  0
 10 12  1  0
 12 13  1  0
 12 14  1  0
 12 15  1  0
 15 16  1  0
 15 17  1  0
 15 18  1  0
 18 19  1  0
 18 20  1  0
 18 21  1  0
 21 22  1  0
 21 23  1  0
 21 24  1  0
 24 25  1  0
 24 26  1  0
  2 27  1  0
 27 28  1  0
 28 29  1  0
 28 30  2  0
 30 31  1  0
 31 32  1  0
 32 33  1  0
 32 34  1  0
 32 35  1  0
 35 36  1  0
 35 37  1  0
 35 38  1  0
 38 39  2  0
 39 40  1  0
 39 41  1  0
 41 42  1  0
 41 43  2  0
 43 44  1  0
 44 45  1  0
 45 46  1  0
 45 47  1  0
 45 48  1  0
 43 49  1  0
 49 50  1  0
 49 51  2  0
 51 52  1  0
 31 53  1  0
 53 54  1  0
 54 55  1  0
 54 56  1  0
 54 57  1  0
 24 10  1  0
 53 27  2  0
 51 38  1  0
M  END
>  <UniqueID>  (22) 
22

>  <SMILES>  (22) 
COc1ccc(CCn2ncc(/C=C(/C#N)C(=O)NC3CCCCC3)c2C)cc1

>  <Energy>  (22) 
89.13696667721564

>  <Genealogy>  (22) 
COc1ccc(CCn2ncc(/C=C(/C#N)C(=O)NC3CCCCC3)c2C)cc1 (cis-trans isomerization)
COc1ccc(CCn2ncc(/C=C(/C#N)C(=O)NC3CCCCC3)c2C)cc1 (3D coordinates assigned)
COc1ccc(CCn2ncc(/C=C(/C#N)C(=O)NC3CCCCC3)c2C)cc1 (nonaromatic ring conformer: 89.13696667721564 kcal/mol)

>  <smiles>  (22) 
COc1ccc(CCn2ncc(C=C(C#N)C(=O)NC3CCCCC3)c2C)cc1

>  <score_type>  (22) 
oracle

>  <origin>  (22) 
adg

>  <m_score__min__energy>  (22) 
-9.2300000000000004

>  <m_primary>  (22) 
energy

$$$$
22:0
     RDKit          3D

 33 34  0  0  0  0  0  0  0  0999 V2000
   58.9459   35.9383   44.7915 H   0  0  0  0  0  0  0  0  0  0  0  0
   58.9300   34.9630   45.3000 C   0  0  0  0  0  0  0  0  0  0  0  0
   57.7750   34.1780   45.2680 C   0  0  0  0  0  0  0  0  0  0  0  0
   56.8814   34.5373   44.7366 H   0  0  0  0  0  0  0  0  0  0  0  0
   57.7530   32.9370   45.9100 C   0  0  0  0  0  0  0  0  0  0  0  0
   56.8391   32.3252   45.8891 H   0  0  0  0  0  0  0  0  0  0  0  0
   58.8940   32.4680   46.5820 C   0  0  0  0  0  0  0  0  0  0  0  0
   58.8560   31.1520   47.3090 C   0  0  0  0  0  0  0  0  0  0  0  0
   57.8687   31.0218   47.7763 H   0  0  0  0  0  0  0  0  0  0  0  0
   59.6377   31.1430   48.0829 H   0  0  0  0  0  0  0  0  0  0  0  0
   59.0960   30.0570   46.3690 N   0  0  0  0  0  0  0  0  0  0  0  0
   58.2640   29.6150   45.4030 C   0  0  0  0  0  0  0  0  0  0  0  0
   57.0610   30.0880   45.2300 N   0  0  0  0  0  0  0  0  0  0  0  0
   56.2450   30.0220   44.0530 C   0  0  0  0  0  0  0  0  0  0  0  0
   55.0980   29.5070   44.1430 O   0  0  0  0  0  0  0  0  0  0  0  0
   56.6830   30.5520   42.8350 O   0  0  0  0  0  0  0  0  0  0  0  0
   57.5650   31.6680   42.7320 C   0  0  0  0  0  0  0  0  0  0  0  0
   58.5984   31.3284   42.8953 H   0  0  0  0  0  0  0  0  0  0  0  0
   57.2850   32.4129   43.4915 H   0  0  0  0  0  0  0  0  0  0  0  0
   57.4600   32.3090   41.3520 C   0  0  0  0  0  0  0  0  0  0  0  0
   57.2831   33.3891   41.4619 H   0  0  0  0  0  0  0  0  0  0  0  0
   58.3969   32.1453   40.7994 H   0  0  0  0  0  0  0  0  0  0  0  0
   56.6243   31.8549   40.7994 H   0  0  0  0  0  0  0  0  0  0  0  0
   58.8970   28.6090   44.6840 C   0  0  0  0  0  0  0  0  0  0  0  0
   58.4971   28.0277   43.8401 H   0  0  0  0  0  0  0  0  0  0  0  0
   60.1460   28.5050   45.2720 C   0  0  0  0  0  0  0  0  0  0  0  0
   60.9382   27.8063   44.9650 H   0  0  0  0  0  0  0  0  0  0  0  0
   60.2380   29.3940   46.2790 N   0  0  0  0  0  0  0  0  0  0  0  0
   61.0700   29.5490   46.8890 H   0  0  0  0  0  0  0  0  0  0  0  0
   60.0480   33.2680   46.6220 C   0  0  0  0  0  0  0  0  0  0  0  0
   60.9402   32.9169   47.1613 H   0  0  0  0  0  0  0  0  0  0  0  0
   60.0660   34.5100   45.9780 C   0  0  0  0  0  0  0  0  0  0  0  0
   60.9740   35.1303   46.0050 H   0  0  0  0  0  0  0  0  0  0  0  0
  1  2  1  0
  2  3  2  0
  3  4  1  0
  3  5  1  0
  5  6  1  0
  5  7  2  0
  7  8  1  0
  8  9  1  0
  8 10  1  0
  8 11  1  0
 11 12  1  0
 12 13  2  0
 13 14  1  0
 14 15  2  0
 14 16  1  0
 16 17  1  0
 17 18  1  0
 17 19  1  0
 17 20  1  0
 20 21  1  0
 20 22  1  0
 20 23  1  0
 12 24  1  0
 24 25  1  0
 24 26  2  0
 26 27  1  0
 26 28  1  0
 28 29  1  0
  7 30  1  0
 30 31  1  0
 30 32  2  0
 32 33  1  0
 32  2  1  0
 28 11  1  0
M  END
>  <UniqueID>  (23) 
23

>  <SMILES>  (23) 
CCOC(=O)/N=c1\cc[nH]n1Cc1ccccc1

>  <Energy>  (23) 
62.4323937047201

>  <Genealogy>  (23) 
CCOC(=O)/N=c1\cc[nH]n1Cc1ccccc1 (cis-trans isomerization)
CCOC(=O)/N=c1\cc[nH]n1Cc1ccccc1 (3D coordinates assigned)
CCOC(=O)/N=c1\cc[nH]n1Cc1ccccc1 (optimized conformer: 62.4323937047201 kcal/mol)

>  <smiles>  (23) 
CCOC(=O)N=c1cc[nH]n1Cc1ccccc1

>  <score_type>  (23) 
oracle

>  <origin>  (23) 
adg

>  <m_score__min__energy>  (23) 
-6.0499999999999998

>  <m_primary>  (23) 
energy

$$$$
23:0
     RDKit          3D

 49 51  0  0  0  0  0  0  0  0999 V2000
   57.3415   25.8266   45.1801 H   0  0  0  0  0  0  0  0  0  0  0  0
   56.8200   26.6060   45.7550 C   0  0  0  0  0  0  0  0  0  0  0  0
   55.6830   26.3320   46.3210 N   0  0  0  0  0  0  0  0  0  0  0  0
   54.7270   25.4740   45.8010 O   0  0  0  0  0  0  0  0  0  0  0  0
   54.7300   24.0620   46.0090 C   0  0  0  0  0  0  0  0  0  0  0  0
   53.7709   23.7561   46.4525 H   0  0  0  0  0  0  0  0  0  0  0  0
   55.5537   23.7966   46.6881 H   0  0  0  0  0  0  0  0  0  0  0  0
   54.9240   23.3440   44.6770 C   0  0  0  0  0  0  0  0  0  0  0  0
   54.3100   23.8325   43.9060 H   0  0  0  0  0  0  0  0  0  0  0  0
   54.6182   22.2927   44.7832 H   0  0  0  0  0  0  0  0  0  0  0  0
   56.3510   23.4010   44.2790 N   0  0  0  0  0  0  0  0  0  0  0  0
   56.6070   22.8570   42.9280 C   0  0  0  0  0  0  0  0  0  0  0  0
   57.4202   23.4280   42.4562 H   0  0  0  0  0  0  0  0  0  0  0  0
   55.6873   22.9419   42.3306 H   0  0  0  0  0  0  0  0  0  0  0  0
   57.0080   21.3860   43.0100 C   0  0  0  0  0  0  0  0  0  0  0  0
   57.0896   21.0865   44.0653 H   0  0  0  0  0  0  0  0  0  0  0  0
   56.2451   20.7697   42.5119 H   0  0  0  0  0  0  0  0  0  0  0  0
   57.9781   21.2421   42.5119 H   0  0  0  0  0  0  0  0  0  0  0  0
   57.2600   22.8490   45.3110 C   0  0  0  0  0  0  0  0  0  0  0  0
   56.7141   22.8060   46.2650 H   0  0  0  0  0  0  0  0  0  0  0  0
   57.5760   21.8564   44.9575 H   0  0  0  0  0  0  0  0  0  0  0  0
   58.5400   23.6720   45.5240 C   0  0  0  0  0  0  0  0  0  0  0  0
   58.7245   23.7906   46.6019 H   0  0  0  0  0  0  0  0  0  0  0  0
   59.3916   23.1518   45.0613 H   0  0  0  0  0  0  0  0  0  0  0  0
   58.4202   24.6627   45.0613 H   0  0  0  0  0  0  0  0  0  0  0  0
   57.4220   27.9500   45.8730 C   0  0  0  0  0  0  0  0  0  0  0  0
   57.1240   28.9710   44.9530 C   0  0  0  0  0  0  0  0  0  0  0  0
   56.4265   28.7747   44.1254 H   0  0  0  0  0  0  0  0  0  0  0  0
   57.7090   30.2340   45.0840 C   0  0  0  0  0  0  0  0  0  0  0  0
   57.4755   31.0232   44.3541 H   0  0  0  0  0  0  0  0  0  0  0  0
   58.5930   30.5010   46.1420 C   0  0  0  0  0  0  0  0  0  0  0  0
   59.2330   31.8290   46.2730 C   0  0  0  0  0  0  0  0  0  0  0  0
   58.5650   33.0140   45.9490 C   0  0  0  0  0  0  0  0  0  0  0  0
   57.5402   33.0790   45.5545 H   0  0  0  0  0  0  0  0  0  0  0  0
   59.5770   34.3290   46.2580 S   0  0  0  0  0  0  0  0  0  0  0  0
   60.8730   33.4080   46.7900 C   0  0  0  0  0  0  0  0  0  0  0  0
   62.1230   33.8560   47.2110 C   0  0  0  0  0  0  0  0  0  0  0  0
   62.3541   34.9308   47.2499 H   0  0  0  0  0  0  0  0  0  0  0  0
   63.0790   32.9000   47.5840 C   0  0  0  0  0  0  0  0  0  0  0  0
   64.0714   33.2241   47.9304 H   0  0  0  0  0  0  0  0  0  0  0  0
   62.7740   31.5280   47.5170 C   0  0  0  0  0  0  0  0  0  0  0  0
   63.5331   30.7852   47.8034 H   0  0  0  0  0  0  0  0  0  0  0  0
   61.5070   31.1000   47.0870 C   0  0  0  0  0  0  0  0  0  0  0  0
   61.2720   30.0271   47.0262 H   0  0  0  0  0  0  0  0  0  0  0  0
   60.5450   32.0600   46.7360 C   0  0  0  0  0  0  0  0  0  0  0  0
   58.9030   29.4770   47.0500 C   0  0  0  0  0  0  0  0  0  0  0  0
   59.6106   29.6697   47.8698 H   0  0  0  0  0  0  0  0  0  0  0  0
   58.3190   28.2140   46.9200 C   0  0  0  0  0  0  0  0  0  0  0  0
   58.5638   27.4217   47.6427 H   0  0  0  0  0  0  0  0  0  0  0  0
  1  2  1  0
  2  3  2  0
  3  4  1  0
  4  5  1  0
  5  6  1  0
  5  7  1  0
  5  8  1  0
  8  9  1  0
  8 10  1  0
  8 11  1  0
 11 12  1  0
 12 13  1  0
 12 14  1  0
 12 15  1  0
 15 16  1  0
 15 17  1  0
 15 18  1  0
 11 19  1  0
 19 20  1  0
 19 21  1  0
 19 22  1  0
 22 23  1  0
 22 24  1  0
 22 25  1  0
  2 26  1  0
 26 27  2  0
 27 28  1  0
 27 29  1  0
 29 30  1  0
 29 31  2  0
 31 32  1  0
 32 33  2  0
 33 34  1  0
 33 35  1  0
 35 36  1  0
 36 37  2  0
 37 38  1  0
 37 39  1  0
 39 40  1  0
 39 41  2  0
 41 42  1  0
 41 43  1  0
 43 44  1  0
 43 45  2  0
 31 46  1  0
 46 47  1  0
 46 48  2  0
 48 49  1  0
 48 26  1  0
 45 32  1  0
 45 36  1  0
M  END
>  <UniqueID>  (24) 
24

>  <SMILES>  (24) 
CCN(CC)CCO/N=C/c1ccc(-c2csc3ccccc23)cc1

>  <Energy>  (24) 
87.50242588087792

>  <Genealogy>  (24) 
CCN(CC)CCO/N=C/c1ccc(-c2csc3ccccc23)cc1 (cis-trans isomerization)
CCN(CC)CCO/N=C/c1ccc(-c2csc3ccccc23)cc1 (3D coordinates assigned)
CCN(CC)CCO/N=C/c1ccc(-c2csc3ccccc23)cc1 (optimized conformer: 87.50242588087792 kcal/mol)

>  <smiles>  (24) 
CCN(CC)CCON=Cc1ccc(-c2csc3ccccc23)cc1

>  <score_type>  (24) 
oracle

>  <origin>  (24) 
adg

>  <m_score__min__energy>  (24) 
-8.2899999999999991

>  <m_primary>  (24) 
energy

$$$$
24:0
     RDKit          3D

 61 63  0  0  0  0  0  0  0  0999 V2000
   63.3230   34.0050   46.2720 C   0  0  0  0  0  0  0  0  0  0  0  0
   63.5070   33.9770   47.7930 C   0  0  0  0  0  0  0  0  0  0  0  0
   63.8920   32.6300   48.2900 N   0  0  2  0  0  0  0  0  0  0  0  0
   63.2300   31.5810   47.4880 C   0  0  0  0  0  0  0  0  0  0  0  0
   63.5220   32.4530   49.7190 C   0  0  0  0  0  0  0  0  0  0  0  0
   62.7070   33.6220   50.3230 C   0  0  0  0  0  0  0  0  0  0  0  0
   61.1820   33.4550   50.1930 C   0  0  0  0  0  0  0  0  0  0  0  0
   60.7850   32.0440   50.2300 N   0  0  0  0  0  0  0  0  0  0  0  0
   60.3420   31.3170   49.0670 C   0  0  0  0  0  0  0  0  0  0  0  0
   60.8690   30.0660   48.7410 C   0  0  0  0  0  0  0  0  0  0  0  0
   60.4030   29.3700   47.6310 C   0  0  0  0  0  0  0  0  0  0  0  0
   59.3950   29.9060   46.7920 C   0  0  0  0  0  0  0  0  0  0  0  0
   58.8820   29.1910   45.6750 C   0  0  0  0  0  0  0  0  0  0  0  0
   59.3400   27.8990   45.3030 C   0  0  0  0  0  0  0  0  0  0  0  0
   58.7900   27.2250   44.2130 C   0  0  0  0  0  0  0  0  0  0  0  0
   57.7770   27.8120   43.4660 C   0  0  0  0  0  0  0  0  0  0  0  0
   57.3100   29.0790   43.8030 C   0  0  0  0  0  0  0  0  0  0  0  0
   57.8550   29.7810   44.9000 C   0  0  0  0  0  0  0  0  0  0  0  0
   57.3860   31.0640   45.2210 C   0  0  0  0  0  0  0  0  0  0  0  0
   56.4530   31.5660   44.5280 O   0  0  0  0  0  0  0  0  0  0  0  0
   57.9190   31.7750   46.2680 N   0  0  0  0  0  0  0  0  0  0  0  0
   57.4180   33.1540   46.4980 C   0  0  0  0  0  0  0  0  0  0  0  0
   57.9470   34.1110   45.4190 C   0  0  0  0  0  0  0  0  0  0  0  0
   59.2740   34.6380   45.8010 N   0  0  0  0  0  0  0  0  0  0  0  0
   60.3180   33.6120   45.6290 C   0  0  0  0  0  0  0  0  0  0  0  0
   59.2630   35.0900   47.2020 C   0  0  0  0  0  0  0  0  0  0  0  0
   58.8760   31.2020   47.0900 C   0  0  0  0  0  0  0  0  0  0  0  0
   59.3550   31.8720   48.2450 C   0  0  0  0  0  0  0  0  0  0  0  0
   62.2613   34.1666   46.0340 H   0  0  0  0  0  0  0  0  0  0  0  0
   63.9229   34.8222   45.8451 H   0  0  0  0  0  0  0  0  0  0  0  0
   63.6527   33.0463   45.8451 H   0  0  0  0  0  0  0  0  0  0  0  0
   64.2950   34.6938   48.0672 H   0  0  0  0  0  0  0  0  0  0  0  0
   62.5440   34.2430   48.2534 H   0  0  0  0  0  0  0  0  0  0  0  0
   64.9220   32.4870   48.1800 H   0  0  0  0  0  0  0  0  0  0  0  0
   62.7652   30.8444   48.1598 H   0  0  0  0  0  0  0  0  0  0  0  0
   62.4564   32.0380   46.8535 H   0  0  0  0  0  0  0  0  0  0  0  0
   63.9755   31.0794   46.8535 H   0  0  0  0  0  0  0  0  0  0  0  0
   62.9222   31.5351   49.8070 H   0  0  0  0  0  0  0  0  0  0  0  0
   64.4658   32.4073   50.2821 H   0  0  0  0  0  0  0  0  0  0  0  0
   62.9564   33.7019   51.3914 H   0  0  0  0  0  0  0  0  0  0  0  0
   62.9778   34.5250   49.7562 H   0  0  0  0  0  0  0  0  0  0  0  0
   60.6934   33.9845   51.0242 H   0  0  0  0  0  0  0  0  0  0  0  0
   60.8732   33.8724   49.2233 H   0  0  0  0  0  0  0  0  0  0  0  0
   60.8520   31.5240   51.1340 H   0  0  0  0  0  0  0  0  0  0  0  0
   61.6595   29.6272   49.3675 H   0  0  0  0  0  0  0  0  0  0  0  0
   60.8263   28.3815   47.3992 H   0  0  0  0  0  0  0  0  0  0  0  0
   60.1424   27.4218   45.8847 H   0  0  0  0  0  0  0  0  0  0  0  0
   59.1599   26.2246   43.9439 H   0  0  0  0  0  0  0  0  0  0  0  0
   57.3441   27.2759   42.6086 H   0  0  0  0  0  0  0  0  0  0  0  0
   56.5072   29.5387   43.2079 H   0  0  0  0  0  0  0  0  0  0  0  0
   56.3184   33.1484   46.4680 H   0  0  0  0  0  0  0  0  0  0  0  0
   57.7713   33.4992   47.4809 H   0  0  0  0  0  0  0  0  0  0  0  0
   58.0332   33.5695   44.4654 H   0  0  0  0  0  0  0  0  0  0  0  0
   57.2462   34.9525   45.3148 H   0  0  0  0  0  0  0  0  0  0  0  0
   60.6640   33.2719   46.6162 H   0  0  0  0  0  0  0  0  0  0  0  0
   59.9050   32.7586   45.0712 H   0  0  0  0  0  0  0  0  0  0  0  0
   61.1641   34.0397   45.0712 H   0  0  0  0  0  0  0  0  0  0  0  0
   59.2843   34.2159   47.8695 H   0  0  0  0  0  0  0  0  0  0  0  0
   60.1461   35.7178   47.3917 H   0  0  0  0  0  0  0  0  0  0  0  0
   58.3504   35.6741   47.3917 H   0  0  0  0  0  0  0  0  0  0  0  0
   58.9382   32.8570   48.5020 H   0  0  0  0  0  0  0  0  0  0  0  0
  1  2  1  0
  2  3  1  0
  3  4  1  0
  3  5  1  0
  5  6  1  0
  6  7  1  0
  7  8  1  0
  8  9  1  0
  9 10  2  0
 10 11  1  0
 11 12  2  0
 12 13  1  0
 13 14  2  0
 14 15  1  0
 15 16  2  0
 16 17  1  0
 17 18  2  0
 18 19  1  0
 19 20  2  0
 19 21  1  0
 21 22  1  0
 22 23  1  0
 23 24  1  0
 24 25  1  0
 24 26  1  0
 21 27  1  0
 27 28  2  0
 28  9  1  0
 27 12  1  0
 18 13  1  0
  1 29  1  0
  1 30  1  0
  1 31  1  0
  2 32  1  0
  2 33  1  0
  3 34  1  1
  4 35  1  0
  4 36  1  0
  4 37  1  0
  5 38  1  0
  5 39  1  0
  6 40  1  0
  6 41  1  0
  7 42  1  0
  7 43  1  0
  8 44  1  0
 10 45  1  0
 11 46  1  0
 14 47  1  0
 15 48  1  0
 16 49  1  0
 17 50  1  0
 22 51  1  0
 22 52  1  0
 23 53  1  0
 23 54  1  0
 25 55  1  0
 25 56  1  0
 25 57  1  0
 26 58  1  0
 26 59  1  0
 26 60  1  0
 28 61  1  0
M  CHG  1   3   1
M  END
>  <UniqueID>  (25) 
25

>  <SMILES>  (25) 
CC[N@H+](C)CCCNc1ccc2c3ccccc3c(=O)n(CCN(C)C)c2c1

>  <Energy>  (25) 
80.88754296883862

>  <Genealogy>  (25) 
CC[NH+](C)CCCNc1ccc2c3ccccc3c(=O)n(CCN(C)C)c2c1 (protonated)
CC[N@H+](C)CCCNc1ccc2c3ccccc3c(=O)n(CCN(C)C)c2c1 (chirality)
CC[N@H+](C)CCCNc1ccc2c3ccccc3c(=O)n(CCN(C)C)c2c1 (3D coordinates assigned)
CC[N@H+](C)CCCNc1ccc2c3ccccc3c(=O)n(CCN(C)C)c2c1 (optimized conformer: 80.88754296883862 kcal/mol)

>  <smiles>  (25) 
CCN(C)CCCNc1ccc2c3ccccc3c(=O)n(CCN(C)C)c2c1

>  <score_type>  (25) 
oracle

>  <origin>  (25) 
adg

>  <m_score__min__energy>  (25) 
-6.1699999999999999

>  <m_primary>  (25) 
energy

$$$$
25:0
     RDKit          3D

 35 36  0  0  0  0  0  0  0  0999 V2000
   56.6700   24.0430   43.3740 C   0  0  0  0  0  0  0  0  0  0  0  0
   56.0990   23.3280   44.5260 N   0  0  0  0  0  0  0  0  0  0  0  0
   54.7790   23.8580   44.8960 C   0  0  0  0  0  0  0  0  0  0  0  0
   57.0310   23.1930   45.6690 C   0  0  0  0  0  0  0  0  0  0  0  0
   56.9510   24.3090   46.7350 C   0  0  0  0  0  0  0  0  0  0  0  0
   57.4660   25.5910   46.2440 N   0  0  0  0  0  0  0  0  0  0  0  0
   58.8250   25.8400   45.8900 C   0  0  0  0  0  0  0  0  0  0  0  0
   59.7230   24.9650   46.0110 O   0  0  0  0  0  0  0  0  0  0  0  0
   59.1810   27.4740   45.2380 S   0  0  0  0  0  0  0  0  0  0  0  0
   57.4110   27.8170   45.3060 C   0  0  0  0  0  0  0  0  0  0  0  0
   56.8240   28.9070   44.7840 C   0  0  0  0  0  0  0  0  0  0  0  0
   57.3690   30.2760   44.8980 C   0  0  0  0  0  0  0  0  0  0  0  0
   57.2130   31.2190   43.8660 C   0  0  0  0  0  0  0  0  0  0  0  0
   57.7710   32.4950   43.9870 C   0  0  0  0  0  0  0  0  0  0  0  0
   58.5030   32.8350   45.1280 C   0  0  0  0  0  0  0  0  0  0  0  0
   59.2660   34.5790   45.2900 Br  0  0  0  0  0  0  0  0  0  0  0  0
   58.6870   31.8930   46.1450 C   0  0  0  0  0  0  0  0  0  0  0  0
   58.1310   30.6160   46.0270 C   0  0  0  0  0  0  0  0  0  0  0  0
   56.6570   26.7000   45.8710 C   0  0  0  0  0  0  0  0  0  0  0  0
   55.4020   26.6960   45.9930 O   0  0  0  0  0  0  0  0  0  0  0  0
   57.3191   24.8558   43.7319 H   0  0  0  0  0  0  0  0  0  0  0  0
   57.2607   23.3435   42.7644 H   0  0  0  0  0  0  0  0  0  0  0  0
   55.8571   24.4644   42.7644 H   0  0  0  0  0  0  0  0  0  0  0  0
   54.6920   23.8929   45.9920 H   0  0  0  0  0  0  0  0  0  0  0  0
   54.6632   24.8723   44.4865 H   0  0  0  0  0  0  0  0  0  0  0  0
   53.9939   23.2054   44.4865 H   0  0  0  0  0  0  0  0  0  0  0  0
   56.8192   22.2350   46.1663 H   0  0  0  0  0  0  0  0  0  0  0  0
   58.0420   23.2597   45.2407 H   0  0  0  0  0  0  0  0  0  0  0  0
   55.8995   24.4407   47.0299 H   0  0  0  0  0  0  0  0  0  0  0  0
   57.5743   24.0025   47.5879 H   0  0  0  0  0  0  0  0  0  0  0  0
   55.8788   28.7720   44.2377 H   0  0  0  0  0  0  0  0  0  0  0  0
   56.6496   30.9513   42.9600 H   0  0  0  0  0  0  0  0  0  0  0  0
   57.6337   33.2328   43.1827 H   0  0  0  0  0  0  0  0  0  0  0  0
   59.2703   32.1574   47.0394 H   0  0  0  0  0  0  0  0  0  0  0  0
   58.2913   29.8737   46.8228 H   0  0  0  0  0  0  0  0  0  0  0  0
  1  2  1  0
  2  3  1  0
  2  4  1  0
  4  5  1  0
  5  6  1  0
  6  7  1  0
  7  8  2  0
  7  9  1  0
  9 10  1  0
 10 11  2  3
 11 12  1  0
 12 13  2  0
 13 14  1  0
 14 15  2  0
 15 16  1  0
 15 17  1  0
 17 18  2  0
 10 19  1  0
 19 20  2  0
 19  6  1  0
 18 12  1  0
  1 21  1  0
  1 22  1  0
  1 23  1  0
  3 24  1  0
  3 25  1  0
  3 26  1  0
  4 27  1  0
  4 28  1  0
  5 29  1  0
  5 30  1  0
 11 31  1  0
 13 32  1  0
 14 33  1  0
 17 34  1  0
 18 35  1  0
M  END
>  <UniqueID>  (26) 
26

>  <SMILES>  (26) 
CN(C)CCN1C(=O)SC(=Cc2ccc(Br)cc2)C1=O

>  <Energy>  (26) 
62.26491981439487

>  <Genealogy>  (26) 
CN(C)CCN1C(=O)SC(=Cc2ccc(Br)cc2)C1=O (3D coordinates assigned)
CN(C)CCN1C(=O)SC(=Cc2ccc(Br)cc2)C1=O (nonaromatic ring conformer: 62.26491981439487 kcal/mol)

>  <smiles>  (26) 
CN(C)CCN1C(=O)SC(=Cc2ccc(Br)cc2)C1=O

>  <score_type>  (26) 
oracle

>  <origin>  (26) 
adg

>  <m_score__min__energy>  (26) 
-7.29

>  <m_primary>  (26) 
energy

$$$$
26:0
     RDKit          3D

 41 42  0  0  0  0  0  0  0  0999 V2000
   60.5340   29.2440   45.2380 C   0  0  0  0  0  0  0  0  0  0  0  0
   59.3680   29.6860   46.0220 N   0  0  0  0  0  0  0  0  0  0  0  0
   59.7510   29.8160   47.4410 C   0  0  0  0  0  0  0  0  0  0  0  0
   58.2430   28.7310   45.8490 C   0  0  0  0  0  0  0  0  0  0  0  0
   57.5030   28.9030   44.5020 C   0  0  0  0  0  0  0  0  0  0  0  0
   57.3500   30.3710   44.0680 C   0  0  0  0  0  0  0  0  0  0  0  0
   57.0270   31.2420   45.2130 N   0  0  0  0  0  0  0  0  0  0  0  0
   57.0700   32.6720   44.8730 C   0  0  0  0  0  0  0  0  0  0  0  0
   58.3060   33.3150   45.4210 C   0  0  0  0  0  0  0  0  0  0  0  0
   58.7830   34.5630   45.0960 C   0  0  0  0  0  0  0  0  0  0  0  0
   59.9190   34.7230   45.7250 O   0  0  0  0  0  0  0  0  0  0  0  0
   60.1470   33.6210   46.4090 C   0  0  0  0  0  0  0  0  0  0  0  0
   61.3460   33.4100   47.2440 C   0  0  0  0  0  0  0  0  0  0  0  0
   61.2240   33.0170   48.5880 C   0  0  0  0  0  0  0  0  0  0  0  0
   62.3640   32.8150   49.3720 C   0  0  0  0  0  0  0  0  0  0  0  0
   63.6360   33.0030   48.8220 C   0  0  0  0  0  0  0  0  0  0  0  0
   65.1920   32.7260   49.8940 Br  0  0  0  0  0  0  0  0  0  0  0  0
   63.7670   33.3940   47.4860 C   0  0  0  0  0  0  0  0  0  0  0  0
   62.6290   33.5960   46.6990 C   0  0  0  0  0  0  0  0  0  0  0  0
   59.1690   32.7020   46.2530 N   0  0  0  0  0  0  0  0  0  0  0  0
   61.3404   28.9383   45.9208 H   0  0  0  0  0  0  0  0  0  0  0  0
   60.2478   28.3920   44.6038 H   0  0  0  0  0  0  0  0  0  0  0  0
   60.8845   30.0716   44.6038 H   0  0  0  0  0  0  0  0  0  0  0  0
   59.0960   30.6310   45.6690 H   0  0  0  0  0  0  0  0  0  0  0  0
   58.9017   29.5277   48.0779 H   0  0  0  0  0  0  0  0  0  0  0  0
   60.6071   29.1581   47.6515 H   0  0  0  0  0  0  0  0  0  0  0  0
   60.0297   30.8591   47.6515 H   0  0  0  0  0  0  0  0  0  0  0  0
   58.6418   27.7071   45.9011 H   0  0  0  0  0  0  0  0  0  0  0  0
   57.5165   28.9313   46.6503 H   0  0  0  0  0  0  0  0  0  0  0  0
   58.0669   28.3671   43.7242 H   0  0  0  0  0  0  0  0  0  0  0  0
   56.4890   28.4983   44.6363 H   0  0  0  0  0  0  0  0  0  0  0  0
   58.2936   30.7103   43.6158 H   0  0  0  0  0  0  0  0  0  0  0  0
   56.5244   30.4326   43.3437 H   0  0  0  0  0  0  0  0  0  0  0  0
   57.7490   31.0810   45.9530 H   0  0  0  0  0  0  0  0  0  0  0  0
   57.0617   32.7823   43.7786 H   0  0  0  0  0  0  0  0  0  0  0  0
   56.1919   33.1648   45.3157 H   0  0  0  0  0  0  0  0  0  0  0  0
   58.2988   35.2924   44.4300 H   0  0  0  0  0  0  0  0  0  0  0  0
   60.2259   32.8675   49.0256 H   0  0  0  0  0  0  0  0  0  0  0  0
   62.2602   32.5077   50.4231 H   0  0  0  0  0  0  0  0  0  0  0  0
   64.7672   33.5430   47.0532 H   0  0  0  0  0  0  0  0  0  0  0  0
   62.7379   33.9020   45.6480 H   0  0  0  0  0  0  0  0  0  0  0  0
  1  2  1  0
  2  3  1  0
  2  4  1  0
  4  5  1  0
  5  6  1  0
  6  7  1  0
  7  8  1  0
  8  9  1  0
  9 10  2  0
 10 11  1  0
 11 12  1  0
 12 13  1  0
 13 14  2  0
 14 15  1  0
 15 16  2  0
 16 17  1  0
 16 18  1  0
 18 19  2  0
 12 20  2  0
 20  9  1  0
 19 13  1  0
  1 21  1  0
  1 22  1  0
  1 23  1  0
  2 24  1  0
  3 25  1  0
  3 26  1  0
  3 27  1  0
  4 28  1  0
  4 29  1  0
  5 30  1  0
  5 31  1  0
  6 32  1  0
  6 33  1  0
  7 34  1  0
  8 35  1  0
  8 36  1  0
 10 37  1  0
 14 38  1  0
 15 39  1  0
 18 40  1  0
 19 41  1  0
M  CHG  1   2   1
M  END
>  <UniqueID>  (27) 
27

>  <SMILES>  (27) 
C[NH+](C)CCCNCc1coc(-c2ccc(Br)cc2)n1

>  <Energy>  (27) 
68.24209565682624

>  <Genealogy>  (27) 
C[NH+](C)CCCNCc1coc(-c2ccc(Br)cc2)n1 (protonated)
C[NH+](C)CCCNCc1coc(-c2ccc(Br)cc2)n1 (3D coordinates assigned)
C[NH+](C)CCCNCc1coc(-c2ccc(Br)cc2)n1 (optimized conformer: 68.24209565682624 kcal/mol)

>  <smiles>  (27) 
CN(C)CCCNCc1coc(-c2ccc(Br)cc2)n1

>  <score_type>  (27) 
oracle

>  <origin>  (27) 
adg

>  <m_score__min__energy>  (27) 
-4.7000000000000002

>  <m_primary>  (27) 
energy

$$$$
27:0
     RDKit          3D

 47 51  0  0  0  0  0  0  0  0999 V2000
   56.7480   27.6960   45.1060 O   0  0  0  0  0  0  0  0  0  0  0  0
   57.0280   28.9110   45.2800 C   0  0  0  0  0  0  0  0  0  0  0  0
   56.0920   29.9080   44.8560 N   0  0  0  0  0  0  0  0  0  0  0  0
   56.3540   30.8320   43.7540 C   0  0  0  0  0  0  0  0  0  0  0  0
   57.1890   32.0050   44.2100 C   0  0  0  0  0  0  0  0  0  0  0  0
   57.1680   32.3620   45.5700 C   0  0  0  0  0  0  0  0  0  0  0  0
   57.9870   33.3880   46.0480 C   0  0  0  0  0  0  0  0  0  0  0  0
   58.8340   34.0720   45.1750 C   0  0  0  0  0  0  0  0  0  0  0  0
   58.8600   33.7360   43.8200 C   0  0  0  0  0  0  0  0  0  0  0  0
   58.0440   32.7090   43.3280 C   0  0  0  0  0  0  0  0  0  0  0  0
   58.1470   32.3220   41.6140 Cl  0  0  0  0  0  0  0  0  0  0  0  0
   58.3050   29.2890   45.9200 C   0  0  0  0  0  0  0  0  0  0  0  0
   59.5300   28.9630   45.3110 C   0  0  0  0  0  0  0  0  0  0  0  0
   60.7360   29.3990   45.8690 C   0  0  0  0  0  0  0  0  0  0  0  0
   60.7320   30.1680   47.0420 C   0  0  0  0  0  0  0  0  0  0  0  0
   61.8900   30.6500   47.5720 N   0  0  0  0  0  0  0  0  0  0  0  0
   61.8910   31.4370   48.6910 C   0  0  0  0  0  0  0  0  0  0  0  0
   63.1690   32.0320   49.1420 C   0  0  0  0  0  0  0  0  0  0  0  0
   63.5190   33.3650   49.0470 C   0  0  0  0  0  0  0  0  0  0  0  0
   64.7700   33.4660   49.6140 C   0  0  0  0  0  0  0  0  0  0  0  0
   65.1050   32.1930   50.0290 C   0  0  0  0  0  0  0  0  0  0  0  0
   64.1300   31.3630   49.7380 O   0  0  0  0  0  0  0  0  0  0  0  0
   60.6570   31.7160   49.3330 C   0  0  0  0  0  0  0  0  0  0  0  0
   60.5490   32.4720   50.5970 C   0  0  0  0  0  0  0  0  0  0  0  0
   59.4790   33.2660   50.9650 C   0  0  0  0  0  0  0  0  0  0  0  0
   59.7840   33.7480   52.2190 C   0  0  0  0  0  0  0  0  0  0  0  0
   61.0140   33.2150   52.5450 C   0  0  0  0  0  0  0  0  0  0  0  0
   61.4420   32.4570   51.5620 O   0  0  0  0  0  0  0  0  0  0  0  0
   59.5110   31.2230   48.7920 N   0  0  0  0  0  0  0  0  0  0  0  0
   59.5120   30.4680   47.6690 C   0  0  0  0  0  0  0  0  0  0  0  0
   58.3090   30.0070   47.1270 C   0  0  0  0  0  0  0  0  0  0  0  0
   56.8920   30.2969   42.9576 H   0  0  0  0  0  0  0  0  0  0  0  0
   55.3911   31.2136   43.3837 H   0  0  0  0  0  0  0  0  0  0  0  0
   56.5010   31.8289   46.2635 H   0  0  0  0  0  0  0  0  0  0  0  0
   57.9641   33.6571   47.1143 H   0  0  0  0  0  0  0  0  0  0  0  0
   59.4815   34.8762   45.5545 H   0  0  0  0  0  0  0  0  0  0  0  0
   59.5254   34.2812   43.1345 H   0  0  0  0  0  0  0  0  0  0  0  0
   59.5397   28.3614   44.3901 H   0  0  0  0  0  0  0  0  0  0  0  0
   61.6897   29.1383   45.3869 H   0  0  0  0  0  0  0  0  0  0  0  0
   62.7930   30.4500   47.0830 H   0  0  0  0  0  0  0  0  0  0  0  0
   62.9216   34.1781   48.6088 H   0  0  0  0  0  0  0  0  0  0  0  0
   65.3787   34.3766   49.7155 H   0  0  0  0  0  0  0  0  0  0  0  0
   66.0456   31.9159   50.5276 H   0  0  0  0  0  0  0  0  0  0  0  0
   58.5716   33.4707   50.3779 H   0  0  0  0  0  0  0  0  0  0  0  0
   59.1708   34.4216   52.8356 H   0  0  0  0  0  0  0  0  0  0  0  0
   61.5542   33.3974   53.4857 H   0  0  0  0  0  0  0  0  0  0  0  0
   57.3612   30.2074   47.6481 H   0  0  0  0  0  0  0  0  0  0  0  0
  1  2  2  0
  2  3  1  0
  3  4  1  0
  4  5  1  0
  5  6  2  0
  6  7  1  0
  7  8  2  0
  8  9  1  0
  9 10  2  0
 10 11  1  0
  2 12  1  0
 12 13  2  0
 13 14  1  0
 14 15  2  0
 15 16  1  0
 16 17  2  0
 17 18  1  0
 18 19  2  0
 19 20  1  0
 20 21  2  0
 21 22  1  0
 17 23  1  0
 23 24  1  0
 24 25  2  0
 25 26  1  0
 26 27  2  0
 27 28  1  0
 23 29  2  0
 29 30  1  0
 30 31  2  0
 10  5  1  0
 31 12  1  0
 30 15  1  0
 22 18  1  0
 28 24  1  0
  4 32  1  0
  4 33  1  0
  6 34  1  0
  7 35  1  0
  8 36  1  0
  9 37  1  0
 13 38  1  0
 14 39  1  0
 16 40  1  0
 19 41  1  0
 20 42  1  0
 21 43  1  0
 25 44  1  0
 26 45  1  0
 27 46  1  0
 31 47  1  0
M  CHG  2   3  -1  16   1
M  END
>  <UniqueID>  (28) 
28

>  <SMILES>  (28) 
O=C([N-]Cc1ccccc1Cl)c1ccc2[nH+]c(-c3ccco3)c(-c3ccco3)nc2c1

>  <Energy>  (28) 
121.11958960830219

>  <Genealogy>  (28) 
O=C([N-]Cc1ccccc1Cl)c1ccc2[nH+]c(-c3ccco3)c(-c3ccco3)nc2c1 (protonated)
O=C([N-]Cc1ccccc1Cl)c1ccc2[nH+]c(-c3ccco3)c(-c3ccco3)nc2c1 (3D coordinates assigned)
O=C([N-]Cc1ccccc1Cl)c1ccc2[nH+]c(-c3ccco3)c(-c3ccco3)nc2c1 (optimized conformer: 121.11958960830219 kcal/mol)

>  <smiles>  (28) 
O=C(NCc1ccccc1Cl)c1ccc2nc(-c3ccco3)c(-c3ccco3)nc2c1

>  <score_type>  (28) 
oracle

>  <origin>  (28) 
adg

>  <m_score__min__energy>  (28) 
-8.5500000000000007

>  <m_primary>  (28) 
energy

$$$$
28:0
     RDKit          3D

 52 54  0  0  0  0  0  0  0  0999 V2000
   57.7380   26.8030   45.0030 C   0  0  0  0  0  0  0  0  0  0  0  0
   57.0180   27.8410   45.8530 C   0  0  0  0  0  0  0  0  0  0  0  0
   56.8540   29.0820   45.1040 N   0  0  0  0  0  0  0  0  0  0  0  0
   57.8410   29.9190   44.7360 C   0  0  0  0  0  0  0  0  0  0  0  0
   57.2660   30.9930   44.0920 C   0  0  0  0  0  0  0  0  0  0  0  0
   57.9620   32.1980   43.5320 C   0  0  0  0  0  0  0  0  0  0  0  0
   57.8120   33.4100   44.3660 N   0  0  0  0  0  0  0  0  0  0  0  0
   56.9970   33.2590   45.5900 C   0  0  0  0  0  0  0  0  0  0  0  0
   57.8440   33.0320   46.8490 C   0  0  0  0  0  0  0  0  0  0  0  0
   58.8860   34.0650   46.9600 N   0  0  0  0  0  0  0  0  0  0  0  0
   59.6360   33.9390   48.2320 C   0  0  0  0  0  0  0  0  0  0  0  0
   59.1240   32.7290   49.0200 C   0  0  0  0  0  0  0  0  0  0  0  0
   60.1220   31.7130   49.1170 O   0  0  0  0  0  0  0  0  0  0  0  0
   60.0870   30.4610   48.4760 C   0  0  0  0  0  0  0  0  0  0  0  0
   60.4480   30.2990   47.1230 C   0  0  0  0  0  0  0  0  0  0  0  0
   60.4060   29.0360   46.5260 C   0  0  0  0  0  0  0  0  0  0  0  0
   60.8610   28.8470   44.8430 Cl  0  0  0  0  0  0  0  0  0  0  0  0
   60.0040   27.9240   47.2680 C   0  0  0  0  0  0  0  0  0  0  0  0
   59.6410   28.0710   48.6080 C   0  0  0  0  0  0  0  0  0  0  0  0
   59.6780   29.3360   49.2190 C   0  0  0  0  0  0  0  0  0  0  0  0
   59.3010   29.4830   50.6670 C   0  0  0  0  0  0  0  0  0  0  0  0
   59.7880   33.9740   45.7990 C   0  0  0  0  0  0  0  0  0  0  0  0
   59.0150   34.2550   44.5050 C   0  0  0  0  0  0  0  0  0  0  0  0
   55.9050   30.7540   44.1290 C   0  0  0  0  0  0  0  0  0  0  0  0
   55.6790   29.5820   44.7520 N   0  0  0  0  0  0  0  0  0  0  0  0
   58.2414   26.0773   45.6588 H   0  0  0  0  0  0  0  0  0  0  0  0
   57.0084   26.2790   44.3681 H   0  0  0  0  0  0  0  0  0  0  0  0
   58.4844   27.3028   44.3681 H   0  0  0  0  0  0  0  0  0  0  0  0
   56.0279   27.4546   46.1366 H   0  0  0  0  0  0  0  0  0  0  0  0
   57.6155   28.0429   46.7542 H   0  0  0  0  0  0  0  0  0  0  0  0
   58.9160   29.7721   44.9171 H   0  0  0  0  0  0  0  0  0  0  0  0
   59.0341   31.9692   43.4409 H   0  0  0  0  0  0  0  0  0  0  0  0
   57.4964   32.4162   42.5596 H   0  0  0  0  0  0  0  0  0  0  0  0
   56.4002   34.1725   45.7289 H   0  0  0  0  0  0  0  0  0  0  0  0
   56.3622   32.3708   45.4555 H   0  0  0  0  0  0  0  0  0  0  0  0
   57.1943   33.0759   47.7356 H   0  0  0  0  0  0  0  0  0  0  0  0
   58.3257   32.0454   46.7816 H   0  0  0  0  0  0  0  0  0  0  0  0
   60.7058   33.8060   48.0133 H   0  0  0  0  0  0  0  0  0  0  0  0
   59.4900   34.8500   48.8309 H   0  0  0  0  0  0  0  0  0  0  0  0
   58.8436   33.0536   50.0329 H   0  0  0  0  0  0  0  0  0  0  0  0
   58.2547   32.3123   48.4902 H   0  0  0  0  0  0  0  0  0  0  0  0
   60.7647   31.1720   46.5335 H   0  0  0  0  0  0  0  0  0  0  0  0
   59.9732   26.9307   46.7963 H   0  0  0  0  0  0  0  0  0  0  0  0
   59.3243   27.1920   49.1886 H   0  0  0  0  0  0  0  0  0  0  0  0
   60.1396   29.1560   51.2993 H   0  0  0  0  0  0  0  0  0  0  0  0
   59.0700   30.5371   50.8806 H   0  0  0  0  0  0  0  0  0  0  0  0
   58.4175   28.8635   50.8806 H   0  0  0  0  0  0  0  0  0  0  0  0
   60.5957   34.7128   45.9075 H   0  0  0  0  0  0  0  0  0  0  0  0
   60.2109   32.9597   45.7515 H   0  0  0  0  0  0  0  0  0  0  0  0
   58.7060   35.3107   44.5016 H   0  0  0  0  0  0  0  0  0  0  0  0
   59.6828   34.0244   43.6618 H   0  0  0  0  0  0  0  0  0  0  0  0
   55.1300   31.4160   43.7153 H   0  0  0  0  0  0  0  0  0  0  0  0
  1  2  1  0
  2  3  1  0
  3  4  1  0
  4  5  2  0
  5  6  1  0
  6  7  1  0
  7  8  1  0
  8  9  1  0
  9 10  1  0
 10 11  1  0
 11 12  1  0
 12 13  1  0
 13 14  1  0
 14 15  2  0
 15 16  1  0
 16 17  1  0
 16 18  2  0
 18 19  1  0
 19 20  2  0
 20 21  1  0
 10 22  1  0
 22 23  1  0
  5 24  1  0
 24 25  2  0
 25  3  1  0
 23  7  1  0
 20 14  1  0
  1 26  1  0
  1 27  1  0
  1 28  1  0
  2 29  1  0
  2 30  1  0
  4 31  1  0
  6 32  1  0
  6 33  1  0
  8 34  1  0
  8 35  1  0
  9 36  1  0
  9 37  1  0
 11 38  1  0
 11 39  1  0
 12 40  1  0
 12 41  1  0
 15 42  1  0
 18 43  1  0
 19 44  1  0
 21 45  1  0
 21 46  1  0
 21 47  1  0
 22 48  1  0
 22 49  1  0
 23 50  1  0
 23 51  1  0
 24 52  1  0
M  END
>  <UniqueID>  (29) 
29

>  <SMILES>  (29) 
CCn1cc(CN2CCN(CCOc3cc(Cl)ccc3C)CC2)cn1

>  <Energy>  (29) 
85.67836623248475

>  <Genealogy>  (29) 
CCn1cc(CN2CCN(CCOc3cc(Cl)ccc3C)CC2)cn1 (3D coordinates assigned)
CCn1cc(CN2CCN(CCOc3cc(Cl)ccc3C)CC2)cn1 (nonaromatic ring conformer: 85.67836623248475 kcal/mol)

>  <smiles>  (29) 
CCn1cc(CN2CCN(CCOc3cc(Cl)ccc3C)CC2)cn1

>  <score_type>  (29) 
oracle

>  <origin>  (29) 
adg

>  <m_score__min__energy>  (29) 
-8.1199999999999992

>  <m_primary>  (29) 
energy

$$$$
29:0
     RDKit          3D

 41 43  0  0  0  0  0  0  0  0999 V2000
   63.1020   32.5520   47.2330 C   0  0  0  0  0  0  0  0  0  0  0  0
   61.7600   32.0790   47.1770 O   0  0  0  0  0  0  0  0  0  0  0  0
   60.6380   32.8920   46.9470 C   0  0  0  0  0  0  0  0  0  0  0  0
   60.7660   34.2210   46.4940 C   0  0  0  0  0  0  0  0  0  0  0  0
   59.6300   34.9980   46.2540 C   0  0  0  0  0  0  0  0  0  0  0  0
   58.3580   34.4620   46.4550 C   0  0  0  0  0  0  0  0  0  0  0  0
   58.2170   33.1490   46.9080 C   0  0  0  0  0  0  0  0  0  0  0  0
   59.3500   32.3590   47.1680 C   0  0  0  0  0  0  0  0  0  0  0  0
   59.1730   30.9380   47.6530 C   0  0  0  0  0  0  0  0  0  0  0  0
   60.2430   30.0490   47.1680 N   0  0  0  0  0  0  0  0  0  0  0  0
   59.7790   28.6840   47.0160 C   0  0  0  0  0  0  0  0  0  0  0  0
   60.3960   27.6710   47.7760 C   0  0  0  0  0  0  0  0  0  0  0  0
   59.9350   26.3550   47.7250 C   0  0  0  0  0  0  0  0  0  0  0  0
   58.8490   26.0270   46.9170 C   0  0  0  0  0  0  0  0  0  0  0  0
   58.2260   27.0100   46.1490 C   0  0  0  0  0  0  0  0  0  0  0  0
   58.6810   28.3400   46.1770 C   0  0  0  0  0  0  0  0  0  0  0  0
   57.9880   29.3260   45.3170 C   0  0  0  0  0  0  0  0  0  0  0  0
   58.7110   30.2090   44.5020 C   0  0  0  0  0  0  0  0  0  0  0  0
   58.0370   31.1190   43.6850 C   0  0  0  0  0  0  0  0  0  0  0  0
   56.6410   31.1190   43.6700 C   0  0  0  0  0  0  0  0  0  0  0  0
   55.9520   30.2330   44.4380 N   0  0  0  0  0  0  0  0  0  0  0  0
   56.5870   29.3410   45.2440 C   0  0  0  0  0  0  0  0  0  0  0  0
   63.4091   32.6602   48.2837 H   0  0  0  0  0  0  0  0  0  0  0  0
   63.7653   31.8335   46.7293 H   0  0  0  0  0  0  0  0  0  0  0  0
   63.1682   33.5276   46.7293 H   0  0  0  0  0  0  0  0  0  0  0  0
   61.7659   34.6485   46.3286 H   0  0  0  0  0  0  0  0  0  0  0  0
   59.7390   36.0356   45.9055 H   0  0  0  0  0  0  0  0  0  0  0  0
   57.4658   35.0740   46.2565 H   0  0  0  0  0  0  0  0  0  0  0  0
   57.2119   32.7297   47.0626 H   0  0  0  0  0  0  0  0  0  0  0  0
   59.1810   30.9352   48.7530 H   0  0  0  0  0  0  0  0  0  0  0  0
   58.2168   30.5627   47.2596 H   0  0  0  0  0  0  0  0  0  0  0  0
   60.6460   30.4360   46.2890 H   0  0  0  0  0  0  0  0  0  0  0  0
   61.0200   30.0600   47.8710 H   0  0  0  0  0  0  0  0  0  0  0  0
   61.2531   27.9209   48.4186 H   0  0  0  0  0  0  0  0  0  0  0  0
   60.4297   25.5759   48.3235 H   0  0  0  0  0  0  0  0  0  0  0  0
   58.4821   24.9905   46.8847 H   0  0  0  0  0  0  0  0  0  0  0  0
   57.3688   26.7418   45.5140 H   0  0  0  0  0  0  0  0  0  0  0  0
   59.8107   30.1847   44.5063 H   0  0  0  0  0  0  0  0  0  0  0  0
   58.5998   31.8281   43.0601 H   0  0  0  0  0  0  0  0  0  0  0  0
   56.0981   31.8360   43.0367 H   0  0  0  0  0  0  0  0  0  0  0  0
   55.9998   28.6280   45.8414 H   0  0  0  0  0  0  0  0  0  0  0  0
  1  2  1  0
  2  3  1  0
  3  4  2  0
  4  5  1  0
  5  6  2  0
  6  7  1  0
  7  8  2  0
  8  9  1  0
  9 10  1  0
 10 11  1  0
 11 12  2  0
 12 13  1  0
 13 14  2  0
 14 15  1  0
 15 16  2  0
 16 17  1  0
 17 18  2  0
 18 19  1  0
 19 20  2  0
 20 21  1  0
 21 22  2  0
  8  3  1  0
 16 11  1  0
 22 17  1  0
  1 23  1  0
  1 24  1  0
  1 25  1  0
  4 26  1  0
  5 27  1  0
  6 28  1  0
  7 29  1  0
  9 30  1  0
  9 31  1  0
 10 32  1  0
 10 33  1  0
 12 34  1  0
 13 35  1  0
 14 36  1  0
 15 37  1  0
 18 38  1  0
 19 39  1  0
 20 40  1  0
 22 41  1  0
M  CHG  1  10   1
M  END
>  <UniqueID>  (30) 
30

>  <SMILES>  (30) 
COc1ccccc1C[NH2+]c1ccccc1-c1cccnc1

>  <Energy>  (30) 
49.91771946329921

>  <Genealogy>  (30) 
COc1ccccc1C[NH2+]c1ccccc1-c1cccnc1 (protonated)
COc1ccccc1C[NH2+]c1ccccc1-c1cccnc1 (3D coordinates assigned)
COc1ccccc1C[NH2+]c1ccccc1-c1cccnc1 (optimized conformer: 49.91771946329921 kcal/mol)

>  <smiles>  (30) 
COc1ccccc1CNc1ccccc1-c1cccnc1

>  <score_type>  (30) 
oracle

>  <origin>  (30) 
adg

>  <m_score__min__energy>  (30) 
-6.1600000000000001

>  <m_primary>  (30) 
energy

$$$$
30:0
     RDKit          3D

 40 42  0  0  0  0  0  0  0  0999 V2000
   55.0439   30.8065   43.9888 H   0  0  0  0  0  0  0  0  0  0  0  0
   55.8590   30.2410   44.4640 C   0  0  0  0  0  0  0  0  0  0  0  0
   55.6480   28.9630   44.8510 N   0  0  0  0  0  0  0  0  0  0  0  0
   56.6310   28.1980   45.3820 C   0  0  0  0  0  0  0  0  0  0  0  0
   56.3560   26.8630   45.6900 C   0  0  0  0  0  0  0  0  0  0  0  0
   55.3287   26.4806   45.5979 H   0  0  0  0  0  0  0  0  0  0  0  0
   57.3760   26.0140   46.1130 C   0  0  0  0  0  0  0  0  0  0  0  0
   57.1455   24.9746   46.3897 H   0  0  0  0  0  0  0  0  0  0  0  0
   58.6980   26.4820   46.1870 C   0  0  0  0  0  0  0  0  0  0  0  0
   59.7700   25.6490   46.5390 O   0  0  0  0  0  0  0  0  0  0  0  0
   61.1430   25.9970   46.3890 C   0  0  0  0  0  0  0  0  0  0  0  0
   61.6023   26.1134   47.3817 H   0  0  0  0  0  0  0  0  0  0  0  0
   61.6642   25.2026   45.8347 H   0  0  0  0  0  0  0  0  0  0  0  0
   61.2229   26.9438   45.8347 H   0  0  0  0  0  0  0  0  0  0  0  0
   58.9680   27.8230   45.8910 C   0  0  0  0  0  0  0  0  0  0  0  0
   60.0086   28.1792   45.9097 H   0  0  0  0  0  0  0  0  0  0  0  0
   57.9310   28.7310   45.5680 C   0  0  0  0  0  0  0  0  0  0  0  0
   58.1380   30.1250   45.3070 C   0  0  0  0  0  0  0  0  0  0  0  0
   59.2190   30.7840   45.6470 N   0  0  0  0  0  0  0  0  0  0  0  0
   59.4090   31.8270   46.6120 C   0  0  0  0  0  0  0  0  0  0  0  0
   59.0230   31.6510   47.9530 C   0  0  0  0  0  0  0  0  0  0  0  0
   58.6098   30.6864   48.2829 H   0  0  0  0  0  0  0  0  0  0  0  0
   59.1630   32.6980   48.8670 C   0  0  0  0  0  0  0  0  0  0  0  0
   58.8797   32.5502   49.9196 H   0  0  0  0  0  0  0  0  0  0  0  0
   59.6630   33.9340   48.4450 C   0  0  0  0  0  0  0  0  0  0  0  0
   59.7960   34.9500   49.3330 F   0  0  0  0  0  0  0  0  0  0  0  0
   60.0110   34.1260   47.1050 C   0  0  0  0  0  0  0  0  0  0  0  0
   60.3947   35.1015   46.7715 H   0  0  0  0  0  0  0  0  0  0  0  0
   59.8720   33.0790   46.1870 C   0  0  0  0  0  0  0  0  0  0  0  0
   60.1269   33.2395   45.1290 H   0  0  0  0  0  0  0  0  0  0  0  0
   57.1040   30.8540   44.6610 C   0  0  0  0  0  0  0  0  0  0  0  0
   57.2810   32.2810   44.2590 C   0  0  0  0  0  0  0  0  0  0  0  0
   56.7930   33.2000   44.9730 O   0  0  0  0  0  0  0  0  0  0  0  0
   58.0360   32.6700   43.0150 C   0  0  0  0  0  0  0  0  0  0  0  0
   59.0880   32.3682   43.1253 H   0  0  0  0  0  0  0  0  0  0  0  0
   57.9549   33.7594   42.8863 H   0  0  0  0  0  0  0  0  0  0  0  0
   57.4520   31.9940   41.7770 C   0  0  0  0  0  0  0  0  0  0  0  0
   56.7619   31.1952   42.0865 H   0  0  0  0  0  0  0  0  0  0  0  0
   56.9070   32.7370   41.1762 H   0  0  0  0  0  0  0  0  0  0  0  0
   58.2663   31.5627   41.1762 H   0  0  0  0  0  0  0  0  0  0  0  0
  1  2  1  0
  2  3  1  0
  3  4  1  0
  4  5  2  0
  5  6  1  0
  5  7  1  0
  7  8  1  0
  7  9  2  0
  9 10  1  0
 10 11  1  0
 11 12  1  0
 11 13  1  0
 11 14  1  0
  9 15  1  0
 15 16  1  0
 15 17  2  0
 17 18  1  0
 18 19  2  0
 19 20  1  0
 20 21  2  0
 21 22  1  0
 21 23  1  0
 23 24  1  0
 23 25  2  0
 25 26  1  0
 25 27  1  0
 27 28  1  0
 27 29  2  0
 29 30  1  0
 18 31  1  0
 31 32  1  0
 32 33  2  0
 32 34  1  0
 34 35  1  0
 34 36  1  0
 34 37  1  0
 37 38  1  0
 37 39  1  0
 37 40  1  0
 31  2  2  0
 17  4  1  0
 29 20  1  0
M  CHG  1   3  -1
M  END
>  <UniqueID>  (31) 
31

>  <SMILES>  (31) 
CCC(=O)c1c[n-]c2ccc(OC)cc2/c1=N\c1ccc(F)cc1

>  <Energy>  (31) 
68.08714823316082

>  <Genealogy>  (31) 
CCC(=O)c1c[n-]c2ccc(OC)cc2c1=Nc1ccc(F)cc1 (protonated)
CCC(=O)c1c[n-]c2ccc(OC)cc2/c1=N\c1ccc(F)cc1 (cis-trans isomerization)
CCC(=O)c1c[n-]c2ccc(OC)cc2/c1=N\c1ccc(F)cc1 (3D coordinates assigned)
CCC(=O)c1c[n-]c2ccc(OC)cc2/c1=N\c1ccc(F)cc1 (optimized conformer: 68.08714823316082 kcal/mol)

>  <smiles>  (31) 
CCC(=O)c1c[nH]c2ccc(OC)cc2c1=Nc1ccc(F)cc1

>  <score_type>  (31) 
oracle

>  <origin>  (31) 
adg

>  <m_score__min__energy>  (31) 
-8.7100000000000009

>  <m_primary>  (31) 
energy

$$$$
31:0
     RDKit          3D

 34 36  0  0  0  0  0  0  0  0999 V2000
   55.1640   29.7090   43.3710 N   0  0  0  0  0  0  0  0  0  0  0  0
   56.2890   29.8000   43.9970 C   0  0  0  0  0  0  0  0  0  0  0  0
   56.6540   30.9140   44.6560 N   0  0  0  0  0  0  0  0  0  0  0  0
   57.8270   30.9960   45.3020 C   0  0  0  0  0  0  0  0  0  0  0  0
   58.2560   32.1850   46.0270 C   0  0  0  0  0  0  0  0  0  0  0  0
   59.1460   32.1760   47.0920 C   0  0  0  0  0  0  0  0  0  0  0  0
   59.2860   33.5000   47.4940 C   0  0  0  0  0  0  0  0  0  0  0  0
   60.3560   34.2070   48.9030 Br  0  0  0  0  0  0  0  0  0  0  0  0
   58.4940   34.2860   46.6840 C   0  0  0  0  0  0  0  0  0  0  0  0
   57.8780   33.4600   45.7980 N   0  0  0  0  0  0  0  0  0  0  0  0
   58.6580   29.8970   45.2740 C   0  0  0  0  0  0  0  0  0  0  0  0
   58.2550   28.7910   44.5990 C   0  0  0  0  0  0  0  0  0  0  0  0
   59.0980   27.6890   44.5750 O   0  0  0  0  0  0  0  0  0  0  0  0
   59.0880   26.7210   45.6190 C   0  0  0  0  0  0  0  0  0  0  0  0
   57.8980   25.8450   45.4460 C   0  0  0  0  0  0  0  0  0  0  0  0
   58.0340   24.5490   44.9370 C   0  0  0  0  0  0  0  0  0  0  0  0
   56.9310   23.7380   44.7770 C   0  0  0  0  0  0  0  0  0  0  0  0
   55.6890   24.2360   45.1320 C   0  0  0  0  0  0  0  0  0  0  0  0
   55.5810   25.5050   45.6290 C   0  0  0  0  0  0  0  0  0  0  0  0
   54.3410   25.9700   45.9720 F   0  0  0  0  0  0  0  0  0  0  0  0
   56.6560   26.3470   45.8030 C   0  0  0  0  0  0  0  0  0  0  0  0
   57.0830   28.6940   43.9470 N   0  0  0  0  0  0  0  0  0  0  0  0
   55.1010   29.1370   42.4910 H   0  0  0  0  0  0  0  0  0  0  0  0
   59.6416   31.2973   47.5305 H   0  0  0  0  0  0  0  0  0  0  0  0
   58.3817   35.3786   46.7438 H   0  0  0  0  0  0  0  0  0  0  0  0
   57.2190   33.8150   45.0700 H   0  0  0  0  0  0  0  0  0  0  0  0
   59.6297   29.9160   45.7892 H   0  0  0  0  0  0  0  0  0  0  0  0
   60.0044   26.1144   45.5701 H   0  0  0  0  0  0  0  0  0  0  0  0
   59.0441   27.2242   46.5962 H   0  0  0  0  0  0  0  0  0  0  0  0
   59.0307   24.1736   44.6618 H   0  0  0  0  0  0  0  0  0  0  0  0
   57.0352   22.7188   44.3766 H   0  0  0  0  0  0  0  0  0  0  0  0
   54.7909   23.6119   45.0144 H   0  0  0  0  0  0  0  0  0  0  0  0
   56.5359   27.3642   46.2040 H   0  0  0  0  0  0  0  0  0  0  0  0
   56.7810   27.8310   43.4260 H   0  0  0  0  0  0  0  0  0  0  0  0
  1  2  2  3
  2  3  1  0
  3  4  2  0
  4  5  1  0
  5  6  2  0
  6  7  1  0
  7  8  1  0
  7  9  2  0
  9 10  1  0
  4 11  1  0
 11 12  2  0
 12 13  1  0
 13 14  1  0
 14 15  1  0
 15 16  2  0
 16 17  1  0
 17 18  2  0
 18 19  1  0
 19 20  1  0
 19 21  2  0
 12 22  1  0
 22  2  1  0
 10  5  1  0
 21 15  1  0
  1 23  1  0
  6 24  1  0
  9 25  1  0
 10 26  1  0
 11 27  1  0
 14 28  1  0
 14 29  1  0
 16 30  1  0
 17 31  1  0
 18 32  1  0
 21 33  1  0
 22 34  1  0
M  END
>  <smiles>  (32) 
N=c1nc(-c2cc(Br)c[nH]2)cc(OCc2cccc(F)c2)[nH]1

>  <score_type>  (32) 
oracle

>  <origin>  (32) 
adg

>  <m_score__min__energy>  (32) 
-7.5300000000000002

>  <m_primary>  (32) 
energy

$$$$
32:0
     RDKit          3D

 56 59  0  0  1  0  0  0  0  0999 V2000
   63.3890   33.8630   46.2250 C   0  0  0  0  0  0  0  0  0  0  0  0
   63.3200   33.4730   47.6710 C   0  0  0  0  0  0  0  0  0  0  0  0
   62.1400   32.6730   47.9900 N   0  0  0  0  0  0  0  0  0  0  0  0
   62.1580   31.2700   47.6740 C   0  0  0  0  0  0  0  0  0  0  0  0
   61.1330   30.4510   48.3900 C   0  0  0  0  0  0  0  0  0  0  0  0
   61.0590   33.3570   48.6120 C   0  0  0  0  0  0  0  0  0  0  0  0
   60.8170   33.4160   49.9600 C   0  0  0  0  0  0  0  0  0  0  0  0
   61.5000   32.8330   51.0010 C   0  0  0  0  0  0  0  0  0  0  0  0
   62.5340   32.1110   50.7590 N   0  0  0  0  0  0  0  0  0  0  0  0
   63.8510   32.6370   50.8270 C   0  0  0  0  0  0  0  0  0  0  0  0
   64.1430   33.7870   51.5600 C   0  0  0  0  0  0  0  0  0  0  0  0
   65.4470   34.2510   51.6020 C   0  0  0  0  0  0  0  0  0  0  0  0
   66.4530   33.5690   50.9150 C   0  0  0  0  0  0  0  0  0  0  0  0
   66.1650   32.4180   50.1810 C   0  0  0  0  0  0  0  0  0  0  0  0
   64.8570   31.9540   50.1400 C   0  0  0  0  0  0  0  0  0  0  0  0
   61.0440   33.0500   52.2420 N   0  0  0  0  0  0  0  0  0  0  0  0
   59.9550   33.8110   52.4750 C   0  0  0  0  0  0  0  0  0  0  0  0
   59.3050   34.3720   51.4380 N   0  0  0  0  0  0  0  0  0  0  0  0
   59.7000   34.2040   50.1480 C   0  0  0  0  0  0  0  0  0  0  0  0
   59.2910   34.5980   48.9470 N   0  0  0  0  0  0  0  0  0  0  0  0
   60.0840   34.1070   48.0120 N   0  0  0  0  0  0  0  0  0  0  0  0
   60.0420   34.2420   46.5720 C   0  0  0  0  0  0  0  0  0  0  0  0
   59.0880   33.3180   45.9360 C   0  0  0  0  0  0  0  0  0  0  0  0
   58.2950   33.6360   44.8560 C   0  0  0  0  0  0  0  0  0  0  0  0
   57.3960   32.7160   44.3630 C   0  0  0  0  0  0  0  0  0  0  0  0
   57.2590   31.4460   44.9330 C   0  0  0  0  0  0  0  0  0  0  0  0
   56.3380   30.5350   44.4100 O   0  0  0  0  0  0  0  0  0  0  0  0
   56.6040   30.0280   43.0920 C   0  0  0  0  0  0  0  0  0  0  0  0
   58.0650   31.1350   46.0230 C   0  0  0  0  0  0  0  0  0  0  0  0
   58.9620   32.0530   46.5160 C   0  0  0  0  0  0  0  0  0  0  0  0
   63.5801   34.9433   46.1453 H   0  0  0  0  0  0  0  0  0  0  0  0
   64.2032   33.3094   45.7344 H   0  0  0  0  0  0  0  0  0  0  0  0
   62.4343   33.6224   45.7344 H   0  0  0  0  0  0  0  0  0  0  0  0
   64.2179   32.8882   47.9197 H   0  0  0  0  0  0  0  0  0  0  0  0
   63.2583   34.4002   48.2596 H   0  0  0  0  0  0  0  0  0  0  0  0
   61.9882   31.1610   46.5927 H   0  0  0  0  0  0  0  0  0  0  0  0
   63.1381   30.8925   48.0008 H   0  0  0  0  0  0  0  0  0  0  0  0
   61.2697   30.5602   49.4760 H   0  0  0  0  0  0  0  0  0  0  0  0
   60.1268   30.7967   48.1105 H   0  0  0  0  0  0  0  0  0  0  0  0
   61.2481   29.3934   48.1105 H   0  0  0  0  0  0  0  0  0  0  0  0
   63.3458   34.3198   52.0991 H   0  0  0  0  0  0  0  0  0  0  0  0
   65.6902   35.1569   52.1766 H   0  0  0  0  0  0  0  0  0  0  0  0
   67.4864   33.9441   50.9529 H   0  0  0  0  0  0  0  0  0  0  0  0
   66.9628   31.8857   49.6424 H   0  0  0  0  0  0  0  0  0  0  0  0
   64.6130   31.0479   49.5661 H   0  0  0  0  0  0  0  0  0  0  0  0
   59.6009   33.9719   53.5039 H   0  0  0  0  0  0  0  0  0  0  0  0
   58.4550   34.9690   51.6100 H   0  0  0  0  0  0  0  0  0  0  0  0
   59.7494   35.2732   46.3248 H   0  0  0  0  0  0  0  0  0  0  0  0
   61.0435   33.9968   46.1888 H   0  0  0  0  0  0  0  0  0  0  0  0
   58.3796   34.6269   44.3859 H   0  0  0  0  0  0  0  0  0  0  0  0
   56.7704   32.9868   43.4997 H   0  0  0  0  0  0  0  0  0  0  0  0
   57.1138   29.0563   43.1689 H   0  0  0  0  0  0  0  0  0  0  0  0
   55.6556   29.9025   42.5491 H   0  0  0  0  0  0  0  0  0  0  0  0
   57.2462   30.7371   42.5491 H   0  0  0  0  0  0  0  0  0  0  0  0
   57.9840   30.1449   46.4953 H   0  0  0  0  0  0  0  0  0  0  0  0
   59.5896   31.7878   47.3796 H   0  0  0  0  0  0  0  0  0  0  0  0
  1  2  1  0
  2  3  1  0
  3  4  1  0
  4  5  1  0
  3  6  1  0
  6  7  2  0
  7  8  1  0
  8  9  2  0
  9 10  1  0
 10 11  2  0
 11 12  1  0
 12 13  2  0
 13 14  1  0
 14 15  2  0
  8 16  1  0
 16 17  2  0
 17 18  1  0
 18 19  1  0
 19 20  2  0
 20 21  1  0
 21 22  1  0
 22 23  1  0
 23 24  2  0
 24 25  1  0
 25 26  2  0
 26 27  1  0
 27 28  1  0
 26 29  1  0
 29 30  2  0
 21  6  1  0
 30 23  1  0
 19  7  1  0
 15 10  1  0
  1 31  1  0
  1 32  1  0
  1 33  1  0
  2 34  1  0
  2 35  1  0
  4 36  1  0
  4 37  1  0
  5 38  1  0
  5 39  1  0
  5 40  1  0
 11 41  1  0
 12 42  1  0
 13 43  1  0
 14 44  1  0
 15 45  1  0
 17 46  1  0
 18 47  1  0
 22 48  1  0
 22 49  1  0
 24 50  1  0
 25 51  1  0
 28 52  1  0
 28 53  1  0
 28 54  1  0
 29 55  1  0
 30 56  1  0
M  END
>  <smiles>  (33) 
CCN(CC)c1c2c(=Nc3ccccc3)nc[nH]c2nn1Cc1ccc(OC)cc1

>  <score_type>  (33) 
oracle

>  <origin>  (33) 
adg

>  <m_score__min__energy>  (33) 
-8.1999999999999993

>  <m_primary>  (33) 
energy

$$$$
33:0
     RDKit          3D

 62 65  0  0  0  0  0  0  0  0999 V2000
   60.8040   29.7790   49.1790 C   0  0  0  0  0  0  0  0  0  0  0  0
   60.1580   28.6640   48.3610 C   0  0  0  0  0  0  0  0  0  0  0  0
   60.4010   28.8200   46.8530 C   0  0  0  0  0  0  0  0  0  0  0  0
   59.3760   29.6780   46.2260 N   0  0  0  0  0  0  0  0  0  0  0  0
   58.2590   29.1240   45.6360 C   0  0  0  0  0  0  0  0  0  0  0  0
   58.1130   27.8680   45.6420 O   0  0  0  0  0  0  0  0  0  0  0  0
   57.2970   29.9230   45.0420 N   0  0  0  0  0  0  0  0  0  0  0  0
   56.1020   29.3060   44.4300 C   0  0  0  0  0  0  0  0  0  0  0  0
   55.9900   29.7040   42.9620 C   0  0  0  0  0  0  0  0  0  0  0  0
   57.4210   31.2940   45.0660 C   0  0  0  0  0  0  0  0  0  0  0  0
   56.5450   32.0350   44.5430 O   0  0  0  0  0  0  0  0  0  0  0  0
   58.5370   31.8450   45.6830 C   0  0  0  0  0  0  0  0  0  0  0  0
   59.4800   31.0390   46.2330 C   0  0  0  0  0  0  0  0  0  0  0  0
   60.4760   31.7890   46.7420 N   0  0  0  0  0  0  0  0  0  0  0  0
   60.1020   33.0660   46.4820 C   0  0  0  0  0  0  0  0  0  0  0  0
   60.9910   34.2400   46.7860 C   0  0  0  0  0  0  0  0  0  0  0  0
   62.0700   33.8430   47.7570 C   0  0  0  0  0  0  0  0  0  0  0  0
   63.2590   33.2500   47.3030 C   0  0  0  0  0  0  0  0  0  0  0  0
   64.2450   32.8590   48.2130 C   0  0  0  0  0  0  0  0  0  0  0  0
   64.0630   33.0600   49.5910 C   0  0  0  0  0  0  0  0  0  0  0  0
   65.0740   32.6440   50.5310 N   0  0  0  0  0  0  0  0  0  0  0  0
   64.7650   31.6700   51.5860 C   0  0  0  0  0  0  0  0  0  0  0  0
   65.7160   30.4660   51.5010 C   0  0  0  0  0  0  0  0  0  0  0  0
   67.1520   30.8480   51.0760 C   0  0  0  0  0  0  0  0  0  0  0  0
   67.4390   32.3460   51.2390 C   0  0  0  0  0  0  0  0  0  0  0  0
   66.4430   33.1720   50.4130 C   0  0  0  0  0  0  0  0  0  0  0  0
   62.8700   33.6480   50.0430 C   0  0  0  0  0  0  0  0  0  0  0  0
   61.8830   34.0370   49.1340 C   0  0  0  0  0  0  0  0  0  0  0  0
   58.9040   33.1370   45.8360 N   0  0  0  0  0  0  0  0  0  0  0  0
   58.2220   34.3230   45.3170 C   0  0  0  0  0  0  0  0  0  0  0  0
   60.6806   29.5659   50.2511 H   0  0  0  0  0  0  0  0  0  0  0  0
   61.8756   29.8371   48.9377 H   0  0  0  0  0  0  0  0  0  0  0  0
   60.3214   30.7376   48.9377 H   0  0  0  0  0  0  0  0  0  0  0  0
   60.5762   27.7003   48.6872 H   0  0  0  0  0  0  0  0  0  0  0  0
   59.0722   28.7136   48.5300 H   0  0  0  0  0  0  0  0  0  0  0  0
   61.3912   29.2725   46.6954 H   0  0  0  0  0  0  0  0  0  0  0  0
   60.3477   27.8237   46.3898 H   0  0  0  0  0  0  0  0  0  0  0  0
   56.1815   28.2113   44.5036 H   0  0  0  0  0  0  0  0  0  0  0  0
   55.2066   29.6570   44.9638 H   0  0  0  0  0  0  0  0  0  0  0  0
   55.6927   30.7606   42.8902 H   0  0  0  0  0  0  0  0  0  0  0  0
   56.9628   29.5625   42.4685 H   0  0  0  0  0  0  0  0  0  0  0  0
   55.2337   29.0759   42.4685 H   0  0  0  0  0  0  0  0  0  0  0  0
   61.3570   31.4830   47.2110 H   0  0  0  0  0  0  0  0  0  0  0  0
   61.4548   34.5945   45.8537 H   0  0  0  0  0  0  0  0  0  0  0  0
   60.3843   35.0406   47.2343 H   0  0  0  0  0  0  0  0  0  0  0  0
   63.4152   33.0924   46.2256 H   0  0  0  0  0  0  0  0  0  0  0  0
   65.1705   32.3903   47.8472 H   0  0  0  0  0  0  0  0  0  0  0  0
   64.8779   32.1520   52.5683 H   0  0  0  0  0  0  0  0  0  0  0  0
   63.7315   31.3175   51.4536 H   0  0  0  0  0  0  0  0  0  0  0  0
   65.7608   29.9864   52.4899 H   0  0  0  0  0  0  0  0  0  0  0  0
   65.3174   29.7907   50.7296 H   0  0  0  0  0  0  0  0  0  0  0  0
   67.8643   30.2838   51.6959 H   0  0  0  0  0  0  0  0  0  0  0  0
   67.2587   30.6035   50.0088 H   0  0  0  0  0  0  0  0  0  0  0  0
   67.3456   32.6201   52.3002 H   0  0  0  0  0  0  0  0  0  0  0  0
   68.4589   32.5557   50.8842 H   0  0  0  0  0  0  0  0  0  0  0  0
   66.4570   34.2117   50.7719 H   0  0  0  0  0  0  0  0  0  0  0  0
   66.7434   33.1178   49.3562 H   0  0  0  0  0  0  0  0  0  0  0  0
   62.7118   33.8033   51.1204 H   0  0  0  0  0  0  0  0  0  0  0  0
   60.9538   34.4981   49.5000 H   0  0  0  0  0  0  0  0  0  0  0  0
   57.8677   34.9391   46.1566 H   0  0  0  0  0  0  0  0  0  0  0  0
   58.9214   34.9085   44.7021 H   0  0  0  0  0  0  0  0  0  0  0  0
   57.3642   34.0130   44.7021 H   0  0  0  0  0  0  0  0  0  0  0  0
  1  2  1  0
  2  3  1  0
  3  4  1  0
  4  5  1  0
  5  6  2  0
  5  7  1  0
  7  8  1  0
  8  9  1  0
  7 10  1  0
 10 11  2  0
 10 12  1  0
 12 13  2  0
 13 14  1  0
 14 15  2  0
 15 16  1  0
 16 17  1  0
 17 18  2  0
 18 19  1  0
 19 20  2  0
 20 21  1  0
 21 22  1  0
 22 23  1  0
 23 24  1  0
 24 25  1  0
 25 26  1  0
 20 27  1  0
 27 28  2  0
 15 29  1  0
 29 30  1  0
 13  4  1  0
 28 17  1  0
 29 12  1  0
 26 21  1  0
  1 31  1  0
  1 32  1  0
  1 33  1  0
  2 34  1  0
  2 35  1  0
  3 36  1  0
  3 37  1  0
  8 38  1  0
  8 39  1  0
  9 40  1  0
  9 41  1  0
  9 42  1  0
 14 43  1  0
 16 44  1  0
 16 45  1  0
 18 46  1  0
 19 47  1  0
 22 48  1  0
 22 49  1  0
 23 50  1  0
 23 51  1  0
 24 52  1  0
 24 53  1  0
 25 54  1  0
 25 55  1  0
 26 56  1  0
 26 57  1  0
 27 58  1  0
 28 59  1  0
 30 60  1  0
 30 61  1  0
 30 62  1  0
M  CHG  1  14   1
M  END
>  <UniqueID>  (34) 
32

>  <SMILES>  (34) 
CCCn1c(=O)n(CC)c(=O)c2c1[nH+]c(Cc1ccc(N3CCCCC3)cc1)n2C

>  <Energy>  (34) 
107.88531409870745

>  <Genealogy>  (34) 
CCCn1c(=O)n(CC)c(=O)c2c1[nH+]c(Cc1ccc(N3CCCCC3)cc1)n2C (protonated)
CCCn1c(=O)n(CC)c(=O)c2c1[nH+]c(Cc1ccc(N3CCCCC3)cc1)n2C (3D coordinates assigned)
CCCn1c(=O)n(CC)c(=O)c2c1[nH+]c(Cc1ccc(N3CCCCC3)cc1)n2C (nonaromatic ring conformer: 107.88531409870745 kcal/mol)

>  <smiles>  (34) 
CCCn1c(=O)n(CC)c(=O)c2c1nc(Cc1ccc(N3CCCCC3)cc1)n2C

>  <score_type>  (34) 
oracle

>  <origin>  (34) 
adg

>  <m_score__min__energy>  (34) 
-6.3799999999999999

>  <m_primary>  (34) 
energy

$$$$
34:0
     RDKit          3D

 25 26  0  0  0  0  0  0  0  0999 V2000
   56.2940   29.7860   43.2420 C   0  0  0  0  0  0  0  0  0  0  0  0
   56.2720   30.4470   44.5040 O   0  0  0  0  0  0  0  0  0  0  0  0
   57.3780   31.0890   45.0820 C   0  0  0  0  0  0  0  0  0  0  0  0
   58.4070   30.3820   45.7280 C   0  0  0  0  0  0  0  0  0  0  0  0
   59.4900   31.0620   46.2900 C   0  0  0  0  0  0  0  0  0  0  0  0
   59.5730   32.4680   46.2200 C   0  0  0  0  0  0  0  0  0  0  0  0
   60.6610   33.1860   46.7820 C   0  0  0  0  0  0  0  0  0  0  0  0
   61.7960   32.4890   47.4870 C   0  0  0  0  0  0  0  0  0  0  0  0
   60.6840   34.5880   46.6790 C   0  0  0  0  0  0  0  0  0  0  0  0
   59.6560   35.2750   46.0350 C   0  0  0  0  0  0  0  0  0  0  0  0
   58.5840   34.5760   45.4810 C   0  0  0  0  0  0  0  0  0  0  0  0
   58.5310   33.1780   45.5670 C   0  0  0  0  0  0  0  0  0  0  0  0
   57.4490   32.4830   45.0070 C   0  0  0  0  0  0  0  0  0  0  0  0
   56.3302   28.6978   43.3986 H   0  0  0  0  0  0  0  0  0  0  0  0
   55.3867   30.0451   42.6765 H   0  0  0  0  0  0  0  0  0  0  0  0
   57.1820   30.1048   42.6765 H   0  0  0  0  0  0  0  0  0  0  0  0
   58.3590   29.2849   45.7914 H   0  0  0  0  0  0  0  0  0  0  0  0
   60.2870   30.4945   46.7928 H   0  0  0  0  0  0  0  0  0  0  0  0
   61.6587   32.5733   48.5751 H   0  0  0  0  0  0  0  0  0  0  0  0
   61.8089   31.4271   47.2002 H   0  0  0  0  0  0  0  0  0  0  0  0
   62.7489   32.9578   47.2002 H   0  0  0  0  0  0  0  0  0  0  0  0
   61.5243   35.1503   47.1123 H   0  0  0  0  0  0  0  0  0  0  0  0
   59.6906   36.3721   45.9636 H   0  0  0  0  0  0  0  0  0  0  0  0
   57.7763   35.1243   44.9742 H   0  0  0  0  0  0  0  0  0  0  0  0
   56.6467   33.0416   44.5028 H   0  0  0  0  0  0  0  0  0  0  0  0
  1  2  1  0
  2  3  1  0
  3  4  2  0
  4  5  1  0
  5  6  2  0
  6  7  1  0
  7  8  1  0
  7  9  2  0
  9 10  1  0
 10 11  2  0
 11 12  1  0
 12 13  2  0
 13  3  1  0
 12  6  1  0
  1 14  1  0
  1 15  1  0
  1 16  1  0
  4 17  1  0
  5 18  1  0
  8 19  1  0
  8 20  1  0
  8 21  1  0
  9 22  1  0
 10 23  1  0
 11 24  1  0
 13 25  1  0
M  END
>  <UniqueID>  (35) 
33

>  <SMILES>  (35) 
COc1ccc2c(C)cccc2c1

>  <Energy>  (35) 
29.432157189523487

>  <Genealogy>  (35) 
COc1ccc2c(C)cccc2c1 (3D coordinates assigned)
COc1ccc2c(C)cccc2c1 (optimized conformer: 29.432157189523487 kcal/mol)

>  <smiles>  (35) 
COc1ccc2c(C)cccc2c1

>  <score_type>  (35) 
oracle

>  <origin>  (35) 
adg

>  <m_score__min__energy>  (35) 
-5.7000000000000002

>  <m_primary>  (35) 
energy

$$$$
35:0
     RDKit          3D

 48 49  0  0  0  0  0  0  0  0999 V2000
   55.4440   30.3620   52.4820 C   0  0  0  0  0  0  0  0  0  0  0  0
   56.6580   29.9720   51.8490 O   0  0  0  0  0  0  0  0  0  0  0  0
   57.6190   30.8680   51.3580 C   0  0  0  0  0  0  0  0  0  0  0  0
   57.7010   32.1350   51.9410 C   0  0  0  0  0  0  0  0  0  0  0  0
   58.6390   33.0660   51.4910 C   0  0  0  0  0  0  0  0  0  0  0  0
   59.5090   32.7470   50.4330 C   0  0  0  0  0  0  0  0  0  0  0  0
   60.5090   33.7350   49.9660 C   0  0  0  0  0  0  0  0  0  0  0  0
   60.3170   34.3610   48.8880 O   0  0  0  0  0  0  0  0  0  0  0  0
   61.6960   33.9830   50.7300 N   0  0  0  0  0  0  0  0  0  0  0  0
   63.0240   33.5320   50.3210 C   0  0  0  0  0  0  0  0  0  0  0  0
   63.4290   34.1690   48.9900 C   0  0  0  0  0  0  0  0  0  0  0  0
   62.9400   33.3660   47.8650 N   0  0  0  0  0  0  0  0  0  0  0  0
   63.0230   31.9300   48.1720 C   0  0  0  0  0  0  0  0  0  0  0  0
   62.0430   31.1520   47.2880 C   0  0  0  0  0  0  0  0  0  0  0  0
   60.8250   31.9310   47.0500 N   0  0  0  0  0  0  0  0  0  0  0  0
   59.6750   31.4170   46.3510 C   0  0  0  0  0  0  0  0  0  0  0  0
   59.4860   30.0370   46.1420 C   0  0  0  0  0  0  0  0  0  0  0  0
   58.3650   29.5730   45.4460 C   0  0  0  0  0  0  0  0  0  0  0  0
   57.4110   30.4760   44.9450 C   0  0  0  0  0  0  0  0  0  0  0  0
   56.2270   29.9940   44.1950 C   0  0  0  0  0  0  0  0  0  0  0  0
   55.1470   29.3510   44.8690 N   0  0  0  0  0  0  0  0  0  0  0  0
   56.1670   30.1450   42.9440 O   0  0  0  0  0  0  0  0  0  0  0  0
   57.5980   31.8540   45.1660 C   0  0  0  0  0  0  0  0  0  0  0  0
   58.7160   32.3160   45.8630 C   0  0  0  0  0  0  0  0  0  0  0  0
   59.4320   31.4690   49.8520 C   0  0  0  0  0  0  0  0  0  0  0  0
   58.4970   30.5360   50.3100 C   0  0  0  0  0  0  0  0  0  0  0  0
   55.5704   30.3214   53.5740 H   0  0  0  0  0  0  0  0  0  0  0  0
   55.1865   31.3881   52.1806 H   0  0  0  0  0  0  0  0  0  0  0  0
   54.6371   29.6779   52.1806 H   0  0  0  0  0  0  0  0  0  0  0  0
   57.0199   32.4016   52.7626 H   0  0  0  0  0  0  0  0  0  0  0  0
   58.6980   34.0558   51.9672 H   0  0  0  0  0  0  0  0  0  0  0  0
   63.7545   33.8150   51.0932 H   0  0  0  0  0  0  0  0  0  0  0  0
   63.0020   32.4393   50.1963 H   0  0  0  0  0  0  0  0  0  0  0  0
   62.9991   35.1796   48.9270 H   0  0  0  0  0  0  0  0  0  0  0  0
   64.5267   34.2193   48.9398 H   0  0  0  0  0  0  0  0  0  0  0  0
   61.9300   33.5990   47.7000 H   0  0  0  0  0  0  0  0  0  0  0  0
   64.0467   31.5748   47.9824 H   0  0  0  0  0  0  0  0  0  0  0  0
   62.7643   31.7694   49.2290 H   0  0  0  0  0  0  0  0  0  0  0  0
   62.5242   30.9316   46.3237 H   0  0  0  0  0  0  0  0  0  0  0  0
   61.7695   30.2187   47.8019 H   0  0  0  0  0  0  0  0  0  0  0  0
   60.7910   32.9260   47.3750 H   0  0  0  0  0  0  0  0  0  0  0  0
   60.2248   29.3195   46.5286 H   0  0  0  0  0  0  0  0  0  0  0  0
   58.2287   28.4928   45.2894 H   0  0  0  0  0  0  0  0  0  0  0  0
   54.1890   29.3380   44.4550 H   0  0  0  0  0  0  0  0  0  0  0  0
   56.8569   32.5727   44.7862 H   0  0  0  0  0  0  0  0  0  0  0  0
   58.8457   33.3953   46.0309 H   0  0  0  0  0  0  0  0  0  0  0  0
   60.1128   31.2011   49.0306 H   0  0  0  0  0  0  0  0  0  0  0  0
   58.4476   29.5384   49.8492 H   0  0  0  0  0  0  0  0  0  0  0  0
  1  2  1  0
  2  3  1  0
  3  4  2  0
  4  5  1  0
  5  6  2  0
  6  7  1  0
  7  8  2  0
  7  9  1  0
  9 10  1  0
 10 11  1  0
 11 12  1  0
 12 13  1  0
 13 14  1  0
 14 15  1  0
 15 16  1  0
 16 17  2  0
 17 18  1  0
 18 19  2  0
 19 20  1  0
 20 21  1  0
 20 22  2  0
 19 23  1  0
 23 24  2  0
  6 25  1  0
 25 26  2  0
 26  3  1  0
 24 16  1  0
  1 27  1  0
  1 28  1  0
  1 29  1  0
  4 30  1  0
  5 31  1  0
 10 32  1  0
 10 33  1  0
 11 34  1  0
 11 35  1  0
 12 36  1  0
 13 37  1  0
 13 38  1  0
 14 39  1  0
 14 40  1  0
 15 41  1  0
 17 42  1  0
 18 43  1  0
 21 44  1  0
 23 45  1  0
 24 46  1  0
 25 47  1  0
 26 48  1  0
M  CHG  2   9  -1  21  -1
M  END
>  <UniqueID>  (36) 
34

>  <SMILES>  (36) 
COc1ccc(C(=O)[N-]CCNCCNc2ccc(C([NH-])=O)cc2)cc1

>  <Energy>  (36) 
42.10688329638989

>  <Genealogy>  (36) 
COc1ccc(C(=O)[N-]CCNCCNc2ccc(C([NH-])=O)cc2)cc1 (protonated)
COc1ccc(C(=O)[N-]CCNCCNc2ccc(C([NH-])=O)cc2)cc1 (3D coordinates assigned)
COc1ccc(C(=O)[N-]CCNCCNc2ccc(C([NH-])=O)cc2)cc1 (optimized conformer: 42.10688329638989 kcal/mol)

>  <smiles>  (36) 
COc1ccc(C(=O)NCCNCCNc2ccc(C(N)=O)cc2)cc1

>  <score_type>  (36) 
oracle

>  <origin>  (36) 
adg

>  <m_score__min__energy>  (36) 
-10.49

>  <m_primary>  (36) 
energy

$$$$
36:0
     RDKit          3D

 49 52  0  0  0  0  0  0  0  0999 V2000
   61.5880   30.3470   47.2460 H   0  0  0  0  0  0  0  0  0  0  0  0
   61.2310   31.2130   47.6330 O   0  0  0  0  0  0  0  0  0  0  0  0
   60.3350   31.2120   48.6980 C   0  0  0  0  0  0  0  0  0  0  0  0
   59.8240   30.0810   49.3170 C   0  0  0  0  0  0  0  0  0  0  0  0
   60.1350   28.7330   48.9550 N   0  0  0  0  0  0  0  0  0  0  0  0
   60.6750   28.4390   47.8430 N   0  0  0  0  0  0  0  0  0  0  0  0
   59.9400   28.5010   46.6180 C   0  0  0  0  0  0  0  0  0  0  0  0
   59.8130   27.1350   45.7210 S   0  0  0  0  0  0  0  0  0  0  0  0
   59.5120   29.7710   46.0920 N   0  0  0  0  0  0  0  0  0  0  0  0
   60.0640   30.6190   46.3520 H   0  0  0  0  0  0  0  0  0  0  0  0
   58.3970   29.9440   45.2010 C   0  0  0  0  0  0  0  0  0  0  0  0
   57.2130   29.1990   45.3560 C   0  0  0  0  0  0  0  0  0  0  0  0
   57.1385   28.4498   46.1580 H   0  0  0  0  0  0  0  0  0  0  0  0
   56.1310   29.4070   44.4950 C   0  0  0  0  0  0  0  0  0  0  0  0
   55.2115   28.8153   44.6156 H   0  0  0  0  0  0  0  0  0  0  0  0
   56.2160   30.3650   43.4820 C   0  0  0  0  0  0  0  0  0  0  0  0
   55.3672   30.5210   42.8000 H   0  0  0  0  0  0  0  0  0  0  0  0
   57.3790   31.1250   43.3350 C   0  0  0  0  0  0  0  0  0  0  0  0
   57.4426   31.8840   42.5413 H   0  0  0  0  0  0  0  0  0  0  0  0
   58.4630   30.9220   44.1960 C   0  0  0  0  0  0  0  0  0  0  0  0
   59.3717   31.5319   44.0849 H   0  0  0  0  0  0  0  0  0  0  0  0
   58.9650   30.5420   50.3040 C   0  0  0  0  0  0  0  0  0  0  0  0
   58.1580   29.8700   51.2260 C   0  0  0  0  0  0  0  0  0  0  0  0
   58.1405   28.7710   51.2683 H   0  0  0  0  0  0  0  0  0  0  0  0
   57.3690   30.6410   52.0980 C   0  0  0  0  0  0  0  0  0  0  0  0
   56.2470   29.7740   53.3780 Br  0  0  0  0  0  0  0  0  0  0  0  0
   57.3980   32.0500   52.0320 C   0  0  0  0  0  0  0  0  0  0  0  0
   56.7757   32.6413   52.7199 H   0  0  0  0  0  0  0  0  0  0  0  0
   58.2150   32.7040   51.0950 C   0  0  0  0  0  0  0  0  0  0  0  0
   58.2395   33.8021   51.0356 H   0  0  0  0  0  0  0  0  0  0  0  0
   58.9970   31.9200   50.2390 C   0  0  0  0  0  0  0  0  0  0  0  0
   59.8400   32.3370   49.2640 N   0  0  0  0  0  0  0  0  0  0  0  0
   60.1280   33.7070   48.8320 C   0  0  0  0  0  0  0  0  0  0  0  0
   59.9001   34.4018   49.6538 H   0  0  0  0  0  0  0  0  0  0  0  0
   61.1914   33.7796   48.5600 H   0  0  0  0  0  0  0  0  0  0  0  0
   59.3080   34.0580   47.6570 N   0  0  0  0  0  0  0  0  0  0  0  0
   60.1320   34.1330   46.4320 C   0  0  0  0  0  0  0  0  0  0  0  0
   60.7773   35.0221   46.4869 H   0  0  0  0  0  0  0  0  0  0  0  0
   60.7392   33.2184   46.3627 H   0  0  0  0  0  0  0  0  0  0  0  0
   59.2470   34.2300   45.1730 C   0  0  0  0  0  0  0  0  0  0  0  0
   59.6365   35.0249   44.5200 H   0  0  0  0  0  0  0  0  0  0  0  0
   59.2680   33.2602   44.6544 H   0  0  0  0  0  0  0  0  0  0  0  0
   57.9090   34.5280   45.5160 O   0  0  0  0  0  0  0  0  0  0  0  0
   57.3560   33.4550   46.2570 C   0  0  0  0  0  0  0  0  0  0  0  0
   56.3573   33.7484   46.6127 H   0  0  0  0  0  0  0  0  0  0  0  0
   57.3048   32.5790   45.5937 H   0  0  0  0  0  0  0  0  0  0  0  0
   58.2250   33.0750   47.4750 C   0  0  0  0  0  0  0  0  0  0  0  0
   57.5965   33.0562   48.3775 H   0  0  0  0  0  0  0  0  0  0  0  0
   58.6675   32.0826   47.3034 H   0  0  0  0  0  0  0  0  0  0  0  0
  1  2  1  0
  2  3  1  0
  3  4  2  0
  4  5  1  0
  5  6  2  0
  6  7  1  0
  7  8  2  0
  7  9  1  0
  9 10  1  0
  9 11  1  0
 11 12  2  0
 12 13  1  0
 12 14  1  0
 14 15  1  0
 14 16  2  0
 16 17  1  0
 16 18  1  0
 18 19  1  0
 18 20  2  0
 20 21  1  0
  4 22  1  0
 22 23  2  0
 23 24  1  0
 23 25  1  0
 25 26  1  0
 25 27  2  0
 27 28  1  0
 27 29  1  0
 29 30  1  0
 29 31  2  0
 31 32  1  0
 32 33  1  0
 33 34  1  0
 33 35  1  0
 33 36  1  0
 36 37  1  0
 37 38  1  0
 37 39  1  0
 37 40  1  0
 40 41  1  0
 40 42  1  0
 40 43  1  0
 43 44  1  0
 44 45  1  0
 44 46  1  0
 44 47  1  0
 47 48  1  0
 47 49  1  0
 32  3  1  0
 47 36  1  0
 20 11  1  0
 31 22  1  0
M  END
>  <UniqueID>  (37) 
35

>  <SMILES>  (37) 
Oc1c(/N=N/C(=S)Nc2ccccc2)c2cc(Br)ccc2n1CN1CCOCC1

>  <Energy>  (37) 
100.65792469814386

>  <Genealogy>  (37) 
Oc1c(/N=N/C(=S)Nc2ccccc2)c2cc(Br)ccc2n1CN1CCOCC1 (cis-trans isomerization)
Oc1c(/N=N/C(=S)Nc2ccccc2)c2cc(Br)ccc2n1CN1CCOCC1 (3D coordinates assigned)
Oc1c(/N=N/C(=S)Nc2ccccc2)c2cc(Br)ccc2n1CN1CCOCC1 (nonaromatic ring conformer: 100.65792469814386 kcal/mol)

>  <smiles>  (37) 
Oc1c(N=NC(=S)Nc2ccccc2)c2cc(Br)ccc2n1CN1CCOCC1

>  <score_type>  (37) 
oracle

>  <origin>  (37) 
adg

>  <m_score__min__energy>  (37) 
-8.5199999999999996

>  <m_primary>  (37) 
energy

$$$$
37:0
     RDKit          3D

 47 50  0  0  0  0  0  0  0  0999 V2000
   60.1810   29.8740   48.0230 C   0  0  0  0  0  0  0  0  0  0  0  0
   60.9650   30.6430   46.9630 C   0  0  0  0  0  0  0  0  0  0  0  0
   60.3540   31.9560   46.7140 N   0  0  0  0  0  0  0  0  0  0  0  0
   60.6820   33.1110   47.3670 C   0  0  0  0  0  0  0  0  0  0  0  0
   61.8480   33.2870   48.2560 C   0  0  0  0  0  0  0  0  0  0  0  0
   63.1330   32.9400   47.8150 C   0  0  0  0  0  0  0  0  0  0  0  0
   64.2280   33.1500   48.6570 C   0  0  0  0  0  0  0  0  0  0  0  0
   64.0470   33.6990   49.8870 N   0  0  0  0  0  0  0  0  0  0  0  0
   62.8150   34.0590   50.3330 C   0  0  0  0  0  0  0  0  0  0  0  0
   61.6920   33.8660   49.5240 C   0  0  0  0  0  0  0  0  0  0  0  0
   60.4650   34.2250   49.9810 F   0  0  0  0  0  0  0  0  0  0  0  0
   59.8180   34.1190   47.1150 N   0  0  0  0  0  0  0  0  0  0  0  0
   58.9240   33.5870   46.2750 C   0  0  0  0  0  0  0  0  0  0  0  0
   57.8190   34.2170   45.7240 C   0  0  0  0  0  0  0  0  0  0  0  0
   57.0190   33.5000   44.8910 N   0  0  0  0  0  0  0  0  0  0  0  0
   57.2840   32.1960   44.5810 C   0  0  0  0  0  0  0  0  0  0  0  0
   58.4090   31.5250   45.1180 C   0  0  0  0  0  0  0  0  0  0  0  0
   58.6850   30.1340   44.5920 C   0  0  0  0  0  0  0  0  0  0  0  0
   57.7980   29.1500   45.2370 N   0  0  0  0  0  0  0  0  0  0  0  0
   58.4720   27.8730   45.5270 C   0  0  0  0  0  0  0  0  0  0  0  0
   57.5170   26.7100   45.4310 C   0  0  0  0  0  0  0  0  0  0  0  0
   57.7760   25.6390   44.5640 C   0  0  0  0  0  0  0  0  0  0  0  0
   56.8740   24.5770   44.4750 C   0  0  0  0  0  0  0  0  0  0  0  0
   55.7270   24.5860   45.2680 C   0  0  0  0  0  0  0  0  0  0  0  0
   55.5020   25.6150   46.1280 N   0  0  0  0  0  0  0  0  0  0  0  0
   56.3650   26.6600   46.2340 C   0  0  0  0  0  0  0  0  0  0  0  0
   59.2290   32.2750   46.0090 C   0  0  0  0  0  0  0  0  0  0  0  0
   60.5068   30.1936   49.0238 H   0  0  0  0  0  0  0  0  0  0  0  0
   59.1066   30.0783   47.9045 H   0  0  0  0  0  0  0  0  0  0  0  0
   60.3645   28.7959   47.9045 H   0  0  0  0  0  0  0  0  0  0  0  0
   61.9984   30.7862   47.3116 H   0  0  0  0  0  0  0  0  0  0  0  0
   60.9539   30.0651   46.0271 H   0  0  0  0  0  0  0  0  0  0  0  0
   63.2777   32.5061   46.8146 H   0  0  0  0  0  0  0  0  0  0  0  0
   65.2384   32.8705   48.3238 H   0  0  0  0  0  0  0  0  0  0  0  0
   62.7014   34.5032   51.3329 H   0  0  0  0  0  0  0  0  0  0  0  0
   59.8450   35.0950   47.4860 H   0  0  0  0  0  0  0  0  0  0  0  0
   57.5954   35.2691   45.9547 H   0  0  0  0  0  0  0  0  0  0  0  0
   56.6093   31.6564   43.9001 H   0  0  0  0  0  0  0  0  0  0  0  0
   58.5135   30.1177   43.5056 H   0  0  0  0  0  0  0  0  0  0  0  0
   59.7292   29.8708   44.8165 H   0  0  0  0  0  0  0  0  0  0  0  0
   57.5000   29.5550   46.1560 H   0  0  0  0  0  0  0  0  0  0  0  0
   59.2873   27.7267   44.8033 H   0  0  0  0  0  0  0  0  0  0  0  0
   58.8631   27.9146   46.5543 H   0  0  0  0  0  0  0  0  0  0  0  0
   58.6909   25.6354   43.9532 H   0  0  0  0  0  0  0  0  0  0  0  0
   57.0663   23.7413   43.7860 H   0  0  0  0  0  0  0  0  0  0  0  0
   55.0038   23.7602   45.1978 H   0  0  0  0  0  0  0  0  0  0  0  0
   56.1608   27.4691   46.9507 H   0  0  0  0  0  0  0  0  0  0  0  0
  1  2  1  0
  2  3  1  0
  3  4  1  0
  4  5  1  0
  5  6  2  0
  6  7  1  0
  7  8  2  0
  8  9  1  0
  9 10  2  0
 10 11  1  0
  4 12  2  0
 12 13  1  0
 13 14  2  0
 14 15  1  0
 15 16  2  0
 16 17  1  0
 17 18  1  0
 18 19  1  0
 19 20  1  0
 20 21  1  0
 21 22  2  0
 22 23  1  0
 23 24  2  0
 24 25  1  0
 25 26  2  0
 17 27  2  0
 27  3  1  0
 10  5  1  0
 27 13  1  0
 26 21  1  0
  1 28  1  0
  1 29  1  0
  1 30  1  0
  2 31  1  0
  2 32  1  0
  6 33  1  0
  7 34  1  0
  9 35  1  0
 12 36  1  0
 14 37  1  0
 16 38  1  0
 18 39  1  0
 18 40  1  0
 19 41  1  0
 20 42  1  0
 20 43  1  0
 22 44  1  0
 23 45  1  0
 24 46  1  0
 26 47  1  0
M  CHG  1  12   1
M  END
>  <UniqueID>  (38) 
36

>  <SMILES>  (38) 
CCn1c(-c2ccncc2F)[nH+]c2cncc(CNCc3cccnc3)c21

>  <Energy>  (38) 
100.04024197071595

>  <Genealogy>  (38) 
CCn1c(-c2ccncc2F)[nH+]c2cncc(CNCc3cccnc3)c21 (protonated)
CCn1c(-c2ccncc2F)[nH+]c2cncc(CNCc3cccnc3)c21 (3D coordinates assigned)
CCn1c(-c2ccncc2F)[nH+]c2cncc(CNCc3cccnc3)c21 (optimized conformer: 100.04024197071595 kcal/mol)

>  <smiles>  (38) 
CCn1c(-c2ccncc2F)nc2cncc(CNCc3cccnc3)c21

>  <score_type>  (38) 
oracle

>  <origin>  (38) 
adg

>  <m_score__min__energy>  (38) 
-6.3700000000000001

>  <m_primary>  (38) 
energy

$$$$
38:0
     RDKit          3D

 53 56  0  0  0  0  0  0  0  0999 V2000
   67.9330   33.2670   50.4940 C   0  0  0  0  0  0  0  0  0  0  0  0
   66.9830   32.7270   51.2630 C   0  0  0  0  0  0  0  0  0  0  0  0
   66.1100   31.5910   50.7760 C   0  0  0  0  0  0  0  0  0  0  0  0
   64.9650   32.0310   49.9400 N   0  0  0  0  0  0  0  0  0  0  0  0
   64.6710   33.4760   50.1100 C   0  0  0  0  0  0  0  0  0  0  0  0
   63.2310   33.8480   49.6910 C   0  0  0  0  0  0  0  0  0  0  0  0
   62.6990   32.9430   48.6550 N   0  0  0  0  0  0  0  0  0  0  0  0
   63.3310   33.1460   47.3290 C   0  0  0  0  0  0  0  0  0  0  0  0
   62.3420   33.8260   46.3790 C   0  0  0  0  0  0  0  0  0  0  0  0
   60.9990   33.8800   46.9590 N   0  0  0  0  0  0  0  0  0  0  0  0
   59.7790   33.6800   46.2130 C   0  0  0  0  0  0  0  0  0  0  0  0
   59.0990   34.7590   45.6190 C   0  0  0  0  0  0  0  0  0  0  0  0
   57.9240   34.5490   44.8960 C   0  0  0  0  0  0  0  0  0  0  0  0
   57.4060   33.2620   44.7520 C   0  0  0  0  0  0  0  0  0  0  0  0
   58.0650   32.1660   45.3330 C   0  0  0  0  0  0  0  0  0  0  0  0
   57.5800   30.8520   45.2020 C   0  0  0  0  0  0  0  0  0  0  0  0
   56.5180   30.6260   44.5570 O   0  0  0  0  0  0  0  0  0  0  0  0
   58.2890   29.7950   45.7950 C   0  0  0  0  0  0  0  0  0  0  0  0
   57.8590   28.4580   45.7010 C   0  0  0  0  0  0  0  0  0  0  0  0
   58.6010   27.4380   46.3050 C   0  0  0  0  0  0  0  0  0  0  0  0
   59.7720   27.7400   47.0050 C   0  0  0  0  0  0  0  0  0  0  0  0
   60.2070   29.0640   47.1060 C   0  0  0  0  0  0  0  0  0  0  0  0
   59.4730   30.0930   46.5060 C   0  0  0  0  0  0  0  0  0  0  0  0
   59.8990   31.3480   46.6100 O   0  0  0  0  0  0  0  0  0  0  0  0
   59.2580   32.3790   46.0670 C   0  0  0  0  0  0  0  0  0  0  0  0
   62.6780   31.5250   49.1000 C   0  0  0  0  0  0  0  0  0  0  0  0
   63.7630   31.1980   50.1500 C   0  0  0  0  0  0  0  0  0  0  0  0
   68.5499   34.0920   50.8797 H   0  0  0  0  0  0  0  0  0  0  0  0
   68.0982   32.8865   49.4752 H   0  0  0  0  0  0  0  0  0  0  0  0
   66.8312   33.1195   52.2793 H   0  0  0  0  0  0  0  0  0  0  0  0
   66.7318   30.9068   50.1800 H   0  0  0  0  0  0  0  0  0  0  0  0
   65.6874   31.1065   51.6686 H   0  0  0  0  0  0  0  0  0  0  0  0
   65.2740   31.8850   48.9500 H   0  0  0  0  0  0  0  0  0  0  0  0
   64.8081   33.7402   51.1689 H   0  0  0  0  0  0  0  0  0  0  0  0
   65.3598   34.0328   49.4577 H   0  0  0  0  0  0  0  0  0  0  0  0
   62.5799   33.7944   50.5760 H   0  0  0  0  0  0  0  0  0  0  0  0
   63.2543   34.8643   49.2709 H   0  0  0  0  0  0  0  0  0  0  0  0
   64.2222   33.7806   47.4431 H   0  0  0  0  0  0  0  0  0  0  0  0
   63.6203   32.1699   46.9125 H   0  0  0  0  0  0  0  0  0  0  0  0
   62.6864   34.8509   46.1767 H   0  0  0  0  0  0  0  0  0  0  0  0
   62.2953   33.2405   45.4490 H   0  0  0  0  0  0  0  0  0  0  0  0
   60.9390   34.0260   47.9920 H   0  0  0  0  0  0  0  0  0  0  0  0
   59.4976   35.7787   45.7256 H   0  0  0  0  0  0  0  0  0  0  0  0
   57.4037   35.4028   44.4373 H   0  0  0  0  0  0  0  0  0  0  0  0
   56.4786   33.1048   44.1817 H   0  0  0  0  0  0  0  0  0  0  0  0
   56.9376   28.2150   45.1514 H   0  0  0  0  0  0  0  0  0  0  0  0
   58.2616   26.3944   46.2288 H   0  0  0  0  0  0  0  0  0  0  0  0
   60.3525   26.9339   47.4775 H   0  0  0  0  0  0  0  0  0  0  0  0
   61.1289   29.2979   47.6586 H   0  0  0  0  0  0  0  0  0  0  0  0
   61.6921   31.3112   49.5385 H   0  0  0  0  0  0  0  0  0  0  0  0
   62.8821   30.9030   48.2160 H   0  0  0  0  0  0  0  0  0  0  0  0
   63.3615   31.3915   51.1556 H   0  0  0  0  0  0  0  0  0  0  0  0
   64.0453   30.1398   50.0472 H   0  0  0  0  0  0  0  0  0  0  0  0
  1  2  2  0
  2  3  1  0
  3  4  1  0
  4  5  1  0
  5  6  1  0
  6  7  1  0
  7  8  1  0
  8  9  1  0
  9 10  1  0
 10 11  1  0
 11 12  2  0
 12 13  1  0
 13 14  2  0
 14 15  1  0
 15 16  1  0
 16 17  2  0
 16 18  1  0
 18 19  2  0
 19 20  1  0
 20 21  2  0
 21 22  1  0
 22 23  2  0
 23 24  1  0
 24 25  1  0
  7 26  1  0
 26 27  1  0
 27  4  1  0
 25 11  1  0
 25 15  2  0
 23 18  1  0
  1 28  1  0
  1 29  1  0
  2 30  1  0
  3 31  1  0
  3 32  1  0
  4 33  1  0
  5 34  1  0
  5 35  1  0
  6 36  1  0
  6 37  1  0
  8 38  1  0
  8 39  1  0
  9 40  1  0
  9 41  1  0
 10 42  1  0
 12 43  1  0
 13 44  1  0
 14 45  1  0
 19 46  1  0
 20 47  1  0
 21 48  1  0
 22 49  1  0
 26 50  1  0
 26 51  1  0
 27 52  1  0
 27 53  1  0
M  CHG  1   4   1
M  END
>  <UniqueID>  (39) 
37

>  <SMILES>  (39) 
C=CC[NH+]1CCN(CCNc2cccc3c(=O)c4ccccc4oc23)CC1

>  <Energy>  (39) 
77.22240863199796

>  <Genealogy>  (39) 
C=CC[NH+]1CCN(CCNc2cccc3c(=O)c4ccccc4oc23)CC1 (protonated)
C=CC[NH+]1CCN(CCNc2cccc3c(=O)c4ccccc4oc23)CC1 (3D coordinates assigned)
C=CC[NH+]1CCN(CCNc2cccc3c(=O)c4ccccc4oc23)CC1 (nonaromatic ring conformer: 77.22240863199796 kcal/mol)

>  <smiles>  (39) 
C=CCN1CCN(CCNc2cccc3c(=O)c4ccccc4oc23)CC1

>  <score_type>  (39) 
oracle

>  <origin>  (39) 
adg

>  <m_score__min__energy>  (39) 
-6.7999999999999998

>  <m_primary>  (39) 
energy

$$$$
39:0
     RDKit          3D

 52 55  0  0  0  0  0  0  0  0999 V2000
   57.2620   33.3800   45.2800 C   0  0  0  0  0  0  0  0  0  0  0  0
   57.8780   32.6890   44.0620 C   0  0  0  0  0  0  0  0  0  0  0  0
   57.0580   31.4750   43.5850 C   0  0  0  0  0  0  0  0  0  0  0  0
   56.2960   30.8200   44.6620 N   0  0  0  0  0  0  0  0  0  0  0  0
   56.1920   29.3560   44.5120 C   0  0  0  0  0  0  0  0  0  0  0  0
   57.2820   28.6160   45.3100 C   0  0  0  0  0  0  0  0  0  0  0  0
   58.5750   29.3470   45.2960 N   0  0  0  0  0  0  0  0  0  0  0  0
   59.7200   28.5170   44.8610 C   0  0  0  0  0  0  0  0  0  0  0  0
   60.0490   27.4010   45.8560 C   0  0  0  0  0  0  0  0  0  0  0  0
   60.0500   27.8920   47.2780 C   0  0  0  0  0  0  0  0  0  0  0  0
   60.6550   27.0970   48.2620 C   0  0  0  0  0  0  0  0  0  0  0  0
   60.6680   27.5110   49.5920 C   0  0  0  0  0  0  0  0  0  0  0  0
   60.0680   28.7140   49.9570 C   0  0  0  0  0  0  0  0  0  0  0  0
   59.4320   29.5130   48.9920 C   0  0  0  0  0  0  0  0  0  0  0  0
   59.4060   29.0970   47.6450 C   0  0  0  0  0  0  0  0  0  0  0  0
   58.8330   30.0290   46.5930 C   0  0  1  0  0  0  0  0  0  0  0  0
   59.7880   31.2180   46.3970 C   0  0  0  0  0  0  0  0  0  0  0  0
   59.8650   32.2460   47.5220 C   0  0  0  0  0  0  0  0  0  0  0  0
   60.4670   33.4710   47.1700 C   0  0  0  0  0  0  0  0  0  0  0  0
   60.6800   34.4730   48.1130 C   0  0  0  0  0  0  0  0  0  0  0  0
   60.3060   34.2740   49.4360 C   0  0  0  0  0  0  0  0  0  0  0  0
   59.7190   33.0730   49.8220 C   0  0  0  0  0  0  0  0  0  0  0  0
   59.4970   32.0340   48.8920 C   0  0  0  0  0  0  0  0  0  0  0  0
   58.7740   30.8040   49.4090 C   0  0  0  0  0  0  0  0  0  0  0  0
   57.6638   32.9293   46.1995 H   0  0  0  0  0  0  0  0  0  0  0  0
   57.5101   34.4514   45.2582 H   0  0  0  0  0  0  0  0  0  0  0  0
   56.1692   33.2561   45.2582 H   0  0  0  0  0  0  0  0  0  0  0  0
   57.9396   33.4165   43.2392 H   0  0  0  0  0  0  0  0  0  0  0  0
   58.8717   32.3214   44.3576 H   0  0  0  0  0  0  0  0  0  0  0  0
   56.3501   31.8142   42.8144 H   0  0  0  0  0  0  0  0  0  0  0  0
   57.7729   30.7339   43.1980 H   0  0  0  0  0  0  0  0  0  0  0  0
   56.6510   31.1050   45.6030 H   0  0  0  0  0  0  0  0  0  0  0  0
   55.2051   29.0311   44.8731 H   0  0  0  0  0  0  0  0  0  0  0  0
   56.3257   29.1129   43.4476 H   0  0  0  0  0  0  0  0  0  0  0  0
   56.9469   28.5070   46.3520 H   0  0  0  0  0  0  0  0  0  0  0  0
   57.4412   27.6350   44.8385 H   0  0  0  0  0  0  0  0  0  0  0  0
   59.4767   28.0624   43.8893 H   0  0  0  0  0  0  0  0  0  0  0  0
   60.6004   29.1730   44.7926 H   0  0  0  0  0  0  0  0  0  0  0  0
   59.2971   26.6042   45.7565 H   0  0  0  0  0  0  0  0  0  0  0  0
   61.0582   27.0289   45.6257 H   0  0  0  0  0  0  0  0  0  0  0  0
   61.1219   26.1411   47.9821 H   0  0  0  0  0  0  0  0  0  0  0  0
   61.1534   26.8862   50.3562 H   0  0  0  0  0  0  0  0  0  0  0  0
   60.0923   29.0404   51.0072 H   0  0  0  0  0  0  0  0  0  0  0  0
   57.8565   30.3830   46.9551 H   0  0  0  0  0  0  0  0  0  0  0  0
   60.7991   30.8095   46.2528 H   0  0  0  0  0  0  0  0  0  0  0  0
   59.3796   31.7698   45.5375 H   0  0  0  0  0  0  0  0  0  0  0  0
   60.7752   33.6390   46.1275 H   0  0  0  0  0  0  0  0  0  0  0  0
   61.1448   35.4229   47.8102 H   0  0  0  0  0  0  0  0  0  0  0  0
   60.4742   35.0670   50.1795 H   0  0  0  0  0  0  0  0  0  0  0  0
   59.4223   32.9302   50.8716 H   0  0  0  0  0  0  0  0  0  0  0  0
   58.7519   30.8468   50.5079 H   0  0  0  0  0  0  0  0  0  0  0  0
   57.7626   30.8117   48.9765 H   0  0  0  0  0  0  0  0  0  0  0  0
  1  2  1  0
  2  3  1  0
  3  4  1  0
  4  5  1  0
  5  6  1  0
  6  7  1  0
  7  8  1  0
  8  9  1  0
  9 10  1  0
 10 11  2  0
 11 12  1  0
 12 13  2  0
 13 14  1  0
 14 15  2  0
 15 16  1  0
 16 17  1  0
 17 18  1  0
 18 19  2  0
 19 20  1  0
 20 21  2  0
 21 22  1  0
 22 23  2  0
 23 24  1  0
 16  7  1  0
 23 18  1  0
 15 10  1  0
 24 14  1  0
  1 25  1  0
  1 26  1  0
  1 27  1  0
  2 28  1  0
  2 29  1  0
  3 30  1  0
  3 31  1  0
  4 32  1  0
  5 33  1  0
  5 34  1  0
  6 35  1  0
  6 36  1  0
  8 37  1  0
  8 38  1  0
  9 39  1  0
  9 40  1  0
 11 41  1  0
 12 42  1  0
 13 43  1  0
 16 44  1  1
 17 45  1  0
 17 46  1  0
 19 47  1  0
 20 48  1  0
 21 49  1  0
 22 50  1  0
 24 51  1  0
 24 52  1  0
M  END
>  <UniqueID>  (40) 
38

>  <SMILES>  (40) 
CCCNCCN1CCc2cccc3c2[C@H]1Cc1ccccc1C3

>  <Energy>  (40) 
73.83621707628443

>  <Genealogy>  (40) 
CCCNCCN1CCc2cccc3c2[C@H]1Cc1ccccc1C3 (chirality)
CCCNCCN1CCc2cccc3c2[C@H]1Cc1ccccc1C3 (3D coordinates assigned)
CCCNCCN1CCc2cccc3c2[C@H]1Cc1ccccc1C3 (nonaromatic ring conformer: 73.83621707628443 kcal/mol)

>  <smiles>  (40) 
CCCNCCN1CCc2cccc3c2C1Cc1ccccc1C3

>  <score_type>  (40) 
oracle

>  <origin>  (40) 
adg

>  <m_score__min__energy>  (40) 
-7.0199999999999996

>  <m_primary>  (40) 
energy

$$$$
