0:0
     RDKit          3D

 62 63  0  0  0  0  0  0  0  0999 V2000
   57.7990   33.4620   47.0690 C   0  0  0  0  0  0  0  0  0  0  0  0
   58.8140   34.3750   46.3810 C   0  0  0  0  0  0  0  0  0  0  0  0
   58.9360   34.1030   44.8730 C   0  0  0  0  0  0  0  0  0  0  0  0
   57.9440   33.0370   44.3910 C   0  0  0  0  0  0  0  0  0  0  0  0
   58.1460   32.7080   42.9060 C   0  0  0  0  0  0  0  0  0  0  0  0
   57.4400   31.4670   42.5570 N   0  0  0  0  0  0  0  0  0  0  0  0
   56.6530   30.9260   43.6800 C   0  0  0  0  0  0  0  0  0  0  0  0
   56.7900   29.4020   43.7260 C   0  0  0  0  0  0  0  0  0  0  0  0
   57.4550   28.9570   45.0040 C   0  0  0  0  0  0  0  0  0  0  0  0
   57.1210   27.7270   45.5840 C   0  0  0  0  0  0  0  0  0  0  0  0
   57.8090   27.2660   46.7070 C   0  0  0  0  0  0  0  0  0  0  0  0
   58.8510   28.0280   47.2690 C   0  0  0  0  0  0  0  0  0  0  0  0
   59.5660   27.5830   48.3940 O   0  0  0  0  0  0  0  0  0  0  0  0
   60.7630   26.8130   48.3390 C   0  0  0  0  0  0  0  0  0  0  0  0
   59.1890   29.2710   46.6960 C   0  0  0  0  0  0  0  0  0  0  0  0
   60.2610   30.0500   47.2640 N   0  0  0  0  0  0  0  0  0  0  0  0
   60.4870   31.4680   46.9770 C   0  0  0  0  0  0  0  0  0  0  0  0
   61.7520   31.9550   47.6430 C   0  0  0  0  0  0  0  0  0  0  0  0
   62.5800   32.8760   46.9810 C   0  0  0  0  0  0  0  0  0  0  0  0
   63.7420   33.3500   47.5890 C   0  0  0  0  0  0  0  0  0  0  0  0
   64.1030   32.9050   48.8710 C   0  0  0  0  0  0  0  0  0  0  0  0
   65.2620   33.3560   49.5250 O   0  0  0  0  0  0  0  0  0  0  0  0
   66.2250   32.5030   50.1330 C   0  0  0  0  0  0  0  0  0  0  0  0
   63.2880   31.9800   49.5300 C   0  0  0  0  0  0  0  0  0  0  0  0
   62.1110   31.4940   48.9270 C   0  0  0  0  0  0  0  0  0  0  0  0
   61.2780   30.5640   49.5710 O   0  0  0  0  0  0  0  0  0  0  0  0
   61.6880   29.7110   50.6350 C   0  0  0  0  0  0  0  0  0  0  0  0
   58.4870   29.7230   45.5630 C   0  0  0  0  0  0  0  0  0  0  0  0
   57.9026   33.5552   48.1601 H   0  0  0  0  0  0  0  0  0  0  0  0
   56.7814   33.7547   46.7709 H   0  0  0  0  0  0  0  0  0  0  0  0
   57.9827   32.4192   46.7709 H   0  0  0  0  0  0  0  0  0  0  0  0
   58.5010   35.4196   46.5252 H   0  0  0  0  0  0  0  0  0  0  0  0
   59.7969   34.1765   46.8332 H   0  0  0  0  0  0  0  0  0  0  0  0
   58.7421   35.0387   44.3281 H   0  0  0  0  0  0  0  0  0  0  0  0
   59.9521   33.7285   44.6800 H   0  0  0  0  0  0  0  0  0  0  0  0
   58.0889   32.1210   44.9825 H   0  0  0  0  0  0  0  0  0  0  0  0
   56.9253   33.4312   44.5207 H   0  0  0  0  0  0  0  0  0  0  0  0
   57.7523   33.5335   42.2948 H   0  0  0  0  0  0  0  0  0  0  0  0
   59.2206   32.5745   42.7124 H   0  0  0  0  0  0  0  0  0  0  0  0
   56.7850   31.6750   41.7670 H   0  0  0  0  0  0  0  0  0  0  0  0
   57.0222   31.3540   44.6237 H   0  0  0  0  0  0  0  0  0  0  0  0
   55.5944   31.1903   43.5407 H   0  0  0  0  0  0  0  0  0  0  0  0
   55.7895   28.9490   43.6646 H   0  0  0  0  0  0  0  0  0  0  0  0
   57.4117   29.0805   42.8774 H   0  0  0  0  0  0  0  0  0  0  0  0
   56.3114   27.1206   45.1517 H   0  0  0  0  0  0  0  0  0  0  0  0
   57.5352   26.3001   47.1565 H   0  0  0  0  0  0  0  0  0  0  0  0
   61.1048   26.5931   49.3612 H   0  0  0  0  0  0  0  0  0  0  0  0
   60.5684   25.8703   47.8067 H   0  0  0  0  0  0  0  0  0  0  0  0
   61.5402   27.3810   47.8067 H   0  0  0  0  0  0  0  0  0  0  0  0
   60.8750   29.6150   47.9900 H   0  0  0  0  0  0  0  0  0  0  0  0
   60.5759   31.6061   45.8893 H   0  0  0  0  0  0  0  0  0  0  0  0
   59.6373   32.0467   47.3682 H   0  0  0  0  0  0  0  0  0  0  0  0
   62.3096   33.2266   45.9740 H   0  0  0  0  0  0  0  0  0  0  0  0
   64.3787   34.0758   47.0620 H   0  0  0  0  0  0  0  0  0  0  0  0
   66.1414   32.5770   51.2273 H   0  0  0  0  0  0  0  0  0  0  0  0
   66.0435   31.4640   49.8209 H   0  0  0  0  0  0  0  0  0  0  0  0
   67.2345   32.8086   49.8209 H   0  0  0  0  0  0  0  0  0  0  0  0
   63.5694   31.6267   50.5330 H   0  0  0  0  0  0  0  0  0  0  0  0
   61.4579   30.1898   51.5982 H   0  0  0  0  0  0  0  0  0  0  0  0
   61.1519   28.7531   50.5643 H   0  0  0  0  0  0  0  0  0  0  0  0
   62.7709   29.5312   50.5643 H   0  0  0  0  0  0  0  0  0  0  0  0
   58.7517   30.6900   45.1104 H   0  0  0  0  0  0  0  0  0  0  0  0
  1  2  1  0
  2  3  1  0
  3  4  1  0
  4  5  1  0
  5  6  1  0
  6  7  1  0
  7  8  1  0
  8  9  1  0
  9 10  2  0
 10 11  1  0
 11 12  2  0
 12 13  1  0
 13 14  1  0
 12 15  1  0
 15 16  1  0
 16 17  1  0
 17 18  1  0
 18 19  2  0
 19 20  1  0
 20 21  2  0
 21 22  1  0
 22 23  1  0
 21 24  1  0
 24 25  2  0
 25 26  1  0
 26 27  1  0
 15 28  2  0
 28  9  1  0
 25 18  1  0
  1 29  1  0
  1 30  1  0
  1 31  1  0
  2 32  1  0
  2 33  1  0
  3 34  1  0
  3 35  1  0
  4 36  1  0
  4 37  1  0
  5 38  1  0
  5 39  1  0
  6 40  1  0
  7 41  1  0
  7 42  1  0
  8 43  1  0
  8 44  1  0
 10 45  1  0
 11 46  1  0
 14 47  1  0
 14 48  1  0
 14 49  1  0
 16 50  1  0
 17 51  1  0
 17 52  1  0
 19 53  1  0
 20 54  1  0
 23 55  1  0
 23 56  1  0
 23 57  1  0
 24 58  1  0
 27 59  1  0
 27 60  1  0
 27 61  1  0
 28 62  1  0
M  END
>  <UniqueID>  (1) 
1

>  <SMILES>  (1) 
CCCCCNCCc1ccc(OC)c(NCc2ccc(OC)cc2OC)c1

>  <Energy>  (1) 
46.01984379745067

>  <Genealogy>  (1) 
CCCCCNCCc1ccc(OC)c(NCc2ccc(OC)cc2OC)c1 (3D coordinates assigned)
CCCCCNCCc1ccc(OC)c(NCc2ccc(OC)cc2OC)c1 (optimized conformer: 46.01984379745067 kcal/mol)

>  <smiles>  (1) 
CCCCCNCCc1ccc(OC)c(NCc2ccc(OC)cc2OC)c1

>  <score_type>  (1) 
oracle

>  <origin>  (1) 
adg

>  <m_score__min__energy>  (1) 
-7.0499999999999998

>  <m_primary>  (1) 
energy

$$$$
1:0
     RDKit          3D

 75 80  0  0  0  0  0  0  0  0999 V2000
   63.4940   34.6560   51.1790 O   0  0  0  0  0  0  0  0  0  0  0  0
   63.3720   33.6280   50.4560 C   0  0  0  0  0  0  0  0  0  0  0  0
   64.2160   32.4460   50.7330 C   0  0  0  0  0  0  0  0  0  0  0  0
   65.5750   32.4430   50.3830 C   0  0  0  0  0  0  0  0  0  0  0  0
   66.3710   31.3230   50.6390 C   0  0  0  0  0  0  0  0  0  0  0  0
   65.8210   30.1790   51.2430 C   0  0  0  0  0  0  0  0  0  0  0  0
   66.6650   28.9890   51.5190 C   0  0  0  0  0  0  0  0  0  0  0  0
   67.5600   28.5050   50.5460 C   0  0  0  0  0  0  0  0  0  0  0  0
   68.3520   27.3820   50.8060 C   0  0  0  0  0  0  0  0  0  0  0  0
   68.2580   26.7290   52.0380 C   0  0  0  0  0  0  0  0  0  0  0  0
   67.3740   27.2000   53.0110 C   0  0  0  0  0  0  0  0  0  0  0  0
   66.5810   28.3220   52.7560 C   0  0  0  0  0  0  0  0  0  0  0  0
   64.4540   30.1790   51.5790 C   0  0  0  0  0  0  0  0  0  0  0  0
   63.6600   31.3000   51.3200 C   0  0  0  0  0  0  0  0  0  0  0  0
   62.3990   33.6220   49.3960 N   0  0  0  0  0  0  0  0  0  0  0  0
   62.7630   33.1590   48.0500 C   0  0  0  0  0  0  0  0  0  0  0  0
   61.6450   32.2810   47.4840 C   0  0  0  0  0  0  0  0  0  0  0  0
   60.2460   32.9680   47.5410 C   0  0  0  0  0  0  0  0  0  0  0  0
   60.2370   34.2950   48.3520 C   0  0  0  0  0  0  0  0  0  0  0  0
   61.0830   34.2260   49.6350 C   0  0  0  0  0  0  0  0  0  0  0  0
   59.7630   33.2420   46.1550 C   0  0  0  0  0  0  0  0  0  0  0  0
   60.3630   33.9750   45.3220 O   0  0  0  0  0  0  0  0  0  0  0  0
   58.5550   32.5580   45.8620 N   0  0  0  0  0  0  0  0  0  0  0  0
   57.9830   32.3850   44.5290 C   0  0  0  0  0  0  0  0  0  0  0  0
   57.3890   31.0080   44.3950 C   0  0  0  0  0  0  0  0  0  0  0  0
   56.2340   30.8220   44.7600 O   0  0  0  0  0  0  0  0  0  0  0  0
   58.1860   29.9030   43.8940 N   0  0  0  0  0  0  0  0  0  0  0  0
   59.3760   29.6750   44.7530 C   0  0  0  0  0  0  0  0  0  0  0  0
   59.1580   28.5050   45.7310 C   0  0  0  0  0  0  0  0  0  0  0  0
   58.8590   27.2700   45.0920 O   0  0  0  0  0  0  0  0  0  0  0  0
   58.2040   27.4170   43.8360 C   0  0  0  0  0  0  0  0  0  0  0  0
   57.3460   28.6890   43.7390 C   0  0  0  0  0  0  0  0  0  0  0  0
   58.1660   31.7890   47.0320 C   0  0  0  0  0  0  0  0  0  0  0  0
   59.2100   32.0340   48.0270 N   0  0  0  0  0  0  0  0  0  0  0  0
   59.0460   31.6150   49.3900 C   0  0  0  0  0  0  0  0  0  0  0  0
   58.1540   32.2990   50.2300 C   0  0  0  0  0  0  0  0  0  0  0  0
   57.9940   31.9000   51.5620 C   0  0  0  0  0  0  0  0  0  0  0  0
   58.7100   30.8060   52.0540 C   0  0  0  0  0  0  0  0  0  0  0  0
   59.5720   30.0960   51.2120 C   0  0  0  0  0  0  0  0  0  0  0  0
   59.7310   30.4920   49.8790 C   0  0  0  0  0  0  0  0  0  0  0  0
   66.0171   33.3288   49.9035 H   0  0  0  0  0  0  0  0  0  0  0  0
   67.4364   31.3369   50.3656 H   0  0  0  0  0  0  0  0  0  0  0  0
   67.6370   29.0140   49.5739 H   0  0  0  0  0  0  0  0  0  0  0  0
   69.0496   27.0124   50.0400 H   0  0  0  0  0  0  0  0  0  0  0  0
   68.8799   25.8447   52.2411 H   0  0  0  0  0  0  0  0  0  0  0  0
   67.3017   26.6863   53.9810 H   0  0  0  0  0  0  0  0  0  0  0  0
   65.8864   28.6866   53.5271 H   0  0  0  0  0  0  0  0  0  0  0  0
   64.0073   29.2903   52.0488 H   0  0  0  0  0  0  0  0  0  0  0  0
   62.5910   31.2832   51.5786 H   0  0  0  0  0  0  0  0  0  0  0  0
   62.9128   34.0283   47.3929 H   0  0  0  0  0  0  0  0  0  0  0  0
   63.6920   32.5727   48.1065 H   0  0  0  0  0  0  0  0  0  0  0  0
   61.8790   32.0478   46.4348 H   0  0  0  0  0  0  0  0  0  0  0  0
   61.5925   31.3734   48.1032 H   0  0  0  0  0  0  0  0  0  0  0  0
   60.6346   35.0977   47.7136 H   0  0  0  0  0  0  0  0  0  0  0  0
   59.1971   34.4859   48.6556 H   0  0  0  0  0  0  0  0  0  0  0  0
   61.2256   35.2460   50.0212 H   0  0  0  0  0  0  0  0  0  0  0  0
   60.5476   33.5961   50.3606 H   0  0  0  0  0  0  0  0  0  0  0  0
   57.1965   33.1374   44.3703 H   0  0  0  0  0  0  0  0  0  0  0  0
   58.7770   32.5090   43.7779 H   0  0  0  0  0  0  0  0  0  0  0  0
   58.5370   30.1570   42.9410 H   0  0  0  0  0  0  0  0  0  0  0  0
   60.2401   29.4470   44.1116 H   0  0  0  0  0  0  0  0  0  0  0  0
   59.5522   30.5864   45.3431 H   0  0  0  0  0  0  0  0  0  0  0  0
   60.0743   28.3748   46.3255 H   0  0  0  0  0  0  0  0  0  0  0  0
   58.2868   28.7639   46.3507 H   0  0  0  0  0  0  0  0  0  0  0  0
   58.9687   27.4514   43.0461 H   0  0  0  0  0  0  0  0  0  0  0  0
   57.5256   26.5587   43.7216 H   0  0  0  0  0  0  0  0  0  0  0  0
   56.8504   28.7160   42.7573 H   0  0  0  0  0  0  0  0  0  0  0  0
   56.5974   28.6723   44.5448 H   0  0  0  0  0  0  0  0  0  0  0  0
   57.1896   32.1288   47.4079 H   0  0  0  0  0  0  0  0  0  0  0  0
   58.0661   30.7181   46.8012 H   0  0  0  0  0  0  0  0  0  0  0  0
   57.5786   33.1517   49.8403 H   0  0  0  0  0  0  0  0  0  0  0  0
   57.3046   32.4478   52.2213 H   0  0  0  0  0  0  0  0  0  0  0  0
   58.5957   30.5026   53.1051 H   0  0  0  0  0  0  0  0  0  0  0  0
   60.1249   29.2266   51.5973 H   0  0  0  0  0  0  0  0  0  0  0  0
   60.3947   29.9214   49.2128 H   0  0  0  0  0  0  0  0  0  0  0  0
  1  2  2  0
  2  3  1  0
  3  4  2  0
  4  5  1  0
  5  6  2  0
  6  7  1  0
  7  8  2  0
  8  9  1  0
  9 10  2  0
 10 11  1  0
 11 12  2  0
  6 13  1  0
 13 14  2  0
  2 15  1  0
 15 16  1  0
 16 17  1  0
 17 18  1  0
 18 19  1  0
 19 20  1  0
 18 21  1  0
 21 22  2  0
 21 23  1  0
 23 24  1  0
 24 25  1  0
 25 26  2  0
 25 27  1  0
 27 28  1  0
 28 29  1  0
 29 30  1  0
 30 31  1  0
 31 32  1  0
 23 33  1  0
 33 34  1  0
 34 35  1  0
 35 36  2  0
 36 37  1  0
 37 38  2  0
 38 39  1  0
 39 40  2  0
 14  3  1  0
 20 15  1  0
 32 27  1  0
 40 35  1  0
 12  7  1  0
 34 18  1  0
  4 41  1  0
  5 42  1  0
  8 43  1  0
  9 44  1  0
 10 45  1  0
 11 46  1  0
 12 47  1  0
 13 48  1  0
 14 49  1  0
 16 50  1  0
 16 51  1  0
 17 52  1  0
 17 53  1  0
 19 54  1  0
 19 55  1  0
 20 56  1  0
 20 57  1  0
 24 58  1  0
 24 59  1  0
 27 60  1  0
 28 61  1  0
 28 62  1  0
 29 63  1  0
 29 64  1  0
 31 65  1  0
 31 66  1  0
 32 67  1  0
 32 68  1  0
 33 69  1  0
 33 70  1  0
 36 71  1  0
 37 72  1  0
 38 73  1  0
 39 74  1  0
 40 75  1  0
M  CHG  1  27   1
M  END
>  <UniqueID>  (2) 
2

>  <SMILES>  (2) 
O=C(c1ccc(-c2ccccc2)cc1)N1CCC2(CC1)C(=O)N(CC(=O)[NH+]1CCOCC1)CN2c1ccccc1

>  <Energy>  (2) 
120.58480619251242

>  <Genealogy>  (2) 
O=C(c1ccc(-c2ccccc2)cc1)N1CCC2(CC1)C(=O)N(CC(=O)[NH+]1CCOCC1)CN2c1ccccc1 (protonated)
O=C(c1ccc(-c2ccccc2)cc1)N1CCC2(CC1)C(=O)N(CC(=O)[NH+]1CCOCC1)CN2c1ccccc1 (3D coordinates assigned)
O=C(c1ccc(-c2ccccc2)cc1)N1CCC2(CC1)C(=O)N(CC(=O)[NH+]1CCOCC1)CN2c1ccccc1 (nonaromatic ring conformer: 120.58480619251242 kcal/mol)

>  <smiles>  (2) 
O=C(CN1CN(c2ccccc2)C2(CCN(C(=O)c3ccc(-c4ccccc4)cc3)CC2)C1=O)N1CCOCC1

>  <score_type>  (2) 
oracle

>  <origin>  (2) 
adg

>  <m_score__min__energy>  (2) 
-8.8100000000000005

>  <m_primary>  (2) 
energy

$$$$
2:0
     RDKit          3D

 47 49  0  0  0  0  0  0  0  0999 V2000
   56.8190   21.7820   42.9220 C   0  0  0  0  0  0  0  0  0  0  0  0
   56.6010   23.2910   43.0100 C   0  0  0  0  0  0  0  0  0  0  0  0
   56.2330   23.7370   44.4310 C   0  0  0  0  0  0  0  0  0  0  0  0
   56.9870   24.9260   44.8270 N   0  0  0  0  0  0  0  0  0  0  0  0
   56.4150   25.9660   45.6380 C   0  0  0  0  0  0  0  0  0  0  0  0
   55.1980   25.9030   45.9660 O   0  0  0  0  0  0  0  0  0  0  0  0
   57.2250   27.1240   46.0870 C   0  0  0  0  0  0  0  0  0  0  0  0
   58.2850   26.9270   47.0130 C   0  0  0  0  0  0  0  0  0  0  0  0
   59.0730   28.0070   47.4490 C   0  0  0  0  0  0  0  0  0  0  0  0
   58.7770   29.2740   46.9460 C   0  0  0  0  0  0  0  0  0  0  0  0
   57.7780   29.4690   46.0420 C   0  0  0  0  0  0  0  0  0  0  0  0
   56.9800   28.4250   45.5830 C   0  0  0  0  0  0  0  0  0  0  0  0
   57.7320   30.7570   45.6610 N   0  0  0  0  0  0  0  0  0  0  0  0
   58.7290   31.3330   46.3830 C   0  0  0  0  0  0  0  0  0  0  0  0
   59.0690   32.7630   46.2280 C   0  0  0  0  0  0  0  0  0  0  0  0
   58.9710   33.3640   44.9610 C   0  0  0  0  0  0  0  0  0  0  0  0
   59.2680   34.7210   44.7980 C   0  0  0  0  0  0  0  0  0  0  0  0
   59.6500   35.4920   45.8980 C   0  0  0  0  0  0  0  0  0  0  0  0
   59.7280   34.9090   47.1650 C   0  0  0  0  0  0  0  0  0  0  0  0
   59.4310   33.5530   47.3330 C   0  0  0  0  0  0  0  0  0  0  0  0
   59.3940   30.4460   47.1800 N   0  0  0  0  0  0  0  0  0  0  0  0
   60.5810   30.6650   48.0150 C   0  0  0  0  0  0  0  0  0  0  0  0
   61.8240   30.8750   47.1430 C   0  0  0  0  0  0  0  0  0  0  0  0
   62.5490   32.1650   47.5180 C   0  0  0  0  0  0  0  0  0  0  0  0
   56.8799   21.3606   43.9362 H   0  0  0  0  0  0  0  0  0  0  0  0
   55.9782   21.3209   42.3832 H   0  0  0  0  0  0  0  0  0  0  0  0
   57.7560   21.5777   42.3832 H   0  0  0  0  0  0  0  0  0  0  0  0
   57.5266   23.8018   42.7060 H   0  0  0  0  0  0  0  0  0  0  0  0
   55.7650   23.5527   42.3447 H   0  0  0  0  0  0  0  0  0  0  0  0
   55.1577   23.9660   44.4675 H   0  0  0  0  0  0  0  0  0  0  0  0
   56.4810   22.9213   45.1260 H   0  0  0  0  0  0  0  0  0  0  0  0
   57.9700   25.0090   44.4860 H   0  0  0  0  0  0  0  0  0  0  0  0
   58.4918   25.9160   47.3938 H   0  0  0  0  0  0  0  0  0  0  0  0
   59.8960   27.8576   48.1634 H   0  0  0  0  0  0  0  0  0  0  0  0
   56.1809   28.6053   44.8489 H   0  0  0  0  0  0  0  0  0  0  0  0
   58.6592   32.7640   44.0934 H   0  0  0  0  0  0  0  0  0  0  0  0
   59.2006   35.1818   43.8015 H   0  0  0  0  0  0  0  0  0  0  0  0
   59.8893   36.5576   45.7668 H   0  0  0  0  0  0  0  0  0  0  0  0
   60.0236   35.5178   48.0322 H   0  0  0  0  0  0  0  0  0  0  0  0
   59.4809   33.1021   48.3351 H   0  0  0  0  0  0  0  0  0  0  0  0
   60.4235   31.5562   48.6403 H   0  0  0  0  0  0  0  0  0  0  0  0
   60.7376   29.7787   48.6474 H   0  0  0  0  0  0  0  0  0  0  0  0
   62.5082   30.0251   47.2827 H   0  0  0  0  0  0  0  0  0  0  0  0
   61.5050   30.9471   46.0928 H   0  0  0  0  0  0  0  0  0  0  0  0
   62.5983   32.2528   48.6134 H   0  0  0  0  0  0  0  0  0  0  0  0
   63.5685   32.1459   47.1054 H   0  0  0  0  0  0  0  0  0  0  0  0
   62.0026   33.0259   47.1054 H   0  0  0  0  0  0  0  0  0  0  0  0
  1  2  1  0
  2  3  1  0
  3  4  1  0
  4  5  1  0
  5  6  2  0
  5  7  1  0
  7  8  2  0
  8  9  1  0
  9 10  2  0
 10 11  1  0
 11 12  2  0
 11 13  1  0
 13 14  2  0
 14 15  1  0
 15 16  2  0
 16 17  1  0
 17 18  2  0
 18 19  1  0
 19 20  2  0
 14 21  1  0
 21 22  1  0
 22 23  1  0
 23 24  1  0
 12  7  1  0
 20 15  1  0
 21 10  1  0
  1 25  1  0
  1 26  1  0
  1 27  1  0
  2 28  1  0
  2 29  1  0
  3 30  1  0
  3 31  1  0
  4 32  1  0
  8 33  1  0
  9 34  1  0
 12 35  1  0
 16 36  1  0
 17 37  1  0
 18 38  1  0
 19 39  1  0
 20 40  1  0
 22 41  1  0
 22 42  1  0
 23 43  1  0
 23 44  1  0
 24 45  1  0
 24 46  1  0
 24 47  1  0
M  END
>  <UniqueID>  (3) 
3

>  <SMILES>  (3) 
CCCNC(=O)c1ccc2c(c1)nc(-c1ccccc1)n2CCC

>  <Energy>  (3) 
82.28431890606349

>  <Genealogy>  (3) 
CCCNC(=O)c1ccc2c(c1)nc(-c1ccccc1)n2CCC (3D coordinates assigned)
CCCNC(=O)c1ccc2c(c1)nc(-c1ccccc1)n2CCC (optimized conformer: 82.28431890606349 kcal/mol)

>  <smiles>  (3) 
CCCNC(=O)c1ccc2c(c1)nc(-c1ccccc1)n2CCC

>  <score_type>  (3) 
oracle

>  <origin>  (3) 
adg

>  <m_score__min__energy>  (3) 
-7.6699999999999999

>  <m_primary>  (3) 
energy

$$$$
3:0
     RDKit          3D

 42 44  0  0  0  0  0  0  0  0999 V2000
   57.4683   21.8750   43.2980 H   0  0  0  0  0  0  0  0  0  0  0  0
   57.4350   22.6240   44.1030 C   0  0  0  0  0  0  0  0  0  0  0  0
   56.2980   23.3230   44.3410 N   0  0  0  0  0  0  0  0  0  0  0  0
   56.2270   24.2890   45.2990 C   0  0  0  0  0  0  0  0  0  0  0  0
   54.8830   24.8100   45.6180 C   0  0  0  0  0  0  0  0  0  0  0  0
   54.7420   26.0050   45.9910 O   0  0  0  0  0  0  0  0  0  0  0  0
   53.7010   23.8940   45.6380 C   0  0  0  0  0  0  0  0  0  0  0  0
   53.4222   23.6779   46.6799 H   0  0  0  0  0  0  0  0  0  0  0  0
   52.8556   24.3751   45.1244 H   0  0  0  0  0  0  0  0  0  0  0  0
   53.9559   22.9552   45.1244 H   0  0  0  0  0  0  0  0  0  0  0  0
   57.4080   24.6020   46.0370 C   0  0  0  0  0  0  0  0  0  0  0  0
   57.5150   25.5930   46.8830 N   0  0  0  0  0  0  0  0  0  0  0  0
   57.6110   27.0010   46.6310 C   0  0  0  0  0  0  0  0  0  0  0  0
   57.0200   27.5780   45.4970 C   0  0  0  0  0  0  0  0  0  0  0  0
   56.4336   26.9546   44.8060 H   0  0  0  0  0  0  0  0  0  0  0  0
   57.1710   28.9060   45.2510 N   0  0  0  0  0  0  0  0  0  0  0  0
   57.9050   29.7180   46.0630 C   0  0  0  0  0  0  0  0  0  0  0  0
   58.0250   31.1220   45.7470 N   0  0  0  0  0  0  0  0  0  0  0  0
   57.4450   31.6370   44.5020 C   0  0  0  0  0  0  0  0  0  0  0  0
   57.5526   30.8814   43.7098 H   0  0  0  0  0  0  0  0  0  0  0  0
   56.3796   31.8579   44.6636 H   0  0  0  0  0  0  0  0  0  0  0  0
   58.1670   32.9200   44.0810 C   0  0  0  0  0  0  0  0  0  0  0  0
   59.2247   32.6855   43.8903 H   0  0  0  0  0  0  0  0  0  0  0  0
   57.6739   33.3047   43.1761 H   0  0  0  0  0  0  0  0  0  0  0  0
   58.0910   33.9700   45.1230 N   0  0  0  0  0  0  0  0  0  0  0  0
   59.1460   34.9750   44.9150 C   0  0  0  0  0  0  0  0  0  0  0  0
   59.5149   35.3265   45.8899 H   0  0  0  0  0  0  0  0  0  0  0  0
   59.9753   34.5245   44.3498 H   0  0  0  0  0  0  0  0  0  0  0  0
   58.7363   35.8251   44.3498 H   0  0  0  0  0  0  0  0  0  0  0  0
   58.0960   33.4630   46.5200 C   0  0  0  0  0  0  0  0  0  0  0  0
   58.6834   34.1564   47.1398 H   0  0  0  0  0  0  0  0  0  0  0  0
   57.0469   33.3992   46.8445 H   0  0  0  0  0  0  0  0  0  0  0  0
   58.6980   32.0570   46.6600 C   0  0  0  0  0  0  0  0  0  0  0  0
   59.7698   32.0950   46.4156 H   0  0  0  0  0  0  0  0  0  0  0  0
   58.5601   31.7095   47.6945 H   0  0  0  0  0  0  0  0  0  0  0  0
   58.5540   29.1610   47.1790 C   0  0  0  0  0  0  0  0  0  0  0  0
   59.1697   29.7945   47.8344 H   0  0  0  0  0  0  0  0  0  0  0  0
   58.4120   27.7990   47.4500 C   0  0  0  0  0  0  0  0  0  0  0  0
   58.9323   27.3535   48.3107 H   0  0  0  0  0  0  0  0  0  0  0  0
   58.5160   23.8430   45.8250 N   0  0  0  0  0  0  0  0  0  0  0  0
   58.5580   22.8630   44.8860 C   0  0  0  0  0  0  0  0  0  0  0  0
   59.4707   22.2650   44.7467 H   0  0  0  0  0  0  0  0  0  0  0  0
  1  2  1  0
  2  3  1  0
  3  4  2  0
  4  5  1  0
  5  6  2  0
  5  7  1  0
  7  8  1  0
  7  9  1  0
  7 10  1  0
  4 11  1  0
 11 12  2  0
 12 13  1  0
 13 14  2  0
 14 15  1  0
 14 16  1  0
 16 17  2  0
 17 18  1  0
 18 19  1  0
 19 20  1  0
 19 21  1  0
 19 22  1  0
 22 23  1  0
 22 24  1  0
 22 25  1  0
 25 26  1  0
 26 27  1  0
 26 28  1  0
 26 29  1  0
 25 30  1  0
 30 31  1  0
 30 32  1  0
 30 33  1  0
 33 34  1  0
 33 35  1  0
 17 36  1  0
 36 37  1  0
 36 38  2  0
 38 39  1  0
 11 40  1  0
 40 41  1  0
 41 42  1  0
 41  2  2  0
 38 13  1  0
 33 18  1  0
M  CHG  1  40  -1
M  END
>  <UniqueID>  (4) 
4

>  <SMILES>  (4) 
CC(=O)c1ncc[n-]/c1=N/c1ccc(N2CCN(C)CC2)nc1

>  <Energy>  (4) 
72.63512712222308

>  <Genealogy>  (4) 
CC(=O)c1ncc[n-]c1=Nc1ccc(N2CCN(C)CC2)nc1 (protonated)
CC(=O)c1ncc[n-]/c1=N/c1ccc(N2CCN(C)CC2)nc1 (cis-trans isomerization)
CC(=O)c1ncc[n-]/c1=N/c1ccc(N2CCN(C)CC2)nc1 (3D coordinates assigned)
CC(=O)c1ncc[n-]/c1=N/c1ccc(N2CCN(C)CC2)nc1 (nonaromatic ring conformer: 72.63512712222308 kcal/mol)

>  <smiles>  (4) 
CC(=O)c1ncc[nH]c1=Nc1ccc(N2CCN(C)CC2)nc1

>  <score_type>  (4) 
oracle

>  <origin>  (4) 
adg

>  <m_score__min__energy>  (4) 
-8.3900000000000006

>  <m_primary>  (4) 
energy

$$$$
4:0
     RDKit          3D

 47 49  0  0  0  0  0  0  0  0999 V2000
   56.5980   29.7480   43.1090 C   0  0  0  0  0  0  0  0  0  0  0  0
   56.6340   30.0350   44.5040 O   0  0  0  0  0  0  0  0  0  0  0  0
   57.3960   31.0610   45.0870 C   0  0  0  0  0  0  0  0  0  0  0  0
   57.0830   32.4210   44.8950 C   0  0  0  0  0  0  0  0  0  0  0  0
   57.8580   33.4170   45.4910 C   0  0  0  0  0  0  0  0  0  0  0  0
   58.9540   33.0760   46.2900 C   0  0  0  0  0  0  0  0  0  0  0  0
   59.9220   34.3410   47.0520 S   0  0  0  0  0  0  0  0  0  0  0  0
   59.0640   35.0860   48.0380 O   0  0  0  0  0  0  0  0  0  0  0  0
   60.3820   35.3180   46.0050 O   0  0  0  0  0  0  0  0  0  0  0  0
   61.3110   33.6760   47.8780 N   0  0  0  0  0  0  0  0  0  0  0  0
   62.4790   33.6500   46.9780 C   0  0  0  0  0  0  0  0  0  0  0  0
   63.6160   32.8420   47.6200 C   0  0  0  0  0  0  0  0  0  0  0  0
   63.6460   33.0490   49.0730 N   0  0  0  0  0  0  0  0  0  0  0  0
   64.3330   32.1120   49.9240 C   0  0  0  0  0  0  0  0  0  0  0  0
   65.7170   32.2320   50.1460 C   0  0  0  0  0  0  0  0  0  0  0  0
   66.3800   31.3300   50.9830 C   0  0  0  0  0  0  0  0  0  0  0  0
   65.6700   30.3030   51.6090 C   0  0  0  0  0  0  0  0  0  0  0  0
   64.2940   30.1780   51.4020 C   0  0  0  0  0  0  0  0  0  0  0  0
   63.6260   31.0790   50.5670 C   0  0  0  0  0  0  0  0  0  0  0  0
   63.0360   34.2640   49.6270 C   0  0  0  0  0  0  0  0  0  0  0  0
   61.5870   34.4360   49.1210 C   0  0  0  0  0  0  0  0  0  0  0  0
   59.2750   31.7270   46.4830 C   0  0  0  0  0  0  0  0  0  0  0  0
   58.5030   30.7160   45.8870 C   0  0  0  0  0  0  0  0  0  0  0  0
   58.8510   29.2710   46.1090 C   0  0  0  0  0  0  0  0  0  0  0  0
   56.4623   28.6665   42.9605 H   0  0  0  0  0  0  0  0  0  0  0  0
   55.7608   30.2897   42.6447 H   0  0  0  0  0  0  0  0  0  0  0  0
   57.5431   30.0662   42.6447 H   0  0  0  0  0  0  0  0  0  0  0  0
   56.2214   32.7000   44.2707 H   0  0  0  0  0  0  0  0  0  0  0  0
   57.6055   34.4757   45.3315 H   0  0  0  0  0  0  0  0  0  0  0  0
   61.0630   32.6910   48.1360 H   0  0  0  0  0  0  0  0  0  0  0  0
   62.1937   33.1833   46.0237 H   0  0  0  0  0  0  0  0  0  0  0  0
   62.8222   34.6799   46.8005 H   0  0  0  0  0  0  0  0  0  0  0  0
   63.4616   31.7731   47.4110 H   0  0  0  0  0  0  0  0  0  0  0  0
   64.5727   33.1805   47.1956 H   0  0  0  0  0  0  0  0  0  0  0  0
   66.2808   33.0406   49.6579 H   0  0  0  0  0  0  0  0  0  0  0  0
   67.4629   31.4292   51.1490 H   0  0  0  0  0  0  0  0  0  0  0  0
   66.1942   29.5925   52.2650 H   0  0  0  0  0  0  0  0  0  0  0  0
   63.7353   29.3697   51.8965 H   0  0  0  0  0  0  0  0  0  0  0  0
   62.5415   30.9798   50.4118 H   0  0  0  0  0  0  0  0  0  0  0  0
   63.0278   34.1940   50.7247 H   0  0  0  0  0  0  0  0  0  0  0  0
   63.6266   35.1327   49.3007 H   0  0  0  0  0  0  0  0  0  0  0  0
   60.8987   34.0870   49.9049 H   0  0  0  0  0  0  0  0  0  0  0  0
   61.4438   35.5024   48.8921 H   0  0  0  0  0  0  0  0  0  0  0  0
   60.1395   31.4563   47.1070 H   0  0  0  0  0  0  0  0  0  0  0  0
   58.9000   29.0674   47.1889 H   0  0  0  0  0  0  0  0  0  0  0  0
   58.0807   28.6337   45.6503 H   0  0  0  0  0  0  0  0  0  0  0  0
   59.8270   29.0543   45.6503 H   0  0  0  0  0  0  0  0  0  0  0  0
  1  2  1  0
  2  3  1  0
  3  4  2  0
  4  5  1  0
  5  6  2  0
  6  7  1  0
  7  8  2  0
  7  9  2  0
  7 10  1  0
 10 11  1  0
 11 12  1  0
 12 13  1  0
 13 14  1  0
 14 15  2  0
 15 16  1  0
 16 17  2  0
 17 18  1  0
 18 19  2  0
 13 20  1  0
 20 21  1  0
  6 22  1  0
 22 23  2  0
 23 24  1  0
 23  3  1  0
 21 10  1  0
 19 14  1  0
  1 25  1  0
  1 26  1  0
  1 27  1  0
  4 28  1  0
  5 29  1  0
 10 30  1  0
 11 31  1  0
 11 32  1  0
 12 33  1  0
 12 34  1  0
 15 35  1  0
 16 36  1  0
 17 37  1  0
 18 38  1  0
 19 39  1  0
 20 40  1  0
 20 41  1  0
 21 42  1  0
 21 43  1  0
 22 44  1  0
 24 45  1  0
 24 46  1  0
 24 47  1  0
M  CHG  1  10   1
M  END
>  <UniqueID>  (5) 
5

>  <SMILES>  (5) 
COc1ccc(S(=O)(=O)[NH+]2CCN(c3ccccc3)CC2)cc1C

>  <Energy>  (5) 
55.26880070648953

>  <Genealogy>  (5) 
COc1ccc(S(=O)(=O)[NH+]2CCN(c3ccccc3)CC2)cc1C (protonated)
COc1ccc(S(=O)(=O)[NH+]2CCN(c3ccccc3)CC2)cc1C (3D coordinates assigned)
COc1ccc(S(=O)(=O)[NH+]2CCN(c3ccccc3)CC2)cc1C (nonaromatic ring conformer: 55.26880070648953 kcal/mol)

>  <smiles>  (5) 
COc1ccc(S(=O)(=O)N2CCN(c3ccccc3)CC2)cc1C

>  <score_type>  (5) 
oracle

>  <origin>  (5) 
adg

>  <m_score__min__energy>  (5) 
-6.4299999999999997

>  <m_primary>  (5) 
energy

$$$$
5:0
     RDKit          3D

 48 49  0  0  0  0  0  0  0  0999 V2000
   57.7240   32.1430   42.9110 C   0  0  0  0  0  0  0  0  0  0  0  0
   58.1550   31.2260   44.0640 C   0  0  0  0  0  0  0  0  0  0  0  0
   57.0270   30.6480   44.8350 N   0  0  0  0  0  0  0  0  0  0  0  0
   55.8860   30.2090   43.9970 C   0  0  0  0  0  0  0  0  0  0  0  0
   56.3440   29.3550   42.8160 C   0  0  0  0  0  0  0  0  0  0  0  0
   57.4690   29.5780   45.7590 C   0  0  0  0  0  0  0  0  0  0  0  0
   58.9610   29.7340   46.0690 C   0  0  0  0  0  0  0  0  0  0  0  0
   59.1460   30.5010   47.2570 O   0  0  0  0  0  0  0  0  0  0  0  0
   60.3980   30.9550   47.6960 C   0  0  0  0  0  0  0  0  0  0  0  0
   61.2830   30.1280   48.0560 O   0  0  0  0  0  0  0  0  0  0  0  0
   60.7250   32.4370   47.6700 C   0  0  0  0  0  0  0  0  0  0  0  0
   59.6500   33.1830   46.8510 C   0  0  0  0  0  0  0  0  0  0  0  0
   58.2690   33.1080   47.1490 C   0  0  0  0  0  0  0  0  0  0  0  0
   57.3270   33.7640   46.3500 C   0  0  0  0  0  0  0  0  0  0  0  0
   57.7360   34.4880   45.2320 C   0  0  0  0  0  0  0  0  0  0  0  0
   59.0880   34.5490   44.8990 C   0  0  0  0  0  0  0  0  0  0  0  0
   60.0350   33.8960   45.6920 C   0  0  0  0  0  0  0  0  0  0  0  0
   62.1700   32.6270   47.1550 C   0  0  0  0  0  0  0  0  0  0  0  0
   62.7410   33.8500   47.8750 C   0  0  0  0  0  0  0  0  0  0  0  0
   61.7540   34.2080   48.9830 C   0  0  0  0  0  0  0  0  0  0  0  0
   60.7920   33.0350   49.0830 C   0  0  0  0  0  0  0  0  0  0  0  0
   57.2897   33.0671   43.3202 H   0  0  0  0  0  0  0  0  0  0  0  0
   58.5996   32.3916   42.2933 H   0  0  0  0  0  0  0  0  0  0  0  0
   56.9739   31.6275   42.2933 H   0  0  0  0  0  0  0  0  0  0  0  0
   58.7460   30.3986   43.6444 H   0  0  0  0  0  0  0  0  0  0  0  0
   58.7310   31.8483   44.7647 H   0  0  0  0  0  0  0  0  0  0  0  0
   55.1957   29.6181   44.6170 H   0  0  0  0  0  0  0  0  0  0  0  0
   55.3902   31.1062   43.5978 H   0  0  0  0  0  0  0  0  0  0  0  0
   56.8328   28.4435   43.1904 H   0  0  0  0  0  0  0  0  0  0  0  0
   55.4730   29.0788   42.2036 H   0  0  0  0  0  0  0  0  0  0  0  0
   57.0560   29.9278   42.2036 H   0  0  0  0  0  0  0  0  0  0  0  0
   56.8941   29.6445   46.6944 H   0  0  0  0  0  0  0  0  0  0  0  0
   57.2999   28.6000   45.2848 H   0  0  0  0  0  0  0  0  0  0  0  0
   59.4081   28.7385   46.2073 H   0  0  0  0  0  0  0  0  0  0  0  0
   59.4465   30.2541   45.2301 H   0  0  0  0  0  0  0  0  0  0  0  0
   57.9320   32.5266   48.0198 H   0  0  0  0  0  0  0  0  0  0  0  0
   56.2585   33.7081   46.6053 H   0  0  0  0  0  0  0  0  0  0  0  0
   56.9924   35.0110   44.6127 H   0  0  0  0  0  0  0  0  0  0  0  0
   59.4099   35.1121   44.0106 H   0  0  0  0  0  0  0  0  0  0  0  0
   61.0975   33.9372   45.4102 H   0  0  0  0  0  0  0  0  0  0  0  0
   62.7737   31.7366   47.3849 H   0  0  0  0  0  0  0  0  0  0  0  0
   62.1837   32.7701   46.0644 H   0  0  0  0  0  0  0  0  0  0  0  0
   63.7244   33.6111   48.3061 H   0  0  0  0  0  0  0  0  0  0  0  0
   62.8763   34.6911   47.1791 H   0  0  0  0  0  0  0  0  0  0  0  0
   62.2844   34.3495   49.9362 H   0  0  0  0  0  0  0  0  0  0  0  0
   61.2237   35.1461   48.7623 H   0  0  0  0  0  0  0  0  0  0  0  0
   61.1684   32.2891   49.7985 H   0  0  0  0  0  0  0  0  0  0  0  0
   59.8004   33.3500   49.4400 H   0  0  0  0  0  0  0  0  0  0  0  0
  1  2  1  0
  2  3  1  0
  3  4  1  0
  4  5  1  0
  3  6  1  0
  6  7  1  0
  7  8  1  0
  8  9  1  0
  9 10  2  0
  9 11  1  0
 11 12  1  0
 12 13  2  0
 13 14  1  0
 14 15  2  0
 15 16  1  0
 16 17  2  0
 11 18  1  0
 18 19  1  0
 19 20  1  0
 20 21  1  0
 21 11  1  0
 17 12  1  0
  1 22  1  0
  1 23  1  0
  1 24  1  0
  2 25  1  0
  2 26  1  0
  4 27  1  0
  4 28  1  0
  5 29  1  0
  5 30  1  0
  5 31  1  0
  6 32  1  0
  6 33  1  0
  7 34  1  0
  7 35  1  0
 13 36  1  0
 14 37  1  0
 15 38  1  0
 16 39  1  0
 17 40  1  0
 18 41  1  0
 18 42  1  0
 19 43  1  0
 19 44  1  0
 20 45  1  0
 20 46  1  0
 21 47  1  0
 21 48  1  0
M  END
>  <UniqueID>  (6) 
6

>  <SMILES>  (6) 
CCN(CC)CCOC(=O)C1(c2ccccc2)CCCC1

>  <Energy>  (6) 
53.3595308479297

>  <Genealogy>  (6) 
CCN(CC)CCOC(=O)C1(c2ccccc2)CCCC1 (3D coordinates assigned)
CCN(CC)CCOC(=O)C1(c2ccccc2)CCCC1 (nonaromatic ring conformer: 53.3595308479297 kcal/mol)

>  <smiles>  (6) 
CCN(CC)CCOC(=O)C1(c2ccccc2)CCCC1

>  <score_type>  (6) 
oracle

>  <origin>  (6) 
adg

>  <m_score__min__energy>  (6) 
-6.8899999999999997

>  <m_primary>  (6) 
energy

$$$$
6:0
     RDKit          3D

 42 44  0  0  0  0  0  0  0  0999 V2000
   66.9680   32.0670   50.6710 C   0  0  0  0  0  0  0  0  0  0  0  0
   65.7270   32.5880   51.1370 O   0  0  0  0  0  0  0  0  0  0  0  0
   64.6530   32.9350   50.3040 C   0  0  0  0  0  0  0  0  0  0  0  0
   64.4870   32.3920   49.0180 C   0  0  0  0  0  0  0  0  0  0  0  0
   63.4000   32.7710   48.2250 C   0  0  0  0  0  0  0  0  0  0  0  0
   62.4550   33.6980   48.7020 C   0  0  0  0  0  0  0  0  0  0  0  0
   61.2990   34.1000   47.8610 C   0  0  0  0  0  0  0  0  0  0  0  0
   61.2160   34.0210   46.4790 C   0  0  0  0  0  0  0  0  0  0  0  0
   59.9550   34.5070   46.1940 C   0  0  0  0  0  0  0  0  0  0  0  0
   59.3340   34.6170   44.8380 C   0  0  0  0  0  0  0  0  0  0  0  0
   57.9780   34.0620   44.8440 N   0  0  0  0  0  0  0  0  0  0  0  0
   57.6250   32.8370   44.1740 C   0  0  0  0  0  0  0  0  0  0  0  0
   57.7700   32.6840   42.7820 C   0  0  0  0  0  0  0  0  0  0  0  0
   57.4170   31.4830   42.1640 C   0  0  0  0  0  0  0  0  0  0  0  0
   56.9180   30.4220   42.9220 C   0  0  0  0  0  0  0  0  0  0  0  0
   56.7660   30.5500   44.3070 C   0  0  0  0  0  0  0  0  0  0  0  0
   56.2610   29.4550   45.0240 O   0  0  0  0  0  0  0  0  0  0  0  0
   56.9750   28.2440   45.2500 C   0  0  0  0  0  0  0  0  0  0  0  0
   57.1210   31.7630   44.9290 C   0  0  0  0  0  0  0  0  0  0  0  0
   59.3550   34.8290   47.3160 O   0  0  0  0  0  0  0  0  0  0  0  0
   60.1360   34.6000   48.3290 N   0  0  0  0  0  0  0  0  0  0  0  0
   62.6280   34.2380   49.9890 C   0  0  0  0  0  0  0  0  0  0  0  0
   63.7160   33.8580   50.7790 C   0  0  0  0  0  0  0  0  0  0  0  0
   67.6003   31.8015   51.5311 H   0  0  0  0  0  0  0  0  0  0  0  0
   66.7834   31.1704   50.0610 H   0  0  0  0  0  0  0  0  0  0  0  0
   67.4787   32.8267   50.0610 H   0  0  0  0  0  0  0  0  0  0  0  0
   65.2169   31.6644   48.6334 H   0  0  0  0  0  0  0  0  0  0  0  0
   63.2824   32.3409   47.2194 H   0  0  0  0  0  0  0  0  0  0  0  0
   61.9773   33.6562   45.7738 H   0  0  0  0  0  0  0  0  0  0  0  0
   59.2894   35.6766   44.5459 H   0  0  0  0  0  0  0  0  0  0  0  0
   59.9457   34.0495   44.1213 H   0  0  0  0  0  0  0  0  0  0  0  0
   57.2270   34.5750   45.3610 H   0  0  0  0  0  0  0  0  0  0  0  0
   58.1635   33.5151   42.1782 H   0  0  0  0  0  0  0  0  0  0  0  0
   57.5324   31.3722   41.0757 H   0  0  0  0  0  0  0  0  0  0  0  0
   56.6425   29.4791   42.4270 H   0  0  0  0  0  0  0  0  0  0  0  0
   57.0753   28.0740   46.3321 H   0  0  0  0  0  0  0  0  0  0  0  0
   56.4270   27.4051   44.7962 H   0  0  0  0  0  0  0  0  0  0  0  0
   57.9743   28.3174   44.7962 H   0  0  0  0  0  0  0  0  0  0  0  0
   57.0027   31.8713   46.0172 H   0  0  0  0  0  0  0  0  0  0  0  0
   59.8680   34.7640   49.3230 H   0  0  0  0  0  0  0  0  0  0  0  0
   61.9003   34.9659   50.3771 H   0  0  0  0  0  0  0  0  0  0  0  0
   63.8366   34.2889   51.7839 H   0  0  0  0  0  0  0  0  0  0  0  0
  1  2  1  0
  2  3  1  0
  3  4  2  0
  4  5  1  0
  5  6  2  0
  6  7  1  0
  7  8  1  0
  8  9  2  0
  9 10  1  0
 10 11  1  0
 11 12  1  0
 12 13  2  0
 13 14  1  0
 14 15  2  0
 15 16  1  0
 16 17  1  0
 17 18  1  0
 16 19  2  0
  9 20  1  0
 20 21  1  0
  6 22  1  0
 22 23  2  0
 23  3  1  0
 21  7  2  0
 19 12  1  0
  1 24  1  0
  1 25  1  0
  1 26  1  0
  4 27  1  0
  5 28  1  0
  8 29  1  0
 10 30  1  0
 10 31  1  0
 11 32  1  0
 13 33  1  0
 14 34  1  0
 15 35  1  0
 18 36  1  0
 18 37  1  0
 18 38  1  0
 19 39  1  0
 21 40  1  0
 22 41  1  0
 23 42  1  0
M  CHG  1  21   1
M  END
>  <UniqueID>  (7) 
7

>  <SMILES>  (7) 
COc1ccc(-c2cc(CNc3cccc(OC)c3)o[nH+]2)cc1

>  <Energy>  (7) 
75.0536230489232

>  <Genealogy>  (7) 
COc1ccc(-c2cc(CNc3cccc(OC)c3)o[nH+]2)cc1 (protonated)
COc1ccc(-c2cc(CNc3cccc(OC)c3)o[nH+]2)cc1 (3D coordinates assigned)
COc1ccc(-c2cc(CNc3cccc(OC)c3)o[nH+]2)cc1 (optimized conformer: 75.0536230489232 kcal/mol)

>  <smiles>  (7) 
COc1ccc(-c2cc(CNc3cccc(OC)c3)on2)cc1

>  <score_type>  (7) 
oracle

>  <origin>  (7) 
adg

>  <m_score__min__energy>  (7) 
-5.9500000000000002

>  <m_primary>  (7) 
energy

$$$$
7:0
     RDKit          3D

 43 46  0  0  0  0  0  0  0  0999 V2000
   62.6250   33.2490   46.9250 C   0  0  0  0  0  0  0  0  0  0  0  0
   61.3760   32.5260   47.9620 S   0  0  0  0  0  0  0  0  0  0  0  0
   62.1000   31.7570   49.2690 O   0  0  0  0  0  0  0  0  0  0  0  0
   60.3710   31.3610   47.0620 C   0  0  0  0  0  0  0  0  0  0  0  0
   59.2850   32.0840   46.3010 C   0  0  0  0  0  0  0  0  0  0  0  0
   59.2490   33.4890   46.3740 C   0  0  0  0  0  0  0  0  0  0  0  0
   58.3190   34.2190   45.6310 C   0  0  0  0  0  0  0  0  0  0  0  0
   57.4210   33.5590   44.7950 C   0  0  0  0  0  0  0  0  0  0  0  0
   57.4410   32.1670   44.7060 C   0  0  0  0  0  0  0  0  0  0  0  0
   58.3610   31.4150   45.4560 C   0  0  0  0  0  0  0  0  0  0  0  0
   58.3180   29.9420   45.3360 C   0  0  0  0  0  0  0  0  0  0  0  0
   59.4750   29.2300   44.9940 C   0  0  0  0  0  0  0  0  0  0  0  0
   59.4350   27.8400   44.8630 C   0  0  0  0  0  0  0  0  0  0  0  0
   58.2300   27.1390   45.0450 C   0  0  0  0  0  0  0  0  0  0  0  0
   58.2200   25.6640   44.9010 C   0  0  0  0  0  0  0  0  0  0  0  0
   59.0300   24.8310   45.7250 C   0  0  0  0  0  0  0  0  0  0  0  0
   58.9880   23.4720   45.5810 N   0  0  0  0  0  0  0  0  0  0  0  0
   58.1600   22.9500   44.6460 C   0  0  0  0  0  0  0  0  0  0  0  0
   57.9780   21.6530   44.3630 N   0  0  0  0  0  0  0  0  0  0  0  0
   57.0500   21.6320   43.3740 C   0  0  0  0  0  0  0  0  0  0  0  0
   56.6460   22.9260   43.0350 C   0  0  0  0  0  0  0  0  0  0  0  0
   57.3780   23.7390   43.8680 C   0  0  0  0  0  0  0  0  0  0  0  0
   57.3860   25.0880   43.9790 N   0  0  0  0  0  0  0  0  0  0  0  0
   57.0650   27.8590   45.3820 C   0  0  0  0  0  0  0  0  0  0  0  0
   55.8940   27.2190   45.6290 F   0  0  0  0  0  0  0  0  0  0  0  0
   57.1110   29.2500   45.5140 C   0  0  0  0  0  0  0  0  0  0  0  0
   63.4065   33.7014   47.5532 H   0  0  0  0  0  0  0  0  0  0  0  0
   63.0708   32.4693   46.2899 H   0  0  0  0  0  0  0  0  0  0  0  0
   62.1709   34.0239   46.2899 H   0  0  0  0  0  0  0  0  0  0  0  0
   61.8580   32.3170   50.0490 H   0  0  0  0  0  0  0  0  0  0  0  0
   61.0041   30.8074   46.3529 H   0  0  0  0  0  0  0  0  0  0  0  0
   59.9055   30.6644   47.7747 H   0  0  0  0  0  0  0  0  0  0  0  0
   59.9616   34.0181   47.0238 H   0  0  0  0  0  0  0  0  0  0  0  0
   58.2954   35.3162   45.7058 H   0  0  0  0  0  0  0  0  0  0  0  0
   56.6949   34.1365   44.2040 H   0  0  0  0  0  0  0  0  0  0  0  0
   56.7299   31.6532   44.0424 H   0  0  0  0  0  0  0  0  0  0  0  0
   60.4197   29.7684   44.8278 H   0  0  0  0  0  0  0  0  0  0  0  0
   60.3543   27.2890   44.6153 H   0  0  0  0  0  0  0  0  0  0  0  0
   59.6912   25.2824   46.4794 H   0  0  0  0  0  0  0  0  0  0  0  0
   58.4460   20.8330   44.8100 H   0  0  0  0  0  0  0  0  0  0  0  0
   56.6658   20.7163   42.9008 H   0  0  0  0  0  0  0  0  0  0  0  0
   55.9098   23.2260   42.2747 H   0  0  0  0  0  0  0  0  0  0  0  0
   56.1940   29.8058   45.7592 H   0  0  0  0  0  0  0  0  0  0  0  0
  1  2  1  0
  2  3  1  1
  2  4  1  0
  4  5  1  0
  5  6  2  0
  6  7  1  0
  7  8  2  0
  8  9  1  0
  9 10  2  0
 10 11  1  0
 11 12  2  0
 12 13  1  0
 13 14  2  0
 14 15  1  0
 15 16  2  0
 16 17  1  0
 17 18  2  0
 18 19  1  0
 19 20  1  0
 20 21  2  0
 21 22  1  0
 22 23  2  0
 14 24  1  0
 24 25  1  0
 24 26  2  0
 10  5  1  0
 26 11  1  0
 23 15  1  0
 22 18  1  0
  1 27  1  0
  1 28  1  0
  1 29  1  0
  3 30  1  0
  4 31  1  0
  4 32  1  0
  6 33  1  0
  7 34  1  0
  8 35  1  0
  9 36  1  0
 12 37  1  0
 13 38  1  0
 16 39  1  0
 19 40  1  0
 20 41  1  0
 21 42  1  0
 26 43  1  0
M  CHG  1   2   1
M  END
>  <UniqueID>  (8) 
8

>  <SMILES>  (8) 
C[S@+](O)Cc1ccccc1-c1ccc(-c2cnc3[nH]ccc3n2)c(F)c1

>  <Energy>  (8) 
90.8849985745818

>  <Genealogy>  (8) 
C[S+](O)Cc1ccccc1-c1ccc(-c2cnc3[nH]ccc3n2)c(F)c1 (protonated)
C[S@+](O)Cc1ccccc1-c1ccc(-c2cnc3[nH]ccc3n2)c(F)c1 (chirality)
C[S@+](O)Cc1ccccc1-c1ccc(-c2cnc3[nH]ccc3n2)c(F)c1 (3D coordinates assigned)
C[S@+](O)Cc1ccccc1-c1ccc(-c2cnc3[nH]ccc3n2)c(F)c1 (optimized conformer: 90.8849985745818 kcal/mol)

>  <smiles>  (8) 
C[S+]([O-])Cc1ccccc1-c1ccc(-c2cnc3[nH]ccc3n2)c(F)c1

>  <score_type>  (8) 
oracle

>  <origin>  (8) 
adg

>  <m_score__min__energy>  (8) 
-7.1799999999999997

>  <m_primary>  (8) 
energy

$$$$
8:0
     RDKit          3D

 55 57  0  0  0  0  0  0  0  0999 V2000
   57.4350   32.0250   41.3120 C   0  0  0  0  0  0  0  0  0  0  0  0
   57.8920   32.3690   42.7280 C   0  0  0  0  0  0  0  0  0  0  0  0
   56.9970   31.7830   43.7550 N   0  0  0  0  0  0  0  0  0  0  0  0
   57.6710   31.6790   45.0690 C   0  0  0  0  0  0  0  0  0  0  0  0
   58.0490   33.0660   45.5810 C   0  0  0  0  0  0  0  0  0  0  0  0
   56.3630   30.5050   43.3470 C   0  0  0  0  0  0  0  0  0  0  0  0
   57.0890   29.2510   43.8580 C   0  0  0  0  0  0  0  0  0  0  0  0
   56.5740   28.9010   45.1380 O   0  0  0  0  0  0  0  0  0  0  0  0
   57.1880   27.9600   45.9710 C   0  0  0  0  0  0  0  0  0  0  0  0
   56.6300   26.8450   46.1810 O   0  0  0  0  0  0  0  0  0  0  0  0
   58.5780   28.2320   46.5210 C   0  0  1  0  0  0  0  0  0  0  0  0
   58.8760   27.2680   47.6800 C   0  0  0  0  0  0  0  0  0  0  0  0
   59.6960   26.2340   47.1980 O   0  0  0  0  0  0  0  0  0  0  0  0
   60.4720   26.8000   46.1720 C   0  0  0  0  0  0  0  0  0  0  0  0
   59.6660   27.9230   45.5190 C   0  0  2  0  0  0  0  0  0  0  0  0
   60.4620   29.2170   45.3330 C   0  0  0  0  0  0  0  0  0  0  0  0
   60.1190   30.1360   46.4260 N   0  0  0  0  0  0  0  0  0  0  0  0
   61.1390   30.1180   47.4960 C   0  0  0  0  0  0  0  0  0  0  0  0
   61.8270   31.4550   47.5980 C   0  0  0  0  0  0  0  0  0  0  0  0
   61.1030   32.6170   47.8980 C   0  0  0  0  0  0  0  0  0  0  0  0
   61.7590   33.8450   47.9760 C   0  0  0  0  0  0  0  0  0  0  0  0
   63.1360   33.9030   47.7550 C   0  0  0  0  0  0  0  0  0  0  0  0
   63.8290   32.7690   47.4640 N   0  0  0  0  0  0  0  0  0  0  0  0
   63.2100   31.5590   47.3820 C   0  0  0  0  0  0  0  0  0  0  0  0
   58.7890   29.7140   46.8990 C   0  0  0  0  0  0  0  0  0  0  0  0
   56.5570   31.3641   41.3605 H   0  0  0  0  0  0  0  0  0  0  0  0
   57.1693   32.9491   40.7778 H   0  0  0  0  0  0  0  0  0  0  0  0
   58.2496   31.5140   40.7778 H   0  0  0  0  0  0  0  0  0  0  0  0
   58.9094   31.9786   42.8782 H   0  0  0  0  0  0  0  0  0  0  0  0
   57.8672   33.4632   42.8381 H   0  0  0  0  0  0  0  0  0  0  0  0
   56.9913   31.1992   45.7886 H   0  0  0  0  0  0  0  0  0  0  0  0
   58.5851   31.0777   44.9559 H   0  0  0  0  0  0  0  0  0  0  0  0
   58.0483   33.0635   46.6810 H   0  0  0  0  0  0  0  0  0  0  0  0
   59.0521   33.3310   45.2155 H   0  0  0  0  0  0  0  0  0  0  0  0
   57.3190   33.8033   45.2155 H   0  0  0  0  0  0  0  0  0  0  0  0
   55.3341   30.4906   43.7359 H   0  0  0  0  0  0  0  0  0  0  0  0
   56.4036   30.4684   42.2484 H   0  0  0  0  0  0  0  0  0  0  0  0
   56.9261   28.4199   43.1561 H   0  0  0  0  0  0  0  0  0  0  0  0
   58.1672   29.4544   43.9364 H   0  0  0  0  0  0  0  0  0  0  0  0
   59.3936   27.8067   48.4874 H   0  0  0  0  0  0  0  0  0  0  0  0
   57.9378   26.8524   48.0762 H   0  0  0  0  0  0  0  0  0  0  0  0
   61.4032   27.2075   46.5925 H   0  0  0  0  0  0  0  0  0  0  0  0
   60.7260   26.0339   45.4246 H   0  0  0  0  0  0  0  0  0  0  0  0
   59.3296   27.5988   44.5231 H   0  0  0  0  0  0  0  0  0  0  0  0
   61.5394   28.9967   45.3577 H   0  0  0  0  0  0  0  0  0  0  0  0
   60.2156   29.6752   44.3638 H   0  0  0  0  0  0  0  0  0  0  0  0
   60.6522   29.8882   48.4553 H   0  0  0  0  0  0  0  0  0  0  0  0
   61.8900   29.3510   47.2561 H   0  0  0  0  0  0  0  0  0  0  0  0
   60.0183   32.5603   48.0718 H   0  0  0  0  0  0  0  0  0  0  0  0
   61.1959   34.7606   48.2098 H   0  0  0  0  0  0  0  0  0  0  0  0
   63.6618   34.8673   47.8162 H   0  0  0  0  0  0  0  0  0  0  0  0
   64.8580   32.8270   47.2990 H   0  0  0  0  0  0  0  0  0  0  0  0
   63.7964   30.6589   47.1454 H   0  0  0  0  0  0  0  0  0  0  0  0
   58.7305   29.8296   47.9913 H   0  0  0  0  0  0  0  0  0  0  0  0
   58.0102   30.3350   46.4323 H   0  0  0  0  0  0  0  0  0  0  0  0
  1  2  1  0
  2  3  1  0
  3  4  1  0
  4  5  1  0
  3  6  1  0
  6  7  1  0
  7  8  1  0
  8  9  1  0
  9 10  2  0
 11  9  1  6
 11 12  1  0
 12 13  1  0
 13 14  1  0
 14 15  1  0
 15 16  1  0
 16 17  1  0
 17 18  1  0
 18 19  1  0
 19 20  2  0
 20 21  1  0
 21 22  2  0
 22 23  1  0
 23 24  2  0
 17 25  1  0
 15 11  1  0
 24 19  1  0
 25 11  1  0
  1 26  1  0
  1 27  1  0
  1 28  1  0
  2 29  1  0
  2 30  1  0
  4 31  1  0
  4 32  1  0
  5 33  1  0
  5 34  1  0
  5 35  1  0
  6 36  1  0
  6 37  1  0
  7 38  1  0
  7 39  1  0
 12 40  1  0
 12 41  1  0
 14 42  1  0
 14 43  1  0
 15 44  1  6
 16 45  1  0
 16 46  1  0
 18 47  1  0
 18 48  1  0
 20 49  1  0
 21 50  1  0
 22 51  1  0
 23 52  1  0
 24 53  1  0
 25 54  1  0
 25 55  1  0
M  CHG  1  23   1
M  END
>  <UniqueID>  (9) 
9

>  <SMILES>  (9) 
CCN(CC)CCOC(=O)[C@@]12COC[C@@H]1CN(Cc1ccc[nH+]c1)C2

>  <Energy>  (9) 
61.73877887949944

>  <Genealogy>  (9) 
CCN(CC)CCOC(=O)C12COCC1CN(Cc1ccc[nH+]c1)C2 (protonated)
CCN(CC)CCOC(=O)[C@@]12COC[C@@H]1CN(Cc1ccc[nH+]c1)C2 (chirality)
CCN(CC)CCOC(=O)[C@@]12COC[C@@H]1CN(Cc1ccc[nH+]c1)C2 (3D coordinates assigned)
CCN(CC)CCOC(=O)[C@@]12COC[C@@H]1CN(Cc1ccc[nH+]c1)C2 (nonaromatic ring conformer: 61.73877887949944 kcal/mol)

>  <smiles>  (9) 
CCN(CC)CCOC(=O)C12COCC1CN(Cc1cccnc1)C2

>  <score_type>  (9) 
oracle

>  <origin>  (9) 
adg

>  <m_score__min__energy>  (9) 
-6.71

>  <m_primary>  (9) 
energy

$$$$
9:0
     RDKit          3D

 30 31  0  0  0  0  0  0  0  0999 V2000
   57.8040   21.8700   44.4670 C   0  0  0  0  0  0  0  0  0  0  0  0
   57.2480   23.1600   44.8910 N   0  0  0  0  0  0  0  0  0  0  0  0
   56.7660   24.1060   43.8780 C   0  0  0  0  0  0  0  0  0  0  0  0
   57.1610   23.4390   46.3110 C   0  0  0  0  0  0  0  0  0  0  0  0
   57.3940   22.5100   47.1330 O   0  0  0  0  0  0  0  0  0  0  0  0
   56.8530   24.8070   46.8770 C   0  0  1  0  0  0  0  0  0  0  0  0
   57.7460   25.9240   46.3140 C   0  0  0  0  0  0  0  0  0  0  0  0
   56.7280   26.9160   45.8400 C   0  0  0  0  0  0  0  0  0  0  0  0
   57.0360   28.2300   45.2300 C   0  0  0  0  0  0  0  0  0  0  0  0
   56.0010   29.0770   44.7890 C   0  0  0  0  0  0  0  0  0  0  0  0
   56.2950   30.3170   44.2150 C   0  0  0  0  0  0  0  0  0  0  0  0
   57.6240   30.7280   44.0740 C   0  0  0  0  0  0  0  0  0  0  0  0
   57.9910   32.2860   43.3540 Cl  0  0  0  0  0  0  0  0  0  0  0  0
   58.6600   29.8960   44.5080 C   0  0  0  0  0  0  0  0  0  0  0  0
   58.3700   28.6550   45.0830 C   0  0  0  0  0  0  0  0  0  0  0  0
   55.5220   26.4840   45.9930 N   0  0  0  0  0  0  0  0  0  0  0  0
   55.5410   25.2380   46.5640 O   0  0  0  0  0  0  0  0  0  0  0  0
   58.0616   21.2724   45.3539 H   0  0  0  0  0  0  0  0  0  0  0  0
   57.0588   21.3298   43.8646 H   0  0  0  0  0  0  0  0  0  0  0  0
   58.7084   22.0407   43.8646 H   0  0  0  0  0  0  0  0  0  0  0  0
   56.3205   24.9803   44.3752 H   0  0  0  0  0  0  0  0  0  0  0  0
   57.6083   24.4312   43.2497 H   0  0  0  0  0  0  0  0  0  0  0  0
   56.0078   23.6157   43.2497 H   0  0  0  0  0  0  0  0  0  0  0  0
   57.0122   24.6651   47.9561 H   0  0  0  0  0  0  0  0  0  0  0  0
   58.3913   26.3534   47.0945 H   0  0  0  0  0  0  0  0  0  0  0  0
   58.4411   25.5881   45.5304 H   0  0  0  0  0  0  0  0  0  0  0  0
   54.9531   28.7603   44.8971 H   0  0  0  0  0  0  0  0  0  0  0  0
   55.4791   30.9710   43.8734 H   0  0  0  0  0  0  0  0  0  0  0  0
   59.7058   30.2184   44.3969 H   0  0  0  0  0  0  0  0  0  0  0  0
   59.1903   28.0059   45.4231 H   0  0  0  0  0  0  0  0  0  0  0  0
  1  2  1  0
  2  3  1  0
  2  4  1  0
  4  5  2  0
  4  6  1  0
  6  7  1  0
  7  8  1  0
  8  9  1  0
  9 10  2  0
 10 11  1  0
 11 12  2  0
 12 13  1  0
 12 14  1  0
 14 15  2  0
  8 16  2  0
 16 17  1  0
 17  6  1  0
 15  9  1  0
  1 18  1  0
  1 19  1  0
  1 20  1  0
  3 21  1  0
  3 22  1  0
  3 23  1  0
  6 24  1  1
  7 25  1  0
  7 26  1  0
 10 27  1  0
 11 28  1  0
 14 29  1  0
 15 30  1  0
M  END
>  <UniqueID>  (10) 
10

>  <SMILES>  (10) 
CN(C)C(=O)[C@H]1CC(c2ccc(Cl)cc2)=NO1

>  <Energy>  (10) 
42.63628895434048

>  <Genealogy>  (10) 
CN(C)C(=O)[C@H]1CC(c2ccc(Cl)cc2)=NO1 (chirality)
CN(C)C(=O)[C@H]1CC(c2ccc(Cl)cc2)=NO1 (3D coordinates assigned)
CN(C)C(=O)[C@H]1CC(c2ccc(Cl)cc2)=NO1 (nonaromatic ring conformer: 42.63628895434048 kcal/mol)

>  <smiles>  (10) 
CN(C)C(=O)C1CC(c2ccc(Cl)cc2)=NO1

>  <score_type>  (10) 
oracle

>  <origin>  (10) 
adg

>  <m_score__min__energy>  (10) 
-6.96

>  <m_primary>  (10) 
energy

$$$$
10:0
     RDKit          3D

 54 57  0  0  0  0  0  0  0  0999 V2000
   59.8490   35.4160   46.1140 C   0  0  0  0  0  0  0  0  0  0  0  0
   59.0180   34.9950   44.9020 C   0  0  0  0  0  0  0  0  0  0  0  0
   57.5880   34.5590   45.2690 C   0  0  0  0  0  0  0  0  0  0  0  0
   57.4970   33.5150   46.3960 C   0  0  0  0  0  0  0  0  0  0  0  0
   57.9510   32.1980   45.9490 N   0  0  0  0  0  0  0  0  0  0  0  0
   57.1820   31.3610   45.2570 N   0  0  0  0  0  0  0  0  0  0  0  0
   57.9280   30.2690   45.0120 C   0  0  0  0  0  0  0  0  0  0  0  0
   57.5660   29.1030   44.3510 C   0  0  0  0  0  0  0  0  0  0  0  0
   56.4070   28.9760   43.8720 O   0  0  0  0  0  0  0  0  0  0  0  0
   58.5060   28.1010   44.2480 N   0  0  0  0  0  0  0  0  0  0  0  0
   58.1550   26.7920   43.6680 C   0  0  0  0  0  0  0  0  0  0  0  0
   57.3930   25.8960   44.6680 C   0  0  2  0  0  0  0  0  0  0  0  0
   58.0320   26.0800   46.3320 Cl  0  0  0  0  0  0  0  0  0  0  0  0
   57.3570   24.4430   44.2360 C   0  0  0  0  0  0  0  0  0  0  0  0
   58.2630   23.5270   44.7960 C   0  0  0  0  0  0  0  0  0  0  0  0
   58.1960   22.1700   44.4640 C   0  0  0  0  0  0  0  0  0  0  0  0
   57.2180   21.7130   43.5780 C   0  0  0  0  0  0  0  0  0  0  0  0
   56.3030   22.6100   43.0230 C   0  0  0  0  0  0  0  0  0  0  0  0
   56.3670   23.9670   43.3510 C   0  0  0  0  0  0  0  0  0  0  0  0
   59.7540   28.2790   44.7340 N   0  0  0  0  0  0  0  0  0  0  0  0
   60.1260   29.4220   45.3810 C   0  0  0  0  0  0  0  0  0  0  0  0
   59.1730   30.4140   45.5300 C   0  0  0  0  0  0  0  0  0  0  0  0
   59.1790   31.6470   46.1340 C   0  0  0  0  0  0  0  0  0  0  0  0
   60.5830   32.4150   46.9550 S   0  0  0  0  0  0  0  0  0  0  0  0
   59.7800   32.4530   48.5580 C   0  0  0  0  0  0  0  0  0  0  0  0
   59.9960   33.5340   49.4210 C   0  0  0  0  0  0  0  0  0  0  0  0
   59.3710   33.5690   50.6720 C   0  0  0  0  0  0  0  0  0  0  0  0
   58.5400   32.5170   51.0690 C   0  0  0  0  0  0  0  0  0  0  0  0
   58.3400   31.4260   50.2180 C   0  0  0  0  0  0  0  0  0  0  0  0
   58.9620   31.3900   48.9660 C   0  0  0  0  0  0  0  0  0  0  0  0
   59.3148   35.1454   47.0367 H   0  0  0  0  0  0  0  0  0  0  0  0
   60.8210   34.9016   46.0887 H   0  0  0  0  0  0  0  0  0  0  0  0
   60.0092   36.5040   46.0887 H   0  0  0  0  0  0  0  0  0  0  0  0
   58.9567   35.8459   44.2076 H   0  0  0  0  0  0  0  0  0  0  0  0
   59.5182   34.1266   44.4484 H   0  0  0  0  0  0  0  0  0  0  0  0
   57.0291   35.4522   45.5850 H   0  0  0  0  0  0  0  0  0  0  0  0
   57.1720   34.0796   44.3706 H   0  0  0  0  0  0  0  0  0  0  0  0
   58.1254   33.8425   47.2374 H   0  0  0  0  0  0  0  0  0  0  0  0
   56.4437   33.4300   46.7016 H   0  0  0  0  0  0  0  0  0  0  0  0
   57.5209   26.9549   42.7840 H   0  0  0  0  0  0  0  0  0  0  0  0
   59.0908   26.2794   43.4008 H   0  0  0  0  0  0  0  0  0  0  0  0
   56.3494   26.2435   44.6731 H   0  0  0  0  0  0  0  0  0  0  0  0
   59.0306   23.8795   45.5006 H   0  0  0  0  0  0  0  0  0  0  0  0
   58.9148   21.4615   44.9015 H   0  0  0  0  0  0  0  0  0  0  0  0
   57.1684   20.6455   43.3171 H   0  0  0  0  0  0  0  0  0  0  0  0
   55.5315   22.2484   42.3273 H   0  0  0  0  0  0  0  0  0  0  0  0
   55.6403   24.6689   42.9160 H   0  0  0  0  0  0  0  0  0  0  0  0
   60.4660   27.5180   44.6460 H   0  0  0  0  0  0  0  0  0  0  0  0
   61.1469   29.5498   45.7700 H   0  0  0  0  0  0  0  0  0  0  0  0
   60.6583   34.3572   49.1149 H   0  0  0  0  0  0  0  0  0  0  0  0
   59.5334   34.4247   51.3438 H   0  0  0  0  0  0  0  0  0  0  0  0
   58.0439   32.5477   52.0503 H   0  0  0  0  0  0  0  0  0  0  0  0
   57.6925   30.5947   50.5337 H   0  0  0  0  0  0  0  0  0  0  0  0
   58.8094   30.5272   48.3010 H   0  0  0  0  0  0  0  0  0  0  0  0
  1  2  1  0
  2  3  1  0
  3  4  1  0
  4  5  1  0
  5  6  1  0
  6  7  2  0
  7  8  1  0
  8  9  2  0
  8 10  1  0
 10 11  1  0
 11 12  1  0
 12 13  1  0
 12 14  1  0
 14 15  2  0
 15 16  1  0
 16 17  2  0
 17 18  1  0
 18 19  2  0
 10 20  1  0
 20 21  2  0
 21 22  1  0
 22 23  2  0
 23 24  1  0
 24 25  1  0
 25 26  2  0
 26 27  1  0
 27 28  2  0
 28 29  1  0
 29 30  2  0
 23  5  1  0
 30 25  1  0
 22  7  1  0
 19 14  1  0
  1 31  1  0
  1 32  1  0
  1 33  1  0
  2 34  1  0
  2 35  1  0
  3 36  1  0
  3 37  1  0
  4 38  1  0
  4 39  1  0
 11 40  1  0
 11 41  1  0
 12 42  1  1
 15 43  1  0
 16 44  1  0
 17 45  1  0
 18 46  1  0
 19 47  1  0
 20 48  1  0
 21 49  1  0
 26 50  1  0
 27 51  1  0
 28 52  1  0
 29 53  1  0
 30 54  1  0
M  CHG  1  20   1
M  END
>  <UniqueID>  (11) 
11

>  <SMILES>  (11) 
CCCCn1nc2c(=O)n(C[C@H](Cl)c3ccccc3)[nH+]cc2c1Sc1ccccc1

>  <Energy>  (11) 
87.68619689652743

>  <Genealogy>  (11) 
CCCCn1nc2c(=O)n(CC(Cl)c3ccccc3)[nH+]cc2c1Sc1ccccc1 (protonated)
CCCCn1nc2c(=O)n(C[C@H](Cl)c3ccccc3)[nH+]cc2c1Sc1ccccc1 (chirality)
CCCCn1nc2c(=O)n(C[C@H](Cl)c3ccccc3)[nH+]cc2c1Sc1ccccc1 (3D coordinates assigned)
CCCCn1nc2c(=O)n(C[C@H](Cl)c3ccccc3)[nH+]cc2c1Sc1ccccc1 (optimized conformer: 87.68619689652743 kcal/mol)

>  <smiles>  (11) 
CCCCn1nc2c(=O)n(CC(Cl)c3ccccc3)ncc2c1Sc1ccccc1

>  <score_type>  (11) 
oracle

>  <origin>  (11) 
adg

>  <m_score__min__energy>  (11) 
-8.0099999999999998

>  <m_primary>  (11) 
energy

$$$$
11:0
     RDKit          2D

 47 50  0  0  0  0  0  0  0  0999 V2000
    6.2476   -6.5911    0.0000 C   0  0  0  0  0  0  0  0  0  0  0  0
    5.2420   -5.4781    0.0000 C   0  0  0  0  0  0  0  0  0  0  0  0
    4.2364   -4.3650    0.0000 C   0  0  0  0  0  0  0  0  0  0  0  0
    3.2308   -3.2520    0.0000 C   0  0  0  0  0  0  0  0  0  0  0  0
    2.2253   -2.1390    0.0000 C   0  0  0  0  0  0  0  0  0  0  0  0
    1.2197   -1.0260    0.0000 C   0  0  0  0  0  0  0  0  0  0  0  0
    0.2141    0.0870    0.0000 N   0  0  0  0  0  0  0  0  0  0  0  0
   -1.2526   -0.2274    0.0000 C   0  0  0  0  0  0  0  0  0  0  0  0
   -1.6058   -1.6852    0.0000 C   0  0  0  0  0  0  0  0  0  0  0  0
   -0.4330   -0.7500    0.0000 C   0  0  0  0  0  0  0  0  0  0  0  0
   -0.4330    0.7500    0.0000 C   0  0  0  0  0  0  0  0  0  0  0  0
    0.8660    0.0000    0.0000 C   0  0  0  0  0  0  0  0  0  0  0  0
    2.3548    0.1828    0.0000 O   0  0  0  0  0  0  0  0  0  0  0  0
   -1.6058    1.6852    0.0000 C   0  0  0  0  0  0  0  0  0  0  0  0
   -3.0682    1.3515    0.0000 C   0  0  0  0  0  0  0  0  0  0  0  0
   -3.7190   -0.0000    0.0000 C   0  0  0  0  0  0  0  0  0  0  0  0
   -5.2148    0.1121    0.0000 C   0  0  0  0  0  0  0  0  0  0  0  0
   -6.0598   -1.1273    0.0000 C   0  0  0  0  0  0  0  0  0  0  0  0
   -5.4089   -2.4787    0.0000 C   0  0  0  0  0  0  0  0  0  0  0  0
   -3.9131   -2.5908    0.0000 N   0  0  0  0  0  0  0  0  0  0  0  0
   -3.2623   -3.9423    0.0000 C   0  0  0  0  0  0  0  0  0  0  0  0
   -3.0682   -1.3515    0.0000 C   0  0  0  0  0  0  0  0  0  0  0  0
   -3.6721    0.9775    0.0000 C   0  0  0  0  0  0  0  0  0  0  0  0
   -2.1722    0.9576    0.0000 C   0  0  0  0  0  0  0  0  0  0  0  0
    7.2532   -7.7041    0.0000 H   0  0  0  0  0  0  0  0  0  0  0  0
    5.1346   -7.5967    0.0000 H   0  0  0  0  0  0  0  0  0  0  0  0
    7.3606   -5.5855    0.0000 H   0  0  0  0  0  0  0  0  0  0  0  0
    4.1290   -6.4836    0.0000 H   0  0  0  0  0  0  0  0  0  0  0  0
    6.3550   -4.4725    0.0000 H   0  0  0  0  0  0  0  0  0  0  0  0
    5.3494   -3.3595    0.0000 H   0  0  0  0  0  0  0  0  0  0  0  0
    3.1234   -5.3706    0.0000 H   0  0  0  0  0  0  0  0  0  0  0  0
    2.1178   -4.2576    0.0000 H   0  0  0  0  0  0  0  0  0  0  0  0
    4.3439   -2.2464    0.0000 H   0  0  0  0  0  0  0  0  0  0  0  0
    3.3383   -1.1334    0.0000 H   0  0  0  0  0  0  0  0  0  0  0  0
    1.1122   -3.1446    0.0000 H   0  0  0  0  0  0  0  0  0  0  0  0
    0.1067   -2.0316    0.0000 H   0  0  0  0  0  0  0  0  0  0  0  0
    2.4469   -0.1636    0.0000 H   0  0  0  0  0  0  0  0  0  0  0  0
    0.6752    1.5143    0.0000 H   0  0  0  0  0  0  0  0  0  0  0  0
   -1.0962    3.0960    0.0000 H   0  0  0  0  0  0  0  0  0  0  0  0
   -3.8535    2.6295    0.0000 H   0  0  0  0  0  0  0  0  0  0  0  0
   -7.5556   -1.0152    0.0000 H   0  0  0  0  0  0  0  0  0  0  0  0
   -6.2539   -3.7181    0.0000 H   0  0  0  0  0  0  0  0  0  0  0  0
   -2.6115   -5.2937    0.0000 H   0  0  0  0  0  0  0  0  0  0  0  0
   -4.6138   -4.5931    0.0000 H   0  0  0  0  0  0  0  0  0  0  0  0
   -1.9109   -3.2914    0.0000 H   0  0  0  0  0  0  0  0  0  0  0  0
   -4.4660    2.2502    0.0000 H   0  0  0  0  0  0  0  0  0  0  0  0
   -2.0293    2.4508    0.0000 H   0  0  0  0  0  0  0  0  0  0  0  0
  1  2  1  0
  2  3  1  0
  3  4  1  0
  4  5  1  0
  5  6  1  0
  6  7  1  0
  7  8  1  0
  8  9  2  0
  9 10  1  0
 10 11  2  0
 11 12  1  0
 12 13  2  0
 11 14  1  0
 14 15  2  0
 15 16  1  0
 16 17  2  0
 17 18  1  0
 18 19  2  0
 19 20  1  0
 20 21  1  0
 20 22  2  0
 17 23  1  0
 23 24  2  0
 24  8  1  0
 22  9  1  0
 12 10  1  0
 22 16  1  0
  1 25  1  0
  1 26  1  0
  1 27  1  0
  2 28  1  0
  2 29  1  0
  3 30  1  0
  3 31  1  0
  4 32  1  0
  4 33  1  0
  5 34  1  0
  5 35  1  0
  6 36  1  0
  6 37  1  0
  7 38  1  0
 14 39  1  0
 15 40  1  0
 18 41  1  0
 19 42  1  0
 21 43  1  0
 21 44  1  0
 21 45  1  0
 23 46  1  0
 24 47  1  0
M  CHG  1  20   1
M  END
>  <smiles>  (12) 
CCCCCCNC1=C2c3c(c3=O)C=Cc3c(cc[n+](C)c32)C=C1

>  <m_score__min__energy>  (12) 
nan

>  <m_primary>  (12) 
energy

$$$$
12:0
     RDKit          3D

 47 48  0  0  0  0  0  0  0  0999 V2000
   57.4850   31.2310   43.5310 C   0  0  0  0  0  0  0  0  0  0  0  0
   56.6320   30.5330   44.5050 N   0  0  0  0  0  0  0  0  0  0  0  0
   55.5800   29.7530   43.8350 C   0  0  0  0  0  0  0  0  0  0  0  0
   57.3920   29.7550   45.5120 C   0  0  0  0  0  0  0  0  0  0  0  0
   58.5120   28.8520   44.9440 C   0  0  0  0  0  0  0  0  0  0  0  0
   59.7850   29.0230   45.6770 N   0  0  0  0  0  0  0  0  0  0  0  0
   60.9630   28.6670   44.8630 C   0  0  0  0  0  0  0  0  0  0  0  0
   59.9100   30.3490   46.3270 C   0  0  0  0  0  0  0  0  0  0  0  0
   59.8800   30.3200   47.8700 C   0  0  0  0  0  0  0  0  0  0  0  0
   58.9060   31.2180   48.3980 O   0  0  0  0  0  0  0  0  0  0  0  0
   59.2300   32.3510   49.1520 C   0  0  0  0  0  0  0  0  0  0  0  0
   59.0660   32.3570   50.4020 O   0  0  0  0  0  0  0  0  0  0  0  0
   59.7940   33.5550   48.4480 C   0  0  1  0  0  0  0  0  0  0  0  0
   61.2890   33.4460   48.2510 C   0  0  0  0  0  0  0  0  0  0  0  0
   61.8600   32.8640   47.1060 C   0  0  0  0  0  0  0  0  0  0  0  0
   63.2470   32.8440   47.1200 C   0  0  0  0  0  0  0  0  0  0  0  0
   63.7640   33.5460   48.5550 S   0  0  0  0  0  0  0  0  0  0  0  0
   62.2390   33.8820   49.1740 C   0  0  0  0  0  0  0  0  0  0  0  0
   59.0820   33.8160   47.1460 C   0  0  0  0  0  0  0  0  0  0  0  0
   57.8110   33.3590   46.8200 C   0  0  0  0  0  0  0  0  0  0  0  0
   57.3830   33.7610   45.5500 C   0  0  0  0  0  0  0  0  0  0  0  0
   58.3080   34.5380   44.8680 C   0  0  0  0  0  0  0  0  0  0  0  0
   59.6620   34.7230   45.8480 S   0  0  0  0  0  0  0  0  0  0  0  0
   58.2291   31.8399   44.0653 H   0  0  0  0  0  0  0  0  0  0  0  0
   58.0007   30.4925   42.8996 H   0  0  0  0  0  0  0  0  0  0  0  0
   56.8631   31.8826   42.8996 H   0  0  0  0  0  0  0  0  0  0  0  0
   54.9384   29.2773   44.5913 H   0  0  0  0  0  0  0  0  0  0  0  0
   54.9726   30.4207   43.2064 H   0  0  0  0  0  0  0  0  0  0  0  0
   56.0424   28.9778   43.2064 H   0  0  0  0  0  0  0  0  0  0  0  0
   57.8523   30.4661   46.2138 H   0  0  0  0  0  0  0  0  0  0  0  0
   56.6653   29.0771   45.9835 H   0  0  0  0  0  0  0  0  0  0  0  0
   58.1953   27.8015   45.0220 H   0  0  0  0  0  0  0  0  0  0  0  0
   58.6817   29.1389   43.8957 H   0  0  0  0  0  0  0  0  0  0  0  0
   61.8034   28.4130   45.5257 H   0  0  0  0  0  0  0  0  0  0  0  0
   60.7221   27.8015   44.2282 H   0  0  0  0  0  0  0  0  0  0  0  0
   61.2417   29.5210   44.2282 H   0  0  0  0  0  0  0  0  0  0  0  0
   60.8645   30.7958   46.0118 H   0  0  0  0  0  0  0  0  0  0  0  0
   59.0322   30.9320   46.0116 H   0  0  0  0  0  0  0  0  0  0  0  0
   59.6402   29.2992   48.2023 H   0  0  0  0  0  0  0  0  0  0  0  0
   60.8684   30.6335   48.2370 H   0  0  0  0  0  0  0  0  0  0  0  0
   59.6185   34.4225   49.1012 H   0  0  0  0  0  0  0  0  0  0  0  0
   61.2620   32.4614   46.2752 H   0  0  0  0  0  0  0  0  0  0  0  0
   63.8951   32.4389   46.3289 H   0  0  0  0  0  0  0  0  0  0  0  0
   62.0265   34.3628   50.1403 H   0  0  0  0  0  0  0  0  0  0  0  0
   57.2005   32.7411   47.4949 H   0  0  0  0  0  0  0  0  0  0  0  0
   56.4037   33.4864   45.1311 H   0  0  0  0  0  0  0  0  0  0  0  0
   58.1782   34.9601   43.8605 H   0  0  0  0  0  0  0  0  0  0  0  0
  1  2  1  0
  2  3  1  0
  2  4  1  0
  4  5  1  0
  5  6  1  0
  6  7  1  0
  6  8  1  0
  8  9  1  0
  9 10  1  0
 10 11  1  0
 11 12  2  0
 11 13  1  0
 13 14  1  0
 14 15  1  0
 15 16  2  0
 16 17  1  0
 17 18  1  0
 13 19  1  0
 19 20  2  0
 20 21  1  0
 21 22  2  0
 22 23  1  0
 18 14  2  0
 23 19  1  0
  1 24  1  0
  1 25  1  0
  1 26  1  0
  3 27  1  0
  3 28  1  0
  3 29  1  0
  4 30  1  0
  4 31  1  0
  5 32  1  0
  5 33  1  0
  7 34  1  0
  7 35  1  0
  7 36  1  0
  8 37  1  0
  8 38  1  0
  9 39  1  0
  9 40  1  0
 13 41  1  1
 15 42  1  0
 16 43  1  0
 18 44  1  0
 20 45  1  0
 21 46  1  0
 22 47  1  0
M  END
>  <UniqueID>  (13) 
12

>  <SMILES>  (13) 
CN(C)CCN(C)CCOC(=O)[C@@H](c1ccsc1)c1cccs1

>  <Energy>  (13) 
101.19961653131013

>  <Genealogy>  (13) 
CN(C)CCN(C)CCOC(=O)[C@@H](c1ccsc1)c1cccs1 (chirality)
CN(C)CCN(C)CCOC(=O)[C@@H](c1ccsc1)c1cccs1 (3D coordinates assigned)
CN(C)CCN(C)CCOC(=O)[C@@H](c1ccsc1)c1cccs1 (optimized conformer: 101.19961653131013 kcal/mol)

>  <smiles>  (13) 
CN(C)CCN(C)CCOC(=O)C(c1ccsc1)c1cccs1

>  <score_type>  (13) 
oracle

>  <origin>  (13) 
adg

>  <m_score__min__energy>  (13) 
-6.5999999999999996

>  <m_primary>  (13) 
energy

$$$$
13:0
     RDKit          3D

 41 43  0  0  0  0  0  0  0  0999 V2000
   56.8950   28.1450   45.3980 C   0  0  0  0  0  0  0  0  0  0  0  0
   56.2180   29.3510   45.0540 O   0  0  0  0  0  0  0  0  0  0  0  0
   56.7390   30.3610   44.2290 C   0  0  0  0  0  0  0  0  0  0  0  0
   56.5140   30.3410   42.8380 C   0  0  0  0  0  0  0  0  0  0  0  0
   57.0270   31.3440   42.0200 C   0  0  0  0  0  0  0  0  0  0  0  0
   57.7790   32.3780   42.5680 C   0  0  0  0  0  0  0  0  0  0  0  0
   58.0360   32.4160   43.9450 C   0  0  0  0  0  0  0  0  0  0  0  0
   58.8290   33.5700   44.5140 C   0  0  0  0  0  0  0  0  0  0  0  0
   58.3510   33.9090   45.8620 N   0  0  0  0  0  0  0  0  0  0  0  0
   59.4440   33.8620   46.8000 C   0  0  0  0  0  0  0  0  0  0  0  0
   59.2480   34.2430   48.1410 C   0  0  0  0  0  0  0  0  0  0  0  0
   60.3110   34.2290   49.0470 C   0  0  0  0  0  0  0  0  0  0  0  0
   61.5900   33.8430   48.6230 C   0  0  0  0  0  0  0  0  0  0  0  0
   62.6750   33.8210   49.5080 C   0  0  0  0  0  0  0  0  0  0  0  0
   63.9370   33.4370   49.0490 C   0  0  0  0  0  0  0  0  0  0  0  0
   64.1020   33.0780   47.7090 C   0  0  0  0  0  0  0  0  0  0  0  0
   63.0410   33.1030   46.8590 N   0  0  0  0  0  0  0  0  0  0  0  0
   61.7990   33.4710   47.2770 C   0  0  0  0  0  0  0  0  0  0  0  0
   60.7310   33.4850   46.3740 C   0  0  0  0  0  0  0  0  0  0  0  0
   57.5040   31.4170   44.7930 C   0  0  0  0  0  0  0  0  0  0  0  0
   57.7680   31.5330   46.1720 O   0  0  0  0  0  0  0  0  0  0  0  0
   58.5880   30.6750   46.9570 C   0  0  0  0  0  0  0  0  0  0  0  0
   56.9466   28.0530   46.4929 H   0  0  0  0  0  0  0  0  0  0  0  0
   56.3473   27.2859   44.9833 H   0  0  0  0  0  0  0  0  0  0  0  0
   57.9136   28.1652   44.9833 H   0  0  0  0  0  0  0  0  0  0  0  0
   55.9266   29.5240   42.3937 H   0  0  0  0  0  0  0  0  0  0  0  0
   56.8370   31.3187   40.9368 H   0  0  0  0  0  0  0  0  0  0  0  0
   58.1745   33.1710   41.9162 H   0  0  0  0  0  0  0  0  0  0  0  0
   59.8909   33.2881   44.5669 H   0  0  0  0  0  0  0  0  0  0  0  0
   58.7008   34.4457   43.8608 H   0  0  0  0  0  0  0  0  0  0  0  0
   57.9290   34.8680   45.8550 H   0  0  0  0  0  0  0  0  0  0  0  0
   57.6080   33.2320   46.1570 H   0  0  0  0  0  0  0  0  0  0  0  0
   58.2485   34.5546   48.4784 H   0  0  0  0  0  0  0  0  0  0  0  0
   60.1442   34.5212   50.0943 H   0  0  0  0  0  0  0  0  0  0  0  0
   62.5338   34.1052   50.5612 H   0  0  0  0  0  0  0  0  0  0  0  0
   64.7947   33.4174   49.7375 H   0  0  0  0  0  0  0  0  0  0  0  0
   65.0930   32.7743   47.3405 H   0  0  0  0  0  0  0  0  0  0  0  0
   60.8981   33.1997   45.3249 H   0  0  0  0  0  0  0  0  0  0  0  0
   58.4040   30.8675   48.0243 H   0  0  0  0  0  0  0  0  0  0  0  0
   58.3476   29.6266   46.7268 H   0  0  0  0  0  0  0  0  0  0  0  0
   59.6462   30.8676   46.7268 H   0  0  0  0  0  0  0  0  0  0  0  0
  1  2  1  0
  2  3  1  0
  3  4  2  0
  4  5  1  0
  5  6  2  0
  6  7  1  0
  7  8  1  0
  8  9  1  0
  9 10  1  0
 10 11  2  0
 11 12  1  0
 12 13  2  0
 13 14  1  0
 14 15  2  0
 15 16  1  0
 16 17  2  0
 17 18  1  0
 18 19  2  0
  7 20  2  0
 20 21  1  0
 21 22  1  0
 20  3  1  0
 19 10  1  0
 18 13  1  0
  1 23  1  0
  1 24  1  0
  1 25  1  0
  4 26  1  0
  5 27  1  0
  6 28  1  0
  8 29  1  0
  8 30  1  0
  9 31  1  0
  9 32  1  0
 11 33  1  0
 12 34  1  0
 14 35  1  0
 15 36  1  0
 16 37  1  0
 19 38  1  0
 22 39  1  0
 22 40  1  0
 22 41  1  0
M  CHG  1   9   1
M  END
>  <UniqueID>  (14) 
13

>  <SMILES>  (14) 
COc1cccc(C[NH2+]c2ccc3cccnc3c2)c1OC

>  <Energy>  (14) 
49.08152311206689

>  <Genealogy>  (14) 
COc1cccc(C[NH2+]c2ccc3cccnc3c2)c1OC (protonated)
COc1cccc(C[NH2+]c2ccc3cccnc3c2)c1OC (3D coordinates assigned)
COc1cccc(C[NH2+]c2ccc3cccnc3c2)c1OC (optimized conformer: 49.08152311206689 kcal/mol)

>  <smiles>  (14) 
COc1cccc(CNc2ccc3cccnc3c2)c1OC

>  <score_type>  (14) 
oracle

>  <origin>  (14) 
adg

>  <m_score__min__energy>  (14) 
-6.2599999999999998

>  <m_primary>  (14) 
energy

$$$$
14:0
     RDKit          3D

 31 31  0  0  0  0  0  0  0  0999 V2000
   61.0033   26.1673   46.1295 H   0  0  0  0  0  0  0  0  0  0  0  0
   60.3500   26.6770   46.8530 C   0  0  0  0  0  0  0  0  0  0  0  0
   60.7460   26.7320   48.1300 C   0  0  0  0  0  0  0  0  0  0  0  0
   61.3294   25.9019   48.5549 H   0  0  0  0  0  0  0  0  0  0  0  0
   60.4040   27.9100   48.9860 C   0  0  0  0  0  0  0  0  0  0  0  0
   60.4856   27.6288   50.0463 H   0  0  0  0  0  0  0  0  0  0  0  0
   61.1000   28.7342   48.7706 H   0  0  0  0  0  0  0  0  0  0  0  0
   59.3749   28.2333   48.7706 H   0  0  0  0  0  0  0  0  0  0  0  0
   59.0800   27.2640   46.3560 C   0  0  0  0  0  0  0  0  0  0  0  0
   59.1130   28.5390   45.7790 C   0  0  0  0  0  0  0  0  0  0  0  0
   60.0705   29.0763   45.7125 H   0  0  0  0  0  0  0  0  0  0  0  0
   57.9440   29.1470   45.2820 C   0  0  0  0  0  0  0  0  0  0  0  0
   57.9850   30.4310   44.7140 O   0  0  0  0  0  0  0  0  0  0  0  0
   58.4930   31.5950   45.3590 C   0  0  0  0  0  0  0  0  0  0  0  0
   58.4359   31.4642   46.4497 H   0  0  0  0  0  0  0  0  0  0  0  0
   59.5409   31.7506   45.0627 H   0  0  0  0  0  0  0  0  0  0  0  0
   57.8945   32.4691   45.0627 H   0  0  0  0  0  0  0  0  0  0  0  0
   56.7120   28.4470   45.3620 C   0  0  0  0  0  0  0  0  0  0  0  0
   55.4870   28.9660   44.9000 O   0  0  0  0  0  0  0  0  0  0  0  0
   55.2770   29.7180   43.7100 C   0  0  0  0  0  0  0  0  0  0  0  0
   54.9897   30.7469   43.9724 H   0  0  0  0  0  0  0  0  0  0  0  0
   56.2046   29.7357   43.1190 H   0  0  0  0  0  0  0  0  0  0  0  0
   54.4745   29.2526   43.1190 H   0  0  0  0  0  0  0  0  0  0  0  0
   56.6790   27.1610   45.9230 C   0  0  0  0  0  0  0  0  0  0  0  0
   55.4440   26.4930   45.9730 O   0  0  0  0  0  0  0  0  0  0  0  0
   55.2530   25.1150   45.6710 C   0  0  0  0  0  0  0  0  0  0  0  0
   55.1736   24.5422   46.6067 H   0  0  0  0  0  0  0  0  0  0  0  0
   54.3293   24.9923   45.0865 H   0  0  0  0  0  0  0  0  0  0  0  0
   56.1085   24.7457   45.0865 H   0  0  0  0  0  0  0  0  0  0  0  0
   57.8600   26.5740   46.4120 C   0  0  0  0  0  0  0  0  0  0  0  0
   57.8265   25.5626   46.8431 H   0  0  0  0  0  0  0  0  0  0  0  0
  1  2  1  0
  2  3  2  0
  3  4  1  0
  3  5  1  0
  5  6  1  0
  5  7  1  0
  5  8  1  0
  2  9  1  0
  9 10  2  0
 10 11  1  0
 10 12  1  0
 12 13  1  0
 13 14  1  0
 14 15  1  0
 14 16  1  0
 14 17  1  0
 12 18  2  0
 18 19  1  0
 19 20  1  0
 20 21  1  0
 20 22  1  0
 20 23  1  0
 18 24  1  0
 24 25  1  0
 25 26  1  0
 26 27  1  0
 26 28  1  0
 26 29  1  0
 24 30  2  0
 30 31  1  0
 30  9  1  0
M  END
>  <UniqueID>  (15) 
14

>  <SMILES>  (15) 
C/C=C/c1cc(OC)c(OC)c(OC)c1

>  <Energy>  (15) 
29.718381586253344

>  <Genealogy>  (15) 
C/C=C/c1cc(OC)c(OC)c(OC)c1 (cis-trans isomerization)
C/C=C/c1cc(OC)c(OC)c(OC)c1 (3D coordinates assigned)
C/C=C/c1cc(OC)c(OC)c(OC)c1 (optimized conformer: 29.718381586253344 kcal/mol)

>  <smiles>  (15) 
CC=Cc1cc(OC)c(OC)c(OC)c1

>  <score_type>  (15) 
oracle

>  <origin>  (15) 
adg

>  <m_score__min__energy>  (15) 
-5.0599999999999996

>  <m_primary>  (15) 
energy

$$$$
15:0
     RDKit          3D

 58 60  0  0  0  0  0  0  0  0999 V2000
   65.7230   33.0190   50.4680 C   0  0  0  0  0  0  0  0  0  0  0  0
   64.4350   33.2990   49.7550 C   0  0  0  0  0  0  0  0  0  0  0  0
   63.2980   33.6970   50.4740 C   0  0  0  0  0  0  0  0  0  0  0  0
   62.0850   33.9190   49.8150 C   0  0  0  0  0  0  0  0  0  0  0  0
   61.9910   33.7380   48.4260 C   0  0  0  0  0  0  0  0  0  0  0  0
   60.7490   33.9750   47.7440 N   0  0  0  0  0  0  0  0  0  0  0  0
   60.7410   34.5970   46.4160 C   0  0  0  0  0  0  0  0  0  0  0  0
   59.8610   33.7770   45.4730 C   0  0  0  0  0  0  0  0  0  0  0  0
   58.5440   33.4920   46.0700 N   0  0  0  0  0  0  0  0  0  0  0  0
   57.4510   33.0470   45.2360 C   0  0  0  0  0  0  0  0  0  0  0  0
   56.2640   33.3000   45.5850 O   0  0  0  0  0  0  0  0  0  0  0  0
   57.6990   32.3680   43.9080 C   0  0  0  0  0  0  0  0  0  0  0  0
   58.0660   30.8760   44.0370 C   0  0  0  0  0  0  0  0  0  0  0  0
   57.0560   30.0900   44.7850 N   0  0  0  0  0  0  0  0  0  0  0  0
   55.7410   30.1580   44.1200 C   0  0  0  0  0  0  0  0  0  0  0  0
   57.4710   28.6720   44.9000 C   0  0  0  0  0  0  0  0  0  0  0  0
   57.7920   28.2630   46.3490 C   0  0  0  0  0  0  0  0  0  0  0  0
   58.9190   29.0670   46.9520 C   0  0  0  0  0  0  0  0  0  0  0  0
   58.9040   29.3930   48.3190 C   0  0  0  0  0  0  0  0  0  0  0  0
   59.9450   30.1440   48.8750 C   0  0  0  0  0  0  0  0  0  0  0  0
   61.0090   30.5660   48.0770 C   0  0  0  0  0  0  0  0  0  0  0  0
   61.0290   30.2520   46.7160 C   0  0  0  0  0  0  0  0  0  0  0  0
   59.9850   29.5120   46.1520 C   0  0  0  0  0  0  0  0  0  0  0  0
   58.2790   33.8620   47.4700 C   0  0  0  0  0  0  0  0  0  0  0  0
   59.4870   33.5430   48.3610 C   0  0  0  0  0  0  0  0  0  0  0  0
   63.1230   33.3200   47.7090 C   0  0  0  0  0  0  0  0  0  0  0  0
   64.3350   33.0960   48.3710 C   0  0  0  0  0  0  0  0  0  0  0  0
   65.5560   33.0553   51.5546 H   0  0  0  0  0  0  0  0  0  0  0  0
   66.0884   32.0204   50.1864 H   0  0  0  0  0  0  0  0  0  0  0  0
   66.4700   33.7757   50.1864 H   0  0  0  0  0  0  0  0  0  0  0  0
   63.3612   33.8353   51.5634 H   0  0  0  0  0  0  0  0  0  0  0  0
   61.2009   34.2367   50.3871 H   0  0  0  0  0  0  0  0  0  0  0  0
   60.3425   35.6194   46.4927 H   0  0  0  0  0  0  0  0  0  0  0  0
   61.7673   34.6313   46.0217 H   0  0  0  0  0  0  0  0  0  0  0  0
   59.7154   34.3411   44.5399 H   0  0  0  0  0  0  0  0  0  0  0  0
   60.3650   32.8188   45.2784 H   0  0  0  0  0  0  0  0  0  0  0  0
   56.7864   32.4503   43.2995 H   0  0  0  0  0  0  0  0  0  0  0  0
   58.5586   32.8728   43.4430 H   0  0  0  0  0  0  0  0  0  0  0  0
   58.1624   30.4508   43.0271 H   0  0  0  0  0  0  0  0  0  0  0  0
   59.0089   30.8183   44.6006 H   0  0  0  0  0  0  0  0  0  0  0  0
   54.9472   30.1990   44.8804 H   0  0  0  0  0  0  0  0  0  0  0  0
   55.6940   31.0598   43.4918 H   0  0  0  0  0  0  0  0  0  0  0  0
   55.6012   29.2659   43.4918 H   0  0  0  0  0  0  0  0  0  0  0  0
   56.6553   28.0352   44.5270 H   0  0  0  0  0  0  0  0  0  0  0  0
   58.3892   28.5453   44.3076 H   0  0  0  0  0  0  0  0  0  0  0  0
   56.8904   28.4081   46.9623 H   0  0  0  0  0  0  0  0  0  0  0  0
   58.1109   27.2104   46.3313 H   0  0  0  0  0  0  0  0  0  0  0  0
   58.0710   29.0565   48.9537 H   0  0  0  0  0  0  0  0  0  0  0  0
   59.9248   30.4025   49.9440 H   0  0  0  0  0  0  0  0  0  0  0  0
   61.8322   31.1460   48.5197 H   0  0  0  0  0  0  0  0  0  0  0  0
   61.8670   30.5872   46.0871 H   0  0  0  0  0  0  0  0  0  0  0  0
   59.9984   29.2773   45.0774 H   0  0  0  0  0  0  0  0  0  0  0  0
   58.0674   34.9401   47.5233 H   0  0  0  0  0  0  0  0  0  0  0  0
   57.4160   33.2818   47.8286 H   0  0  0  0  0  0  0  0  0  0  0  0
   59.3658   34.0607   49.3240 H   0  0  0  0  0  0  0  0  0  0  0  0
   59.5303   32.4528   48.5011 H   0  0  0  0  0  0  0  0  0  0  0  0
   63.0569   33.1678   46.6216 H   0  0  0  0  0  0  0  0  0  0  0  0
   65.2144   32.7588   47.8027 H   0  0  0  0  0  0  0  0  0  0  0  0
  1  2  1  0
  2  3  2  0
  3  4  1  0
  4  5  2  0
  5  6  1  0
  6  7  1  0
  7  8  1  0
  8  9  1  0
  9 10  1  0
 10 11  2  0
 10 12  1  0
 12 13  1  0
 13 14  1  0
 14 15  1  0
 14 16  1  0
 16 17  1  0
 17 18  1  0
 18 19  2  0
 19 20  1  0
 20 21  2  0
 21 22  1  0
 22 23  2  0
  9 24  1  0
 24 25  1  0
  5 26  1  0
 26 27  2  0
 27  2  1  0
 25  6  1  0
 23 18  1  0
  1 28  1  0
  1 29  1  0
  1 30  1  0
  3 31  1  0
  4 32  1  0
  7 33  1  0
  7 34  1  0
  8 35  1  0
  8 36  1  0
 12 37  1  0
 12 38  1  0
 13 39  1  0
 13 40  1  0
 15 41  1  0
 15 42  1  0
 15 43  1  0
 16 44  1  0
 16 45  1  0
 17 46  1  0
 17 47  1  0
 19 48  1  0
 20 49  1  0
 21 50  1  0
 22 51  1  0
 23 52  1  0
 24 53  1  0
 24 54  1  0
 25 55  1  0
 25 56  1  0
 26 57  1  0
 27 58  1  0
M  END
>  <UniqueID>  (16) 
15

>  <SMILES>  (16) 
Cc1ccc(N2CCN(C(=O)CCN(C)CCc3ccccc3)CC2)cc1

>  <Energy>  (16) 
62.00989613857128

>  <Genealogy>  (16) 
Cc1ccc(N2CCN(C(=O)CCN(C)CCc3ccccc3)CC2)cc1 (3D coordinates assigned)
Cc1ccc(N2CCN(C(=O)CCN(C)CCc3ccccc3)CC2)cc1 (nonaromatic ring conformer: 62.00989613857128 kcal/mol)

>  <smiles>  (16) 
Cc1ccc(N2CCN(C(=O)CCN(C)CCc3ccccc3)CC2)cc1

>  <score_type>  (16) 
oracle

>  <origin>  (16) 
adg

>  <m_score__min__energy>  (16) 
-7.9000000000000004

>  <m_primary>  (16) 
energy

$$$$
16:0
     RDKit          3D

 46 47  0  0  0  0  0  0  0  0999 V2000
   60.5680   28.9670   44.8990 C   0  0  0  0  0  0  0  0  0  0  0  0
   59.2610   28.2760   44.5150 C   0  0  0  0  0  0  0  0  0  0  0  0
   58.2210   28.5550   45.5400 N   0  0  0  0  0  0  0  0  0  0  0  0
   58.1700   27.4960   46.5770 C   0  0  0  0  0  0  0  0  0  0  0  0
   59.2340   27.7020   47.6570 C   0  0  0  0  0  0  0  0  0  0  0  0
   56.8810   28.7510   44.9310 C   0  0  0  0  0  0  0  0  0  0  0  0
   56.9650   29.6080   43.6550 C   0  0  0  0  0  0  0  0  0  0  0  0
   57.0400   31.1140   43.9380 C   0  0  0  0  0  0  0  0  0  0  0  0
   57.9550   31.3780   45.0500 N   0  0  0  0  0  0  0  0  0  0  0  0
   58.5560   32.6620   45.3010 C   0  0  0  0  0  0  0  0  0  0  0  0
   58.2440   33.8260   44.5720 C   0  0  0  0  0  0  0  0  0  0  0  0
   58.9090   34.9610   45.0160 C   0  0  0  0  0  0  0  0  0  0  0  0
   59.8890   34.5240   46.3060 S   0  0  0  0  0  0  0  0  0  0  0  0
   59.4780   32.8910   46.3300 C   0  0  0  0  0  0  0  0  0  0  0  0
   60.0920   31.8900   47.2260 C   0  0  0  0  0  0  0  0  0  0  0  0
   59.4940   30.7980   47.4250 O   0  0  0  0  0  0  0  0  0  0  0  0
   61.4150   32.1150   47.8570 C   0  0  0  0  0  0  0  0  0  0  0  0
   61.6710   31.6950   49.1760 C   0  0  0  0  0  0  0  0  0  0  0  0
   62.9260   31.9030   49.7550 C   0  0  0  0  0  0  0  0  0  0  0  0
   63.9420   32.5240   49.0240 C   0  0  0  0  0  0  0  0  0  0  0  0
   65.5160   32.7830   49.7520 Cl  0  0  0  0  0  0  0  0  0  0  0  0
   63.7040   32.9320   47.7080 C   0  0  0  0  0  0  0  0  0  0  0  0
   62.4500   32.7250   47.1250 C   0  0  0  0  0  0  0  0  0  0  0  0
   60.6513   29.0110   45.9950 H   0  0  0  0  0  0  0  0  0  0  0  0
   61.4168   28.3998   44.4893 H   0  0  0  0  0  0  0  0  0  0  0  0
   60.5772   29.9878   44.4893 H   0  0  0  0  0  0  0  0  0  0  0  0
   58.9218   28.6536   43.5391 H   0  0  0  0  0  0  0  0  0  0  0  0
   59.4291   27.1905   44.4557 H   0  0  0  0  0  0  0  0  0  0  0  0
   57.1768   27.5088   47.0495 H   0  0  0  0  0  0  0  0  0  0  0  0
   58.3643   26.5303   46.0874 H   0  0  0  0  0  0  0  0  0  0  0  0
   58.7703   27.6122   48.6504 H   0  0  0  0  0  0  0  0  0  0  0  0
   60.0191   26.9392   47.5485 H   0  0  0  0  0  0  0  0  0  0  0  0
   59.6776   28.7027   47.5485 H   0  0  0  0  0  0  0  0  0  0  0  0
   56.4567   27.7688   44.6754 H   0  0  0  0  0  0  0  0  0  0  0  0
   56.2428   29.2740   45.6584 H   0  0  0  0  0  0  0  0  0  0  0  0
   57.8647   29.3129   43.0951 H   0  0  0  0  0  0  0  0  0  0  0  0
   56.0428   29.4301   43.0823 H   0  0  0  0  0  0  0  0  0  0  0  0
   57.4020   31.6344   43.0390 H   0  0  0  0  0  0  0  0  0  0  0  0
   56.0371   31.4776   44.2063 H   0  0  0  0  0  0  0  0  0  0  0  0
   58.1530   30.5820   45.6940 H   0  0  0  0  0  0  0  0  0  0  0  0
   57.5382   33.8350   43.7283 H   0  0  0  0  0  0  0  0  0  0  0  0
   58.8104   35.9723   44.5947 H   0  0  0  0  0  0  0  0  0  0  0  0
   60.8777   31.1996   49.7551 H   0  0  0  0  0  0  0  0  0  0  0  0
   63.1143   31.5770   50.7886 H   0  0  0  0  0  0  0  0  0  0  0  0
   64.5047   33.4167   47.1302 H   0  0  0  0  0  0  0  0  0  0  0  0
   62.2715   33.0413   46.0867 H   0  0  0  0  0  0  0  0  0  0  0  0
  1  2  1  0
  2  3  1  0
  3  4  1  0
  4  5  1  0
  3  6  1  0
  6  7  1  0
  7  8  1  0
  8  9  1  0
  9 10  1  0
 10 11  1  0
 11 12  2  0
 12 13  1  0
 13 14  1  0
 14 15  1  0
 15 16  2  0
 15 17  1  0
 17 18  2  0
 18 19  1  0
 19 20  2  0
 20 21  1  0
 20 22  1  0
 22 23  2  0
 14 10  2  0
 23 17  1  0
  1 24  1  0
  1 25  1  0
  1 26  1  0
  2 27  1  0
  2 28  1  0
  4 29  1  0
  4 30  1  0
  5 31  1  0
  5 32  1  0
  5 33  1  0
  6 34  1  0
  6 35  1  0
  7 36  1  0
  7 37  1  0
  8 38  1  0
  8 39  1  0
  9 40  1  0
 11 41  1  0
 12 42  1  0
 18 43  1  0
 19 44  1  0
 22 45  1  0
 23 46  1  0
M  END
>  <UniqueID>  (17) 
16

>  <SMILES>  (17) 
CCN(CC)CCCNc1ccsc1C(=O)c1ccc(Cl)cc1

>  <Energy>  (17) 
76.3952726013849

>  <Genealogy>  (17) 
CCN(CC)CCCNc1ccsc1C(=O)c1ccc(Cl)cc1 (3D coordinates assigned)
CCN(CC)CCCNc1ccsc1C(=O)c1ccc(Cl)cc1 (optimized conformer: 76.3952726013849 kcal/mol)

>  <smiles>  (17) 
CCN(CC)CCCNc1ccsc1C(=O)c1ccc(Cl)cc1

>  <score_type>  (17) 
oracle

>  <origin>  (17) 
adg

>  <m_score__min__energy>  (17) 
-6.8899999999999997

>  <m_primary>  (17) 
energy

$$$$
17:0
     RDKit          3D

 49 52  0  0  0  0  0  0  0  0999 V2000
   60.9800   28.1230   50.2020 C   0  0  0  0  0  0  0  0  0  0  0  0
   60.4170   27.5740   48.8900 C   0  0  0  0  0  0  0  0  0  0  0  0
   60.0860   28.6810   47.9610 N   0  0  0  0  0  0  0  0  0  0  0  0
   58.8390   29.3610   48.3830 C   0  0  0  0  0  0  0  0  0  0  0  0
   59.1190   30.7940   48.8030 C   0  0  0  0  0  0  0  0  0  0  0  0
   59.8200   31.6160   47.9040 C   0  0  0  0  0  0  0  0  0  0  0  0
   60.0180   32.9810   48.1710 C   0  0  0  0  0  0  0  0  0  0  0  0
   60.8080   33.8330   47.2080 C   0  0  0  0  0  0  0  0  0  0  0  0
   61.0140   33.1660   46.0090 F   0  0  0  0  0  0  0  0  0  0  0  0
   60.1080   35.0030   46.9610 F   0  0  0  0  0  0  0  0  0  0  0  0
   62.0440   34.1560   47.7460 F   0  0  0  0  0  0  0  0  0  0  0  0
   59.5480   33.5180   49.3820 C   0  0  0  0  0  0  0  0  0  0  0  0
   58.8580   32.7140   50.2890 C   0  0  0  0  0  0  0  0  0  0  0  0
   58.6410   31.3520   50.0190 C   0  0  0  0  0  0  0  0  0  0  0  0
   57.9490   30.5590   50.9950 N   0  0  0  0  0  0  0  0  0  0  0  0
   58.4460   29.5530   51.7350 C   0  0  0  0  0  0  0  0  0  0  0  0
   57.4580   28.9990   52.4600 N   0  0  0  0  0  0  0  0  0  0  0  0
   56.3610   29.6740   52.1350 N   0  0  0  0  0  0  0  0  0  0  0  0
   56.6520   30.6090   51.2440 N   0  0  0  0  0  0  0  0  0  0  0  0
   60.0100   28.2090   46.5490 C   0  0  0  0  0  0  0  0  0  0  0  0
   58.5700   28.1280   46.0610 C   0  0  0  0  0  0  0  0  0  0  0  0
   57.7580   27.0430   46.4500 C   0  0  0  0  0  0  0  0  0  0  0  0
   56.4340   26.9630   46.0220 C   0  0  0  0  0  0  0  0  0  0  0  0
   55.7230   25.9770   46.3490 O   0  0  0  0  0  0  0  0  0  0  0  0
   55.9030   27.9500   45.2570 N   0  0  0  0  0  0  0  0  0  0  0  0
   56.6210   29.0460   44.8930 C   0  0  0  0  0  0  0  0  0  0  0  0
   56.0010   30.0580   44.1430 C   0  0  0  0  0  0  0  0  0  0  0  0
   56.7050   31.2150   43.8050 C   0  0  0  0  0  0  0  0  0  0  0  0
   58.0330   31.3670   44.2150 C   0  0  0  0  0  0  0  0  0  0  0  0
   58.7080   32.4980   43.8990 F   0  0  0  0  0  0  0  0  0  0  0  0
   58.6680   30.3600   44.9550 C   0  0  0  0  0  0  0  0  0  0  0  0
   57.9760   29.1770   45.2990 C   0  0  0  0  0  0  0  0  0  0  0  0
   60.4781   27.6336   51.0497 H   0  0  0  0  0  0  0  0  0  0  0  0
   62.0604   27.9221   50.2499 H   0  0  0  0  0  0  0  0  0  0  0  0
   60.8064   29.2081   50.2499 H   0  0  0  0  0  0  0  0  0  0  0  0
   61.1665   26.9198   48.4205 H   0  0  0  0  0  0  0  0  0  0  0  0
   59.4999   27.0068   49.1072 H   0  0  0  0  0  0  0  0  0  0  0  0
   58.1284   29.3640   47.5433 H   0  0  0  0  0  0  0  0  0  0  0  0
   58.4162   28.8190   49.2418 H   0  0  0  0  0  0  0  0  0  0  0  0
   60.2205   31.1832   46.9754 H   0  0  0  0  0  0  0  0  0  0  0  0
   59.7254   34.5782   49.6156 H   0  0  0  0  0  0  0  0  0  0  0  0
   58.4798   33.1504   51.2252 H   0  0  0  0  0  0  0  0  0  0  0  0
   59.4982   29.2324   51.7459 H   0  0  0  0  0  0  0  0  0  0  0  0
   60.5651   28.9098   45.9081 H   0  0  0  0  0  0  0  0  0  0  0  0
   60.4469   27.2007   46.4997 H   0  0  0  0  0  0  0  0  0  0  0  0
   58.1722   26.2545   47.0955 H   0  0  0  0  0  0  0  0  0  0  0  0
   54.9562   29.9387   43.8204 H   0  0  0  0  0  0  0  0  0  0  0  0
   56.2159   32.0057   43.2172 H   0  0  0  0  0  0  0  0  0  0  0  0
   59.7135   30.4918   45.2705 H   0  0  0  0  0  0  0  0  0  0  0  0
  1  2  1  0
  2  3  1  0
  3  4  1  0
  4  5  1  0
  5  6  2  0
  6  7  1  0
  7  8  1  0
  8  9  1  0
  8 10  1  0
  8 11  1  0
  7 12  2  0
 12 13  1  0
 13 14  2  0
 14 15  1  0
 15 16  1  0
 16 17  2  0
 17 18  1  0
 18 19  2  0
  3 20  1  0
 20 21  1  0
 21 22  2  0
 22 23  1  0
 23 24  2  0
 23 25  1  0
 25 26  1  0
 26 27  2  0
 27 28  1  0
 28 29  2  0
 29 30  1  0
 29 31  1  0
 31 32  2  0
 14  5  1  0
 19 15  1  0
 32 21  1  0
 32 26  1  0
  1 33  1  0
  1 34  1  0
  1 35  1  0
  2 36  1  0
  2 37  1  0
  4 38  1  0
  4 39  1  0
  6 40  1  0
 12 41  1  0
 13 42  1  0
 16 43  1  0
 20 44  1  0
 20 45  1  0
 22 46  1  0
 27 47  1  0
 28 48  1  0
 31 49  1  0
M  CHG  1  25  -1
M  END
>  <UniqueID>  (18) 
17

>  <SMILES>  (18) 
CCN(Cc1cc(C(F)(F)F)ccc1-n1cnnn1)Cc1cc(=O)[n-]c2ccc(F)cc12

>  <Energy>  (18) 
106.83622755033467

>  <Genealogy>  (18) 
CCN(Cc1cc(C(F)(F)F)ccc1-n1cnnn1)Cc1cc(=O)[n-]c2ccc(F)cc12 (protonated)
CCN(Cc1cc(C(F)(F)F)ccc1-n1cnnn1)Cc1cc(=O)[n-]c2ccc(F)cc12 (3D coordinates assigned)
CCN(Cc1cc(C(F)(F)F)ccc1-n1cnnn1)Cc1cc(=O)[n-]c2ccc(F)cc12 (optimized conformer: 106.83622755033467 kcal/mol)

>  <smiles>  (18) 
CCN(Cc1cc(C(F)(F)F)ccc1-n1cnnn1)Cc1cc(=O)[nH]c2ccc(F)cc12

>  <score_type>  (18) 
oracle

>  <origin>  (18) 
adg

>  <m_score__min__energy>  (18) 
-10.75

>  <m_primary>  (18) 
energy

$$$$
18:0
     RDKit          3D

 50 52  0  0  1  0  0  0  0  0999 V2000
   57.8210   32.3450   41.4090 C   0  0  0  0  0  0  0  0  0  0  0  0
   58.1450   31.6810   42.7550 C   0  0  0  0  0  0  0  0  0  0  0  0
   56.8720   31.3110   43.4820 C   0  0  0  0  0  0  0  0  0  0  0  0
   56.6470   29.7910   43.3930 C   0  0  0  0  0  0  0  0  0  0  0  0
   55.6350   29.3350   44.4140 C   0  0  0  0  0  0  0  0  0  0  0  0
   56.9230   31.6540   44.8830 N   0  0  0  0  0  0  0  0  0  0  0  0
   57.9540   31.4270   45.6150 C   0  0  0  0  0  0  0  0  0  0  0  0
   58.2600   30.2060   46.0770 N   0  0  0  0  0  0  0  0  0  0  0  0
   59.3240   29.9350   46.8380 C   0  0  0  0  0  0  0  0  0  0  0  0
   59.5880   28.5500   47.3080 C   0  0  0  0  0  0  0  0  0  0  0  0
   60.1460   30.9490   47.1690 N   0  0  0  0  0  0  0  0  0  0  0  0
   59.9190   32.2200   46.7480 C   0  0  0  0  0  0  0  0  0  0  0  0
   58.8080   32.4630   45.9590 C   0  0  0  0  0  0  0  0  0  0  0  0
   58.8430   33.8220   45.6940 C   0  0  0  0  0  0  0  0  0  0  0  0
   57.8340   34.5560   44.8700 C   0  0  0  0  0  0  0  0  0  0  0  0
   59.9410   34.3440   46.3120 N   0  0  0  0  0  0  0  0  0  0  0  0
   60.5870   33.3840   46.9430 N   0  0  0  0  0  0  0  0  0  0  0  0
   61.7780   33.4370   47.7210 C   0  0  0  0  0  0  0  0  0  0  0  0
   62.9340   32.9660   47.1300 C   0  0  0  0  0  0  0  0  0  0  0  0
   64.1290   32.9930   47.8440 C   0  0  0  0  0  0  0  0  0  0  0  0
   64.1640   33.4920   49.1440 C   0  0  0  0  0  0  0  0  0  0  0  0
   62.9890   33.9650   49.7260 C   0  0  0  0  0  0  0  0  0  0  0  0
   63.0960   34.4450   51.0160 O   0  0  0  0  0  0  0  0  0  0  0  0
   64.1600   34.0520   51.8620 C   0  0  0  0  0  0  0  0  0  0  0  0
   61.8090   33.9330   49.0110 C   0  0  0  0  0  0  0  0  0  0  0  0
   57.3449   33.3206   41.5866 H   0  0  0  0  0  0  0  0  0  0  0  0
   58.7501   32.4889   40.8381 H   0  0  0  0  0  0  0  0  0  0  0  0
   57.1358   31.7012   40.8381 H   0  0  0  0  0  0  0  0  0  0  0  0
   58.7377   30.7716   42.5768 H   0  0  0  0  0  0  0  0  0  0  0  0
   58.7152   32.3897   43.3736 H   0  0  0  0  0  0  0  0  0  0  0  0
   56.0581   31.8734   43.0010 H   0  0  0  0  0  0  0  0  0  0  0  0
   56.2813   29.5396   42.3865 H   0  0  0  0  0  0  0  0  0  0  0  0
   57.6016   29.2825   43.5936 H   0  0  0  0  0  0  0  0  0  0  0  0
   56.0291   29.5126   45.4255 H   0  0  0  0  0  0  0  0  0  0  0  0
   54.6999   29.8988   44.2806 H   0  0  0  0  0  0  0  0  0  0  0  0
   55.4379   28.2611   44.2806 H   0  0  0  0  0  0  0  0  0  0  0  0
   57.6360   29.4080   45.8330 H   0  0  0  0  0  0  0  0  0  0  0  0
   59.5917   28.5305   48.4078 H   0  0  0  0  0  0  0  0  0  0  0  0
   58.8016   27.8790   46.9320 H   0  0  0  0  0  0  0  0  0  0  0  0
   60.5661   28.2154   46.9320 H   0  0  0  0  0  0  0  0  0  0  0  0
   57.1244   35.0722   45.5333 H   0  0  0  0  0  0  0  0  0  0  0  0
   58.3460   35.2942   44.2352 H   0  0  0  0  0  0  0  0  0  0  0  0
   57.2893   33.8416   44.2352 H   0  0  0  0  0  0  0  0  0  0  0  0
   62.9108   32.5725   46.1030 H   0  0  0  0  0  0  0  0  0  0  0  0
   65.0521   32.6176   47.3781 H   0  0  0  0  0  0  0  0  0  0  0  0
   65.1095   33.5126   49.7058 H   0  0  0  0  0  0  0  0  0  0  0  0
   63.8541   34.1650   52.9125 H   0  0  0  0  0  0  0  0  0  0  0  0
   64.4153   33.0002   51.6656 H   0  0  0  0  0  0  0  0  0  0  0  0
   65.0377   34.6853   51.6656 H   0  0  0  0  0  0  0  0  0  0  0  0
   60.8830   34.3063   49.4727 H   0  0  0  0  0  0  0  0  0  0  0  0
  1  2  1  0
  2  3  1  0
  3  4  1  0
  4  5  1  0
  3  6  1  0
  6  7  2  0
  7  8  1  0
  8  9  1  0
  9 10  1  0
  9 11  2  0
 11 12  1  0
 12 13  2  0
 13 14  1  0
 14 15  1  0
 14 16  2  0
 16 17  1  0
 17 18  1  0
 18 19  2  0
 19 20  1  0
 20 21  2  0
 21 22  1  0
 22 23  1  0
 23 24  1  0
 22 25  2  0
 13  7  1  0
 25 18  1  0
 17 12  1  0
  1 26  1  0
  1 27  1  0
  1 28  1  0
  2 29  1  0
  2 30  1  0
  3 31  1  0
  4 32  1  0
  4 33  1  0
  5 34  1  0
  5 35  1  0
  5 36  1  0
  8 37  1  0
 10 38  1  0
 10 39  1  0
 10 40  1  0
 15 41  1  0
 15 42  1  0
 15 43  1  0
 19 44  1  0
 20 45  1  0
 21 46  1  0
 24 47  1  0
 24 48  1  0
 24 49  1  0
 25 50  1  0
M  END
>  <smiles>  (19) 
CCC(CC)N=c1[nH]c(C)nc2c1c(C)nn2-c1cccc(OC)c1

>  <score_type>  (19) 
oracle

>  <origin>  (19) 
adg

>  <m_score__min__energy>  (19) 
-7.6900000000000004

>  <m_primary>  (19) 
energy

$$$$
19:0
     RDKit          3D

 45 48  0  0  0  0  0  0  0  0999 V2000
   65.9180   31.6320   50.8950 C   0  0  0  0  0  0  0  0  0  0  0  0
   64.5500   31.6300   51.2880 O   0  0  0  0  0  0  0  0  0  0  0  0
   63.4670   31.5980   50.3960 C   0  0  0  0  0  0  0  0  0  0  0  0
   63.6070   32.2360   49.1630 C   0  0  0  0  0  0  0  0  0  0  0  0
   62.5570   32.2480   48.2440 C   0  0  0  0  0  0  0  0  0  0  0  0
   61.3330   31.6210   48.5460 C   0  0  0  0  0  0  0  0  0  0  0  0
   61.2010   30.9260   49.7740 C   0  0  0  0  0  0  0  0  0  0  0  0
   62.2590   30.9470   50.6990 C   0  0  0  0  0  0  0  0  0  0  0  0
   59.9620   30.1980   50.1540 C   0  0  0  0  0  0  0  0  0  0  0  0
   59.2020   29.4610   49.3240 C   0  0  0  0  0  0  0  0  0  0  0  0
   59.4790   29.2300   47.8870 C   0  0  0  0  0  0  0  0  0  0  0  0
   59.2130   27.9900   47.3920 N   0  0  0  0  0  0  0  0  0  0  0  0
   59.4720   27.6500   46.1050 C   0  0  0  0  0  0  0  0  0  0  0  0
   60.0550   28.5760   45.2470 C   0  0  0  0  0  0  0  0  0  0  0  0
   60.3250   29.8640   45.7090 C   0  0  0  0  0  0  0  0  0  0  0  0
   59.9850   30.2360   47.0280 C   0  0  0  0  0  0  0  0  0  0  0  0
   60.1680   31.6450   47.5800 C   0  0  2  0  0  0  0  0  0  0  0  0
   60.2990   32.7180   46.5730 N   0  0  0  0  0  0  0  0  0  0  0  0
   58.7540   33.3000   46.0150 S   0  0  0  0  0  0  0  0  0  0  0  0
   58.9200   34.7000   45.4920 O   0  0  0  0  0  0  0  0  0  0  0  0
   57.7910   33.3420   47.1690 O   0  0  0  0  0  0  0  0  0  0  0  0
   58.0910   32.2830   44.7360 C   0  0  0  0  0  0  0  0  0  0  0  0
   58.1240   32.7150   43.4020 C   0  0  0  0  0  0  0  0  0  0  0  0
   57.5500   31.9320   42.3960 C   0  0  0  0  0  0  0  0  0  0  0  0
   56.9470   30.7110   42.7170 C   0  0  0  0  0  0  0  0  0  0  0  0
   56.9180   30.2730   44.0440 C   0  0  0  0  0  0  0  0  0  0  0  0
   57.4890   31.0560   45.0530 C   0  0  0  0  0  0  0  0  0  0  0  0
   66.5568   31.6329   51.7905 H   0  0  0  0  0  0  0  0  0  0  0  0
   66.1286   30.7342   50.2954 H   0  0  0  0  0  0  0  0  0  0  0  0
   66.1259   32.5305   50.2954 H   0  0  0  0  0  0  0  0  0  0  0  0
   64.5550   32.7347   48.9128 H   0  0  0  0  0  0  0  0  0  0  0  0
   62.6867   32.7519   47.2748 H   0  0  0  0  0  0  0  0  0  0  0  0
   62.1400   30.4478   51.6720 H   0  0  0  0  0  0  0  0  0  0  0  0
   59.6391   30.2679   51.2032 H   0  0  0  0  0  0  0  0  0  0  0  0
   58.3015   28.9916   49.7467 H   0  0  0  0  0  0  0  0  0  0  0  0
   59.2212   26.6430   45.7403 H   0  0  0  0  0  0  0  0  0  0  0  0
   60.3012   28.2950   44.2124 H   0  0  0  0  0  0  0  0  0  0  0  0
   60.8058   30.5945   45.0417 H   0  0  0  0  0  0  0  0  0  0  0  0
   59.2335   31.9157   48.0933 H   0  0  0  0  0  0  0  0  0  0  0  0
   60.8990   32.4590   45.7610 H   0  0  0  0  0  0  0  0  0  0  0  0
   58.6026   33.6720   43.1467 H   0  0  0  0  0  0  0  0  0  0  0  0
   57.5725   32.2761   41.3515 H   0  0  0  0  0  0  0  0  0  0  0  0
   56.4956   30.0956   41.9248 H   0  0  0  0  0  0  0  0  0  0  0  0
   56.4458   29.3118   44.2952 H   0  0  0  0  0  0  0  0  0  0  0  0
   57.4659   30.7091   46.0966 H   0  0  0  0  0  0  0  0  0  0  0  0
  1  2  1  0
  2  3  1  0
  3  4  2  0
  4  5  1  0
  5  6  2  0
  6  7  1  0
  7  8  2  0
  7  9  1  0
  9 10  2  0
 10 11  1  0
 11 12  2  0
 12 13  1  0
 13 14  2  0
 14 15  1  0
 15 16  2  0
 16 17  1  0
 17 18  1  0
 18 19  1  0
 19 20  2  0
 19 21  2  0
 19 22  1  0
 22 23  2  0
 23 24  1  0
 24 25  2  0
 25 26  1  0
 26 27  2  0
  8  3  1  0
 16 11  1  0
 27 22  1  0
 17  6  1  0
  1 28  1  0
  1 29  1  0
  1 30  1  0
  4 31  1  0
  5 32  1  0
  8 33  1  0
  9 34  1  0
 10 35  1  0
 13 36  1  0
 14 37  1  0
 15 38  1  0
 17 39  1  1
 18 40  1  0
 23 41  1  0
 24 42  1  0
 25 43  1  0
 26 44  1  0
 27 45  1  0
M  END
>  <UniqueID>  (20) 
18

>  <SMILES>  (20) 
COc1ccc2c(c1)C=Cc1ncccc1[C@@H]2NS(=O)(=O)c1ccccc1

>  <Energy>  (20) 
67.21366109466078

>  <Genealogy>  (20) 
COc1ccc2c(c1)C=Cc1ncccc1[C@@H]2NS(=O)(=O)c1ccccc1 (chirality)
COc1ccc2c(c1)C=Cc1ncccc1[C@@H]2NS(=O)(=O)c1ccccc1 (3D coordinates assigned)
COc1ccc2c(c1)C=Cc1ncccc1[C@@H]2NS(=O)(=O)c1ccccc1 (nonaromatic ring conformer: 67.21366109466078 kcal/mol)

>  <smiles>  (20) 
COc1ccc2c(c1)C=Cc1ncccc1C2NS(=O)(=O)c1ccccc1

>  <score_type>  (20) 
oracle

>  <origin>  (20) 
adg

>  <m_score__min__energy>  (20) 
-6.9100000000000001

>  <m_primary>  (20) 
energy

$$$$
20:0
     RDKit          3D

 62 65  0  0  0  0  0  0  0  0999 V2000
   57.7270   25.5670   47.1590 Cl  0  0  0  0  0  0  0  0  0  0  0  0
   58.0310   27.1430   46.4390 C   0  0  0  0  0  0  0  0  0  0  0  0
   57.1140   27.6540   45.5150 C   0  0  0  0  0  0  0  0  0  0  0  0
   57.3290   28.9030   44.9270 C   0  0  0  0  0  0  0  0  0  0  0  0
   58.4630   29.6560   45.2510 C   0  0  0  0  0  0  0  0  0  0  0  0
   58.6270   30.9030   44.6240 O   0  0  0  0  0  0  0  0  0  0  0  0
   57.7240   32.0090   44.7100 C   0  0  0  0  0  0  0  0  0  0  0  0
   57.6270   32.4970   46.1760 C   0  0  0  0  0  0  0  0  0  0  0  0
   57.3870   34.0110   46.2550 C   0  0  0  0  0  0  0  0  0  0  0  0
   58.4670   34.8000   45.6020 N   0  0  0  0  0  0  0  0  0  0  0  0
   59.4460   35.3190   46.5790 C   0  0  0  0  0  0  0  0  0  0  0  0
   60.1180   34.1840   47.3060 C   0  0  0  0  0  0  0  0  0  0  0  0
   59.9460   34.0410   48.6910 C   0  0  0  0  0  0  0  0  0  0  0  0
   60.5590   32.9860   49.3730 C   0  0  0  0  0  0  0  0  0  0  0  0
   61.3520   32.0600   48.6790 C   0  0  0  0  0  0  0  0  0  0  0  0
   61.9950   30.9070   49.4010 C   0  0  0  0  0  0  0  0  0  0  0  0
   63.3440   31.2930   49.8670 N   0  0  0  0  0  0  0  0  0  0  0  0
   63.4820   31.3710   51.3390 C   0  0  0  0  0  0  0  0  0  0  0  0
   62.4650   32.2990   52.0320 C   0  0  0  0  0  0  0  0  0  0  0  0
   62.9590   33.7520   52.1090 C   0  0  0  0  0  0  0  0  0  0  0  0
   63.4260   34.3310   50.7630 C   0  0  0  0  0  0  0  0  0  0  0  0
   64.5110   33.5280   50.0280 C   0  0  0  0  0  0  0  0  0  0  0  0
   63.9570   32.4120   49.1200 C   0  0  0  0  0  0  0  0  0  0  0  0
   61.5170   32.1970   47.2920 C   0  0  0  0  0  0  0  0  0  0  0  0
   60.9050   33.2540   46.6110 C   0  0  0  0  0  0  0  0  0  0  0  0
   59.1580   34.0850   44.5000 C   0  0  0  0  0  0  0  0  0  0  0  0
   58.2150   33.1240   43.7670 C   0  0  0  0  0  0  0  0  0  0  0  0
   59.3830   29.1440   46.1870 C   0  0  0  0  0  0  0  0  0  0  0  0
   59.1690   27.8930   46.7780 C   0  0  0  0  0  0  0  0  0  0  0  0
   60.3430   27.2890   47.9410 Cl  0  0  0  0  0  0  0  0  0  0  0  0
   56.2200   27.0703   45.2502 H   0  0  0  0  0  0  0  0  0  0  0  0
   56.6007   29.2977   44.2033 H   0  0  0  0  0  0  0  0  0  0  0  0
   56.7137   31.7064   44.3972 H   0  0  0  0  0  0  0  0  0  0  0  0
   56.7929   31.9775   46.6703 H   0  0  0  0  0  0  0  0  0  0  0  0
   58.5813   32.2743   46.6757 H   0  0  0  0  0  0  0  0  0  0  0  0
   56.4331   34.2422   45.7583 H   0  0  0  0  0  0  0  0  0  0  0  0
   57.3702   34.2890   47.3191 H   0  0  0  0  0  0  0  0  0  0  0  0
   60.2071   35.9107   46.0493 H   0  0  0  0  0  0  0  0  0  0  0  0
   58.9186   35.9480   47.3113 H   0  0  0  0  0  0  0  0  0  0  0  0
   59.3257   34.7626   49.2429 H   0  0  0  0  0  0  0  0  0  0  0  0
   60.4189   32.8814   50.4590 H   0  0  0  0  0  0  0  0  0  0  0  0
   61.3762   30.6283   50.2667 H   0  0  0  0  0  0  0  0  0  0  0  0
   62.0805   30.0524   48.7138 H   0  0  0  0  0  0  0  0  0  0  0  0
   63.3568   30.3581   51.7492 H   0  0  0  0  0  0  0  0  0  0  0  0
   64.4767   31.7973   51.5361 H   0  0  0  0  0  0  0  0  0  0  0  0
   61.5220   32.2756   51.4661 H   0  0  0  0  0  0  0  0  0  0  0  0
   62.3254   31.9362   53.0610 H   0  0  0  0  0  0  0  0  0  0  0  0
   62.1360   34.3767   52.4864 H   0  0  0  0  0  0  0  0  0  0  0  0
   63.8347   33.7534   52.7747 H   0  0  0  0  0  0  0  0  0  0  0  0
   62.5493   34.3969   50.1019 H   0  0  0  0  0  0  0  0  0  0  0  0
   63.8833   35.3031   50.9993 H   0  0  0  0  0  0  0  0  0  0  0  0
   65.0940   34.2229   49.4058 H   0  0  0  0  0  0  0  0  0  0  0  0
   65.1218   33.0369   50.7999 H   0  0  0  0  0  0  0  0  0  0  0  0
   63.1941   32.8482   48.4584 H   0  0  0  0  0  0  0  0  0  0  0  0
   64.8085   31.9986   48.5597 H   0  0  0  0  0  0  0  0  0  0  0  0
   62.1299   31.4703   46.7386 H   0  0  0  0  0  0  0  0  0  0  0  0
   61.0416   33.3566   45.5243 H   0  0  0  0  0  0  0  0  0  0  0  0
   59.5424   34.8241   43.7816 H   0  0  0  0  0  0  0  0  0  0  0  0
   59.9776   33.4947   44.9357 H   0  0  0  0  0  0  0  0  0  0  0  0
   57.3473   33.6868   43.3924 H   0  0  0  0  0  0  0  0  0  0  0  0
   58.7631   32.6623   42.9325 H   0  0  0  0  0  0  0  0  0  0  0  0
   60.2743   29.7303   46.4550 H   0  0  0  0  0  0  0  0  0  0  0  0
  1  2  1  0
  2  3  2  0
  3  4  1  0
  4  5  2  0
  5  6  1  0
  6  7  1  0
  7  8  1  0
  8  9  1  0
  9 10  1  0
 10 11  1  0
 11 12  1  0
 12 13  2  0
 13 14  1  0
 14 15  2  0
 15 16  1  0
 16 17  1  0
 17 18  1  0
 18 19  1  0
 19 20  1  0
 20 21  1  0
 21 22  1  0
 22 23  1  0
 15 24  1  0
 24 25  2  0
 10 26  1  0
 26 27  1  0
  5 28  1  0
 28 29  2  0
 29 30  1  0
 29  2  1  0
 27  7  1  0
 25 12  1  0
 23 17  1  0
  3 31  1  0
  4 32  1  0
  7 33  1  0
  8 34  1  0
  8 35  1  0
  9 36  1  0
  9 37  1  0
 11 38  1  0
 11 39  1  0
 13 40  1  0
 14 41  1  0
 16 42  1  0
 16 43  1  0
 18 44  1  0
 18 45  1  0
 19 46  1  0
 19 47  1  0
 20 48  1  0
 20 49  1  0
 21 50  1  0
 21 51  1  0
 22 52  1  0
 22 53  1  0
 23 54  1  0
 23 55  1  0
 24 56  1  0
 25 57  1  0
 26 58  1  0
 26 59  1  0
 27 60  1  0
 27 61  1  0
 28 62  1  0
M  END
>  <UniqueID>  (21) 
19

>  <SMILES>  (21) 
Clc1ccc(OC2CCN(Cc3ccc(CN4CCCCCC4)cc3)CC2)cc1Cl

>  <Energy>  (21) 
82.38655540058127

>  <Genealogy>  (21) 
Clc1ccc(OC2CCN(Cc3ccc(CN4CCCCCC4)cc3)CC2)cc1Cl (3D coordinates assigned)
Clc1ccc(OC2CCN(Cc3ccc(CN4CCCCCC4)cc3)CC2)cc1Cl (nonaromatic ring conformer: 82.38655540058127 kcal/mol)

>  <smiles>  (21) 
Clc1ccc(OC2CCN(Cc3ccc(CN4CCCCCC4)cc3)CC2)cc1Cl

>  <score_type>  (21) 
oracle

>  <origin>  (21) 
adg

>  <m_score__min__energy>  (21) 
-7.5

>  <m_primary>  (21) 
energy

$$$$
21:0
     RDKit          3D

 48 50  0  0  0  0  0  0  0  0999 V2000
   60.8500   34.2400   48.4180 C   0  0  0  0  0  0  0  0  0  0  0  0
   61.5250   33.1560   47.6940 N   0  0  0  0  0  0  0  0  0  0  0  0
   62.6040   33.4970   46.7550 C   0  0  0  0  0  0  0  0  0  0  0  0
   61.1440   31.7710   47.9090 C   0  0  0  0  0  0  0  0  0  0  0  0
   61.1040   30.8560   46.8340 C   0  0  0  0  0  0  0  0  0  0  0  0
   60.7610   29.5190   47.0450 C   0  0  0  0  0  0  0  0  0  0  0  0
   60.4560   29.0600   48.3330 C   0  0  0  0  0  0  0  0  0  0  0  0
   60.1930   27.6290   48.5750 C   0  0  0  0  0  0  0  0  0  0  0  0
   60.6740   27.0840   49.6040 O   0  0  0  0  0  0  0  0  0  0  0  0
   59.3980   26.8370   47.6790 N   0  0  0  0  0  0  0  0  0  0  0  0
   58.6500   27.3140   46.5510 C   0  0  0  0  0  0  0  0  0  0  0  0
   57.7390   28.3520   46.5230 C   0  0  0  0  0  0  0  0  0  0  0  0
   57.3800   28.5180   45.1950 C   0  0  0  0  0  0  0  0  0  0  0  0
   56.3840   29.5040   44.6980 C   0  0  0  0  0  0  0  0  0  0  0  0
   55.1650   29.3470   44.9670 O   0  0  0  0  0  0  0  0  0  0  0  0
   56.7750   30.6910   43.9900 N   0  0  0  0  0  0  0  0  0  0  0  0
   57.5370   31.7870   44.5200 C   0  0  0  0  0  0  0  0  0  0  0  0
   57.6860   31.9580   45.9080 C   0  0  0  0  0  0  0  0  0  0  0  0
   58.3900   33.0530   46.4140 C   0  0  0  0  0  0  0  0  0  0  0  0
   58.9650   33.9790   45.5400 C   0  0  0  0  0  0  0  0  0  0  0  0
   58.8560   33.8010   44.1590 C   0  0  0  0  0  0  0  0  0  0  0  0
   58.1530   32.7030   43.6440 C   0  0  0  0  0  0  0  0  0  0  0  0
   58.0510   32.5420   42.2150 C   0  0  0  0  0  0  0  0  0  0  0  0
   57.9720   32.4170   41.0670 N   0  0  0  0  0  0  0  0  0  0  0  0
   58.0450   27.6130   44.4310 N   0  0  0  0  0  0  0  0  0  0  0  0
   57.9700   27.4440   42.9820 C   0  0  0  0  0  0  0  0  0  0  0  0
   58.8240   26.8830   45.2550 C   0  0  0  0  0  0  0  0  0  0  0  0
   60.4560   29.9650   49.4020 C   0  0  0  0  0  0  0  0  0  0  0  0
   60.8040   31.3020   49.1950 C   0  0  0  0  0  0  0  0  0  0  0  0
   60.9518   34.0766   49.5010 H   0  0  0  0  0  0  0  0  0  0  0  0
   61.3086   35.2026   48.1478 H   0  0  0  0  0  0  0  0  0  0  0  0
   59.7838   34.2531   48.1478 H   0  0  0  0  0  0  0  0  0  0  0  0
   63.5045   33.7816   47.3190 H   0  0  0  0  0  0  0  0  0  0  0  0
   62.8280   32.6259   46.1218 H   0  0  0  0  0  0  0  0  0  0  0  0
   62.2867   34.3386   46.1218 H   0  0  0  0  0  0  0  0  0  0  0  0
   61.3460   31.2008   45.8179 H   0  0  0  0  0  0  0  0  0  0  0  0
   60.7301   28.8219   46.1947 H   0  0  0  0  0  0  0  0  0  0  0  0
   57.3719   28.9311   47.3831 H   0  0  0  0  0  0  0  0  0  0  0  0
   57.2453   31.2247   46.5994 H   0  0  0  0  0  0  0  0  0  0  0  0
   58.4918   33.1864   47.5011 H   0  0  0  0  0  0  0  0  0  0  0  0
   59.5046   34.8500   45.9403 H   0  0  0  0  0  0  0  0  0  0  0  0
   59.3228   34.5240   43.4740 H   0  0  0  0  0  0  0  0  0  0  0  0
   57.5339   26.4613   42.7496 H   0  0  0  0  0  0  0  0  0  0  0  0
   57.3389   28.2360   42.5526 H   0  0  0  0  0  0  0  0  0  0  0  0
   58.9808   27.5074   42.5526 H   0  0  0  0  0  0  0  0  0  0  0  0
   59.4943   26.0695   44.9405 H   0  0  0  0  0  0  0  0  0  0  0  0
   60.1805   29.6211   50.4099 H   0  0  0  0  0  0  0  0  0  0  0  0
   60.8130   31.9984   50.0464 H   0  0  0  0  0  0  0  0  0  0  0  0
  1  2  1  0
  2  3  1  0
  2  4  1  0
  4  5  2  0
  5  6  1  0
  6  7  2  0
  7  8  1  0
  8  9  2  0
  8 10  1  0
 10 11  1  0
 11 12  1  0
 12 13  2  0
 13 14  1  0
 14 15  2  0
 14 16  1  0
 16 17  1  0
 17 18  2  0
 18 19  1  0
 19 20  2  0
 20 21  1  0
 21 22  2  0
 22 23  1  0
 23 24  3  0
 13 25  1  0
 25 26  1  0
 25 27  1  0
  7 28  1  0
 28 29  2  0
 29  4  1  0
 27 11  2  0
 22 17  1  0
  1 30  1  0
  1 31  1  0
  1 32  1  0
  3 33  1  0
  3 34  1  0
  3 35  1  0
  5 36  1  0
  6 37  1  0
 12 38  1  0
 18 39  1  0
 19 40  1  0
 20 41  1  0
 21 42  1  0
 26 43  1  0
 26 44  1  0
 26 45  1  0
 27 46  1  0
 28 47  1  0
 29 48  1  0
M  CHG  2  10  -1  16  -1
M  END
>  <UniqueID>  (22) 
20

>  <SMILES>  (22) 
CN(C)c1ccc(C(=O)[N-]c2cc(C(=O)[N-]c3ccccc3C#N)n(C)c2)cc1

>  <Energy>  (22) 
87.75166610387835

>  <Genealogy>  (22) 
CN(C)c1ccc(C(=O)[N-]c2cc(C(=O)[N-]c3ccccc3C#N)n(C)c2)cc1 (protonated)
CN(C)c1ccc(C(=O)[N-]c2cc(C(=O)[N-]c3ccccc3C#N)n(C)c2)cc1 (3D coordinates assigned)
CN(C)c1ccc(C(=O)[N-]c2cc(C(=O)[N-]c3ccccc3C#N)n(C)c2)cc1 (optimized conformer: 87.75166610387835 kcal/mol)

>  <smiles>  (22) 
CN(C)c1ccc(C(=O)Nc2cc(C(=O)Nc3ccccc3C#N)n(C)c2)cc1

>  <score_type>  (22) 
oracle

>  <origin>  (22) 
adg

>  <m_score__min__energy>  (22) 
-11.51

>  <m_primary>  (22) 
energy

$$$$
22:0
     RDKit          3D

 56 57  0  0  0  0  0  0  0  0999 V2000
   58.2930   27.3510   46.9000 C   0  0  0  0  0  0  0  0  0  0  0  0
   57.4230   27.8420   45.7270 C   0  0  0  0  0  0  0  0  0  0  0  0
   58.0310   28.8910   44.8540 N   0  0  0  0  0  0  0  0  0  0  0  0
   59.4450   28.6070   44.4970 C   0  0  0  0  0  0  0  0  0  0  0  0
   60.4830   29.3400   45.3540 C   0  0  0  0  0  0  0  0  0  0  0  0
   57.2200   29.2890   43.6740 C   0  0  0  0  0  0  0  0  0  0  0  0
   56.9220   30.7940   43.6550 C   0  0  0  0  0  0  0  0  0  0  0  0
   56.9930   31.2990   44.9810 O   0  0  0  0  0  0  0  0  0  0  0  0
   57.4400   32.5890   45.2810 C   0  0  0  0  0  0  0  0  0  0  0  0
   56.6510   33.5710   45.2400 O   0  0  0  0  0  0  0  0  0  0  0  0
   58.8750   32.7990   45.6750 C   0  0  1  0  0  0  0  0  0  0  0  0
   59.3300   34.2290   45.3780 C   0  0  0  0  0  0  0  0  0  0  0  0
   59.2630   34.9730   46.7100 C   0  0  0  0  0  0  0  0  0  0  0  0
   59.3070   33.9000   47.7920 C   0  0  0  0  0  0  0  0  0  0  0  0
   59.0160   32.6440   47.1150 N   0  0  0  0  0  0  0  0  0  0  0  0
   58.8960   31.3740   47.7830 C   0  0  0  0  0  0  0  0  0  0  0  0
   58.3160   30.4190   47.1960 O   0  0  0  0  0  0  0  0  0  0  0  0
   59.4900   31.1650   49.1540 C   0  0  0  0  0  0  0  0  0  0  0  0
   60.9360   30.6480   49.1000 C   0  0  0  0  0  0  0  0  0  0  0  0
   61.8740   31.7520   48.6930 C   0  0  0  0  0  0  0  0  0  0  0  0
   62.5710   31.6770   47.4750 C   0  0  0  0  0  0  0  0  0  0  0  0
   63.4030   32.7290   47.0740 C   0  0  0  0  0  0  0  0  0  0  0  0
   63.5380   33.8620   47.8800 C   0  0  0  0  0  0  0  0  0  0  0  0
   62.8390   33.9490   49.0880 C   0  0  0  0  0  0  0  0  0  0  0  0
   62.0050   32.9000   49.4930 C   0  0  0  0  0  0  0  0  0  0  0  0
   57.8124   27.6222   47.8516 H   0  0  0  0  0  0  0  0  0  0  0  0
   58.4024   26.2579   46.8429 H   0  0  0  0  0  0  0  0  0  0  0  0
   59.2853   27.8223   46.8429 H   0  0  0  0  0  0  0  0  0  0  0  0
   57.1887   26.9727   45.0950 H   0  0  0  0  0  0  0  0  0  0  0  0
   56.5429   28.3140   46.1882 H   0  0  0  0  0  0  0  0  0  0  0  0
   58.0990   29.7470   45.4580 H   0  0  0  0  0  0  0  0  0  0  0  0
   59.6146   27.5255   44.6043 H   0  0  0  0  0  0  0  0  0  0  0  0
   59.5831   28.9674   43.4669 H   0  0  0  0  0  0  0  0  0  0  0  0
   60.2576   29.1809   46.4188 H   0  0  0  0  0  0  0  0  0  0  0  0
   61.4862   28.9489   45.1291 H   0  0  0  0  0  0  0  0  0  0  0  0
   60.4501   30.4163   45.1291 H   0  0  0  0  0  0  0  0  0  0  0  0
   57.7723   29.0259   42.7598 H   0  0  0  0  0  0  0  0  0  0  0  0
   56.2595   28.7558   43.7296 H   0  0  0  0  0  0  0  0  0  0  0  0
   57.6627   31.3082   43.0249 H   0  0  0  0  0  0  0  0  0  0  0  0
   55.9157   30.9673   43.2460 H   0  0  0  0  0  0  0  0  0  0  0  0
   59.4703   32.0677   45.1086 H   0  0  0  0  0  0  0  0  0  0  0  0
   60.3593   34.2305   44.9899 H   0  0  0  0  0  0  0  0  0  0  0  0
   58.6954   34.7054   44.6162 H   0  0  0  0  0  0  0  0  0  0  0  0
   60.1211   35.6537   46.8114 H   0  0  0  0  0  0  0  0  0  0  0  0
   58.3517   35.5844   46.7851 H   0  0  0  0  0  0  0  0  0  0  0  0
   60.3039   33.8636   48.2555 H   0  0  0  0  0  0  0  0  0  0  0  0
   58.5842   34.1045   48.5956 H   0  0  0  0  0  0  0  0  0  0  0  0
   59.4788   32.1241   49.6925 H   0  0  0  0  0  0  0  0  0  0  0  0
   58.8835   30.4040   49.6669 H   0  0  0  0  0  0  0  0  0  0  0  0
   61.2248   30.2752   50.0938 H   0  0  0  0  0  0  0  0  0  0  0  0
   60.9971   29.8372   48.3592 H   0  0  0  0  0  0  0  0  0  0  0  0
   62.4625   30.7891   46.8348 H   0  0  0  0  0  0  0  0  0  0  0  0
   63.9514   32.6634   46.1227 H   0  0  0  0  0  0  0  0  0  0  0  0
   64.1945   34.6862   47.5642 H   0  0  0  0  0  0  0  0  0  0  0  0
   62.9445   34.8426   49.7207 H   0  0  0  0  0  0  0  0  0  0  0  0
   61.4506   32.9746   50.4402 H   0  0  0  0  0  0  0  0  0  0  0  0
  1  2  1  0
  2  3  1  0
  3  4  1  0
  4  5  1  0
  3  6  1  0
  6  7  1  0
  7  8  1  0
  8  9  1  0
  9 10  2  0
  9 11  1  0
 11 12  1  0
 12 13  1  0
 13 14  1  0
 14 15  1  0
 15 16  1  0
 16 17  2  0
 16 18  1  0
 18 19  1  0
 19 20  1  0
 20 21  2  0
 21 22  1  0
 22 23  2  0
 23 24  1  0
 24 25  2  0
 15 11  1  0
 25 20  1  0
  1 26  1  0
  1 27  1  0
  1 28  1  0
  2 29  1  0
  2 30  1  0
  3 31  1  0
  4 32  1  0
  4 33  1  0
  5 34  1  0
  5 35  1  0
  5 36  1  0
  6 37  1  0
  6 38  1  0
  7 39  1  0
  7 40  1  0
 11 41  1  6
 12 42  1  0
 12 43  1  0
 13 44  1  0
 13 45  1  0
 14 46  1  0
 14 47  1  0
 18 48  1  0
 18 49  1  0
 19 50  1  0
 19 51  1  0
 21 52  1  0
 22 53  1  0
 23 54  1  0
 24 55  1  0
 25 56  1  0
M  CHG  1   3   1
M  END
>  <UniqueID>  (23) 
21

>  <SMILES>  (23) 
CC[NH+](CC)CCOC(=O)[C@H]1CCCN1C(=O)CCc1ccccc1

>  <Energy>  (23) 
54.05437523858238

>  <Genealogy>  (23) 
CC[NH+](CC)CCOC(=O)C1CCCN1C(=O)CCc1ccccc1 (protonated)
CC[NH+](CC)CCOC(=O)[C@H]1CCCN1C(=O)CCc1ccccc1 (chirality)
CC[NH+](CC)CCOC(=O)[C@H]1CCCN1C(=O)CCc1ccccc1 (3D coordinates assigned)
CC[NH+](CC)CCOC(=O)[C@H]1CCCN1C(=O)CCc1ccccc1 (nonaromatic ring conformer: 54.05437523858238 kcal/mol)

>  <smiles>  (23) 
CCN(CC)CCOC(=O)C1CCCN1C(=O)CCc1ccccc1

>  <score_type>  (23) 
oracle

>  <origin>  (23) 
adg

>  <m_score__min__energy>  (23) 
-5.2599999999999998

>  <m_primary>  (23) 
energy

$$$$
23:0
     RDKit          3D

 59 62  0  0  0  0  0  0  0  0999 V2000
   67.1770   30.4020   51.5780 C   0  0  0  0  0  0  0  0  0  0  0  0
   66.4200   31.0180   50.4870 N   0  0  0  0  0  0  0  0  0  0  0  0
   66.4950   32.4800   50.5770 C   0  0  0  0  0  0  0  0  0  0  0  0
   65.2690   33.1200   49.9210 C   0  0  0  0  0  0  0  0  0  0  0  0
   64.5690   32.1690   49.0530 N   0  0  0  0  0  0  0  0  0  0  0  0
   63.2650   32.4210   48.4940 C   0  0  0  0  0  0  0  0  0  0  0  0
   62.8280   33.7200   48.1920 C   0  0  0  0  0  0  0  0  0  0  0  0
   61.5650   33.9330   47.6410 C   0  0  0  0  0  0  0  0  0  0  0  0
   60.7170   32.8550   47.3290 C   0  0  0  0  0  0  0  0  0  0  0  0
   61.1170   31.5500   47.7270 C   0  0  0  0  0  0  0  0  0  0  0  0
   62.3960   31.3470   48.2690 C   0  0  0  0  0  0  0  0  0  0  0  0
   60.2120   30.3450   47.5760 C   0  0  0  0  0  0  0  0  0  0  0  0
   58.8780   30.6940   47.2180 O   0  0  0  0  0  0  0  0  0  0  0  0
   58.6410   31.8430   46.4790 C   0  0  0  0  0  0  0  0  0  0  0  0
   57.9140   31.8960   45.3810 C   0  0  0  0  0  0  0  0  0  0  0  0
   57.0940   30.7730   44.8600 C   0  0  0  0  0  0  0  0  0  0  0  0
   55.8390   30.8830   44.8060 O   0  0  0  0  0  0  0  0  0  0  0  0
   57.7320   29.5950   44.3540 N   0  0  0  0  0  0  0  0  0  0  0  0
   58.5440   28.6740   45.0950 C   0  0  0  0  0  0  0  0  0  0  0  0
   59.9320   28.5640   44.8840 C   0  0  0  0  0  0  0  0  0  0  0  0
   60.6810   27.6350   45.6130 C   0  0  0  0  0  0  0  0  0  0  0  0
   60.0550   26.8020   46.5430 C   0  0  0  0  0  0  0  0  0  0  0  0
   58.6740   26.8900   46.7390 C   0  0  0  0  0  0  0  0  0  0  0  0
   57.9210   27.8170   46.0130 C   0  0  0  0  0  0  0  0  0  0  0  0
   58.1340   33.2340   44.7230 C   0  0  0  0  0  0  0  0  0  0  0  0
   56.8300   34.0650   44.8660 C   0  0  0  0  0  0  0  0  0  0  0  0
   58.5210   33.0750   43.2430 C   0  0  0  0  0  0  0  0  0  0  0  0
   59.3040   33.8090   45.4580 N   0  0  0  0  0  0  0  0  0  0  0  0
   59.3270   35.2830   45.5390 C   0  0  0  0  0  0  0  0  0  0  0  0
   59.3240   33.1190   46.7670 C   0  0  2  0  0  0  0  0  0  0  0  0
   66.7671   30.7356   52.5427 H   0  0  0  0  0  0  0  0  0  0  0  0
   67.0995   29.3071   51.5056 H   0  0  0  0  0  0  0  0  0  0  0  0
   68.2333   30.7004   51.5056 H   0  0  0  0  0  0  0  0  0  0  0  0
   65.4170   30.7360   50.6040 H   0  0  0  0  0  0  0  0  0  0  0  0
   66.5353   32.7761   51.6356 H   0  0  0  0  0  0  0  0  0  0  0  0
   67.3993   32.8232   50.0531 H   0  0  0  0  0  0  0  0  0  0  0  0
   64.5796   33.4612   50.7073 H   0  0  0  0  0  0  0  0  0  0  0  0
   65.6081   33.9659   49.3050 H   0  0  0  0  0  0  0  0  0  0  0  0
   65.0380   31.2630   48.8170 H   0  0  0  0  0  0  0  0  0  0  0  0
   63.4875   34.5774   48.3917 H   0  0  0  0  0  0  0  0  0  0  0  0
   61.2261   34.9613   47.4470 H   0  0  0  0  0  0  0  0  0  0  0  0
   62.7207   30.3267   48.5211 H   0  0  0  0  0  0  0  0  0  0  0  0
   60.6256   29.6914   46.7938 H   0  0  0  0  0  0  0  0  0  0  0  0
   60.1700   29.8398   48.5522 H   0  0  0  0  0  0  0  0  0  0  0  0
   60.4278   29.2099   44.1445 H   0  0  0  0  0  0  0  0  0  0  0  0
   61.7668   27.5600   45.4535 H   0  0  0  0  0  0  0  0  0  0  0  0
   60.6481   26.0776   47.1205 H   0  0  0  0  0  0  0  0  0  0  0  0
   58.1791   26.2288   47.4656 H   0  0  0  0  0  0  0  0  0  0  0  0
   56.8328   27.8745   46.1629 H   0  0  0  0  0  0  0  0  0  0  0  0
   56.6026   34.2099   45.9325 H   0  0  0  0  0  0  0  0  0  0  0  0
   56.9645   35.0443   44.3834 H   0  0  0  0  0  0  0  0  0  0  0  0
   55.9991   33.5295   44.3834 H   0  0  0  0  0  0  0  0  0  0  0  0
   59.5364   32.6578   43.1723 H   0  0  0  0  0  0  0  0  0  0  0  0
   57.8104   32.3960   42.7491 H   0  0  0  0  0  0  0  0  0  0  0  0
   58.4930   34.0575   42.7491 H   0  0  0  0  0  0  0  0  0  0  0  0
   59.3318   35.5922   46.5946 H   0  0  0  0  0  0  0  0  0  0  0  0
   60.2312   35.6635   45.0414 H   0  0  0  0  0  0  0  0  0  0  0  0
   58.4351   35.6915   45.0414 H   0  0  0  0  0  0  0  0  0  0  0  0
   58.8488   33.7404   47.5403 H   0  0  0  0  0  0  0  0  0  0  0  0
  1  2  1  0
  2  3  1  0
  3  4  1  0
  4  5  1  0
  5  6  1  0
  6  7  2  0
  7  8  1  0
  8  9  2  0
  9 10  1  0
 10 11  2  0
 10 12  1  0
 12 13  1  0
 13 14  1  0
 14 15  2  0
 15 16  1  0
 16 17  2  0
 16 18  1  0
 18 19  1  0
 19 20  2  0
 20 21  1  0
 21 22  2  0
 22 23  1  0
 23 24  2  0
 15 25  1  0
 25 26  1  0
 25 27  1  0
 25 28  1  0
 28 29  1  0
 28 30  1  0
 11  6  1  0
 30 14  1  0
 30  9  1  0
 24 19  1  0
  1 31  1  0
  1 32  1  0
  1 33  1  0
  2 34  1  0
  3 35  1  0
  3 36  1  0
  4 37  1  0
  4 38  1  0
  5 39  1  0
  7 40  1  0
  8 41  1  0
 11 42  1  0
 12 43  1  0
 12 44  1  0
 20 45  1  0
 21 46  1  0
 22 47  1  0
 23 48  1  0
 24 49  1  0
 26 50  1  0
 26 51  1  0
 26 52  1  0
 27 53  1  0
 27 54  1  0
 27 55  1  0
 29 56  1  0
 29 57  1  0
 29 58  1  0
 30 59  1  1
M  CHG  1  18  -1
M  END
>  <UniqueID>  (24) 
22

>  <SMILES>  (24) 
CNCCNc1ccc2c(c1)COC1=C(C(=O)[N-]c3ccccc3)C(C)(C)N(C)[C@@H]12

>  <Energy>  (24) 
87.50668645390094

>  <Genealogy>  (24) 
CNCCNc1ccc2c(c1)COC1=C(C(=O)[N-]c3ccccc3)C(C)(C)N(C)C12 (protonated)
CNCCNc1ccc2c(c1)COC1=C(C(=O)[N-]c3ccccc3)C(C)(C)N(C)[C@@H]12 (chirality)
CNCCNc1ccc2c(c1)COC1=C(C(=O)[N-]c3ccccc3)C(C)(C)N(C)[C@@H]12 (3D coordinates assigned)
CNCCNc1ccc2c(c1)COC1=C(C(=O)[N-]c3ccccc3)C(C)(C)N(C)[C@@H]12 (nonaromatic ring conformer: 87.50668645390094 kcal/mol)

>  <smiles>  (24) 
CNCCNc1ccc2c(c1)COC1=C(C(=O)Nc3ccccc3)C(C)(C)N(C)C12

>  <score_type>  (24) 
oracle

>  <origin>  (24) 
adg

>  <m_score__min__energy>  (24) 
-10.57

>  <m_primary>  (24) 
energy

$$$$
24:0
     RDKit          3D

 51 54  0  0  0  0  0  0  0  0999 V2000
   63.4650   32.6470   46.9050 C   0  0  0  0  0  0  0  0  0  0  0  0
   62.5780   33.0140   47.8430 C   0  0  0  0  0  0  0  0  0  0  0  0
   61.3060   33.5840   47.6450 C   0  0  0  0  0  0  0  0  0  0  0  0
   60.6000   33.8130   46.5210 C   0  0  0  0  0  0  0  0  0  0  0  0
   59.5010   32.9720   46.0090 C   0  0  0  0  0  0  0  0  0  0  0  0
   58.3670   33.5650   45.4500 C   0  0  0  0  0  0  0  0  0  0  0  0
   58.2790   34.9490   45.3350 O   0  0  0  0  0  0  0  0  0  0  0  0
   57.3460   32.7890   45.0060 N   0  0  0  0  0  0  0  0  0  0  0  0
   57.3930   31.4340   45.1070 C   0  0  0  0  0  0  0  0  0  0  0  0
   56.4170   30.7500   44.6890 O   0  0  0  0  0  0  0  0  0  0  0  0
   58.4810   30.8190   45.6720 N   0  0  0  0  0  0  0  0  0  0  0  0
   58.5240   29.3820   45.7790 C   0  0  0  0  0  0  0  0  0  0  0  0
   58.5220   28.7650   47.0410 C   0  0  0  0  0  0  0  0  0  0  0  0
   58.5610   27.3710   47.1440 C   0  0  0  0  0  0  0  0  0  0  0  0
   58.6010   26.5850   45.9880 C   0  0  0  0  0  0  0  0  0  0  0  0
   58.6030   27.1910   44.7290 C   0  0  0  0  0  0  0  0  0  0  0  0
   58.5640   28.5850   44.6230 C   0  0  0  0  0  0  0  0  0  0  0  0
   59.5290   31.5740   46.1360 C   0  0  0  0  0  0  0  0  0  0  0  0
   60.5290   31.0150   46.6680 O   0  0  0  0  0  0  0  0  0  0  0  0
   60.8180   33.8860   48.9070 C   0  0  0  0  0  0  0  0  0  0  0  0
   61.7660   33.4700   49.8160 C   0  0  0  0  0  0  0  0  0  0  0  0
   61.6300   33.5820   51.3040 C   0  0  0  0  0  0  0  0  0  0  0  0
   62.8270   32.9320   49.1760 N   0  0  0  0  0  0  0  0  0  0  0  0
   64.0160   32.4330   49.8130 C   0  0  0  0  0  0  0  0  0  0  0  0
   63.9530   31.2910   50.6210 C   0  0  0  0  0  0  0  0  0  0  0  0
   65.1040   30.8130   51.2520 C   0  0  0  0  0  0  0  0  0  0  0  0
   66.3230   31.4740   51.0810 C   0  0  0  0  0  0  0  0  0  0  0  0
   66.4030   32.6210   50.2800 C   0  0  0  0  0  0  0  0  0  0  0  0
   67.6490   33.2500   50.1400 O   0  0  0  0  0  0  0  0  0  0  0  0
   68.1740   34.2060   51.0550 C   0  0  0  0  0  0  0  0  0  0  0  0
   65.2400   33.1000   49.6490 C   0  0  0  0  0  0  0  0  0  0  0  0
   64.4301   32.2104   47.2015 H   0  0  0  0  0  0  0  0  0  0  0  0
   63.2269   32.7828   45.8397 H   0  0  0  0  0  0  0  0  0  0  0  0
   60.8658   34.7044   45.9338 H   0  0  0  0  0  0  0  0  0  0  0  0
   56.5070   33.2460   44.5820 H   0  0  0  0  0  0  0  0  0  0  0  0
   58.4896   29.3809   47.9518 H   0  0  0  0  0  0  0  0  0  0  0  0
   58.5602   26.8926   48.1345 H   0  0  0  0  0  0  0  0  0  0  0  0
   58.6309   25.4885   46.0700 H   0  0  0  0  0  0  0  0  0  0  0  0
   58.6353   26.5713   43.8207 H   0  0  0  0  0  0  0  0  0  0  0  0
   58.5647   29.0592   43.6304 H   0  0  0  0  0  0  0  0  0  0  0  0
   59.8561   34.3667   49.1387 H   0  0  0  0  0  0  0  0  0  0  0  0
   62.3917   32.9547   51.7901 H   0  0  0  0  0  0  0  0  0  0  0  0
   61.7702   34.6301   51.6072 H   0  0  0  0  0  0  0  0  0  0  0  0
   60.6283   33.2435   51.6072 H   0  0  0  0  0  0  0  0  0  0  0  0
   62.9947   30.7690   50.7592 H   0  0  0  0  0  0  0  0  0  0  0  0
   65.0505   29.9147   51.8846 H   0  0  0  0  0  0  0  0  0  0  0  0
   67.2263   31.0913   51.5787 H   0  0  0  0  0  0  0  0  0  0  0  0
   67.9884   33.8680   52.0852 H   0  0  0  0  0  0  0  0  0  0  0  0
   69.2569   34.3120   50.8934 H   0  0  0  0  0  0  0  0  0  0  0  0
   67.6824   35.1767   50.8934 H   0  0  0  0  0  0  0  0  0  0  0  0
   65.2905   34.0031   49.0231 H   0  0  0  0  0  0  0  0  0  0  0  0
  1  2  2  0
  2  3  1  0
  3  4  2  3
  4  5  1  0
  5  6  2  0
  6  7  1  0
  6  8  1  0
  8  9  1  0
  9 10  2  0
  9 11  1  0
 11 12  1  0
 12 13  2  0
 13 14  1  0
 14 15  2  0
 15 16  1  0
 16 17  2  0
 11 18  1  0
 18 19  2  0
  3 20  1  0
 20 21  2  0
 21 22  1  0
 21 23  1  0
 23 24  1  0
 24 25  2  0
 25 26  1  0
 26 27  2  0
 27 28  1  0
 28 29  1  0
 29 30  1  0
 28 31  2  0
 23  2  1  0
 31 24  1  0
 18  5  1  0
 17 12  1  0
  1 32  1  0
  1 33  1  0
  4 34  1  0
  8 35  1  0
 13 36  1  0
 14 37  1  0
 15 38  1  0
 16 39  1  0
 17 40  1  0
 20 41  1  0
 22 42  1  0
 22 43  1  0
 22 44  1  0
 25 45  1  0
 26 46  1  0
 27 47  1  0
 30 48  1  0
 30 49  1  0
 30 50  1  0
 31 51  1  0
M  CHG  1   7  -1
M  END
>  <UniqueID>  (25) 
23

>  <SMILES>  (25) 
C=c1c(=Cc2c([O-])[nH]c(=O)n(-c3ccccc3)c2=O)cc(C)n1-c1cccc(OC)c1

>  <Energy>  (25) 
113.13111327776471

>  <Genealogy>  (25) 
C=c1c(=Cc2c([O-])[nH]c(=O)n(-c3ccccc3)c2=O)cc(C)n1-c1cccc(OC)c1 (protonated)
C=c1c(=Cc2c([O-])[nH]c(=O)n(-c3ccccc3)c2=O)cc(C)n1-c1cccc(OC)c1 (3D coordinates assigned)
C=c1c(=Cc2c([O-])[nH]c(=O)n(-c3ccccc3)c2=O)cc(C)n1-c1cccc(OC)c1 (optimized conformer: 113.13111327776471 kcal/mol)

>  <smiles>  (25) 
C=c1c(=Cc2c(O)[nH]c(=O)n(-c3ccccc3)c2=O)cc(C)n1-c1cccc(OC)c1

>  <score_type>  (25) 
oracle

>  <origin>  (25) 
adg

>  <m_score__min__energy>  (25) 
-11.16

>  <m_primary>  (25) 
energy

$$$$
25:0
     RDKit          3D

 75 79  0  0  0  0  0  0  0  0999 V2000
   58.2910   34.2100   45.6600 C   0  0  0  0  0  0  0  0  0  0  0  0
   59.5300   34.4970   46.5150 C   0  0  0  0  0  0  0  0  0  0  0  0
   59.9160   33.3610   47.3730 N   0  0  0  0  0  0  0  0  0  0  0  0
   59.2680   33.3440   48.7040 C   0  0  2  0  0  0  0  0  0  0  0  0
   60.0600   34.2570   49.6880 C   0  0  0  0  0  0  0  0  0  0  0  0
   60.8830   33.4670   50.7060 C   0  0  0  0  0  0  0  0  0  0  0  0
   59.9540   32.5870   51.5440 C   0  0  0  0  0  0  0  0  0  0  0  0
   59.0130   31.8450   50.6960 N   0  0  0  0  0  0  0  0  0  0  0  0
   57.9800   31.0690   51.3280 C   0  0  0  0  0  0  0  0  0  0  0  0
   56.6880   31.4860   51.2380 N   0  0  0  0  0  0  0  0  0  0  0  0
   55.6680   30.7660   51.7720 C   0  0  0  0  0  0  0  0  0  0  0  0
   54.3500   31.2160   51.6670 C   0  0  0  0  0  0  0  0  0  0  0  0
   53.2950   30.4610   52.2100 C   0  0  0  0  0  0  0  0  0  0  0  0
   51.9110   30.9690   52.0710 C   0  0  0  0  0  0  0  0  0  0  0  0
   51.2810   30.7780   50.9970 O   0  0  0  0  0  0  0  0  0  0  0  0
   51.2950   31.7210   53.1330 N   0  0  0  0  0  0  0  0  0  0  0  0
   50.2910   32.7380   52.8100 C   0  0  0  0  0  0  0  0  0  0  0  0
   50.2240   33.7740   53.9360 C   0  0  0  0  0  0  0  0  0  0  0  0
   50.0460   33.1450   55.1910 O   0  0  0  0  0  0  0  0  0  0  0  0
   51.1840   32.3620   55.4990 C   0  0  0  0  0  0  0  0  0  0  0  0
   51.3320   31.2060   54.5070 C   0  0  0  0  0  0  0  0  0  0  0  0
   53.5830   29.2400   52.8630 C   0  0  0  0  0  0  0  0  0  0  0  0
   52.3250   28.2690   53.6220 Cl  0  0  0  0  0  0  0  0  0  0  0  0
   54.9080   28.7970   52.9670 C   0  0  0  0  0  0  0  0  0  0  0  0
   55.9480   29.5550   52.4250 C   0  0  0  0  0  0  0  0  0  0  0  0
   57.2360   29.1430   52.5380 N   0  0  0  0  0  0  0  0  0  0  0  0
   58.2650   29.8700   52.0200 C   0  0  0  0  0  0  0  0  0  0  0  0
   59.6160   29.4340   52.2420 N   0  0  0  0  0  0  0  0  0  0  0  0
   60.5350   29.3010   51.1160 C   0  0  0  0  0  0  0  0  0  0  0  0
   60.7510   27.8110   50.8060 C   0  0  0  0  0  0  0  0  0  0  0  0
   61.1410   27.0140   52.0090 N   0  0  0  0  0  0  0  0  0  0  0  0
   62.5280   27.3400   52.4310 C   0  0  0  0  0  0  0  0  0  0  0  0
   61.1130   25.5770   51.6410 C   0  0  0  0  0  0  0  0  0  0  0  0
   60.1810   27.2260   53.1330 C   0  0  0  0  0  0  0  0  0  0  0  0
   59.9580   28.7100   53.4650 C   0  0  0  0  0  0  0  0  0  0  0  0
   59.1310   31.8910   49.2290 C   0  0  0  0  0  0  0  0  0  0  0  0
   57.4309   34.0108   46.3161 H   0  0  0  0  0  0  0  0  0  0  0  0
   58.0737   35.0816   45.0251 H   0  0  0  0  0  0  0  0  0  0  0  0
   58.4791   33.3316   45.0251 H   0  0  0  0  0  0  0  0  0  0  0  0
   60.3707   34.7318   45.8456 H   0  0  0  0  0  0  0  0  0  0  0  0
   59.2836   35.3399   47.1775 H   0  0  0  0  0  0  0  0  0  0  0  0
   60.9560   33.3960   47.4930 H   0  0  0  0  0  0  0  0  0  0  0  0
   58.2483   33.7478   48.6198 H   0  0  0  0  0  0  0  0  0  0  0  0
   60.7417   34.8930   49.1042 H   0  0  0  0  0  0  0  0  0  0  0  0
   59.3241   34.8508   50.2500 H   0  0  0  0  0  0  0  0  0  0  0  0
   61.6092   32.8327   50.1766 H   0  0  0  0  0  0  0  0  0  0  0  0
   61.4174   34.1664   51.3657 H   0  0  0  0  0  0  0  0  0  0  0  0
   60.5603   31.8708   52.1180 H   0  0  0  0  0  0  0  0  0  0  0  0
   59.3760   33.2361   52.2182 H   0  0  0  0  0  0  0  0  0  0  0  0
   54.1358   32.1666   51.1566 H   0  0  0  0  0  0  0  0  0  0  0  0
   50.5663   33.2376   51.8695 H   0  0  0  0  0  0  0  0  0  0  0  0
   49.3081   32.2568   52.6991 H   0  0  0  0  0  0  0  0  0  0  0  0
   51.1610   34.3501   53.9516 H   0  0  0  0  0  0  0  0  0  0  0  0
   49.3672   34.4387   53.7514 H   0  0  0  0  0  0  0  0  0  0  0  0
   52.0818   32.9958   55.4510 H   0  0  0  0  0  0  0  0  0  0  0  0
   51.0631   31.9461   56.5101 H   0  0  0  0  0  0  0  0  0  0  0  0
   52.2916   30.6969   54.6803 H   0  0  0  0  0  0  0  0  0  0  0  0
   50.5041   30.4962   54.6509 H   0  0  0  0  0  0  0  0  0  0  0  0
   55.1300   27.8483   53.4776 H   0  0  0  0  0  0  0  0  0  0  0  0
   60.1092   29.8014   50.2338 H   0  0  0  0  0  0  0  0  0  0  0  0
   61.4984   29.7664   51.3713 H   0  0  0  0  0  0  0  0  0  0  0  0
   59.8155   27.3983   50.4004 H   0  0  0  0  0  0  0  0  0  0  0  0
   61.5778   27.7420   50.0838 H   0  0  0  0  0  0  0  0  0  0  0  0
   62.5835   27.3531   53.5295 H   0  0  0  0  0  0  0  0  0  0  0  0
   63.2191   26.5798   52.0379 H   0  0  0  0  0  0  0  0  0  0  0  0
   62.8081   28.3285   52.0379 H   0  0  0  0  0  0  0  0  0  0  0  0
   61.1011   24.9647   52.5547 H   0  0  0  0  0  0  0  0  0  0  0  0
   60.2106   25.3679   51.0477 H   0  0  0  0  0  0  0  0  0  0  0  0
   62.0066   25.3330   51.0477 H   0  0  0  0  0  0  0  0  0  0  0  0
   59.2142   26.7803   52.8562 H   0  0  0  0  0  0  0  0  0  0  0  0
   60.6130   26.7518   54.0266 H   0  0  0  0  0  0  0  0  0  0  0  0
   59.1360   28.8046   54.1898 H   0  0  0  0  0  0  0  0  0  0  0  0
   60.8769   29.1323   53.8977 H   0  0  0  0  0  0  0  0  0  0  0  0
   60.0198   31.3182   48.9258 H   0  0  0  0  0  0  0  0  0  0  0  0
   58.2148   31.4590   48.8000 H   0  0  0  0  0  0  0  0  0  0  0  0
  1  2  1  0
  2  3  1  0
  3  4  1  0
  4  5  1  0
  5  6  1  0
  6  7  1  0
  7  8  1  0
  8  9  1  0
  9 10  2  0
 10 11  1  0
 11 12  2  0
 12 13  1  0
 13 14  1  0
 14 15  2  0
 14 16  1  0
 16 17  1  0
 17 18  1  0
 18 19  1  0
 19 20  1  0
 20 21  1  0
 13 22  2  0
 22 23  1  0
 22 24  1  0
 24 25  2  0
 25 26  1  0
 26 27  2  0
 27 28  1  0
 28 29  1  0
 29 30  1  0
 30 31  1  0
 31 32  1  0
 31 33  1  0
 31 34  1  0
 34 35  1  0
  8 36  1  0
 36  4  1  0
 27  9  1  0
 35 28  1  0
 25 11  1  0
 21 16  1  0
  1 37  1  0
  1 38  1  0
  1 39  1  0
  2 40  1  0
  2 41  1  0
  3 42  1  0
  4 43  1  6
  5 44  1  0
  5 45  1  0
  6 46  1  0
  6 47  1  0
  7 48  1  0
  7 49  1  0
 12 50  1  0
 17 51  1  0
 17 52  1  0
 18 53  1  0
 18 54  1  0
 20 55  1  0
 20 56  1  0
 21 57  1  0
 21 58  1  0
 24 59  1  0
 29 60  1  0
 29 61  1  0
 30 62  1  0
 30 63  1  0
 32 64  1  0
 32 65  1  0
 32 66  1  0
 33 67  1  0
 33 68  1  0
 33 69  1  0
 34 70  1  0
 34 71  1  0
 35 72  1  0
 35 73  1  0
 36 74  1  0
 36 75  1  0
M  CHG  1  31   1
M  END
>  <UniqueID>  (26) 
24

>  <SMILES>  (26) 
CCN[C@@H]1CCCN(c2nc3cc(C(=O)N4CCOCC4)c(Cl)cc3nc2N2CC[N+](C)(C)CC2)C1

>  <Energy>  (26) 
105.55136504232779

>  <Genealogy>  (26) 
CCN[C@@H]1CCCN(c2nc3cc(C(=O)N4CCOCC4)c(Cl)cc3nc2N2CC[N+](C)(C)CC2)C1 (chirality)
CCN[C@@H]1CCCN(c2nc3cc(C(=O)N4CCOCC4)c(Cl)cc3nc2N2CC[N+](C)(C)CC2)C1 (3D coordinates assigned)
CCN[C@@H]1CCCN(c2nc3cc(C(=O)N4CCOCC4)c(Cl)cc3nc2N2CC[N+](C)(C)CC2)C1 (nonaromatic ring conformer: 105.55136504232779 kcal/mol)

>  <smiles>  (26) 
CCNC1CCCN(c2nc3cc(C(=O)N4CCOCC4)c(Cl)cc3nc2N2CC[N+](C)(C)CC2)C1

>  <score_type>  (26) 
oracle

>  <origin>  (26) 
adg

>  <m_score__min__energy>  (26) 
-6.8600000000000003

>  <m_primary>  (26) 
energy

$$$$
26:0
     RDKit          3D

 46 48  0  0  0  0  0  0  0  0999 V2000
   57.0710   26.6780   46.1080 C   0  0  0  0  0  0  0  0  0  0  0  0
   57.6330   28.0850   45.8570 C   0  0  0  0  0  0  0  0  0  0  0  0
   58.2010   28.2990   44.4990 N   0  0  0  0  0  0  0  0  0  0  0  0
   59.4760   29.0560   44.4940 C   0  0  0  0  0  0  0  0  0  0  0  0
   60.2080   28.9690   45.8330 C   0  0  0  0  0  0  0  0  0  0  0  0
   57.2390   28.8840   43.5330 C   0  0  0  0  0  0  0  0  0  0  0  0
   55.9410   29.3570   44.2150 C   0  0  0  0  0  0  0  0  0  0  0  0
   55.9290   30.8050   44.4270 N   0  0  0  0  0  0  0  0  0  0  0  0
   57.1180   31.6010   44.5460 C   0  0  0  0  0  0  0  0  0  0  0  0
   57.7260   31.8130   45.6850 O   0  0  0  0  0  0  0  0  0  0  0  0
   58.7700   32.5760   45.4310 C   0  0  0  0  0  0  0  0  0  0  0  0
   59.7150   33.0380   46.4770 C   0  0  0  0  0  0  0  0  0  0  0  0
   60.8700   32.2900   46.7420 C   0  0  0  0  0  0  0  0  0  0  0  0
   61.7650   32.7150   47.7270 C   0  0  0  0  0  0  0  0  0  0  0  0
   62.9310   31.9920   48.0220 C   0  0  0  0  0  0  0  0  0  0  0  0
   63.8020   32.4500   49.0150 C   0  0  0  0  0  0  0  0  0  0  0  0
   63.5150   33.6270   49.7150 C   0  0  0  0  0  0  0  0  0  0  0  0
   62.3540   34.3510   49.4250 C   0  0  0  0  0  0  0  0  0  0  0  0
   61.4760   33.9000   48.4340 C   0  0  0  0  0  0  0  0  0  0  0  0
   60.3730   34.5890   48.1590 O   0  0  0  0  0  0  0  0  0  0  0  0
   59.4990   34.2140   47.2290 C   0  0  0  0  0  0  0  0  0  0  0  0
   58.4790   34.9270   47.0340 O   0  0  0  0  0  0  0  0  0  0  0  0
   58.8780   32.8840   44.1180 N   0  0  0  0  0  0  0  0  0  0  0  0
   57.8250   32.2620   43.5580 C   0  0  0  0  0  0  0  0  0  0  0  0
   57.5460   32.3080   42.1480 C   0  0  0  0  0  0  0  0  0  0  0  0
   57.3210   32.3430   41.0130 N   0  0  0  0  0  0  0  0  0  0  0  0
   56.9997   26.4995   47.1911 H   0  0  0  0  0  0  0  0  0  0  0  0
   56.0713   26.5965   45.6564 H   0  0  0  0  0  0  0  0  0  0  0  0
   57.7395   25.9302   45.6564 H   0  0  0  0  0  0  0  0  0  0  0  0
   56.8188   28.8097   46.0050 H   0  0  0  0  0  0  0  0  0  0  0  0
   58.4656   28.2155   46.5639 H   0  0  0  0  0  0  0  0  0  0  0  0
   60.1273   28.6467   43.7077 H   0  0  0  0  0  0  0  0  0  0  0  0
   59.2383   30.1139   44.3087 H   0  0  0  0  0  0  0  0  0  0  0  0
   59.4814   29.0554   46.6544 H   0  0  0  0  0  0  0  0  0  0  0  0
   60.7287   28.0026   45.9041 H   0  0  0  0  0  0  0  0  0  0  0  0
   60.9407   29.7864   45.9041 H   0  0  0  0  0  0  0  0  0  0  0  0
   57.7130   29.7449   43.0388 H   0  0  0  0  0  0  0  0  0  0  0  0
   56.9723   28.1014   42.8075 H   0  0  0  0  0  0  0  0  0  0  0  0
   55.0860   29.0841   43.5790 H   0  0  0  0  0  0  0  0  0  0  0  0
   55.8770   28.8692   45.1988 H   0  0  0  0  0  0  0  0  0  0  0  0
   55.0180   31.3120   44.4880 H   0  0  0  0  0  0  0  0  0  0  0  0
   61.0717   31.3692   46.1751 H   0  0  0  0  0  0  0  0  0  0  0  0
   63.1592   31.0666   47.4729 H   0  0  0  0  0  0  0  0  0  0  0  0
   64.7158   31.8833   49.2467 H   0  0  0  0  0  0  0  0  0  0  0  0
   64.2038   33.9836   50.4950 H   0  0  0  0  0  0  0  0  0  0  0  0
   62.1312   35.2761   49.9769 H   0  0  0  0  0  0  0  0  0  0  0  0
  1  2  1  0
  2  3  1  0
  3  4  1  0
  4  5  1  0
  3  6  1  0
  6  7  1  0
  7  8  1  0
  8  9  1  0
  9 10  1  0
 10 11  1  0
 11 12  1  0
 12 13  2  0
 13 14  1  0
 14 15  2  0
 15 16  1  0
 16 17  2  0
 17 18  1  0
 18 19  2  0
 19 20  1  0
 20 21  1  0
 21 22  2  0
 11 23  2  0
 23 24  1  0
 24 25  1  0
 25 26  3  0
 24  9  2  0
 21 12  1  0
 19 14  1  0
  1 27  1  0
  1 28  1  0
  1 29  1  0
  2 30  1  0
  2 31  1  0
  4 32  1  0
  4 33  1  0
  5 34  1  0
  5 35  1  0
  5 36  1  0
  6 37  1  0
  6 38  1  0
  7 39  1  0
  7 40  1  0
  8 41  1  0
 13 42  1  0
 15 43  1  0
 16 44  1  0
 17 45  1  0
 18 46  1  0
M  END
>  <UniqueID>  (27) 
25

>  <SMILES>  (27) 
CCN(CC)CCNc1oc(-c2cc3ccccc3oc2=O)nc1C#N

>  <Energy>  (27) 
86.49020905550113

>  <Genealogy>  (27) 
CCN(CC)CCNc1oc(-c2cc3ccccc3oc2=O)nc1C#N (3D coordinates assigned)
CCN(CC)CCNc1oc(-c2cc3ccccc3oc2=O)nc1C#N (optimized conformer: 86.49020905550113 kcal/mol)

>  <smiles>  (27) 
CCN(CC)CCNc1oc(-c2cc3ccccc3oc2=O)nc1C#N

>  <score_type>  (27) 
oracle

>  <origin>  (27) 
adg

>  <m_score__min__energy>  (27) 
-7.3899999999999997

>  <m_primary>  (27) 
energy

$$$$
27:0
     RDKit          3D

 29 31  0  0  0  0  0  0  0  0999 V2000
   55.8000   29.7230   43.9050 C   0  0  0  0  0  0  0  0  0  0  0  0
   56.0900   29.3440   45.2460 O   0  0  0  0  0  0  0  0  0  0  0  0
   57.1170   28.4630   45.6220 C   0  0  0  0  0  0  0  0  0  0  0  0
   56.9540   27.0640   45.5560 C   0  0  0  0  0  0  0  0  0  0  0  0
   57.9770   26.2130   45.9800 C   0  0  0  0  0  0  0  0  0  0  0  0
   59.1680   26.7420   46.4760 C   0  0  0  0  0  0  0  0  0  0  0  0
   59.3450   28.1250   46.5410 C   0  0  0  0  0  0  0  0  0  0  0  0
   58.3340   28.9930   46.1000 C   0  0  0  0  0  0  0  0  0  0  0  0
   58.5430   30.4130   46.1690 N   0  0  0  0  0  0  0  0  0  0  0  0
   58.8780   31.2710   47.5620 S   0  0  0  0  0  0  0  0  0  0  0  0
   59.0280   32.7850   46.8780 C   0  0  0  0  0  0  0  0  0  0  0  0
   59.3110   34.0130   47.4680 C   0  0  0  0  0  0  0  0  0  0  0  0
   59.3890   35.1370   46.6320 C   0  0  0  0  0  0  0  0  0  0  0  0
   59.1880   35.0090   45.2420 C   0  0  0  0  0  0  0  0  0  0  0  0
   58.9050   33.7550   44.6730 C   0  0  0  0  0  0  0  0  0  0  0  0
   58.8250   32.6380   45.5120 C   0  0  0  0  0  0  0  0  0  0  0  0
   58.5640   31.3040   45.1360 C   0  0  0  0  0  0  0  0  0  0  0  0
   58.3960   30.9540   43.9370 O   0  0  0  0  0  0  0  0  0  0  0  0
   55.1315   30.5966   43.9073 H   0  0  0  0  0  0  0  0  0  0  0  0
   56.7355   29.9784   43.3857 H   0  0  0  0  0  0  0  0  0  0  0  0
   55.3089   28.8869   43.3857 H   0  0  0  0  0  0  0  0  0  0  0  0
   56.0157   26.6404   45.1683 H   0  0  0  0  0  0  0  0  0  0  0  0
   57.8429   25.1227   45.9225 H   0  0  0  0  0  0  0  0  0  0  0  0
   59.9687   26.0689   46.8163 H   0  0  0  0  0  0  0  0  0  0  0  0
   60.2832   28.5375   46.9406 H   0  0  0  0  0  0  0  0  0  0  0  0
   59.4683   34.0996   48.5533 H   0  0  0  0  0  0  0  0  0  0  0  0
   59.6084   36.1247   47.0636 H   0  0  0  0  0  0  0  0  0  0  0  0
   59.2532   35.8980   44.5975 H   0  0  0  0  0  0  0  0  0  0  0  0
   58.7494   33.6538   43.5888 H   0  0  0  0  0  0  0  0  0  0  0  0
  1  2  1  0
  2  3  1  0
  3  4  2  0
  4  5  1  0
  5  6  2  0
  6  7  1  0
  7  8  2  0
  8  9  1  0
  9 10  1  0
 10 11  1  0
 11 12  2  0
 12 13  1  0
 13 14  2  0
 14 15  1  0
 15 16  2  0
 16 17  1  0
 17 18  2  0
  8  3  1  0
 17  9  1  0
 16 11  1  0
  1 19  1  0
  1 20  1  0
  1 21  1  0
  4 22  1  0
  5 23  1  0
  6 24  1  0
  7 25  1  0
 12 26  1  0
 13 27  1  0
 14 28  1  0
 15 29  1  0
M  END
>  <UniqueID>  (28) 
26

>  <SMILES>  (28) 
COc1ccccc1-n1sc2ccccc2c1=O

>  <Energy>  (28) 
77.19756836378625

>  <Genealogy>  (28) 
COc1ccccc1-n1sc2ccccc2c1=O (3D coordinates assigned)
COc1ccccc1-n1sc2ccccc2c1=O (optimized conformer: 77.19756836378625 kcal/mol)

>  <smiles>  (28) 
COc1ccccc1-n1sc2ccccc2c1=O

>  <score_type>  (28) 
oracle

>  <origin>  (28) 
adg

>  <m_score__min__energy>  (28) 
-6.5599999999999996

>  <m_primary>  (28) 
energy

$$$$
28:0
     RDKit          3D

 58 61  0  0  0  0  0  0  0  0999 V2000
   64.5850   31.7540   50.3870 C   0  0  0  0  0  0  0  0  0  0  0  0
   63.3660   32.1290   49.5460 C   0  0  0  0  0  0  0  0  0  0  0  0
   63.3730   33.5620   49.1700 N   0  0  0  0  0  0  0  0  0  0  0  0
   62.1350   34.2530   49.5950 C   0  0  0  0  0  0  0  0  0  0  0  0
   61.1410   33.2590   50.1930 C   0  0  0  0  0  0  0  0  0  0  0  0
   63.7610   33.8490   47.7600 C   0  0  0  0  0  0  0  0  0  0  0  0
   62.6380   33.7150   46.7030 C   0  0  0  0  0  0  0  0  0  0  0  0
   61.5770   32.7900   47.1130 N   0  0  0  0  0  0  0  0  0  0  0  0
   60.2160   32.8680   46.6230 C   0  0  0  0  0  0  0  0  0  0  0  0
   59.6520   34.1250   46.3220 C   0  0  0  0  0  0  0  0  0  0  0  0
   58.4160   34.2250   45.6930 C   0  0  0  0  0  0  0  0  0  0  0  0
   57.7240   33.0790   45.3210 C   0  0  0  0  0  0  0  0  0  0  0  0
   58.2360   31.8090   45.6270 C   0  0  0  0  0  0  0  0  0  0  0  0
   59.4510   31.6940   46.3510 C   0  0  0  0  0  0  0  0  0  0  0  0
   59.8500   30.3310   46.8090 C   0  0  0  0  0  0  0  0  0  0  0  0
   60.5530   30.1760   47.8440 O   0  0  0  0  0  0  0  0  0  0  0  0
   59.3020   29.1380   46.1300 C   0  0  0  0  0  0  0  0  0  0  0  0
   59.9030   27.8790   46.2970 C   0  0  0  0  0  0  0  0  0  0  0  0
   59.3810   26.7470   45.6500 C   0  0  0  0  0  0  0  0  0  0  0  0
   59.9860   25.4540   45.8080 N   0  0  0  0  0  0  0  0  0  0  0  0
   59.2940   24.2110   45.6160 C   0  0  0  0  0  0  0  0  0  0  0  0
   58.0190   24.0740   45.7500 N   0  0  0  0  0  0  0  0  0  0  0  0
   57.6390   22.6820   45.5500 C   0  0  0  0  0  0  0  0  0  0  0  0
   58.9650   21.9510   45.2760 C   0  0  0  0  0  0  0  0  0  0  0  0
   59.9670   22.9980   45.3520 N   0  0  0  0  0  0  0  0  0  0  0  0
   58.2140   26.8730   44.8870 C   0  0  0  0  0  0  0  0  0  0  0  0
   57.6040   28.1190   44.7260 C   0  0  0  0  0  0  0  0  0  0  0  0
   58.1500   29.2620   45.3350 C   0  0  0  0  0  0  0  0  0  0  0  0
   57.5250   30.5910   45.1620 C   0  0  0  0  0  0  0  0  0  0  0  0
   56.4020   30.6920   44.5950 O   0  0  0  0  0  0  0  0  0  0  0  0
   64.3319   31.8319   51.4546 H   0  0  0  0  0  0  0  0  0  0  0  0
   64.8863   30.7216   50.1560 H   0  0  0  0  0  0  0  0  0  0  0  0
   65.4145   32.4385   50.1560 H   0  0  0  0  0  0  0  0  0  0  0  0
   63.3659   31.5210   48.6293 H   0  0  0  0  0  0  0  0  0  0  0  0
   62.4653   31.9393   50.1483 H   0  0  0  0  0  0  0  0  0  0  0  0
   62.3861   35.0118   50.3508 H   0  0  0  0  0  0  0  0  0  0  0  0
   61.6751   34.7281   48.7159 H   0  0  0  0  0  0  0  0  0  0  0  0
   61.1895   33.3075   51.2909 H   0  0  0  0  0  0  0  0  0  0  0  0
   60.1238   33.5120   49.8594 H   0  0  0  0  0  0  0  0  0  0  0  0
   61.3940   32.2418   49.8594 H   0  0  0  0  0  0  0  0  0  0  0  0
   64.1394   34.8811   47.7191 H   0  0  0  0  0  0  0  0  0  0  0  0
   64.5062   33.0837   47.4974 H   0  0  0  0  0  0  0  0  0  0  0  0
   62.1935   34.7071   46.5353 H   0  0  0  0  0  0  0  0  0  0  0  0
   63.0931   33.3106   45.7868 H   0  0  0  0  0  0  0  0  0  0  0  0
   61.8550   32.0070   47.7300 H   0  0  0  0  0  0  0  0  0  0  0  0
   60.1988   35.0413   46.5892 H   0  0  0  0  0  0  0  0  0  0  0  0
   57.9841   35.2159   45.4890 H   0  0  0  0  0  0  0  0  0  0  0  0
   56.7686   33.1680   44.7831 H   0  0  0  0  0  0  0  0  0  0  0  0
   60.7899   27.7791   46.9400 H   0  0  0  0  0  0  0  0  0  0  0  0
   60.9870   25.4060   46.1020 H   0  0  0  0  0  0  0  0  0  0  0  0
   57.3530   24.8340   46.0090 H   0  0  0  0  0  0  0  0  0  0  0  0
   57.1529   22.2793   46.4508 H   0  0  0  0  0  0  0  0  0  0  0  0
   56.9192   22.5611   44.7271 H   0  0  0  0  0  0  0  0  0  0  0  0
   59.1493   21.1778   46.0364 H   0  0  0  0  0  0  0  0  0  0  0  0
   58.9689   21.4317   44.3063 H   0  0  0  0  0  0  0  0  0  0  0  0
   60.9970   22.8780   45.2310 H   0  0  0  0  0  0  0  0  0  0  0  0
   57.7743   25.9842   44.4109 H   0  0  0  0  0  0  0  0  0  0  0  0
   56.6908   28.2063   44.1190 H   0  0  0  0  0  0  0  0  0  0  0  0
  1  2  1  0
  2  3  1  0
  3  4  1  0
  4  5  1  0
  3  6  1  0
  6  7  1  0
  7  8  1  0
  8  9  1  0
  9 10  2  0
 10 11  1  0
 11 12  2  0
 12 13  1  0
 13 14  2  0
 14 15  1  0
 15 16  2  0
 15 17  1  0
 17 18  2  0
 18 19  1  0
 19 20  1  0
 20 21  1  0
 21 22  2  0
 22 23  1  0
 23 24  1  0
 24 25  1  0
 19 26  2  0
 26 27  1  0
 27 28  2  0
 28 29  1  0
 29 30  2  0
 14  9  1  0
 28 17  1  0
 29 13  1  0
 25 21  1  0
  1 31  1  0
  1 32  1  0
  1 33  1  0
  2 34  1  0
  2 35  1  0
  4 36  1  0
  4 37  1  0
  5 38  1  0
  5 39  1  0
  5 40  1  0
  6 41  1  0
  6 42  1  0
  7 43  1  0
  7 44  1  0
  8 45  1  0
 10 46  1  0
 11 47  1  0
 12 48  1  0
 18 49  1  0
 20 50  1  0
 22 51  1  0
 23 52  1  0
 23 53  1  0
 24 54  1  0
 24 55  1  0
 25 56  1  0
 26 57  1  0
 27 58  1  0
M  CHG  1  22   1
M  END
>  <UniqueID>  (29) 
27

>  <SMILES>  (29) 
CCN(CC)CCNc1cccc2c1C(=O)c1cc(NC3=[NH+]CCN3)ccc1C2=O

>  <Energy>  (29) 
92.0922555958742

>  <Genealogy>  (29) 
CCN(CC)CCNc1cccc2c1C(=O)c1cc(NC3=[NH+]CCN3)ccc1C2=O (protonated)
CCN(CC)CCNc1cccc2c1C(=O)c1cc(NC3=[NH+]CCN3)ccc1C2=O (3D coordinates assigned)
CCN(CC)CCNc1cccc2c1C(=O)c1cc(NC3=[NH+]CCN3)ccc1C2=O (nonaromatic ring conformer: 92.0922555958742 kcal/mol)

>  <smiles>  (29) 
CCN(CC)CCNc1cccc2c1C(=O)c1cc(NC3=NCCN3)ccc1C2=O

>  <score_type>  (29) 
oracle

>  <origin>  (29) 
adg

>  <m_score__min__energy>  (29) 
-7.46

>  <m_primary>  (29) 
energy

$$$$
29:0
     RDKit          3D

 44 48  0  0  0  0  0  0  0  0999 V2000
   55.9704   23.9165   47.5894 H   0  0  0  0  0  0  0  0  0  0  0  0
   56.5340   24.8000   47.2550 C   0  0  0  0  0  0  0  0  0  0  0  0
   57.8640   24.9670   47.6510 C   0  0  0  0  0  0  0  0  0  0  0  0
   58.3437   24.2087   48.2874 H   0  0  0  0  0  0  0  0  0  0  0  0
   58.5890   26.0910   47.2440 C   0  0  0  0  0  0  0  0  0  0  0  0
   59.6354   26.2129   47.5606 H   0  0  0  0  0  0  0  0  0  0  0  0
   57.9850   27.0650   46.4320 C   0  0  0  0  0  0  0  0  0  0  0  0
   56.6260   26.8730   46.0010 C   0  0  0  0  0  0  0  0  0  0  0  0
   55.9840   27.8240   45.2450 N   0  0  0  0  0  0  0  0  0  0  0  0
   56.6860   28.8740   44.7500 C   0  0  0  0  0  0  0  0  0  0  0  0
   56.2250   30.1570   44.5540 C   0  0  0  0  0  0  0  0  0  0  0  0
   55.2015   30.4565   44.2843 H   0  0  0  0  0  0  0  0  0  0  0  0
   57.3210   31.0050   44.7670 C   0  0  0  0  0  0  0  0  0  0  0  0
   57.1860   32.2990   44.7040 N   0  0  0  0  0  0  0  0  0  0  0  0
   58.1990   33.3380   44.7510 C   0  0  0  0  0  0  0  0  0  0  0  0
   58.2842   33.8077   43.7600 H   0  0  0  0  0  0  0  0  0  0  0  0
   59.1614   32.8888   45.0372 H   0  0  0  0  0  0  0  0  0  0  0  0
   57.8140   34.4090   45.7910 C   0  0  0  0  0  0  0  0  0  0  0  0
   56.7297   34.3414   45.9635 H   0  0  0  0  0  0  0  0  0  0  0  0
   58.1327   35.3732   45.3682 H   0  0  0  0  0  0  0  0  0  0  0  0
   58.4950   34.2900   47.1020 N   0  0  0  0  0  0  0  0  0  0  0  0
   58.1790   33.0450   47.8180 C   0  0  0  0  0  0  0  0  0  0  0  0
   58.2244   33.2240   48.9024 H   0  0  0  0  0  0  0  0  0  0  0  0
   57.1676   32.7108   47.5436 H   0  0  0  0  0  0  0  0  0  0  0  0
   58.9086   32.2689   47.5436 H   0  0  0  0  0  0  0  0  0  0  0  0
   59.9480   34.5090   47.0230 C   0  0  0  0  0  0  0  0  0  0  0  0
   60.3651   34.5719   48.0389 H   0  0  0  0  0  0  0  0  0  0  0  0
   60.4164   33.6713   46.4855 H   0  0  0  0  0  0  0  0  0  0  0  0
   60.1487   35.4475   46.4855 H   0  0  0  0  0  0  0  0  0  0  0  0
   58.4680   30.2950   45.0390 N   0  0  0  0  0  0  0  0  0  0  0  0
   58.0690   29.0230   45.0470 C   0  0  0  0  0  0  0  0  0  0  0  0
   58.6460   28.2380   46.0050 C   0  0  0  0  0  0  0  0  0  0  0  0
   59.5630   29.0880   46.6210 C   0  0  0  0  0  0  0  0  0  0  0  0
   60.3900   28.9120   47.7350 C   0  0  0  0  0  0  0  0  0  0  0  0
   60.4155   27.9527   48.2727 H   0  0  0  0  0  0  0  0  0  0  0  0
   61.1860   29.9900   48.1490 C   0  0  0  0  0  0  0  0  0  0  0  0
   61.8479   29.8764   49.0202 H   0  0  0  0  0  0  0  0  0  0  0  0
   61.1450   31.2140   47.4600 C   0  0  0  0  0  0  0  0  0  0  0  0
   61.8065   32.0362   47.7706 H   0  0  0  0  0  0  0  0  0  0  0  0
   60.2680   31.3980   46.3790 C   0  0  0  0  0  0  0  0  0  0  0  0
   60.2433   32.3522   45.8323 H   0  0  0  0  0  0  0  0  0  0  0  0
   59.4250   30.3410   46.0110 C   0  0  0  0  0  0  0  0  0  0  0  0
   55.9170   25.7490   46.4370 C   0  0  0  0  0  0  0  0  0  0  0  0
   54.8684   25.6118   46.1342 H   0  0  0  0  0  0  0  0  0  0  0  0
  1  2  1  0
  2  3  2  0
  3  4  1  0
  3  5  1  0
  5  6  1  0
  5  7  2  0
  7  8  1  0
  8  9  1  0
  9 10  1  0
 10 11  2  0
 11 12  1  0
 11 13  1  0
 13 14  2  0
 14 15  1  0
 15 16  1  0
 15 17  1  0
 15 18  1  0
 18 19  1  0
 18 20  1  0
 18 21  1  0
 21 22  1  0
 22 23  1  0
 22 24  1  0
 22 25  1  0
 21 26  1  0
 26 27  1  0
 26 28  1  0
 26 29  1  0
 13 30  1  0
 30 31  1  0
 31 32  2  0
 32 33  1  0
 33 34  2  0
 34 35  1  0
 34 36  1  0
 36 37  1  0
 36 38  2  0
 38 39  1  0
 38 40  1  0
 40 41  1  0
 40 42  2  0
  8 43  2  0
 43 44  1  0
 43  2  1  0
 32  7  1  0
 42 33  1  0
 31 10  1  0
 42 30  1  0
M  CHG  1   9  -1
M  END
>  <UniqueID>  (30) 
28

>  <SMILES>  (30) 
CN(C)CC/N=c1/cc2[n-]c3ccccc3c3c-2n1c1ccccc31

>  <Energy>  (30) 
185.1769705342396

>  <Genealogy>  (30) 
CN(C)CCN=c1cc2[n-]c3ccccc3c3c-2n1c1ccccc31 (protonated)
CN(C)CC/N=c1/cc2[n-]c3ccccc3c3c-2n1c1ccccc31 (cis-trans isomerization)
CN(C)CC/N=c1/cc2[n-]c3ccccc3c3c-2n1c1ccccc31 (3D coordinates assigned)
CN(C)CC/N=c1/cc2[n-]c3ccccc3c3c-2n1c1ccccc31 (optimized conformer: 185.1769705342396 kcal/mol)

>  <smiles>  (30) 
CN(C)CCN=c1cc2[nH]c3ccccc3c3c-2n1c1ccccc31

>  <score_type>  (30) 
oracle

>  <origin>  (30) 
adg

>  <m_score__min__energy>  (30) 
-8.9600000000000009

>  <m_primary>  (30) 
energy

$$$$
30:0
     RDKit          3D

 59 63  0  0  1  0  0  0  0  0999 V2000
   61.5330   30.4800   47.0930 C   0  0  0  0  0  0  0  0  0  0  0  0
   61.5480   30.6310   48.4520 O   0  0  0  0  0  0  0  0  0  0  0  0
   60.4090   30.3290   49.1320 C   0  0  0  0  0  0  0  0  0  0  0  0
   59.7320   29.0490   48.7960 C   0  0  0  0  0  0  0  0  0  0  0  0
   58.5050   29.1450   48.1540 O   0  0  0  0  0  0  0  0  0  0  0  0
   58.3400   29.6660   46.8770 C   0  0  0  0  0  0  0  0  0  0  0  0
   58.2630   31.0330   46.6380 C   0  0  0  0  0  0  0  0  0  0  0  0
   58.1010   31.4580   45.3420 C   0  0  0  0  0  0  0  0  0  0  0  0
   58.0220   32.8200   45.0880 C   0  0  0  0  0  0  0  0  0  0  0  0
   58.1070   33.6270   46.0910 N   0  0  0  0  0  0  0  0  0  0  0  0
   59.3120   33.7020   46.8250 C   0  0  0  0  0  0  0  0  0  0  0  0
   59.3120   33.7760   48.1990 C   0  0  0  0  0  0  0  0  0  0  0  0
   60.4990   33.8500   48.8980 C   0  0  0  0  0  0  0  0  0  0  0  0
   61.6830   33.8490   48.1860 C   0  0  0  0  0  0  0  0  0  0  0  0
   61.6720   33.7750   46.8040 C   0  0  0  0  0  0  0  0  0  0  0  0
   62.9790   33.7920   46.3620 C   0  0  0  0  0  0  0  0  0  0  0  0
   63.7810   33.8760   47.4780 C   0  0  0  0  0  0  0  0  0  0  0  0
   62.9690   33.9090   48.5670 N   0  0  0  0  0  0  0  0  0  0  0  0
   63.3780   33.9960   49.9640 C   0  0  0  0  0  0  0  0  0  0  0  0
   64.4440   33.0420   50.2930 C   0  0  0  0  0  0  0  0  0  0  0  0
   64.2400   31.7820   50.8100 C   0  0  0  0  0  0  0  0  0  0  0  0
   65.2650   30.9320   51.1000 C   0  0  0  0  0  0  0  0  0  0  0  0
   66.5540   31.3390   50.8690 C   0  0  0  0  0  0  0  0  0  0  0  0
   66.7480   32.6200   50.3440 C   0  0  0  0  0  0  0  0  0  0  0  0
   65.7210   33.4310   50.0710 N   0  0  0  0  0  0  0  0  0  0  0  0
   60.4920   33.7010   46.1020 C   0  0  0  0  0  0  0  0  0  0  0  0
   57.8620   33.2290   43.8160 N   0  0  0  0  0  0  0  0  0  0  0  0
   57.7780   32.3510   42.7950 C   0  0  0  0  0  0  0  0  0  0  0  0
   57.8490   31.0210   42.9970 N   0  0  0  0  0  0  0  0  0  0  0  0
   58.0110   30.5820   44.2750 C   0  0  0  0  0  0  0  0  0  0  0  0
   58.0880   29.2150   44.5220 C   0  0  0  0  0  0  0  0  0  0  0  0
   58.2530   28.7640   45.8260 C   0  0  0  0  0  0  0  0  0  0  0  0
   58.3330   27.3900   46.0860 O   0  0  0  0  0  0  0  0  0  0  0  0
   59.6420   26.8440   46.1090 C   0  0  0  0  0  0  0  0  0  0  0  0
   61.4271   29.4139   46.8437 H   0  0  0  0  0  0  0  0  0  0  0  0
   60.6862   31.0411   46.6711 H   0  0  0  0  0  0  0  0  0  0  0  0
   62.4737   30.8636   46.6711 H   0  0  0  0  0  0  0  0  0  0  0  0
   60.6618   30.2978   50.2021 H   0  0  0  0  0  0  0  0  0  0  0  0
   59.6921   31.1114   48.8425 H   0  0  0  0  0  0  0  0  0  0  0  0
   60.4066   28.4761   48.1428 H   0  0  0  0  0  0  0  0  0  0  0  0
   59.5167   28.5719   49.7635 H   0  0  0  0  0  0  0  0  0  0  0  0
   58.3300   31.7554   47.4649 H   0  0  0  0  0  0  0  0  0  0  0  0
   58.3570   33.7762   48.7449 H   0  0  0  0  0  0  0  0  0  0  0  0
   60.5027   33.9084   49.9964 H   0  0  0  0  0  0  0  0  0  0  0  0
   63.3164   33.7470   45.3160 H   0  0  0  0  0  0  0  0  0  0  0  0
   64.8804   33.9102   47.4865 H   0  0  0  0  0  0  0  0  0  0  0  0
   63.7413   35.0149   50.1634 H   0  0  0  0  0  0  0  0  0  0  0  0
   62.5043   33.7520   50.5862 H   0  0  0  0  0  0  0  0  0  0  0  0
   63.2085   31.4483   50.9963 H   0  0  0  0  0  0  0  0  0  0  0  0
   65.0612   29.9333   51.5136 H   0  0  0  0  0  0  0  0  0  0  0  0
   67.4065   30.6797   51.0894 H   0  0  0  0  0  0  0  0  0  0  0  0
   67.7728   32.9699   50.1504 H   0  0  0  0  0  0  0  0  0  0  0  0
   60.4862   33.6430   45.0035 H   0  0  0  0  0  0  0  0  0  0  0  0
   57.6482   32.7311   41.7710 H   0  0  0  0  0  0  0  0  0  0  0  0
   57.7820   30.3490   42.2020 H   0  0  0  0  0  0  0  0  0  0  0  0
   58.0188   28.4969   43.6916 H   0  0  0  0  0  0  0  0  0  0  0  0
   59.9648   26.7093   47.1519 H   0  0  0  0  0  0  0  0  0  0  0  0
   59.6424   25.8707   45.5965 H   0  0  0  0  0  0  0  0  0  0  0  0
   60.3339   27.5286   45.5965 H   0  0  0  0  0  0  0  0  0  0  0  0
  1  2  1  0
  2  3  1  0
  3  4  1  0
  4  5  1  0
  5  6  1  0
  6  7  2  0
  7  8  1  0
  8  9  1  0
  9 10  2  0
 10 11  1  0
 11 12  2  0
 12 13  1  0
 13 14  2  0
 14 15  1  0
 15 16  1  0
 16 17  2  0
 17 18  1  0
 18 19  1  0
 19 20  1  0
 20 21  2  0
 21 22  1  0
 22 23  2  0
 23 24  1  0
 24 25  2  0
 15 26  2  0
  9 27  1  0
 27 28  2  0
 28 29  1  0
 29 30  1  0
 30 31  1  0
 31 32  2  0
 32 33  1  0
 33 34  1  0
 32  6  1  0
 30  8  2  0
 26 11  1  0
 18 14  1  0
 25 20  1  0
  1 35  1  0
  1 36  1  0
  1 37  1  0
  3 38  1  0
  3 39  1  0
  4 40  1  0
  4 41  1  0
  7 42  1  0
 12 43  1  0
 13 44  1  0
 16 45  1  0
 17 46  1  0
 19 47  1  0
 19 48  1  0
 21 49  1  0
 22 50  1  0
 23 51  1  0
 24 52  1  0
 26 53  1  0
 28 54  1  0
 29 55  1  0
 31 56  1  0
 34 57  1  0
 34 58  1  0
 34 59  1  0
M  END
>  <smiles>  (31) 
COCCOc1cc2c(=Nc3ccc4c(ccn4Cc4ccccn4)c3)nc[nH]c2cc1OC

>  <score_type>  (31) 
oracle

>  <origin>  (31) 
adg

>  <m_score__min__energy>  (31) 
-8.6799999999999997

>  <m_primary>  (31) 
energy

$$$$
31:0
     RDKit          3D

 31 30  0  0  0  0  0  0  0  0999 V2000
   60.2000   34.2170   48.2090 C   0  0  0  0  0  0  0  0  0  0  0  0
   59.2580   34.8430   47.2590 N   0  0  0  0  0  0  0  0  0  0  0  0
   59.9940   35.2790   46.0570 C   0  0  0  0  0  0  0  0  0  0  0  0
   58.1670   33.9120   46.8750 C   0  0  0  0  0  0  0  0  0  0  0  0
   57.7310   34.0920   45.4060 C   0  0  0  0  0  0  0  0  0  0  0  0
   57.7170   32.7680   44.6180 C   0  0  0  0  0  0  0  0  0  0  0  0
   58.4620   31.5980   45.2870 C   0  0  0  0  0  0  0  0  0  0  0  0
   57.7970   30.2370   45.0270 C   0  0  0  0  0  0  0  0  0  0  0  0
   56.4850   30.3830   44.2480 C   0  0  0  0  0  0  0  0  0  0  0  0
   55.4090   29.6370   44.8960 N   0  0  0  0  0  0  0  0  0  0  0  0
   59.8783   34.4308   49.2390 H   0  0  0  0  0  0  0  0  0  0  0  0
   60.2145   33.1290   48.0478 H   0  0  0  0  0  0  0  0  0  0  0  0
   61.2087   34.6250   48.0478 H   0  0  0  0  0  0  0  0  0  0  0  0
   58.8490   35.6980   47.7090 H   0  0  0  0  0  0  0  0  0  0  0  0
   60.9039   35.8180   46.3596 H   0  0  0  0  0  0  0  0  0  0  0  0
   60.2712   34.3993   45.4576 H   0  0  0  0  0  0  0  0  0  0  0  0
   59.3557   35.9448   45.4576 H   0  0  0  0  0  0  0  0  0  0  0  0
   58.5181   32.8790   47.0154 H   0  0  0  0  0  0  0  0  0  0  0  0
   57.2980   34.1321   47.5125 H   0  0  0  0  0  0  0  0  0  0  0  0
   56.7179   34.5203   45.3906 H   0  0  0  0  0  0  0  0  0  0  0  0
   58.4635   34.7556   44.9233 H   0  0  0  0  0  0  0  0  0  0  0  0
   56.6684   32.4673   44.4768 H   0  0  0  0  0  0  0  0  0  0  0  0
   58.2478   32.9684   43.6756 H   0  0  0  0  0  0  0  0  0  0  0  0
   59.4895   31.5668   44.8956 H   0  0  0  0  0  0  0  0  0  0  0  0
   58.4420   31.7724   46.3729 H   0  0  0  0  0  0  0  0  0  0  0  0
   58.4879   29.6086   44.4459 H   0  0  0  0  0  0  0  0  0  0  0  0
   57.5673   29.7778   45.9998 H   0  0  0  0  0  0  0  0  0  0  0  0
   56.2093   31.4469   44.2028 H   0  0  0  0  0  0  0  0  0  0  0  0
   56.6310   29.9809   43.2346 H   0  0  0  0  0  0  0  0  0  0  0  0
   54.5060   30.1250   44.6900 H   0  0  0  0  0  0  0  0  0  0  0  0
   55.5540   29.7030   45.9290 H   0  0  0  0  0  0  0  0  0  0  0  0
  1  2  1  0
  2  3  1  0
  2  4  1  0
  4  5  1  0
  5  6  1  0
  6  7  1  0
  7  8  1  0
  8  9  1  0
  9 10  1  0
  1 11  1  0
  1 12  1  0
  1 13  1  0
  2 14  1  0
  3 15  1  0
  3 16  1  0
  3 17  1  0
  4 18  1  0
  4 19  1  0
  5 20  1  0
  5 21  1  0
  6 22  1  0
  6 23  1  0
  7 24  1  0
  7 25  1  0
  8 26  1  0
  8 27  1  0
  9 28  1  0
  9 29  1  0
 10 30  1  0
 10 31  1  0
M  CHG  1   2   1
M  END
>  <UniqueID>  (32) 
29

>  <SMILES>  (32) 
C[NH+](C)CCCCCCN

>  <Energy>  (32) 
18.357103517921228

>  <Genealogy>  (32) 
C[NH+](C)CCCCCCN (protonated)
C[NH+](C)CCCCCCN (3D coordinates assigned)
C[NH+](C)CCCCCCN (optimized conformer: 18.357103517921228 kcal/mol)

>  <smiles>  (32) 
CN(C)CCCCCCN

>  <score_type>  (32) 
oracle

>  <origin>  (32) 
adg

>  <m_score__min__energy>  (32) 
-3.02

>  <m_primary>  (32) 
energy

$$$$
32:0
     RDKit          3D

 42 44  0  0  0  0  0  0  0  0999 V2000
   59.9710   29.7180   46.3680 C   0  0  0  0  0  0  0  0  0  0  0  0
   59.6040   29.7140   44.8880 C   0  0  0  0  0  0  0  0  0  0  0  0
   58.1610   29.8950   44.7180 N   0  0  0  0  0  0  0  0  0  0  0  0
   57.2370   28.9200   44.7470 C   0  0  0  0  0  0  0  0  0  0  0  0
   55.9960   29.5000   44.6080 C   0  0  0  0  0  0  0  0  0  0  0  0
   56.1320   30.8380   44.4980 N   0  0  0  0  0  0  0  0  0  0  0  0
   57.4640   31.0440   44.5700 C   0  0  0  0  0  0  0  0  0  0  0  0
   58.0740   32.4170   44.5060 C   0  0  0  0  0  0  0  0  0  0  0  0
   58.8000   32.7300   45.7530 N   0  0  0  0  0  0  0  0  0  0  0  0
   57.8880   32.7840   46.9090 C   0  0  0  0  0  0  0  0  0  0  0  0
   58.6980   33.0500   48.1770 C   0  0  0  0  0  0  0  0  0  0  0  0
   59.4510   34.3210   48.1010 N   0  0  0  0  0  0  0  0  0  0  0  0
   60.7380   34.2980   48.8270 C   0  0  0  0  0  0  0  0  0  0  0  0
   61.7670   33.4160   48.1760 C   0  0  0  0  0  0  0  0  0  0  0  0
   62.9460   33.8430   47.5970 C   0  0  0  0  0  0  0  0  0  0  0  0
   63.5630   32.7040   47.1280 C   0  0  0  0  0  0  0  0  0  0  0  0
   62.7250   31.6550   47.4510 C   0  0  0  0  0  0  0  0  0  0  0  0
   61.6640   32.1120   48.0740 O   0  0  0  0  0  0  0  0  0  0  0  0
   59.5050   34.9610   46.7680 C   0  0  0  0  0  0  0  0  0  0  0  0
   59.6350   33.9510   45.6060 C   0  0  0  0  0  0  0  0  0  0  0  0
   59.0527   29.7080   46.9735 H   0  0  0  0  0  0  0  0  0  0  0  0
   60.5723   28.8264   46.5991 H   0  0  0  0  0  0  0  0  0  0  0  0
   60.5527   30.6225   46.5991 H   0  0  0  0  0  0  0  0  0  0  0  0
   60.1340   30.5339   44.3812 H   0  0  0  0  0  0  0  0  0  0  0  0
   59.8956   28.7474   44.4513 H   0  0  0  0  0  0  0  0  0  0  0  0
   57.4373   27.8445   44.8619 H   0  0  0  0  0  0  0  0  0  0  0  0
   55.0401   28.9560   44.5895 H   0  0  0  0  0  0  0  0  0  0  0  0
   58.7759   32.4601   43.6602 H   0  0  0  0  0  0  0  0  0  0  0  0
   57.2679   33.1538   44.3744 H   0  0  0  0  0  0  0  0  0  0  0  0
   57.1569   33.5928   46.7632 H   0  0  0  0  0  0  0  0  0  0  0  0
   57.3562   31.8259   47.0048 H   0  0  0  0  0  0  0  0  0  0  0  0
   58.0100   33.0963   49.0340 H   0  0  0  0  0  0  0  0  0  0  0  0
   59.4249   32.2324   48.2918 H   0  0  0  0  0  0  0  0  0  0  0  0
   61.1334   35.3235   48.8710 H   0  0  0  0  0  0  0  0  0  0  0  0
   60.5420   33.8886   49.8290 H   0  0  0  0  0  0  0  0  0  0  0  0
   63.3153   34.8767   47.5253 H   0  0  0  0  0  0  0  0  0  0  0  0
   64.5275   32.6426   46.6028 H   0  0  0  0  0  0  0  0  0  0  0  0
   62.9175   30.5967   47.2210 H   0  0  0  0  0  0  0  0  0  0  0  0
   58.5825   35.5423   46.6229 H   0  0  0  0  0  0  0  0  0  0  0  0
   60.4038   35.5948   46.7488 H   0  0  0  0  0  0  0  0  0  0  0  0
   59.3406   34.4584   44.6755 H   0  0  0  0  0  0  0  0  0  0  0  0
   60.6822   33.6145   45.6002 H   0  0  0  0  0  0  0  0  0  0  0  0
  1  2  1  0
  2  3  1  0
  3  4  1  0
  4  5  2  0
  5  6  1  0
  6  7  2  0
  7  8  1  0
  8  9  1  0
  9 10  1  0
 10 11  1  0
 11 12  1  0
 12 13  1  0
 13 14  1  0
 14 15  2  0
 15 16  1  0
 16 17  2  0
 17 18  1  0
 12 19  1  0
 19 20  1  0
  7  3  1  0
 20  9  1  0
 18 14  1  0
  1 21  1  0
  1 22  1  0
  1 23  1  0
  2 24  1  0
  2 25  1  0
  4 26  1  0
  5 27  1  0
  8 28  1  0
  8 29  1  0
 10 30  1  0
 10 31  1  0
 11 32  1  0
 11 33  1  0
 13 34  1  0
 13 35  1  0
 15 36  1  0
 16 37  1  0
 17 38  1  0
 19 39  1  0
 19 40  1  0
 20 41  1  0
 20 42  1  0
M  END
>  <UniqueID>  (33) 
30

>  <SMILES>  (33) 
CCn1ccnc1CN1CCN(Cc2ccco2)CC1

>  <Energy>  (33) 
106.74075128585457

>  <Genealogy>  (33) 
CCn1ccnc1CN1CCN(Cc2ccco2)CC1 (3D coordinates assigned)
CCn1ccnc1CN1CCN(Cc2ccco2)CC1 (nonaromatic ring conformer: 106.74075128585457 kcal/mol)

>  <smiles>  (33) 
CCn1ccnc1CN1CCN(Cc2ccco2)CC1

>  <score_type>  (33) 
oracle

>  <origin>  (33) 
adg

>  <m_score__min__energy>  (33) 
-6.9299999999999997

>  <m_primary>  (33) 
energy

$$$$
33:0
     RDKit          3D

 33 34  0  0  0  0  0  0  0  0999 V2000
   57.6970   32.0270   42.7710 C   0  0  0  0  0  0  0  0  0  0  0  0
   57.7090   31.6550   44.1880 N   0  0  0  0  0  0  0  0  0  0  0  0
   57.0860   30.4180   44.6030 C   0  0  0  0  0  0  0  0  0  0  0  0
   55.8370   30.2790   44.4920 O   0  0  0  0  0  0  0  0  0  0  0  0
   57.8820   29.2780   45.1810 C   0  0  0  0  0  0  0  0  0  0  0  0
   57.1800   28.0110   44.9730 N   0  0  0  0  0  0  0  0  0  0  0  0
   57.0780   27.0100   45.9960 C   0  0  0  0  0  0  0  0  0  0  0  0
   57.8110   27.0730   47.0190 O   0  0  0  0  0  0  0  0  0  0  0  0
   56.1100   25.9070   45.8830 C   0  0  0  0  0  0  0  0  0  0  0  0
   56.3900   24.5530   45.9190 C   0  0  0  0  0  0  0  0  0  0  0  0
   55.1780   23.9190   45.7480 C   0  0  0  0  0  0  0  0  0  0  0  0
   54.2370   24.9180   45.6190 C   0  0  0  0  0  0  0  0  0  0  0  0
   54.8210   26.0900   45.7040 O   0  0  0  0  0  0  0  0  0  0  0  0
   58.1820   32.6140   45.1500 C   0  0  0  0  0  0  0  0  0  0  0  0
   58.0990   32.3390   46.5240 C   0  0  0  0  0  0  0  0  0  0  0  0
   58.5330   33.2860   47.4580 C   0  0  0  0  0  0  0  0  0  0  0  0
   59.0580   34.5070   47.0250 C   0  0  0  0  0  0  0  0  0  0  0  0
   59.1590   34.7800   45.6570 C   0  0  0  0  0  0  0  0  0  0  0  0
   59.6660   35.9660   45.2400 F   0  0  0  0  0  0  0  0  0  0  0  0
   58.7260   33.8350   44.7220 C   0  0  0  0  0  0  0  0  0  0  0  0
   57.6617   33.1226   42.6798 H   0  0  0  0  0  0  0  0  0  0  0  0
   58.6078   31.6478   42.2846 H   0  0  0  0  0  0  0  0  0  0  0  0
   56.8125   31.5899   42.2846 H   0  0  0  0  0  0  0  0  0  0  0  0
   58.8639   29.2340   44.6871 H   0  0  0  0  0  0  0  0  0  0  0  0
   58.0102   29.4427   46.2610 H   0  0  0  0  0  0  0  0  0  0  0  0
   56.7850   27.8220   44.0250 H   0  0  0  0  0  0  0  0  0  0  0  0
   57.3741   24.0808   46.0555 H   0  0  0  0  0  0  0  0  0  0  0  0
   54.9980   22.8342   45.7201 H   0  0  0  0  0  0  0  0  0  0  0  0
   53.1594   24.7571   45.4677 H   0  0  0  0  0  0  0  0  0  0  0  0
   57.6917   31.3766   46.8673 H   0  0  0  0  0  0  0  0  0  0  0  0
   58.4610   33.0695   48.5341 H   0  0  0  0  0  0  0  0  0  0  0  0
   59.3919   35.2536   47.7606 H   0  0  0  0  0  0  0  0  0  0  0  0
   58.8120   34.0493   43.6465 H   0  0  0  0  0  0  0  0  0  0  0  0
  1  2  1  0
  2  3  1  0
  3  4  2  0
  3  5  1  0
  5  6  1  0
  6  7  1  0
  7  8  2  0
  7  9  1  0
  9 10  2  0
 10 11  1  0
 11 12  2  0
 12 13  1  0
  2 14  1  0
 14 15  2  0
 15 16  1  0
 16 17  2  0
 17 18  1  0
 18 19  1  0
 18 20  2  0
 13  9  1  0
 20 14  1  0
  1 21  1  0
  1 22  1  0
  1 23  1  0
  5 24  1  0
  5 25  1  0
  6 26  1  0
 10 27  1  0
 11 28  1  0
 12 29  1  0
 15 30  1  0
 16 31  1  0
 17 32  1  0
 20 33  1  0
M  END
>  <UniqueID>  (34) 
31

>  <SMILES>  (34) 
CN(C(=O)CNC(=O)c1ccco1)c1cccc(F)c1

>  <Energy>  (34) 
59.90728802148285

>  <Genealogy>  (34) 
CN(C(=O)CNC(=O)c1ccco1)c1cccc(F)c1 (3D coordinates assigned)
CN(C(=O)CNC(=O)c1ccco1)c1cccc(F)c1 (optimized conformer: 59.90728802148285 kcal/mol)

>  <smiles>  (34) 
CN(C(=O)CNC(=O)c1ccco1)c1cccc(F)c1

>  <score_type>  (34) 
oracle

>  <origin>  (34) 
adg

>  <m_score__min__energy>  (34) 
-7.5

>  <m_primary>  (34) 
energy

$$$$
34:0
     RDKit          3D

 41 41  0  0  0  0  0  0  0  0999 V2000
   63.0470   33.4900   46.7410 C   0  0  0  0  0  0  0  0  0  0  0  0
   62.0250   32.4610   47.2230 C   0  0  0  0  0  0  0  0  0  0  0  0
   60.6700   33.0570   47.3050 N   0  0  0  0  0  0  0  0  0  0  0  0
   60.1710   33.0750   48.7000 C   0  0  0  0  0  0  0  0  0  0  0  0
   58.9130   32.2180   48.8640 C   0  0  0  0  0  0  0  0  0  0  0  0
   60.6350   34.4190   46.7070 C   0  0  0  0  0  0  0  0  0  0  0  0
   59.1930   34.9410   46.6190 C   0  0  0  0  0  0  0  0  0  0  0  0
   58.2580   34.0230   45.8080 C   0  0  0  0  0  0  0  0  0  0  0  0
   58.8590   32.7010   45.5750 N   0  0  0  0  0  0  0  0  0  0  0  0
   58.1290   32.0000   44.5460 C   0  0  0  0  0  0  0  0  0  0  0  0
   58.1210   32.4900   43.2280 C   0  0  0  0  0  0  0  0  0  0  0  0
   57.4420   31.8010   42.2130 C   0  0  0  0  0  0  0  0  0  0  0  0
   57.3980   32.3560   40.8200 C   0  0  0  0  0  0  0  0  0  0  0  0
   56.7490   30.6210   42.5240 C   0  0  0  0  0  0  0  0  0  0  0  0
   56.7670   30.1180   43.8260 C   0  0  0  0  0  0  0  0  0  0  0  0
   57.4570   30.7960   44.8350 C   0  0  0  0  0  0  0  0  0  0  0  0
   57.4710   30.2810   46.0900 F   0  0  0  0  0  0  0  0  0  0  0  0
   63.5227   33.9689   47.6095 H   0  0  0  0  0  0  0  0  0  0  0  0
   63.8142   32.9879   46.1333 H   0  0  0  0  0  0  0  0  0  0  0  0
   62.5397   34.2538   46.1333 H   0  0  0  0  0  0  0  0  0  0  0  0
   62.0047   31.6167   46.5183 H   0  0  0  0  0  0  0  0  0  0  0  0
   62.3187   32.1183   48.2261 H   0  0  0  0  0  0  0  0  0  0  0  0
   60.9565   32.6855   49.3643 H   0  0  0  0  0  0  0  0  0  0  0  0
   59.9142   34.1129   48.9583 H   0  0  0  0  0  0  0  0  0  0  0  0
   58.7035   32.0753   49.9344 H   0  0  0  0  0  0  0  0  0  0  0  0
   58.0601   32.7237   48.3877 H   0  0  0  0  0  0  0  0  0  0  0  0
   59.0715   31.2392   48.3877 H   0  0  0  0  0  0  0  0  0  0  0  0
   61.2281   35.1025   47.3324 H   0  0  0  0  0  0  0  0  0  0  0  0
   61.0534   34.3681   45.6910 H   0  0  0  0  0  0  0  0  0  0  0  0
   58.7925   35.0327   47.6394 H   0  0  0  0  0  0  0  0  0  0  0  0
   59.2294   35.9091   46.0980 H   0  0  0  0  0  0  0  0  0  0  0  0
   57.3169   33.8937   46.3626 H   0  0  0  0  0  0  0  0  0  0  0  0
   58.0789   34.4946   44.8305 H   0  0  0  0  0  0  0  0  0  0  0  0
   59.8600   32.8140   45.2890 H   0  0  0  0  0  0  0  0  0  0  0  0
   58.8480   32.1350   46.4530 H   0  0  0  0  0  0  0  0  0  0  0  0
   58.6528   33.4233   42.9909 H   0  0  0  0  0  0  0  0  0  0  0  0
   57.3111   33.4517   40.8644 H   0  0  0  0  0  0  0  0  0  0  0  0
   58.3206   32.0826   40.2871 H   0  0  0  0  0  0  0  0  0  0  0  0
   56.5300   31.9407   40.2871 H   0  0  0  0  0  0  0  0  0  0  0  0
   56.1897   30.0907   41.7391 H   0  0  0  0  0  0  0  0  0  0  0  0
   56.2356   29.1835   44.0591 H   0  0  0  0  0  0  0  0  0  0  0  0
  1  2  1  0
  2  3  1  0
  3  4  1  0
  4  5  1  0
  3  6  1  0
  6  7  1  0
  7  8  1  0
  8  9  1  0
  9 10  1  0
 10 11  2  0
 11 12  1  0
 12 13  1  0
 12 14  2  0
 14 15  1  0
 15 16  2  0
 16 17  1  0
 16 10  1  0
  1 18  1  0
  1 19  1  0
  1 20  1  0
  2 21  1  0
  2 22  1  0
  4 23  1  0
  4 24  1  0
  5 25  1  0
  5 26  1  0
  5 27  1  0
  6 28  1  0
  6 29  1  0
  7 30  1  0
  7 31  1  0
  8 32  1  0
  8 33  1  0
  9 34  1  0
  9 35  1  0
 11 36  1  0
 13 37  1  0
 13 38  1  0
 13 39  1  0
 14 40  1  0
 15 41  1  0
M  CHG  1   9   1
M  END
>  <UniqueID>  (35) 
32

>  <SMILES>  (35) 
CCN(CC)CCC[NH2+]c1cc(C)ccc1F

>  <Energy>  (35) 
36.34402615976627

>  <Genealogy>  (35) 
CCN(CC)CCC[NH2+]c1cc(C)ccc1F (protonated)
CCN(CC)CCC[NH2+]c1cc(C)ccc1F (3D coordinates assigned)
CCN(CC)CCC[NH2+]c1cc(C)ccc1F (optimized conformer: 36.34402615976627 kcal/mol)

>  <smiles>  (35) 
CCN(CC)CCCNc1cc(C)ccc1F

>  <score_type>  (35) 
oracle

>  <origin>  (35) 
adg

>  <m_score__min__energy>  (35) 
-3.6299999999999999

>  <m_primary>  (35) 
energy

$$$$
35:0
     RDKit          3D

 43 46  0  0  0  0  0  0  0  0999 V2000
   57.7730   34.1230   45.1790 C   0  0  0  0  0  0  0  0  0  0  0  0
   57.2790   32.7890   45.1090 O   0  0  0  0  0  0  0  0  0  0  0  0
   57.9830   31.6610   45.5540 C   0  0  0  0  0  0  0  0  0  0  0  0
   59.0420   31.8490   46.4640 C   0  0  0  0  0  0  0  0  0  0  0  0
   59.7880   30.7570   46.9310 C   0  0  0  0  0  0  0  0  0  0  0  0
   59.4460   29.4830   46.4830 C   0  0  0  0  0  0  0  0  0  0  0  0
   58.4110   29.2730   45.6150 C   0  0  0  0  0  0  0  0  0  0  0  0
   57.6690   30.3530   45.1170 C   0  0  0  0  0  0  0  0  0  0  0  0
   58.2960   27.8080   45.2720 C   0  0  2  0  0  0  0  0  0  0  0  0
   58.5520   27.6000   43.7680 C   0  0  0  0  0  0  0  0  0  0  0  0
   56.9150   27.2720   45.6090 C   0  0  0  0  0  0  0  0  0  0  0  0
   55.8940   27.9230   45.2530 O   0  0  0  0  0  0  0  0  0  0  0  0
   56.7500   25.9870   46.2280 N   0  0  0  0  0  0  0  0  0  0  0  0
   55.5500   25.1810   45.9640 C   0  0  0  0  0  0  0  0  0  0  0  0
   55.9170   23.9840   45.1300 C   0  0  0  0  0  0  0  0  0  0  0  0
   55.9920   22.7080   45.7140 C   0  0  0  0  0  0  0  0  0  0  0  0
   56.3850   21.6050   44.9480 C   0  0  0  0  0  0  0  0  0  0  0  0
   56.7140   21.7710   43.6000 C   0  0  0  0  0  0  0  0  0  0  0  0
   56.6560   23.0380   43.0160 C   0  0  0  0  0  0  0  0  0  0  0  0
   56.2630   24.1440   43.7780 C   0  0  0  0  0  0  0  0  0  0  0  0
   57.8180   25.4740   47.0300 C   0  0  0  0  0  0  0  0  0  0  0  0
   57.6700   24.4230   47.7090 O   0  0  0  0  0  0  0  0  0  0  0  0
   59.0470   26.1850   47.1060 N   0  0  0  0  0  0  0  0  0  0  0  0
   59.4710   27.1720   46.1200 C   0  0  2  0  0  0  0  0  0  0  0  0
   60.1120   28.2850   46.8140 N   0  0  0  0  0  0  0  0  0  0  0  0
   57.8825   34.4186   46.2329 H   0  0  0  0  0  0  0  0  0  0  0  0
   58.7513   34.1784   44.6791 H   0  0  0  0  0  0  0  0  0  0  0  0
   57.0668   34.8022   44.6791 H   0  0  0  0  0  0  0  0  0  0  0  0
   59.2864   32.8634   46.8121 H   0  0  0  0  0  0  0  0  0  0  0  0
   60.6220   30.9028   47.6332 H   0  0  0  0  0  0  0  0  0  0  0  0
   56.8545   30.1857   44.3969 H   0  0  0  0  0  0  0  0  0  0  0  0
   59.3992   26.9117   43.6320 H   0  0  0  0  0  0  0  0  0  0  0  0
   57.6535   27.1728   43.2988 H   0  0  0  0  0  0  0  0  0  0  0  0
   58.7862   28.5669   43.2988 H   0  0  0  0  0  0  0  0  0  0  0  0
   55.1188   24.8437   46.9181 H   0  0  0  0  0  0  0  0  0  0  0  0
   54.8132   25.7913   45.4212 H   0  0  0  0  0  0  0  0  0  0  0  0
   55.7409   22.5759   46.7768 H   0  0  0  0  0  0  0  0  0  0  0  0
   56.4350   20.6067   45.4071 H   0  0  0  0  0  0  0  0  0  0  0  0
   57.0191   20.9023   42.9981 H   0  0  0  0  0  0  0  0  0  0  0  0
   56.9195   23.1669   41.9558 H   0  0  0  0  0  0  0  0  0  0  0  0
   56.2249   25.1419   43.3168 H   0  0  0  0  0  0  0  0  0  0  0  0
   60.1348   26.6276   45.4322 H   0  0  0  0  0  0  0  0  0  0  0  0
   60.9470   28.2100   47.4360 H   0  0  0  0  0  0  0  0  0  0  0  0
  1  2  1  0
  2  3  1  0
  3  4  2  0
  4  5  1  0
  5  6  2  0
  6  7  1  0
  7  8  2  0
  7  9  1  0
  9 10  1  6
  9 11  1  0
 11 12  2  0
 11 13  1  0
 13 14  1  0
 14 15  1  0
 15 16  2  0
 16 17  1  0
 17 18  2  0
 18 19  1  0
 19 20  2  0
 13 21  1  0
 21 22  2  0
 21 23  1  0
 23 24  1  0
 24 25  1  0
  8  3  1  0
 24  9  1  0
 25  6  1  0
 20 15  1  0
  1 26  1  0
  1 27  1  0
  1 28  1  0
  4 29  1  0
  5 30  1  0
  8 31  1  0
 10 32  1  0
 10 33  1  0
 10 34  1  0
 14 35  1  0
 14 36  1  0
 16 37  1  0
 17 38  1  0
 18 39  1  0
 19 40  1  0
 20 41  1  0
 24 42  1  6
 25 43  1  0
M  CHG  1  23  -1
M  END
>  <UniqueID>  (36) 
33

>  <SMILES>  (36) 
COc1ccc2c(c1)[C@]1(C)C(=O)N(Cc3ccccc3)C(=O)[N-][C@@H]1N2

>  <Energy>  (36) 
64.30617796448233

>  <Genealogy>  (36) 
COc1ccc2c(c1)C1(C)C(=O)N(Cc3ccccc3)C(=O)[N-]C1N2 (protonated)
COc1ccc2c(c1)[C@]1(C)C(=O)N(Cc3ccccc3)C(=O)[N-][C@@H]1N2 (chirality)
COc1ccc2c(c1)[C@]1(C)C(=O)N(Cc3ccccc3)C(=O)[N-][C@@H]1N2 (3D coordinates assigned)
COc1ccc2c(c1)[C@]1(C)C(=O)N(Cc3ccccc3)C(=O)[N-][C@@H]1N2 (nonaromatic ring conformer: 64.30617796448233 kcal/mol)

>  <smiles>  (36) 
COc1ccc2c(c1)C1(C)C(=O)N(Cc3ccccc3)C(=O)NC1N2

>  <score_type>  (36) 
oracle

>  <origin>  (36) 
adg

>  <m_score__min__energy>  (36) 
-8.6400000000000006

>  <m_primary>  (36) 
energy

$$$$
36:0
     RDKit          3D

 45 45  0  0  0  0  0  0  0  0999 V2000
   59.5630   30.5890   48.8160 C   0  0  0  0  0  0  0  0  0  0  0  0
   58.7940   29.9160   47.6860 C   0  0  0  0  0  0  0  0  0  0  0  0
   59.2370   30.4390   46.3900 N   0  0  0  0  0  0  0  0  0  0  0  0
   60.4420   29.7240   45.9460 C   0  0  0  0  0  0  0  0  0  0  0  0
   60.0710   28.5490   45.0300 C   0  0  0  0  0  0  0  0  0  0  0  0
   59.0420   28.8980   44.1210 O   0  0  0  0  0  0  0  0  0  0  0  0
   57.9680   27.9730   44.1630 C   0  0  0  0  0  0  0  0  0  0  0  0
   57.0180   28.3590   45.2910 C   0  0  0  0  0  0  0  0  0  0  0  0
   56.4890   29.6430   45.0330 O   0  0  0  0  0  0  0  0  0  0  0  0
   56.1360   29.7770   43.6680 C   0  0  0  0  0  0  0  0  0  0  0  0
   56.9290   30.9170   43.0220 C   0  0  0  0  0  0  0  0  0  0  0  0
   57.7980   31.5670   44.0120 N   0  0  0  0  0  0  0  0  0  0  0  0
   57.0140   32.4420   44.8890 C   0  0  0  0  0  0  0  0  0  0  0  0
   57.9390   33.3410   45.6630 C   0  0  0  0  0  0  0  0  0  0  0  0
   58.7680   34.2550   44.9910 C   0  0  0  0  0  0  0  0  0  0  0  0
   59.6550   35.0620   45.7110 C   0  0  0  0  0  0  0  0  0  0  0  0
   59.7290   34.9530   47.1020 C   0  0  0  0  0  0  0  0  0  0  0  0
   58.9220   34.0330   47.7760 C   0  0  0  0  0  0  0  0  0  0  0  0
   58.0320   33.2250   47.0600 C   0  0  0  0  0  0  0  0  0  0  0  0
   59.1692   30.2444   49.7836 H   0  0  0  0  0  0  0  0  0  0  0  0
   60.6290   30.3284   48.7401 H   0  0  0  0  0  0  0  0  0  0  0  0
   59.4460   31.6801   48.7401 H   0  0  0  0  0  0  0  0  0  0  0  0
   58.9730   28.8312   47.7204 H   0  0  0  0  0  0  0  0  0  0  0  0
   57.7208   30.1237   47.8089 H   0  0  0  0  0  0  0  0  0  0  0  0
   58.4730   30.2530   45.6980 H   0  0  0  0  0  0  0  0  0  0  0  0
   61.0920   30.4197   45.3951 H   0  0  0  0  0  0  0  0  0  0  0  0
   60.9651   29.3309   46.8302 H   0  0  0  0  0  0  0  0  0  0  0  0
   60.9620   28.2457   44.4606 H   0  0  0  0  0  0  0  0  0  0  0  0
   59.7066   27.7245   45.6604 H   0  0  0  0  0  0  0  0  0  0  0  0
   57.4283   27.9921   43.2047 H   0  0  0  0  0  0  0  0  0  0  0  0
   58.3592   26.9602   44.3395 H   0  0  0  0  0  0  0  0  0  0  0  0
   56.1981   27.6279   45.3481 H   0  0  0  0  0  0  0  0  0  0  0  0
   57.5630   28.3687   46.2465 H   0  0  0  0  0  0  0  0  0  0  0  0
   56.3585   28.8369   43.1419 H   0  0  0  0  0  0  0  0  0  0  0  0
   55.0620   30.0040   43.5973 H   0  0  0  0  0  0  0  0  0  0  0  0
   57.5481   30.5112   42.2084 H   0  0  0  0  0  0  0  0  0  0  0  0
   56.2223   31.6615   42.6267 H   0  0  0  0  0  0  0  0  0  0  0  0
   58.2130   30.8150   44.6120 H   0  0  0  0  0  0  0  0  0  0  0  0
   56.3325   33.0546   44.2805 H   0  0  0  0  0  0  0  0  0  0  0  0
   56.4302   31.8278   45.5904 H   0  0  0  0  0  0  0  0  0  0  0  0
   58.7193   34.3362   43.8951 H   0  0  0  0  0  0  0  0  0  0  0  0
   60.2950   35.7832   45.1816 H   0  0  0  0  0  0  0  0  0  0  0  0
   60.4234   35.5922   47.6670 H   0  0  0  0  0  0  0  0  0  0  0  0
   58.9864   33.9438   48.8705 H   0  0  0  0  0  0  0  0  0  0  0  0
   57.4030   32.4965   47.5927 H   0  0  0  0  0  0  0  0  0  0  0  0
  1  2  1  0
  2  3  1  0
  3  4  1  0
  4  5  1  0
  5  6  1  0
  6  7  1  0
  7  8  1  0
  8  9  1  0
  9 10  1  0
 10 11  1  0
 11 12  1  0
 12 13  1  0
 13 14  1  0
 14 15  2  0
 15 16  1  0
 16 17  2  0
 17 18  1  0
 18 19  2  0
 19 14  1  0
  1 20  1  0
  1 21  1  0
  1 22  1  0
  2 23  1  0
  2 24  1  0
  3 25  1  0
  4 26  1  0
  4 27  1  0
  5 28  1  0
  5 29  1  0
  7 30  1  0
  7 31  1  0
  8 32  1  0
  8 33  1  0
 10 34  1  0
 10 35  1  0
 11 36  1  0
 11 37  1  0
 12 38  1  0
 13 39  1  0
 13 40  1  0
 15 41  1  0
 16 42  1  0
 17 43  1  0
 18 44  1  0
 19 45  1  0
M  END
>  <UniqueID>  (37) 
34

>  <SMILES>  (37) 
CCNCCOCCOCCNCc1ccccc1

>  <Energy>  (37) 
32.10491015199091

>  <Genealogy>  (37) 
CCNCCOCCOCCNCc1ccccc1 (3D coordinates assigned)
CCNCCOCCOCCNCc1ccccc1 (optimized conformer: 32.10491015199091 kcal/mol)

>  <smiles>  (37) 
CCNCCOCCOCCNCc1ccccc1

>  <score_type>  (37) 
oracle

>  <origin>  (37) 
adg

>  <m_score__min__energy>  (37) 
-4.2999999999999998

>  <m_primary>  (37) 
energy

$$$$
37:0
     RDKit          3D

 33 35  0  0  0  0  0  0  0  0999 V2000
   57.0140   21.0280   42.9780 C   0  0  0  0  0  0  0  0  0  0  0  0
   55.9150   21.9040   43.2050 O   0  0  0  0  0  0  0  0  0  0  0  0
   55.9740   23.0580   44.0010 C   0  0  0  0  0  0  0  0  0  0  0  0
   54.9060   23.4620   44.8260 C   0  0  0  0  0  0  0  0  0  0  0  0
   55.0130   24.6220   45.5980 C   0  0  0  0  0  0  0  0  0  0  0  0
   56.1770   25.4030   45.5570 C   0  0  0  0  0  0  0  0  0  0  0  0
   56.2600   26.5910   46.3650 N   0  0  0  0  0  0  0  0  0  0  0  0
   57.3770   27.4920   46.3460 C   0  0  0  0  0  0  0  0  0  0  0  0
   58.4940   27.2020   47.1340 C   0  0  0  0  0  0  0  0  0  0  0  0
   59.5970   28.0580   47.1020 C   0  0  0  0  0  0  0  0  0  0  0  0
   60.6150   27.7980   47.7940 O   0  0  0  0  0  0  0  0  0  0  0  0
   59.5800   29.1490   46.3430 O   0  0  0  0  0  0  0  0  0  0  0  0
   58.5350   29.4860   45.5940 C   0  0  0  0  0  0  0  0  0  0  0  0
   58.5820   30.6580   44.8300 C   0  0  0  0  0  0  0  0  0  0  0  0
   57.4810   31.0380   44.0590 C   0  0  0  0  0  0  0  0  0  0  0  0
   56.3250   30.2530   44.0520 C   0  0  0  0  0  0  0  0  0  0  0  0
   56.2660   29.0790   44.8080 C   0  0  0  0  0  0  0  0  0  0  0  0
   57.3750   28.6730   45.5730 C   0  0  0  0  0  0  0  0  0  0  0  0
   57.2460   24.9910   44.7390 C   0  0  0  0  0  0  0  0  0  0  0  0
   57.1390   23.8310   43.9670 C   0  0  0  0  0  0  0  0  0  0  0  0
   57.4264   20.6993   43.9434 H   0  0  0  0  0  0  0  0  0  0  0  0
   56.6726   20.1516   42.4076 H   0  0  0  0  0  0  0  0  0  0  0  0
   57.7922   21.5562   42.4076 H   0  0  0  0  0  0  0  0  0  0  0  0
   53.9846   22.8623   44.8627 H   0  0  0  0  0  0  0  0  0  0  0  0
   54.1760   24.9254   46.2441 H   0  0  0  0  0  0  0  0  0  0  0  0
   55.5370   26.7390   47.1050 H   0  0  0  0  0  0  0  0  0  0  0  0
   58.5044   26.3073   47.7739 H   0  0  0  0  0  0  0  0  0  0  0  0
   59.4883   31.2813   44.8368 H   0  0  0  0  0  0  0  0  0  0  0  0
   57.5240   31.9571   43.4561 H   0  0  0  0  0  0  0  0  0  0  0  0
   55.4579   30.5603   43.4490 H   0  0  0  0  0  0  0  0  0  0  0  0
   55.3497   28.4704   44.8050 H   0  0  0  0  0  0  0  0  0  0  0  0
   58.1709   25.5856   44.7073 H   0  0  0  0  0  0  0  0  0  0  0  0
   57.9788   23.5231   43.3267 H   0  0  0  0  0  0  0  0  0  0  0  0
  1  2  1  0
  2  3  1  0
  3  4  2  0
  4  5  1  0
  5  6  2  0
  6  7  1  0
  7  8  1  0
  8  9  2  0
  9 10  1  0
 10 11  2  0
 10 12  1  0
 12 13  1  0
 13 14  2  0
 14 15  1  0
 15 16  2  0
 16 17  1  0
 17 18  2  0
  6 19  1  0
 19 20  2  0
 20  3  1  0
 18  8  1  0
 18 13  1  0
  1 21  1  0
  1 22  1  0
  1 23  1  0
  4 24  1  0
  5 25  1  0
  7 26  1  0
  9 27  1  0
 14 28  1  0
 15 29  1  0
 16 30  1  0
 17 31  1  0
 19 32  1  0
 20 33  1  0
M  END
>  <UniqueID>  (38) 
35

>  <SMILES>  (38) 
COc1ccc(Nc2cc(=O)oc3ccccc23)cc1

>  <Energy>  (38) 
47.01121532321162

>  <Genealogy>  (38) 
COc1ccc(Nc2cc(=O)oc3ccccc23)cc1 (3D coordinates assigned)
COc1ccc(Nc2cc(=O)oc3ccccc23)cc1 (optimized conformer: 47.01121532321162 kcal/mol)

>  <smiles>  (38) 
COc1ccc(Nc2cc(=O)oc3ccccc23)cc1

>  <score_type>  (38) 
oracle

>  <origin>  (38) 
adg

>  <m_score__min__energy>  (38) 
-6.4500000000000002

>  <m_primary>  (38) 
energy

$$$$
38:0
     RDKit          3D

 31 33  0  0  0  0  0  0  0  0999 V2000
   57.0220   34.3700   44.8680 C   0  0  0  0  0  0  0  0  0  0  0  0
   57.0230   33.3280   45.8360 O   0  0  0  0  0  0  0  0  0  0  0  0
   58.1190   32.5520   46.2660 C   0  0  0  0  0  0  0  0  0  0  0  0
   57.9350   31.2010   46.2790 N   0  0  0  0  0  0  0  0  0  0  0  0
   58.9080   30.3230   46.6590 C   0  0  0  0  0  0  0  0  0  0  0  0
   58.6530   28.8590   46.6510 C   0  0  0  0  0  0  0  0  0  0  0  0
   59.3490   27.8860   47.3680 C   0  0  0  0  0  0  0  0  0  0  0  0
   58.8740   26.5860   47.1550 C   0  0  0  0  0  0  0  0  0  0  0  0
   57.8060   26.5170   46.2710 C   0  0  0  0  0  0  0  0  0  0  0  0
   57.4530   28.0750   45.7600 S   0  0  0  0  0  0  0  0  0  0  0  0
   60.1540   30.8160   47.0550 C   0  0  0  0  0  0  0  0  0  0  0  0
   60.4010   32.1930   47.0630 C   0  0  0  0  0  0  0  0  0  0  0  0
   61.7470   32.6630   47.4770 C   0  0  0  0  0  0  0  0  0  0  0  0
   62.5600   33.4760   46.6670 C   0  0  0  0  0  0  0  0  0  0  0  0
   63.7640   33.8270   47.2580 C   0  0  0  0  0  0  0  0  0  0  0  0
   63.8110   33.1430   48.7920 S   0  0  0  0  0  0  0  0  0  0  0  0
   62.3110   32.3900   48.7210 C   0  0  0  0  0  0  0  0  0  0  0  0
   59.3710   33.0850   46.6840 C   0  0  0  0  0  0  0  0  0  0  0  0
   59.5880   34.5070   46.8250 C   0  0  0  0  0  0  0  0  0  0  0  0
   59.7690   35.6460   46.9250 N   0  0  0  0  0  0  0  0  0  0  0  0
   57.0211   35.3445   45.3783 H   0  0  0  0  0  0  0  0  0  0  0  0
   57.9202   34.2866   44.2385 H   0  0  0  0  0  0  0  0  0  0  0  0
   56.1239   34.2848   44.2385 H   0  0  0  0  0  0  0  0  0  0  0  0
   56.9970   30.8440   45.9950 H   0  0  0  0  0  0  0  0  0  0  0  0
   60.1908   28.1177   48.0371 H   0  0  0  0  0  0  0  0  0  0  0  0
   59.3074   25.7008   47.6434 H   0  0  0  0  0  0  0  0  0  0  0  0
   57.2827   25.6008   45.9600 H   0  0  0  0  0  0  0  0  0  0  0  0
   60.9457   30.1170   47.3624 H   0  0  0  0  0  0  0  0  0  0  0  0
   62.2677   33.8030   45.6582 H   0  0  0  0  0  0  0  0  0  0  0  0
   64.5512   34.4454   46.8021 H   0  0  0  0  0  0  0  0  0  0  0  0
   61.8536   31.7861   49.5185 H   0  0  0  0  0  0  0  0  0  0  0  0
  1  2  1  0
  2  3  1  0
  3  4  2  0
  4  5  1  0
  5  6  1  0
  6  7  2  0
  7  8  1  0
  8  9  2  0
  9 10  1  0
  5 11  2  0
 11 12  1  0
 12 13  1  0
 13 14  1  0
 14 15  2  0
 15 16  1  0
 16 17  1  0
 12 18  2  0
 18 19  1  0
 19 20  3  0
 18  3  1  0
 10  6  1  0
 17 13  2  0
  1 21  1  0
  1 22  1  0
  1 23  1  0
  4 24  1  0
  7 25  1  0
  8 26  1  0
  9 27  1  0
 11 28  1  0
 14 29  1  0
 15 30  1  0
 17 31  1  0
M  CHG  1   4   1
M  END
>  <UniqueID>  (39) 
36

>  <SMILES>  (39) 
COc1[nH+]c(-c2cccs2)cc(-c2ccsc2)c1C#N

>  <Energy>  (39) 
99.13036742553462

>  <Genealogy>  (39) 
COc1[nH+]c(-c2cccs2)cc(-c2ccsc2)c1C#N (protonated)
COc1[nH+]c(-c2cccs2)cc(-c2ccsc2)c1C#N (3D coordinates assigned)
COc1[nH+]c(-c2cccs2)cc(-c2ccsc2)c1C#N (optimized conformer: 99.13036742553462 kcal/mol)

>  <smiles>  (39) 
COc1nc(-c2cccs2)cc(-c2ccsc2)c1C#N

>  <score_type>  (39) 
oracle

>  <origin>  (39) 
adg

>  <m_score__min__energy>  (39) 
-4.7599999999999998

>  <m_primary>  (39) 
energy

$$$$
39:0
     RDKit          3D

 47 50  0  0  0  0  0  0  0  0999 V2000
   64.1160   32.3630   48.8480 C   0  0  0  0  0  0  0  0  0  0  0  0
   63.3070   32.1050   47.7050 O   0  0  0  0  0  0  0  0  0  0  0  0
   61.9530   32.4580   47.5920 C   0  0  0  0  0  0  0  0  0  0  0  0
   61.5230   33.5180   46.7680 C   0  0  0  0  0  0  0  0  0  0  0  0
   60.1610   33.8300   46.6750 C   0  0  0  0  0  0  0  0  0  0  0  0
   59.2250   33.1020   47.4100 C   0  0  0  0  0  0  0  0  0  0  0  0
   59.6430   32.0570   48.2420 C   0  0  0  0  0  0  0  0  0  0  0  0
   61.0090   31.7250   48.3300 C   0  0  0  0  0  0  0  0  0  0  0  0
   61.4690   30.6750   49.1410 O   0  0  0  0  0  0  0  0  0  0  0  0
   60.7250   29.4960   49.4340 C   0  0  0  0  0  0  0  0  0  0  0  0
   57.7790   33.5070   47.3100 C   0  0  0  0  0  0  0  0  0  0  0  0
   57.3900   33.8180   45.9110 N   0  0  0  0  0  0  0  0  0  0  0  0
   56.7260   32.6950   45.2130 C   0  0  0  0  0  0  0  0  0  0  0  0
   57.7020   31.7990   44.4240 C   0  0  0  0  0  0  0  0  0  0  0  0
   57.6050   30.4050   44.8940 N   0  0  0  0  0  0  0  0  0  0  0  0
   56.4060   29.7230   44.8040 C   0  0  0  0  0  0  0  0  0  0  0  0
   55.3880   30.2770   44.3050 O   0  0  0  0  0  0  0  0  0  0  0  0
   56.2990   28.4400   45.2570 N   0  0  0  0  0  0  0  0  0  0  0  0
   57.3710   27.8280   45.8100 C   0  0  0  0  0  0  0  0  0  0  0  0
   57.3860   26.5240   46.3110 C   0  0  0  0  0  0  0  0  0  0  0  0
   58.6320   26.1730   46.8290 C   0  0  0  0  0  0  0  0  0  0  0  0
   59.6930   27.4810   46.6600 S   0  0  0  0  0  0  0  0  0  0  0  0
   58.5670   28.4890   45.9260 C   0  0  0  0  0  0  0  0  0  0  0  0
   58.6960   29.7940   45.4740 C   0  0  0  0  0  0  0  0  0  0  0  0
   59.7960   30.4000   45.6000 O   0  0  0  0  0  0  0  0  0  0  0  0
   58.4000   34.5170   45.0640 C   0  0  0  0  0  0  0  0  0  0  0  0
   59.6620   34.9590   45.8250 C   0  0  0  0  0  0  0  0  0  0  0  0
   63.5312   32.1765   49.7608 H   0  0  0  0  0  0  0  0  0  0  0  0
   64.9938   31.7002   48.8331 H   0  0  0  0  0  0  0  0  0  0  0  0
   64.4480   33.4116   48.8331 H   0  0  0  0  0  0  0  0  0  0  0  0
   62.2596   34.1018   46.1964 H   0  0  0  0  0  0  0  0  0  0  0  0
   58.9027   31.4934   48.8288 H   0  0  0  0  0  0  0  0  0  0  0  0
   60.6473   29.3729   50.5243 H   0  0  0  0  0  0  0  0  0  0  0  0
   59.7170   29.5817   49.0020 H   0  0  0  0  0  0  0  0  0  0  0  0
   61.2361   28.6230   49.0020 H   0  0  0  0  0  0  0  0  0  0  0  0
   57.1517   32.6823   47.6793 H   0  0  0  0  0  0  0  0  0  0  0  0
   57.6349   34.4142   47.9152 H   0  0  0  0  0  0  0  0  0  0  0  0
   56.2116   32.0748   45.9618 H   0  0  0  0  0  0  0  0  0  0  0  0
   56.0281   33.1336   44.4846 H   0  0  0  0  0  0  0  0  0  0  0  0
   57.4495   31.8404   43.3542 H   0  0  0  0  0  0  0  0  0  0  0  0
   58.7289   32.1606   44.5812 H   0  0  0  0  0  0  0  0  0  0  0  0
   56.5154   25.8518   46.2983 H   0  0  0  0  0  0  0  0  0  0  0  0
   58.8853   25.2005   47.2764 H   0  0  0  0  0  0  0  0  0  0  0  0
   58.7049   33.8350   44.2566 H   0  0  0  0  0  0  0  0  0  0  0  0
   57.9195   35.4326   44.6888 H   0  0  0  0  0  0  0  0  0  0  0  0
   60.4417   35.2463   45.1042 H   0  0  0  0  0  0  0  0  0  0  0  0
   59.4178   35.8180   46.4672 H   0  0  0  0  0  0  0  0  0  0  0  0
  1  2  1  0
  2  3  1  0
  3  4  2  0
  4  5  1  0
  5  6  2  0
  6  7  1  0
  7  8  2  0
  8  9  1  0
  9 10  1  0
  6 11  1  0
 11 12  1  0
 12 13  1  0
 13 14  1  0
 14 15  1  0
 15 16  1  0
 16 17  2  0
 16 18  1  0
 18 19  1  0
 19 20  1  0
 20 21  2  0
 21 22  1  0
 22 23  1  0
 23 24  1  0
 24 25  2  0
 12 26  1  0
 26 27  1  0
  8  3  1  0
 24 15  1  0
 27  5  1  0
 23 19  2  0
  1 28  1  0
  1 29  1  0
  1 30  1  0
  4 31  1  0
  7 32  1  0
 10 33  1  0
 10 34  1  0
 10 35  1  0
 11 36  1  0
 11 37  1  0
 13 38  1  0
 13 39  1  0
 14 40  1  0
 14 41  1  0
 20 42  1  0
 21 43  1  0
 26 44  1  0
 26 45  1  0
 27 46  1  0
 27 47  1  0
M  CHG  1  18  -1
M  END
>  <UniqueID>  (40) 
37

>  <SMILES>  (40) 
COc1cc2c(cc1OC)CN(CCn1c(=O)[n-]c3ccsc3c1=O)CC2

>  <Energy>  (40) 
96.77986404804157

>  <Genealogy>  (40) 
COc1cc2c(cc1OC)CN(CCn1c(=O)[n-]c3ccsc3c1=O)CC2 (protonated)
COc1cc2c(cc1OC)CN(CCn1c(=O)[n-]c3ccsc3c1=O)CC2 (3D coordinates assigned)
COc1cc2c(cc1OC)CN(CCn1c(=O)[n-]c3ccsc3c1=O)CC2 (nonaromatic ring conformer: 96.77986404804157 kcal/mol)

>  <smiles>  (40) 
COc1cc2c(cc1OC)CN(CCn1c(=O)[nH]c3ccsc3c1=O)CC2

>  <score_type>  (40) 
oracle

>  <origin>  (40) 
adg

>  <m_score__min__energy>  (40) 
-9.5099999999999998

>  <m_primary>  (40) 
energy

$$$$
40:0
     RDKit          3D

 39 40  0  0  0  0  0  0  0  0999 V2000
   60.9941   35.3153   48.7420 H   0  0  0  0  0  0  0  0  0  0  0  0
   60.3690   34.5730   48.2240 C   0  0  0  0  0  0  0  0  0  0  0  0
   60.2640   33.2760   48.7310 C   0  0  0  0  0  0  0  0  0  0  0  0
   60.8068   32.9999   49.6470 H   0  0  0  0  0  0  0  0  0  0  0  0
   59.4710   32.3270   48.0780 C   0  0  0  0  0  0  0  0  0  0  0  0
   59.3922   31.3070   48.4821 H   0  0  0  0  0  0  0  0  0  0  0  0
   58.7750   32.6720   46.9080 C   0  0  0  0  0  0  0  0  0  0  0  0
   58.8830   33.9870   46.3980 C   0  0  0  0  0  0  0  0  0  0  0  0
   59.6820   34.9310   47.0600 C   0  0  0  0  0  0  0  0  0  0  0  0
   59.7681   35.9533   46.6632 H   0  0  0  0  0  0  0  0  0  0  0  0
   58.1860   34.3210   45.2340 C   0  0  0  0  0  0  0  0  0  0  0  0
   58.2568   35.3387   44.8225 H   0  0  0  0  0  0  0  0  0  0  0  0
   57.4010   33.3630   44.5950 C   0  0  0  0  0  0  0  0  0  0  0  0
   56.8530   33.6237   43.6775 H   0  0  0  0  0  0  0  0  0  0  0  0
   57.3100   32.0690   45.1210 C   0  0  0  0  0  0  0  0  0  0  0  0
   56.5670   31.1970   44.5000 N   0  0  0  0  0  0  0  0  0  0  0  0
   57.0210   30.2430   43.4920 C   0  0  0  0  0  0  0  0  0  0  0  0
   57.9323   30.6261   43.0096 H   0  0  0  0  0  0  0  0  0  0  0  0
   56.2334   30.1076   42.7362 H   0  0  0  0  0  0  0  0  0  0  0  0
   57.3230   28.9010   44.1560 C   0  0  0  0  0  0  0  0  0  0  0  0
   57.8055   28.2325   43.4277 H   0  0  0  0  0  0  0  0  0  0  0  0
   56.3842   28.4473   44.5065 H   0  0  0  0  0  0  0  0  0  0  0  0
   58.2290   29.1100   45.3090 N   0  0  0  0  0  0  0  0  0  0  0  0
   59.6420   29.3010   44.8950 C   0  0  0  0  0  0  0  0  0  0  0  0
   59.6753   30.1055   44.1455 H   0  0  0  0  0  0  0  0  0  0  0  0
   59.9875   28.3338   44.5011 H   0  0  0  0  0  0  0  0  0  0  0  0
   60.5940   29.6730   46.0420 C   0  0  0  0  0  0  0  0  0  0  0  0
   60.1000   29.4800   47.0057 H   0  0  0  0  0  0  0  0  0  0  0  0
   61.5087   29.0661   45.9708 H   0  0  0  0  0  0  0  0  0  0  0  0
   60.8549   30.7392   45.9708 H   0  0  0  0  0  0  0  0  0  0  0  0
   58.0230   28.1060   46.3770 C   0  0  0  0  0  0  0  0  0  0  0  0
   58.9871   27.6292   46.6075 H   0  0  0  0  0  0  0  0  0  0  0  0
   57.6159   28.6242   47.2578 H   0  0  0  0  0  0  0  0  0  0  0  0
   57.0250   27.0260   45.9600 C   0  0  0  0  0  0  0  0  0  0  0  0
   56.5936   26.5591   46.8577 H   0  0  0  0  0  0  0  0  0  0  0  0
   56.2220   27.4804   45.3611 H   0  0  0  0  0  0  0  0  0  0  0  0
   57.5412   26.2613   45.3611 H   0  0  0  0  0  0  0  0  0  0  0  0
   57.9970   31.7510   46.2640 N   0  0  0  0  0  0  0  0  0  0  0  0
   57.9370   30.7890   46.6660 H   0  0  0  0  0  0  0  0  0  0  0  0
  1  2  1  0
  2  3  2  0
  3  4  1  0
  3  5  1  0
  5  6  1  0
  5  7  2  0
  7  8  1  0
  8  9  2  0
  9 10  1  0
  8 11  1  0
 11 12  1  0
 11 13  2  0
 13 14  1  0
 13 15  1  0
 15 16  2  0
 16 17  1  0
 17 18  1  0
 17 19  1  0
 17 20  1  0
 20 21  1  0
 20 22  1  0
 20 23  1  0
 23 24  1  0
 24 25  1  0
 24 26  1  0
 24 27  1  0
 27 28  1  0
 27 29  1  0
 27 30  1  0
 23 31  1  0
 31 32  1  0
 31 33  1  0
 31 34  1  0
 34 35  1  0
 34 36  1  0
 34 37  1  0
 15 38  1  0
 38 39  1  0
  9  2  1  0
 38  7  1  0
M  END
>  <UniqueID>  (41) 
38

>  <SMILES>  (41) 
CCN(CC)CC/N=c1/ccc2ccccc2[nH]1

>  <Energy>  (41) 
43.99360830409056

>  <Genealogy>  (41) 
CCN(CC)CC/N=c1/ccc2ccccc2[nH]1 (cis-trans isomerization)
CCN(CC)CC/N=c1/ccc2ccccc2[nH]1 (3D coordinates assigned)
CCN(CC)CC/N=c1/ccc2ccccc2[nH]1 (optimized conformer: 43.99360830409056 kcal/mol)

>  <smiles>  (41) 
CCN(CC)CCN=c1ccc2ccccc2[nH]1

>  <score_type>  (41) 
oracle

>  <origin>  (41) 
adg

>  <m_score__min__energy>  (41) 
-6.4400000000000004

>  <m_primary>  (41) 
energy

$$$$
41:0
     RDKit          3D

 46 49  0  0  0  0  0  0  0  0999 V2000
   57.0130   28.6750   45.5090 C   0  0  0  0  0  0  0  0  0  0  0  0
   56.9190   30.0960   45.4730 O   0  0  0  0  0  0  0  0  0  0  0  0
   57.1990   30.8910   44.3500 C   0  0  0  0  0  0  0  0  0  0  0  0
   56.6800   30.5640   43.0800 C   0  0  0  0  0  0  0  0  0  0  0  0
   57.0150   31.3210   41.9600 C   0  0  0  0  0  0  0  0  0  0  0  0
   57.8870   32.3980   42.0830 C   0  0  0  0  0  0  0  0  0  0  0  0
   58.4040   32.7400   43.3310 C   0  0  0  0  0  0  0  0  0  0  0  0
   58.0320   32.0310   44.4960 C   0  0  0  0  0  0  0  0  0  0  0  0
   58.5860   32.4180   45.8780 C   0  0  2  0  0  0  0  0  0  0  0  0
   59.4770   33.6780   45.8960 C   0  0  0  0  0  0  0  0  0  0  0  0
   59.4020   34.4350   47.1850 C   0  0  0  0  0  0  0  0  0  0  0  0
   59.1980   35.6780   47.1290 O   0  0  0  0  0  0  0  0  0  0  0  0
   59.5640   33.8220   48.5160 C   0  0  0  0  0  0  0  0  0  0  0  0
   59.3350   32.5380   48.8760 C   0  0  0  0  0  0  0  0  0  0  0  0
   58.7830   32.3060   50.2430 C   0  0  0  0  0  0  0  0  0  0  0  0
   58.9960   33.2500   51.2650 C   0  0  0  0  0  0  0  0  0  0  0  0
   58.4880   33.0320   52.5490 C   0  0  0  0  0  0  0  0  0  0  0  0
   57.7680   31.8680   52.8300 C   0  0  0  0  0  0  0  0  0  0  0  0
   57.5590   30.9180   51.8280 C   0  0  0  0  0  0  0  0  0  0  0  0
   58.0650   31.1310   50.5420 C   0  0  0  0  0  0  0  0  0  0  0  0
   59.5730   31.3370   48.0020 C   0  0  0  0  0  0  0  0  0  0  0  0
   60.1400   30.1930   48.6050 C   0  0  0  0  0  0  0  0  0  0  0  0
   60.5180   29.0870   47.8440 C   0  0  0  0  0  0  0  0  0  0  0  0
   60.3390   29.0940   46.4660 C   0  0  0  0  0  0  0  0  0  0  0  0
   59.7540   30.1960   45.8450 C   0  0  0  0  0  0  0  0  0  0  0  0
   59.3490   31.3200   46.5950 C   0  0  0  0  0  0  0  0  0  0  0  0
   57.0355   28.3354   46.5550 H   0  0  0  0  0  0  0  0  0  0  0  0
   56.1419   28.2369   44.9999 H   0  0  0  0  0  0  0  0  0  0  0  0
   57.9342   28.3555   44.9999 H   0  0  0  0  0  0  0  0  0  0  0  0
   56.0041   29.7028   42.9731 H   0  0  0  0  0  0  0  0  0  0  0  0
   56.5899   31.0672   40.9777 H   0  0  0  0  0  0  0  0  0  0  0  0
   58.1689   32.9806   41.1935 H   0  0  0  0  0  0  0  0  0  0  0  0
   59.1140   33.5763   43.4110 H   0  0  0  0  0  0  0  0  0  0  0  0
   57.6494   32.6246   46.4166 H   0  0  0  0  0  0  0  0  0  0  0  0
   60.5203   33.3708   45.7312 H   0  0  0  0  0  0  0  0  0  0  0  0
   59.1129   34.3471   45.1024 H   0  0  0  0  0  0  0  0  0  0  0  0
   59.9144   34.4914   49.3154 H   0  0  0  0  0  0  0  0  0  0  0  0
   59.5664   34.1661   51.0518 H   0  0  0  0  0  0  0  0  0  0  0  0
   58.6554   33.7783   53.3396 H   0  0  0  0  0  0  0  0  0  0  0  0
   57.3660   31.7000   53.8400 H   0  0  0  0  0  0  0  0  0  0  0  0
   56.9951   30.0002   52.0509 H   0  0  0  0  0  0  0  0  0  0  0  0
   57.9015   30.3763   49.7586 H   0  0  0  0  0  0  0  0  0  0  0  0
   60.2863   30.1737   49.6951 H   0  0  0  0  0  0  0  0  0  0  0  0
   60.9588   28.2073   48.3357 H   0  0  0  0  0  0  0  0  0  0  0  0
   60.6590   28.2298   45.8654 H   0  0  0  0  0  0  0  0  0  0  0  0
   59.6060   30.1892   44.7550 H   0  0  0  0  0  0  0  0  0  0  0  0
  1  2  1  0
  2  3  1  0
  3  4  2  0
  4  5  1  0
  5  6  2  0
  6  7  1  0
  7  8  2  0
  8  9  1  0
  9 10  1  0
 10 11  1  0
 11 12  2  0
 11 13  1  0
 13 14  2  0
 14 15  1  0
 15 16  2  0
 16 17  1  0
 17 18  2  0
 18 19  1  0
 19 20  2  0
 14 21  1  0
 21 22  2  0
 22 23  1  0
 23 24  2  0
 24 25  1  0
 25 26  2  0
  8  3  1  0
 26  9  1  0
 20 15  1  0
 26 21  1  0
  1 27  1  0
  1 28  1  0
  1 29  1  0
  4 30  1  0
  5 31  1  0
  6 32  1  0
  7 33  1  0
  9 34  1  1
 10 35  1  0
 10 36  1  0
 13 37  1  0
 16 38  1  0
 17 39  1  0
 18 40  1  0
 19 41  1  0
 20 42  1  0
 22 43  1  0
 23 44  1  0
 24 45  1  0
 25 46  1  0
M  END
>  <UniqueID>  (42) 
39

>  <SMILES>  (42) 
COc1ccccc1[C@@H]1CC(=O)C=C(c2ccccc2)c2ccccc21

>  <Energy>  (42) 
75.63267292556262

>  <Genealogy>  (42) 
COc1ccccc1[C@@H]1CC(=O)C=C(c2ccccc2)c2ccccc21 (chirality)
COc1ccccc1[C@@H]1CC(=O)C=C(c2ccccc2)c2ccccc21 (3D coordinates assigned)
COc1ccccc1[C@@H]1CC(=O)C=C(c2ccccc2)c2ccccc21 (nonaromatic ring conformer: 75.63267292556262 kcal/mol)

>  <smiles>  (42) 
COc1ccccc1C1CC(=O)C=C(c2ccccc2)c2ccccc21

>  <score_type>  (42) 
oracle

>  <origin>  (42) 
adg

>  <m_score__min__energy>  (42) 
-7

>  <m_primary>  (42) 
energy

$$$$
42:0
     RDKit          3D

 43 46  0  0  0  0  0  0  0  0999 V2000
   56.2500   23.3110   47.7730 C   0  0  0  0  0  0  0  0  0  0  0  0
   55.8690   24.5140   47.1160 O   0  0  0  0  0  0  0  0  0  0  0  0
   56.7640   25.5270   46.7380 C   0  0  0  0  0  0  0  0  0  0  0  0
   58.1460   25.4820   47.0730 C   0  0  0  0  0  0  0  0  0  0  0  0
   59.0180   26.5140   46.6790 C   0  0  0  0  0  0  0  0  0  0  0  0
   58.4890   27.5840   45.9530 C   0  0  0  0  0  0  0  0  0  0  0  0
   57.1480   27.6210   45.6280 C   0  0  0  0  0  0  0  0  0  0  0  0
   56.2600   26.6160   46.0020 C   0  0  0  0  0  0  0  0  0  0  0  0
   56.9670   28.7810   44.9210 C   0  0  0  0  0  0  0  0  0  0  0  0
   55.8400   29.2930   44.3690 N   0  0  0  0  0  0  0  0  0  0  0  0
   55.9170   30.4820   43.7010 C   0  0  0  0  0  0  0  0  0  0  0  0
   57.1490   31.1640   43.5850 C   0  0  0  0  0  0  0  0  0  0  0  0
   58.3110   30.6200   44.1620 C   0  0  0  0  0  0  0  0  0  0  0  0
   58.1890   29.4060   44.8400 C   0  0  0  0  0  0  0  0  0  0  0  0
   59.1440   28.6770   45.4760 N   0  0  0  0  0  0  0  0  0  0  0  0
   60.5630   29.0070   45.6540 C   0  0  0  0  0  0  0  0  0  0  0  0
   60.7860   29.8170   46.9380 C   0  0  0  0  0  0  0  0  0  0  0  0
   59.5950   30.5860   47.3090 N   0  0  0  0  0  0  0  0  0  0  0  0
   59.3990   31.9620   46.9370 C   0  0  0  0  0  0  0  0  0  0  0  0
   58.0900   32.4560   46.7980 C   0  0  0  0  0  0  0  0  0  0  0  0
   57.8680   33.7890   46.4400 C   0  0  0  0  0  0  0  0  0  0  0  0
   58.9490   34.6430   46.2150 C   0  0  0  0  0  0  0  0  0  0  0  0
   60.2560   34.1650   46.3480 C   0  0  0  0  0  0  0  0  0  0  0  0
   60.4830   32.8330   46.7060 C   0  0  0  0  0  0  0  0  0  0  0  0
   56.2036   23.4575   48.8622 H   0  0  0  0  0  0  0  0  0  0  0  0
   55.5643   22.5015   47.4824 H   0  0  0  0  0  0  0  0  0  0  0  0
   57.2767   23.0438   47.4824 H   0  0  0  0  0  0  0  0  0  0  0  0
   58.5380   24.6297   47.6473 H   0  0  0  0  0  0  0  0  0  0  0  0
   60.0871   26.4791   46.9357 H   0  0  0  0  0  0  0  0  0  0  0  0
   55.1955   26.6713   45.7303 H   0  0  0  0  0  0  0  0  0  0  0  0
   55.0113   30.9126   43.2491 H   0  0  0  0  0  0  0  0  0  0  0  0
   57.1995   32.1202   43.0436 H   0  0  0  0  0  0  0  0  0  0  0  0
   59.2808   31.1329   44.0817 H   0  0  0  0  0  0  0  0  0  0  0  0
   61.1439   28.0747   45.7121 H   0  0  0  0  0  0  0  0  0  0  0  0
   60.8902   29.6142   44.7971 H   0  0  0  0  0  0  0  0  0  0  0  0
   61.0330   29.1255   47.7570 H   0  0  0  0  0  0  0  0  0  0  0  0
   61.6082   30.5251   46.7576 H   0  0  0  0  0  0  0  0  0  0  0  0
   58.8480   30.1220   47.8720 H   0  0  0  0  0  0  0  0  0  0  0  0
   57.2335   31.7881   46.9724 H   0  0  0  0  0  0  0  0  0  0  0  0
   56.8398   34.1655   46.3354 H   0  0  0  0  0  0  0  0  0  0  0  0
   58.7726   35.6915   45.9332 H   0  0  0  0  0  0  0  0  0  0  0  0
   61.1075   34.8384   46.1706 H   0  0  0  0  0  0  0  0  0  0  0  0
   61.5136   32.4623   46.8081 H   0  0  0  0  0  0  0  0  0  0  0  0
  1  2  1  0
  2  3  1  0
  3  4  2  0
  4  5  1  0
  5  6  2  0
  6  7  1  0
  7  8  2  0
  7  9  1  0
  9 10  2  0
 10 11  1  0
 11 12  2  0
 12 13  1  0
 13 14  2  0
 14 15  1  0
 15 16  1  0
 16 17  1  0
 17 18  1  0
 18 19  1  0
 19 20  2  0
 20 21  1  0
 21 22  2  0
 22 23  1  0
 23 24  2  0
  8  3  1  0
 14  9  1  0
 24 19  1  0
 15  6  1  0
  1 25  1  0
  1 26  1  0
  1 27  1  0
  4 28  1  0
  5 29  1  0
  8 30  1  0
 11 31  1  0
 12 32  1  0
 13 33  1  0
 16 34  1  0
 16 35  1  0
 17 36  1  0
 17 37  1  0
 18 38  1  0
 20 39  1  0
 21 40  1  0
 22 41  1  0
 23 42  1  0
 24 43  1  0
M  END
>  <UniqueID>  (43) 
40

>  <SMILES>  (43) 
COc1ccc2c(c1)c1ncccc1n2CCNc1ccccc1

>  <Energy>  (43) 
88.26094912002017

>  <Genealogy>  (43) 
COc1ccc2c(c1)c1ncccc1n2CCNc1ccccc1 (3D coordinates assigned)
COc1ccc2c(c1)c1ncccc1n2CCNc1ccccc1 (optimized conformer: 88.26094912002017 kcal/mol)

>  <smiles>  (43) 
COc1ccc2c(c1)c1ncccc1n2CCNc1ccccc1

>  <score_type>  (43) 
oracle

>  <origin>  (43) 
adg

>  <m_score__min__energy>  (43) 
-7.0800000000000001

>  <m_primary>  (43) 
energy

$$$$
43:0
     RDKit          3D

 39 41  0  0  0  0  0  0  0  0999 V2000
   58.5400   32.5910   49.3570 C   0  0  0  0  0  0  0  0  0  0  0  0
   59.5270   33.3460   48.5780 N   0  0  0  0  0  0  0  0  0  0  0  0
   60.8440   33.6200   49.1750 C   0  0  0  0  0  0  0  0  0  0  0  0
   61.9610   33.5510   48.1620 C   0  0  0  0  0  0  0  0  0  0  0  0
   61.9720   34.2060   46.9800 N   0  0  0  0  0  0  0  0  0  0  0  0
   63.1290   33.8560   46.3840 C   0  0  0  0  0  0  0  0  0  0  0  0
   63.8110   32.9890   47.2130 C   0  0  0  0  0  0  0  0  0  0  0  0
   63.0760   32.8040   48.3250 N   0  0  0  0  0  0  0  0  0  0  0  0
   63.4150   31.9510   49.4600 C   0  0  0  0  0  0  0  0  0  0  0  0
   59.1120   33.9680   47.3410 C   0  0  0  0  0  0  0  0  0  0  0  0
   59.2160   35.2200   47.2110 O   0  0  0  0  0  0  0  0  0  0  0  0
   58.5720   33.1840   46.2080 C   0  0  0  0  0  0  0  0  0  0  0  0
   58.3180   33.8150   44.9790 C   0  0  0  0  0  0  0  0  0  0  0  0
   57.8080   33.0900   43.8990 C   0  0  0  0  0  0  0  0  0  0  0  0
   57.5360   31.7220   44.0320 C   0  0  0  0  0  0  0  0  0  0  0  0
   57.0300   30.9810   42.9530 C   0  0  0  0  0  0  0  0  0  0  0  0
   56.7560   29.6190   43.1020 C   0  0  0  0  0  0  0  0  0  0  0  0
   56.9880   28.9860   44.3270 C   0  0  0  0  0  0  0  0  0  0  0  0
   57.4910   29.7110   45.4110 C   0  0  0  0  0  0  0  0  0  0  0  0
   57.7690   31.0810   45.2730 C   0  0  0  0  0  0  0  0  0  0  0  0
   58.2740   31.8200   46.3540 C   0  0  0  0  0  0  0  0  0  0  0  0
   58.7308   32.7369   50.4305 H   0  0  0  0  0  0  0  0  0  0  0  0
   57.5288   32.9483   49.1124 H   0  0  0  0  0  0  0  0  0  0  0  0
   58.6202   31.5215   49.1124 H   0  0  0  0  0  0  0  0  0  0  0  0
   60.8291   34.6275   49.6162 H   0  0  0  0  0  0  0  0  0  0  0  0
   61.0339   32.8491   49.9364 H   0  0  0  0  0  0  0  0  0  0  0  0
   61.2520   34.8530   46.5930 H   0  0  0  0  0  0  0  0  0  0  0  0
   63.4730   34.2042   45.3989 H   0  0  0  0  0  0  0  0  0  0  0  0
   64.7873   32.5284   47.0014 H   0  0  0  0  0  0  0  0  0  0  0  0
   63.2023   32.4861   50.3972 H   0  0  0  0  0  0  0  0  0  0  0  0
   62.8144   31.0303   49.4190 H   0  0  0  0  0  0  0  0  0  0  0  0
   64.4837   31.6937   49.4190 H   0  0  0  0  0  0  0  0  0  0  0  0
   58.5225   34.8899   44.8658 H   0  0  0  0  0  0  0  0  0  0  0  0
   57.6192   33.5953   42.9403 H   0  0  0  0  0  0  0  0  0  0  0  0
   56.8485   31.4741   41.9866 H   0  0  0  0  0  0  0  0  0  0  0  0
   56.3569   29.0435   42.2538 H   0  0  0  0  0  0  0  0  0  0  0  0
   56.7737   27.9128   44.4381 H   0  0  0  0  0  0  0  0  0  0  0  0
   57.6693   29.2083   46.3730 H   0  0  0  0  0  0  0  0  0  0  0  0
   58.4376   31.3265   47.3234 H   0  0  0  0  0  0  0  0  0  0  0  0
  1  2  1  0
  2  3  1  0
  3  4  1  0
  4  5  2  0
  5  6  1  0
  6  7  2  0
  7  8  1  0
  8  9  1  0
  2 10  1  0
 10 11  2  0
 10 12  1  0
 12 13  2  0
 13 14  1  0
 14 15  2  0
 15 16  1  0
 16 17  2  0
 17 18  1  0
 18 19  2  0
 19 20  1  0
 20 21  2  0
  8  4  1  0
 21 12  1  0
 20 15  1  0
  1 22  1  0
  1 23  1  0
  1 24  1  0
  3 25  1  0
  3 26  1  0
  5 27  1  0
  6 28  1  0
  7 29  1  0
  9 30  1  0
  9 31  1  0
  9 32  1  0
 13 33  1  0
 14 34  1  0
 16 35  1  0
 17 36  1  0
 18 37  1  0
 19 38  1  0
 21 39  1  0
M  CHG  1   5   1
M  END
>  <UniqueID>  (44) 
41

>  <SMILES>  (44) 
CN(Cc1[nH+]ccn1C)C(=O)c1ccc2ccccc2c1

>  <Energy>  (44) 
76.74904052511732

>  <Genealogy>  (44) 
CN(Cc1[nH+]ccn1C)C(=O)c1ccc2ccccc2c1 (protonated)
CN(Cc1[nH+]ccn1C)C(=O)c1ccc2ccccc2c1 (3D coordinates assigned)
CN(Cc1[nH+]ccn1C)C(=O)c1ccc2ccccc2c1 (optimized conformer: 76.74904052511732 kcal/mol)

>  <smiles>  (44) 
CN(Cc1nccn1C)C(=O)c1ccc2ccccc2c1

>  <score_type>  (44) 
oracle

>  <origin>  (44) 
adg

>  <m_score__min__energy>  (44) 
-5.96

>  <m_primary>  (44) 
energy

$$$$
44:0
     RDKit          3D

 48 51  0  0  0  0  0  0  0  0999 V2000
   58.2770   26.8640   46.2520 C   0  0  0  0  0  0  0  0  0  0  0  0
   57.7900   28.1790   46.4980 O   0  0  0  0  0  0  0  0  0  0  0  0
   57.5330   29.1350   45.5010 C   0  0  0  0  0  0  0  0  0  0  0  0
   56.3290   29.1360   44.7710 C   0  0  0  0  0  0  0  0  0  0  0  0
   56.0940   30.1040   43.7940 C   0  0  0  0  0  0  0  0  0  0  0  0
   57.0520   31.0830   43.5350 C   0  0  0  0  0  0  0  0  0  0  0  0
   58.2510   31.0950   44.2480 C   0  0  0  0  0  0  0  0  0  0  0  0
   58.5110   30.1190   45.2320 C   0  0  0  0  0  0  0  0  0  0  0  0
   59.7980   30.1160   46.0400 C   0  0  0  0  0  0  0  0  0  0  0  0
   59.7050   30.8960   47.2860 N   0  0  0  0  0  0  0  0  0  0  0  0
   59.5490   30.1300   48.4870 C   0  0  0  0  0  0  0  0  0  0  0  0
   58.4720   29.5120   48.6980 O   0  0  0  0  0  0  0  0  0  0  0  0
   60.6260   30.1300   49.5430 C   0  0  0  0  0  0  0  0  0  0  0  0
   60.9470   31.5480   50.0360 C   0  0  1  0  0  0  0  0  0  0  0  0
   61.9380   32.2360   49.1210 C   0  0  0  0  0  0  0  0  0  0  0  0
   62.5160   31.5290   48.0500 C   0  0  0  0  0  0  0  0  0  0  0  0
   63.4240   32.1600   47.1930 C   0  0  0  0  0  0  0  0  0  0  0  0
   63.7600   33.5010   47.3910 C   0  0  0  0  0  0  0  0  0  0  0  0
   63.1890   34.2150   48.4470 C   0  0  0  0  0  0  0  0  0  0  0  0
   62.2810   33.5900   49.3070 C   0  0  0  0  0  0  0  0  0  0  0  0
   59.3920   32.5060   50.1320 S   0  0  0  0  0  0  0  0  0  0  0  0
   59.4730   33.1490   48.4460 C   0  0  0  0  0  0  0  0  0  0  0  0
   59.3220   34.5390   48.3280 C   0  0  0  0  0  0  0  0  0  0  0  0
   59.4710   35.1720   47.0980 C   0  0  0  0  0  0  0  0  0  0  0  0
   59.7760   34.4270   45.9660 C   0  0  0  0  0  0  0  0  0  0  0  0
   59.8950   33.0390   46.0510 C   0  0  0  0  0  0  0  0  0  0  0  0
   59.7150   32.3570   47.2780 C   0  0  0  0  0  0  0  0  0  0  0  0
   58.4647   26.3573   47.2101 H   0  0  0  0  0  0  0  0  0  0  0  0
   57.5291   26.2974   45.6779 H   0  0  0  0  0  0  0  0  0  0  0  0
   59.2136   26.9213   45.6779 H   0  0  0  0  0  0  0  0  0  0  0  0
   55.5679   28.3678   44.9725 H   0  0  0  0  0  0  0  0  0  0  0  0
   55.1513   30.0946   43.2272 H   0  0  0  0  0  0  0  0  0  0  0  0
   56.8622   31.8474   42.7671 H   0  0  0  0  0  0  0  0  0  0  0  0
   59.0005   31.8730   44.0407 H   0  0  0  0  0  0  0  0  0  0  0  0
   60.0466   29.0757   46.2969 H   0  0  0  0  0  0  0  0  0  0  0  0
   60.5743   30.5860   45.4183 H   0  0  0  0  0  0  0  0  0  0  0  0
   60.2863   29.5254   50.3969 H   0  0  0  0  0  0  0  0  0  0  0  0
   61.5396   29.7101   49.0970 H   0  0  0  0  0  0  0  0  0  0  0  0
   61.4090   31.4858   51.0323 H   0  0  0  0  0  0  0  0  0  0  0  0
   62.2521   30.4738   47.8858 H   0  0  0  0  0  0  0  0  0  0  0  0
   63.8744   31.5986   46.3612 H   0  0  0  0  0  0  0  0  0  0  0  0
   64.4741   33.9948   46.7155 H   0  0  0  0  0  0  0  0  0  0  0  0
   63.4543   35.2712   48.6023 H   0  0  0  0  0  0  0  0  0  0  0  0
   61.8315   34.1589   50.1342 H   0  0  0  0  0  0  0  0  0  0  0  0
   59.0826   35.1364   49.2201 H   0  0  0  0  0  0  0  0  0  0  0  0
   59.3473   36.2624   47.0220 H   0  0  0  0  0  0  0  0  0  0  0  0
   59.9241   34.9322   45.0002 H   0  0  0  0  0  0  0  0  0  0  0  0
   60.1338   32.4628   45.1449 H   0  0  0  0  0  0  0  0  0  0  0  0
  1  2  1  0
  2  3  1  0
  3  4  2  0
  4  5  1  0
  5  6  2  0
  6  7  1  0
  7  8  2  0
  8  9  1  0
  9 10  1  0
 10 11  1  0
 11 12  2  0
 11 13  1  0
 13 14  1  0
 14 15  1  0
 15 16  2  0
 16 17  1  0
 17 18  2  0
 18 19  1  0
 19 20  2  0
 14 21  1  0
 21 22  1  0
 22 23  2  0
 23 24  1  0
 24 25  2  0
 25 26  1  0
 26 27  2  0
  8  3  1  0
 27 10  1  0
 20 15  1  0
 27 22  1  0
  1 28  1  0
  1 29  1  0
  1 30  1  0
  4 31  1  0
  5 32  1  0
  6 33  1  0
  7 34  1  0
  9 35  1  0
  9 36  1  0
 13 37  1  0
 13 38  1  0
 14 39  1  1
 16 40  1  0
 17 41  1  0
 18 42  1  0
 19 43  1  0
 20 44  1  0
 23 45  1  0
 24 46  1  0
 25 47  1  0
 26 48  1  0
M  END
>  <UniqueID>  (45) 
42

>  <SMILES>  (45) 
COc1ccccc1CN1C(=O)C[C@@H](c2ccccc2)Sc2ccccc21

>  <Energy>  (45) 
73.64704902718913

>  <Genealogy>  (45) 
COc1ccccc1CN1C(=O)C[C@@H](c2ccccc2)Sc2ccccc21 (chirality)
COc1ccccc1CN1C(=O)C[C@@H](c2ccccc2)Sc2ccccc21 (3D coordinates assigned)
COc1ccccc1CN1C(=O)C[C@@H](c2ccccc2)Sc2ccccc21 (nonaromatic ring conformer: 73.64704902718913 kcal/mol)

>  <smiles>  (45) 
COc1ccccc1CN1C(=O)CC(c2ccccc2)Sc2ccccc21

>  <score_type>  (45) 
oracle

>  <origin>  (45) 
adg

>  <m_score__min__energy>  (45) 
-6.1900000000000004

>  <m_primary>  (45) 
energy

$$$$
45:0
     RDKit          3D

 54 56  0  0  0  0  0  0  0  0999 V2000
   62.6111   31.8580   47.8021 H   0  0  0  0  0  0  0  0  0  0  0  0
   61.5920   31.9750   47.4050 C   0  0  0  0  0  0  0  0  0  0  0  0
   60.8250   30.9330   47.3200 N   0  0  0  0  0  0  0  0  0  0  0  0
   60.9360   29.8740   48.1970 O   0  0  0  0  0  0  0  0  0  0  0  0
   59.7750   29.2210   48.6910 C   0  0  0  0  0  0  0  0  0  0  0  0
   60.0373   28.1921   48.9785 H   0  0  0  0  0  0  0  0  0  0  0  0
   59.0125   29.2207   47.8982 H   0  0  0  0  0  0  0  0  0  0  0  0
   59.2020   29.9530   49.9160 C   0  0  0  0  0  0  0  0  0  0  0  0
   59.2802   29.2896   50.7899 H   0  0  0  0  0  0  0  0  0  0  0  0
   58.1564   30.2086   49.6893 H   0  0  0  0  0  0  0  0  0  0  0  0
   59.9140   31.2160   50.2160 N   0  0  0  0  0  0  0  0  0  0  0  0
   60.5760   31.0480   51.0080 H   0  0  0  0  0  0  0  0  0  0  0  0
   60.5000   31.4990   49.3970 H   0  0  0  0  0  0  0  0  0  0  0  0
   59.0130   32.3330   50.5650 C   0  0  0  0  0  0  0  0  0  0  0  0
   58.6972   32.2189   51.6125 H   0  0  0  0  0  0  0  0  0  0  0  0
   58.1526   32.2984   49.8805 H   0  0  0  0  0  0  0  0  0  0  0  0
   59.6890   33.6970   50.4000 C   0  0  0  0  0  0  0  0  0  0  0  0
   59.9005   34.1237   51.3915 H   0  0  0  0  0  0  0  0  0  0  0  0
   60.6308   33.5747   49.8450 H   0  0  0  0  0  0  0  0  0  0  0  0
   59.0213   34.3724   49.8450 H   0  0  0  0  0  0  0  0  0  0  0  0
   61.1270   33.3380   46.9760 C   0  0  0  0  0  0  0  0  0  0  0  0
   60.9944   33.9729   47.8644 H   0  0  0  0  0  0  0  0  0  0  0  0
   61.8802   33.7802   46.3074 H   0  0  0  0  0  0  0  0  0  0  0  0
   59.8430   33.2350   46.2540 N   0  0  0  0  0  0  0  0  0  0  0  0
   58.7110   33.1590   47.1960 C   0  0  0  0  0  0  0  0  0  0  0  0
   58.9072   32.3714   47.9384 H   0  0  0  0  0  0  0  0  0  0  0  0
   58.5968   34.1289   47.7022 H   0  0  0  0  0  0  0  0  0  0  0  0
   57.4120   32.8300   46.4340 C   0  0  0  0  0  0  0  0  0  0  0  0
   57.2766   31.7384   46.4297 H   0  0  0  0  0  0  0  0  0  0  0  0
   56.5907   33.3474   46.9515 H   0  0  0  0  0  0  0  0  0  0  0  0
   57.4180   33.3090   45.0310 N   0  0  0  0  0  0  0  0  0  0  0  0
   57.8360   32.2650   44.0720 C   0  0  0  0  0  0  0  0  0  0  0  0
   57.4848   32.5333   43.0647 H   0  0  0  0  0  0  0  0  0  0  0  0
   58.9334   32.1888   44.0752 H   0  0  0  0  0  0  0  0  0  0  0  0
   57.2480   30.9430   44.4680 C   0  0  0  0  0  0  0  0  0  0  0  0
   55.9020   30.5930   44.4900 C   0  0  0  0  0  0  0  0  0  0  0  0
   55.0709   31.2641   44.2274 H   0  0  0  0  0  0  0  0  0  0  0  0
   55.7690   29.3350   44.8730 O   0  0  0  0  0  0  0  0  0  0  0  0
   56.9670   28.8550   45.0980 C   0  0  0  0  0  0  0  0  0  0  0  0
   57.3050   27.5680   45.5170 C   0  0  0  0  0  0  0  0  0  0  0  0
   56.5305   26.8095   45.7037 H   0  0  0  0  0  0  0  0  0  0  0  0
   58.6700   27.2720   45.6930 C   0  0  0  0  0  0  0  0  0  0  0  0
   58.9729   26.2672   46.0227 H   0  0  0  0  0  0  0  0  0  0  0  0
   59.6540   28.2570   45.4490 C   0  0  0  0  0  0  0  0  0  0  0  0
   60.7174   28.0137   45.5904 H   0  0  0  0  0  0  0  0  0  0  0  0
   59.2820   29.5480   45.0260 C   0  0  0  0  0  0  0  0  0  0  0  0
   60.0378   30.3229   44.8304 H   0  0  0  0  0  0  0  0  0  0  0  0
   57.9220   29.8090   44.8640 C   0  0  0  0  0  0  0  0  0  0  0  0
   58.2030   34.5510   44.8800 C   0  0  0  0  0  0  0  0  0  0  0  0
   58.1903   34.8511   43.8218 H   0  0  0  0  0  0  0  0  0  0  0  0
   57.7448   35.3188   45.5208 H   0  0  0  0  0  0  0  0  0  0  0  0
   59.6710   34.3750   45.3290 C   0  0  0  0  0  0  0  0  0  0  0  0
   60.2950   34.2055   44.4391 H   0  0  0  0  0  0  0  0  0  0  0  0
   59.9711   35.2889   45.8626 H   0  0  0  0  0  0  0  0  0  0  0  0
  1  2  1  0
  2  3  2  0
  3  4  1  0
  4  5  1  0
  5  6  1  0
  5  7  1  0
  5  8  1  0
  8  9  1  0
  8 10  1  0
  8 11  1  0
 11 12  1  0
 11 13  1  0
 11 14  1  0
 14 15  1  0
 14 16  1  0
 14 17  1  0
 17 18  1  0
 17 19  1  0
 17 20  1  0
  2 21  1  0
 21 22  1  0
 21 23  1  0
 21 24  1  0
 24 25  1  0
 25 26  1  0
 25 27  1  0
 25 28  1  0
 28 29  1  0
 28 30  1  0
 28 31  1  0
 31 32  1  0
 32 33  1  0
 32 34  1  0
 32 35  1  0
 35 36  2  0
 36 37  1  0
 36 38  1  0
 38 39  1  0
 39 40  2  0
 40 41  1  0
 40 42  1  0
 42 43  1  0
 42 44  2  0
 44 45  1  0
 44 46  1  0
 46 47  1  0
 46 48  2  0
 31 49  1  0
 49 50  1  0
 49 51  1  0
 49 52  1  0
 52 53  1  0
 52 54  1  0
 52 24  1  0
 48 35  1  0
 48 39  1  0
M  CHG  1  11   1
M  END
>  <UniqueID>  (46) 
43

>  <SMILES>  (46) 
CC[NH2+]CCO/N=C\CN1CCN(Cc2coc3ccccc23)CC1

>  <Energy>  (46) 
92.96628148220297

>  <Genealogy>  (46) 
CC[NH2+]CCON=CCN1CCN(Cc2coc3ccccc23)CC1 (protonated)
CC[NH2+]CCO/N=C\CN1CCN(Cc2coc3ccccc23)CC1 (cis-trans isomerization)
CC[NH2+]CCO/N=C\CN1CCN(Cc2coc3ccccc23)CC1 (3D coordinates assigned)
CC[NH2+]CCO/N=C\CN1CCN(Cc2coc3ccccc23)CC1 (nonaromatic ring conformer: 92.96628148220297 kcal/mol)

>  <smiles>  (46) 
CCNCCON=CCN1CCN(Cc2coc3ccccc23)CC1

>  <score_type>  (46) 
oracle

>  <origin>  (46) 
adg

>  <m_score__min__energy>  (46) 
-5.9500000000000002

>  <m_primary>  (46) 
energy

$$$$
