0:0
     RDKit          3D

 72 75  0  0  0  0  0  0  0  0999 V2000
   63.3800   33.8200   46.9190 C   0  0  0  0  0  0  0  0  0  0  0  0
   62.0850   33.0200   47.0740 C   0  0  0  0  0  0  0  0  0  0  0  0
   61.8350   32.6630   48.4910 N   0  0  0  0  0  0  0  0  0  0  0  0
   62.6990   31.5380   48.9050 C   0  0  0  0  0  0  0  0  0  0  0  0
   62.0470   33.8320   49.3820 C   0  0  0  0  0  0  0  0  0  0  0  0
   62.0550   33.3950   50.8570 C   0  0  0  0  0  0  0  0  0  0  0  0
   60.7780   32.9630   51.2890 O   0  0  0  0  0  0  0  0  0  0  0  0
   60.2250   33.8520   52.2470 C   0  0  0  0  0  0  0  0  0  0  0  0
   58.7020   33.7420   52.2650 C   0  0  0  0  0  0  0  0  0  0  0  0
   58.3060   32.3880   52.3780 O   0  0  0  0  0  0  0  0  0  0  0  0
   57.6080   31.9850   51.2130 C   0  0  0  0  0  0  0  0  0  0  0  0
   58.5050   31.0730   50.3560 C   0  0  0  0  0  0  0  0  0  0  0  0
   59.4150   31.8030   49.4420 N   0  0  0  0  0  0  0  0  0  0  0  0
   59.1920   31.4730   48.0420 C   0  0  0  0  0  0  0  0  0  0  0  0
   58.8250   32.4800   47.1170 C   0  0  0  0  0  0  0  0  0  0  0  0
   58.5710   32.1320   45.7780 C   0  0  0  0  0  0  0  0  0  0  0  0
   58.3710   30.8130   45.4260 N   0  0  0  0  0  0  0  0  0  0  0  0
   57.7100   30.4980   44.1420 C   0  0  0  0  0  0  0  0  0  0  0  0
   58.7560   29.8010   46.2940 C   0  0  0  0  0  0  0  0  0  0  0  0
   59.2760   30.1350   47.5790 C   0  0  0  0  0  0  0  0  0  0  0  0
   59.7760   29.0260   48.4920 C   0  0  0  0  0  0  0  0  0  0  0  0
   60.3950   27.8750   47.7090 C   0  0  0  0  0  0  0  0  0  0  0  0
   59.4550   27.3980   46.6540 C   0  0  0  0  0  0  0  0  0  0  0  0
   59.3920   26.0390   46.3190 C   0  0  0  0  0  0  0  0  0  0  0  0
   58.5340   25.6120   45.3060 C   0  0  0  0  0  0  0  0  0  0  0  0
   57.7610   26.5520   44.6290 C   0  0  0  0  0  0  0  0  0  0  0  0
   57.8540   27.8670   44.9570 N   0  0  0  0  0  0  0  0  0  0  0  0
   58.6860   28.3330   45.9320 C   0  0  0  0  0  0  0  0  0  0  0  0
   58.4860   33.2680   44.7680 C   0  0  0  0  0  0  0  0  0  0  0  0
   59.4400   34.4040   45.1480 C   0  0  0  0  0  0  0  0  0  0  0  0
   59.1740   34.9500   46.5590 C   0  0  0  0  0  0  0  0  0  0  0  0
   58.5540   33.9220   47.5220 C   0  0  0  0  0  0  0  0  0  0  0  0
   63.7797   34.0669   47.9136 H   0  0  0  0  0  0  0  0  0  0  0  0
   64.1177   33.2200   46.3660 H   0  0  0  0  0  0  0  0  0  0  0  0
   63.1736   34.7482   46.3660 H   0  0  0  0  0  0  0  0  0  0  0  0
   61.2442   33.6251   46.7039 H   0  0  0  0  0  0  0  0  0  0  0  0
   62.1818   32.0898   46.4949 H   0  0  0  0  0  0  0  0  0  0  0  0
   62.7364   31.4893   50.0033 H   0  0  0  0  0  0  0  0  0  0  0  0
   62.2896   30.5966   48.5099 H   0  0  0  0  0  0  0  0  0  0  0  0
   63.7142   31.6907   48.5099 H   0  0  0  0  0  0  0  0  0  0  0  0
   63.0117   34.3014   49.1389 H   0  0  0  0  0  0  0  0  0  0  0  0
   61.2259   34.5477   49.2289 H   0  0  0  0  0  0  0  0  0  0  0  0
   62.7697   32.5676   50.9784 H   0  0  0  0  0  0  0  0  0  0  0  0
   62.3443   34.2634   51.4671 H   0  0  0  0  0  0  0  0  0  0  0  0
   60.6176   33.6000   53.2432 H   0  0  0  0  0  0  0  0  0  0  0  0
   60.5034   34.8816   51.9780 H   0  0  0  0  0  0  0  0  0  0  0  0
   58.3080   34.3075   53.1223 H   0  0  0  0  0  0  0  0  0  0  0  0
   58.3037   34.1528   51.3256 H   0  0  0  0  0  0  0  0  0  0  0  0
   56.7001   31.4358   51.5030 H   0  0  0  0  0  0  0  0  0  0  0  0
   57.3323   32.8754   50.6289 H   0  0  0  0  0  0  0  0  0  0  0  0
   59.1161   30.4564   51.0316 H   0  0  0  0  0  0  0  0  0  0  0  0
   57.8342   30.4738   49.7228 H   0  0  0  0  0  0  0  0  0  0  0  0
   60.4030   31.5540   49.6740 H   0  0  0  0  0  0  0  0  0  0  0  0
   59.3940   32.8290   49.6240 H   0  0  0  0  0  0  0  0  0  0  0  0
   56.7328   30.0323   44.3372 H   0  0  0  0  0  0  0  0  0  0  0  0
   57.5663   31.4244   43.5666 H   0  0  0  0  0  0  0  0  0  0  0  0
   58.3390   29.8029   43.5666 H   0  0  0  0  0  0  0  0  0  0  0  0
   60.5347   29.4411   49.1718 H   0  0  0  0  0  0  0  0  0  0  0  0
   58.9138   28.6315   49.0496 H   0  0  0  0  0  0  0  0  0  0  0  0
   61.3267   28.2185   47.2357 H   0  0  0  0  0  0  0  0  0  0  0  0
   60.6052   27.0458   48.4005 H   0  0  0  0  0  0  0  0  0  0  0  0
   60.0183   25.3101   46.8542 H   0  0  0  0  0  0  0  0  0  0  0  0
   58.4686   24.5455   45.0448 H   0  0  0  0  0  0  0  0  0  0  0  0
   57.0765   26.2303   43.8303 H   0  0  0  0  0  0  0  0  0  0  0  0
   58.7572   32.8868   43.7724 H   0  0  0  0  0  0  0  0  0  0  0  0
   57.4575   33.6580   44.7608 H   0  0  0  0  0  0  0  0  0  0  0  0
   60.4724   34.0267   45.1048 H   0  0  0  0  0  0  0  0  0  0  0  0
   59.2794   35.2269   44.4360 H   0  0  0  0  0  0  0  0  0  0  0  0
   60.1300   35.2895   46.9843 H   0  0  0  0  0  0  0  0  0  0  0  0
   58.4441   35.7659   46.4519 H   0  0  0  0  0  0  0  0  0  0  0  0
   58.9719   34.0874   48.5260 H   0  0  0  0  0  0  0  0  0  0  0  0
   57.4640   34.0684   47.4983 H   0  0  0  0  0  0  0  0  0  0  0  0
  1  2  1  0
  2  3  1  0
  3  4  1  0
  3  5  1  0
  5  6  1  0
  6  7  1  0
  7  8  1  0
  8  9  1  0
  9 10  1  0
 10 11  1  0
 11 12  1  0
 12 13  1  0
 13 14  1  0
 14 15  2  0
 15 16  1  0
 16 17  2  0
 17 18  1  0
 17 19  1  0
 19 20  2  0
 20 21  1  0
 21 22  1  0
 22 23  1  0
 23 24  2  0
 24 25  1  0
 25 26  2  0
 26 27  1  0
 27 28  2  0
 16 29  1  0
 29 30  1  0
 30 31  1  0
 31 32  1  0
 20 14  1  0
 28 23  1  0
 32 15  1  0
 28 19  1  0
  1 33  1  0
  1 34  1  0
  1 35  1  0
  2 36  1  0
  2 37  1  0
  4 38  1  0
  4 39  1  0
  4 40  1  0
  5 41  1  0
  5 42  1  0
  6 43  1  0
  6 44  1  0
  8 45  1  0
  8 46  1  0
  9 47  1  0
  9 48  1  0
 11 49  1  0
 11 50  1  0
 12 51  1  0
 12 52  1  0
 13 53  1  0
 13 54  1  0
 18 55  1  0
 18 56  1  0
 18 57  1  0
 21 58  1  0
 21 59  1  0
 22 60  1  0
 22 61  1  0
 24 62  1  0
 25 63  1  0
 26 64  1  0
 29 65  1  0
 29 66  1  0
 30 67  1  0
 30 68  1  0
 31 69  1  0
 31 70  1  0
 32 71  1  0
 32 72  1  0
M  CHG  2  13   1  17   1
M  END
>  <UniqueID>  (1) 
1

>  <SMILES>  (1) 
CCN(C)CCOCCOCC[NH2+]c1c2c([n+](C)c3c1CCc1cccnc1-3)CCCC2

>  <Energy>  (1) 
112.83467263668389

>  <Genealogy>  (1) 
CCN(C)CCOCCOCC[NH2+]c1c2c([n+](C)c3c1CCc1cccnc1-3)CCCC2 (protonated)
CCN(C)CCOCCOCC[NH2+]c1c2c([n+](C)c3c1CCc1cccnc1-3)CCCC2 (3D coordinates assigned)
CCN(C)CCOCCOCC[NH2+]c1c2c([n+](C)c3c1CCc1cccnc1-3)CCCC2 (nonaromatic ring conformer: 112.83467263668389 kcal/mol)

>  <smiles>  (1) 
CCN(C)CCOCCOCCNc1c2c([n+](C)c3c1CCc1cccnc1-3)CCCC2

>  <score_type>  (1) 
oracle

>  <origin>  (1) 
adg

>  <m_score__min__energy>  (1) 
-3.8700000000000001

>  <m_primary>  (1) 
energy

$$$$
1:0
     RDKit          3D

 34 35  0  0  0  0  0  0  0  0999 V2000
   64.2070   32.7050   48.9470 C   0  0  0  0  0  0  0  0  0  0  0  0
   63.3980   33.8480   48.3370 C   0  0  0  0  0  0  0  0  0  0  0  0
   63.1880   33.6950   46.8210 C   0  0  0  0  0  0  0  0  0  0  0  0
   61.7260   33.4630   46.3880 C   0  0  0  0  0  0  0  0  0  0  0  0
   60.6860   34.2300   47.2160 C   0  0  0  0  0  0  0  0  0  0  0  0
   59.6590   35.3640   46.2100 S   0  0  0  0  0  0  0  0  0  0  0  0
   58.7890   34.0600   45.3330 C   0  0  0  0  0  0  0  0  0  0  0  0
   58.9310   33.8470   43.9990 N   0  0  0  0  0  0  0  0  0  0  0  0
   58.1410   32.7880   43.7520 C   0  0  0  0  0  0  0  0  0  0  0  0
   57.9180   32.1210   42.5520 C   0  0  0  0  0  0  0  0  0  0  0  0
   57.0420   31.0200   42.5870 C   0  0  0  0  0  0  0  0  0  0  0  0
   56.4380   30.6380   43.8090 C   0  0  0  0  0  0  0  0  0  0  0  0
   56.6950   31.3310   44.9600 N   0  0  0  0  0  0  0  0  0  0  0  0
   57.5410   32.3900   44.9050 C   0  0  0  0  0  0  0  0  0  0  0  0
   57.9200   33.1880   45.9150 N   0  0  0  0  0  0  0  0  0  0  0  0
   57.5340   33.0850   47.3200 C   0  0  0  0  0  0  0  0  0  0  0  0
   64.1619   32.7687   50.0442 H   0  0  0  0  0  0  0  0  0  0  0  0
   63.7878   31.7427   48.6180 H   0  0  0  0  0  0  0  0  0  0  0  0
   65.2539   32.7805   48.6180 H   0  0  0  0  0  0  0  0  0  0  0  0
   62.4130   33.8797   48.8257 H   0  0  0  0  0  0  0  0  0  0  0  0
   63.9670   34.7756   48.4979 H   0  0  0  0  0  0  0  0  0  0  0  0
   63.5477   34.6123   46.3319 H   0  0  0  0  0  0  0  0  0  0  0  0
   63.7449   32.7948   46.5217 H   0  0  0  0  0  0  0  0  0  0  0  0
   61.6256   33.7739   45.3376 H   0  0  0  0  0  0  0  0  0  0  0  0
   61.5207   32.3934   46.5424 H   0  0  0  0  0  0  0  0  0  0  0  0
   60.0241   33.5018   47.7076 H   0  0  0  0  0  0  0  0  0  0  0  0
   61.2358   34.8449   47.9438 H   0  0  0  0  0  0  0  0  0  0  0  0
   59.5310   34.3730   43.3260 H   0  0  0  0  0  0  0  0  0  0  0  0
   58.4042   32.4395   41.6181 H   0  0  0  0  0  0  0  0  0  0  0  0
   56.8271   30.4574   41.6665 H   0  0  0  0  0  0  0  0  0  0  0  0
   55.7555   29.7757   43.8332 H   0  0  0  0  0  0  0  0  0  0  0  0
   58.4009   33.3163   47.9563 H   0  0  0  0  0  0  0  0  0  0  0  0
   56.7236   33.7983   47.5309 H   0  0  0  0  0  0  0  0  0  0  0  0
   57.1868   32.0628   47.5309 H   0  0  0  0  0  0  0  0  0  0  0  0
  1  2  1  0
  2  3  1  0
  3  4  1  0
  4  5  1  0
  5  6  1  0
  6  7  1  0
  7  8  2  0
  8  9  1  0
  9 10  2  0
 10 11  1  0
 11 12  2  0
 12 13  1  0
 13 14  2  0
 14 15  1  0
 15 16  1  0
 15  7  1  0
 14  9  1  0
  1 17  1  0
  1 18  1  0
  1 19  1  0
  2 20  1  0
  2 21  1  0
  3 22  1  0
  3 23  1  0
  4 24  1  0
  4 25  1  0
  5 26  1  0
  5 27  1  0
  8 28  1  0
 10 29  1  0
 11 30  1  0
 12 31  1  0
 16 32  1  0
 16 33  1  0
 16 34  1  0
M  CHG  1   8   1
M  END
>  <UniqueID>  (2) 
2

>  <SMILES>  (2) 
CCCCCSc1[nH+]c2cccnc2n1C

>  <Energy>  (2) 
64.57187342895824

>  <Genealogy>  (2) 
CCCCCSc1[nH+]c2cccnc2n1C (protonated)
CCCCCSc1[nH+]c2cccnc2n1C (3D coordinates assigned)
CCCCCSc1[nH+]c2cccnc2n1C (optimized conformer: 64.57187342895824 kcal/mol)

>  <smiles>  (2) 
CCCCCSc1nc2cccnc2n1C

>  <score_type>  (2) 
oracle

>  <origin>  (2) 
adg

>  <m_score__min__energy>  (2) 
-4.8300000000000001

>  <m_primary>  (2) 
energy

$$$$
2:0
     RDKit          3D

 54 56  0  0  0  0  0  0  0  0999 V2000
   59.5640   28.4610   47.6320 C   0  0  0  0  0  0  0  0  0  0  0  0
   59.9820   27.1030   47.0660 C   0  0  0  0  0  0  0  0  0  0  0  0
   59.5400   26.9340   45.6630 N   0  0  0  0  0  0  0  0  0  0  0  0
   58.3750   26.0300   45.4870 C   0  0  0  0  0  0  0  0  0  0  0  0
   57.4220   25.9710   46.6910 C   0  0  0  0  0  0  0  0  0  0  0  0
   59.3640   28.2350   44.9730 C   0  0  0  0  0  0  0  0  0  0  0  0
   58.1390   28.2010   44.0510 C   0  0  0  0  0  0  0  0  0  0  0  0
   56.6710   28.9740   44.8250 S   0  0  0  0  0  0  0  0  0  0  0  0
   57.3950   30.6080   44.9520 C   0  0  0  0  0  0  0  0  0  0  0  0
   57.0180   31.6190   44.0690 C   0  0  0  0  0  0  0  0  0  0  0  0
   57.5970   32.8800   44.1890 C   0  0  0  0  0  0  0  0  0  0  0  0
   58.5420   33.1310   45.1900 C   0  0  0  0  0  0  0  0  0  0  0  0
   59.2770   34.7310   45.2390 Cl  0  0  0  0  0  0  0  0  0  0  0  0
   58.8900   32.0880   46.0830 C   0  0  0  0  0  0  0  0  0  0  0  0
   59.8700   32.2600   47.1850 C   0  0  0  0  0  0  0  0  0  0  0  0
   59.7190   33.1890   48.0210 O   0  0  0  0  0  0  0  0  0  0  0  0
   60.9660   31.3360   47.3200 N   0  0  0  0  0  0  0  0  0  0  0  0
   62.0150   31.4420   48.3010 C   0  0  0  0  0  0  0  0  0  0  0  0
   62.1090   30.6000   49.7630 S   0  0  0  0  0  0  0  0  0  0  0  0
   63.5300   31.3290   50.2860 C   0  0  0  0  0  0  0  0  0  0  0  0
   63.9750   32.2190   49.3140 C   0  0  0  0  0  0  0  0  0  0  0  0
   63.1100   32.3040   48.2080 C   0  0  0  0  0  0  0  0  0  0  0  0
   63.3320   33.1930   47.0940 C   0  0  0  0  0  0  0  0  0  0  0  0
   63.5110   33.9070   46.2010 N   0  0  0  0  0  0  0  0  0  0  0  0
   65.2040   33.0670   49.5170 C   0  0  0  0  0  0  0  0  0  0  0  0
   66.1200   32.4810   50.6070 C   0  0  0  0  0  0  0  0  0  0  0  0
   65.3180   32.0830   51.8590 C   0  0  0  0  0  0  0  0  0  0  0  0
   64.2850   30.9910   51.5340 C   0  0  0  0  0  0  0  0  0  0  0  0
   58.3030   30.8680   45.9290 N   0  0  0  0  0  0  0  0  0  0  0  0
   59.5767   28.4198   48.7312 H   0  0  0  0  0  0  0  0  0  0  0  0
   60.2657   29.2342   47.2860 H   0  0  0  0  0  0  0  0  0  0  0  0
   58.5489   28.7057   47.2860 H   0  0  0  0  0  0  0  0  0  0  0  0
   61.0783   27.0223   47.1064 H   0  0  0  0  0  0  0  0  0  0  0  0
   59.5059   26.3181   47.6720 H   0  0  0  0  0  0  0  0  0  0  0  0
   57.8026   26.3746   44.6132 H   0  0  0  0  0  0  0  0  0  0  0  0
   58.7836   25.0162   45.3635 H   0  0  0  0  0  0  0  0  0  0  0  0
   58.0056   26.0071   47.6227 H   0  0  0  0  0  0  0  0  0  0  0  0
   56.7336   26.8282   46.6561 H   0  0  0  0  0  0  0  0  0  0  0  0
   56.8446   25.0354   46.6561 H   0  0  0  0  0  0  0  0  0  0  0  0
   59.2277   29.0264   45.7247 H   0  0  0  0  0  0  0  0  0  0  0  0
   60.2581   28.4351   44.3642 H   0  0  0  0  0  0  0  0  0  0  0  0
   58.3778   28.7431   43.1241 H   0  0  0  0  0  0  0  0  0  0  0  0
   57.8983   27.1472   43.8471 H   0  0  0  0  0  0  0  0  0  0  0  0
   56.2710   31.4227   43.2857 H   0  0  0  0  0  0  0  0  0  0  0  0
   57.3100   33.6825   43.4935 H   0  0  0  0  0  0  0  0  0  0  0  0
   61.0180   30.5350   46.6520 H   0  0  0  0  0  0  0  0  0  0  0  0
   65.7625   33.1192   48.5708 H   0  0  0  0  0  0  0  0  0  0  0  0
   64.8829   34.0689   49.8379 H   0  0  0  0  0  0  0  0  0  0  0  0
   66.6265   31.5898   50.2080 H   0  0  0  0  0  0  0  0  0  0  0  0
   66.8523   33.2498   50.8944 H   0  0  0  0  0  0  0  0  0  0  0  0
   66.0117   31.7043   52.6241 H   0  0  0  0  0  0  0  0  0  0  0  0
   64.7824   32.9708   52.2263 H   0  0  0  0  0  0  0  0  0  0  0  0
   64.8057   30.0325   51.3922 H   0  0  0  0  0  0  0  0  0  0  0  0
   63.5726   30.9194   52.3690 H   0  0  0  0  0  0  0  0  0  0  0  0
  1  2  1  0
  2  3  1  0
  3  4  1  0
  4  5  1  0
  3  6  1  0
  6  7  1  0
  7  8  1  0
  8  9  1  0
  9 10  2  0
 10 11  1  0
 11 12  2  0
 12 13  1  0
 12 14  1  0
 14 15  1  0
 15 16  2  0
 15 17  1  0
 17 18  1  0
 18 19  1  0
 19 20  1  0
 20 21  2  0
 21 22  1  0
 22 23  1  0
 23 24  3  0
 21 25  1  0
 25 26  1  0
 26 27  1  0
 27 28  1  0
 14 29  2  0
 29  9  1  0
 22 18  2  0
 28 20  1  0
  1 30  1  0
  1 31  1  0
  1 32  1  0
  2 33  1  0
  2 34  1  0
  4 35  1  0
  4 36  1  0
  5 37  1  0
  5 38  1  0
  5 39  1  0
  6 40  1  0
  6 41  1  0
  7 42  1  0
  7 43  1  0
 10 44  1  0
 11 45  1  0
 17 46  1  0
 25 47  1  0
 25 48  1  0
 26 49  1  0
 26 50  1  0
 27 51  1  0
 27 52  1  0
 28 53  1  0
 28 54  1  0
M  END
>  <UniqueID>  (3) 
3

>  <SMILES>  (3) 
CCN(CC)CCSc1ccc(Cl)c(C(=O)Nc2sc3c(c2C#N)CCCC3)n1

>  <Energy>  (3) 
82.83544397173581

>  <Genealogy>  (3) 
CCN(CC)CCSc1ccc(Cl)c(C(=O)Nc2sc3c(c2C#N)CCCC3)n1 (3D coordinates assigned)
CCN(CC)CCSc1ccc(Cl)c(C(=O)Nc2sc3c(c2C#N)CCCC3)n1 (nonaromatic ring conformer: 82.83544397173581 kcal/mol)

>  <smiles>  (3) 
CCN(CC)CCSc1ccc(Cl)c(C(=O)Nc2sc3c(c2C#N)CCCC3)n1

>  <score_type>  (3) 
oracle

>  <origin>  (3) 
adg

>  <m_score__min__energy>  (3) 
-8.5700000000000003

>  <m_primary>  (3) 
energy

$$$$
3:0
     RDKit          3D

 51 53  0  0  0  0  0  0  0  0999 V2000
   63.1870   33.8310   46.3900 C   0  0  0  0  0  0  0  0  0  0  0  0
   63.6310   32.5800   47.1500 C   0  0  0  0  0  0  0  0  0  0  0  0
   62.9040   32.4100   48.4240 N   0  0  0  0  0  0  0  0  0  0  0  0
   62.4580   33.6870   49.0160 C   0  0  0  0  0  0  0  0  0  0  0  0
   60.9280   33.8360   49.0000 C   0  0  0  0  0  0  0  0  0  0  0  0
   60.3240   32.6440   48.3950 N   0  0  0  0  0  0  0  0  0  0  0  0
   58.9020   32.8730   48.1160 C   0  0  0  0  0  0  0  0  0  0  0  0
   58.6580   32.7910   46.6300 C   0  0  0  0  0  0  0  0  0  0  0  0
   58.0530   31.6320   46.1010 C   0  0  0  0  0  0  0  0  0  0  0  0
   57.7930   31.5710   44.7310 C   0  0  0  0  0  0  0  0  0  0  0  0
   58.0900   32.6160   43.9030 C   0  0  0  0  0  0  0  0  0  0  0  0
   58.6690   33.7840   44.3910 C   0  0  0  0  0  0  0  0  0  0  0  0
   58.9520   33.8800   45.7640 C   0  0  0  0  0  0  0  0  0  0  0  0
   59.6490   35.3810   46.3650 Cl  0  0  0  0  0  0  0  0  0  0  0  0
   57.6730   32.3140   42.5070 C   0  0  0  0  0  0  0  0  0  0  0  0
   57.0260   30.9110   42.6210 C   0  0  0  0  0  0  0  0  0  0  0  0
   57.1760   30.5110   44.0180 N   0  0  0  0  0  0  0  0  0  0  0  0
   56.6800   29.2550   44.5810 C   0  0  0  0  0  0  0  0  0  0  0  0
   57.8090   28.4760   45.1980 C   0  0  0  0  0  0  0  0  0  0  0  0
   59.1210   28.6510   44.7290 C   0  0  0  0  0  0  0  0  0  0  0  0
   60.1740   27.9260   45.2930 C   0  0  0  0  0  0  0  0  0  0  0  0
   59.9260   27.0280   46.3290 C   0  0  0  0  0  0  0  0  0  0  0  0
   58.6260   26.8540   46.8070 C   0  0  0  0  0  0  0  0  0  0  0  0
   57.5680   27.5700   46.2420 C   0  0  0  0  0  0  0  0  0  0  0  0
   62.9082   34.6165   47.1078 H   0  0  0  0  0  0  0  0  0  0  0  0
   64.0132   34.1885   45.7578 H   0  0  0  0  0  0  0  0  0  0  0  0
   62.3203   33.5877   45.7578 H   0  0  0  0  0  0  0  0  0  0  0  0
   63.4477   31.6986   46.5179 H   0  0  0  0  0  0  0  0  0  0  0  0
   64.6999   32.6910   47.3850 H   0  0  0  0  0  0  0  0  0  0  0  0
   63.5190   31.9160   49.1110 H   0  0  0  0  0  0  0  0  0  0  0  0
   62.0780   31.7890   48.2650 H   0  0  0  0  0  0  0  0  0  0  0  0
   62.8069   33.7345   50.0581 H   0  0  0  0  0  0  0  0  0  0  0  0
   62.8814   34.5033   48.4123 H   0  0  0  0  0  0  0  0  0  0  0  0
   60.5604   33.9498   50.0305 H   0  0  0  0  0  0  0  0  0  0  0  0
   60.6535   34.7236   48.4111 H   0  0  0  0  0  0  0  0  0  0  0  0
   60.3930   31.8640   49.0890 H   0  0  0  0  0  0  0  0  0  0  0  0
   58.3006   32.1077   48.6284 H   0  0  0  0  0  0  0  0  0  0  0  0
   58.6148   33.8710   48.4787 H   0  0  0  0  0  0  0  0  0  0  0  0
   57.7902   30.7895   46.7576 H   0  0  0  0  0  0  0  0  0  0  0  0
   58.9012   34.6183   43.7128 H   0  0  0  0  0  0  0  0  0  0  0  0
   56.9451   33.0548   42.1447 H   0  0  0  0  0  0  0  0  0  0  0  0
   58.5092   32.3445   41.7929 H   0  0  0  0  0  0  0  0  0  0  0  0
   55.9612   30.9579   42.3490 H   0  0  0  0  0  0  0  0  0  0  0  0
   57.5045   30.1901   41.9418 H   0  0  0  0  0  0  0  0  0  0  0  0
   55.9275   29.4756   45.3525 H   0  0  0  0  0  0  0  0  0  0  0  0
   56.2306   28.6554   43.7757 H   0  0  0  0  0  0  0  0  0  0  0  0
   59.3207   29.3621   43.9139 H   0  0  0  0  0  0  0  0  0  0  0  0
   61.1991   28.0643   44.9189 H   0  0  0  0  0  0  0  0  0  0  0  0
   60.7552   26.4557   46.7706 H   0  0  0  0  0  0  0  0  0  0  0  0
   58.4342   26.1510   47.6310 H   0  0  0  0  0  0  0  0  0  0  0  0
   56.5441   27.4233   46.6162 H   0  0  0  0  0  0  0  0  0  0  0  0
  1  2  1  0
  2  3  1  0
  3  4  1  0
  4  5  1  0
  5  6  1  0
  6  7  1  0
  7  8  1  0
  8  9  2  0
  9 10  1  0
 10 11  2  0
 11 12  1  0
 12 13  2  0
 13 14  1  0
 11 15  1  0
 15 16  1  0
 16 17  1  0
 17 18  1  0
 18 19  1  0
 19 20  2  0
 20 21  1  0
 21 22  2  0
 22 23  1  0
 23 24  2  0
 13  8  1  0
 24 19  1  0
 17 10  1  0
  1 25  1  0
  1 26  1  0
  1 27  1  0
  2 28  1  0
  2 29  1  0
  3 30  1  0
  3 31  1  0
  4 32  1  0
  4 33  1  0
  5 34  1  0
  5 35  1  0
  6 36  1  0
  7 37  1  0
  7 38  1  0
  9 39  1  0
 12 40  1  0
 15 41  1  0
 15 42  1  0
 16 43  1  0
 16 44  1  0
 18 45  1  0
 18 46  1  0
 20 47  1  0
 21 48  1  0
 22 49  1  0
 23 50  1  0
 24 51  1  0
M  CHG  1   3   1
M  END
>  <UniqueID>  (4) 
4

>  <SMILES>  (4) 
CC[NH2+]CCNCc1cc2c(cc1Cl)CCN2Cc1ccccc1

>  <Energy>  (4) 
60.96727315511919

>  <Genealogy>  (4) 
CC[NH2+]CCNCc1cc2c(cc1Cl)CCN2Cc1ccccc1 (protonated)
CC[NH2+]CCNCc1cc2c(cc1Cl)CCN2Cc1ccccc1 (3D coordinates assigned)
CC[NH2+]CCNCc1cc2c(cc1Cl)CCN2Cc1ccccc1 (nonaromatic ring conformer: 60.96727315511919 kcal/mol)

>  <smiles>  (4) 
CCNCCNCc1cc2c(cc1Cl)CCN2Cc1ccccc1

>  <score_type>  (4) 
oracle

>  <origin>  (4) 
adg

>  <m_score__min__energy>  (4) 
-6.4800000000000004

>  <m_primary>  (4) 
energy

$$$$
4:0
     RDKit          3D

 73 75  0  0  0  0  0  0  0  0999 V2000
   60.3830   26.6560   46.9160 C   0  0  0  0  0  0  0  0  0  0  0  0
   59.7970   27.3540   48.1430 C   0  0  0  0  0  0  0  0  0  0  0  0
   60.7660   28.2930   48.7570 N   0  0  0  0  0  0  0  0  0  0  0  0
   60.7840   28.2540   50.2420 C   0  0  0  0  0  0  0  0  0  0  0  0
   61.5250   29.4300   50.8940 C   0  0  0  0  0  0  0  0  0  0  0  0
   60.5950   29.6690   48.2350 C   0  0  0  0  0  0  0  0  0  0  0  0
   59.2580   29.7970   47.5070 C   0  0  0  0  0  0  0  0  0  0  0  0
   59.4550   30.5260   46.3120 O   0  0  0  0  0  0  0  0  0  0  0  0
   59.4000   29.6720   45.1850 C   0  0  0  0  0  0  0  0  0  0  0  0
   58.0480   28.9670   45.1110 C   0  0  0  0  0  0  0  0  0  0  0  0
   57.0340   29.8470   45.5470 O   0  0  0  0  0  0  0  0  0  0  0  0
   56.5610   30.5960   44.4480 C   0  0  0  0  0  0  0  0  0  0  0  0
   57.2450   31.9570   44.4220 C   0  0  0  0  0  0  0  0  0  0  0  0
   57.1260   32.5650   45.6950 O   0  0  0  0  0  0  0  0  0  0  0  0
   57.7610   33.8290   45.7320 C   0  0  0  0  0  0  0  0  0  0  0  0
   58.4330   34.1110   47.0810 C   0  0  0  0  0  0  0  0  0  0  0  0
   58.6940   32.8660   47.8050 N   0  0  0  0  0  0  0  0  0  0  0  0
   59.5740   32.8280   48.9430 C   0  0  0  0  0  0  0  0  0  0  0  0
   59.0910   32.4290   50.2030 C   0  0  0  0  0  0  0  0  0  0  0  0
   57.7750   31.9410   50.3530 C   0  0  0  0  0  0  0  0  0  0  0  0
   57.3050   31.5250   51.5960 C   0  0  0  0  0  0  0  0  0  0  0  0
   58.1430   31.5610   52.7030 C   0  0  0  0  0  0  0  0  0  0  0  0
   59.4550   32.0160   52.5770 C   0  0  0  0  0  0  0  0  0  0  0  0
   59.9520   32.4840   51.3330 C   0  0  0  0  0  0  0  0  0  0  0  0
   61.2420   32.9610   51.2000 N   0  0  0  0  0  0  0  0  0  0  0  0
   62.0390   33.2820   52.4030 C   0  0  0  0  0  0  0  0  0  0  0  0
   61.7770   33.1580   49.9400 C   0  0  0  0  0  0  0  0  0  0  0  0
   63.1670   33.3610   49.7460 C   0  0  0  0  0  0  0  0  0  0  0  0
   63.6900   33.6070   48.4780 C   0  0  0  0  0  0  0  0  0  0  0  0
   62.8490   33.6690   47.3650 C   0  0  0  0  0  0  0  0  0  0  0  0
   63.4280   33.8720   45.9970 C   0  0  0  0  0  0  0  0  0  0  0  0
   61.4820   33.4220   47.5230 C   0  0  0  0  0  0  0  0  0  0  0  0
   60.9380   33.1380   48.7950 C   0  0  0  0  0  0  0  0  0  0  0  0
   61.0589   25.8509   47.2400 H   0  0  0  0  0  0  0  0  0  0  0  0
   59.5680   26.2299   46.3125 H   0  0  0  0  0  0  0  0  0  0  0  0
   60.9438   27.3849   46.3125 H   0  0  0  0  0  0  0  0  0  0  0  0
   58.9008   27.9150   47.8395 H   0  0  0  0  0  0  0  0  0  0  0  0
   59.5477   26.5841   48.8880 H   0  0  0  0  0  0  0  0  0  0  0  0
   59.7438   28.2608   50.5998 H   0  0  0  0  0  0  0  0  0  0  0  0
   61.3272   27.3411   50.5274 H   0  0  0  0  0  0  0  0  0  0  0  0
   61.4672   29.3382   51.9886 H   0  0  0  0  0  0  0  0  0  0  0  0
   62.5792   29.4184   50.5803 H   0  0  0  0  0  0  0  0  0  0  0  0
   61.0595   30.3760   50.5803 H   0  0  0  0  0  0  0  0  0  0  0  0
   60.6216   30.3810   49.0730 H   0  0  0  0  0  0  0  0  0  0  0  0
   61.4096   29.8879   47.5289 H   0  0  0  0  0  0  0  0  0  0  0  0
   58.8699   28.7957   47.2689 H   0  0  0  0  0  0  0  0  0  0  0  0
   58.5335   30.3208   48.1478 H   0  0  0  0  0  0  0  0  0  0  0  0
   59.5475   30.2679   44.2722 H   0  0  0  0  0  0  0  0  0  0  0  0
   60.1913   28.9133   45.2759 H   0  0  0  0  0  0  0  0  0  0  0  0
   57.8489   28.6639   44.0725 H   0  0  0  0  0  0  0  0  0  0  0  0
   58.0631   28.0764   45.7564 H   0  0  0  0  0  0  0  0  0  0  0  0
   56.7835   30.0570   43.5152 H   0  0  0  0  0  0  0  0  0  0  0  0
   55.4741   30.7362   44.5433 H   0  0  0  0  0  0  0  0  0  0  0  0
   58.3090   31.8288   44.1741 H   0  0  0  0  0  0  0  0  0  0  0  0
   56.7680   32.5946   43.6631 H   0  0  0  0  0  0  0  0  0  0  0  0
   58.5268   33.8620   44.9430 H   0  0  0  0  0  0  0  0  0  0  0  0
   56.9873   34.5956   45.5781 H   0  0  0  0  0  0  0  0  0  0  0  0
   59.3856   34.6327   46.9067 H   0  0  0  0  0  0  0  0  0  0  0  0
   57.7584   34.7346   47.6861 H   0  0  0  0  0  0  0  0  0  0  0  0
   58.3300   31.9720   47.4120 H   0  0  0  0  0  0  0  0  0  0  0  0
   57.1122   31.8887   49.4767 H   0  0  0  0  0  0  0  0  0  0  0  0
   56.2699   31.1678   51.7012 H   0  0  0  0  0  0  0  0  0  0  0  0
   57.7701   31.2292   53.6832 H   0  0  0  0  0  0  0  0  0  0  0  0
   60.1157   32.0121   53.4565 H   0  0  0  0  0  0  0  0  0  0  0  0
   61.4538   33.0463   53.3041 H   0  0  0  0  0  0  0  0  0  0  0  0
   62.9636   32.6862   52.4000 H   0  0  0  0  0  0  0  0  0  0  0  0
   62.2925   34.3524   52.4000 H   0  0  0  0  0  0  0  0  0  0  0  0
   63.8444   33.3236   50.6118 H   0  0  0  0  0  0  0  0  0  0  0  0
   64.7730   33.7534   48.3530 H   0  0  0  0  0  0  0  0  0  0  0  0
   64.4626   34.2347   46.0869 H   0  0  0  0  0  0  0  0  0  0  0  0
   63.4203   32.9175   45.4502 H   0  0  0  0  0  0  0  0  0  0  0  0
   62.8260   34.6127   45.4502 H   0  0  0  0  0  0  0  0  0  0  0  0
   60.8209   33.4492   46.6443 H   0  0  0  0  0  0  0  0  0  0  0  0
  1  2  1  0
  2  3  1  0
  3  4  1  0
  4  5  1  0
  3  6  1  0
  6  7  1  0
  7  8  1  0
  8  9  1  0
  9 10  1  0
 10 11  1  0
 11 12  1  0
 12 13  1  0
 13 14  1  0
 14 15  1  0
 15 16  1  0
 16 17  1  0
 17 18  1  0
 18 19  2  0
 19 20  1  0
 20 21  2  0
 21 22  1  0
 22 23  2  0
 23 24  1  0
 24 25  2  0
 25 26  1  0
 25 27  1  0
 27 28  2  0
 28 29  1  0
 29 30  2  0
 30 31  1  0
 30 32  1  0
 32 33  2  0
 33 18  1  0
 24 19  1  0
 33 27  1  0
  1 34  1  0
  1 35  1  0
  1 36  1  0
  2 37  1  0
  2 38  1  0
  4 39  1  0
  4 40  1  0
  5 41  1  0
  5 42  1  0
  5 43  1  0
  6 44  1  0
  6 45  1  0
  7 46  1  0
  7 47  1  0
  9 48  1  0
  9 49  1  0
 10 50  1  0
 10 51  1  0
 12 52  1  0
 12 53  1  0
 13 54  1  0
 13 55  1  0
 15 56  1  0
 15 57  1  0
 16 58  1  0
 16 59  1  0
 17 60  1  0
 20 61  1  0
 21 62  1  0
 22 63  1  0
 23 64  1  0
 26 65  1  0
 26 66  1  0
 26 67  1  0
 28 68  1  0
 29 69  1  0
 31 70  1  0
 31 71  1  0
 31 72  1  0
 32 73  1  0
M  CHG  1  25   1
M  END
>  <UniqueID>  (5) 
5

>  <SMILES>  (5) 
CCN(CC)CCOCCOCCOCCNc1c2ccccc2[n+](C)c2ccc(C)cc12

>  <Energy>  (5) 
94.68941481741537

>  <Genealogy>  (5) 
CCN(CC)CCOCCOCCOCCNc1c2ccccc2[n+](C)c2ccc(C)cc12 (3D coordinates assigned)
CCN(CC)CCOCCOCCOCCNc1c2ccccc2[n+](C)c2ccc(C)cc12 (optimized conformer: 94.68941481741537 kcal/mol)

>  <smiles>  (5) 
CCN(CC)CCOCCOCCOCCNc1c2ccccc2[n+](C)c2ccc(C)cc12

>  <score_type>  (5) 
oracle

>  <origin>  (5) 
adg

>  <m_score__min__energy>  (5) 
-5.8300000000000001

>  <m_primary>  (5) 
energy

$$$$
5:0
     RDKit          3D

 59 61  0  0  0  0  0  0  0  0999 V2000
   59.2350   34.6430   45.2540 C   0  0  0  0  0  0  0  0  0  0  0  0
   58.1840   34.2020   46.2670 C   0  0  0  0  0  0  0  0  0  0  0  0
   57.2940   33.1930   45.6720 N   0  0  0  0  0  0  0  0  0  0  0  0
   57.8370   32.6200   44.4270 C   0  0  0  0  0  0  0  0  0  0  0  0
   57.7930   31.0830   44.4270 C   0  0  0  0  0  0  0  0  0  0  0  0
   57.3470   30.5970   45.7390 N   0  0  0  0  0  0  0  0  0  0  0  0
   58.2440   29.5410   46.2210 C   0  0  0  0  0  0  0  0  0  0  0  0
   59.5200   30.1580   46.7920 C   0  0  0  0  0  0  0  0  0  0  0  0
   59.2440   31.4860   47.3410 N   0  0  0  0  0  0  0  0  0  0  0  0
   60.0020   32.0100   48.4470 C   0  0  0  0  0  0  0  0  0  0  0  0
   61.2240   32.6670   48.2180 C   0  0  0  0  0  0  0  0  0  0  0  0
   61.7080   32.8610   46.9060 C   0  0  0  0  0  0  0  0  0  0  0  0
   62.9500   33.4520   46.6860 C   0  0  0  0  0  0  0  0  0  0  0  0
   63.7300   33.8550   47.7620 C   0  0  0  0  0  0  0  0  0  0  0  0
   63.2570   33.7070   49.0650 C   0  0  0  0  0  0  0  0  0  0  0  0
   61.9750   33.1530   49.3220 C   0  0  0  0  0  0  0  0  0  0  0  0
   61.4600   33.0720   50.6020 N   0  0  0  0  0  0  0  0  0  0  0  0
   62.0940   33.8350   51.7020 C   0  0  0  0  0  0  0  0  0  0  0  0
   60.3300   32.3120   50.8480 C   0  0  0  0  0  0  0  0  0  0  0  0
   59.9230   31.9890   52.1670 C   0  0  0  0  0  0  0  0  0  0  0  0
   58.7450   31.2630   52.4160 C   0  0  0  0  0  0  0  0  0  0  0  0
   58.3250   30.9460   53.7180 O   0  0  0  0  0  0  0  0  0  0  0  0
   58.3890   29.6480   54.2990 C   0  0  0  0  0  0  0  0  0  0  0  0
   57.9590   30.8330   51.3470 C   0  0  0  0  0  0  0  0  0  0  0  0
   56.7850   30.1150   51.6300 O   0  0  0  0  0  0  0  0  0  0  0  0
   55.5840   30.6930   52.1310 C   0  0  0  0  0  0  0  0  0  0  0  0
   58.3650   31.1100   50.0320 C   0  0  0  0  0  0  0  0  0  0  0  0
   59.5560   31.8160   49.7690 C   0  0  0  0  0  0  0  0  0  0  0  0
   60.1230   35.0156   45.7856 H   0  0  0  0  0  0  0  0  0  0  0  0
   59.5176   33.7876   44.6228 H   0  0  0  0  0  0  0  0  0  0  0  0
   58.8226   35.4440   44.6228 H   0  0  0  0  0  0  0  0  0  0  0  0
   58.6855   33.7706   47.1459 H   0  0  0  0  0  0  0  0  0  0  0  0
   57.5859   35.0755   46.5657 H   0  0  0  0  0  0  0  0  0  0  0  0
   57.1260   32.4300   46.3690 H   0  0  0  0  0  0  0  0  0  0  0  0
   57.2441   32.9913   43.5781 H   0  0  0  0  0  0  0  0  0  0  0  0
   58.8900   32.9275   44.3451 H   0  0  0  0  0  0  0  0  0  0  0  0
   57.0923   30.7379   43.6525 H   0  0  0  0  0  0  0  0  0  0  0  0
   58.7995   30.6913   44.2181 H   0  0  0  0  0  0  0  0  0  0  0  0
   56.3950   30.1750   45.6150 H   0  0  0  0  0  0  0  0  0  0  0  0
   57.7361   28.9625   47.0067 H   0  0  0  0  0  0  0  0  0  0  0  0
   58.5071   28.8804   45.3817 H   0  0  0  0  0  0  0  0  0  0  0  0
   59.9100   29.5097   47.5905 H   0  0  0  0  0  0  0  0  0  0  0  0
   60.2619   30.2529   45.9854 H   0  0  0  0  0  0  0  0  0  0  0  0
   58.3290   31.9330   47.1090 H   0  0  0  0  0  0  0  0  0  0  0  0
   61.0977   32.5420   46.0482 H   0  0  0  0  0  0  0  0  0  0  0  0
   63.3136   33.5997   45.6584 H   0  0  0  0  0  0  0  0  0  0  0  0
   64.7238   34.2922   47.5857 H   0  0  0  0  0  0  0  0  0  0  0  0
   63.8876   34.0248   49.9084 H   0  0  0  0  0  0  0  0  0  0  0  0
   61.7587   33.4315   52.6689 H   0  0  0  0  0  0  0  0  0  0  0  0
   63.1878   33.7460   51.6270 H   0  0  0  0  0  0  0  0  0  0  0  0
   61.8063   34.8940   51.6270 H   0  0  0  0  0  0  0  0  0  0  0  0
   60.5433   32.3139   53.0154 H   0  0  0  0  0  0  0  0  0  0  0  0
   58.3846   29.7364   55.3954 H   0  0  0  0  0  0  0  0  0  0  0  0
   57.5189   29.0581   53.9753 H   0  0  0  0  0  0  0  0  0  0  0  0
   59.3130   29.1465   53.9753 H   0  0  0  0  0  0  0  0  0  0  0  0
   55.6035   30.6836   53.2308 H   0  0  0  0  0  0  0  0  0  0  0  0
   55.4998   31.7303   51.7746 H   0  0  0  0  0  0  0  0  0  0  0  0
   54.7208   30.1117   51.7746 H   0  0  0  0  0  0  0  0  0  0  0  0
   57.7422   30.7698   49.1916 H   0  0  0  0  0  0  0  0  0  0  0  0
  1  2  1  0
  2  3  1  0
  3  4  1  0
  4  5  1  0
  5  6  1  0
  6  7  1  0
  7  8  1  0
  8  9  1  0
  9 10  1  0
 10 11  2  0
 11 12  1  0
 12 13  2  0
 13 14  1  0
 14 15  2  0
 15 16  1  0
 16 17  2  0
 17 18  1  0
 17 19  1  0
 19 20  2  0
 20 21  1  0
 21 22  1  0
 22 23  1  0
 21 24  2  0
 24 25  1  0
 25 26  1  0
 24 27  1  0
 27 28  2  0
 28 10  1  0
 16 11  1  0
 28 19  1  0
  1 29  1  0
  1 30  1  0
  1 31  1  0
  2 32  1  0
  2 33  1  0
  3 34  1  0
  4 35  1  0
  4 36  1  0
  5 37  1  0
  5 38  1  0
  6 39  1  0
  7 40  1  0
  7 41  1  0
  8 42  1  0
  8 43  1  0
  9 44  1  0
 12 45  1  0
 13 46  1  0
 14 47  1  0
 15 48  1  0
 18 49  1  0
 18 50  1  0
 18 51  1  0
 20 52  1  0
 23 53  1  0
 23 54  1  0
 23 55  1  0
 26 56  1  0
 26 57  1  0
 26 58  1  0
 27 59  1  0
M  CHG  1  17   1
M  END
>  <UniqueID>  (6) 
6

>  <SMILES>  (6) 
CCNCCNCCNc1c2ccccc2[n+](C)c2cc(OC)c(OC)cc12

>  <Energy>  (6) 
78.46420891721179

>  <Genealogy>  (6) 
CCNCCNCCNc1c2ccccc2[n+](C)c2cc(OC)c(OC)cc12 (3D coordinates assigned)
CCNCCNCCNc1c2ccccc2[n+](C)c2cc(OC)c(OC)cc12 (optimized conformer: 78.46420891721179 kcal/mol)

>  <smiles>  (6) 
CCNCCNCCNc1c2ccccc2[n+](C)c2cc(OC)c(OC)cc12

>  <score_type>  (6) 
oracle

>  <origin>  (6) 
adg

>  <m_score__min__energy>  (6) 
-5.79

>  <m_primary>  (6) 
energy

$$$$
6:0
     RDKit          3D

 73 75  0  0  0  0  0  0  0  0999 V2000
   60.4100   26.6890   47.0110 C   0  0  0  0  0  0  0  0  0  0  0  0
   60.3510   27.3380   48.3980 C   0  0  0  0  0  0  0  0  0  0  0  0
   59.9230   28.7640   48.4090 N   0  0  0  0  0  0  0  0  0  0  0  0
   59.6950   29.2880   49.7880 C   0  0  0  0  0  0  0  0  0  0  0  0
   60.9570   29.4470   50.6550 C   0  0  0  0  0  0  0  0  0  0  0  0
   60.7380   29.6730   47.5580 C   0  0  0  0  0  0  0  0  0  0  0  0
   60.0940   29.9960   46.1990 C   0  0  0  0  0  0  0  0  0  0  0  0
   58.7500   29.5600   46.1930 O   0  0  0  0  0  0  0  0  0  0  0  0
   58.5390   28.6800   45.1090 C   0  0  0  0  0  0  0  0  0  0  0  0
   57.0340   28.4290   44.9600 C   0  0  0  0  0  0  0  0  0  0  0  0
   56.2380   29.6370   45.2380 N   0  0  0  0  0  0  0  0  0  0  0  0
   56.0630   30.4780   44.0430 C   0  0  0  0  0  0  0  0  0  0  0  0
   57.2760   31.4080   43.8730 C   0  0  0  0  0  0  0  0  0  0  0  0
   57.8200   31.8760   45.1570 N   0  0  0  0  0  0  0  0  0  0  0  0
   57.2020   33.1320   45.6000 C   0  0  0  0  0  0  0  0  0  0  0  0
   57.6770   33.4700   47.0190 C   0  0  0  0  0  0  0  0  0  0  0  0
   58.5420   32.4360   47.5980 N   0  0  0  0  0  0  0  0  0  0  0  0
   59.5630   32.6990   48.5770 C   0  0  0  0  0  0  0  0  0  0  0  0
   59.2500   32.6420   49.9450 C   0  0  0  0  0  0  0  0  0  0  0  0
   57.9440   32.3250   50.3710 C   0  0  0  0  0  0  0  0  0  0  0  0
   57.6140   32.3380   51.7230 C   0  0  0  0  0  0  0  0  0  0  0  0
   58.5740   32.6760   52.6700 C   0  0  0  0  0  0  0  0  0  0  0  0
   59.8780   32.9730   52.2730 C   0  0  0  0  0  0  0  0  0  0  0  0
   60.2560   32.9250   50.9060 C   0  0  0  0  0  0  0  0  0  0  0  0
   61.5580   33.1590   50.5010 N   0  0  0  0  0  0  0  0  0  0  0  0
   62.6510   33.1720   51.5000 C   0  0  0  0  0  0  0  0  0  0  0  0
   61.8430   33.3490   49.1610 C   0  0  0  0  0  0  0  0  0  0  0  0
   63.1020   33.8340   48.7240 C   0  0  0  0  0  0  0  0  0  0  0  0
   63.3930   33.9670   47.3680 C   0  0  0  0  0  0  0  0  0  0  0  0
   62.4420   33.6300   46.4120 C   0  0  0  0  0  0  0  0  0  0  0  0
   61.1800   33.1920   46.8070 C   0  0  0  0  0  0  0  0  0  0  0  0
   60.8560   33.0740   48.1750 C   0  0  0  0  0  0  0  0  0  0  0  0
   60.5091   25.5989   47.1202 H   0  0  0  0  0  0  0  0  0  0  0  0
   59.4872   26.9198   46.4586 H   0  0  0  0  0  0  0  0  0  0  0  0
   61.2761   27.0824   46.4586 H   0  0  0  0  0  0  0  0  0  0  0  0
   59.6420   26.7644   49.0130 H   0  0  0  0  0  0  0  0  0  0  0  0
   61.3795   27.3233   48.7877 H   0  0  0  0  0  0  0  0  0  0  0  0
   58.9700   28.7500   47.9720 H   0  0  0  0  0  0  0  0  0  0  0  0
   59.2176   30.2752   49.7005 H   0  0  0  0  0  0  0  0  0  0  0  0
   59.0725   28.5372   50.2967 H   0  0  0  0  0  0  0  0  0  0  0  0
   60.6781   29.4119   51.7185 H   0  0  0  0  0  0  0  0  0  0  0  0
   61.6596   28.6303   50.4330 H   0  0  0  0  0  0  0  0  0  0  0  0
   61.4351   30.4125   50.4330 H   0  0  0  0  0  0  0  0  0  0  0  0
   60.8882   30.6164   48.1034 H   0  0  0  0  0  0  0  0  0  0  0  0
   61.6839   29.1522   47.3481 H   0  0  0  0  0  0  0  0  0  0  0  0
   60.1268   31.0821   46.0278 H   0  0  0  0  0  0  0  0  0  0  0  0
   60.6480   29.4793   45.4015 H   0  0  0  0  0  0  0  0  0  0  0  0
   58.9316   29.1307   44.1855 H   0  0  0  0  0  0  0  0  0  0  0  0
   59.0593   27.7287   45.2940 H   0  0  0  0  0  0  0  0  0  0  0  0
   56.8301   28.0996   43.9305 H   0  0  0  0  0  0  0  0  0  0  0  0
   56.7461   27.6593   45.6912 H   0  0  0  0  0  0  0  0  0  0  0  0
   56.6990   30.1970   45.9930 H   0  0  0  0  0  0  0  0  0  0  0  0
   55.9696   29.8350   43.1554 H   0  0  0  0  0  0  0  0  0  0  0  0
   55.1543   31.0869   44.1595 H   0  0  0  0  0  0  0  0  0  0  0  0
   58.0650   30.8618   43.3352 H   0  0  0  0  0  0  0  0  0  0  0  0
   56.9387   32.2933   43.3139 H   0  0  0  0  0  0  0  0  0  0  0  0
   57.6480   31.1420   45.8850 H   0  0  0  0  0  0  0  0  0  0  0  0
   57.4905   33.9429   44.9150 H   0  0  0  0  0  0  0  0  0  0  0  0
   56.1078   33.0195   45.5994 H   0  0  0  0  0  0  0  0  0  0  0  0
   58.2371   34.4161   46.9846 H   0  0  0  0  0  0  0  0  0  0  0  0
   56.7828   33.5437   47.6554 H   0  0  0  0  0  0  0  0  0  0  0  0
   58.5400   31.4940   47.1460 H   0  0  0  0  0  0  0  0  0  0  0  0
   57.1773   32.0645   49.6265 H   0  0  0  0  0  0  0  0  0  0  0  0
   56.5933   32.0808   52.0424 H   0  0  0  0  0  0  0  0  0  0  0  0
   58.3045   32.7094   53.7360 H   0  0  0  0  0  0  0  0  0  0  0  0
   60.6252   33.2488   53.0317 H   0  0  0  0  0  0  0  0  0  0  0  0
   62.2220   33.1669   52.5129 H   0  0  0  0  0  0  0  0  0  0  0  0
   63.2821   32.2813   51.3646 H   0  0  0  0  0  0  0  0  0  0  0  0
   63.2608   34.0775   51.3646 H   0  0  0  0  0  0  0  0  0  0  0  0
   63.8626   34.1102   49.4692 H   0  0  0  0  0  0  0  0  0  0  0  0
   64.3787   34.3400   47.0529 H   0  0  0  0  0  0  0  0  0  0  0  0
   62.6862   33.7092   45.3424 H   0  0  0  0  0  0  0  0  0  0  0  0
   60.4291   32.9357   46.0451 H   0  0  0  0  0  0  0  0  0  0  0  0
  1  2  1  0
  2  3  1  0
  3  4  1  0
  4  5  1  0
  3  6  1  0
  6  7  1  0
  7  8  1  0
  8  9  1  0
  9 10  1  0
 10 11  1  0
 11 12  1  0
 12 13  1  0
 13 14  1  0
 14 15  1  0
 15 16  1  0
 16 17  1  0
 17 18  1  0
 18 19  2  0
 19 20  1  0
 20 21  2  0
 21 22  1  0
 22 23  2  0
 23 24  1  0
 24 25  2  0
 25 26  1  0
 25 27  1  0
 27 28  2  0
 28 29  1  0
 29 30  2  0
 30 31  1  0
 31 32  2  0
 32 18  1  0
 24 19  1  0
 32 27  1  0
  1 33  1  0
  1 34  1  0
  1 35  1  0
  2 36  1  0
  2 37  1  0
  3 38  1  0
  4 39  1  0
  4 40  1  0
  5 41  1  0
  5 42  1  0
  5 43  1  0
  6 44  1  0
  6 45  1  0
  7 46  1  0
  7 47  1  0
  9 48  1  0
  9 49  1  0
 10 50  1  0
 10 51  1  0
 11 52  1  0
 12 53  1  0
 12 54  1  0
 13 55  1  0
 13 56  1  0
 14 57  1  0
 15 58  1  0
 15 59  1  0
 16 60  1  0
 16 61  1  0
 17 62  1  0
 20 63  1  0
 21 64  1  0
 22 65  1  0
 23 66  1  0
 26 67  1  0
 26 68  1  0
 26 69  1  0
 28 70  1  0
 29 71  1  0
 30 72  1  0
 31 73  1  0
M  CHG  2   3   1  25   1
M  END
>  <UniqueID>  (7) 
7

>  <SMILES>  (7) 
CC[NH+](CC)CCOCCNCCNCCNc1c2ccccc2[n+](C)c2ccccc12

>  <Energy>  (7) 
106.97439228184474

>  <Genealogy>  (7) 
CC[NH+](CC)CCOCCNCCNCCNc1c2ccccc2[n+](C)c2ccccc12 (protonated)
CC[NH+](CC)CCOCCNCCNCCNc1c2ccccc2[n+](C)c2ccccc12 (3D coordinates assigned)
CC[NH+](CC)CCOCCNCCNCCNc1c2ccccc2[n+](C)c2ccccc12 (optimized conformer: 106.97439228184474 kcal/mol)

>  <smiles>  (7) 
CCN(CC)CCOCCNCCNCCNc1c2ccccc2[n+](C)c2ccccc12

>  <score_type>  (7) 
oracle

>  <origin>  (7) 
adg

>  <m_score__min__energy>  (7) 
-6.0800000000000001

>  <m_primary>  (7) 
energy

$$$$
7:0
     RDKit          3D

 54 56  0  0  0  0  0  0  0  0999 V2000
   63.8590   32.4320   49.0110 C   0  0  0  0  0  0  0  0  0  0  0  0
   62.5890   32.2990   48.1750 C   0  0  0  0  0  0  0  0  0  0  0  0
   61.7300   31.2280   48.6950 N   0  0  0  0  0  0  0  0  0  0  0  0
   61.5100   31.1580   50.1450 C   0  0  0  0  0  0  0  0  0  0  0  0
   61.1250   30.2420   47.8160 C   0  0  0  0  0  0  0  0  0  0  0  0
   60.4200   29.1400   48.3440 C   0  0  0  0  0  0  0  0  0  0  0  0
   59.8430   28.1850   47.4980 C   0  0  0  0  0  0  0  0  0  0  0  0
   59.9580   28.3070   46.1050 C   0  0  0  0  0  0  0  0  0  0  0  0
   59.3290   27.2890   45.1780 C   0  0  0  0  0  0  0  0  0  0  0  0
   58.3310   27.9160   44.2760 N   0  0  1  0  0  0  0  0  0  0  0  0
   58.1920   27.1060   43.0530 C   0  0  0  0  0  0  0  0  0  0  0  0
   57.0120   28.0710   44.9480 C   0  0  0  0  0  0  0  0  0  0  0  0
   56.3790   29.4100   44.6470 C   0  0  0  0  0  0  0  0  0  0  0  0
   55.1450   29.5680   44.8490 O   0  0  0  0  0  0  0  0  0  0  0  0
   57.1280   30.4890   44.0720 N   0  0  0  0  0  0  0  0  0  0  0  0
   57.7220   31.5760   44.7950 C   0  0  0  0  0  0  0  0  0  0  0  0
   57.8960   32.8120   44.1550 C   0  0  0  0  0  0  0  0  0  0  0  0
   58.4860   33.8860   44.8350 C   0  0  0  0  0  0  0  0  0  0  0  0
   58.8780   33.7330   46.1680 C   0  0  0  0  0  0  0  0  0  0  0  0
   58.6480   32.5210   46.8340 C   0  0  0  0  0  0  0  0  0  0  0  0
   58.0830   31.4410   46.1510 C   0  0  0  0  0  0  0  0  0  0  0  0
   58.9890   32.4120   48.1860 O   0  0  0  0  0  0  0  0  0  0  0  0
   59.3080   33.5720   48.9610 C   0  0  0  0  0  0  0  0  0  0  0  0
   60.1300   34.5610   48.1220 C   0  0  0  0  0  0  0  0  0  0  0  0
   59.4970   34.7810   46.8580 O   0  0  0  0  0  0  0  0  0  0  0  0
   60.6520   29.4030   45.5710 C   0  0  0  0  0  0  0  0  0  0  0  0
   61.2290   30.3580   46.4140 C   0  0  0  0  0  0  0  0  0  0  0  0
   63.5991   32.4048   50.0795 H   0  0  0  0  0  0  0  0  0  0  0  0
   64.5401   31.6003   48.7780 H   0  0  0  0  0  0  0  0  0  0  0  0
   64.3530   33.3868   48.7780 H   0  0  0  0  0  0  0  0  0  0  0  0
   62.0370   33.2500   48.2046 H   0  0  0  0  0  0  0  0  0  0  0  0
   62.8726   32.0518   47.1413 H   0  0  0  0  0  0  0  0  0  0  0  0
   62.4310   31.4511   50.6702 H   0  0  0  0  0  0  0  0  0  0  0  0
   60.6947   31.8411   50.4256 H   0  0  0  0  0  0  0  0  0  0  0  0
   61.2394   30.1294   50.4256 H   0  0  0  0  0  0  0  0  0  0  0  0
   60.3223   29.0296   49.4341 H   0  0  0  0  0  0  0  0  0  0  0  0
   59.2958   27.3333   47.9284 H   0  0  0  0  0  0  0  0  0  0  0  0
   60.1186   26.8245   44.5691 H   0  0  0  0  0  0  0  0  0  0  0  0
   58.8132   26.5362   45.7922 H   0  0  0  0  0  0  0  0  0  0  0  0
   58.6960   28.8520   43.9760 H   0  0  0  0  0  0  0  0  0  0  0  0
   58.0118   26.0560   43.3271 H   0  0  0  0  0  0  0  0  0  0  0  0
   57.3450   27.4805   42.4594 H   0  0  0  0  0  0  0  0  0  0  0  0
   59.1154   27.1767   42.4594 H   0  0  0  0  0  0  0  0  0  0  0  0
   56.3395   27.2735   44.5992 H   0  0  0  0  0  0  0  0  0  0  0  0
   57.1737   28.0073   46.0342 H   0  0  0  0  0  0  0  0  0  0  0  0
   57.5673   32.9391   43.1130 H   0  0  0  0  0  0  0  0  0  0  0  0
   58.6401   34.8464   44.3214 H   0  0  0  0  0  0  0  0  0  0  0  0
   57.9199   30.4856   46.6712 H   0  0  0  0  0  0  0  0  0  0  0  0
   58.3768   34.0585   49.2870 H   0  0  0  0  0  0  0  0  0  0  0  0
   59.8991   33.2668   49.8371 H   0  0  0  0  0  0  0  0  0  0  0  0
   60.2084   35.5170   48.6605 H   0  0  0  0  0  0  0  0  0  0  0  0
   61.1330   34.1420   47.9533 H   0  0  0  0  0  0  0  0  0  0  0  0
   60.7431   29.5121   44.4802 H   0  0  0  0  0  0  0  0  0  0  0  0
   61.7708   31.2104   45.9783 H   0  0  0  0  0  0  0  0  0  0  0  0
  1  2  1  0
  2  3  1  0
  3  4  1  0
  3  5  1  0
  5  6  2  0
  6  7  1  0
  7  8  2  0
  8  9  1  0
  9 10  1  0
 10 11  1  0
 10 12  1  0
 12 13  1  0
 13 14  2  0
 13 15  1  0
 15 16  1  0
 16 17  2  0
 17 18  1  0
 18 19  2  0
 19 20  1  0
 20 21  2  0
 20 22  1  0
 22 23  1  0
 23 24  1  0
 24 25  1  0
  8 26  1  0
 26 27  2  0
 27  5  1  0
 21 16  1  0
 25 19  1  0
  1 28  1  0
  1 29  1  0
  1 30  1  0
  2 31  1  0
  2 32  1  0
  4 33  1  0
  4 34  1  0
  4 35  1  0
  6 36  1  0
  7 37  1  0
  9 38  1  0
  9 39  1  0
 10 40  1  6
 11 41  1  0
 11 42  1  0
 11 43  1  0
 12 44  1  0
 12 45  1  0
 17 46  1  0
 18 47  1  0
 21 48  1  0
 23 49  1  0
 23 50  1  0
 24 51  1  0
 24 52  1  0
 26 53  1  0
 27 54  1  0
M  CHG  2  10   1  15  -1
M  END
>  <UniqueID>  (8) 
8

>  <SMILES>  (8) 
CCN(C)c1ccc(C[N@@H+](C)CC(=O)[N-]c2ccc3c(c2)OCCO3)cc1

>  <Energy>  (8) 
63.18491368843842

>  <Genealogy>  (8) 
CCN(C)c1ccc(C[NH+](C)CC(=O)[N-]c2ccc3c(c2)OCCO3)cc1 (protonated)
CCN(C)c1ccc(C[N@@H+](C)CC(=O)[N-]c2ccc3c(c2)OCCO3)cc1 (chirality)
CCN(C)c1ccc(C[N@@H+](C)CC(=O)[N-]c2ccc3c(c2)OCCO3)cc1 (3D coordinates assigned)
CCN(C)c1ccc(C[N@@H+](C)CC(=O)[N-]c2ccc3c(c2)OCCO3)cc1 (nonaromatic ring conformer: 63.18491368843842 kcal/mol)

>  <smiles>  (8) 
CCN(C)c1ccc(CN(C)CC(=O)Nc2ccc3c(c2)OCCO3)cc1

>  <score_type>  (8) 
oracle

>  <origin>  (8) 
adg

>  <m_score__min__energy>  (8) 
-7.0099999999999998

>  <m_primary>  (8) 
energy

$$$$
8:0
     RDKit          3D

 53 55  0  0  0  0  0  0  0  0999 V2000
   59.6100   33.4810   49.7870 C   0  0  0  0  0  0  0  0  0  0  0  0
   60.7630   34.2690   49.1730 C   0  0  0  0  0  0  0  0  0  0  0  0
   62.0510   33.5710   49.3800 N   0  0  0  0  0  0  0  0  0  0  0  0
   62.7920   34.2190   50.4770 C   0  0  0  0  0  0  0  0  0  0  0  0
   62.8690   33.5640   48.1420 C   0  0  0  0  0  0  0  0  0  0  0  0
   63.4620   32.1710   47.8750 C   0  0  0  0  0  0  0  0  0  0  0  0
   62.4860   31.2380   47.1290 C   0  0  0  0  0  0  0  0  0  0  0  0
   61.0980   31.4740   47.5370 N   0  0  0  0  0  0  0  0  0  0  0  0
   59.9920   31.2750   46.6360 C   0  0  0  0  0  0  0  0  0  0  0  0
   59.3850   32.3740   46.0000 C   0  0  0  0  0  0  0  0  0  0  0  0
   59.9240   33.6720   46.1220 C   0  0  0  0  0  0  0  0  0  0  0  0
   59.2680   34.7710   45.5730 C   0  0  0  0  0  0  0  0  0  0  0  0
   58.0710   34.5960   44.8910 C   0  0  0  0  0  0  0  0  0  0  0  0
   57.5480   33.3170   44.7080 C   0  0  0  0  0  0  0  0  0  0  0  0
   58.2210   32.1720   45.2090 C   0  0  0  0  0  0  0  0  0  0  0  0
   57.7630   30.8920   44.9590 N   0  0  0  0  0  0  0  0  0  0  0  0
   56.7360   30.6670   43.9170 C   0  0  0  0  0  0  0  0  0  0  0  0
   58.3010   29.8160   45.6420 C   0  0  0  0  0  0  0  0  0  0  0  0
   57.7040   28.5290   45.5910 C   0  0  0  0  0  0  0  0  0  0  0  0
   58.2980   27.4220   46.2230 C   0  0  0  0  0  0  0  0  0  0  0  0
   57.7360   26.1370   46.1790 O   0  0  0  0  0  0  0  0  0  0  0  0
   57.6260   25.3410   45.0030 C   0  0  0  0  0  0  0  0  0  0  0  0
   59.4860   27.5950   46.9240 C   0  0  0  0  0  0  0  0  0  0  0  0
   60.0600   28.8570   47.0420 C   0  0  0  0  0  0  0  0  0  0  0  0
   59.4640   29.9840   46.4380 C   0  0  0  0  0  0  0  0  0  0  0  0
   59.6775   33.5271   50.8840 H   0  0  0  0  0  0  0  0  0  0  0  0
   58.6538   33.9154   49.4599 H   0  0  0  0  0  0  0  0  0  0  0  0
   59.6674   32.4323   49.4599 H   0  0  0  0  0  0  0  0  0  0  0  0
   60.5856   34.3842   48.0935 H   0  0  0  0  0  0  0  0  0  0  0  0
   60.8148   35.2530   49.6618 H   0  0  0  0  0  0  0  0  0  0  0  0
   62.3953   33.8721   51.4425 H   0  0  0  0  0  0  0  0  0  0  0  0
   63.8581   33.9582   50.4036 H   0  0  0  0  0  0  0  0  0  0  0  0
   62.6756   35.3104   50.4036 H   0  0  0  0  0  0  0  0  0  0  0  0
   62.2345   33.8529   47.2911 H   0  0  0  0  0  0  0  0  0  0  0  0
   63.6973   34.2767   48.2679 H   0  0  0  0  0  0  0  0  0  0  0  0
   64.3713   32.2869   47.2669 H   0  0  0  0  0  0  0  0  0  0  0  0
   63.6789   31.7112   48.8505 H   0  0  0  0  0  0  0  0  0  0  0  0
   62.5760   31.4179   46.0475 H   0  0  0  0  0  0  0  0  0  0  0  0
   62.7460   30.1982   47.3765 H   0  0  0  0  0  0  0  0  0  0  0  0
   60.9350   31.9930   48.4290 H   0  0  0  0  0  0  0  0  0  0  0  0
   60.8739   33.8178   46.6572 H   0  0  0  0  0  0  0  0  0  0  0  0
   59.6981   35.7778   45.6796 H   0  0  0  0  0  0  0  0  0  0  0  0
   57.5337   35.4698   44.4938 H   0  0  0  0  0  0  0  0  0  0  0  0
   56.5985   33.1929   44.1667 H   0  0  0  0  0  0  0  0  0  0  0  0
   55.7685   30.4550   44.3955 H   0  0  0  0  0  0  0  0  0  0  0  0
   56.6460   31.5667   43.2906 H   0  0  0  0  0  0  0  0  0  0  0  0
   57.0304   29.8120   43.2906 H   0  0  0  0  0  0  0  0  0  0  0  0
   56.7578   28.3950   45.0462 H   0  0  0  0  0  0  0  0  0  0  0  0
   57.4805   24.2879   45.2854 H   0  0  0  0  0  0  0  0  0  0  0  0
   56.7666   25.6831   44.4077 H   0  0  0  0  0  0  0  0  0  0  0  0
   58.5460   25.4372   44.4077 H   0  0  0  0  0  0  0  0  0  0  0  0
   59.9762   26.7271   47.3892 H   0  0  0  0  0  0  0  0  0  0  0  0
   60.9916   28.9776   47.6143 H   0  0  0  0  0  0  0  0  0  0  0  0
  1  2  1  0
  2  3  1  0
  3  4  1  0
  3  5  1  0
  5  6  1  0
  6  7  1  0
  7  8  1  0
  8  9  1  0
  9 10  2  0
 10 11  1  0
 11 12  2  0
 12 13  1  0
 13 14  2  0
 14 15  1  0
 15 16  2  0
 16 17  1  0
 16 18  1  0
 18 19  2  0
 19 20  1  0
 20 21  1  0
 21 22  1  0
 20 23  2  0
 23 24  1  0
 24 25  2  0
 25  9  1  0
 15 10  1  0
 25 18  1  0
  1 26  1  0
  1 27  1  0
  1 28  1  0
  2 29  1  0
  2 30  1  0
  4 31  1  0
  4 32  1  0
  4 33  1  0
  5 34  1  0
  5 35  1  0
  6 36  1  0
  6 37  1  0
  7 38  1  0
  7 39  1  0
  8 40  1  0
 11 41  1  0
 12 42  1  0
 13 43  1  0
 14 44  1  0
 17 45  1  0
 17 46  1  0
 17 47  1  0
 19 48  1  0
 22 49  1  0
 22 50  1  0
 22 51  1  0
 23 52  1  0
 24 53  1  0
M  CHG  1  16   1
M  END
>  <UniqueID>  (9) 
9

>  <SMILES>  (9) 
CCN(C)CCCNc1c2ccccc2[n+](C)c2cc(OC)ccc12

>  <Energy>  (9) 
75.37599506569823

>  <Genealogy>  (9) 
CCN(C)CCCNc1c2ccccc2[n+](C)c2cc(OC)ccc12 (3D coordinates assigned)
CCN(C)CCCNc1c2ccccc2[n+](C)c2cc(OC)ccc12 (optimized conformer: 75.37599506569823 kcal/mol)

>  <smiles>  (9) 
CCN(C)CCCNc1c2ccccc2[n+](C)c2cc(OC)ccc12

>  <score_type>  (9) 
oracle

>  <origin>  (9) 
adg

>  <m_score__min__energy>  (9) 
-5.25

>  <m_primary>  (9) 
energy

$$$$
9:0
     RDKit          3D

 33 33  0  0  0  0  0  0  0  0999 V2000
   56.3070   29.7360   42.8740 C   0  0  0  0  0  0  0  0  0  0  0  0
   56.2520   29.7530   44.3940 C   0  0  0  0  0  0  0  0  0  0  0  0
   57.0120   30.8440   44.8740 O   0  0  0  0  0  0  0  0  0  0  0  0
   57.6750   31.4940   43.8060 C   0  0  0  0  0  0  0  0  0  0  0  0
   57.7360   33.0000   44.0630 C   0  0  0  0  0  0  0  0  0  0  0  0
   57.4030   33.3840   45.8190 S   0  0  0  0  0  0  0  0  0  0  0  0
   58.9700   32.7270   46.4280 C   0  0  0  0  0  0  0  0  0  0  0  0
   59.0440   31.4100   46.7630 N   0  0  0  0  0  0  0  0  0  0  0  0
   60.1990   30.8430   47.2130 C   0  0  0  0  0  0  0  0  0  0  0  0
   60.2280   29.3930   47.5930 C   0  0  0  0  0  0  0  0  0  0  0  0
   61.3410   31.6350   47.3820 C   0  0  0  0  0  0  0  0  0  0  0  0
   61.2990   32.9990   47.0630 C   0  0  0  0  0  0  0  0  0  0  0  0
   62.5350   33.8430   47.2450 C   0  0  0  0  0  0  0  0  0  0  0  0
   60.0990   33.5560   46.5800 C   0  0  0  0  0  0  0  0  0  0  0  0
   60.0230   34.9610   46.2440 C   0  0  0  0  0  0  0  0  0  0  0  0
   59.9600   36.0860   45.9760 N   0  0  0  0  0  0  0  0  0  0  0  0
   57.3104   29.4259   42.5469 H   0  0  0  0  0  0  0  0  0  0  0  0
   55.5600   29.0268   42.4880 H   0  0  0  0  0  0  0  0  0  0  0  0
   56.0904   30.7430   42.4880 H   0  0  0  0  0  0  0  0  0  0  0  0
   55.2078   29.8587   44.7233 H   0  0  0  0  0  0  0  0  0  0  0  0
   56.6640   28.8129   44.7895 H   0  0  0  0  0  0  0  0  0  0  0  0
   58.6976   31.0984   43.7182 H   0  0  0  0  0  0  0  0  0  0  0  0
   57.1208   31.3104   42.8737 H   0  0  0  0  0  0  0  0  0  0  0  0
   58.7380   33.3690   43.7986 H   0  0  0  0  0  0  0  0  0  0  0  0
   56.9676   33.4902   43.4471 H   0  0  0  0  0  0  0  0  0  0  0  0
   58.1870   30.8180   46.6690 H   0  0  0  0  0  0  0  0  0  0  0  0
   60.2298   29.3012   48.6892 H   0  0  0  0  0  0  0  0  0  0  0  0
   59.3398   28.8890   47.1843 H   0  0  0  0  0  0  0  0  0  0  0  0
   61.1357   28.9249   47.1843 H   0  0  0  0  0  0  0  0  0  0  0  0
   62.2700   31.1873   47.7647 H   0  0  0  0  0  0  0  0  0  0  0  0
   62.7322   33.9777   48.3188 H   0  0  0  0  0  0  0  0  0  0  0  0
   63.3938   33.3418   46.7745 H   0  0  0  0  0  0  0  0  0  0  0  0
   62.3808   34.8253   46.7745 H   0  0  0  0  0  0  0  0  0  0  0  0
  1  2  1  0
  2  3  1  0
  3  4  1  0
  4  5  1  0
  5  6  1  0
  6  7  1  0
  7  8  2  0
  8  9  1  0
  9 10  1  0
  9 11  2  0
 11 12  1  0
 12 13  1  0
 12 14  2  0
 14 15  1  0
 15 16  3  0
 14  7  1  0
  1 17  1  0
  1 18  1  0
  1 19  1  0
  2 20  1  0
  2 21  1  0
  4 22  1  0
  4 23  1  0
  5 24  1  0
  5 25  1  0
  8 26  1  0
 10 27  1  0
 10 28  1  0
 10 29  1  0
 11 30  1  0
 13 31  1  0
 13 32  1  0
 13 33  1  0
M  CHG  1   8   1
M  END
>  <UniqueID>  (10) 
10

>  <SMILES>  (10) 
CCOCCSc1[nH+]c(C)cc(C)c1C#N

>  <Energy>  (10) 
24.041380662677557

>  <Genealogy>  (10) 
CCOCCSc1[nH+]c(C)cc(C)c1C#N (protonated)
CCOCCSc1[nH+]c(C)cc(C)c1C#N (3D coordinates assigned)
CCOCCSc1[nH+]c(C)cc(C)c1C#N (optimized conformer: 24.041380662677557 kcal/mol)

>  <smiles>  (10) 
CCOCCSc1nc(C)cc(C)c1C#N

>  <score_type>  (10) 
oracle

>  <origin>  (10) 
adg

>  <m_score__min__energy>  (10) 
-3.9500000000000002

>  <m_primary>  (10) 
energy

$$$$
10:0
     RDKit          3D

 55 57  0  0  0  0  0  0  0  0999 V2000
   63.1180   33.8330   46.3540 C   0  0  0  0  0  0  0  0  0  0  0  0
   63.4200   33.7010   47.8470 C   0  0  0  0  0  0  0  0  0  0  0  0
   64.1310   32.4420   48.1270 N   0  0  0  0  0  0  0  0  0  0  0  0
   63.4020   31.5910   49.0860 C   0  0  0  0  0  0  0  0  0  0  0  0
   61.9180   31.9800   49.2030 C   0  0  0  0  0  0  0  0  0  0  0  0
   61.0100   30.7770   48.9290 C   0  0  0  0  0  0  0  0  0  0  0  0
   59.6660   31.2190   48.5540 N   0  0  0  0  0  0  0  0  0  0  0  0
   59.2700   31.3420   47.1780 C   0  0  0  0  0  0  0  0  0  0  0  0
   59.2560   32.6030   46.5600 C   0  0  0  0  0  0  0  0  0  0  0  0
   59.7140   33.7480   47.2440 C   0  0  0  0  0  0  0  0  0  0  0  0
   59.7300   34.9910   46.6160 C   0  0  0  0  0  0  0  0  0  0  0  0
   59.3050   35.1120   45.2990 C   0  0  0  0  0  0  0  0  0  0  0  0
   58.8370   33.9950   44.6070 C   0  0  0  0  0  0  0  0  0  0  0  0
   58.7700   32.7230   45.2310 C   0  0  0  0  0  0  0  0  0  0  0  0
   58.2600   31.6160   44.5770 N   0  0  0  0  0  0  0  0  0  0  0  0
   57.4810   31.7880   43.3300 C   0  0  0  0  0  0  0  0  0  0  0  0
   58.4580   30.3510   45.1020 C   0  0  0  0  0  0  0  0  0  0  0  0
   58.2130   29.1810   44.3390 C   0  0  0  0  0  0  0  0  0  0  0  0
   58.3800   27.8930   44.8840 C   0  0  0  0  0  0  0  0  0  0  0  0
   58.1070   26.7110   44.0890 N   0  0  0  0  0  0  0  0  0  0  0  0
   57.7840   25.4360   44.7380 C   0  0  0  0  0  0  0  0  0  0  0  0
   58.1380   26.7740   42.6220 C   0  0  0  0  0  0  0  0  0  0  0  0
   58.8280   27.7780   46.2060 C   0  0  0  0  0  0  0  0  0  0  0  0
   59.1170   28.9110   46.9610 C   0  0  0  0  0  0  0  0  0  0  0  0
   58.9410   30.2000   46.4270 C   0  0  0  0  0  0  0  0  0  0  0  0
   62.1176   34.2702   46.2195 H   0  0  0  0  0  0  0  0  0  0  0  0
   63.8693   34.4848   45.8842 H   0  0  0  0  0  0  0  0  0  0  0  0
   63.1498   32.8389   45.8842 H   0  0  0  0  0  0  0  0  0  0  0  0
   64.0467   34.5475   48.1645 H   0  0  0  0  0  0  0  0  0  0  0  0
   62.4694   33.6999   48.4005 H   0  0  0  0  0  0  0  0  0  0  0  0
   64.2950   31.9180   47.2360 H   0  0  0  0  0  0  0  0  0  0  0  0
   65.0620   32.6690   48.5470 H   0  0  0  0  0  0  0  0  0  0  0  0
   63.4680   30.5451   48.7517 H   0  0  0  0  0  0  0  0  0  0  0  0
   63.8640   31.7273   50.0749 H   0  0  0  0  0  0  0  0  0  0  0  0
   61.7233   32.3531   50.2193 H   0  0  0  0  0  0  0  0  0  0  0  0
   61.7009   32.7590   48.4573 H   0  0  0  0  0  0  0  0  0  0  0  0
   61.4367   30.1819   48.1082 H   0  0  0  0  0  0  0  0  0  0  0  0
   60.9407   30.1702   49.8439 H   0  0  0  0  0  0  0  0  0  0  0  0
   58.9600   31.3970   49.3030 H   0  0  0  0  0  0  0  0  0  0  0  0
   60.0620   33.6585   48.2837 H   0  0  0  0  0  0  0  0  0  0  0  0
   60.0798   35.8785   47.1638 H   0  0  0  0  0  0  0  0  0  0  0  0
   59.3376   36.0919   44.8002 H   0  0  0  0  0  0  0  0  0  0  0  0
   58.5148   34.1023   43.5607 H   0  0  0  0  0  0  0  0  0  0  0  0
   56.4350   32.0190   43.5800 H   0  0  0  0  0  0  0  0  0  0  0  0
   57.9082   32.6134   42.7417 H   0  0  0  0  0  0  0  0  0  0  0  0
   57.5209   30.8594   42.7417 H   0  0  0  0  0  0  0  0  0  0  0  0
   57.8839   29.2820   43.2942 H   0  0  0  0  0  0  0  0  0  0  0  0
   57.8159   25.5621   45.8303 H   0  0  0  0  0  0  0  0  0  0  0  0
   56.7763   25.1154   44.4352 H   0  0  0  0  0  0  0  0  0  0  0  0
   58.5175   24.6743   44.4352 H   0  0  0  0  0  0  0  0  0  0  0  0
   58.6031   27.7192   42.3053 H   0  0  0  0  0  0  0  0  0  0  0  0
   58.7229   25.9284   42.2310 H   0  0  0  0  0  0  0  0  0  0  0  0
   57.1112   26.7216   42.2310 H   0  0  0  0  0  0  0  0  0  0  0  0
   58.9529   26.7806   46.6528 H   0  0  0  0  0  0  0  0  0  0  0  0
   59.4884   28.7965   47.9901 H   0  0  0  0  0  0  0  0  0  0  0  0
  1  2  1  0
  2  3  1  0
  3  4  1  0
  4  5  1  0
  5  6  1  0
  6  7  1  0
  7  8  1  0
  8  9  2  0
  9 10  1  0
 10 11  2  0
 11 12  1  0
 12 13  2  0
 13 14  1  0
 14 15  2  0
 15 16  1  0
 15 17  1  0
 17 18  2  0
 18 19  1  0
 19 20  1  0
 20 21  1  0
 20 22  1  0
 19 23  2  0
 23 24  1  0
 24 25  2  0
 25  8  1  0
 14  9  1  0
 25 17  1  0
  1 26  1  0
  1 27  1  0
  1 28  1  0
  2 29  1  0
  2 30  1  0
  3 31  1  0
  3 32  1  0
  4 33  1  0
  4 34  1  0
  5 35  1  0
  5 36  1  0
  6 37  1  0
  6 38  1  0
  7 39  1  0
 10 40  1  0
 11 41  1  0
 12 42  1  0
 13 43  1  0
 16 44  1  0
 16 45  1  0
 16 46  1  0
 18 47  1  0
 21 48  1  0
 21 49  1  0
 21 50  1  0
 22 51  1  0
 22 52  1  0
 22 53  1  0
 23 54  1  0
 24 55  1  0
M  CHG  2   3   1  15   1
M  END
>  <UniqueID>  (11) 
11

>  <SMILES>  (11) 
CC[NH2+]CCCNc1c2ccccc2[n+](C)c2cc(N(C)C)ccc12

>  <Energy>  (11) 
77.10571120770148

>  <Genealogy>  (11) 
CC[NH2+]CCCNc1c2ccccc2[n+](C)c2cc(N(C)C)ccc12 (protonated)
CC[NH2+]CCCNc1c2ccccc2[n+](C)c2cc(N(C)C)ccc12 (3D coordinates assigned)
CC[NH2+]CCCNc1c2ccccc2[n+](C)c2cc(N(C)C)ccc12 (optimized conformer: 77.10571120770148 kcal/mol)

>  <smiles>  (11) 
CCNCCCNc1c2ccccc2[n+](C)c2cc(N(C)C)ccc12

>  <score_type>  (11) 
oracle

>  <origin>  (11) 
adg

>  <m_score__min__energy>  (11) 
-4.6699999999999999

>  <m_primary>  (11) 
energy

$$$$
11:0
     RDKit          3D

 43 43  0  0  0  0  0  0  0  0999 V2000
   59.9130   34.9620   46.9760 C   0  0  0  0  0  0  0  0  0  0  0  0
   58.4090   34.5680   46.1110 S   0  0  0  0  0  0  0  0  0  0  0  0
   57.3860   33.4740   47.0770 C   0  0  0  0  0  0  0  0  0  0  0  0
   58.7790   33.8700   44.5050 C   0  0  0  0  0  0  0  0  0  0  0  0
   58.5260   32.3570   44.4870 C   0  0  0  0  0  0  0  0  0  0  0  0
   57.0360   31.9930   44.3940 C   0  0  0  0  0  0  0  0  0  0  0  0
   56.7320   30.7960   45.1720 N   0  0  0  0  0  0  0  0  0  0  0  0
   56.3170   29.5590   44.5800 C   0  0  0  0  0  0  0  0  0  0  0  0
   55.1470   29.1270   44.7550 O   0  0  0  0  0  0  0  0  0  0  0  0
   57.2840   28.7660   43.7570 C   0  0  0  0  0  0  0  0  0  0  0  0
   58.6470   28.9230   44.2600 N   0  0  0  0  0  0  0  0  0  0  0  0
   59.3620   27.8480   44.8850 C   0  0  0  0  0  0  0  0  0  0  0  0
   58.9040   26.6730   44.8480 O   0  0  0  0  0  0  0  0  0  0  0  0
   60.6470   28.1060   45.6120 C   0  0  0  0  0  0  0  0  0  0  0  0
   60.9110   29.5070   45.6800 O   0  0  0  0  0  0  0  0  0  0  0  0
   60.5700   30.3530   46.7480 C   0  0  0  0  0  0  0  0  0  0  0  0
   59.3480   30.2560   47.4420 C   0  0  0  0  0  0  0  0  0  0  0  0
   59.0790   31.1080   48.5190 C   0  0  0  0  0  0  0  0  0  0  0  0
   60.0200   32.0640   48.9090 C   0  0  0  0  0  0  0  0  0  0  0  0
   59.6550   33.2190   50.3860 Br  0  0  0  0  0  0  0  0  0  0  0  0
   61.2300   32.1730   48.2160 C   0  0  0  0  0  0  0  0  0  0  0  0
   61.5010   31.3230   47.1410 C   0  0  0  0  0  0  0  0  0  0  0  0
   59.7352   34.9154   48.0605 H   0  0  0  0  0  0  0  0  0  0  0  0
   60.6944   34.2383   46.7011 H   0  0  0  0  0  0  0  0  0  0  0  0
   60.2392   35.9759   46.7011 H   0  0  0  0  0  0  0  0  0  0  0  0
   57.5595   33.6595   48.1473 H   0  0  0  0  0  0  0  0  0  0  0  0
   56.3276   33.6571   46.8400 H   0  0  0  0  0  0  0  0  0  0  0  0
   57.6396   32.4302   46.8400 H   0  0  0  0  0  0  0  0  0  0  0  0
   58.1399   34.3498   43.7492 H   0  0  0  0  0  0  0  0  0  0  0  0
   59.8416   34.0485   44.2836 H   0  0  0  0  0  0  0  0  0  0  0  0
   59.0459   31.9260   43.6187 H   0  0  0  0  0  0  0  0  0  0  0  0
   58.9026   31.9515   45.4376 H   0  0  0  0  0  0  0  0  0  0  0  0
   56.4377   32.8319   44.7790 H   0  0  0  0  0  0  0  0  0  0  0  0
   56.7931   31.7925   43.3400 H   0  0  0  0  0  0  0  0  0  0  0  0
   57.0050   27.7028   43.7982 H   0  0  0  0  0  0  0  0  0  0  0  0
   57.2471   29.1326   42.7205 H   0  0  0  0  0  0  0  0  0  0  0  0
   59.0610   29.8820   44.2650 H   0  0  0  0  0  0  0  0  0  0  0  0
   60.5730   27.7018   46.6324 H   0  0  0  0  0  0  0  0  0  0  0  0
   61.4678   27.6156   45.0681 H   0  0  0  0  0  0  0  0  0  0  0  0
   58.6022   29.5075   47.1361 H   0  0  0  0  0  0  0  0  0  0  0  0
   58.1246   31.0248   49.0596 H   0  0  0  0  0  0  0  0  0  0  0  0
   61.9695   32.9293   48.5179 H   0  0  0  0  0  0  0  0  0  0  0  0
   62.4534   31.4162   46.5986 H   0  0  0  0  0  0  0  0  0  0  0  0
  1  2  1  0
  2  3  1  0
  2  4  1  0
  4  5  1  0
  5  6  1  0
  6  7  1  0
  7  8  1  0
  8  9  2  0
  8 10  1  0
 10 11  1  0
 11 12  1  0
 12 13  2  0
 12 14  1  0
 14 15  1  0
 15 16  1  0
 16 17  2  0
 17 18  1  0
 18 19  2  0
 19 20  1  0
 19 21  1  0
 21 22  2  0
 22 16  1  0
  1 23  1  0
  1 24  1  0
  1 25  1  0
  3 26  1  0
  3 27  1  0
  3 28  1  0
  4 29  1  0
  4 30  1  0
  5 31  1  0
  5 32  1  0
  6 33  1  0
  6 34  1  0
 10 35  1  0
 10 36  1  0
 11 37  1  0
 14 38  1  0
 14 39  1  0
 17 40  1  0
 18 41  1  0
 21 42  1  0
 22 43  1  0
M  CHG  2   2   1   7  -1
M  END
>  <UniqueID>  (12) 
12

>  <SMILES>  (12) 
C[S+](C)CCC[N-]C(=O)CNC(=O)COc1ccc(Br)cc1

>  <Energy>  (12) 
18.35904357211763

>  <Genealogy>  (12) 
C[S+](C)CCC[N-]C(=O)CNC(=O)COc1ccc(Br)cc1 (protonated)
C[S+](C)CCC[N-]C(=O)CNC(=O)COc1ccc(Br)cc1 (3D coordinates assigned)
C[S+](C)CCC[N-]C(=O)CNC(=O)COc1ccc(Br)cc1 (optimized conformer: 18.35904357211763 kcal/mol)

>  <smiles>  (12) 
C[S+](C)CCCNC(=O)CNC(=O)COc1ccc(Br)cc1

>  <score_type>  (12) 
oracle

>  <origin>  (12) 
adg

>  <m_score__min__energy>  (12) 
-7.5999999999999996

>  <m_primary>  (12) 
energy

$$$$
12:0
     RDKit          3D

 54 57  0  0  0  0  0  0  0  0999 V2000
   57.8140   31.9400   50.9290 C   0  0  0  0  0  0  0  0  0  0  0  0
   58.9120   30.8850   51.0070 C   0  0  0  0  0  0  0  0  0  0  0  0
   59.8130   31.0440   49.9260 O   0  0  0  0  0  0  0  0  0  0  0  0
   59.5410   30.1420   48.8690 C   0  0  0  0  0  0  0  0  0  0  0  0
   58.9790   30.8450   47.7130 N   0  0  0  0  0  0  0  0  0  0  0  0
   58.7350   32.1480   47.7340 N   0  0  0  0  0  0  0  0  0  0  0  0
   58.1670   32.5140   46.5740 C   0  0  0  0  0  0  0  0  0  0  0  0
   57.8920   33.9350   46.1890 C   0  0  0  0  0  0  0  0  0  0  0  0
   58.7390   34.8310   46.9850 N   0  0  0  0  0  0  0  0  0  0  0  0
   60.0360   35.0970   46.3420 C   0  0  0  0  0  0  0  0  0  0  0  0
   60.9840   33.8820   46.3380 C   0  0  0  0  0  0  0  0  0  0  0  0
   61.7930   33.8160   47.5550 N   0  0  0  0  0  0  0  0  0  0  0  0
   63.2210   33.5330   47.6200 C   0  0  0  0  0  0  0  0  0  0  0  0
   63.5510   33.4560   49.1310 C   0  0  0  0  0  0  0  0  0  0  0  0
   62.3120   33.6530   49.8070 O   0  0  0  0  0  0  0  0  0  0  0  0
   61.3140   33.8570   48.8830 C   0  0  0  0  0  0  0  0  0  0  0  0
   60.1100   34.0510   49.1930 O   0  0  0  0  0  0  0  0  0  0  0  0
   58.0340   31.3940   45.7770 C   0  0  0  0  0  0  0  0  0  0  0  0
   58.5870   30.3470   46.5070 C   0  0  0  0  0  0  0  0  0  0  0  0
   58.6300   28.9320   46.0170 C   0  0  0  0  0  0  0  0  0  0  0  0
   59.5610   27.9920   46.5020 C   0  0  0  0  0  0  0  0  0  0  0  0
   59.5540   26.6750   46.0360 C   0  0  0  0  0  0  0  0  0  0  0  0
   58.6420   26.2790   45.0590 C   0  0  0  0  0  0  0  0  0  0  0  0
   57.7540   27.2090   44.5190 C   0  0  0  0  0  0  0  0  0  0  0  0
   57.7570   28.5340   44.9740 C   0  0  0  0  0  0  0  0  0  0  0  0
   56.7060   29.7120   44.1960 S   0  0  0  0  0  0  0  0  0  0  0  0
   55.3510   29.7000   44.8470 O   0  0  0  0  0  0  0  0  0  0  0  0
   56.5690   29.4110   42.7290 O   0  0  0  0  0  0  0  0  0  0  0  0
   57.4670   31.3070   44.3960 C   0  0  0  0  0  0  0  0  0  0  0  0
   57.5117   32.2305   51.9460 H   0  0  0  0  0  0  0  0  0  0  0  0
   58.1914   32.8230   50.3924 H   0  0  0  0  0  0  0  0  0  0  0  0
   56.9468   31.5277   50.3924 H   0  0  0  0  0  0  0  0  0  0  0  0
   59.4577   30.9963   51.9556 H   0  0  0  0  0  0  0  0  0  0  0  0
   58.4568   29.8850   50.9541 H   0  0  0  0  0  0  0  0  0  0  0  0
   60.4760   29.6461   48.5692 H   0  0  0  0  0  0  0  0  0  0  0  0
   58.8080   29.4006   49.2197 H   0  0  0  0  0  0  0  0  0  0  0  0
   58.9560   32.7850   48.5320 H   0  0  0  0  0  0  0  0  0  0  0  0
   58.1133   34.0747   45.1206 H   0  0  0  0  0  0  0  0  0  0  0  0
   56.8336   34.1675   46.3781 H   0  0  0  0  0  0  0  0  0  0  0  0
   58.2370   35.7310   47.1700 H   0  0  0  0  0  0  0  0  0  0  0  0
   59.8522   35.3980   45.3001 H   0  0  0  0  0  0  0  0  0  0  0  0
   60.5288   35.8884   46.9257 H   0  0  0  0  0  0  0  0  0  0  0  0
   60.3840   32.9633   46.2598 H   0  0  0  0  0  0  0  0  0  0  0  0
   61.6659   33.9851   45.4811 H   0  0  0  0  0  0  0  0  0  0  0  0
   63.4476   32.5764   47.1264 H   0  0  0  0  0  0  0  0  0  0  0  0
   63.8166   34.3030   47.1077 H   0  0  0  0  0  0  0  0  0  0  0  0
   63.9724   32.4714   49.3818 H   0  0  0  0  0  0  0  0  0  0  0  0
   64.2969   34.2101   49.4225 H   0  0  0  0  0  0  0  0  0  0  0  0
   60.3013   28.2985   47.2557 H   0  0  0  0  0  0  0  0  0  0  0  0
   60.2717   25.9469   46.4420 H   0  0  0  0  0  0  0  0  0  0  0  0
   58.6227   25.2345   44.7144 H   0  0  0  0  0  0  0  0  0  0  0  0
   57.0487   26.9011   43.7330 H   0  0  0  0  0  0  0  0  0  0  0  0
   58.2719   31.4292   43.6563 H   0  0  0  0  0  0  0  0  0  0  0  0
   56.7213   32.1013   44.2447 H   0  0  0  0  0  0  0  0  0  0  0  0
  1  2  1  0
  2  3  1  0
  3  4  1  0
  4  5  1  0
  5  6  1  0
  6  7  2  0
  7  8  1  0
  8  9  1  0
  9 10  1  0
 10 11  1  0
 11 12  1  0
 12 13  1  0
 13 14  1  0
 14 15  1  0
 15 16  1  0
 16 17  2  0
  7 18  1  0
 18 19  2  0
 19 20  1  0
 20 21  2  0
 21 22  1  0
 22 23  2  0
 23 24  1  0
 24 25  2  0
 25 26  1  0
 26 27  2  0
 26 28  2  0
 26 29  1  0
 19  5  1  0
 25 20  1  0
 16 12  1  0
 29 18  1  0
  1 30  1  0
  1 31  1  0
  1 32  1  0
  2 33  1  0
  2 34  1  0
  4 35  1  0
  4 36  1  0
  6 37  1  0
  8 38  1  0
  8 39  1  0
  9 40  1  0
 10 41  1  0
 10 42  1  0
 11 43  1  0
 11 44  1  0
 13 45  1  0
 13 46  1  0
 14 47  1  0
 14 48  1  0
 21 49  1  0
 22 50  1  0
 23 51  1  0
 24 52  1  0
 29 53  1  0
 29 54  1  0
M  CHG  1   6   1
M  END
>  <UniqueID>  (13) 
13

>  <SMILES>  (13) 
CCOCn1[nH+]c(CNCCN2CCOC2=O)c2c1-c1ccccc1S(=O)(=O)C2

>  <Energy>  (13) 
105.47150756496306

>  <Genealogy>  (13) 
CCOCn1[nH+]c(CNCCN2CCOC2=O)c2c1-c1ccccc1S(=O)(=O)C2 (protonated)
CCOCn1[nH+]c(CNCCN2CCOC2=O)c2c1-c1ccccc1S(=O)(=O)C2 (3D coordinates assigned)
CCOCn1[nH+]c(CNCCN2CCOC2=O)c2c1-c1ccccc1S(=O)(=O)C2 (nonaromatic ring conformer: 105.47150756496306 kcal/mol)

>  <smiles>  (13) 
CCOCn1nc(CNCCN2CCOC2=O)c2c1-c1ccccc1S(=O)(=O)C2

>  <score_type>  (13) 
oracle

>  <origin>  (13) 
adg

>  <m_score__min__energy>  (13) 
-6.7400000000000002

>  <m_primary>  (13) 
energy

$$$$
13:0
     RDKit          3D

 51 54  0  0  0  0  0  0  0  0999 V2000
   63.3720   32.6340   47.1630 C   0  0  0  0  0  0  0  0  0  0  0  0
   61.9620   32.4400   47.7490 C   0  0  0  0  0  0  0  0  0  0  0  0
   61.9420   32.9470   49.2000 C   0  0  0  0  0  0  0  0  0  0  0  0
   61.5390   31.0200   47.6970 N   0  0  0  0  0  0  0  0  0  0  0  0
   60.7050   30.6450   48.8540 C   0  0  0  0  0  0  0  0  0  0  0  0
   59.9860   29.3060   48.6220 C   0  0  0  0  0  0  0  0  0  0  0  0
   58.7030   29.5030   47.9460 N   0  0  0  0  0  0  0  0  0  0  0  0
   58.4860   29.0520   46.6010 C   0  0  0  0  0  0  0  0  0  0  0  0
   58.4220   27.6740   46.2820 C   0  0  0  0  0  0  0  0  0  0  0  0
   58.6430   26.6920   47.2700 C   0  0  0  0  0  0  0  0  0  0  0  0
   58.5950   25.3370   46.9500 C   0  0  0  0  0  0  0  0  0  0  0  0
   58.3330   24.9350   45.6450 C   0  0  0  0  0  0  0  0  0  0  0  0
   58.0980   25.8810   44.6480 C   0  0  0  0  0  0  0  0  0  0  0  0
   58.1080   27.2670   44.9400 C   0  0  0  0  0  0  0  0  0  0  0  0
   57.8330   28.2160   43.9650 N   0  0  0  0  0  0  0  0  0  0  0  0
   57.3960   27.8260   42.6120 C   0  0  0  0  0  0  0  0  0  0  0  0
   57.9980   29.5390   44.2810 C   0  0  0  0  0  0  0  0  0  0  0  0
   57.9240   30.5870   43.4230 N   0  0  0  0  0  0  0  0  0  0  0  0
   58.2110   31.6720   44.1680 C   0  0  0  0  0  0  0  0  0  0  0  0
   58.3070   32.9890   43.7190 C   0  0  0  0  0  0  0  0  0  0  0  0
   58.6840   33.9770   44.6440 C   0  0  0  0  0  0  0  0  0  0  0  0
   58.9740   33.6320   45.9820 C   0  0  0  0  0  0  0  0  0  0  0  0
   59.5190   34.9840   47.2150 Br  0  0  0  0  0  0  0  0  0  0  0  0
   58.8800   32.2950   46.4100 C   0  0  0  0  0  0  0  0  0  0  0  0
   58.4690   31.3350   45.4800 C   0  0  0  0  0  0  0  0  0  0  0  0
   58.3210   29.9600   45.5560 C   0  0  0  0  0  0  0  0  0  0  0  0
   64.0990   32.7340   47.9824 H   0  0  0  0  0  0  0  0  0  0  0  0
   63.6347   31.7635   46.5439 H   0  0  0  0  0  0  0  0  0  0  0  0
   63.3899   33.5431   46.5439 H   0  0  0  0  0  0  0  0  0  0  0  0
   61.2506   33.0180   47.1408 H   0  0  0  0  0  0  0  0  0  0  0  0
   61.9758   32.0897   49.8884 H   0  0  0  0  0  0  0  0  0  0  0  0
   62.8154   33.5924   49.3750 H   0  0  0  0  0  0  0  0  0  0  0  0
   61.0205   33.5216   49.3750 H   0  0  0  0  0  0  0  0  0  0  0  0
   62.3870   30.4070   47.7100 H   0  0  0  0  0  0  0  0  0  0  0  0
   61.0290   30.8380   46.8040 H   0  0  0  0  0  0  0  0  0  0  0  0
   61.3467   30.5565   49.7431 H   0  0  0  0  0  0  0  0  0  0  0  0
   59.9427   31.4251   48.9964 H   0  0  0  0  0  0  0  0  0  0  0  0
   60.6233   28.6598   48.0005 H   0  0  0  0  0  0  0  0  0  0  0  0
   59.7959   28.8394   49.5998 H   0  0  0  0  0  0  0  0  0  0  0  0
   58.0420   30.2020   48.3530 H   0  0  0  0  0  0  0  0  0  0  0  0
   58.8556   26.9994   48.3046 H   0  0  0  0  0  0  0  0  0  0  0  0
   58.7649   24.5826   47.7323 H   0  0  0  0  0  0  0  0  0  0  0  0
   58.3110   23.8634   45.3975 H   0  0  0  0  0  0  0  0  0  0  0  0
   57.9018   25.5458   43.6188 H   0  0  0  0  0  0  0  0  0  0  0  0
   56.5772   27.0953   42.6875 H   0  0  0  0  0  0  0  0  0  0  0  0
   57.0443   28.7160   42.0695 H   0  0  0  0  0  0  0  0  0  0  0  0
   58.2404   27.3758   42.0695 H   0  0  0  0  0  0  0  0  0  0  0  0
   57.7500   30.5850   42.3940 H   0  0  0  0  0  0  0  0  0  0  0  0
   58.0937   33.2467   42.6711 H   0  0  0  0  0  0  0  0  0  0  0  0
   58.7537   35.0269   44.3235 H   0  0  0  0  0  0  0  0  0  0  0  0
   59.1226   32.0133   47.4453 H   0  0  0  0  0  0  0  0  0  0  0  0
  1  2  1  0
  2  3  1  0
  2  4  1  0
  4  5  1  0
  5  6  1  0
  6  7  1  0
  7  8  1  0
  8  9  2  0
  9 10  1  0
 10 11  2  0
 11 12  1  0
 12 13  2  0
 13 14  1  0
 14 15  2  0
 15 16  1  0
 15 17  1  0
 17 18  1  0
 18 19  1  0
 19 20  2  0
 20 21  1  0
 21 22  2  0
 22 23  1  0
 22 24  1  0
 24 25  2  0
 25 26  1  0
 26  8  1  0
 14  9  1  0
 26 17  2  0
 25 19  1  0
  1 27  1  0
  1 28  1  0
  1 29  1  0
  2 30  1  0
  3 31  1  0
  3 32  1  0
  3 33  1  0
  4 34  1  0
  4 35  1  0
  5 36  1  0
  5 37  1  0
  6 38  1  0
  6 39  1  0
  7 40  1  0
 10 41  1  0
 11 42  1  0
 12 43  1  0
 13 44  1  0
 16 45  1  0
 16 46  1  0
 16 47  1  0
 18 48  1  0
 20 49  1  0
 21 50  1  0
 24 51  1  0
M  CHG  2   4   1  15   1
M  END
>  <UniqueID>  (14) 
14

>  <SMILES>  (14) 
CC(C)[NH2+]CCNc1c2ccccc2[n+](C)c2[nH]c3ccc(Br)cc3c12

>  <Energy>  (14) 
105.92525785927934

>  <Genealogy>  (14) 
CC(C)[NH2+]CCNc1c2ccccc2[n+](C)c2[nH]c3ccc(Br)cc3c12 (protonated)
CC(C)[NH2+]CCNc1c2ccccc2[n+](C)c2[nH]c3ccc(Br)cc3c12 (3D coordinates assigned)
CC(C)[NH2+]CCNc1c2ccccc2[n+](C)c2[nH]c3ccc(Br)cc3c12 (optimized conformer: 105.92525785927934 kcal/mol)

>  <smiles>  (14) 
CC(C)NCCNc1c2ccccc2[n+](C)c2[nH]c3ccc(Br)cc3c12

>  <score_type>  (14) 
oracle

>  <origin>  (14) 
adg

>  <m_score__min__energy>  (14) 
-5.2999999999999998

>  <m_primary>  (14) 
energy

$$$$
14:0
     RDKit          3D

 48 50  0  0  0  0  0  0  0  0999 V2000
   63.4020   33.5950   46.7410 C   0  0  0  0  0  0  0  0  0  0  0  0
   63.0440   33.6990   48.2270 C   0  0  0  0  0  0  0  0  0  0  0  0
   61.5950   33.8160   48.4540 N   0  0  0  0  0  0  0  0  0  0  0  0
   61.1390   32.9710   49.5650 C   0  0  0  0  0  0  0  0  0  0  0  0
   60.3160   31.7960   49.0180 C   0  0  0  0  0  0  0  0  0  0  0  0
   60.8500   31.2790   47.7440 N   0  0  0  0  0  0  0  0  0  0  0  0
   59.8010   31.0490   46.7600 C   0  0  0  0  0  0  0  0  0  0  0  0
   59.2650   32.1170   45.9880 C   0  0  0  0  0  0  0  0  0  0  0  0
   58.2180   31.8640   45.0750 C   0  0  0  0  0  0  0  0  0  0  0  0
   57.8340   30.5750   44.7870 N   0  0  0  0  0  0  0  0  0  0  0  0
   56.9940   30.3110   43.5990 C   0  0  0  0  0  0  0  0  0  0  0  0
   58.2450   29.5350   45.5940 C   0  0  0  0  0  0  0  0  0  0  0  0
   57.6640   28.2460   45.4820 C   0  0  0  0  0  0  0  0  0  0  0  0
   58.1110   27.1810   46.2620 C   0  0  0  0  0  0  0  0  0  0  0  0
   57.3760   25.5970   46.0930 Cl  0  0  0  0  0  0  0  0  0  0  0  0
   59.1380   27.3740   47.1750 C   0  0  0  0  0  0  0  0  0  0  0  0
   59.7040   28.6350   47.3370 C   0  0  0  0  0  0  0  0  0  0  0  0
   59.2580   29.7450   46.5760 C   0  0  0  0  0  0  0  0  0  0  0  0
   57.5630   33.0660   44.4100 C   0  0  0  0  0  0  0  0  0  0  0  0
   57.3800   34.2130   45.4150 C   0  0  0  0  0  0  0  0  0  0  0  0
   58.6700   34.5650   46.1860 C   0  0  0  0  0  0  0  0  0  0  0  0
   59.8000   33.5430   46.0010 C   0  0  0  0  0  0  0  0  0  0  0  0
   64.4537   33.2895   46.6377 H   0  0  0  0  0  0  0  0  0  0  0  0
   62.7541   32.8479   46.2592 H   0  0  0  0  0  0  0  0  0  0  0  0
   63.2552   34.5729   46.2592 H   0  0  0  0  0  0  0  0  0  0  0  0
   63.4093   32.7978   48.7411 H   0  0  0  0  0  0  0  0  0  0  0  0
   63.5171   34.6109   48.6202 H   0  0  0  0  0  0  0  0  0  0  0  0
   61.3570   34.8150   48.6630 H   0  0  0  0  0  0  0  0  0  0  0  0
   62.0114   32.5833   50.1114 H   0  0  0  0  0  0  0  0  0  0  0  0
   60.5134   33.5688   50.2441 H   0  0  0  0  0  0  0  0  0  0  0  0
   60.3241   30.9837   49.7597 H   0  0  0  0  0  0  0  0  0  0  0  0
   59.2954   32.1608   48.8299 H   0  0  0  0  0  0  0  0  0  0  0  0
   61.5450   31.9590   47.3620 H   0  0  0  0  0  0  0  0  0  0  0  0
   61.4450   30.4430   47.9130 H   0  0  0  0  0  0  0  0  0  0  0  0
   55.9909   29.9957   43.9220 H   0  0  0  0  0  0  0  0  0  0  0  0
   56.9139   31.2273   42.9957 H   0  0  0  0  0  0  0  0  0  0  0  0
   57.4524   29.5136   42.9957 H   0  0  0  0  0  0  0  0  0  0  0  0
   56.8450   28.0838   44.7658 H   0  0  0  0  0  0  0  0  0  0  0  0
   59.5061   26.5272   47.7729 H   0  0  0  0  0  0  0  0  0  0  0  0
   60.5129   28.7732   48.0695 H   0  0  0  0  0  0  0  0  0  0  0  0
   58.1990   33.4107   43.5813 H   0  0  0  0  0  0  0  0  0  0  0  0
   56.5739   32.7654   44.0342 H   0  0  0  0  0  0  0  0  0  0  0  0
   57.0466   35.1066   44.8671 H   0  0  0  0  0  0  0  0  0  0  0  0
   56.6395   33.8793   46.1568 H   0  0  0  0  0  0  0  0  0  0  0  0
   59.0273   35.5445   45.8354 H   0  0  0  0  0  0  0  0  0  0  0  0
   58.4132   34.5690   47.2556 H   0  0  0  0  0  0  0  0  0  0  0  0
   60.3098   33.7424   45.0469 H   0  0  0  0  0  0  0  0  0  0  0  0
   60.4977   33.6426   46.8456 H   0  0  0  0  0  0  0  0  0  0  0  0
  1  2  1  0
  2  3  1  0
  3  4  1  0
  4  5  1  0
  5  6  1  0
  6  7  1  0
  7  8  2  0
  8  9  1  0
  9 10  2  0
 10 11  1  0
 10 12  1  0
 12 13  2  0
 13 14  1  0
 14 15  1  0
 14 16  2  0
 16 17  1  0
 17 18  2  0
  9 19  1  0
 19 20  1  0
 20 21  1  0
 21 22  1  0
 18  7  1  0
 22  8  1  0
 18 12  1  0
  1 23  1  0
  1 24  1  0
  1 25  1  0
  2 26  1  0
  2 27  1  0
  3 28  1  0
  4 29  1  0
  4 30  1  0
  5 31  1  0
  5 32  1  0
  6 33  1  0
  6 34  1  0
 11 35  1  0
 11 36  1  0
 11 37  1  0
 13 38  1  0
 16 39  1  0
 17 40  1  0
 19 41  1  0
 19 42  1  0
 20 43  1  0
 20 44  1  0
 21 45  1  0
 21 46  1  0
 22 47  1  0
 22 48  1  0
M  CHG  2   6   1  10   1
M  END
>  <UniqueID>  (15) 
15

>  <SMILES>  (15) 
CCNCC[NH2+]c1c2c([n+](C)c3cc(Cl)ccc13)CCCC2

>  <Energy>  (15) 
73.61221884031063

>  <Genealogy>  (15) 
CCNCC[NH2+]c1c2c([n+](C)c3cc(Cl)ccc13)CCCC2 (protonated)
CCNCC[NH2+]c1c2c([n+](C)c3cc(Cl)ccc13)CCCC2 (3D coordinates assigned)
CCNCC[NH2+]c1c2c([n+](C)c3cc(Cl)ccc13)CCCC2 (nonaromatic ring conformer: 73.61221884031063 kcal/mol)

>  <smiles>  (15) 
CCNCCNc1c2c([n+](C)c3cc(Cl)ccc13)CCCC2

>  <score_type>  (15) 
oracle

>  <origin>  (15) 
adg

>  <m_score__min__energy>  (15) 
-4.6699999999999999

>  <m_primary>  (15) 
energy

$$$$
15:0
     RDKit          3D

 56 57  0  0  0  0  0  0  0  0999 V2000
   59.1120   33.5080   51.2470 C   0  0  0  0  0  0  0  0  0  0  0  0
   58.9060   32.5120   50.1060 C   0  0  0  0  0  0  0  0  0  0  0  0
   60.1580   31.8000   49.7580 N   0  0  0  0  0  0  0  0  0  0  0  0
   60.0910   30.3640   50.1120 C   0  0  0  0  0  0  0  0  0  0  0  0
   58.8090   29.7360   49.5710 C   0  0  0  0  0  0  0  0  0  0  0  0
   61.3960   32.4550   50.2570 C   0  0  0  0  0  0  0  0  0  0  0  0
   62.7140   31.8740   49.7090 C   0  0  0  0  0  0  0  0  0  0  0  0
   62.5300   31.3830   48.3990 O   0  0  0  0  0  0  0  0  0  0  0  0
   63.3640   32.0880   47.5030 C   0  0  0  0  0  0  0  0  0  0  0  0
   62.6720   33.3770   47.0800 C   0  0  0  0  0  0  0  0  0  0  0  0
   61.4670   33.0610   46.4150 O   0  0  0  0  0  0  0  0  0  0  0  0
   60.7780   34.2360   46.0340 C   0  0  0  0  0  0  0  0  0  0  0  0
   59.6230   34.5310   46.9950 C   0  0  0  0  0  0  0  0  0  0  0  0
   58.8440   33.3570   47.2070 O   0  0  0  0  0  0  0  0  0  0  0  0
   58.4990   32.5000   46.1560 C   0  0  0  0  0  0  0  0  0  0  0  0
   57.5230   32.8800   45.2060 C   0  0  0  0  0  0  0  0  0  0  0  0
   56.8630   34.2300   45.2500 C   0  0  0  0  0  0  0  0  0  0  0  0
   57.1410   31.9740   44.2050 C   0  0  0  0  0  0  0  0  0  0  0  0
   57.7480   30.7210   44.1090 C   0  0  0  0  0  0  0  0  0  0  0  0
   58.7560   30.3580   45.0090 C   0  0  0  0  0  0  0  0  0  0  0  0
   59.3920   29.1150   44.9080 C   0  0  0  0  0  0  0  0  0  0  0  0
   60.4040   28.7780   45.8040 C   0  0  0  0  0  0  0  0  0  0  0  0
   60.7740   29.6870   46.7940 C   0  0  0  0  0  0  0  0  0  0  0  0
   60.1450   30.8900   46.8960 N   0  0  0  0  0  0  0  0  0  0  0  0
   59.1450   31.2510   46.0350 C   0  0  0  0  0  0  0  0  0  0  0  0
   59.0046   32.9888   52.2108 H   0  0  0  0  0  0  0  0  0  0  0  0
   60.1193   33.9441   51.1757 H   0  0  0  0  0  0  0  0  0  0  0  0
   58.3603   34.3079   51.1757 H   0  0  0  0  0  0  0  0  0  0  0  0
   58.1505   31.7732   50.4115 H   0  0  0  0  0  0  0  0  0  0  0  0
   58.5771   33.0741   49.2195 H   0  0  0  0  0  0  0  0  0  0  0  0
   60.9586   29.8442   49.6794 H   0  0  0  0  0  0  0  0  0  0  0  0
   60.0974   30.2684   51.2078 H   0  0  0  0  0  0  0  0  0  0  0  0
   58.1710   29.4235   50.4108 H   0  0  0  0  0  0  0  0  0  0  0  0
   58.2710   30.4726   48.9562 H   0  0  0  0  0  0  0  0  0  0  0  0
   59.0612   28.8594   48.9562 H   0  0  0  0  0  0  0  0  0  0  0  0
   61.3527   33.5189   49.9811 H   0  0  0  0  0  0  0  0  0  0  0  0
   61.4154   32.2824   51.3432 H   0  0  0  0  0  0  0  0  0  0  0  0
   63.4798   32.6635   49.6956 H   0  0  0  0  0  0  0  0  0  0  0  0
   63.0350   31.0458   50.3578 H   0  0  0  0  0  0  0  0  0  0  0  0
   64.3163   32.3277   47.9986 H   0  0  0  0  0  0  0  0  0  0  0  0
   63.5607   31.4672   46.6165 H   0  0  0  0  0  0  0  0  0  0  0  0
   62.4525   33.9857   47.9696 H   0  0  0  0  0  0  0  0  0  0  0  0
   63.3290   33.9443   46.4043 H   0  0  0  0  0  0  0  0  0  0  0  0
   61.4793   35.0834   46.0437 H   0  0  0  0  0  0  0  0  0  0  0  0
   60.3654   34.0887   45.0250 H   0  0  0  0  0  0  0  0  0  0  0  0
   60.0303   34.8749   47.9572 H   0  0  0  0  0  0  0  0  0  0  0  0
   58.9829   35.3108   46.5565 H   0  0  0  0  0  0  0  0  0  0  0  0
   56.7154   34.5320   46.2974 H   0  0  0  0  0  0  0  0  0  0  0  0
   57.5022   34.9674   44.7424 H   0  0  0  0  0  0  0  0  0  0  0  0
   55.8885   34.1784   44.7424 H   0  0  0  0  0  0  0  0  0  0  0  0
   56.3549   32.2543   43.4884 H   0  0  0  0  0  0  0  0  0  0  0  0
   57.4334   30.0173   43.3242 H   0  0  0  0  0  0  0  0  0  0  0  0
   59.0931   28.4055   44.1223 H   0  0  0  0  0  0  0  0  0  0  0  0
   60.9071   27.8025   45.7309 H   0  0  0  0  0  0  0  0  0  0  0  0
   61.5797   29.4305   47.4976 H   0  0  0  0  0  0  0  0  0  0  0  0
   60.4570   31.5410   47.6500 H   0  0  0  0  0  0  0  0  0  0  0  0
  1  2  1  0
  2  3  1  0
  3  4  1  0
  4  5  1  0
  3  6  1  0
  6  7  1  0
  7  8  1  0
  8  9  1  0
  9 10  1  0
 10 11  1  0
 11 12  1  0
 12 13  1  0
 13 14  1  0
 14 15  1  0
 15 16  2  0
 16 17  1  0
 16 18  1  0
 18 19  2  0
 19 20  1  0
 20 21  2  0
 21 22  1  0
 22 23  2  0
 23 24  1  0
 24 25  2  0
 25 15  1  0
 25 20  1  0
  1 26  1  0
  1 27  1  0
  1 28  1  0
  2 29  1  0
  2 30  1  0
  4 31  1  0
  4 32  1  0
  5 33  1  0
  5 34  1  0
  5 35  1  0
  6 36  1  0
  6 37  1  0
  7 38  1  0
  7 39  1  0
  9 40  1  0
  9 41  1  0
 10 42  1  0
 10 43  1  0
 12 44  1  0
 12 45  1  0
 13 46  1  0
 13 47  1  0
 17 48  1  0
 17 49  1  0
 17 50  1  0
 18 51  1  0
 19 52  1  0
 21 53  1  0
 22 54  1  0
 23 55  1  0
 24 56  1  0
M  CHG  1  24   1
M  END
>  <UniqueID>  (16) 
16

>  <SMILES>  (16) 
CCN(CC)CCOCCOCCOc1c(C)ccc2ccc[nH+]c12

>  <Energy>  (16) 
61.87945008199713

>  <Genealogy>  (16) 
CCN(CC)CCOCCOCCOc1c(C)ccc2ccc[nH+]c12 (protonated)
CCN(CC)CCOCCOCCOc1c(C)ccc2ccc[nH+]c12 (3D coordinates assigned)
CCN(CC)CCOCCOCCOc1c(C)ccc2ccc[nH+]c12 (optimized conformer: 61.87945008199713 kcal/mol)

>  <smiles>  (16) 
CCN(CC)CCOCCOCCOc1c(C)ccc2cccnc12

>  <score_type>  (16) 
oracle

>  <origin>  (16) 
adg

>  <m_score__min__energy>  (16) 
-4.5

>  <m_primary>  (16) 
energy

$$$$
16:0
     RDKit          3D

 35 36  0  0  0  0  0  0  0  0999 V2000
   57.9000   28.2740   44.1450 C   0  0  0  0  0  0  0  0  0  0  0  0
   57.0300   28.7610   45.2980 C   0  0  0  0  0  0  0  0  0  0  0  0
   56.0910   29.7130   44.8350 O   0  0  0  0  0  0  0  0  0  0  0  0
   56.5640   30.3500   43.6670 C   0  0  0  0  0  0  0  0  0  0  0  0
   57.2160   31.6760   44.0500 C   0  0  0  0  0  0  0  0  0  0  0  0
   56.6950   32.1430   45.2810 O   0  0  0  0  0  0  0  0  0  0  0  0
   57.0530   33.4930   45.5070 C   0  0  0  0  0  0  0  0  0  0  0  0
   58.4730   33.5890   45.8500 N   0  0  0  0  0  0  0  0  0  0  0  0
   59.2780   34.6540   45.6210 C   0  0  0  0  0  0  0  0  0  0  0  0
   60.5480   34.4400   46.0380 N   0  0  0  0  0  0  0  0  0  0  0  0
   60.5400   33.1870   46.5380 C   0  0  0  0  0  0  0  0  0  0  0  0
   61.5920   32.4550   47.1230 C   0  0  0  0  0  0  0  0  0  0  0  0
   62.9320   32.9660   47.2350 N   0  0  0  0  0  0  0  0  0  0  0  0
   63.8050   32.3470   47.8770 O   0  0  0  0  0  0  0  0  0  0  0  0
   63.2420   34.2080   46.7310 O   0  0  0  0  0  0  0  0  0  0  0  0
   61.2790   31.1630   47.6070 C   0  0  0  0  0  0  0  0  0  0  0  0
   59.9740   30.6390   47.4870 C   0  0  0  0  0  0  0  0  0  0  0  0
   58.9530   31.3950   46.8900 C   0  0  0  0  0  0  0  0  0  0  0  0
   59.2740   32.6710   46.4280 C   0  0  0  0  0  0  0  0  0  0  0  0
   58.7938   27.7737   44.5460 H   0  0  0  0  0  0  0  0  0  0  0  0
   57.3283   27.5647   43.5285 H   0  0  0  0  0  0  0  0  0  0  0  0
   58.2057   29.1322   43.5285 H   0  0  0  0  0  0  0  0  0  0  0  0
   56.4943   27.9055   45.7352 H   0  0  0  0  0  0  0  0  0  0  0  0
   57.6719   29.2309   46.0577 H   0  0  0  0  0  0  0  0  0  0  0  0
   57.3042   29.7056   43.1701 H   0  0  0  0  0  0  0  0  0  0  0  0
   55.7249   30.5345   42.9800 H   0  0  0  0  0  0  0  0  0  0  0  0
   58.3021   31.5315   44.1473 H   0  0  0  0  0  0  0  0  0  0  0  0
   57.0030   32.4185   43.2669 H   0  0  0  0  0  0  0  0  0  0  0  0
   56.8590   34.0778   44.5957 H   0  0  0  0  0  0  0  0  0  0  0  0
   56.4548   33.8881   46.3413 H   0  0  0  0  0  0  0  0  0  0  0  0
   58.9380   35.5877   45.1493 H   0  0  0  0  0  0  0  0  0  0  0  0
   61.3330   35.1230   45.9860 H   0  0  0  0  0  0  0  0  0  0  0  0
   62.0642   30.5580   48.0838 H   0  0  0  0  0  0  0  0  0  0  0  0
   59.7551   29.6293   47.8646 H   0  0  0  0  0  0  0  0  0  0  0  0
   57.9335   30.9942   46.7899 H   0  0  0  0  0  0  0  0  0  0  0  0
  1  2  1  0
  2  3  1  0
  3  4  1  0
  4  5  1  0
  5  6  1  0
  6  7  1  0
  7  8  1  0
  8  9  1  0
  9 10  2  0
 10 11  1  0
 11 12  2  0
 12 13  1  0
 13 14  2  0
 13 15  1  0
 12 16  1  0
 16 17  2  0
 17 18  1  0
 18 19  2  0
 19  8  1  0
 19 11  1  0
  1 20  1  0
  1 21  1  0
  1 22  1  0
  2 23  1  0
  2 24  1  0
  4 25  1  0
  4 26  1  0
  5 27  1  0
  5 28  1  0
  7 29  1  0
  7 30  1  0
  9 31  1  0
 10 32  1  0
 16 33  1  0
 17 34  1  0
 18 35  1  0
M  CHG  3  10   1  13   1  15  -1
M  END
>  <UniqueID>  (17) 
17

>  <SMILES>  (17) 
CCOCCOCn1c[nH+]c2c([N+](=O)[O-])cccc21

>  <Energy>  (17) 
76.69542247952208

>  <Genealogy>  (17) 
CCOCCOCn1c[nH+]c2c([N+](=O)[O-])cccc21 (protonated)
CCOCCOCn1c[nH+]c2c([N+](=O)[O-])cccc21 (3D coordinates assigned)
CCOCCOCn1c[nH+]c2c([N+](=O)[O-])cccc21 (optimized conformer: 76.69542247952208 kcal/mol)

>  <smiles>  (17) 
CCOCCOCn1cnc2c([N+](=O)[O-])cccc21

>  <score_type>  (17) 
oracle

>  <origin>  (17) 
adg

>  <m_score__min__energy>  (17) 
-4.6900000000000004

>  <m_primary>  (17) 
energy

$$$$
17:0
     RDKit          3D

 52 55  0  0  0  0  0  0  0  0999 V2000
   51.4590   23.8680   44.3900 C   0  0  0  0  0  0  0  0  0  0  0  0
   52.1930   22.7580   44.8730 O   0  0  0  0  0  0  0  0  0  0  0  0
   53.1460   23.1750   45.8380 C   0  0  0  0  0  0  0  0  0  0  0  0
   54.0130   24.2930   45.2660 C   0  0  0  0  0  0  0  0  0  0  0  0
   55.2760   23.7740   44.8510 O   0  0  0  0  0  0  0  0  0  0  0  0
   56.5040   24.4050   45.0990 C   0  0  0  0  0  0  0  0  0  0  0  0
   56.6210   25.8090   45.2600 C   0  0  0  0  0  0  0  0  0  0  0  0
   57.8800   26.4160   45.5170 C   0  0  0  0  0  0  0  0  0  0  0  0
   57.9830   27.8860   45.6860 C   0  0  0  0  0  0  0  0  0  0  0  0
   59.0300   28.4540   46.4290 C   0  0  0  0  0  0  0  0  0  0  0  0
   59.1130   29.8380   46.5850 C   0  0  0  0  0  0  0  0  0  0  0  0
   58.1500   30.6630   45.9810 C   0  0  0  0  0  0  0  0  0  0  0  0
   58.1930   32.0970   46.1290 N   0  0  0  0  0  0  0  0  0  0  0  0
   58.8530   32.6690   47.3100 C   0  0  0  0  0  0  0  0  0  0  0  0
   58.8950   34.2010   47.2250 C   0  0  0  0  0  0  0  0  0  0  0  0
   59.2320   34.6280   45.8610 N   0  0  0  0  0  0  0  0  0  0  0  0
   58.2080   34.2330   44.8710 C   0  0  0  0  0  0  0  0  0  0  0  0
   57.3960   32.9820   45.2690 C   0  0  0  0  0  0  0  0  0  0  0  0
   57.1360   30.0900   45.2770 N   0  0  0  0  0  0  0  0  0  0  0  0
   57.0300   28.7450   45.1170 C   0  0  0  0  0  0  0  0  0  0  0  0
   59.0340   25.6070   45.6140 C   0  0  0  0  0  0  0  0  0  0  0  0
   58.8930   24.2350   45.4540 C   0  0  0  0  0  0  0  0  0  0  0  0
   59.8680   23.3070   45.5060 N   0  0  0  0  0  0  0  0  0  0  0  0
   59.1990   22.1470   45.2860 C   0  0  0  0  0  0  0  0  0  0  0  0
   57.8670   22.3220   45.1140 N   0  0  0  0  0  0  0  0  0  0  0  0
   56.8930   21.2810   44.8030 C   0  0  0  0  0  0  0  0  0  0  0  0
   57.6820   23.6520   45.2070 C   0  0  0  0  0  0  0  0  0  0  0  0
   51.0737   24.4506   45.2398 H   0  0  0  0  0  0  0  0  0  0  0  0
   52.1156   24.5033   43.7775 H   0  0  0  0  0  0  0  0  0  0  0  0
   50.6173   23.5125   43.7775 H   0  0  0  0  0  0  0  0  0  0  0  0
   52.6218   23.5420   46.7327 H   0  0  0  0  0  0  0  0  0  0  0  0
   53.7868   22.3217   46.1049 H   0  0  0  0  0  0  0  0  0  0  0  0
   53.5028   24.7421   44.4011 H   0  0  0  0  0  0  0  0  0  0  0  0
   54.1756   25.0544   46.0431 H   0  0  0  0  0  0  0  0  0  0  0  0
   55.7223   26.4388   45.1847 H   0  0  0  0  0  0  0  0  0  0  0  0
   59.7886   27.8047   46.8904 H   0  0  0  0  0  0  0  0  0  0  0  0
   59.9276   30.2803   47.1773 H   0  0  0  0  0  0  0  0  0  0  0  0
   58.2971   32.3733   48.2120 H   0  0  0  0  0  0  0  0  0  0  0  0
   59.8850   32.2908   47.3539 H   0  0  0  0  0  0  0  0  0  0  0  0
   57.9099   34.6065   47.4990 H   0  0  0  0  0  0  0  0  0  0  0  0
   59.6634   34.5762   47.9169 H   0  0  0  0  0  0  0  0  0  0  0  0
   60.1460   34.1910   45.5940 H   0  0  0  0  0  0  0  0  0  0  0  0
   57.5088   35.0725   44.7435 H   0  0  0  0  0  0  0  0  0  0  0  0
   58.7437   33.9817   43.9437 H   0  0  0  0  0  0  0  0  0  0  0  0
   56.4926   33.2958   45.8125 H   0  0  0  0  0  0  0  0  0  0  0  0
   57.1211   32.4338   44.3558 H   0  0  0  0  0  0  0  0  0  0  0  0
   56.1929   28.3271   44.5385 H   0  0  0  0  0  0  0  0  0  0  0  0
   60.0200   26.0530   45.8114 H   0  0  0  0  0  0  0  0  0  0  0  0
   59.6895   21.1630   45.2509 H   0  0  0  0  0  0  0  0  0  0  0  0
   56.4972   20.8580   45.7381 H   0  0  0  0  0  0  0  0  0  0  0  0
   56.0679   21.7137   44.2182 H   0  0  0  0  0  0  0  0  0  0  0  0
   57.3796   20.4865   44.2182 H   0  0  0  0  0  0  0  0  0  0  0  0
  1  2  1  0
  2  3  1  0
  3  4  1  0
  4  5  1  0
  5  6  1  0
  6  7  2  0
  7  8  1  0
  8  9  1  0
  9 10  2  0
 10 11  1  0
 11 12  2  0
 12 13  1  0
 13 14  1  0
 14 15  1  0
 15 16  1  0
 16 17  1  0
 17 18  1  0
 12 19  1  0
 19 20  2  0
  8 21  2  0
 21 22  1  0
 22 23  1  0
 23 24  2  0
 24 25  1  0
 25 26  1  0
 25 27  1  0
 27  6  1  0
 20  9  1  0
 27 22  2  0
 18 13  1  0
  1 28  1  0
  1 29  1  0
  1 30  1  0
  3 31  1  0
  3 32  1  0
  4 33  1  0
  4 34  1  0
  7 35  1  0
 10 36  1  0
 11 37  1  0
 14 38  1  0
 14 39  1  0
 15 40  1  0
 15 41  1  0
 16 42  1  0
 17 43  1  0
 17 44  1  0
 18 45  1  0
 18 46  1  0
 20 47  1  0
 21 48  1  0
 24 49  1  0
 26 50  1  0
 26 51  1  0
 26 52  1  0
M  END
>  <UniqueID>  (18) 
18

>  <SMILES>  (18) 
COCCOc1cc(-c2ccc(N3CCNCC3)nc2)cc2ncn(C)c12

>  <Energy>  (18) 
104.64838372961046

>  <Genealogy>  (18) 
COCCOc1cc(-c2ccc(N3CCNCC3)nc2)cc2ncn(C)c12 (3D coordinates assigned)
COCCOc1cc(-c2ccc(N3CCNCC3)nc2)cc2ncn(C)c12 (nonaromatic ring conformer: 104.64838372961046 kcal/mol)

>  <smiles>  (18) 
COCCOc1cc(-c2ccc(N3CCNCC3)nc2)cc2ncn(C)c12

>  <score_type>  (18) 
oracle

>  <origin>  (18) 
adg

>  <m_score__min__energy>  (18) 
-7.3700000000000001

>  <m_primary>  (18) 
energy

$$$$
18:0
     RDKit          3D

 19 18  0  0  0  0  0  0  0  0999 V2000
   56.4970   30.2900   42.9660 C   0  0  0  0  0  0  0  0  0  0  0  0
   55.3390   29.7170   43.7880 C   0  0  0  0  0  0  0  0  0  0  0  0
   55.7980   28.8500   44.8840 N   0  0  0  0  0  0  0  0  0  0  0  0
   57.1940   28.4270   44.7140 C   0  0  0  0  0  0  0  0  0  0  0  0
   57.4940   27.1960   45.5690 C   0  0  0  0  0  0  0  0  0  0  0  0
   56.4070   26.9060   46.4460 O   0  0  0  0  0  0  0  0  0  0  0  0
   55.5690   25.8240   46.2610 N   0  0  0  0  0  0  0  0  0  0  0  0
   54.5170   25.9700   45.6080 O   0  0  0  0  0  0  0  0  0  0  0  0
   55.8990   24.5770   46.7420 O   0  0  0  0  0  0  0  0  0  0  0  0
   57.2732   30.6741   43.6442 H   0  0  0  0  0  0  0  0  0  0  0  0
   56.9231   29.4988   42.3317 H   0  0  0  0  0  0  0  0  0  0  0  0
   56.1265   31.1087   42.3317 H   0  0  0  0  0  0  0  0  0  0  0  0
   54.7641   30.5514   44.2160 H   0  0  0  0  0  0  0  0  0  0  0  0
   54.7232   29.1038   43.1137 H   0  0  0  0  0  0  0  0  0  0  0  0
   55.1870   27.9990   44.9210 H   0  0  0  0  0  0  0  0  0  0  0  0
   57.3712   28.1836   43.6560 H   0  0  0  0  0  0  0  0  0  0  0  0
   57.8533   29.2478   45.0326 H   0  0  0  0  0  0  0  0  0  0  0  0
   57.6642   26.3325   44.9092 H   0  0  0  0  0  0  0  0  0  0  0  0
   58.3889   27.3998   46.1753 H   0  0  0  0  0  0  0  0  0  0  0  0
  1  2  1  0
  2  3  1  0
  3  4  1  0
  4  5  1  0
  5  6  1  0
  6  7  1  0
  7  8  2  0
  7  9  1  0
  1 10  1  0
  1 11  1  0
  1 12  1  0
  2 13  1  0
  2 14  1  0
  3 15  1  0
  4 16  1  0
  4 17  1  0
  5 18  1  0
  5 19  1  0
M  CHG  2   7   1   9  -1
M  END
>  <UniqueID>  (19) 
19

>  <SMILES>  (19) 
CCNCCO[N+](=O)[O-]

>  <Energy>  (19) 
9.687880929531195

>  <Genealogy>  (19) 
CCNCCO[N+](=O)[O-] (3D coordinates assigned)
CCNCCO[N+](=O)[O-] (optimized conformer: 9.687880929531195 kcal/mol)

>  <smiles>  (19) 
CCNCCO[N+](=O)[O-]

>  <score_type>  (19) 
oracle

>  <origin>  (19) 
adg

>  <m_score__min__energy>  (19) 
-4.2999999999999998

>  <m_primary>  (19) 
energy

$$$$
19:0
     RDKit          3D

 44 46  0  0  0  0  0  0  0  0999 V2000
   62.1610   32.9380   47.0870 C   0  0  0  0  0  0  0  0  0  0  0  0
   62.7120   31.6210   47.6150 C   0  0  0  0  0  0  0  0  0  0  0  0
   61.6620   30.7960   48.1180 O   0  0  0  0  0  0  0  0  0  0  0  0
   60.6990   30.1260   47.3430 C   0  0  0  0  0  0  0  0  0  0  0  0
   60.9030   29.8120   45.9860 C   0  0  0  0  0  0  0  0  0  0  0  0
   59.9090   29.1570   45.2530 C   0  0  0  0  0  0  0  0  0  0  0  0
   58.6930   28.8050   45.8570 C   0  0  0  0  0  0  0  0  0  0  0  0
   57.6190   28.1050   45.0520 C   0  0  0  0  0  0  0  0  0  0  0  0
   56.4770   28.9750   44.7230 N   0  0  0  0  0  0  0  0  0  0  0  0
   56.7790   30.0150   43.7250 C   0  0  0  0  0  0  0  0  0  0  0  0
   57.3540   31.2640   44.3440 C   0  0  0  0  0  0  0  0  0  0  0  0
   57.3930   31.4620   45.6850 N   0  0  0  0  0  0  0  0  0  0  0  0
   58.0600   32.6170   45.8340 C   0  0  0  0  0  0  0  0  0  0  0  0
   58.4180   33.2560   47.0180 C   0  0  0  0  0  0  0  0  0  0  0  0
   59.1650   34.4440   46.9160 C   0  0  0  0  0  0  0  0  0  0  0  0
   59.5390   34.9490   45.6510 C   0  0  0  0  0  0  0  0  0  0  0  0
   59.1610   34.2770   44.4730 C   0  0  0  0  0  0  0  0  0  0  0  0
   58.4090   33.1080   44.6090 C   0  0  0  0  0  0  0  0  0  0  0  0
   57.9500   32.2780   43.6520 N   0  0  0  0  0  0  0  0  0  0  0  0
   58.1510   32.4050   42.2100 C   0  0  0  0  0  0  0  0  0  0  0  0
   58.4780   29.1430   47.2040 C   0  0  0  0  0  0  0  0  0  0  0  0
   59.4810   29.7750   47.9460 C   0  0  0  0  0  0  0  0  0  0  0  0
   59.1640   30.1600   49.7930 Br  0  0  0  0  0  0  0  0  0  0  0  0
   61.8894   33.5871   47.9325 H   0  0  0  0  0  0  0  0  0  0  0  0
   62.9262   33.4360   46.4735 H   0  0  0  0  0  0  0  0  0  0  0  0
   61.2691   32.7427   46.4735 H   0  0  0  0  0  0  0  0  0  0  0  0
   63.2260   31.0923   46.7987 H   0  0  0  0  0  0  0  0  0  0  0  0
   63.4136   31.8363   48.4344 H   0  0  0  0  0  0  0  0  0  0  0  0
   61.8511   30.0839   45.4990 H   0  0  0  0  0  0  0  0  0  0  0  0
   60.0819   28.9157   44.1938 H   0  0  0  0  0  0  0  0  0  0  0  0
   58.0653   27.7449   44.1133 H   0  0  0  0  0  0  0  0  0  0  0  0
   57.2333   27.2812   45.6706 H   0  0  0  0  0  0  0  0  0  0  0  0
   55.6400   28.4160   44.4500 H   0  0  0  0  0  0  0  0  0  0  0  0
   57.5064   29.6117   43.0051 H   0  0  0  0  0  0  0  0  0  0  0  0
   55.8335   30.2911   43.2353 H   0  0  0  0  0  0  0  0  0  0  0  0
   57.0270   30.8350   46.4370 H   0  0  0  0  0  0  0  0  0  0  0  0
   58.1276   32.8472   47.9971 H   0  0  0  0  0  0  0  0  0  0  0  0
   59.4599   34.9835   47.8281 H   0  0  0  0  0  0  0  0  0  0  0  0
   60.1301   35.8744   45.5857 H   0  0  0  0  0  0  0  0  0  0  0  0
   59.4474   34.6587   43.4819 H   0  0  0  0  0  0  0  0  0  0  0  0
   59.0665   32.9834   42.0169 H   0  0  0  0  0  0  0  0  0  0  0  0
   58.2486   31.4043   41.7639 H   0  0  0  0  0  0  0  0  0  0  0  0
   57.2892   32.9229   41.7639 H   0  0  0  0  0  0  0  0  0  0  0  0
   57.5136   28.9087   47.6783 H   0  0  0  0  0  0  0  0  0  0  0  0
  1  2  1  0
  2  3  1  0
  3  4  1  0
  4  5  2  0
  5  6  1  0
  6  7  2  0
  7  8  1  0
  8  9  1  0
  9 10  1  0
 10 11  1  0
 11 12  2  0
 12 13  1  0
 13 14  2  0
 14 15  1  0
 15 16  2  0
 16 17  1  0
 17 18  2  0
 18 19  1  0
 19 20  1  0
  7 21  1  0
 21 22  2  0
 22 23  1  0
 22  4  1  0
 19 11  1  0
 18 13  1  0
  1 24  1  0
  1 25  1  0
  1 26  1  0
  2 27  1  0
  2 28  1  0
  5 29  1  0
  6 30  1  0
  8 31  1  0
  8 32  1  0
  9 33  1  0
 10 34  1  0
 10 35  1  0
 12 36  1  0
 14 37  1  0
 15 38  1  0
 16 39  1  0
 17 40  1  0
 20 41  1  0
 20 42  1  0
 20 43  1  0
 21 44  1  0
M  CHG  1  12   1
M  END
>  <UniqueID>  (20) 
20

>  <SMILES>  (20) 
CCOc1ccc(CNCc2[nH+]c3ccccc3n2C)cc1Br

>  <Energy>  (20) 
78.45981428802001

>  <Genealogy>  (20) 
CCOc1ccc(CNCc2[nH+]c3ccccc3n2C)cc1Br (protonated)
CCOc1ccc(CNCc2[nH+]c3ccccc3n2C)cc1Br (3D coordinates assigned)
CCOc1ccc(CNCc2[nH+]c3ccccc3n2C)cc1Br (optimized conformer: 78.45981428802001 kcal/mol)

>  <smiles>  (20) 
CCOc1ccc(CNCc2nc3ccccc3n2C)cc1Br

>  <score_type>  (20) 
oracle

>  <origin>  (20) 
adg

>  <m_score__min__energy>  (20) 
-6.4100000000000001

>  <m_primary>  (20) 
energy

$$$$
20:0
     RDKit          3D

 35 35  0  0  0  0  0  0  0  0999 V2000
   57.3250   32.4560   40.8770 C   0  0  0  0  0  0  0  0  0  0  0  0
   57.8620   32.1000   42.0480 C   0  0  0  0  0  0  0  0  0  0  0  0
   57.0140   31.5820   43.1750 C   0  0  0  0  0  0  0  0  0  0  0  0
   57.4250   30.2330   43.5650 N   0  0  0  0  0  0  0  0  0  0  0  0
   56.6170   29.4260   44.4310 C   0  0  0  0  0  0  0  0  0  0  0  0
   55.5320   29.8740   44.8880 O   0  0  0  0  0  0  0  0  0  0  0  0
   57.0820   28.0590   44.8310 C   0  0  0  0  0  0  0  0  0  0  0  0
   56.0690   27.3880   45.6480 N   0  0  0  0  0  0  0  0  0  0  0  0
   56.2750   26.1020   46.2620 C   0  0  0  0  0  0  0  0  0  0  0  0
   57.3270   25.9380   47.1760 C   0  0  0  0  0  0  0  0  0  0  0  0
   57.5520   24.7010   47.7880 C   0  0  0  0  0  0  0  0  0  0  0  0
   56.7310   23.6050   47.5010 C   0  0  0  0  0  0  0  0  0  0  0  0
   57.0070   22.3860   48.1440 O   0  0  0  0  0  0  0  0  0  0  0  0
   56.0510   21.3690   48.4410 C   0  0  0  0  0  0  0  0  0  0  0  0
   55.0960   21.8280   49.5380 C   0  0  0  0  0  0  0  0  0  0  0  0
   55.6770   23.7620   46.5820 C   0  0  0  0  0  0  0  0  0  0  0  0
   55.4510   24.9990   45.9710 C   0  0  0  0  0  0  0  0  0  0  0  0
   57.9689   32.8322   40.0684 H   0  0  0  0  0  0  0  0  0  0  0  0
   56.2392   32.3728   40.7219 H   0  0  0  0  0  0  0  0  0  0  0  0
   58.9492   32.1882   42.1899 H   0  0  0  0  0  0  0  0  0  0  0  0
   57.1169   32.2534   44.0402 H   0  0  0  0  0  0  0  0  0  0  0  0
   55.9678   31.5451   42.8373 H   0  0  0  0  0  0  0  0  0  0  0  0
   58.3330   29.8430   43.2220 H   0  0  0  0  0  0  0  0  0  0  0  0
   57.2701   27.4622   43.9263 H   0  0  0  0  0  0  0  0  0  0  0  0
   58.0051   28.1573   45.4211 H   0  0  0  0  0  0  0  0  0  0  0  0
   55.1480   27.8620   45.7980 H   0  0  0  0  0  0  0  0  0  0  0  0
   57.9807   26.7903   47.4132 H   0  0  0  0  0  0  0  0  0  0  0  0
   58.3818   24.5886   48.5013 H   0  0  0  0  0  0  0  0  0  0  0  0
   55.4740   21.1400   47.5329 H   0  0  0  0  0  0  0  0  0  0  0  0
   56.5856   20.4734   48.7905 H   0  0  0  0  0  0  0  0  0  0  0  0
   55.5387   21.6152   50.5222 H   0  0  0  0  0  0  0  0  0  0  0  0
   54.9193   22.9094   49.4415 H   0  0  0  0  0  0  0  0  0  0  0  0
   54.1412   21.2904   49.4415 H   0  0  0  0  0  0  0  0  0  0  0  0
   55.0275   22.9070   46.3431 H   0  0  0  0  0  0  0  0  0  0  0  0
   54.6220   25.1110   45.2567 H   0  0  0  0  0  0  0  0  0  0  0  0
  1  2  2  0
  2  3  1  0
  3  4  1  0
  4  5  1  0
  5  6  2  0
  5  7  1  0
  7  8  1  0
  8  9  1  0
  9 10  2  0
 10 11  1  0
 11 12  2  0
 12 13  1  0
 13 14  1  0
 14 15  1  0
 12 16  1  0
 16 17  2  0
 17  9  1  0
  1 18  1  0
  1 19  1  0
  2 20  1  0
  3 21  1  0
  3 22  1  0
  4 23  1  0
  7 24  1  0
  7 25  1  0
  8 26  1  0
 10 27  1  0
 11 28  1  0
 14 29  1  0
 14 30  1  0
 15 31  1  0
 15 32  1  0
 15 33  1  0
 16 34  1  0
 17 35  1  0
M  END
>  <UniqueID>  (21) 
21

>  <SMILES>  (21) 
C=CCNC(=O)CNc1ccc(OCC)cc1

>  <Energy>  (21) 
24.36220061176488

>  <Genealogy>  (21) 
C=CCNC(=O)CNc1ccc(OCC)cc1 (3D coordinates assigned)
C=CCNC(=O)CNc1ccc(OCC)cc1 (optimized conformer: 24.36220061176488 kcal/mol)

>  <smiles>  (21) 
C=CCNC(=O)CNc1ccc(OCC)cc1

>  <score_type>  (21) 
oracle

>  <origin>  (21) 
adg

>  <m_score__min__energy>  (21) 
-5.7999999999999998

>  <m_primary>  (21) 
energy

$$$$
21:0
     RDKit          3D

 37 39  0  0  0  0  0  0  0  0999 V2000
   56.1810   19.9460   44.1960 C   0  0  0  0  0  0  0  0  0  0  0  0
   55.8940   21.1610   43.5110 O   0  0  0  0  0  0  0  0  0  0  0  0
   56.2950   22.4310   43.9500 C   0  0  0  0  0  0  0  0  0  0  0  0
   56.3890   22.7640   45.3160 C   0  0  0  0  0  0  0  0  0  0  0  0
   56.7960   24.0450   45.7020 C   0  0  0  0  0  0  0  0  0  0  0  0
   57.1130   25.0100   44.7350 C   0  0  0  0  0  0  0  0  0  0  0  0
   57.5900   26.3760   45.1480 C   0  0  0  0  0  0  0  0  0  0  0  0
   58.4270   27.2250   43.7640 S   0  0  0  0  0  0  0  0  0  0  0  0
   57.8520   28.8640   44.2270 C   0  0  0  0  0  0  0  0  0  0  0  0
   56.6040   29.3060   44.0030 N   0  0  0  0  0  0  0  0  0  0  0  0
   56.5270   30.5530   44.4360 N   0  0  0  0  0  0  0  0  0  0  0  0
   57.7480   30.8640   44.9210 C   0  0  0  0  0  0  0  0  0  0  0  0
   58.0620   32.1940   45.4840 C   0  0  0  0  0  0  0  0  0  0  0  0
   58.1470   32.4810   46.8580 C   0  0  0  0  0  0  0  0  0  0  0  0
   58.5000   33.7950   47.1320 C   0  0  0  0  0  0  0  0  0  0  0  0
   58.7250   34.5910   45.6710 S   0  0  0  0  0  0  0  0  0  0  0  0
   58.3790   33.2830   44.6760 C   0  0  0  0  0  0  0  0  0  0  0  0
   58.6000   29.8130   44.8230 N   0  0  0  0  0  0  0  0  0  0  0  0
   59.9940   29.7060   45.2470 C   0  0  0  0  0  0  0  0  0  0  0  0
   57.0230   24.6780   43.3760 C   0  0  0  0  0  0  0  0  0  0  0  0
   56.6140   23.3970   42.9900 C   0  0  0  0  0  0  0  0  0  0  0  0
   56.1402   20.1187   45.2816 H   0  0  0  0  0  0  0  0  0  0  0  0
   55.4382   19.1839   43.9178 H   0  0  0  0  0  0  0  0  0  0  0  0
   57.1863   19.5969   43.9178 H   0  0  0  0  0  0  0  0  0  0  0  0
   56.1414   22.0137   46.0814 H   0  0  0  0  0  0  0  0  0  0  0  0
   56.8679   24.2972   46.7703 H   0  0  0  0  0  0  0  0  0  0  0  0
   56.7261   26.9767   45.4685 H   0  0  0  0  0  0  0  0  0  0  0  0
   58.3079   26.2611   45.9735 H   0  0  0  0  0  0  0  0  0  0  0  0
   55.8210   28.7800   43.5570 H   0  0  0  0  0  0  0  0  0  0  0  0
   57.9521   31.7343   47.6419 H   0  0  0  0  0  0  0  0  0  0  0  0
   58.6128   34.2379   48.1325 H   0  0  0  0  0  0  0  0  0  0  0  0
   58.3993   33.2860   43.5762 H   0  0  0  0  0  0  0  0  0  0  0  0
   60.0438   29.7022   46.3459 H   0  0  0  0  0  0  0  0  0  0  0  0
   60.4252   28.7721   44.8572 H   0  0  0  0  0  0  0  0  0  0  0  0
   60.5626   30.5631   44.8572 H   0  0  0  0  0  0  0  0  0  0  0  0
   57.2747   25.4270   42.6108 H   0  0  0  0  0  0  0  0  0  0  0  0
   56.5426   23.1470   41.9212 H   0  0  0  0  0  0  0  0  0  0  0  0
  1  2  1  0
  2  3  1  0
  3  4  2  0
  4  5  1  0
  5  6  2  0
  6  7  1  0
  7  8  1  0
  8  9  1  0
  9 10  2  0
 10 11  1  0
 11 12  2  0
 12 13  1  0
 13 14  1  0
 14 15  2  0
 15 16  1  0
 16 17  1  0
 12 18  1  0
 18 19  1  0
  6 20  1  0
 20 21  2  0
 21  3  1  0
 18  9  1  0
 17 13  2  0
  1 22  1  0
  1 23  1  0
  1 24  1  0
  4 25  1  0
  5 26  1  0
  7 27  1  0
  7 28  1  0
 10 29  1  0
 14 30  1  0
 15 31  1  0
 17 32  1  0
 19 33  1  0
 19 34  1  0
 19 35  1  0
 20 36  1  0
 21 37  1  0
M  CHG  1  10   1
M  END
>  <UniqueID>  (22) 
22

>  <SMILES>  (22) 
COc1ccc(CSc2[nH+]nc(-c3ccsc3)n2C)cc1

>  <Energy>  (22) 
97.20456147619012

>  <Genealogy>  (22) 
COc1ccc(CSc2[nH+]nc(-c3ccsc3)n2C)cc1 (protonated)
COc1ccc(CSc2[nH+]nc(-c3ccsc3)n2C)cc1 (3D coordinates assigned)
COc1ccc(CSc2[nH+]nc(-c3ccsc3)n2C)cc1 (optimized conformer: 97.20456147619012 kcal/mol)

>  <smiles>  (22) 
COc1ccc(CSc2nnc(-c3ccsc3)n2C)cc1

>  <score_type>  (22) 
oracle

>  <origin>  (22) 
adg

>  <m_score__min__energy>  (22) 
-6.0899999999999999

>  <m_primary>  (22) 
energy

$$$$
22:0
     RDKit          3D

 47 49  0  0  0  0  0  0  0  0999 V2000
   60.2280   33.8520   49.8160 C   0  0  0  0  0  0  0  0  0  0  0  0
   61.7380   33.6480   49.8270 C   0  0  0  0  0  0  0  0  0  0  0  0
   62.0500   32.2150   49.7570 N   0  0  0  0  0  0  0  0  0  0  0  0
   62.8750   31.9000   48.5790 C   0  0  0  0  0  0  0  0  0  0  0  0
   62.0300   31.2560   47.4760 C   0  0  0  0  0  0  0  0  0  0  0  0
   60.6240   31.1850   47.8720 N   0  0  0  0  0  0  0  0  0  0  0  0
   59.5800   31.0930   46.8880 C   0  0  0  0  0  0  0  0  0  0  0  0
   59.1640   32.2410   46.1880 C   0  0  0  0  0  0  0  0  0  0  0  0
   59.6820   33.5120   46.5150 C   0  0  0  0  0  0  0  0  0  0  0  0
   59.2380   34.6530   45.8510 C   0  0  0  0  0  0  0  0  0  0  0  0
   58.2590   34.5520   44.8710 C   0  0  0  0  0  0  0  0  0  0  0  0
   57.7290   33.3060   44.5350 C   0  0  0  0  0  0  0  0  0  0  0  0
   58.1860   32.1200   45.1660 C   0  0  0  0  0  0  0  0  0  0  0  0
   57.6890   30.8770   44.8240 N   0  0  0  0  0  0  0  0  0  0  0  0
   56.9060   30.7100   43.5790 C   0  0  0  0  0  0  0  0  0  0  0  0
   57.9420   29.7860   45.6340 C   0  0  0  0  0  0  0  0  0  0  0  0
   57.2360   28.5650   45.4820 C   0  0  0  0  0  0  0  0  0  0  0  0
   57.5380   27.4480   46.2670 C   0  0  0  0  0  0  0  0  0  0  0  0
   56.6590   25.9390   46.0350 S   0  0  0  0  0  0  0  0  0  0  0  0
   54.9640   26.2620   45.9730 N   0  0  0  0  0  0  0  0  0  0  0  0
   56.9500   25.0020   47.1730 O   0  0  0  0  0  0  0  0  0  0  0  0
   57.0910   25.2850   44.7520 O   0  0  0  0  0  0  0  0  0  0  0  0
   58.5530   27.5270   47.2190 C   0  0  0  0  0  0  0  0  0  0  0  0
   59.2330   28.7250   47.4210 C   0  0  0  0  0  0  0  0  0  0  0  0
   58.9230   29.8700   46.6570 C   0  0  0  0  0  0  0  0  0  0  0  0
   59.8572   33.9021   50.8504 H   0  0  0  0  0  0  0  0  0  0  0  0
   59.9886   34.7906   49.2948 H   0  0  0  0  0  0  0  0  0  0  0  0
   59.7481   33.0105   49.2948 H   0  0  0  0  0  0  0  0  0  0  0  0
   62.1814   34.1604   48.9605 H   0  0  0  0  0  0  0  0  0  0  0  0
   62.1524   34.0635   50.7574 H   0  0  0  0  0  0  0  0  0  0  0  0
   62.6100   31.9710   50.6080 H   0  0  0  0  0  0  0  0  0  0  0  0
   63.3225   32.8282   48.1942 H   0  0  0  0  0  0  0  0  0  0  0  0
   63.6601   31.1906   48.8795 H   0  0  0  0  0  0  0  0  0  0  0  0
   62.1162   31.8569   46.5587 H   0  0  0  0  0  0  0  0  0  0  0  0
   62.3986   30.2344   47.3012 H   0  0  0  0  0  0  0  0  0  0  0  0
   60.4020   30.9620   48.8680 H   0  0  0  0  0  0  0  0  0  0  0  0
   60.4445   33.6027   47.3026 H   0  0  0  0  0  0  0  0  0  0  0  0
   59.6633   35.6356   46.1031 H   0  0  0  0  0  0  0  0  0  0  0  0
   57.9006   35.4569   44.3584 H   0  0  0  0  0  0  0  0  0  0  0  0
   56.9434   33.2418   43.7678 H   0  0  0  0  0  0  0  0  0  0  0  0
   55.8589   30.4867   43.8315 H   0  0  0  0  0  0  0  0  0  0  0  0
   56.9512   31.6380   42.9901 H   0  0  0  0  0  0  0  0  0  0  0  0
   57.3259   29.8812   42.9901 H   0  0  0  0  0  0  0  0  0  0  0  0
   56.4348   28.4956   44.7315 H   0  0  0  0  0  0  0  0  0  0  0  0
   54.7900   27.0890   46.5880 H   0  0  0  0  0  0  0  0  0  0  0  0
   58.8177   26.6397   47.8128 H   0  0  0  0  0  0  0  0  0  0  0  0
   60.0218   28.7795   48.1858 H   0  0  0  0  0  0  0  0  0  0  0  0
  1  2  1  0
  2  3  1  0
  3  4  1  0
  4  5  1  0
  5  6  1  0
  6  7  1  0
  7  8  2  0
  8  9  1  0
  9 10  2  0
 10 11  1  0
 11 12  2  0
 12 13  1  0
 13 14  2  0
 14 15  1  0
 14 16  1  0
 16 17  2  0
 17 18  1  0
 18 19  1  0
 19 20  1  0
 19 21  2  0
 19 22  2  0
 18 23  2  0
 23 24  1  0
 24 25  2  0
 25  7  1  0
 13  8  1  0
 25 16  1  0
  1 26  1  0
  1 27  1  0
  1 28  1  0
  2 29  1  0
  2 30  1  0
  3 31  1  0
  4 32  1  0
  4 33  1  0
  5 34  1  0
  5 35  1  0
  6 36  1  0
  9 37  1  0
 10 38  1  0
 11 39  1  0
 12 40  1  0
 15 41  1  0
 15 42  1  0
 15 43  1  0
 17 44  1  0
 20 45  1  0
 23 46  1  0
 24 47  1  0
M  CHG  2  14   1  20  -1
M  END
>  <UniqueID>  (23) 
23

>  <SMILES>  (23) 
CCNCCNc1c2ccccc2[n+](C)c2cc(S([NH-])(=O)=O)ccc12

>  <Energy>  (23) 
68.88675698685378

>  <Genealogy>  (23) 
CCNCCNc1c2ccccc2[n+](C)c2cc(S([NH-])(=O)=O)ccc12 (protonated)
CCNCCNc1c2ccccc2[n+](C)c2cc(S([NH-])(=O)=O)ccc12 (3D coordinates assigned)
CCNCCNc1c2ccccc2[n+](C)c2cc(S([NH-])(=O)=O)ccc12 (optimized conformer: 68.88675698685378 kcal/mol)

>  <smiles>  (23) 
CCNCCNc1c2ccccc2[n+](C)c2cc(S(N)(=O)=O)ccc12

>  <score_type>  (23) 
oracle

>  <origin>  (23) 
adg

>  <m_score__min__energy>  (23) 
-10.130000000000001

>  <m_primary>  (23) 
energy

$$$$
23:0
     RDKit          3D

 64 66  0  0  0  0  0  0  0  0999 V2000
   63.2880   33.8470   46.3770 C   0  0  0  0  0  0  0  0  0  0  0  0
   62.6180   32.6800   47.1160 C   0  0  0  0  0  0  0  0  0  0  0  0
   62.6450   32.8070   48.5940 N   0  0  0  0  0  0  0  0  0  0  0  0
   62.5130   34.2080   49.0300 C   0  0  0  0  0  0  0  0  0  0  0  0
   63.8150   32.1410   49.2050 C   0  0  0  0  0  0  0  0  0  0  0  0
   63.3850   31.2460   50.3670 C   0  0  0  0  0  0  0  0  0  0  0  0
   62.1090   31.6570   50.8050 O   0  0  0  0  0  0  0  0  0  0  0  0
   62.1860   32.1510   52.1240 C   0  0  0  0  0  0  0  0  0  0  0  0
   61.3990   33.4610   52.2140 C   0  0  0  0  0  0  0  0  0  0  0  0
   60.5480   33.6020   51.0920 O   0  0  0  0  0  0  0  0  0  0  0  0
   59.2460   33.1340   51.3810 C   0  0  0  0  0  0  0  0  0  0  0  0
   58.7510   32.2740   50.2190 C   0  0  0  0  0  0  0  0  0  0  0  0
   59.8400   31.9830   49.2860 N   0  0  0  0  0  0  0  0  0  0  0  0
   59.5650   31.6050   47.9320 C   0  0  0  0  0  0  0  0  0  0  0  0
   59.2140   32.5980   47.0020 C   0  0  0  0  0  0  0  0  0  0  0  0
   59.2270   33.9640   47.3620 C   0  0  0  0  0  0  0  0  0  0  0  0
   58.9000   34.9490   46.4340 C   0  0  0  0  0  0  0  0  0  0  0  0
   58.5820   34.5960   45.1270 C   0  0  0  0  0  0  0  0  0  0  0  0
   58.5600   33.2530   44.7510 C   0  0  0  0  0  0  0  0  0  0  0  0
   58.8450   32.2250   45.6860 C   0  0  0  0  0  0  0  0  0  0  0  0
   58.7770   30.8890   45.3440 N   0  0  0  0  0  0  0  0  0  0  0  0
   58.0870   30.4780   44.0980 C   0  0  0  0  0  0  0  0  0  0  0  0
   59.3340   29.9300   46.1710 C   0  0  0  0  0  0  0  0  0  0  0  0
   59.5570   28.6080   45.7150 C   0  0  0  0  0  0  0  0  0  0  0  0
   60.0670   27.6320   46.5590 C   0  0  0  0  0  0  0  0  0  0  0  0
   60.3840   27.9370   47.8720 C   0  0  0  0  0  0  0  0  0  0  0  0
   60.2110   29.2430   48.3690 C   0  0  0  0  0  0  0  0  0  0  0  0
   60.5340   29.5390   49.7070 O   0  0  0  0  0  0  0  0  0  0  0  0
   61.0510   28.6050   50.6520 C   0  0  0  0  0  0  0  0  0  0  0  0
   59.7070   30.2620   47.5080 C   0  0  0  0  0  0  0  0  0  0  0  0
   63.6966   34.5587   47.1095 H   0  0  0  0  0  0  0  0  0  0  0  0
   64.1026   33.4621   45.7460 H   0  0  0  0  0  0  0  0  0  0  0  0
   62.5448   34.3564   45.7460 H   0  0  0  0  0  0  0  0  0  0  0  0
   61.5681   32.6230   46.7928 H   0  0  0  0  0  0  0  0  0  0  0  0
   63.1885   31.7739   46.8638 H   0  0  0  0  0  0  0  0  0  0  0  0
   62.5089   34.2511   50.1291 H   0  0  0  0  0  0  0  0  0  0  0  0
   63.3599   34.7937   48.6432 H   0  0  0  0  0  0  0  0  0  0  0  0
   61.5716   34.6252   48.6432 H   0  0  0  0  0  0  0  0  0  0  0  0
   64.3184   31.5268   48.4439 H   0  0  0  0  0  0  0  0  0  0  0  0
   64.4990   32.9123   49.5886 H   0  0  0  0  0  0  0  0  0  0  0  0
   63.3421   30.1992   50.0319 H   0  0  0  0  0  0  0  0  0  0  0  0
   64.1089   31.3276   51.1912 H   0  0  0  0  0  0  0  0  0  0  0  0
   61.7564   31.4145   52.8190 H   0  0  0  0  0  0  0  0  0  0  0  0
   63.2376   32.3308   52.3920 H   0  0  0  0  0  0  0  0  0  0  0  0
   60.7920   33.4571   53.1314 H   0  0  0  0  0  0  0  0  0  0  0  0
   62.1070   34.3026   52.2335 H   0  0  0  0  0  0  0  0  0  0  0  0
   59.2675   32.5317   52.3012 H   0  0  0  0  0  0  0  0  0  0  0  0
   58.5689   33.9894   51.5219 H   0  0  0  0  0  0  0  0  0  0  0  0
   58.3529   31.3280   50.6147 H   0  0  0  0  0  0  0  0  0  0  0  0
   57.9653   32.8258   49.6822 H   0  0  0  0  0  0  0  0  0  0  0  0
   60.8450   32.0600   49.5740 H   0  0  0  0  0  0  0  0  0  0  0  0
   59.4988   34.2529   48.3880 H   0  0  0  0  0  0  0  0  0  0  0  0
   58.8932   36.0071   46.7348 H   0  0  0  0  0  0  0  0  0  0  0  0
   58.3475   35.3770   44.3887 H   0  0  0  0  0  0  0  0  0  0  0  0
   58.3175   32.9865   43.7117 H   0  0  0  0  0  0  0  0  0  0  0  0
   57.1674   29.9303   44.3517 H   0  0  0  0  0  0  0  0  0  0  0  0
   57.8312   31.3710   43.5089 H   0  0  0  0  0  0  0  0  0  0  0  0
   58.7504   29.8278   43.5089 H   0  0  0  0  0  0  0  0  0  0  0  0
   59.3214   28.3500   44.6719 H   0  0  0  0  0  0  0  0  0  0  0  0
   60.2205   26.6098   46.1829 H   0  0  0  0  0  0  0  0  0  0  0  0
   60.7752   27.1504   48.5340 H   0  0  0  0  0  0  0  0  0  0  0  0
   60.8511   28.9662   51.6716 H   0  0  0  0  0  0  0  0  0  0  0  0
   60.5646   27.6291   50.5068 H   0  0  0  0  0  0  0  0  0  0  0  0
   62.1362   28.4990   50.5068 H   0  0  0  0  0  0  0  0  0  0  0  0
  1  2  1  0
  2  3  1  0
  3  4  1  0
  3  5  1  0
  5  6  1  0
  6  7  1  0
  7  8  1  0
  8  9  1  0
  9 10  1  0
 10 11  1  0
 11 12  1  0
 12 13  1  0
 13 14  1  0
 14 15  2  0
 15 16  1  0
 16 17  2  0
 17 18  1  0
 18 19  2  0
 19 20  1  0
 20 21  2  0
 21 22  1  0
 21 23  1  0
 23 24  2  0
 24 25  1  0
 25 26  2  0
 26 27  1  0
 27 28  1  0
 28 29  1  0
 27 30  2  0
 30 14  1  0
 20 15  1  0
 30 23  1  0
  1 31  1  0
  1 32  1  0
  1 33  1  0
  2 34  1  0
  2 35  1  0
  4 36  1  0
  4 37  1  0
  4 38  1  0
  5 39  1  0
  5 40  1  0
  6 41  1  0
  6 42  1  0
  8 43  1  0
  8 44  1  0
  9 45  1  0
  9 46  1  0
 11 47  1  0
 11 48  1  0
 12 49  1  0
 12 50  1  0
 13 51  1  0
 16 52  1  0
 17 53  1  0
 18 54  1  0
 19 55  1  0
 22 56  1  0
 22 57  1  0
 22 58  1  0
 24 59  1  0
 25 60  1  0
 26 61  1  0
 29 62  1  0
 29 63  1  0
 29 64  1  0
M  CHG  1  21   1
M  END
>  <UniqueID>  (24) 
24

>  <SMILES>  (24) 
CCN(C)CCOCCOCCNc1c2ccccc2[n+](C)c2cccc(OC)c12

>  <Energy>  (24) 
88.82037359172654

>  <Genealogy>  (24) 
CCN(C)CCOCCOCCNc1c2ccccc2[n+](C)c2cccc(OC)c12 (3D coordinates assigned)
CCN(C)CCOCCOCCNc1c2ccccc2[n+](C)c2cccc(OC)c12 (optimized conformer: 88.82037359172654 kcal/mol)

>  <smiles>  (24) 
CCN(C)CCOCCOCCNc1c2ccccc2[n+](C)c2cccc(OC)c12

>  <score_type>  (24) 
oracle

>  <origin>  (24) 
adg

>  <m_score__min__energy>  (24) 
-5.6299999999999999

>  <m_primary>  (24) 
energy

$$$$
24:0
     RDKit          3D

 62 65  0  0  0  0  0  0  0  0999 V2000
   58.9790   34.2020   52.1660 C   0  0  0  0  0  0  0  0  0  0  0  0
   60.1030   33.2120   52.4370 C   0  0  0  0  0  0  0  0  0  0  0  0
   59.5890   31.8390   52.3520 N   0  0  0  0  0  0  0  0  0  0  0  0
   58.2060   31.7910   51.8480 C   0  0  0  0  0  0  0  0  0  0  0  0
   58.1200   31.2750   50.4080 C   0  0  0  0  0  0  0  0  0  0  0  0
   59.3420   31.5360   49.7490 O   0  0  0  0  0  0  0  0  0  0  0  0
   59.9310   30.3330   49.4930 N   0  0  0  0  0  0  0  0  0  0  0  0
   61.0240   29.9130   50.3300 C   0  0  0  0  0  0  0  0  0  0  0  0
   60.7950   29.1850   51.3340 O   0  0  0  0  0  0  0  0  0  0  0  0
   62.3390   30.2530   49.9900 O   0  0  0  0  0  0  0  0  0  0  0  0
   62.6860   31.4180   49.2440 C   0  0  2  0  0  0  0  0  0  0  0  0
   62.2100   32.7040   49.9930 C   0  0  0  0  0  0  0  0  0  0  0  0
   62.0440   33.9120   49.0280 C   0  0  1  0  0  0  0  0  0  0  0  0
   63.3880   34.1900   48.3280 C   0  0  0  0  0  0  0  0  0  0  0  0
   63.3230   33.3620   47.0450 C   0  0  0  0  0  0  0  0  0  0  0  0
   61.9500   32.6710   47.1080 C   0  0  1  0  0  0  0  0  0  0  0  0
   62.1020   31.2880   47.8040 C   0  0  0  0  0  0  0  0  0  0  0  0
   61.1020   33.5090   47.9710 N   0  0  2  0  0  0  0  0  0  0  0  0
   60.3590   34.6030   47.2890 C   0  0  0  0  0  0  0  0  0  0  0  0
   59.1600   34.1960   46.4800 C   0  0  0  0  0  0  0  0  0  0  0  0
   59.0570   34.2450   45.0940 C   0  0  0  0  0  0  0  0  0  0  0  0
   57.8680   33.6880   44.6090 C   0  0  0  0  0  0  0  0  0  0  0  0
   57.0480   33.1690   45.6030 C   0  0  0  0  0  0  0  0  0  0  0  0
   57.8040   33.4020   47.0870 S   0  0  0  0  0  0  0  0  0  0  0  0
   59.5200   29.5760   48.3290 C   0  0  0  0  0  0  0  0  0  0  0  0
   59.6390   28.1730   48.3190 C   0  0  0  0  0  0  0  0  0  0  0  0
   59.2330   27.4310   47.2060 C   0  0  0  0  0  0  0  0  0  0  0  0
   58.6860   28.0760   46.0950 C   0  0  0  0  0  0  0  0  0  0  0  0
   58.5290   29.4630   46.1030 C   0  0  0  0  0  0  0  0  0  0  0  0
   58.9320   30.2100   47.2130 C   0  0  0  0  0  0  0  0  0  0  0  0
   58.5697   34.5625   53.1212 H   0  0  0  0  0  0  0  0  0  0  0  0
   59.3712   35.0534   51.5905 H   0  0  0  0  0  0  0  0  0  0  0  0
   58.1839   33.7055   51.5905 H   0  0  0  0  0  0  0  0  0  0  0  0
   60.8992   33.3505   51.6908 H   0  0  0  0  0  0  0  0  0  0  0  0
   60.5053   33.3870   53.4457 H   0  0  0  0  0  0  0  0  0  0  0  0
   60.2080   31.2800   51.7190 H   0  0  0  0  0  0  0  0  0  0  0  0
   57.6179   31.1249   52.4964 H   0  0  0  0  0  0  0  0  0  0  0  0
   57.8127   32.8183   51.8573 H   0  0  0  0  0  0  0  0  0  0  0  0
   57.9299   30.1916   50.4158 H   0  0  0  0  0  0  0  0  0  0  0  0
   57.2991   31.7833   49.8809 H   0  0  0  0  0  0  0  0  0  0  0  0
   63.7782   31.5094   49.1505 H   0  0  0  0  0  0  0  0  0  0  0  0
   61.2422   32.4975   50.4734 H   0  0  0  0  0  0  0  0  0  0  0  0
   62.9757   32.9666   50.7378 H   0  0  0  0  0  0  0  0  0  0  0  0
   61.7000   34.7944   49.5876 H   0  0  0  0  0  0  0  0  0  0  0  0
   63.4928   35.2602   48.0964 H   0  0  0  0  0  0  0  0  0  0  0  0
   64.2518   33.9258   48.9558 H   0  0  0  0  0  0  0  0  0  0  0  0
   63.3928   34.0101   46.1590 H   0  0  0  0  0  0  0  0  0  0  0  0
   64.1520   32.6434   46.9660 H   0  0  0  0  0  0  0  0  0  0  0  0
   61.5296   32.5395   46.1000 H   0  0  0  0  0  0  0  0  0  0  0  0
   61.1129   30.8103   47.8640 H   0  0  0  0  0  0  0  0  0  0  0  0
   62.8013   30.6834   47.2078 H   0  0  0  0  0  0  0  0  0  0  0  0
   60.3360   32.9220   48.3860 H   0  0  0  0  0  0  0  0  0  0  0  0
   60.0173   35.3073   48.0618 H   0  0  0  0  0  0  0  0  0  0  0  0
   61.0684   35.0290   46.5642 H   0  0  0  0  0  0  0  0  0  0  0  0
   59.8319   34.6779   44.4443 H   0  0  0  0  0  0  0  0  0  0  0  0
   57.6073   33.6635   43.5406 H   0  0  0  0  0  0  0  0  0  0  0  0
   56.0713   32.6879   45.4462 H   0  0  0  0  0  0  0  0  0  0  0  0
   60.0556   27.6556   49.1958 H   0  0  0  0  0  0  0  0  0  0  0  0
   59.3447   26.3367   47.2055 H   0  0  0  0  0  0  0  0  0  0  0  0
   58.3792   27.4920   45.2147 H   0  0  0  0  0  0  0  0  0  0  0  0
   58.0866   29.9696   45.2326 H   0  0  0  0  0  0  0  0  0  0  0  0
   58.7900   31.3008   47.2173 H   0  0  0  0  0  0  0  0  0  0  0  0
  1  2  1  0
  2  3  1  0
  3  4  1  0
  4  5  1  0
  5  6  1  0
  6  7  1  0
  7  8  1  0
  8  9  2  0
  8 10  1  0
 10 11  1  0
 11 12  1  0
 12 13  1  0
 13 14  1  0
 14 15  1  0
 15 16  1  0
 16 17  1  0
 16 18  1  0
 18 19  1  0
 19 20  1  0
 20 21  2  0
 21 22  1  0
 22 23  2  0
 23 24  1  0
  7 25  1  0
 25 26  2  0
 26 27  1  0
 27 28  2  0
 28 29  1  0
 29 30  2  0
 17 11  1  0
 24 20  1  0
 30 25  1  0
 18 13  1  0
  1 31  1  0
  1 32  1  0
  1 33  1  0
  2 34  1  0
  2 35  1  0
  3 36  1  0
  4 37  1  0
  4 38  1  0
  5 39  1  0
  5 40  1  0
 11 41  1  6
 12 42  1  0
 12 43  1  0
 13 44  1  1
 14 45  1  0
 14 46  1  0
 15 47  1  0
 15 48  1  0
 16 49  1  6
 17 50  1  0
 17 51  1  0
 18 52  1  1
 19 53  1  0
 19 54  1  0
 21 55  1  0
 22 56  1  0
 23 57  1  0
 26 58  1  0
 27 59  1  0
 28 60  1  0
 29 61  1  0
 30 62  1  0
M  CHG  1  18   1
M  END
>  <UniqueID>  (25) 
25

>  <SMILES>  (25) 
CCNCCON(C(=O)OC1C[C@H]2CC[C@@H](C1)[NH+]2Cc1cccs1)c1ccccc1

>  <Energy>  (25) 
107.07739831885442

>  <Genealogy>  (25) 
CCNCCON(C(=O)OC1CC2CCC(C1)[NH+]2Cc1cccs1)c1ccccc1 (protonated)
CCNCCON(C(=O)OC1C[C@H]2CC[C@@H](C1)[NH+]2Cc1cccs1)c1ccccc1 (chirality)
CCNCCON(C(=O)OC1C[C@H]2CC[C@@H](C1)[NH+]2Cc1cccs1)c1ccccc1 (3D coordinates assigned)
CCNCCON(C(=O)OC1C[C@H]2CC[C@@H](C1)[NH+]2Cc1cccs1)c1ccccc1 (nonaromatic ring conformer: 107.07739831885442 kcal/mol)

>  <smiles>  (25) 
CCNCCON(C(=O)OC1CC2CCC(C1)N2Cc1cccs1)c1ccccc1

>  <score_type>  (25) 
oracle

>  <origin>  (25) 
adg

>  <m_score__min__energy>  (25) 
-7.2000000000000002

>  <m_primary>  (25) 
energy

$$$$
25:0
     RDKit          3D

 39 42  0  0  0  0  0  0  0  0999 V2000
   60.1250   28.4990   46.0980 C   0  0  0  0  0  0  0  0  0  0  0  0
   58.9820   27.5350   46.2730 C   0  0  0  0  0  0  0  0  0  0  0  0
   59.1970   26.3420   46.9850 C   0  0  0  0  0  0  0  0  0  0  0  0
   58.1610   25.4210   47.1590 C   0  0  0  0  0  0  0  0  0  0  0  0
   56.8970   25.6830   46.6330 C   0  0  0  0  0  0  0  0  0  0  0  0
   56.6610   26.8700   45.9360 C   0  0  0  0  0  0  0  0  0  0  0  0
   57.6920   27.8060   45.7490 C   0  0  0  0  0  0  0  0  0  0  0  0
   57.3880   29.0650   45.0380 C   0  0  0  0  0  0  0  0  0  0  0  0
   57.5000   30.2840   45.6380 N   0  0  0  0  0  0  0  0  0  0  0  0
   57.2100   31.1270   44.6320 C   0  0  0  0  0  0  0  0  0  0  0  0
   57.0120   30.4630   43.4950 C   0  0  0  0  0  0  0  0  0  0  0  0
   57.4690   31.1710   42.4500 N   0  0  0  0  0  0  0  0  0  0  0  0
   57.9160   32.3200   43.0200 C   0  0  0  0  0  0  0  0  0  0  0  0
   57.7960   32.3120   44.3790 N   0  0  0  0  0  0  0  0  0  0  0  0
   58.3790   33.2250   45.3310 C   0  0  0  0  0  0  0  0  0  0  0  0
   58.2890   32.9620   46.7110 C   0  0  0  0  0  0  0  0  0  0  0  0
   58.8530   33.8400   47.6410 C   0  0  0  0  0  0  0  0  0  0  0  0
   59.5130   34.9910   47.2040 C   0  0  0  0  0  0  0  0  0  0  0  0
   59.6070   35.2660   45.8390 C   0  0  0  0  0  0  0  0  0  0  0  0
   59.0440   34.3920   44.9050 C   0  0  0  0  0  0  0  0  0  0  0  0
   57.1190   29.1430   43.7000 N   0  0  0  0  0  0  0  0  0  0  0  0
   57.3900   28.1310   42.6820 C   0  0  0  0  0  0  0  0  0  0  0  0
   60.4955   28.8115   47.0854 H   0  0  0  0  0  0  0  0  0  0  0  0
   60.9364   28.0084   45.5403 H   0  0  0  0  0  0  0  0  0  0  0  0
   59.7783   29.3815   45.5403 H   0  0  0  0  0  0  0  0  0  0  0  0
   60.1900   26.1318   47.4090 H   0  0  0  0  0  0  0  0  0  0  0  0
   58.3430   24.4877   47.7119 H   0  0  0  0  0  0  0  0  0  0  0  0
   56.0843   24.9539   46.7671 H   0  0  0  0  0  0  0  0  0  0  0  0
   55.6592   27.0739   45.5299 H   0  0  0  0  0  0  0  0  0  0  0  0
   57.6230   30.8510   41.4690 H   0  0  0  0  0  0  0  0  0  0  0  0
   58.3293   33.1642   42.4487 H   0  0  0  0  0  0  0  0  0  0  0  0
   57.7701   32.0573   47.0607 H   0  0  0  0  0  0  0  0  0  0  0  0
   58.7771   33.6246   48.7170 H   0  0  0  0  0  0  0  0  0  0  0  0
   59.9587   35.6807   47.9359 H   0  0  0  0  0  0  0  0  0  0  0  0
   60.1259   36.1737   45.4971 H   0  0  0  0  0  0  0  0  0  0  0  0
   59.1205   34.6164   43.8309 H   0  0  0  0  0  0  0  0  0  0  0  0
   57.6450   27.1789   43.1703 H   0  0  0  0  0  0  0  0  0  0  0  0
   56.4970   27.9937   42.0546 H   0  0  0  0  0  0  0  0  0  0  0  0
   58.2321   28.4584   42.0546 H   0  0  0  0  0  0  0  0  0  0  0  0
  1  2  1  0
  2  3  2  0
  3  4  1  0
  4  5  2  0
  5  6  1  0
  6  7  2  0
  7  8  1  0
  8  9  2  0
  9 10  1  0
 10 11  2  0
 11 12  1  0
 12 13  2  0
 13 14  1  0
 14 15  1  0
 15 16  2  0
 16 17  1  0
 17 18  2  0
 18 19  1  0
 19 20  2  0
 11 21  1  0
 21 22  1  0
  7  2  1  0
 21  8  1  0
 14 10  1  0
 20 15  1  0
  1 23  1  0
  1 24  1  0
  1 25  1  0
  3 26  1  0
  4 27  1  0
  5 28  1  0
  6 29  1  0
 12 30  1  0
 13 31  1  0
 16 32  1  0
 17 33  1  0
 18 34  1  0
 19 35  1  0
 20 36  1  0
 22 37  1  0
 22 38  1  0
 22 39  1  0
M  CHG  1  12   1
M  END
>  <UniqueID>  (26) 
26

>  <SMILES>  (26) 
Cc1ccccc1-c1nc2c([nH+]cn2-c2ccccc2)n1C

>  <Energy>  (26) 
145.07185363768093

>  <Genealogy>  (26) 
Cc1ccccc1-c1nc2c([nH+]cn2-c2ccccc2)n1C (protonated)
Cc1ccccc1-c1nc2c([nH+]cn2-c2ccccc2)n1C (3D coordinates assigned)
Cc1ccccc1-c1nc2c([nH+]cn2-c2ccccc2)n1C (optimized conformer: 145.07185363768093 kcal/mol)

>  <smiles>  (26) 
Cc1ccccc1-c1nc2c(ncn2-c2ccccc2)n1C

>  <score_type>  (26) 
oracle

>  <origin>  (26) 
adg

>  <m_score__min__energy>  (26) 
-6.25

>  <m_primary>  (26) 
energy

$$$$
26:0
     RDKit          3D

 68 70  0  0  0  0  0  0  0  0999 V2000
   66.2060   32.6420   50.1060 C   0  0  0  0  0  0  0  0  0  0  0  0
   64.8820   33.4010   50.0380 C   0  0  0  0  0  0  0  0  0  0  0  0
   63.6790   32.4730   49.7920 C   0  0  0  0  0  0  0  0  0  0  0  0
   63.0570   32.6950   48.4650 N   0  0  0  0  0  0  0  0  0  0  0  0
   63.4270   34.0170   47.9060 C   0  0  0  0  0  0  0  0  0  0  0  0
   63.2690   34.0280   46.3860 C   0  0  0  0  0  0  0  0  0  0  0  0
   63.3890   31.5940   47.5210 C   0  0  0  0  0  0  0  0  0  0  0  0
   62.1050   30.8720   47.0750 C   0  0  0  0  0  0  0  0  0  0  0  0
   60.9080   31.3010   47.8300 N   0  0  0  0  0  0  0  0  0  0  0  0
   59.7120   31.3940   46.9970 C   0  0  0  0  0  0  0  0  0  0  0  0
   58.9550   30.2340   46.7050 C   0  0  0  0  0  0  0  0  0  0  0  0
   58.9270   29.1260   47.5820 C   0  0  0  0  0  0  0  0  0  0  0  0
   58.2110   27.9760   47.2590 C   0  0  0  0  0  0  0  0  0  0  0  0
   57.4820   27.9180   46.0780 C   0  0  0  0  0  0  0  0  0  0  0  0
   57.4490   29.0170   45.2220 C   0  0  0  0  0  0  0  0  0  0  0  0
   58.1830   30.1950   45.5160 C   0  0  0  0  0  0  0  0  0  0  0  0
   58.1480   31.2940   44.6860 N   0  0  0  0  0  0  0  0  0  0  0  0
   57.6490   31.1590   43.2990 C   0  0  0  0  0  0  0  0  0  0  0  0
   58.5460   32.5240   45.1680 C   0  0  0  0  0  0  0  0  0  0  0  0
   58.1840   33.7190   44.5030 C   0  0  0  0  0  0  0  0  0  0  0  0
   58.5810   34.9590   44.9860 C   0  0  0  0  0  0  0  0  0  0  0  0
   59.3110   35.0500   46.1600 C   0  0  0  0  0  0  0  0  0  0  0  0
   59.6640   33.8950   46.8780 C   0  0  0  0  0  0  0  0  0  0  0  0
   60.3120   34.0080   48.1170 O   0  0  0  0  0  0  0  0  0  0  0  0
   59.6670   34.1900   49.3750 C   0  0  0  0  0  0  0  0  0  0  0  0
   60.3370   33.3050   50.4280 C   0  0  0  0  0  0  0  0  0  0  0  0
   60.0350   31.8760   50.1890 N   0  0  0  0  0  0  0  0  0  0  0  0
   58.5860   31.6390   50.2830 C   0  0  0  0  0  0  0  0  0  0  0  0
   60.7390   31.0130   51.1540 C   0  0  0  0  0  0  0  0  0  0  0  0
   59.3220   32.6100   46.3610 C   0  0  0  0  0  0  0  0  0  0  0  0
   66.4837   32.4828   51.1584 H   0  0  0  0  0  0  0  0  0  0  0  0
   66.0971   31.6691   49.6043 H   0  0  0  0  0  0  0  0  0  0  0  0
   66.9905   33.2275   49.6043 H   0  0  0  0  0  0  0  0  0  0  0  0
   64.7299   33.9298   50.9905 H   0  0  0  0  0  0  0  0  0  0  0  0
   64.9421   34.0999   49.1907 H   0  0  0  0  0  0  0  0  0  0  0  0
   64.0200   31.4289   49.8522 H   0  0  0  0  0  0  0  0  0  0  0  0
   62.9220   32.6943   50.5588 H   0  0  0  0  0  0  0  0  0  0  0  0
   62.7746   34.7880   48.3418 H   0  0  0  0  0  0  0  0  0  0  0  0
   64.4794   34.2214   48.1522 H   0  0  0  0  0  0  0  0  0  0  0  0
   62.2021   34.1023   46.1288 H   0  0  0  0  0  0  0  0  0  0  0  0
   63.8080   34.8908   45.9676 H   0  0  0  0  0  0  0  0  0  0  0  0
   63.6832   33.0988   45.9676 H   0  0  0  0  0  0  0  0  0  0  0  0
   63.8960   32.0120   46.6389 H   0  0  0  0  0  0  0  0  0  0  0  0
   64.0489   30.8738   48.0268 H   0  0  0  0  0  0  0  0  0  0  0  0
   61.9390   31.0796   46.0076 H   0  0  0  0  0  0  0  0  0  0  0  0
   62.2478   29.7984   47.2676 H   0  0  0  0  0  0  0  0  0  0  0  0
   61.0820   32.2060   48.3190 H   0  0  0  0  0  0  0  0  0  0  0  0
   60.8010   30.6010   48.5930 H   0  0  0  0  0  0  0  0  0  0  0  0
   59.4783   29.1726   48.5327 H   0  0  0  0  0  0  0  0  0  0  0  0
   58.2228   27.1123   47.9401 H   0  0  0  0  0  0  0  0  0  0  0  0
   56.9298   27.0029   45.8181 H   0  0  0  0  0  0  0  0  0  0  0  0
   56.8445   28.9705   44.3041 H   0  0  0  0  0  0  0  0  0  0  0  0
   56.5873   30.8718   43.3176 H   0  0  0  0  0  0  0  0  0  0  0  0
   57.7599   32.1194   42.7743 H   0  0  0  0  0  0  0  0  0  0  0  0
   58.2290   30.3855   42.7743 H   0  0  0  0  0  0  0  0  0  0  0  0
   57.5773   33.6650   43.5870 H   0  0  0  0  0  0  0  0  0  0  0  0
   58.3148   35.8726   44.4343 H   0  0  0  0  0  0  0  0  0  0  0  0
   59.6178   36.0378   46.5343 H   0  0  0  0  0  0  0  0  0  0  0  0
   59.7470   35.2443   49.6783 H   0  0  0  0  0  0  0  0  0  0  0  0
   58.6065   33.9121   49.2854 H   0  0  0  0  0  0  0  0  0  0  0  0
   61.4259   33.4549   50.3840 H   0  0  0  0  0  0  0  0  0  0  0  0
   59.9495   33.5844   51.4189 H   0  0  0  0  0  0  0  0  0  0  0  0
   58.2903   31.5906   51.3414 H   0  0  0  0  0  0  0  0  0  0  0  0
   58.0472   32.4610   49.7889 H   0  0  0  0  0  0  0  0  0  0  0  0
   58.3372   30.6882   49.7889 H   0  0  0  0  0  0  0  0  0  0  0  0
   60.4849   31.3245   52.1779 H   0  0  0  0  0  0  0  0  0  0  0  0
   60.4329   29.9674   51.0022 H   0  0  0  0  0  0  0  0  0  0  0  0
   61.8248   31.1029   51.0022 H   0  0  0  0  0  0  0  0  0  0  0  0
  1  2  1  0
  2  3  1  0
  3  4  1  0
  4  5  1  0
  5  6  1  0
  4  7  1  0
  7  8  1  0
  8  9  1  0
  9 10  1  0
 10 11  2  0
 11 12  1  0
 12 13  2  0
 13 14  1  0
 14 15  2  0
 15 16  1  0
 16 17  2  0
 17 18  1  0
 17 19  1  0
 19 20  2  0
 20 21  1  0
 21 22  2  0
 22 23  1  0
 23 24  1  0
 24 25  1  0
 25 26  1  0
 26 27  1  0
 27 28  1  0
 27 29  1  0
 23 30  2  0
 30 10  1  0
 16 11  1  0
 30 19  1  0
  1 31  1  0
  1 32  1  0
  1 33  1  0
  2 34  1  0
  2 35  1  0
  3 36  1  0
  3 37  1  0
  5 38  1  0
  5 39  1  0
  6 40  1  0
  6 41  1  0
  6 42  1  0
  7 43  1  0
  7 44  1  0
  8 45  1  0
  8 46  1  0
  9 47  1  0
  9 48  1  0
 12 49  1  0
 13 50  1  0
 14 51  1  0
 15 52  1  0
 18 53  1  0
 18 54  1  0
 18 55  1  0
 20 56  1  0
 21 57  1  0
 22 58  1  0
 25 59  1  0
 25 60  1  0
 26 61  1  0
 26 62  1  0
 28 63  1  0
 28 64  1  0
 28 65  1  0
 29 66  1  0
 29 67  1  0
 29 68  1  0
M  CHG  2   9   1  17   1
M  END
>  <UniqueID>  (27) 
27

>  <SMILES>  (27) 
CCCN(CC)CC[NH2+]c1c2ccccc2[n+](C)c2cccc(OCCN(C)C)c12

>  <Energy>  (27) 
98.59504016074825

>  <Genealogy>  (27) 
CCCN(CC)CC[NH2+]c1c2ccccc2[n+](C)c2cccc(OCCN(C)C)c12 (protonated)
CCCN(CC)CC[NH2+]c1c2ccccc2[n+](C)c2cccc(OCCN(C)C)c12 (3D coordinates assigned)
CCCN(CC)CC[NH2+]c1c2ccccc2[n+](C)c2cccc(OCCN(C)C)c12 (optimized conformer: 98.59504016074825 kcal/mol)

>  <smiles>  (27) 
CCCN(CC)CCNc1c2ccccc2[n+](C)c2cccc(OCCN(C)C)c12

>  <score_type>  (27) 
oracle

>  <origin>  (27) 
adg

>  <m_score__min__energy>  (27) 
-3.8900000000000001

>  <m_primary>  (27) 
energy

$$$$
27:0
     RDKit          3D

 45 48  0  0  0  0  0  0  0  0999 V2000
   60.2190   33.8570   49.6970 C   0  0  0  0  0  0  0  0  0  0  0  0
   61.4210   34.2210   48.8100 C   0  0  1  0  0  0  0  0  0  0  0  0
   62.6600   33.4260   49.2680 C   0  0  0  0  0  0  0  0  0  0  0  0
   63.7450   33.6300   48.3850 O   0  0  0  0  0  0  0  0  0  0  0  0
   63.4390   33.0740   47.1220 C   0  0  0  0  0  0  0  0  0  0  0  0
   62.2920   33.8400   46.4620 C   0  0  0  0  0  0  0  0  0  0  0  0
   61.1570   33.9500   47.3830 N   0  0  0  0  0  0  0  0  0  0  0  0
   59.8570   34.1640   46.8070 C   0  0  0  0  0  0  0  0  0  0  0  0
   59.2540   35.2450   47.0470 O   0  0  0  0  0  0  0  0  0  0  0  0
   59.2140   33.1550   45.9450 C   0  0  0  0  0  0  0  0  0  0  0  0
   58.5790   33.5180   44.7370 C   0  0  0  0  0  0  0  0  0  0  0  0
   58.0110   32.4990   43.9830 C   0  0  0  0  0  0  0  0  0  0  0  0
   57.3940   32.6170   42.7930 N   0  0  0  0  0  0  0  0  0  0  0  0
   57.0780   31.3350   42.4820 C   0  0  0  0  0  0  0  0  0  0  0  0
   57.4800   30.4410   43.4180 N   0  0  0  0  0  0  0  0  0  0  0  0
   57.3120   28.9920   43.3430 C   0  0  0  0  0  0  0  0  0  0  0  0
   58.0570   31.1940   44.3770 C   0  0  0  0  0  0  0  0  0  0  0  0
   58.6860   30.8360   45.5810 C   0  0  0  0  0  0  0  0  0  0  0  0
   58.7420   29.4590   46.0880 C   0  0  0  0  0  0  0  0  0  0  0  0
   59.9650   28.9180   46.5110 C   0  0  0  0  0  0  0  0  0  0  0  0
   60.0190   27.6160   47.0200 C   0  0  0  0  0  0  0  0  0  0  0  0
   58.8500   26.8570   47.1240 C   0  0  0  0  0  0  0  0  0  0  0  0
   58.9060   25.5940   47.6190 F   0  0  0  0  0  0  0  0  0  0  0  0
   57.6240   27.4000   46.7240 C   0  0  0  0  0  0  0  0  0  0  0  0
   56.4880   26.6670   46.8330 F   0  0  0  0  0  0  0  0  0  0  0  0
   57.5690   28.7010   46.2150 C   0  0  0  0  0  0  0  0  0  0  0  0
   59.2530   31.8360   46.3200 N   0  0  0  0  0  0  0  0  0  0  0  0
   60.5050   33.9436   50.7556 H   0  0  0  0  0  0  0  0  0  0  0  0
   59.3857   34.5431   49.4850 H   0  0  0  0  0  0  0  0  0  0  0  0
   59.9064   32.8239   49.4850 H   0  0  0  0  0  0  0  0  0  0  0  0
   61.6020   35.3007   48.9169 H   0  0  0  0  0  0  0  0  0  0  0  0
   62.9487   33.7583   50.2761 H   0  0  0  0  0  0  0  0  0  0  0  0
   62.4081   32.3552   49.2738 H   0  0  0  0  0  0  0  0  0  0  0  0
   64.3287   33.1288   46.4775 H   0  0  0  0  0  0  0  0  0  0  0  0
   63.1336   32.0262   47.2597 H   0  0  0  0  0  0  0  0  0  0  0  0
   62.6379   34.8483   46.1904 H   0  0  0  0  0  0  0  0  0  0  0  0
   61.9704   33.2965   45.5613 H   0  0  0  0  0  0  0  0  0  0  0  0
   58.5359   34.5662   44.4062 H   0  0  0  0  0  0  0  0  0  0  0  0
   56.5480   31.0493   41.5614 H   0  0  0  0  0  0  0  0  0  0  0  0
   57.2637   28.5754   44.3599 H   0  0  0  0  0  0  0  0  0  0  0  0
   56.3807   28.7581   42.8063 H   0  0  0  0  0  0  0  0  0  0  0  0
   58.1651   28.5513   42.8063 H   0  0  0  0  0  0  0  0  0  0  0  0
   60.8838   29.5189   46.4424 H   0  0  0  0  0  0  0  0  0  0  0  0
   60.9817   27.1895   47.3384 H   0  0  0  0  0  0  0  0  0  0  0  0
   56.6027   29.1313   45.9132 H   0  0  0  0  0  0  0  0  0  0  0  0
  1  2  1  0
  2  3  1  0
  3  4  1  0
  4  5  1  0
  5  6  1  0
  6  7  1  0
  7  8  1  0
  8  9  2  0
  8 10  1  0
 10 11  2  0
 11 12  1  0
 12 13  1  0
 13 14  2  0
 14 15  1  0
 15 16  1  0
 15 17  1  0
 17 18  1  0
 18 19  1  0
 19 20  2  0
 20 21  1  0
 21 22  2  0
 22 23  1  0
 22 24  1  0
 24 25  1  0
 24 26  2  0
 18 27  2  0
  7  2  1  0
 27 10  1  0
 17 12  2  0
 26 19  1  0
  1 28  1  0
  1 29  1  0
  1 30  1  0
  2 31  1  6
  3 32  1  0
  3 33  1  0
  5 34  1  0
  5 35  1  0
  6 36  1  0
  6 37  1  0
 11 38  1  0
 14 39  1  0
 16 40  1  0
 16 41  1  0
 16 42  1  0
 20 43  1  0
 21 44  1  0
 26 45  1  0
M  END
>  <UniqueID>  (28) 
28

>  <SMILES>  (28) 
C[C@H]1COCCN1C(=O)c1cc2ncn(C)c2c(-c2ccc(F)c(F)c2)n1

>  <Energy>  (28) 
101.30456031415252

>  <Genealogy>  (28) 
C[C@H]1COCCN1C(=O)c1cc2ncn(C)c2c(-c2ccc(F)c(F)c2)n1 (chirality)
C[C@H]1COCCN1C(=O)c1cc2ncn(C)c2c(-c2ccc(F)c(F)c2)n1 (3D coordinates assigned)
C[C@H]1COCCN1C(=O)c1cc2ncn(C)c2c(-c2ccc(F)c(F)c2)n1 (nonaromatic ring conformer: 101.30456031415252 kcal/mol)

>  <smiles>  (28) 
CC1COCCN1C(=O)c1cc2ncn(C)c2c(-c2ccc(F)c(F)c2)n1

>  <score_type>  (28) 
oracle

>  <origin>  (28) 
adg

>  <m_score__min__energy>  (28) 
-7.75

>  <m_primary>  (28) 
energy

$$$$
28:0
     RDKit          3D

 37 38  0  0  0  0  0  0  0  0999 V2000
   53.4990   24.1290   45.5170 C   0  0  0  0  0  0  0  0  0  0  0  0
   54.9070   24.5200   45.0790 C   0  0  0  0  0  0  0  0  0  0  0  0
   55.5500   25.3060   46.0840 O   0  0  0  0  0  0  0  0  0  0  0  0
   56.6890   26.1070   45.8960 C   0  0  0  0  0  0  0  0  0  0  0  0
   56.6530   27.5120   45.9980 C   0  0  0  0  0  0  0  0  0  0  0  0
   57.8140   28.2780   45.8040 C   0  0  0  0  0  0  0  0  0  0  0  0
   57.7450   29.7820   45.9460 C   0  0  0  0  0  0  0  0  0  0  0  0
   56.8970   30.3780   44.8900 N   0  0  0  0  0  0  0  0  0  0  0  0
   57.0610   29.6600   43.5980 C   0  0  0  0  0  0  0  0  0  0  0  0
   56.6290   30.5180   42.4050 C   0  0  0  0  0  0  0  0  0  0  0  0
   57.4980   31.7810   42.2940 C   0  0  0  0  0  0  0  0  0  0  0  0
   58.0460   32.2450   43.6550 C   0  0  0  0  0  0  0  0  0  0  0  0
   57.0980   31.8490   44.7950 C   0  0  0  0  0  0  0  0  0  0  0  0
   59.0320   27.6260   45.5200 C   0  0  0  0  0  0  0  0  0  0  0  0
   60.6700   28.5940   45.2660 Br  0  0  0  0  0  0  0  0  0  0  0  0
   59.0680   26.2330   45.4210 C   0  0  0  0  0  0  0  0  0  0  0  0
   57.9090   25.4770   45.6070 C   0  0  0  0  0  0  0  0  0  0  0  0
   58.0080   23.5710   45.4640 Br  0  0  0  0  0  0  0  0  0  0  0  0
   53.4475   24.1147   46.6157 H   0  0  0  0  0  0  0  0  0  0  0  0
   52.7768   24.8606   45.1256 H   0  0  0  0  0  0  0  0  0  0  0  0
   53.2574   23.1298   45.1256 H   0  0  0  0  0  0  0  0  0  0  0  0
   55.4962   23.6081   44.9023 H   0  0  0  0  0  0  0  0  0  0  0  0
   54.8373   25.1150   44.1564 H   0  0  0  0  0  0  0  0  0  0  0  0
   55.7034   28.0152   46.2326 H   0  0  0  0  0  0  0  0  0  0  0  0
   57.3214   30.0310   46.9302 H   0  0  0  0  0  0  0  0  0  0  0  0
   58.7622   30.1893   45.8489 H   0  0  0  0  0  0  0  0  0  0  0  0
   58.1197   29.3881   43.4749 H   0  0  0  0  0  0  0  0  0  0  0  0
   56.4205   28.7660   43.6228 H   0  0  0  0  0  0  0  0  0  0  0  0
   56.7309   29.9285   41.4819 H   0  0  0  0  0  0  0  0  0  0  0  0
   55.5826   30.8234   42.5525 H   0  0  0  0  0  0  0  0  0  0  0  0
   58.3463   31.5672   41.6272 H   0  0  0  0  0  0  0  0  0  0  0  0
   56.8635   32.5877   41.8983 H   0  0  0  0  0  0  0  0  0  0  0  0
   59.0275   31.7785   43.8253 H   0  0  0  0  0  0  0  0  0  0  0  0
   58.1369   33.3411   43.6403 H   0  0  0  0  0  0  0  0  0  0  0  0
   57.5205   32.2085   45.7449 H   0  0  0  0  0  0  0  0  0  0  0  0
   56.1190   32.3052   44.5865 H   0  0  0  0  0  0  0  0  0  0  0  0
   60.0181   25.7271   45.1944 H   0  0  0  0  0  0  0  0  0  0  0  0
  1  2  1  0
  2  3  1  0
  3  4  1  0
  4  5  2  0
  5  6  1  0
  6  7  1  0
  7  8  1  0
  8  9  1  0
  9 10  1  0
 10 11  1  0
 11 12  1  0
 12 13  1  0
  6 14  2  0
 14 15  1  0
 14 16  1  0
 16 17  2  0
 17 18  1  0
 17  4  1  0
 13  8  1  0
  1 19  1  0
  1 20  1  0
  1 21  1  0
  2 22  1  0
  2 23  1  0
  5 24  1  0
  7 25  1  0
  7 26  1  0
  9 27  1  0
  9 28  1  0
 10 29  1  0
 10 30  1  0
 11 31  1  0
 11 32  1  0
 12 33  1  0
 12 34  1  0
 13 35  1  0
 13 36  1  0
 16 37  1  0
M  END
>  <UniqueID>  (29) 
29

>  <SMILES>  (29) 
CCOc1cc(CN2CCCCC2)c(Br)cc1Br

>  <Energy>  (29) 
41.88232260229102

>  <Genealogy>  (29) 
CCOc1cc(CN2CCCCC2)c(Br)cc1Br (3D coordinates assigned)
CCOc1cc(CN2CCCCC2)c(Br)cc1Br (nonaromatic ring conformer: 41.88232260229102 kcal/mol)

>  <smiles>  (29) 
CCOc1cc(CN2CCCCC2)c(Br)cc1Br

>  <score_type>  (29) 
oracle

>  <origin>  (29) 
adg

>  <m_score__min__energy>  (29) 
-7.0099999999999998

>  <m_primary>  (29) 
energy

$$$$
