0:0
     RDKit          3D

 39 41  0  0  0  0  0  0  0  0999 V2000
   58.6908   34.4030   43.2637 H   0  0  0  0  0  0  0  0  0  0  0  0
   58.7070   33.7330   44.1360 C   0  0  0  0  0  0  0  0  0  0  0  0
   59.4270   34.0720   45.2360 N   0  0  0  0  0  0  0  0  0  0  0  0
   59.4720   33.2730   46.3380 C   0  0  0  0  0  0  0  0  0  0  0  0
   60.2690   33.6930   47.5310 C   0  0  0  0  0  0  0  0  0  0  0  0
   59.7323   33.4102   48.4486 H   0  0  0  0  0  0  0  0  0  0  0  0
   61.2493   33.1944   47.5111 H   0  0  0  0  0  0  0  0  0  0  0  0
   60.4119   34.7835   47.5111 H   0  0  0  0  0  0  0  0  0  0  0  0
   58.7600   32.0660   46.3510 C   0  0  0  0  0  0  0  0  0  0  0  0
   58.7786   31.4232   47.2434 H   0  0  0  0  0  0  0  0  0  0  0  0
   58.0230   31.6810   45.2200 C   0  0  0  0  0  0  0  0  0  0  0  0
   57.2630   30.4140   45.2370 C   0  0  0  0  0  0  0  0  0  0  0  0
   56.0450   30.2620   44.6600 N   0  0  0  0  0  0  0  0  0  0  0  0
   55.6250   29.0140   44.8450 N   0  0  0  0  0  0  0  0  0  0  0  0
   56.5750   28.3720   45.5460 C   0  0  0  0  0  0  0  0  0  0  0  0
   56.5560   27.0580   45.9980 C   0  0  0  0  0  0  0  0  0  0  0  0
   55.7171   26.3850   45.7672 H   0  0  0  0  0  0  0  0  0  0  0  0
   57.6570   26.6230   46.7650 C   0  0  0  0  0  0  0  0  0  0  0  0
   57.6740   25.3970   47.2030 N   0  0  0  0  0  0  0  0  0  0  0  0
   56.8890   24.2930   46.7190 C   0  0  0  0  0  0  0  0  0  0  0  0
   57.3970   23.1510   46.5670 O   0  0  0  0  0  0  0  0  0  0  0  0
   55.5100   24.4860   46.3900 N   0  0  0  0  0  0  0  0  0  0  0  0
   54.9100   24.0550   45.1310 C   0  0  0  0  0  0  0  0  0  0  0  0
   54.2294   24.8399   44.7695 H   0  0  0  0  0  0  0  0  0  0  0  0
   54.3596   23.1190   45.3072 H   0  0  0  0  0  0  0  0  0  0  0  0
   55.9850   23.7970   44.0710 C   0  0  0  0  0  0  0  0  0  0  0  0
   56.9668   23.7252   44.5618 H   0  0  0  0  0  0  0  0  0  0  0  0
   55.9796   24.6284   43.3507 H   0  0  0  0  0  0  0  0  0  0  0  0
   55.7220   22.5910   43.3780 O   0  0  0  0  0  0  0  0  0  0  0  0
   56.9150   21.8610   43.1890 C   0  0  0  0  0  0  0  0  0  0  0  0
   57.3434   21.5989   44.1676 H   0  0  0  0  0  0  0  0  0  0  0  0
   56.6969   20.9415   42.6260 H   0  0  0  0  0  0  0  0  0  0  0  0
   57.6345   22.4737   42.6260 H   0  0  0  0  0  0  0  0  0  0  0  0
   58.6800   27.4970   47.0470 N   0  0  0  0  0  0  0  0  0  0  0  0
   58.6870   28.7860   46.5980 C   0  0  0  0  0  0  0  0  0  0  0  0
   59.5138   29.4681   46.8454 H   0  0  0  0  0  0  0  0  0  0  0  0
   57.6150   29.2110   45.8170 C   0  0  0  0  0  0  0  0  0  0  0  0
   57.9870   32.5370   44.1080 C   0  0  0  0  0  0  0  0  0  0  0  0
   57.3956   32.2674   43.2206 H   0  0  0  0  0  0  0  0  0  0  0  0
  1  2  1  0
  2  3  2  0
  3  4  1  0
  4  5  1  0
  5  6  1  0
  5  7  1  0
  5  8  1  0
  4  9  2  0
  9 10  1  0
  9 11  1  0
 11 12  1  0
 12 13  2  0
 13 14  1  0
 14 15  1  0
 15 16  2  0
 16 17  1  0
 16 18  1  0
 18 19  2  0
 19 20  1  0
 20 21  2  0
 20 22  1  0
 22 23  1  0
 23 24  1  0
 23 25  1  0
 23 26  1  0
 26 27  1  0
 26 28  1  0
 26 29  1  0
 29 30  1  0
 30 31  1  0
 30 32  1  0
 30 33  1  0
 18 34  1  0
 34 35  1  0
 35 36  1  0
 35 37  2  0
 11 38  2  0
 38 39  1  0
 38  2  1  0
 37 12  1  0
 37 15  1  0
M  CHG  3  14  -1  22  -1  34  -1
M  END
>  <UniqueID>  (1) 
1

>  <SMILES>  (1) 
COCC[N-]C(=O)/N=c1/cc2[n-]nc(-c3ccnc(C)c3)c2c[n-]1

>  <Energy>  (1) 
84.99650210104792

>  <Genealogy>  (1) 
COCC[N-]C(=O)N=c1cc2[n-]nc(-c3ccnc(C)c3)c2c[n-]1 (protonated)
COCC[N-]C(=O)/N=c1/cc2[n-]nc(-c3ccnc(C)c3)c2c[n-]1 (cis-trans isomerization)
COCC[N-]C(=O)/N=c1/cc2[n-]nc(-c3ccnc(C)c3)c2c[n-]1 (3D coordinates assigned)
COCC[N-]C(=O)/N=c1/cc2[n-]nc(-c3ccnc(C)c3)c2c[n-]1 (optimized conformer: 84.99650210104792 kcal/mol)

>  <smiles>  (1) 
COCCNC(=O)N=c1cc2[nH]nc(-c3ccnc(C)c3)c2c[nH]1

>  <score_type>  (1) 
oracle

>  <origin>  (1) 
adg

>  <m_score__min__energy>  (1) 
-12.039999999999999

>  <m_primary>  (1) 
energy

$$$$
1:0
     RDKit          3D

 49 52  0  0  0  0  0  0  0  0999 V2000
   60.9859   29.8179   45.3648 H   0  0  0  0  0  0  0  0  0  0  0  0
   59.8930   29.6930   45.3650 C   0  0  0  0  0  0  0  0  0  0  0  0
   59.0700   30.7490   45.1090 N   0  0  0  0  0  0  0  0  0  0  0  0
   57.7030   30.6140   45.1080 C   0  0  0  0  0  0  0  0  0  0  0  0
   56.9330   31.6310   44.8620 N   0  0  0  0  0  0  0  0  0  0  0  0
   57.4000   32.9500   44.4390 C   0  0  0  0  0  0  0  0  0  0  0  0
   58.4899   32.9177   44.2935 H   0  0  0  0  0  0  0  0  0  0  0  0
   56.8972   33.2183   43.4981 H   0  0  0  0  0  0  0  0  0  0  0  0
   57.0640   34.0100   45.4980 C   0  0  0  0  0  0  0  0  0  0  0  0
   56.5843   34.8684   45.0049 H   0  0  0  0  0  0  0  0  0  0  0  0
   56.3889   33.5561   46.2384 H   0  0  0  0  0  0  0  0  0  0  0  0
   58.2780   34.4770   46.2020 N   0  0  0  0  0  0  0  0  0  0  0  0
   58.4440   33.7920   47.5080 C   0  0  0  0  0  0  0  0  0  0  0  0
   58.7941   34.5231   48.2516 H   0  0  0  0  0  0  0  0  0  0  0  0
   57.4712   33.3682   47.7979 H   0  0  0  0  0  0  0  0  0  0  0  0
   59.4630   32.6390   47.4240 C   0  0  0  0  0  0  0  0  0  0  0  0
   59.5423   32.1728   48.4172 H   0  0  0  0  0  0  0  0  0  0  0  0
   59.0939   31.9393   46.6597 H   0  0  0  0  0  0  0  0  0  0  0  0
   60.7610   33.0510   47.0170 O   0  0  0  0  0  0  0  0  0  0  0  0
   60.7600   34.2100   46.1940 C   0  0  0  0  0  0  0  0  0  0  0  0
   60.8548   35.0956   46.8395 H   0  0  0  0  0  0  0  0  0  0  0  0
   61.6035   34.1115   45.4949 H   0  0  0  0  0  0  0  0  0  0  0  0
   59.4850   34.3590   45.3470 C   0  0  0  0  0  0  0  0  0  0  0  0
   59.5723   35.2617   44.7245 H   0  0  0  0  0  0  0  0  0  0  0  0
   59.3789   33.4614   44.7201 H   0  0  0  0  0  0  0  0  0  0  0  0
   57.1400   29.3970   45.3630 N   0  0  0  0  0  0  0  0  0  0  0  0
   57.9510   28.3420   45.6170 C   0  0  0  0  0  0  0  0  0  0  0  0
   59.3190   28.4560   45.6260 C   0  0  0  0  0  0  0  0  0  0  0  0
   59.9760   27.1430   45.9360 C   0  0  0  0  0  0  0  0  0  0  0  0
   60.6160   26.8026   45.1087 H   0  0  0  0  0  0  0  0  0  0  0  0
   60.6515   27.1592   46.8040 H   0  0  0  0  0  0  0  0  0  0  0  0
   58.7610   26.2670   46.0980 C   0  0  0  0  0  0  0  0  0  0  0  0
   58.7260   24.9080   46.3990 C   0  0  0  0  0  0  0  0  0  0  0  0
   59.6589   24.3443   46.5474 H   0  0  0  0  0  0  0  0  0  0  0  0
   57.4700   24.2630   46.5110 C   0  0  0  0  0  0  0  0  0  0  0  0
   57.3640   22.8970   46.8120 O   0  0  0  0  0  0  0  0  0  0  0  0
   57.3290   21.8580   45.8390 C   0  0  0  0  0  0  0  0  0  0  0  0
   57.2961   20.8822   46.3456 H   0  0  0  0  0  0  0  0  0  0  0  0
   56.4343   21.9748   45.2099 H   0  0  0  0  0  0  0  0  0  0  0  0
   58.2296   21.9143   45.2099 H   0  0  0  0  0  0  0  0  0  0  0  0
   56.2760   25.0000   46.3160 C   0  0  0  0  0  0  0  0  0  0  0  0
   55.0520   24.3250   46.4370 O   0  0  0  0  0  0  0  0  0  0  0  0
   54.1630   24.0690   45.3550 C   0  0  0  0  0  0  0  0  0  0  0  0
   53.1766   23.7849   45.7503 H   0  0  0  0  0  0  0  0  0  0  0  0
   54.0642   24.9752   44.7393 H   0  0  0  0  0  0  0  0  0  0  0  0
   54.5613   23.2491   44.7393 H   0  0  0  0  0  0  0  0  0  0  0  0
   56.3400   26.3790   46.0100 C   0  0  0  0  0  0  0  0  0  0  0  0
   55.4221   26.9648   45.8540 H   0  0  0  0  0  0  0  0  0  0  0  0
   57.5930   26.9770   45.9110 C   0  0  0  0  0  0  0  0  0  0  0  0
  1  2  1  0
  2  3  1  0
  3  4  1  0
  4  5  2  0
  5  6  1  0
  6  7  1  0
  6  8  1  0
  6  9  1  0
  9 10  1  0
  9 11  1  0
  9 12  1  0
 12 13  1  0
 13 14  1  0
 13 15  1  0
 13 16  1  0
 16 17  1  0
 16 18  1  0
 16 19  1  0
 19 20  1  0
 20 21  1  0
 20 22  1  0
 20 23  1  0
 23 24  1  0
 23 25  1  0
  4 26  1  0
 26 27  2  0
 27 28  1  0
 28 29  1  0
 29 30  1  0
 29 31  1  0
 29 32  1  0
 32 33  2  0
 33 34  1  0
 33 35  1  0
 35 36  1  0
 36 37  1  0
 37 38  1  0
 37 39  1  0
 37 40  1  0
 35 41  2  0
 41 42  1  0
 42 43  1  0
 43 44  1  0
 43 45  1  0
 43 46  1  0
 41 47  1  0
 47 48  1  0
 47 49  2  0
 28  2  2  0
 49 32  1  0
 23 12  1  0
 49 27  1  0
M  CHG  1   3  -1
M  END
>  <UniqueID>  (2) 
2

>  <SMILES>  (2) 
COc1cc2c(cc1OC)-c1n/c(=N/CCN3CCOCC3)[n-]cc1C2

>  <Energy>  (2) 
88.58926402959892

>  <Genealogy>  (2) 
COc1cc2c(cc1OC)-c1nc(=NCCN3CCOCC3)[n-]cc1C2 (protonated)
COc1cc2c(cc1OC)-c1n/c(=N/CCN3CCOCC3)[n-]cc1C2 (cis-trans isomerization)
COc1cc2c(cc1OC)-c1n/c(=N/CCN3CCOCC3)[n-]cc1C2 (3D coordinates assigned)
COc1cc2c(cc1OC)-c1n/c(=N/CCN3CCOCC3)[n-]cc1C2 (nonaromatic ring conformer: 88.58926402959892 kcal/mol)

>  <smiles>  (2) 
COc1cc2c(cc1OC)-c1nc(=NCCN3CCOCC3)[nH]cc1C2

>  <score_type>  (2) 
oracle

>  <origin>  (2) 
adg

>  <m_score__min__energy>  (2) 
-8.8599999999999994

>  <m_primary>  (2) 
energy

$$$$
2:0
     RDKit          3D

 55 57  0  0  0  0  0  0  0  0999 V2000
   61.3064   27.7707   49.9943 H   0  0  0  0  0  0  0  0  0  0  0  0
   60.6220   28.3150   49.3270 C   0  0  0  0  0  0  0  0  0  0  0  0
   60.2910   29.5720   49.6670 C   0  0  0  0  0  0  0  0  0  0  0  0
   61.5750   30.7870   49.9340 S   0  0  0  0  0  0  0  0  0  0  0  0
   60.9070   31.8860   48.6750 C   0  0  0  0  0  0  0  0  0  0  0  0
   61.7750   32.5120   47.7760 C   0  0  0  0  0  0  0  0  0  0  0  0
   62.8456   32.2592   47.7815 H   0  0  0  0  0  0  0  0  0  0  0  0
   61.2880   33.4570   46.8710 C   0  0  0  0  0  0  0  0  0  0  0  0
   61.9753   33.9382   46.1597 H   0  0  0  0  0  0  0  0  0  0  0  0
   59.9270   33.7960   46.8640 C   0  0  0  0  0  0  0  0  0  0  0  0
   59.4000   34.7860   45.9030 C   0  0  0  0  0  0  0  0  0  0  0  0
   59.7010   36.0000   46.0500 O   0  0  0  0  0  0  0  0  0  0  0  0
   58.5840   34.4080   44.7890 N   0  0  0  0  0  0  0  0  0  0  0  0
   57.6360   33.2980   44.7870 C   0  0  0  0  0  0  0  0  0  0  0  0
   56.6107   33.6960   44.8053 H   0  0  0  0  0  0  0  0  0  0  0  0
   57.8128   32.6738   45.6753 H   0  0  0  0  0  0  0  0  0  0  0  0
   57.8240   32.4440   43.5320 C   0  0  0  0  0  0  0  0  0  0  0  0
   58.6439   32.8683   42.9338 H   0  0  0  0  0  0  0  0  0  0  0  0
   56.8768   32.4508   42.9727 H   0  0  0  0  0  0  0  0  0  0  0  0
   58.1620   30.9860   43.8710 C   0  0  0  0  0  0  0  0  0  0  0  0
   59.2280   30.9081   44.1310 H   0  0  0  0  0  0  0  0  0  0  0  0
   57.9484   30.3491   43.0000 H   0  0  0  0  0  0  0  0  0  0  0  0
   57.3410   30.5410   45.0190 N   0  0  0  0  0  0  0  0  0  0  0  0
   58.1670   30.1540   46.1920 C   0  0  0  0  0  0  0  0  0  0  0  0
   57.8413   29.1586   46.5283 H   0  0  0  0  0  0  0  0  0  0  0  0
   58.0169   30.9349   46.9520 H   0  0  0  0  0  0  0  0  0  0  0  0
   59.6770   30.0970   45.9160 C   0  0  0  0  0  0  0  0  0  0  0  0
   60.2236   30.0764   46.8703 H   0  0  0  0  0  0  0  0  0  0  0  0
   59.9105   29.1894   45.3400 H   0  0  0  0  0  0  0  0  0  0  0  0
   59.9782   30.9844   45.3400 H   0  0  0  0  0  0  0  0  0  0  0  0
   56.3140   29.5490   44.6270 C   0  0  0  0  0  0  0  0  0  0  0  0
   56.7281   28.5383   44.7572 H   0  0  0  0  0  0  0  0  0  0  0  0
   55.4316   29.7020   45.2658 H   0  0  0  0  0  0  0  0  0  0  0  0
   55.8800   29.7210   43.1720 C   0  0  0  0  0  0  0  0  0  0  0  0
   54.8578   30.1261   43.1397 H   0  0  0  0  0  0  0  0  0  0  0  0
   56.5658   30.4153   42.6644 H   0  0  0  0  0  0  0  0  0  0  0  0
   55.9040   28.7454   42.6644 H   0  0  0  0  0  0  0  0  0  0  0  0
   59.0470   33.1320   47.7340 C   0  0  0  0  0  0  0  0  0  0  0  0
   57.9732   33.3692   47.7093 H   0  0  0  0  0  0  0  0  0  0  0  0
   59.5260   32.1690   48.6340 C   0  0  0  0  0  0  0  0  0  0  0  0
   58.5970   31.4020   49.4190 N   0  0  0  0  0  0  0  0  0  0  0  0
   57.6130   31.7400   49.5300 H   0  0  0  0  0  0  0  0  0  0  0  0
   58.9120   30.0660   49.8350 C   0  0  0  0  0  0  0  0  0  0  0  0
   58.0200   29.3380   50.3480 O   0  0  0  0  0  0  0  0  0  0  0  0
   60.1350   27.6090   48.1230 C   0  0  0  0  0  0  0  0  0  0  0  0
   61.0670   27.1050   47.2020 C   0  0  0  0  0  0  0  0  0  0  0  0
   62.1439   27.2135   47.3981 H   0  0  0  0  0  0  0  0  0  0  0  0
   60.6330   26.4660   46.0370 C   0  0  0  0  0  0  0  0  0  0  0  0
   61.3685   26.0576   45.3283 H   0  0  0  0  0  0  0  0  0  0  0  0
   59.2660   26.3450   45.7710 C   0  0  0  0  0  0  0  0  0  0  0  0
   58.9268   25.8356   44.8570 H   0  0  0  0  0  0  0  0  0  0  0  0
   58.3300   26.8710   46.6660 C   0  0  0  0  0  0  0  0  0  0  0  0
   56.6150   26.7420   46.3210 Cl  0  0  0  0  0  0  0  0  0  0  0  0
   58.7620   27.5110   47.8340 C   0  0  0  0  0  0  0  0  0  0  0  0
   58.0243   27.9391   48.5287 H   0  0  0  0  0  0  0  0  0  0  0  0
  1  2  1  0
  2  3  2  0
  3  4  1  0
  4  5  1  0
  5  6  2  0
  6  7  1  0
  6  8  1  0
  8  9  1  0
  8 10  2  0
 10 11  1  0
 11 12  2  0
 11 13  1  0
 13 14  1  0
 14 15  1  0
 14 16  1  0
 14 17  1  0
 17 18  1  0
 17 19  1  0
 17 20  1  0
 20 21  1  0
 20 22  1  0
 20 23  1  0
 23 24  1  0
 24 25  1  0
 24 26  1  0
 24 27  1  0
 27 28  1  0
 27 29  1  0
 27 30  1  0
 23 31  1  0
 31 32  1  0
 31 33  1  0
 31 34  1  0
 34 35  1  0
 34 36  1  0
 34 37  1  0
 10 38  1  0
 38 39  1  0
 38 40  2  0
 40 41  1  0
 41 42  1  0
 41 43  1  0
 43 44  2  0
  2 45  1  0
 45 46  2  0
 46 47  1  0
 46 48  1  0
 48 49  1  0
 48 50  2  0
 50 51  1  0
 50 52  1  0
 52 53  1  0
 52 54  2  0
 54 55  1  0
 43  3  1  0
 54 45  1  0
 40  5  1  0
M  CHG  1  13  -1
M  END
>  <UniqueID>  (3) 
3

>  <SMILES>  (3) 
CCN(CC)CCC[N-]C(=O)c1ccc2c(c1)NC(=O)/C(=C\c1cccc(Cl)c1)S2

>  <Energy>  (3) 
76.11231257811698

>  <Genealogy>  (3) 
CCN(CC)CCC[N-]C(=O)c1ccc2c(c1)NC(=O)C(=Cc1cccc(Cl)c1)S2 (protonated)
CCN(CC)CCC[N-]C(=O)c1ccc2c(c1)NC(=O)/C(=C\c1cccc(Cl)c1)S2 (cis-trans isomerization)
CCN(CC)CCC[N-]C(=O)c1ccc2c(c1)NC(=O)/C(=C\c1cccc(Cl)c1)S2 (3D coordinates assigned)
CCN(CC)CCC[N-]C(=O)c1ccc2c(c1)NC(=O)/C(=C\c1cccc(Cl)c1)S2 (nonaromatic ring conformer: 76.11231257811698 kcal/mol)

>  <smiles>  (3) 
CCN(CC)CCCNC(=O)c1ccc2c(c1)NC(=O)C(=Cc1cccc(Cl)c1)S2

>  <score_type>  (3) 
oracle

>  <origin>  (3) 
adg

>  <m_score__min__energy>  (3) 
-10.9

>  <m_primary>  (3) 
energy

$$$$
3:0
     RDKit          3D

 42 44  0  0  0  0  0  0  0  0999 V2000
   56.6430   20.1440   45.2760 C   0  0  0  0  0  0  0  0  0  0  0  0
   56.6020   20.7010   43.5430 S   0  0  0  0  0  0  0  0  0  0  0  0
   56.9600   22.4090   43.9580 C   0  0  0  0  0  0  0  0  0  0  0  0
   56.7340   23.4200   43.0200 C   0  0  0  0  0  0  0  0  0  0  0  0
   57.0150   24.7520   43.3400 C   0  0  0  0  0  0  0  0  0  0  0  0
   57.5300   25.0880   44.6070 C   0  0  0  0  0  0  0  0  0  0  0  0
   57.8290   26.5020   44.9490 C   0  0  0  0  0  0  0  0  0  0  0  0
   57.7990   26.9350   46.2870 C   0  0  0  0  0  0  0  0  0  0  0  0
   58.0830   28.2650   46.6080 C   0  0  0  0  0  0  0  0  0  0  0  0
   58.4050   29.1840   45.5990 C   0  0  0  0  0  0  0  0  0  0  0  0
   58.7030   30.5950   45.9390 C   0  0  0  0  0  0  0  0  0  0  0  0
   59.8360   30.9440   46.7090 C   0  0  0  0  0  0  0  0  0  0  0  0
   60.8000   29.8950   47.2030 C   0  0  0  0  0  0  0  0  0  0  0  0
   60.0580   32.2520   47.0290 N   0  0  0  0  0  0  0  0  0  0  0  0
   59.2380   33.2560   46.6050 C   0  0  0  0  0  0  0  0  0  0  0  0
   59.5430   34.6800   46.9840 C   0  0  0  0  0  0  0  0  0  0  0  0
   58.1160   32.9520   45.8160 C   0  0  0  0  0  0  0  0  0  0  0  0
   57.0320   34.2240   45.2440 Cl  0  0  0  0  0  0  0  0  0  0  0  0
   57.8490   31.6180   45.4880 C   0  0  0  0  0  0  0  0  0  0  0  0
   56.8330   31.3360   44.7960 O   0  0  0  0  0  0  0  0  0  0  0  0
   58.4290   28.7590   44.2640 C   0  0  0  0  0  0  0  0  0  0  0  0
   58.1470   27.4300   43.9410 C   0  0  0  0  0  0  0  0  0  0  0  0
   57.7590   24.0600   45.5410 C   0  0  0  0  0  0  0  0  0  0  0  0
   57.4760   22.7310   45.2180 C   0  0  0  0  0  0  0  0  0  0  0  0
   56.5788   21.0163   45.9431 H   0  0  0  0  0  0  0  0  0  0  0  0
   55.7918   19.4737   45.4659 H   0  0  0  0  0  0  0  0  0  0  0  0
   57.5832   19.6055   45.4659 H   0  0  0  0  0  0  0  0  0  0  0  0
   56.3339   23.1673   42.0270 H   0  0  0  0  0  0  0  0  0  0  0  0
   56.8326   25.5425   42.5972 H   0  0  0  0  0  0  0  0  0  0  0  0
   57.5502   26.2215   47.0864 H   0  0  0  0  0  0  0  0  0  0  0  0
   58.0538   28.5928   47.6576 H   0  0  0  0  0  0  0  0  0  0  0  0
   60.8045   29.8901   48.3030 H   0  0  0  0  0  0  0  0  0  0  0  0
   60.4880   28.9071   46.8332 H   0  0  0  0  0  0  0  0  0  0  0  0
   61.8107   30.1226   46.8332 H   0  0  0  0  0  0  0  0  0  0  0  0
   60.8900   32.4930   47.6160 H   0  0  0  0  0  0  0  0  0  0  0  0
   59.5626   34.7716   48.0800 H   0  0  0  0  0  0  0  0  0  0  0  0
   60.5229   34.9666   46.5745 H   0  0  0  0  0  0  0  0  0  0  0  0
   58.7664   35.3428   46.5745 H   0  0  0  0  0  0  0  0  0  0  0  0
   58.6713   29.4762   43.4660 H   0  0  0  0  0  0  0  0  0  0  0  0
   58.1738   27.1064   42.8900 H   0  0  0  0  0  0  0  0  0  0  0  0
   58.1643   24.3055   46.5337 H   0  0  0  0  0  0  0  0  0  0  0  0
   57.6592   21.9359   45.9557 H   0  0  0  0  0  0  0  0  0  0  0  0
  1  2  1  0
  2  3  1  0
  3  4  2  0
  4  5  1  0
  5  6  2  0
  6  7  1  0
  7  8  2  0
  8  9  1  0
  9 10  2  0
 10 11  1  0
 11 12  2  0
 12 13  1  0
 12 14  1  0
 14 15  1  0
 15 16  1  0
 15 17  2  0
 17 18  1  0
 17 19  1  0
 19 20  2  0
 10 21  1  0
 21 22  2  0
  6 23  1  0
 23 24  2  0
 24  3  1  0
 22  7  1  0
 19 11  1  0
  1 25  1  0
  1 26  1  0
  1 27  1  0
  4 28  1  0
  5 29  1  0
  8 30  1  0
  9 31  1  0
 13 32  1  0
 13 33  1  0
 13 34  1  0
 14 35  1  0
 16 36  1  0
 16 37  1  0
 16 38  1  0
 21 39  1  0
 22 40  1  0
 23 41  1  0
 24 42  1  0
M  END
>  <UniqueID>  (4) 
4

>  <SMILES>  (4) 
CSc1ccc(-c2ccc(-c3c(C)[nH]c(C)c(Cl)c3=O)cc2)cc1

>  <Energy>  (4) 
55.11307627087269

>  <Genealogy>  (4) 
CSc1ccc(-c2ccc(-c3c(C)[nH]c(C)c(Cl)c3=O)cc2)cc1 (3D coordinates assigned)
CSc1ccc(-c2ccc(-c3c(C)[nH]c(C)c(Cl)c3=O)cc2)cc1 (optimized conformer: 55.11307627087269 kcal/mol)

>  <smiles>  (4) 
CSc1ccc(-c2ccc(-c3c(C)[nH]c(C)c(Cl)c3=O)cc2)cc1

>  <score_type>  (4) 
oracle

>  <origin>  (4) 
adg

>  <m_score__min__energy>  (4) 
-8.0700000000000003

>  <m_primary>  (4) 
energy

$$$$
4:0
     RDKit          3D

 56 59  0  0  0  0  0  0  0  0999 V2000
   59.6090   27.0770   48.0580 C   0  0  0  0  0  0  0  0  0  0  0  0
   59.0520   28.3080   48.5080 O   0  0  0  0  0  0  0  0  0  0  0  0
   59.6920   29.5520   48.4010 C   0  0  0  0  0  0  0  0  0  0  0  0
   60.8310   29.6450   47.5920 C   0  0  0  0  0  0  0  0  0  0  0  0
   61.4940   30.8650   47.4390 C   0  0  0  0  0  0  0  0  0  0  0  0
   61.0250   32.0050   48.0940 C   0  0  0  0  0  0  0  0  0  0  0  0
   59.8920   31.9300   48.9190 C   0  0  0  0  0  0  0  0  0  0  0  0
   59.3570   33.1720   49.5830 C   0  0  0  0  0  0  0  0  0  0  0  0
   59.7400   34.4490   48.8210 C   0  0  0  0  0  0  0  0  0  0  0  0
   58.9000   34.6090   47.6110 N   0  0  0  0  0  0  0  0  0  0  0  0
   57.9090   33.5130   47.4430 C   0  0  0  0  0  0  0  0  0  0  0  0
   58.3230   32.5000   46.3640 C   0  0  0  0  0  0  0  0  0  0  0  0
   58.5440   33.1370   45.0380 N   0  0  0  0  0  0  0  0  0  0  0  0
   57.4070   32.9400   44.1100 C   0  0  0  0  0  0  0  0  0  0  0  0
   57.3470   31.4820   43.6300 C   0  0  0  0  0  0  0  0  0  0  0  0
   58.3100   30.6380   44.3370 N   0  0  0  0  0  0  0  0  0  0  0  0
   58.0960   29.2520   44.6710 C   0  0  0  0  0  0  0  0  0  0  0  0
   59.1190   28.2730   44.5110 C   0  0  0  0  0  0  0  0  0  0  0  0
   58.8800   26.9260   44.8380 C   0  0  0  0  0  0  0  0  0  0  0  0
   57.6200   26.5880   45.3210 C   0  0  0  0  0  0  0  0  0  0  0  0
   57.1820   25.3750   45.6900 N   0  0  0  0  0  0  0  0  0  0  0  0
   55.9060   25.6400   46.0680 C   0  0  0  0  0  0  0  0  0  0  0  0
   55.1290   24.7460   46.4910 O   0  0  0  0  0  0  0  0  0  0  0  0
   55.5250   26.9390   45.9580 N   0  0  0  0  0  0  0  0  0  0  0  0
   56.6380   27.5160   45.4810 C   0  0  0  0  0  0  0  0  0  0  0  0
   56.8340   28.8580   45.1690 C   0  0  0  0  0  0  0  0  0  0  0  0
   58.9210   34.5670   45.1300 C   0  0  0  0  0  0  0  0  0  0  0  0
   59.7240   34.8440   46.4040 C   0  0  0  0  0  0  0  0  0  0  0  0
   59.2270   30.7020   49.0690 C   0  0  0  0  0  0  0  0  0  0  0  0
   59.8875   26.4615   48.9261 H   0  0  0  0  0  0  0  0  0  0  0  0
   58.8666   26.5391   47.4502 H   0  0  0  0  0  0  0  0  0  0  0  0
   60.5031   27.2796   47.4502 H   0  0  0  0  0  0  0  0  0  0  0  0
   61.2065   28.7508   47.0731 H   0  0  0  0  0  0  0  0  0  0  0  0
   62.3878   30.9275   46.8008 H   0  0  0  0  0  0  0  0  0  0  0  0
   61.5452   32.9654   47.9631 H   0  0  0  0  0  0  0  0  0  0  0  0
   58.2602   33.1036   49.6306 H   0  0  0  0  0  0  0  0  0  0  0  0
   59.7987   33.2339   50.5885 H   0  0  0  0  0  0  0  0  0  0  0  0
   59.5954   35.3189   49.4785 H   0  0  0  0  0  0  0  0  0  0  0  0
   60.7933   34.3743   48.5128 H   0  0  0  0  0  0  0  0  0  0  0  0
   57.8041   32.9833   48.4014 H   0  0  0  0  0  0  0  0  0  0  0  0
   56.9599   33.9689   47.1244 H   0  0  0  0  0  0  0  0  0  0  0  0
   59.2559   32.0101   46.6797 H   0  0  0  0  0  0  0  0  0  0  0  0
   57.5025   31.7757   46.2538 H   0  0  0  0  0  0  0  0  0  0  0  0
   56.4695   33.1886   44.6290 H   0  0  0  0  0  0  0  0  0  0  0  0
   57.5441   33.5953   43.2372 H   0  0  0  0  0  0  0  0  0  0  0  0
   56.3341   31.0906   43.8055 H   0  0  0  0  0  0  0  0  0  0  0  0
   57.5974   31.4637   42.5590 H   0  0  0  0  0  0  0  0  0  0  0  0
   59.2160   31.0810   44.6140 H   0  0  0  0  0  0  0  0  0  0  0  0
   60.1054   28.5737   44.1280 H   0  0  0  0  0  0  0  0  0  0  0  0
   59.6642   26.1644   44.7157 H   0  0  0  0  0  0  0  0  0  0  0  0
   56.0272   29.5929   45.3066 H   0  0  0  0  0  0  0  0  0  0  0  0
   59.5316   34.8347   44.2551 H   0  0  0  0  0  0  0  0  0  0  0  0
   58.0014   35.1699   45.1584 H   0  0  0  0  0  0  0  0  0  0  0  0
   60.5987   34.1776   46.4301 H   0  0  0  0  0  0  0  0  0  0  0  0
   60.0423   35.8969   46.3961 H   0  0  0  0  0  0  0  0  0  0  0  0
   58.3371   30.6377   49.7124 H   0  0  0  0  0  0  0  0  0  0  0  0
  1  2  1  0
  2  3  1  0
  3  4  2  0
  4  5  1  0
  5  6  2  0
  6  7  1  0
  7  8  1  0
  8  9  1  0
  9 10  1  0
 10 11  1  0
 11 12  1  0
 12 13  1  0
 13 14  1  0
 14 15  1  0
 15 16  1  0
 16 17  1  0
 17 18  2  0
 18 19  1  0
 19 20  2  0
 20 21  1  0
 21 22  1  0
 22 23  2  0
 22 24  1  0
 24 25  1  0
 25 26  2  0
 13 27  1  0
 27 28  1  0
  7 29  2  0
 29  3  1  0
 28 10  1  0
 26 17  1  0
 25 20  1  0
  1 30  1  0
  1 31  1  0
  1 32  1  0
  4 33  1  0
  5 34  1  0
  6 35  1  0
  8 36  1  0
  8 37  1  0
  9 38  1  0
  9 39  1  0
 11 40  1  0
 11 41  1  0
 12 42  1  0
 12 43  1  0
 14 44  1  0
 14 45  1  0
 15 46  1  0
 15 47  1  0
 16 48  1  0
 18 49  1  0
 19 50  1  0
 26 51  1  0
 27 52  1  0
 27 53  1  0
 28 54  1  0
 28 55  1  0
 29 56  1  0
M  CHG  2  21  -1  24  -1
M  END
>  <UniqueID>  (5) 
5

>  <SMILES>  (5) 
COc1cccc(CCN2CCN(CCNc3ccc4[n-]c(=O)[n-]c4c3)CC2)c1

>  <Energy>  (5) 
104.22344133645875

>  <Genealogy>  (5) 
COc1cccc(CCN2CCN(CCNc3ccc4[n-]c(=O)[n-]c4c3)CC2)c1 (protonated)
COc1cccc(CCN2CCN(CCNc3ccc4[n-]c(=O)[n-]c4c3)CC2)c1 (3D coordinates assigned)
COc1cccc(CCN2CCN(CCNc3ccc4[n-]c(=O)[n-]c4c3)CC2)c1 (nonaromatic ring conformer: 104.22344133645875 kcal/mol)

>  <smiles>  (5) 
COc1cccc(CCN2CCN(CCNc3ccc4[nH]c(=O)[nH]c4c3)CC2)c1

>  <score_type>  (5) 
oracle

>  <origin>  (5) 
adg

>  <m_score__min__energy>  (5) 
-12.27

>  <m_primary>  (5) 
energy

$$$$
5:0
     RDKit          3D

 51 54  0  0  0  0  0  0  0  0999 V2000
   59.4900   34.9870   47.0970 C   0  0  0  0  0  0  0  0  0  0  0  0
   60.2480   34.5730   48.3560 C   0  0  0  0  0  0  0  0  0  0  0  0
   61.2300   33.5190   48.0530 N   0  0  0  0  0  0  0  0  0  0  0  0
   62.6630   33.8380   48.1220 C   0  0  0  0  0  0  0  0  0  0  0  0
   63.3590   33.5330   46.7980 C   0  0  0  0  0  0  0  0  0  0  0  0
   60.7960   32.1850   47.6950 C   0  0  0  0  0  0  0  0  0  0  0  0
   60.1390   31.9440   46.4760 C   0  0  0  0  0  0  0  0  0  0  0  0
   59.7310   30.6530   46.1300 C   0  0  0  0  0  0  0  0  0  0  0  0
   59.9690   29.5770   46.9970 C   0  0  0  0  0  0  0  0  0  0  0  0
   59.5550   28.2430   46.6350 N   0  0  0  0  0  0  0  0  0  0  0  0
   60.4890   27.2450   46.6230 C   0  0  0  0  0  0  0  0  0  0  0  0
   60.1400   25.9740   46.2970 N   0  0  0  0  0  0  0  0  0  0  0  0
   58.8630   25.6580   45.9710 C   0  0  0  0  0  0  0  0  0  0  0  0
   58.5320   24.3400   45.6400 C   0  0  0  0  0  0  0  0  0  0  0  0
   57.2130   24.0050   45.2920 C   0  0  0  0  0  0  0  0  0  0  0  0
   56.8560   22.6080   44.9570 C   0  0  0  0  0  0  0  0  0  0  0  0
   56.9940   22.1670   43.6290 C   0  0  0  0  0  0  0  0  0  0  0  0
   56.6500   20.8590   43.2770 C   0  0  0  0  0  0  0  0  0  0  0  0
   56.1740   19.9760   44.2470 C   0  0  0  0  0  0  0  0  0  0  0  0
   56.0440   20.3970   45.5730 C   0  0  0  0  0  0  0  0  0  0  0  0
   56.3850   21.7050   45.9370 C   0  0  0  0  0  0  0  0  0  0  0  0
   56.2660   22.1530   47.6370 Cl  0  0  0  0  0  0  0  0  0  0  0  0
   56.2250   25.0020   45.3000 C   0  0  0  0  0  0  0  0  0  0  0  0
   56.5500   26.3210   45.6290 C   0  0  0  0  0  0  0  0  0  0  0  0
   57.8730   26.6590   45.9670 C   0  0  0  0  0  0  0  0  0  0  0  0
   58.2530   27.9700   46.3040 C   0  0  0  0  0  0  0  0  0  0  0  0
   57.3940   28.8980   46.2870 O   0  0  0  0  0  0  0  0  0  0  0  0
   60.6280   29.8100   48.2140 C   0  0  0  0  0  0  0  0  0  0  0  0
   61.0340   31.1010   48.5610 C   0  0  0  0  0  0  0  0  0  0  0  0
   58.5574   35.4964   47.3813 H   0  0  0  0  0  0  0  0  0  0  0  0
   60.1138   35.6697   46.5013 H   0  0  0  0  0  0  0  0  0  0  0  0
   59.2527   34.0932   46.5013 H   0  0  0  0  0  0  0  0  0  0  0  0
   60.7736   35.4487   48.7647 H   0  0  0  0  0  0  0  0  0  0  0  0
   59.5268   34.1823   49.0889 H   0  0  0  0  0  0  0  0  0  0  0  0
   62.7823   34.9069   48.3525 H   0  0  0  0  0  0  0  0  0  0  0  0
   63.1209   33.2192   48.9078 H   0  0  0  0  0  0  0  0  0  0  0  0
   64.3500   33.0987   46.9962 H   0  0  0  0  0  0  0  0  0  0  0  0
   62.7538   32.8176   46.2219 H   0  0  0  0  0  0  0  0  0  0  0  0
   63.4747   34.4629   46.2219 H   0  0  0  0  0  0  0  0  0  0  0  0
   59.9441   32.7797   45.7877 H   0  0  0  0  0  0  0  0  0  0  0  0
   59.2199   30.4798   45.1715 H   0  0  0  0  0  0  0  0  0  0  0  0
   61.5338   27.4739   46.8800 H   0  0  0  0  0  0  0  0  0  0  0  0
   59.3090   23.5614   45.6523 H   0  0  0  0  0  0  0  0  0  0  0  0
   57.3755   22.8566   42.8616 H   0  0  0  0  0  0  0  0  0  0  0  0
   56.7546   20.5252   42.2341 H   0  0  0  0  0  0  0  0  0  0  0  0
   55.9009   18.9477   43.9676 H   0  0  0  0  0  0  0  0  0  0  0  0
   55.6716   19.6967   46.3351 H   0  0  0  0  0  0  0  0  0  0  0  0
   55.1867   24.7432   45.0453 H   0  0  0  0  0  0  0  0  0  0  0  0
   55.7697   27.0963   45.6236 H   0  0  0  0  0  0  0  0  0  0  0  0
   60.8259   28.9718   48.8983 H   0  0  0  0  0  0  0  0  0  0  0  0
   61.5446   31.2721   49.5202 H   0  0  0  0  0  0  0  0  0  0  0  0
  1  2  1  0
  2  3  1  0
  3  4  1  0
  4  5  1  0
  3  6  1  0
  6  7  2  0
  7  8  1  0
  8  9  2  0
  9 10  1  0
 10 11  1  0
 11 12  2  0
 12 13  1  0
 13 14  2  0
 14 15  1  0
 15 16  1  0
 16 17  2  0
 17 18  1  0
 18 19  2  0
 19 20  1  0
 20 21  2  0
 21 22  1  0
 15 23  2  0
 23 24  1  0
 24 25  2  0
 25 26  1  0
 26 27  2  0
  9 28  1  0
 28 29  2  0
 29  6  1  0
 26 10  1  0
 25 13  1  0
 21 16  1  0
  1 30  1  0
  1 31  1  0
  1 32  1  0
  2 33  1  0
  2 34  1  0
  4 35  1  0
  4 36  1  0
  5 37  1  0
  5 38  1  0
  5 39  1  0
  7 40  1  0
  8 41  1  0
 11 42  1  0
 14 43  1  0
 17 44  1  0
 18 45  1  0
 19 46  1  0
 20 47  1  0
 23 48  1  0
 24 49  1  0
 28 50  1  0
 29 51  1  0
M  END
>  <UniqueID>  (6) 
6

>  <SMILES>  (6) 
CCN(CC)c1ccc(-n2cnc3cc(-c4ccccc4Cl)ccc3c2=O)cc1

>  <Energy>  (6) 
73.36719100623806

>  <Genealogy>  (6) 
CCN(CC)c1ccc(-n2cnc3cc(-c4ccccc4Cl)ccc3c2=O)cc1 (3D coordinates assigned)
CCN(CC)c1ccc(-n2cnc3cc(-c4ccccc4Cl)ccc3c2=O)cc1 (optimized conformer: 73.36719100623806 kcal/mol)

>  <smiles>  (6) 
CCN(CC)c1ccc(-n2cnc3cc(-c4ccccc4Cl)ccc3c2=O)cc1

>  <score_type>  (6) 
oracle

>  <origin>  (6) 
adg

>  <m_score__min__energy>  (6) 
-7.04

>  <m_primary>  (6) 
energy

$$$$
6:0
     RDKit          3D

 43 44  0  0  0  0  0  0  0  0999 V2000
   56.3440   29.7870   42.6770 C   0  0  0  0  0  0  0  0  0  0  0  0
   55.1700   29.7120   43.6470 C   0  0  0  0  0  0  0  0  0  0  0  0
   55.5500   29.0390   44.8460 O   0  0  0  0  0  0  0  0  0  0  0  0
   56.7950   29.2060   45.4610 C   0  0  0  0  0  0  0  0  0  0  0  0
   57.3840   30.3220   45.4360 O   0  0  0  0  0  0  0  0  0  0  0  0
   57.4120   28.0590   46.1940 C   0  0  0  0  0  0  0  0  0  0  0  0
   58.9380   28.1380   46.1210 C   0  0  0  0  0  0  0  0  0  0  0  0
   59.4370   29.3760   46.8160 C   0  0  0  0  0  0  0  0  0  0  0  0
   60.4300   30.1700   46.2210 C   0  0  0  0  0  0  0  0  0  0  0  0
   60.9170   31.3030   46.8790 C   0  0  0  0  0  0  0  0  0  0  0  0
   60.4290   31.6520   48.1510 C   0  0  0  0  0  0  0  0  0  0  0  0
   60.9080   32.8360   48.8170 N   0  0  0  0  0  0  0  0  0  0  0  0
   59.8600   33.8650   48.8290 C   0  0  0  0  0  0  0  0  0  0  0  0
   59.2090   33.9710   47.4730 C   0  0  0  0  0  0  0  0  0  0  0  0
   57.9500   33.3930   47.2460 C   0  0  0  0  0  0  0  0  0  0  0  0
   57.3630   33.4600   45.9780 C   0  0  0  0  0  0  0  0  0  0  0  0
   58.0330   34.0940   44.9290 C   0  0  0  0  0  0  0  0  0  0  0  0
   59.2940   34.6580   45.1440 C   0  0  0  0  0  0  0  0  0  0  0  0
   59.8840   34.5930   46.4100 C   0  0  0  0  0  0  0  0  0  0  0  0
   59.4360   30.8540   48.7450 C   0  0  0  0  0  0  0  0  0  0  0  0
   58.9500   29.7210   48.0860 C   0  0  0  0  0  0  0  0  0  0  0  0
   57.2848   29.8471   43.2439 H   0  0  0  0  0  0  0  0  0  0  0  0
   56.3544   28.8877   42.0437 H   0  0  0  0  0  0  0  0  0  0  0  0
   56.2398   30.6803   42.0437 H   0  0  0  0  0  0  0  0  0  0  0  0
   54.8399   30.7318   43.8942 H   0  0  0  0  0  0  0  0  0  0  0  0
   54.3522   29.1516   43.1704 H   0  0  0  0  0  0  0  0  0  0  0  0
   57.0975   28.0909   47.2476 H   0  0  0  0  0  0  0  0  0  0  0  0
   57.0808   27.1188   45.7288 H   0  0  0  0  0  0  0  0  0  0  0  0
   59.3698   27.2510   46.6077 H   0  0  0  0  0  0  0  0  0  0  0  0
   59.2414   28.1772   45.0644 H   0  0  0  0  0  0  0  0  0  0  0  0
   60.8270   29.8991   45.2316 H   0  0  0  0  0  0  0  0  0  0  0  0
   61.6866   31.9254   46.3990 H   0  0  0  0  0  0  0  0  0  0  0  0
   61.7570   33.2010   48.3230 H   0  0  0  0  0  0  0  0  0  0  0  0
   61.1850   32.6020   49.8000 H   0  0  0  0  0  0  0  0  0  0  0  0
   59.0985   33.5975   49.5763 H   0  0  0  0  0  0  0  0  0  0  0  0
   60.3153   34.8339   49.0819 H   0  0  0  0  0  0  0  0  0  0  0  0
   57.4234   32.8858   48.0678 H   0  0  0  0  0  0  0  0  0  0  0  0
   56.3727   33.0129   45.8068 H   0  0  0  0  0  0  0  0  0  0  0  0
   57.5683   34.1495   43.9335 H   0  0  0  0  0  0  0  0  0  0  0  0
   59.8226   35.1535   44.3163 H   0  0  0  0  0  0  0  0  0  0  0  0
   60.8799   35.0304   46.5739 H   0  0  0  0  0  0  0  0  0  0  0  0
   59.0387   31.1228   49.7349 H   0  0  0  0  0  0  0  0  0  0  0  0
   58.1818   29.0966   48.5655 H   0  0  0  0  0  0  0  0  0  0  0  0
  1  2  1  0
  2  3  1  0
  3  4  1  0
  4  5  2  0
  4  6  1  0
  6  7  1  0
  7  8  1  0
  8  9  2  0
  9 10  1  0
 10 11  2  0
 11 12  1  0
 12 13  1  0
 13 14  1  0
 14 15  2  0
 15 16  1  0
 16 17  2  0
 17 18  1  0
 18 19  2  0
 11 20  1  0
 20 21  2  0
 21  8  1  0
 19 14  1  0
  1 22  1  0
  1 23  1  0
  1 24  1  0
  2 25  1  0
  2 26  1  0
  6 27  1  0
  6 28  1  0
  7 29  1  0
  7 30  1  0
  9 31  1  0
 10 32  1  0
 12 33  1  0
 12 34  1  0
 13 35  1  0
 13 36  1  0
 15 37  1  0
 16 38  1  0
 17 39  1  0
 18 40  1  0
 19 41  1  0
 20 42  1  0
 21 43  1  0
M  CHG  1  12   1
M  END
>  <UniqueID>  (7) 
7

>  <SMILES>  (7) 
CCOC(=O)CCc1ccc([NH2+]Cc2ccccc2)cc1

>  <Energy>  (7) 
34.59980162438601

>  <Genealogy>  (7) 
CCOC(=O)CCc1ccc([NH2+]Cc2ccccc2)cc1 (protonated)
CCOC(=O)CCc1ccc([NH2+]Cc2ccccc2)cc1 (3D coordinates assigned)
CCOC(=O)CCc1ccc([NH2+]Cc2ccccc2)cc1 (optimized conformer: 34.59980162438601 kcal/mol)

>  <smiles>  (7) 
CCOC(=O)CCc1ccc(NCc2ccccc2)cc1

>  <score_type>  (7) 
oracle

>  <origin>  (7) 
adg

>  <m_score__min__energy>  (7) 
-6.4500000000000002

>  <m_primary>  (7) 
energy

$$$$
7:0
     RDKit          3D

 41 41  0  0  0  0  0  0  0  0999 V2000
   58.2990   32.4350   41.6740 C   0  0  0  0  0  0  0  0  0  0  0  0
   57.0200   31.6140   41.7610 C   0  0  0  0  0  0  0  0  0  0  0  0
   56.9240   30.9930   43.1030 N   0  0  0  0  0  0  0  0  0  0  0  0
   56.0710   29.7820   43.1200 C   0  0  0  0  0  0  0  0  0  0  0  0
   55.5660   29.4000   44.5200 C   0  0  0  0  0  0  0  0  0  0  0  0
   58.2360   30.7820   43.7540 C   0  0  0  0  0  0  0  0  0  0  0  0
   58.2240   31.2850   45.2010 C   0  0  0  0  0  0  0  0  0  0  0  0
   56.9940   32.0440   45.4700 N   0  0  0  0  0  0  0  0  0  0  0  0
   57.2880   33.4610   45.7230 C   0  0  0  0  0  0  0  0  0  0  0  0
   58.6030   33.6060   46.4420 C   0  0  0  0  0  0  0  0  0  0  0  0
   59.7330   34.0720   45.7520 C   0  0  0  0  0  0  0  0  0  0  0  0
   60.9510   34.2310   46.4210 C   0  0  0  0  0  0  0  0  0  0  0  0
   61.0480   33.9350   47.7850 C   0  0  0  0  0  0  0  0  0  0  0  0
   62.6140   34.1320   48.6410 S   0  0  0  0  0  0  0  0  0  0  0  0
   63.5610   33.0950   47.4780 C   0  0  0  0  0  0  0  0  0  0  0  0
   63.7640   33.7720   46.2890 F   0  0  0  0  0  0  0  0  0  0  0  0
   62.8890   31.9120   47.2330 F   0  0  0  0  0  0  0  0  0  0  0  0
   59.9250   33.4650   48.4760 C   0  0  0  0  0  0  0  0  0  0  0  0
   58.7070   33.3050   47.8100 C   0  0  0  0  0  0  0  0  0  0  0  0
   58.6569   32.6648   42.6884 H   0  0  0  0  0  0  0  0  0  0  0  0
   59.0673   31.8609   41.1353 H   0  0  0  0  0  0  0  0  0  0  0  0
   58.0970   33.3726   41.1353 H   0  0  0  0  0  0  0  0  0  0  0  0
   56.1516   32.2689   41.5967 H   0  0  0  0  0  0  0  0  0  0  0  0
   57.0354   30.8273   40.9924 H   0  0  0  0  0  0  0  0  0  0  0  0
   55.1992   29.9625   42.4740 H   0  0  0  0  0  0  0  0  0  0  0  0
   56.6923   28.9469   42.7642 H   0  0  0  0  0  0  0  0  0  0  0  0
   56.1991   29.8789   45.2815 H   0  0  0  0  0  0  0  0  0  0  0  0
   54.5269   29.7401   44.6404 H   0  0  0  0  0  0  0  0  0  0  0  0
   55.6105   28.3075   44.6404 H   0  0  0  0  0  0  0  0  0  0  0  0
   58.4699   29.7072   43.7497 H   0  0  0  0  0  0  0  0  0  0  0  0
   58.9968   31.3468   43.1953 H   0  0  0  0  0  0  0  0  0  0  0  0
   58.2755   30.4244   45.8842 H   0  0  0  0  0  0  0  0  0  0  0  0
   59.0909   31.9439   45.3567 H   0  0  0  0  0  0  0  0  0  0  0  0
   56.3960   32.0020   44.6100 H   0  0  0  0  0  0  0  0  0  0  0  0
   57.3387   33.9971   44.7638 H   0  0  0  0  0  0  0  0  0  0  0  0
   56.4902   33.8834   46.3515 H   0  0  0  0  0  0  0  0  0  0  0  0
   59.6604   34.3130   44.6812 H   0  0  0  0  0  0  0  0  0  0  0  0
   61.8349   34.5897   45.8733 H   0  0  0  0  0  0  0  0  0  0  0  0
   64.5365   32.8650   47.9313 H   0  0  0  0  0  0  0  0  0  0  0  0
   60.0015   33.2210   49.5459 H   0  0  0  0  0  0  0  0  0  0  0  0
   57.8260   32.9418   48.3594 H   0  0  0  0  0  0  0  0  0  0  0  0
  1  2  1  0
  2  3  1  0
  3  4  1  0
  4  5  1  0
  3  6  1  0
  6  7  1  0
  7  8  1  0
  8  9  1  0
  9 10  1  0
 10 11  2  0
 11 12  1  0
 12 13  2  0
 13 14  1  0
 14 15  1  0
 15 16  1  0
 15 17  1  0
 13 18  1  0
 18 19  2  0
 19 10  1  0
  1 20  1  0
  1 21  1  0
  1 22  1  0
  2 23  1  0
  2 24  1  0
  4 25  1  0
  4 26  1  0
  5 27  1  0
  5 28  1  0
  5 29  1  0
  6 30  1  0
  6 31  1  0
  7 32  1  0
  7 33  1  0
  8 34  1  0
  9 35  1  0
  9 36  1  0
 11 37  1  0
 12 38  1  0
 15 39  1  0
 18 40  1  0
 19 41  1  0
M  END
>  <UniqueID>  (8) 
8

>  <SMILES>  (8) 
CCN(CC)CCNCc1ccc(SC(F)F)cc1

>  <Energy>  (8) 
32.89693584546372

>  <Genealogy>  (8) 
CCN(CC)CCNCc1ccc(SC(F)F)cc1 (3D coordinates assigned)
CCN(CC)CCNCc1ccc(SC(F)F)cc1 (optimized conformer: 32.89693584546372 kcal/mol)

>  <smiles>  (8) 
CCN(CC)CCNCc1ccc(SC(F)F)cc1

>  <score_type>  (8) 
oracle

>  <origin>  (8) 
adg

>  <m_score__min__energy>  (8) 
-5.79

>  <m_primary>  (8) 
energy

$$$$
8:0
     RDKit          3D

 44 46  0  0  0  0  0  0  0  0999 V2000
   54.5760   24.8010   45.6010 C   0  0  0  0  0  0  0  0  0  0  0  0
   55.2090   26.0060   45.9680 O   0  0  0  0  0  0  0  0  0  0  0  0
   56.3590   25.7190   46.7370 C   0  0  0  0  0  0  0  0  0  0  0  0
   57.6180   26.0320   45.9120 C   0  0  0  0  0  0  0  0  0  0  0  0
   57.3850   25.9220   44.4470 N   0  0  2  0  0  0  0  0  0  0  0  0
   57.3990   24.5080   44.0220 C   0  0  0  0  0  0  0  0  0  0  0  0
   58.4150   26.6720   43.6850 C   0  0  0  0  0  0  0  0  0  0  0  0
   58.7730   27.9780   44.3540 C   0  0  0  0  0  0  0  0  0  0  0  0
   59.9620   28.1580   45.0650 C   0  0  0  0  0  0  0  0  0  0  0  0
   60.0020   29.7250   45.6820 S   0  0  0  0  0  0  0  0  0  0  0  0
   58.5090   30.1950   45.0620 C   0  0  0  0  0  0  0  0  0  0  0  0
   57.8680   31.4420   45.1560 C   0  0  0  0  0  0  0  0  0  0  0  0
   58.4470   32.5700   45.9210 C   0  0  0  0  0  0  0  0  0  0  0  0
   58.6380   32.4710   47.3100 C   0  0  0  0  0  0  0  0  0  0  0  0
   59.1720   33.5450   48.0280 C   0  0  0  0  0  0  0  0  0  0  0  0
   59.5140   34.7270   47.3670 C   0  0  0  0  0  0  0  0  0  0  0  0
   59.3190   34.8400   45.9870 C   0  0  0  0  0  0  0  0  0  0  0  0
   59.6480   35.9900   45.3480 F   0  0  0  0  0  0  0  0  0  0  0  0
   58.7850   33.7680   45.2660 C   0  0  0  0  0  0  0  0  0  0  0  0
   56.6380   31.5930   44.4860 C   0  0  0  0  0  0  0  0  0  0  0  0
   56.0760   30.5250   43.7650 C   0  0  0  0  0  0  0  0  0  0  0  0
   56.7350   29.2890   43.6930 C   0  0  0  0  0  0  0  0  0  0  0  0
   57.9630   29.1320   44.3480 C   0  0  0  0  0  0  0  0  0  0  0  0
   54.2858   24.2486   46.5069 H   0  0  0  0  0  0  0  0  0  0  0  0
   53.6790   25.0248   45.0049 H   0  0  0  0  0  0  0  0  0  0  0  0
   55.2693   24.1894   45.0049 H   0  0  0  0  0  0  0  0  0  0  0  0
   56.3546   26.3359   47.6477 H   0  0  0  0  0  0  0  0  0  0  0  0
   56.3580   24.6548   47.0153 H   0  0  0  0  0  0  0  0  0  0  0  0
   57.9429   27.0577   46.1408 H   0  0  0  0  0  0  0  0  0  0  0  0
   58.3859   25.2926   46.1832 H   0  0  0  0  0  0  0  0  0  0  0  0
   56.4420   26.3090   44.2060 H   0  0  0  0  0  0  0  0  0  0  0  0
   57.4054   23.8584   44.9097 H   0  0  0  0  0  0  0  0  0  0  0  0
   56.5029   24.2972   43.4199 H   0  0  0  0  0  0  0  0  0  0  0  0
   58.2991   24.3150   43.4199 H   0  0  0  0  0  0  0  0  0  0  0  0
   59.3207   26.0526   43.6073 H   0  0  0  0  0  0  0  0  0  0  0  0
   58.0034   26.9006   42.6908 H   0  0  0  0  0  0  0  0  0  0  0  0
   60.7461   27.3985   45.2002 H   0  0  0  0  0  0  0  0  0  0  0  0
   58.3658   31.5434   47.8349 H   0  0  0  0  0  0  0  0  0  0  0  0
   59.3230   33.4592   49.1142 H   0  0  0  0  0  0  0  0  0  0  0  0
   59.9373   35.5700   47.9328 H   0  0  0  0  0  0  0  0  0  0  0  0
   58.6284   33.8618   44.1813 H   0  0  0  0  0  0  0  0  0  0  0  0
   56.1112   32.5578   44.5275 H   0  0  0  0  0  0  0  0  0  0  0  0
   55.1117   30.6598   43.2532 H   0  0  0  0  0  0  0  0  0  0  0  0
   56.2932   28.4539   43.1295 H   0  0  0  0  0  0  0  0  0  0  0  0
  1  2  1  0
  2  3  1  0
  3  4  1  0
  4  5  1  0
  5  6  1  0
  5  7  1  0
  7  8  1  0
  8  9  2  0
  9 10  1  0
 10 11  1  0
 11 12  2  0
 12 13  1  0
 13 14  2  0
 14 15  1  0
 15 16  2  0
 16 17  1  0
 17 18  1  0
 17 19  2  0
 12 20  1  0
 20 21  2  0
 21 22  1  0
 22 23  2  0
 23  8  1  0
 23 11  1  0
 19 13  1  0
  1 24  1  0
  1 25  1  0
  1 26  1  0
  3 27  1  0
  3 28  1  0
  4 29  1  0
  4 30  1  0
  5 31  1  1
  6 32  1  0
  6 33  1  0
  6 34  1  0
  7 35  1  0
  7 36  1  0
  9 37  1  0
 14 38  1  0
 15 39  1  0
 16 40  1  0
 19 41  1  0
 20 42  1  0
 21 43  1  0
 22 44  1  0
M  CHG  1   5   1
M  END
>  <UniqueID>  (9) 
9

>  <SMILES>  (9) 
COCC[N@H+](C)Cc1csc2c(-c3cccc(F)c3)cccc12

>  <Energy>  (9) 
84.53342468440908

>  <Genealogy>  (9) 
COCC[NH+](C)Cc1csc2c(-c3cccc(F)c3)cccc12 (protonated)
COCC[N@H+](C)Cc1csc2c(-c3cccc(F)c3)cccc12 (chirality)
COCC[N@H+](C)Cc1csc2c(-c3cccc(F)c3)cccc12 (3D coordinates assigned)
COCC[N@H+](C)Cc1csc2c(-c3cccc(F)c3)cccc12 (optimized conformer: 84.53342468440908 kcal/mol)

>  <smiles>  (9) 
COCCN(C)Cc1csc2c(-c3cccc(F)c3)cccc12

>  <score_type>  (9) 
oracle

>  <origin>  (9) 
adg

>  <m_score__min__energy>  (9) 
-6.3899999999999997

>  <m_primary>  (9) 
energy

$$$$
9:0
     RDKit          3D

 59 62  0  0  0  0  0  0  0  0999 V2000
   63.7440   31.5430   46.7550 C   0  0  0  0  0  0  0  0  0  0  0  0
   63.0020   31.6380   47.9690 O   0  0  0  0  0  0  0  0  0  0  0  0
   63.2720   32.5560   48.9970 C   0  0  0  0  0  0  0  0  0  0  0  0
   64.3260   32.3640   49.9130 C   0  0  0  0  0  0  0  0  0  0  0  0
   64.5470   33.2890   50.9380 C   0  0  0  0  0  0  0  0  0  0  0  0
   63.7270   34.4110   51.0580 C   0  0  0  0  0  0  0  0  0  0  0  0
   62.6840   34.6150   50.1520 C   0  0  0  0  0  0  0  0  0  0  0  0
   62.4540   33.6960   49.1170 C   0  0  0  0  0  0  0  0  0  0  0  0
   61.3720   33.9140   48.2010 N   0  0  0  0  0  0  0  0  0  0  0  0
   61.6010   33.8500   46.7550 C   0  0  0  0  0  0  0  0  0  0  0  0
   60.3360   33.3270   46.0710 C   0  0  0  0  0  0  0  0  0  0  0  0
   59.1550   34.1890   46.3380 N   0  0  0  0  0  0  0  0  0  0  0  0
   57.9430   33.4040   46.2110 C   0  0  0  0  0  0  0  0  0  0  0  0
   57.0380   33.4930   47.0870 O   0  0  0  0  0  0  0  0  0  0  0  0
   57.7660   32.4600   45.0930 C   0  0  0  0  0  0  0  0  0  0  0  0
   58.0740   32.7070   43.7670 C   0  0  0  0  0  0  0  0  0  0  0  0
   57.7440   31.5570   43.0840 C   0  0  0  0  0  0  0  0  0  0  0  0
   57.2590   30.6820   44.0360 C   0  0  0  0  0  0  0  0  0  0  0  0
   56.7440   29.3040   43.7770 C   0  0  0  0  0  0  0  0  0  0  0  0
   58.0980   28.1490   43.7410 S   0  0  0  0  0  0  0  0  0  0  0  0
   57.7600   26.9180   42.6490 O   0  0  0  0  0  0  0  0  0  0  0  0
   58.4050   27.4740   45.3630 C   0  0  0  0  0  0  0  0  0  0  0  0
   59.0380   28.5180   46.2470 C   0  0  0  0  0  0  0  0  0  0  0  0
   58.3380   28.9660   47.3820 C   0  0  0  0  0  0  0  0  0  0  0  0
   58.8830   29.9550   48.2070 C   0  0  0  0  0  0  0  0  0  0  0  0
   60.1260   30.5130   47.9040 C   0  0  0  0  0  0  0  0  0  0  0  0
   60.8260   30.0880   46.7730 C   0  0  0  0  0  0  0  0  0  0  0  0
   60.2910   29.0970   45.9380 C   0  0  0  0  0  0  0  0  0  0  0  0
   61.2170   28.6190   44.5180 Cl  0  0  0  0  0  0  0  0  0  0  0  0
   57.2790   31.2460   45.2210 O   0  0  0  0  0  0  0  0  0  0  0  0
   59.1880   34.9090   47.6430 C   0  0  0  0  0  0  0  0  0  0  0  0
   60.0270   34.1940   48.7120 C   0  0  0  0  0  0  0  0  0  0  0  0
   64.8106   31.4064   46.9869 H   0  0  0  0  0  0  0  0  0  0  0  0
   63.3828   30.6838   46.1708 H   0  0  0  0  0  0  0  0  0  0  0  0
   63.6110   32.4655   46.1708 H   0  0  0  0  0  0  0  0  0  0  0  0
   64.9776   31.4825   49.8211 H   0  0  0  0  0  0  0  0  0  0  0  0
   65.3694   33.1315   51.6514 H   0  0  0  0  0  0  0  0  0  0  0  0
   63.9020   35.1357   51.8668 H   0  0  0  0  0  0  0  0  0  0  0  0
   62.0394   35.5009   50.2503 H   0  0  0  0  0  0  0  0  0  0  0  0
   61.8371   34.8547   46.3745 H   0  0  0  0  0  0  0  0  0  0  0  0
   62.4434   33.1754   46.5425 H   0  0  0  0  0  0  0  0  0  0  0  0
   60.5097   33.2907   44.9854 H   0  0  0  0  0  0  0  0  0  0  0  0
   60.1222   32.3270   46.4764 H   0  0  0  0  0  0  0  0  0  0  0  0
   59.1440   34.9300   45.5970 H   0  0  0  0  0  0  0  0  0  0  0  0
   58.4955   33.6312   43.3450 H   0  0  0  0  0  0  0  0  0  0  0  0
   57.8457   31.3737   42.0042 H   0  0  0  0  0  0  0  0  0  0  0  0
   56.0434   29.0201   44.5761 H   0  0  0  0  0  0  0  0  0  0  0  0
   56.2269   29.2868   42.8062 H   0  0  0  0  0  0  0  0  0  0  0  0
   56.7710   26.8730   42.6260 H   0  0  0  0  0  0  0  0  0  0  0  0
   57.4530   27.1491   45.8080 H   0  0  0  0  0  0  0  0  0  0  0  0
   59.0879   26.6164   45.2728 H   0  0  0  0  0  0  0  0  0  0  0  0
   57.3548   28.5353   47.6223 H   0  0  0  0  0  0  0  0  0  0  0  0
   58.3311   30.2937   49.0962 H   0  0  0  0  0  0  0  0  0  0  0  0
   60.5544   31.2880   48.5566 H   0  0  0  0  0  0  0  0  0  0  0  0
   61.8033   30.5335   46.5357 H   0  0  0  0  0  0  0  0  0  0  0  0
   59.6127   35.9103   47.4783 H   0  0  0  0  0  0  0  0  0  0  0  0
   58.1543   34.9525   48.0165 H   0  0  0  0  0  0  0  0  0  0  0  0
   60.1035   34.8357   49.6022 H   0  0  0  0  0  0  0  0  0  0  0  0
   59.5387   33.2435   48.9730 H   0  0  0  0  0  0  0  0  0  0  0  0
  1  2  1  0
  2  3  1  0
  3  4  2  0
  4  5  1  0
  5  6  2  0
  6  7  1  0
  7  8  2  0
  8  9  1  0
  9 10  1  0
 10 11  1  0
 11 12  1  0
 12 13  1  0
 13 14  2  0
 13 15  1  0
 15 16  2  0
 16 17  1  0
 17 18  2  0
 18 19  1  0
 19 20  1  0
 20 21  1  6
 20 22  1  0
 22 23  1  0
 23 24  2  0
 24 25  1  0
 25 26  2  0
 26 27  1  0
 27 28  2  0
 28 29  1  0
 18 30  1  0
 12 31  1  0
 31 32  1  0
  8  3  1  0
 32  9  1  0
 30 15  1  0
 28 23  1  0
  1 33  1  0
  1 34  1  0
  1 35  1  0
  4 36  1  0
  5 37  1  0
  6 38  1  0
  7 39  1  0
 10 40  1  0
 10 41  1  0
 11 42  1  0
 11 43  1  0
 12 44  1  0
 16 45  1  0
 17 46  1  0
 19 47  1  0
 19 48  1  0
 21 49  1  0
 22 50  1  0
 22 51  1  0
 24 52  1  0
 25 53  1  0
 26 54  1  0
 27 55  1  0
 31 56  1  0
 31 57  1  0
 32 58  1  0
 32 59  1  0
M  CHG  2  12   1  20   1
M  END
>  <UniqueID>  (10) 
10

>  <SMILES>  (10) 
COc1ccccc1N1CC[NH+](C(=O)c2ccc(C[S@+](O)Cc3ccccc3Cl)o2)CC1

>  <Energy>  (10) 
93.58812766309467

>  <Genealogy>  (10) 
COc1ccccc1N1CC[NH+](C(=O)c2ccc(C[S+](O)Cc3ccccc3Cl)o2)CC1 (protonated)
COc1ccccc1N1CC[NH+](C(=O)c2ccc(C[S@+](O)Cc3ccccc3Cl)o2)CC1 (chirality)
COc1ccccc1N1CC[NH+](C(=O)c2ccc(C[S@+](O)Cc3ccccc3Cl)o2)CC1 (3D coordinates assigned)
COc1ccccc1N1CC[NH+](C(=O)c2ccc(C[S@+](O)Cc3ccccc3Cl)o2)CC1 (nonaromatic ring conformer: 93.58812766309467 kcal/mol)

>  <smiles>  (10) 
COc1ccccc1N1CCN(C(=O)c2ccc(C[S+]([O-])Cc3ccccc3Cl)o2)CC1

>  <score_type>  (10) 
oracle

>  <origin>  (10) 
adg

>  <m_score__min__energy>  (10) 
-6.3899999999999997

>  <m_primary>  (10) 
energy

$$$$
10:0
     RDKit          3D

 46 47  0  0  0  0  0  0  0  0999 V2000
   58.8850   30.1920   49.3070 C   0  0  0  0  0  0  0  0  0  0  0  0
   58.7700   29.0630   48.4700 O   0  0  0  0  0  0  0  0  0  0  0  0
   59.8900   28.2250   48.6580 C   0  0  0  0  0  0  0  0  0  0  0  0
   60.0970   27.3740   47.4080 C   0  0  0  0  0  0  0  0  0  0  0  0
   58.8690   27.4140   46.5690 N   0  0  0  0  0  0  0  0  0  0  0  0
   58.3080   26.0600   46.3600 C   0  0  0  0  0  0  0  0  0  0  0  0
   56.9650   26.1230   45.6210 C   0  0  0  0  0  0  0  0  0  0  0  0
   55.9120   25.7070   46.4700 O   0  0  0  0  0  0  0  0  0  0  0  0
   56.2390   24.4850   47.0960 C   0  0  0  0  0  0  0  0  0  0  0  0
   59.1140   28.0670   45.2630 C   0  0  0  0  0  0  0  0  0  0  0  0
   58.1420   29.2040   45.0080 C   0  0  0  0  0  0  0  0  0  0  0  0
   56.9360   28.9240   44.3500 C   0  0  0  0  0  0  0  0  0  0  0  0
   56.0290   29.9560   44.1050 C   0  0  0  0  0  0  0  0  0  0  0  0
   54.9450   29.7120   43.5140 O   0  0  0  0  0  0  0  0  0  0  0  0
   56.3010   31.1960   44.4920 O   0  0  0  0  0  0  0  0  0  0  0  0
   57.4260   31.5220   45.1180 C   0  0  0  0  0  0  0  0  0  0  0  0
   57.6380   32.8520   45.4910 C   0  0  0  0  0  0  0  0  0  0  0  0
   58.8150   33.2200   46.1410 C   0  0  0  0  0  0  0  0  0  0  0  0
   59.8010   32.2700   46.4240 C   0  0  0  0  0  0  0  0  0  0  0  0
   60.9690   32.7040   47.0680 O   0  0  0  0  0  0  0  0  0  0  0  0
   62.0300   31.8460   47.4740 C   0  0  0  0  0  0  0  0  0  0  0  0
   59.5920   30.9250   46.0590 C   0  0  0  0  0  0  0  0  0  0  0  0
   58.4040   30.5380   45.4050 C   0  0  0  0  0  0  0  0  0  0  0  0
   58.8525   29.8732   50.3593 H   0  0  0  0  0  0  0  0  0  0  0  0
   59.8396   30.7008   49.1073 H   0  0  0  0  0  0  0  0  0  0  0  0
   58.0526   30.8828   49.1073 H   0  0  0  0  0  0  0  0  0  0  0  0
   60.7841   28.8406   48.8359 H   0  0  0  0  0  0  0  0  0  0  0  0
   59.7200   27.5708   49.5258 H   0  0  0  0  0  0  0  0  0  0  0  0
   60.9469   27.7694   46.8324 H   0  0  0  0  0  0  0  0  0  0  0  0
   60.3044   26.3349   47.7033 H   0  0  0  0  0  0  0  0  0  0  0  0
   59.0172   25.4658   45.7650 H   0  0  0  0  0  0  0  0  0  0  0  0
   58.1425   25.5963   47.3437 H   0  0  0  0  0  0  0  0  0  0  0  0
   56.7797   27.1569   45.2944 H   0  0  0  0  0  0  0  0  0  0  0  0
   57.0062   25.4519   44.7504 H   0  0  0  0  0  0  0  0  0  0  0  0
   56.2050   24.6119   48.1881 H   0  0  0  0  0  0  0  0  0  0  0  0
   55.5158   23.7132   46.7939 H   0  0  0  0  0  0  0  0  0  0  0  0
   57.2510   24.1775   46.7939 H   0  0  0  0  0  0  0  0  0  0  0  0
   60.1390   28.4660   45.2516 H   0  0  0  0  0  0  0  0  0  0  0  0
   58.9729   27.3142   44.4735 H   0  0  0  0  0  0  0  0  0  0  0  0
   56.7062   27.8973   44.0289 H   0  0  0  0  0  0  0  0  0  0  0  0
   56.8732   33.6114   45.2709 H   0  0  0  0  0  0  0  0  0  0  0  0
   58.9696   34.2688   46.4343 H   0  0  0  0  0  0  0  0  0  0  0  0
   62.0733   31.8110   48.5726 H   0  0  0  0  0  0  0  0  0  0  0  0
   61.8535   30.8337   47.0816 H   0  0  0  0  0  0  0  0  0  0  0  0
   62.9830   32.2304   47.0816 H   0  0  0  0  0  0  0  0  0  0  0  0
   60.3609   30.1717   46.2858 H   0  0  0  0  0  0  0  0  0  0  0  0
  1  2  1  0
  2  3  1  0
  3  4  1  0
  4  5  1  0
  5  6  1  0
  6  7  1  0
  7  8  1  0
  8  9  1  0
  5 10  1  0
 10 11  1  0
 11 12  2  0
 12 13  1  0
 13 14  2  0
 13 15  1  0
 15 16  1  0
 16 17  2  0
 17 18  1  0
 18 19  2  0
 19 20  1  0
 20 21  1  0
 19 22  1  0
 22 23  2  0
 23 11  1  0
 23 16  1  0
  1 24  1  0
  1 25  1  0
  1 26  1  0
  3 27  1  0
  3 28  1  0
  4 29  1  0
  4 30  1  0
  6 31  1  0
  6 32  1  0
  7 33  1  0
  7 34  1  0
  9 35  1  0
  9 36  1  0
  9 37  1  0
 10 38  1  0
 10 39  1  0
 12 40  1  0
 17 41  1  0
 18 42  1  0
 21 43  1  0
 21 44  1  0
 21 45  1  0
 22 46  1  0
M  END
>  <UniqueID>  (11) 
11

>  <SMILES>  (11) 
COCCN(CCOC)Cc1cc(=O)oc2ccc(OC)cc12

>  <Energy>  (11) 
51.675020200257194

>  <Genealogy>  (11) 
COCCN(CCOC)Cc1cc(=O)oc2ccc(OC)cc12 (3D coordinates assigned)
COCCN(CCOC)Cc1cc(=O)oc2ccc(OC)cc12 (optimized conformer: 51.675020200257194 kcal/mol)

>  <smiles>  (11) 
COCCN(CCOC)Cc1cc(=O)oc2ccc(OC)cc12

>  <score_type>  (11) 
oracle

>  <origin>  (11) 
adg

>  <m_score__min__energy>  (11) 
-6.0800000000000001

>  <m_primary>  (11) 
energy

$$$$
11:0
     RDKit          3D

 42 44  0  0  0  0  0  0  0  0999 V2000
   59.5390   34.7170   45.3940 C   0  0  0  0  0  0  0  0  0  0  0  0
   59.7110   33.8440   46.6020 C   0  0  0  0  0  0  0  0  0  0  0  0
   59.3360   34.3140   47.8690 C   0  0  0  0  0  0  0  0  0  0  0  0
   59.4490   33.4870   48.9880 C   0  0  0  0  0  0  0  0  0  0  0  0
   59.9360   32.1860   48.8520 C   0  0  0  0  0  0  0  0  0  0  0  0
   60.3260   31.6960   47.5920 C   0  0  0  0  0  0  0  0  0  0  0  0
   60.8070   30.3380   47.4480 N   0  0  0  0  0  0  0  0  0  0  0  0
   59.9070   29.4460   46.6760 C   0  0  1  0  0  0  0  0  0  0  0  0
   60.0060   27.9590   47.1070 C   0  0  0  0  0  0  0  0  0  0  0  0
   58.7460   27.1380   46.7660 C   0  0  0  0  0  0  0  0  0  0  0  0
   57.9980   27.6820   45.5430 C   0  0  0  0  0  0  0  0  0  0  0  0
   57.6610   29.1040   45.7180 N   0  0  0  0  0  0  0  0  0  0  0  0
   56.6870   29.7050   44.8430 C   0  0  0  0  0  0  0  0  0  0  0  0
   55.4770   29.3620   44.9380 O   0  0  0  0  0  0  0  0  0  0  0  0
   57.0660   30.7170   43.8340 C   0  0  0  0  0  0  0  0  0  0  0  0
   57.8440   31.8440   44.1430 C   0  0  0  0  0  0  0  0  0  0  0  0
   58.1100   32.6560   43.0480 C   0  0  0  0  0  0  0  0  0  0  0  0
   57.3950   31.9600   41.6970 S   0  0  0  0  0  0  0  0  0  0  0  0
   56.7360   30.6290   42.4840 C   0  0  0  0  0  0  0  0  0  0  0  0
   58.4450   29.9320   46.6500 C   0  0  0  0  0  0  0  0  0  0  0  0
   60.1810   32.5280   46.4650 C   0  0  0  0  0  0  0  0  0  0  0  0
   59.3356   35.7496   45.7138 H   0  0  0  0  0  0  0  0  0  0  0  0
   60.4589   34.6943   44.7912 H   0  0  0  0  0  0  0  0  0  0  0  0
   58.6965   34.3471   44.7912 H   0  0  0  0  0  0  0  0  0  0  0  0
   58.9513   35.3384   47.9815 H   0  0  0  0  0  0  0  0  0  0  0  0
   59.1536   33.8615   49.9792 H   0  0  0  0  0  0  0  0  0  0  0  0
   60.0156   31.5382   49.7375 H   0  0  0  0  0  0  0  0  0  0  0  0
   61.7430   30.3580   46.9780 H   0  0  0  0  0  0  0  0  0  0  0  0
   60.9680   29.9180   48.3930 H   0  0  0  0  0  0  0  0  0  0  0  0
   60.2758   29.5016   45.6412 H   0  0  0  0  0  0  0  0  0  0  0  0
   60.8674   27.5043   46.5959 H   0  0  0  0  0  0  0  0  0  0  0  0
   60.1170   27.9445   48.2013 H   0  0  0  0  0  0  0  0  0  0  0  0
   59.0471   26.1000   46.5613 H   0  0  0  0  0  0  0  0  0  0  0  0
   58.0649   27.2018   47.6274 H   0  0  0  0  0  0  0  0  0  0  0  0
   58.6351   27.5705   44.6532 H   0  0  0  0  0  0  0  0  0  0  0  0
   57.0640   27.1135   45.4231 H   0  0  0  0  0  0  0  0  0  0  0  0
   58.2088   32.0634   45.1573 H   0  0  0  0  0  0  0  0  0  0  0  0
   58.6881   33.5917   43.0630 H   0  0  0  0  0  0  0  0  0  0  0  0
   56.1466   29.8278   42.0143 H   0  0  0  0  0  0  0  0  0  0  0  0
   58.4146   30.9811   46.3207 H   0  0  0  0  0  0  0  0  0  0  0  0
   58.0162   29.8481   47.6595 H   0  0  0  0  0  0  0  0  0  0  0  0
   60.4386   32.1430   45.4673 H   0  0  0  0  0  0  0  0  0  0  0  0
  1  2  1  0
  2  3  2  0
  3  4  1  0
  4  5  2  0
  5  6  1  0
  6  7  1  0
  7  8  1  0
  8  9  1  0
  9 10  1  0
 10 11  1  0
 11 12  1  0
 12 13  1  0
 13 14  2  0
 13 15  1  0
 15 16  1  0
 16 17  2  0
 17 18  1  0
 18 19  1  0
 12 20  1  0
  6 21  2  0
 21  2  1  0
 20  8  1  0
 19 15  2  0
  1 22  1  0
  1 23  1  0
  1 24  1  0
  3 25  1  0
  4 26  1  0
  5 27  1  0
  7 28  1  0
  7 29  1  0
  8 30  1  6
  9 31  1  0
  9 32  1  0
 10 33  1  0
 10 34  1  0
 11 35  1  0
 11 36  1  0
 16 37  1  0
 17 38  1  0
 19 39  1  0
 20 40  1  0
 20 41  1  0
 21 42  1  0
M  CHG  1   7   1
M  END
>  <UniqueID>  (12) 
12

>  <SMILES>  (12) 
Cc1cccc([NH2+][C@H]2CCCN(C(=O)c3ccsc3)C2)c1

>  <Energy>  (12) 
77.92325320713287

>  <Genealogy>  (12) 
Cc1cccc([NH2+]C2CCCN(C(=O)c3ccsc3)C2)c1 (protonated)
Cc1cccc([NH2+][C@H]2CCCN(C(=O)c3ccsc3)C2)c1 (chirality)
Cc1cccc([NH2+][C@H]2CCCN(C(=O)c3ccsc3)C2)c1 (3D coordinates assigned)
Cc1cccc([NH2+][C@H]2CCCN(C(=O)c3ccsc3)C2)c1 (nonaromatic ring conformer: 77.92325320713287 kcal/mol)

>  <smiles>  (12) 
Cc1cccc(NC2CCCN(C(=O)c3ccsc3)C2)c1

>  <score_type>  (12) 
oracle

>  <origin>  (12) 
adg

>  <m_score__min__energy>  (12) 
-6.3600000000000003

>  <m_primary>  (12) 
energy

$$$$
12:0
     RDKit          3D

 38 39  0  0  0  0  0  0  0  0999 V2000
   56.0220   25.2850   46.0080 C   0  0  0  0  0  0  0  0  0  0  0  0
   56.8600   26.3470   46.7140 C   0  0  0  0  0  0  0  0  0  0  0  0
   57.3460   27.3520   45.7470 N   0  0  0  0  0  0  0  0  0  0  0  0
   58.4480   28.1500   46.3240 C   0  0  0  0  0  0  0  0  0  0  0  0
   59.2610   28.9030   45.2470 C   0  0  0  0  0  0  0  0  0  0  0  0
   58.5080   29.0960   43.9950 N   0  0  0  0  0  0  0  0  0  0  0  0
   57.2270   30.2810   44.1590 S   0  0  0  0  0  0  0  0  0  0  0  0
   56.7210   30.6520   42.7940 O   0  0  0  0  0  0  0  0  0  0  0  0
   56.0790   29.7160   44.9490 O   0  0  0  0  0  0  0  0  0  0  0  0
   57.8250   31.7410   44.9440 C   0  0  0  0  0  0  0  0  0  0  0  0
   58.0160   32.9070   44.1920 C   0  0  0  0  0  0  0  0  0  0  0  0
   58.5100   34.0650   44.8000 C   0  0  0  0  0  0  0  0  0  0  0  0
   58.8350   34.0620   46.1660 C   0  0  0  0  0  0  0  0  0  0  0  0
   59.3280   35.3150   46.8270 C   0  0  0  0  0  0  0  0  0  0  0  0
   58.6310   32.8970   46.9200 C   0  0  0  0  0  0  0  0  0  0  0  0
   58.1370   31.7410   46.3110 C   0  0  0  0  0  0  0  0  0  0  0  0
   58.0150   27.8230   43.4210 C   0  0  0  0  0  0  0  0  0  0  0  0
   57.7690   26.7310   44.4810 C   0  0  0  0  0  0  0  0  0  0  0  0
   55.5234   24.6531   46.7578 H   0  0  0  0  0  0  0  0  0  0  0  0
   55.2642   25.7745   45.3786 H   0  0  0  0  0  0  0  0  0  0  0  0
   56.6743   24.6618   45.3786 H   0  0  0  0  0  0  0  0  0  0  0  0
   56.2436   26.8466   47.4758 H   0  0  0  0  0  0  0  0  0  0  0  0
   57.7263   25.8600   47.1855 H   0  0  0  0  0  0  0  0  0  0  0  0
   58.0226   28.8852   47.0229 H   0  0  0  0  0  0  0  0  0  0  0  0
   59.1319   27.4555   46.8339 H   0  0  0  0  0  0  0  0  0  0  0  0
   59.5415   29.8897   45.6442 H   0  0  0  0  0  0  0  0  0  0  0  0
   60.1448   28.2920   45.0114 H   0  0  0  0  0  0  0  0  0  0  0  0
   57.7763   32.9117   43.1184 H   0  0  0  0  0  0  0  0  0  0  0  0
   58.6445   34.9813   44.2064 H   0  0  0  0  0  0  0  0  0  0  0  0
   59.2812   35.1960   47.9195 H   0  0  0  0  0  0  0  0  0  0  0  0
   60.3680   35.5051   46.5231 H   0  0  0  0  0  0  0  0  0  0  0  0
   58.6964   36.1628   46.5231 H   0  0  0  0  0  0  0  0  0  0  0  0
   58.8611   32.8937   47.9957 H   0  0  0  0  0  0  0  0  0  0  0  0
   57.9922   30.8273   46.9061 H   0  0  0  0  0  0  0  0  0  0  0  0
   57.0684   28.0200   42.8964 H   0  0  0  0  0  0  0  0  0  0  0  0
   58.7950   27.4481   42.7419 H   0  0  0  0  0  0  0  0  0  0  0  0
   56.9813   26.0495   44.1273 H   0  0  0  0  0  0  0  0  0  0  0  0
   58.6995   26.1679   44.6455 H   0  0  0  0  0  0  0  0  0  0  0  0
  1  2  1  0
  2  3  1  0
  3  4  1  0
  4  5  1  0
  5  6  1  0
  6  7  1  0
  7  8  2  0
  7  9  2  0
  7 10  1  0
 10 11  2  0
 11 12  1  0
 12 13  2  0
 13 14  1  0
 13 15  1  0
 15 16  2  0
  6 17  1  0
 17 18  1  0
 18  3  1  0
 16 10  1  0
  1 19  1  0
  1 20  1  0
  1 21  1  0
  2 22  1  0
  2 23  1  0
  4 24  1  0
  4 25  1  0
  5 26  1  0
  5 27  1  0
 11 28  1  0
 12 29  1  0
 14 30  1  0
 14 31  1  0
 14 32  1  0
 15 33  1  0
 16 34  1  0
 17 35  1  0
 17 36  1  0
 18 37  1  0
 18 38  1  0
M  END
>  <UniqueID>  (13) 
13

>  <SMILES>  (13) 
CCN1CCN(S(=O)(=O)c2ccc(C)cc2)CC1

>  <Energy>  (13) 
44.44859696948242

>  <Genealogy>  (13) 
CCN1CCN(S(=O)(=O)c2ccc(C)cc2)CC1 (3D coordinates assigned)
CCN1CCN(S(=O)(=O)c2ccc(C)cc2)CC1 (nonaromatic ring conformer: 44.44859696948242 kcal/mol)

>  <smiles>  (13) 
CCN1CCN(S(=O)(=O)c2ccc(C)cc2)CC1

>  <score_type>  (13) 
oracle

>  <origin>  (13) 
adg

>  <m_score__min__energy>  (13) 
-7.21

>  <m_primary>  (13) 
energy

$$$$
13:0
     RDKit          3D

 49 51  0  0  0  0  0  0  0  0999 V2000
   58.9860   34.9150   45.2750 C   0  0  0  0  0  0  0  0  0  0  0  0
   59.9510   35.3740   46.3590 C   0  0  0  0  0  0  0  0  0  0  0  0
   59.6990   34.4670   47.9290 S   0  0  0  0  0  0  0  0  0  0  0  0
   59.8860   32.8350   47.2010 C   0  0  0  0  0  0  0  0  0  0  0  0
   59.0520   32.3430   46.3140 O   0  0  0  0  0  0  0  0  0  0  0  0
   59.5000   31.1580   45.9740 C   0  0  0  0  0  0  0  0  0  0  0  0
   58.8110   30.2620   44.9800 C   0  0  0  0  0  0  0  0  0  0  0  0
   57.4160   30.8170   44.6290 C   0  0  0  0  0  0  0  0  0  0  0  0
   56.5530   29.7190   43.9960 C   0  0  0  0  0  0  0  0  0  0  0  0
   56.3220   28.5800   44.9090 N   0  0  0  0  0  0  0  0  0  0  0  0
   57.3490   28.4040   45.9550 C   0  0  0  0  0  0  0  0  0  0  0  0
   58.7530   28.7940   45.4720 C   0  0  0  0  0  0  0  0  0  0  0  0
   60.6420   30.8460   46.6190 N   0  0  0  0  0  0  0  0  0  0  0  0
   60.9010   31.9080   47.4070 C   0  0  0  0  0  0  0  0  0  0  0  0
   62.1400   32.0510   48.2120 C   0  0  0  0  0  0  0  0  0  0  0  0
   63.1390   32.9450   47.7950 C   0  0  0  0  0  0  0  0  0  0  0  0
   64.3170   33.0930   48.5320 C   0  0  0  0  0  0  0  0  0  0  0  0
   64.5310   32.3460   49.7080 C   0  0  0  0  0  0  0  0  0  0  0  0
   65.7550   32.4990   50.4760 N   0  0  0  0  0  0  0  0  0  0  0  0
   66.5570   31.3260   50.8430 C   0  0  0  0  0  0  0  0  0  0  0  0
   66.2100   33.8290   50.9000 C   0  0  0  0  0  0  0  0  0  0  0  0
   63.5280   31.4450   50.1160 C   0  0  0  0  0  0  0  0  0  0  0  0
   62.3520   31.2990   49.3770 C   0  0  0  0  0  0  0  0  0  0  0  0
   58.0866   34.4872   45.7420 H   0  0  0  0  0  0  0  0  0  0  0  0
   58.7012   35.7741   44.6498 H   0  0  0  0  0  0  0  0  0  0  0  0
   59.4728   34.1520   44.6498 H   0  0  0  0  0  0  0  0  0  0  0  0
   60.9812   35.2049   46.0124 H   0  0  0  0  0  0  0  0  0  0  0  0
   59.7659   36.4415   46.5494 H   0  0  0  0  0  0  0  0  0  0  0  0
   59.4077   30.2525   44.0559 H   0  0  0  0  0  0  0  0  0  0  0  0
   56.9280   31.1794   45.5458 H   0  0  0  0  0  0  0  0  0  0  0  0
   57.5286   31.6432   43.9116 H   0  0  0  0  0  0  0  0  0  0  0  0
   55.5802   30.1514   43.7191 H   0  0  0  0  0  0  0  0  0  0  0  0
   57.0924   29.3369   43.1168 H   0  0  0  0  0  0  0  0  0  0  0  0
   56.2820   27.7050   44.3340 H   0  0  0  0  0  0  0  0  0  0  0  0
   57.0853   29.0334   46.8177 H   0  0  0  0  0  0  0  0  0  0  0  0
   57.3724   27.3377   46.2243 H   0  0  0  0  0  0  0  0  0  0  0  0
   59.4619   28.6701   46.3040 H   0  0  0  0  0  0  0  0  0  0  0  0
   59.0144   28.1416   44.6258 H   0  0  0  0  0  0  0  0  0  0  0  0
   61.2050   29.9720   46.5240 H   0  0  0  0  0  0  0  0  0  0  0  0
   62.9929   33.5352   46.8783 H   0  0  0  0  0  0  0  0  0  0  0  0
   65.0865   33.8009   48.1903 H   0  0  0  0  0  0  0  0  0  0  0  0
   66.6110   31.2470   51.9388 H   0  0  0  0  0  0  0  0  0  0  0  0
   66.0891   30.4190   50.4326 H   0  0  0  0  0  0  0  0  0  0  0  0
   67.5720   31.4328   50.4326 H   0  0  0  0  0  0  0  0  0  0  0  0
   66.2267   33.8778   51.9988 H   0  0  0  0  0  0  0  0  0  0  0  0
   67.2219   34.0121   50.5094 H   0  0  0  0  0  0  0  0  0  0  0  0
   65.5223   34.5936   50.5094 H   0  0  0  0  0  0  0  0  0  0  0  0
   63.6730   30.8485   51.0288 H   0  0  0  0  0  0  0  0  0  0  0  0
   61.5837   30.5866   49.7121 H   0  0  0  0  0  0  0  0  0  0  0  0
  1  2  1  0
  2  3  1  0
  3  4  1  0
  4  5  1  0
  5  6  1  0
  6  7  1  0
  7  8  1  0
  8  9  1  0
  9 10  1  0
 10 11  1  0
 11 12  1  0
  6 13  2  0
 13 14  1  0
 14 15  1  0
 15 16  2  0
 16 17  1  0
 17 18  2  0
 18 19  1  0
 19 20  1  0
 19 21  1  0
 18 22  1  0
 22 23  2  0
 14  4  2  0
 23 15  1  0
 12  7  1  0
  1 24  1  0
  1 25  1  0
  1 26  1  0
  2 27  1  0
  2 28  1  0
  7 29  1  0
  8 30  1  0
  8 31  1  0
  9 32  1  0
  9 33  1  0
 10 34  1  0
 11 35  1  0
 11 36  1  0
 12 37  1  0
 12 38  1  0
 13 39  1  0
 16 40  1  0
 17 41  1  0
 20 42  1  0
 20 43  1  0
 20 44  1  0
 21 45  1  0
 21 46  1  0
 21 47  1  0
 22 48  1  0
 23 49  1  0
M  CHG  1  13   1
M  END
>  <UniqueID>  (14) 
14

>  <SMILES>  (14) 
CCSc1oc(C2CCNCC2)[nH+]c1-c1ccc(N(C)C)cc1

>  <Energy>  (14) 
86.680356805882

>  <Genealogy>  (14) 
CCSc1oc(C2CCNCC2)[nH+]c1-c1ccc(N(C)C)cc1 (protonated)
CCSc1oc(C2CCNCC2)[nH+]c1-c1ccc(N(C)C)cc1 (3D coordinates assigned)
CCSc1oc(C2CCNCC2)[nH+]c1-c1ccc(N(C)C)cc1 (nonaromatic ring conformer: 86.680356805882 kcal/mol)

>  <smiles>  (14) 
CCSc1oc(C2CCNCC2)nc1-c1ccc(N(C)C)cc1

>  <score_type>  (14) 
oracle

>  <origin>  (14) 
adg

>  <m_score__min__energy>  (14) 
-5.96

>  <m_primary>  (14) 
energy

$$$$
14:0
     RDKit          3D

 51 52  0  0  0  0  0  0  0  0999 V2000
   59.8676   35.5999   48.6164 H   0  0  0  0  0  0  0  0  0  0  0  0
   59.9960   34.5870   48.2070 C   0  0  0  0  0  0  0  0  0  0  0  0
   58.9050   33.9060   47.8410 C   0  0  0  0  0  0  0  0  0  0  0  0
   58.1873   33.6200   48.6240 H   0  0  0  0  0  0  0  0  0  0  0  0
   58.6050   33.5140   46.4460 C   0  0  0  0  0  0  0  0  0  0  0  0
   57.7020   34.2170   45.6690 C   0  0  0  0  0  0  0  0  0  0  0  0
   57.2451   35.1921   45.8937 H   0  0  0  0  0  0  0  0  0  0  0  0
   57.4980   33.4380   44.5580 C   0  0  0  0  0  0  0  0  0  0  0  0
   56.8527   33.6966   43.7055 H   0  0  0  0  0  0  0  0  0  0  0  0
   58.2170   32.3040   44.6810 N   0  0  0  0  0  0  0  0  0  0  0  0
   58.1370   31.1820   43.7350 C   0  0  0  0  0  0  0  0  0  0  0  0
   58.8790   30.4229   44.0234 H   0  0  0  0  0  0  0  0  0  0  0  0
   58.3360   31.5770   42.7278 H   0  0  0  0  0  0  0  0  0  0  0  0
   56.7400   30.5280   43.7170 C   0  0  0  0  0  0  0  0  0  0  0  0
   56.4515   30.3573   42.6693 H   0  0  0  0  0  0  0  0  0  0  0  0
   56.0590   31.2178   44.2370 H   0  0  0  0  0  0  0  0  0  0  0  0
   56.6680   29.1820   44.4650 C   0  0  0  0  0  0  0  0  0  0  0  0
   55.7057   28.7081   44.2214 H   0  0  0  0  0  0  0  0  0  0  0  0
   56.7824   29.4192   45.5330 H   0  0  0  0  0  0  0  0  0  0  0  0
   57.7890   28.1850   44.1260 C   0  0  0  0  0  0  0  0  0  0  0  0
   58.3492   28.5700   43.2611 H   0  0  0  0  0  0  0  0  0  0  0  0
   57.3115   27.2174   43.9124 H   0  0  0  0  0  0  0  0  0  0  0  0
   58.7760   27.9610   45.2880 C   0  0  0  0  0  0  0  0  0  0  0  0
   58.7404   26.9043   45.5916 H   0  0  0  0  0  0  0  0  0  0  0  0
   58.4853   28.6125   46.1253 H   0  0  0  0  0  0  0  0  0  0  0  0
   60.2030   28.3130   44.8700 C   0  0  0  0  0  0  0  0  0  0  0  0
   60.8209   28.4654   45.7672 H   0  0  0  0  0  0  0  0  0  0  0  0
   60.6228   27.4915   44.2709 H   0  0  0  0  0  0  0  0  0  0  0  0
   60.1926   29.2355   44.2709 H   0  0  0  0  0  0  0  0  0  0  0  0
   58.9220   32.3530   45.8140 N   0  0  0  0  0  0  0  0  0  0  0  0
   59.7850   31.2620   46.3090 C   0  0  0  0  0  0  0  0  0  0  0  0
   59.8998   30.5108   45.5137 H   0  0  0  0  0  0  0  0  0  0  0  0
   60.7565   31.6959   46.5881 H   0  0  0  0  0  0  0  0  0  0  0  0
   59.1900   30.5790   47.5580 C   0  0  0  0  0  0  0  0  0  0  0  0
   58.5780   31.3147   48.1004 H   0  0  0  0  0  0  0  0  0  0  0  0
   58.5946   29.7223   47.2092 H   0  0  0  0  0  0  0  0  0  0  0  0
   60.2480   30.0370   48.5070 C   0  0  0  0  0  0  0  0  0  0  0  0
   59.9272   30.2014   49.5463 H   0  0  0  0  0  0  0  0  0  0  0  0
   60.3815   28.9595   48.3305 H   0  0  0  0  0  0  0  0  0  0  0  0
   61.2005   30.5582   48.3305 H   0  0  0  0  0  0  0  0  0  0  0  0
   61.3690   34.0440   48.0880 C   0  0  0  0  0  0  0  0  0  0  0  0
   62.0540   33.6760   49.2620 C   0  0  0  0  0  0  0  0  0  0  0  0
   61.5726   33.8109   50.2418 H   0  0  0  0  0  0  0  0  0  0  0  0
   63.3430   33.1400   49.1880 C   0  0  0  0  0  0  0  0  0  0  0  0
   63.8776   32.8657   50.1094 H   0  0  0  0  0  0  0  0  0  0  0  0
   63.9540   32.9520   47.9430 C   0  0  0  0  0  0  0  0  0  0  0  0
   64.9696   32.5332   47.8878 H   0  0  0  0  0  0  0  0  0  0  0  0
   63.2750   33.2960   46.7670 C   0  0  0  0  0  0  0  0  0  0  0  0
   63.7554   33.1405   45.7897 H   0  0  0  0  0  0  0  0  0  0  0  0
   61.9870   33.8370   46.8340 C   0  0  0  0  0  0  0  0  0  0  0  0
   61.4540   34.1019   45.9089 H   0  0  0  0  0  0  0  0  0  0  0  0
  1  2  1  0
  2  3  2  0
  3  4  1  0
  3  5  1  0
  5  6  1  0
  6  7  1  0
  6  8  2  0
  8  9  1  0
  8 10  1  0
 10 11  1  0
 11 12  1  0
 11 13  1  0
 11 14  1  0
 14 15  1  0
 14 16  1  0
 14 17  1  0
 17 18  1  0
 17 19  1  0
 17 20  1  0
 20 21  1  0
 20 22  1  0
 20 23  1  0
 23 24  1  0
 23 25  1  0
 23 26  1  0
 26 27  1  0
 26 28  1  0
 26 29  1  0
 10 30  1  0
 30 31  1  0
 31 32  1  0
 31 33  1  0
 31 34  1  0
 34 35  1  0
 34 36  1  0
 34 37  1  0
 37 38  1  0
 37 39  1  0
 37 40  1  0
  2 41  1  0
 41 42  2  0
 42 43  1  0
 42 44  1  0
 44 45  1  0
 44 46  2  0
 46 47  1  0
 46 48  1  0
 48 49  1  0
 48 50  2  0
 50 51  1  0
 30  5  2  0
 50 41  1  0
M  CHG  1  30   1
M  END
>  <UniqueID>  (15) 
15

>  <SMILES>  (15) 
CCCCCCn1ccc(/C=C/c2ccccc2)[n+]1CCC

>  <Energy>  (15) 
78.88167315598568

>  <Genealogy>  (15) 
CCCCCCn1ccc(/C=C/c2ccccc2)[n+]1CCC (cis-trans isomerization)
CCCCCCn1ccc(/C=C/c2ccccc2)[n+]1CCC (3D coordinates assigned)
CCCCCCn1ccc(/C=C/c2ccccc2)[n+]1CCC (optimized conformer: 78.88167315598568 kcal/mol)

>  <smiles>  (15) 
CCCCCCn1ccc(C=Cc2ccccc2)[n+]1CCC

>  <score_type>  (15) 
oracle

>  <origin>  (15) 
adg

>  <m_score__min__energy>  (15) 
-5.5099999999999998

>  <m_primary>  (15) 
energy

$$$$
15:0
     RDKit          3D

122122  0  0  0  0  0  0  0  0999 V2000
   51.0030   32.2830   52.2300 C   0  0  0  0  0  0  0  0  0  0  0  0
   51.4220   31.9010   50.8110 C   0  0  0  0  0  0  0  0  0  0  0  0
   52.1720   30.5630   50.7600 C   0  0  0  0  0  0  0  0  0  0  0  0
   53.6100   30.6740   51.2870 C   0  0  0  0  0  0  0  0  0  0  0  0
   53.7240   30.0850   52.6970 C   0  0  0  0  0  0  0  0  0  0  0  0
   54.9580   29.1770   52.8250 C   0  0  0  0  0  0  0  0  0  0  0  0
   56.2620   29.8820   52.3990 C   0  0  0  0  0  0  0  0  0  0  0  0
   56.5430   31.2050   53.1420 C   0  0  0  0  0  0  0  0  0  0  0  0
   57.0340   32.3630   52.2530 C   0  0  0  0  0  0  0  0  0  0  0  0
   58.4930   32.7810   52.4970 C   0  0  0  0  0  0  0  0  0  0  0  0
   58.8890   34.0150   51.6760 C   0  0  0  0  0  0  0  0  0  0  0  0
   59.7390   33.6220   50.4600 C   0  0  0  0  0  0  0  0  0  0  0  0
   59.3570   32.2250   49.9540 C   0  0  0  0  0  0  0  0  0  0  0  0
   60.5440   31.2490   49.7400 C   0  0  0  0  0  0  0  0  0  0  0  0
   60.3690   29.8180   50.1710 N   0  0  0  0  0  0  0  0  0  0  0  0
   61.6370   29.2910   50.7380 C   0  0  0  0  0  0  0  0  0  0  0  0
   59.3760   29.7970   51.2790 C   0  0  0  0  0  0  0  0  0  0  0  0
   59.9360   28.8910   49.0770 C   0  0  0  0  0  0  0  0  0  0  0  0
   58.8890   29.4600   48.0890 C   0  0  0  0  0  0  0  0  0  0  0  0
   58.1410   28.4410   47.4500 O   0  0  0  0  0  0  0  0  0  0  0  0
   58.8130   27.1920   47.4810 C   0  0  0  0  0  0  0  0  0  0  0  0
   59.7540   27.0290   46.2780 C   0  0  0  0  0  0  0  0  0  0  0  0
   60.6790   28.1000   46.2090 O   0  0  0  0  0  0  0  0  0  0  0  0
   60.7710   28.5970   44.8890 C   0  0  0  0  0  0  0  0  0  0  0  0
   59.4600   29.2930   44.5230 C   0  0  0  0  0  0  0  0  0  0  0  0
   58.5680   28.3410   43.9650 O   0  0  0  0  0  0  0  0  0  0  0  0
   57.3110   28.9210   43.6660 C   0  0  0  0  0  0  0  0  0  0  0  0
   56.7000   29.5310   44.9250 C   0  0  0  0  0  0  0  0  0  0  0  0
   56.2580   30.8450   44.6290 O   0  0  0  0  0  0  0  0  0  0  0  0
   57.3510   31.7230   44.4180 C   0  0  0  0  0  0  0  0  0  0  0  0
   57.2150   32.9860   45.2680 C   0  0  0  0  0  0  0  0  0  0  0  0
   57.6460   32.7080   46.5850 O   0  0  0  0  0  0  0  0  0  0  0  0
   58.2920   33.8300   47.1550 C   0  0  0  0  0  0  0  0  0  0  0  0
   59.7430   33.9330   46.6670 C   0  0  0  0  0  0  0  0  0  0  0  0
   60.3850   32.6210   46.6640 N   0  0  0  0  0  0  0  0  0  0  0  0
   61.7670   32.3470   46.9100 C   0  0  0  0  0  0  0  0  0  0  0  0
   62.0980   31.1670   47.2080 O   0  0  0  0  0  0  0  0  0  0  0  0
   62.8480   33.3900   46.7530 C   0  0  0  0  0  0  0  0  0  0  0  0
   63.3960   33.8500   48.1110 C   0  0  0  0  0  0  0  0  0  0  0  0
   64.0800   32.6820   48.8620 C   0  0  0  0  0  0  0  0  0  0  0  0
   64.4220   32.9550   50.2990 N   0  0  0  0  0  0  0  0  0  0  0  0
   63.4270   33.8680   50.9180 C   0  0  0  0  0  0  0  0  0  0  0  0
   65.8020   33.4720   50.4590 C   0  0  0  0  0  0  0  0  0  0  0  0
   66.7390   32.2680   50.5380 C   0  0  0  0  0  0  0  0  0  0  0  0
   65.8470   31.0790   50.8560 C   0  0  0  0  0  0  0  0  0  0  0  0
   64.4520   31.6630   51.0320 C   0  0  0  0  0  0  0  0  0  0  0  0
   51.6141   31.7258   52.9553 H   0  0  0  0  0  0  0  0  0  0  0  0
   51.1517   33.3628   52.3781 H   0  0  0  0  0  0  0  0  0  0  0  0
   49.9415   32.0354   52.3781 H   0  0  0  0  0  0  0  0  0  0  0  0
   50.5204   31.8241   50.1855 H   0  0  0  0  0  0  0  0  0  0  0  0
   52.1044   32.6811   50.4425 H   0  0  0  0  0  0  0  0  0  0  0  0
   51.6273   29.8298   51.3730 H   0  0  0  0  0  0  0  0  0  0  0  0
   52.2254   30.2499   49.7068 H   0  0  0  0  0  0  0  0  0  0  0  0
   54.2839   30.1257   50.6123 H   0  0  0  0  0  0  0  0  0  0  0  0
   53.8878   31.7376   51.3275 H   0  0  0  0  0  0  0  0  0  0  0  0
   53.8072   30.9071   53.4231 H   0  0  0  0  0  0  0  0  0  0  0  0
   52.8263   29.4807   52.8945 H   0  0  0  0  0  0  0  0  0  0  0  0
   55.0552   28.8611   53.8742 H   0  0  0  0  0  0  0  0  0  0  0  0
   54.8099   28.3182   52.1538 H   0  0  0  0  0  0  0  0  0  0  0  0
   57.1013   29.1964   52.5876 H   0  0  0  0  0  0  0  0  0  0  0  0
   56.1479   30.1373   51.3351 H   0  0  0  0  0  0  0  0  0  0  0  0
   55.6120   31.5240   53.6335 H   0  0  0  0  0  0  0  0  0  0  0  0
   57.3604   30.9925   53.8468 H   0  0  0  0  0  0  0  0  0  0  0  0
   56.9366   32.0540   51.2018 H   0  0  0  0  0  0  0  0  0  0  0  0
   56.4129   33.2352   52.5049 H   0  0  0  0  0  0  0  0  0  0  0  0
   58.6216   33.0103   53.5651 H   0  0  0  0  0  0  0  0  0  0  0  0
   59.1391   31.9472   52.1851 H   0  0  0  0  0  0  0  0  0  0  0  0
   57.9772   34.5222   51.3278 H   0  0  0  0  0  0  0  0  0  0  0  0
   59.4838   34.6834   52.3159 H   0  0  0  0  0  0  0  0  0  0  0  0
   59.5761   34.3537   49.6550 H   0  0  0  0  0  0  0  0  0  0  0  0
   60.7973   33.6102   50.7598 H   0  0  0  0  0  0  0  0  0  0  0  0
   58.6736   31.7730   50.6880 H   0  0  0  0  0  0  0  0  0  0  0  0
   58.9038   32.3742   48.9628 H   0  0  0  0  0  0  0  0  0  0  0  0
   60.7708   31.2409   48.6637 H   0  0  0  0  0  0  0  0  0  0  0  0
   61.3396   31.6370   50.3930 H   0  0  0  0  0  0  0  0  0  0  0  0
   61.5845   29.3128   51.8365 H   0  0  0  0  0  0  0  0  0  0  0  0
   61.7880   28.2556   50.3986 H   0  0  0  0  0  0  0  0  0  0  0  0
   62.4774   29.9143   50.3986 H   0  0  0  0  0  0  0  0  0  0  0  0
   59.9034   29.8082   52.2443 H   0  0  0  0  0  0  0  0  0  0  0  0
   58.7263   30.6816   51.2059 H   0  0  0  0  0  0  0  0  0  0  0  0
   58.7643   28.8857   51.2059 H   0  0  0  0  0  0  0  0  0  0  0  0
   60.8287   28.6106   48.4987 H   0  0  0  0  0  0  0  0  0  0  0  0
   59.4449   28.0442   49.5789 H   0  0  0  0  0  0  0  0  0  0  0  0
   58.1973   30.1113   48.6434 H   0  0  0  0  0  0  0  0  0  0  0  0
   59.4303   30.0175   47.3104 H   0  0  0  0  0  0  0  0  0  0  0  0
   59.4025   27.1262   48.4074 H   0  0  0  0  0  0  0  0  0  0  0  0
   58.0582   26.3929   47.4395 H   0  0  0  0  0  0  0  0  0  0  0  0
   60.3059   26.0828   46.3784 H   0  0  0  0  0  0  0  0  0  0  0  0
   59.1505   27.0270   45.3583 H   0  0  0  0  0  0  0  0  0  0  0  0
   61.6006   29.3164   44.8234 H   0  0  0  0  0  0  0  0  0  0  0  0
   60.9559   27.7659   44.1926 H   0  0  0  0  0  0  0  0  0  0  0  0
   59.0117   29.7323   45.4263 H   0  0  0  0  0  0  0  0  0  0  0  0
   59.6559   30.0903   43.7909 H   0  0  0  0  0  0  0  0  0  0  0  0
   57.4445   29.7077   42.9089 H   0  0  0  0  0  0  0  0  0  0  0  0
   56.6376   28.1408   43.2815 H   0  0  0  0  0  0  0  0  0  0  0  0
   55.8471   28.9199   45.2552 H   0  0  0  0  0  0  0  0  0  0  0  0
   57.4517   29.5619   45.7275 H   0  0  0  0  0  0  0  0  0  0  0  0
   58.2839   31.2067   44.6886 H   0  0  0  0  0  0  0  0  0  0  0  0
   57.3642   32.0155   43.3577 H   0  0  0  0  0  0  0  0  0  0  0  0
   57.8353   33.7868   44.8391 H   0  0  0  0  0  0  0  0  0  0  0  0
   56.1638   33.3098   45.2836 H   0  0  0  0  0  0  0  0  0  0  0  0
   57.7496   34.7426   46.8670 H   0  0  0  0  0  0  0  0  0  0  0  0
   58.2965   33.7147   48.2489 H   0  0  0  0  0  0  0  0  0  0  0  0
   59.7515   34.3407   45.6454 H   0  0  0  0  0  0  0  0  0  0  0  0
   60.2975   34.5946   47.3487 H   0  0  0  0  0  0  0  0  0  0  0  0
   63.6720   32.9630   46.1624 H   0  0  0  0  0  0  0  0  0  0  0  0
   62.4105   34.2631   46.2467 H   0  0  0  0  0  0  0  0  0  0  0  0
   64.1312   34.6519   47.9485 H   0  0  0  0  0  0  0  0  0  0  0  0
   62.5559   34.2128   48.7214 H   0  0  0  0  0  0  0  0  0  0  0  0
   63.4024   31.8160   48.8326 H   0  0  0  0  0  0  0  0  0  0  0  0
   65.0377   32.5101   48.3489 H   0  0  0  0  0  0  0  0  0  0  0  0
   63.4998   33.8012   52.0136 H   0  0  0  0  0  0  0  0  0  0  0  0
   63.6294   34.9012   50.5994 H   0  0  0  0  0  0  0  0  0  0  0  0
   62.4150   33.5777   50.5994 H   0  0  0  0  0  0  0  0  0  0  0  0
   66.0698   34.1000   49.5965 H   0  0  0  0  0  0  0  0  0  0  0  0
   65.8823   34.0849   51.3689 H   0  0  0  0  0  0  0  0  0  0  0  0
   67.2527   32.1170   49.5771 H   0  0  0  0  0  0  0  0  0  0  0  0
   67.5196   32.4078   51.3003 H   0  0  0  0  0  0  0  0  0  0  0  0
   65.8604   30.3544   50.0285 H   0  0  0  0  0  0  0  0  0  0  0  0
   66.1839   30.5406   51.7541 H   0  0  0  0  0  0  0  0  0  0  0  0
   63.7004   30.9760   50.6160 H   0  0  0  0  0  0  0  0  0  0  0  0
   64.2224   31.8125   52.0973 H   0  0  0  0  0  0  0  0  0  0  0  0
  1  2  1  0
  2  3  1  0
  3  4  1  0
  4  5  1  0
  5  6  1  0
  6  7  1  0
  7  8  1  0
  8  9  1  0
  9 10  1  0
 10 11  1  0
 11 12  1  0
 12 13  1  0
 13 14  1  0
 14 15  1  0
 15 16  1  0
 15 17  1  0
 15 18  1  0
 18 19  1  0
 19 20  1  0
 20 21  1  0
 21 22  1  0
 22 23  1  0
 23 24  1  0
 24 25  1  0
 25 26  1  0
 26 27  1  0
 27 28  1  0
 28 29  1  0
 29 30  1  0
 30 31  1  0
 31 32  1  0
 32 33  1  0
 33 34  1  0
 34 35  1  0
 35 36  1  0
 36 37  2  0
 36 38  1  0
 38 39  1  0
 39 40  1  0
 40 41  1  0
 41 42  1  0
 41 43  1  0
 43 44  1  0
 44 45  1  0
 45 46  1  0
 46 41  1  0
  1 47  1  0
  1 48  1  0
  1 49  1  0
  2 50  1  0
  2 51  1  0
  3 52  1  0
  3 53  1  0
  4 54  1  0
  4 55  1  0
  5 56  1  0
  5 57  1  0
  6 58  1  0
  6 59  1  0
  7 60  1  0
  7 61  1  0
  8 62  1  0
  8 63  1  0
  9 64  1  0
  9 65  1  0
 10 66  1  0
 10 67  1  0
 11 68  1  0
 11 69  1  0
 12 70  1  0
 12 71  1  0
 13 72  1  0
 13 73  1  0
 14 74  1  0
 14 75  1  0
 16 76  1  0
 16 77  1  0
 16 78  1  0
 17 79  1  0
 17 80  1  0
 17 81  1  0
 18 82  1  0
 18 83  1  0
 19 84  1  0
 19 85  1  0
 21 86  1  0
 21 87  1  0
 22 88  1  0
 22 89  1  0
 24 90  1  0
 24 91  1  0
 25 92  1  0
 25 93  1  0
 27 94  1  0
 27 95  1  0
 28 96  1  0
 28 97  1  0
 30 98  1  0
 30 99  1  0
 31100  1  0
 31101  1  0
 33102  1  0
 33103  1  0
 34104  1  0
 34105  1  0
 38106  1  0
 38107  1  0
 39108  1  0
 39109  1  0
 40110  1  0
 40111  1  0
 42112  1  0
 42113  1  0
 42114  1  0
 43115  1  0
 43116  1  0
 44117  1  0
 44118  1  0
 45119  1  0
 45120  1  0
 46121  1  0
 46122  1  0
M  CHG  3  15   1  35  -1  41   1
M  END
>  <UniqueID>  (16) 
16

>  <SMILES>  (16) 
CCCCCCCCCCCCCC[N+](C)(C)CCOCCOCCOCCOCCOCC[N-]C(=O)CCC[N+]1(C)CCCC1

>  <Energy>  (16) 
124.55260091011728

>  <Genealogy>  (16) 
CCCCCCCCCCCCCC[N+](C)(C)CCOCCOCCOCCOCCOCC[N-]C(=O)CCC[N+]1(C)CCCC1 (protonated)
CCCCCCCCCCCCCC[N+](C)(C)CCOCCOCCOCCOCCOCC[N-]C(=O)CCC[N+]1(C)CCCC1 (3D coordinates assigned)
CCCCCCCCCCCCCC[N+](C)(C)CCOCCOCCOCCOCCOCC[N-]C(=O)CCC[N+]1(C)CCCC1 (nonaromatic ring conformer: 124.55260091011728 kcal/mol)

>  <smiles>  (16) 
CCCCCCCCCCCCCC[N+](C)(C)CCOCCOCCOCCOCCOCCNC(=O)CCC[N+]1(C)CCCC1

>  <score_type>  (16) 
oracle

>  <origin>  (16) 
adg

>  <m_score__min__energy>  (16) 
-3.7999999999999998

>  <m_primary>  (16) 
energy

$$$$
16:0
     RDKit          3D

 42 45  0  0  0  0  0  0  0  0999 V2000
   55.8670   29.7620   43.5360 C   0  0  0  0  0  0  0  0  0  0  0  0
   56.6390   30.7200   42.8390 C   0  0  0  0  0  0  0  0  0  0  0  0
   57.8550   31.1810   43.3770 C   0  0  0  0  0  0  0  0  0  0  0  0
   58.2570   30.6600   44.6040 C   0  0  0  0  0  0  0  0  0  0  0  0
   59.3720   30.9480   45.2920 N   0  0  0  0  0  0  0  0  0  0  0  0
   59.2450   30.1620   46.3940 C   0  0  0  0  0  0  0  0  0  0  0  0
   60.2920   30.0950   47.4600 C   0  0  0  0  0  0  0  0  0  0  0  0
   60.4700   31.4650   48.1190 C   0  0  0  0  0  0  0  0  0  0  0  0
   61.6150   32.2070   47.4970 C   0  0  0  0  0  0  0  0  0  0  0  0
   62.8910   31.7740   47.5320 N   0  0  0  0  0  0  0  0  0  0  0  0
   63.5800   32.7250   46.9160 N   0  0  0  0  0  0  0  0  0  0  0  0
   62.7860   33.7060   46.5220 N   0  0  0  0  0  0  0  0  0  0  0  0
   61.5480   33.4070   46.8790 N   0  0  0  0  0  0  0  0  0  0  0  0
   60.3790   34.2590   46.6260 C   0  0  0  0  0  0  0  0  0  0  0  0
   59.7310   33.8760   45.2740 C   0  0  0  0  0  0  0  0  0  0  0  0
   58.2590   34.2950   45.2250 C   0  0  0  0  0  0  0  0  0  0  0  0
   57.4280   33.5840   46.3130 C   0  0  0  0  0  0  0  0  0  0  0  0
   58.2480   33.1950   47.5590 C   0  0  0  0  0  0  0  0  0  0  0  0
   59.3900   34.1850   47.8170 C   0  0  0  0  0  0  0  0  0  0  0  0
   58.1230   29.3940   46.4190 N   0  0  0  0  0  0  0  0  0  0  0  0
   57.5150   29.7370   45.2740 C   0  0  0  0  0  0  0  0  0  0  0  0
   56.3070   29.2560   44.7730 C   0  0  0  0  0  0  0  0  0  0  0  0
   54.9165   29.4101   43.1085 H   0  0  0  0  0  0  0  0  0  0  0  0
   56.2873   31.1069   41.8712 H   0  0  0  0  0  0  0  0  0  0  0  0
   58.4661   31.9264   42.8470 H   0  0  0  0  0  0  0  0  0  0  0  0
   59.9870   29.3629   48.2222 H   0  0  0  0  0  0  0  0  0  0  0  0
   61.2461   29.7910   47.0048 H   0  0  0  0  0  0  0  0  0  0  0  0
   59.5476   32.0504   47.9901 H   0  0  0  0  0  0  0  0  0  0  0  0
   60.6824   31.3184   49.1883 H   0  0  0  0  0  0  0  0  0  0  0  0
   64.6120   32.7030   46.7660 H   0  0  0  0  0  0  0  0  0  0  0  0
   60.6923   35.3104   46.5455 H   0  0  0  0  0  0  0  0  0  0  0  0
   60.2743   34.3794   44.4607 H   0  0  0  0  0  0  0  0  0  0  0  0
   59.7853   32.7833   45.1597 H   0  0  0  0  0  0  0  0  0  0  0  0
   58.1923   35.3822   45.3788 H   0  0  0  0  0  0  0  0  0  0  0  0
   57.8536   34.0107   44.2427 H   0  0  0  0  0  0  0  0  0  0  0  0
   56.6167   34.2574   46.6267 H   0  0  0  0  0  0  0  0  0  0  0  0
   57.0491   32.6505   45.8714 H   0  0  0  0  0  0  0  0  0  0  0  0
   57.5822   33.1825   48.4345 H   0  0  0  0  0  0  0  0  0  0  0  0
   58.6875   32.2019   47.3844 H   0  0  0  0  0  0  0  0  0  0  0  0
   58.9618   35.1842   47.9848 H   0  0  0  0  0  0  0  0  0  0  0  0
   59.9476   33.8360   48.6986 H   0  0  0  0  0  0  0  0  0  0  0  0
   55.7187   28.5079   45.3245 H   0  0  0  0  0  0  0  0  0  0  0  0
  1  2  2  0
  2  3  1  0
  3  4  2  0
  4  5  1  0
  5  6  1  0
  6  7  1  0
  7  8  1  0
  8  9  1  0
  9 10  2  0
 10 11  1  0
 11 12  2  0
 12 13  1  0
 13 14  1  0
 14 15  1  0
 15 16  1  0
 16 17  1  0
 17 18  1  0
 18 19  1  0
  6 20  2  0
 20 21  1  0
 21 22  2  0
 22  1  1  0
 21  4  1  0
 13  9  1  0
 19 14  1  0
  1 23  1  0
  2 24  1  0
  3 25  1  0
  7 26  1  0
  7 27  1  0
  8 28  1  0
  8 29  1  0
 11 30  1  0
 14 31  1  0
 15 32  1  0
 15 33  1  0
 16 34  1  0
 16 35  1  0
 17 36  1  0
 17 37  1  0
 18 38  1  0
 18 39  1  0
 19 40  1  0
 19 41  1  0
 22 42  1  0
M  CHG  2   5  -1  11   1
M  END
>  <UniqueID>  (17) 
17

>  <SMILES>  (17) 
c1ccc2[n-]c(CCc3n[nH+]nn3C3CCCCC3)nc2c1

>  <Energy>  (17) 
116.72046543935242

>  <Genealogy>  (17) 
c1ccc2[n-]c(CCc3n[nH+]nn3C3CCCCC3)nc2c1 (protonated)
c1ccc2[n-]c(CCc3n[nH+]nn3C3CCCCC3)nc2c1 (3D coordinates assigned)
c1ccc2[n-]c(CCc3n[nH+]nn3C3CCCCC3)nc2c1 (nonaromatic ring conformer: 116.72046543935242 kcal/mol)

>  <smiles>  (17) 
c1ccc2[nH]c(CCc3nnnn3C3CCCCC3)nc2c1

>  <score_type>  (17) 
oracle

>  <origin>  (17) 
adg

>  <m_score__min__energy>  (17) 
-8.5899999999999999

>  <m_primary>  (17) 
energy

$$$$
17:0
     RDKit          3D

 63 65  0  0  0  0  0  0  0  0999 V2000
   59.6760   33.5910   49.2450 C   0  0  0  0  0  0  0  0  0  0  0  0
   60.9610   34.1970   48.6800 C   0  0  0  0  0  0  0  0  0  0  0  0
   60.7730   34.6030   47.2650 N   0  0  0  0  0  0  0  0  0  0  0  0
   59.3340   34.5120   46.9010 C   0  0  0  0  0  0  0  0  0  0  0  0
   59.1490   34.4960   45.3880 C   0  0  0  0  0  0  0  0  0  0  0  0
   61.5710   33.7420   46.3580 C   0  0  0  0  0  0  0  0  0  0  0  0
   63.0900   33.8500   46.5990 C   0  0  0  0  0  0  0  0  0  0  0  0
   63.6940   32.6230   47.1390 N   0  0  0  0  0  0  0  0  0  0  0  0
   63.2950   31.9880   48.3730 C   0  0  0  0  0  0  0  0  0  0  0  0
   64.0840   32.1560   49.5270 C   0  0  0  0  0  0  0  0  0  0  0  0
   65.2340   32.9770   49.5040 C   0  0  0  0  0  0  0  0  0  0  0  0
   66.0570   33.0860   50.6210 C   0  0  0  0  0  0  0  0  0  0  0  0
   65.7610   32.3710   51.7740 C   0  0  0  0  0  0  0  0  0  0  0  0
   64.6270   31.5640   51.8270 C   0  0  0  0  0  0  0  0  0  0  0  0
   63.7420   31.4650   50.7210 C   0  0  0  0  0  0  0  0  0  0  0  0
   62.5960   30.6950   50.7740 N   0  0  0  0  0  0  0  0  0  0  0  0
   62.1100   30.1800   52.0750 C   0  0  0  0  0  0  0  0  0  0  0  0
   61.8730   30.4440   49.6230 C   0  0  0  0  0  0  0  0  0  0  0  0
   60.8320   29.4840   49.5900 C   0  0  0  0  0  0  0  0  0  0  0  0
   60.0300   29.3270   48.4610 C   0  0  0  0  0  0  0  0  0  0  0  0
   60.2250   30.1250   47.3280 C   0  0  0  0  0  0  0  0  0  0  0  0
   59.3590   29.9960   46.1730 N   0  0  0  0  0  0  0  0  0  0  0  0
   59.4810   28.8330   45.2780 C   0  0  0  0  0  0  0  0  0  0  0  0
   60.9360   28.5890   44.8770 C   0  0  0  0  0  0  0  0  0  0  0  0
   58.3520   31.0310   45.8800 C   0  0  0  0  0  0  0  0  0  0  0  0
   57.9920   31.0520   44.3960 C   0  0  0  0  0  0  0  0  0  0  0  0
   61.2850   31.0430   47.3300 C   0  0  0  0  0  0  0  0  0  0  0  0
   62.1610   31.1550   48.4290 C   0  0  0  0  0  0  0  0  0  0  0  0
   59.7145   33.6091   50.3442 H   0  0  0  0  0  0  0  0  0  0  0  0
   58.8114   34.1763   48.8987 H   0  0  0  0  0  0  0  0  0  0  0  0
   59.5776   32.5516   48.8987 H   0  0  0  0  0  0  0  0  0  0  0  0
   61.2356   35.0802   49.2754 H   0  0  0  0  0  0  0  0  0  0  0  0
   61.7586   33.4409   48.7274 H   0  0  0  0  0  0  0  0  0  0  0  0
   58.9146   33.5871   47.3237 H   0  0  0  0  0  0  0  0  0  0  0  0
   58.8153   35.3933   47.3064 H   0  0  0  0  0  0  0  0  0  0  0  0
   58.0790   34.4034   45.1504 H   0  0  0  0  0  0  0  0  0  0  0  0
   59.5399   35.4313   44.9609 H   0  0  0  0  0  0  0  0  0  0  0  0
   59.6947   33.6417   44.9609 H   0  0  0  0  0  0  0  0  0  0  0  0
   61.2662   32.6962   46.5107 H   0  0  0  0  0  0  0  0  0  0  0  0
   61.3780   34.0826   45.3300 H   0  0  0  0  0  0  0  0  0  0  0  0
   63.5774   34.0838   45.6410 H   0  0  0  0  0  0  0  0  0  0  0  0
   63.2397   34.6386   47.3511 H   0  0  0  0  0  0  0  0  0  0  0  0
   64.3560   32.1060   46.5180 H   0  0  0  0  0  0  0  0  0  0  0  0
   65.4821   33.5376   48.5907 H   0  0  0  0  0  0  0  0  0  0  0  0
   66.9420   33.7386   50.5905 H   0  0  0  0  0  0  0  0  0  0  0  0
   66.4244   32.4422   52.6485 H   0  0  0  0  0  0  0  0  0  0  0  0
   64.4131   30.9929   52.7425 H   0  0  0  0  0  0  0  0  0  0  0  0
   62.6149   30.7150   52.8928 H   0  0  0  0  0  0  0  0  0  0  0  0
   61.0239   30.3377   52.1492 H   0  0  0  0  0  0  0  0  0  0  0  0
   62.3303   29.1048   52.1492 H   0  0  0  0  0  0  0  0  0  0  0  0
   60.6533   28.8508   50.4716 H   0  0  0  0  0  0  0  0  0  0  0  0
   59.2346   28.5671   48.4605 H   0  0  0  0  0  0  0  0  0  0  0  0
   59.0979   27.9412   45.7955 H   0  0  0  0  0  0  0  0  0  0  0  0
   58.8994   29.0347   44.3664 H   0  0  0  0  0  0  0  0  0  0  0  0
   61.5532   28.4855   45.7816 H   0  0  0  0  0  0  0  0  0  0  0  0
   61.0023   27.6672   44.2804 H   0  0  0  0  0  0  0  0  0  0  0  0
   61.2994   29.4388   44.2804 H   0  0  0  0  0  0  0  0  0  0  0  0
   57.4444   30.8236   46.4658 H   0  0  0  0  0  0  0  0  0  0  0  0
   58.7736   32.0109   46.1484 H   0  0  0  0  0  0  0  0  0  0  0  0
   56.8995   31.1157   44.2846 H   0  0  0  0  0  0  0  0  0  0  0  0
   58.4609   31.9243   43.9173 H   0  0  0  0  0  0  0  0  0  0  0  0
   58.3563   30.1311   43.9173 H   0  0  0  0  0  0  0  0  0  0  0  0
   61.4365   31.6907   46.4539 H   0  0  0  0  0  0  0  0  0  0  0  0
  1  2  1  0
  2  3  1  0
  3  4  1  0
  4  5  1  0
  3  6  1  0
  6  7  1  0
  7  8  1  0
  8  9  1  0
  9 10  2  0
 10 11  1  0
 11 12  2  0
 12 13  1  0
 13 14  2  0
 14 15  1  0
 15 16  2  0
 16 17  1  0
 16 18  1  0
 18 19  2  0
 19 20  1  0
 20 21  2  0
 21 22  1  0
 22 23  1  0
 23 24  1  0
 22 25  1  0
 25 26  1  0
 21 27  1  0
 27 28  2  0
 28  9  1  0
 15 10  1  0
 28 18  1  0
  1 29  1  0
  1 30  1  0
  1 31  1  0
  2 32  1  0
  2 33  1  0
  4 34  1  0
  4 35  1  0
  5 36  1  0
  5 37  1  0
  5 38  1  0
  6 39  1  0
  6 40  1  0
  7 41  1  0
  7 42  1  0
  8 43  1  0
 11 44  1  0
 12 45  1  0
 13 46  1  0
 14 47  1  0
 17 48  1  0
 17 49  1  0
 17 50  1  0
 19 51  1  0
 20 52  1  0
 23 53  1  0
 23 54  1  0
 24 55  1  0
 24 56  1  0
 24 57  1  0
 25 58  1  0
 25 59  1  0
 26 60  1  0
 26 61  1  0
 26 62  1  0
 27 63  1  0
M  CHG  1  16   1
M  END
>  <UniqueID>  (18) 
18

>  <SMILES>  (18) 
CCN(CC)CCNc1c2ccccc2[n+](C)c2ccc(N(CC)CC)cc12

>  <Energy>  (18) 
85.69211167253573

>  <Genealogy>  (18) 
CCN(CC)CCNc1c2ccccc2[n+](C)c2ccc(N(CC)CC)cc12 (3D coordinates assigned)
CCN(CC)CCNc1c2ccccc2[n+](C)c2ccc(N(CC)CC)cc12 (optimized conformer: 85.69211167253573 kcal/mol)

>  <smiles>  (18) 
CCN(CC)CCNc1c2ccccc2[n+](C)c2ccc(N(CC)CC)cc12

>  <score_type>  (18) 
oracle

>  <origin>  (18) 
adg

>  <m_score__min__energy>  (18) 
-5.9199999999999999

>  <m_primary>  (18) 
energy

$$$$
18:0
     RDKit          3D

123122  0  0  0  0  0  0  0  0999 V2000
   68.9510   25.9810   49.7460 C   0  0  0  0  0  0  0  0  0  0  0  0
   67.6540   26.7360   50.0380 C   0  0  0  0  0  0  0  0  0  0  0  0
   67.8990   28.2150   50.3950 C   0  0  0  0  0  0  0  0  0  0  0  0
   66.8230   28.8390   51.3060 C   0  0  0  0  0  0  0  0  0  0  0  0
   67.1260   30.2930   51.6950 C   0  0  0  0  0  0  0  0  0  0  0  0
   66.9140   31.2460   50.5080 C   0  0  0  0  0  0  0  0  0  0  0  0
   66.8950   32.7210   50.9420 C   0  0  0  0  0  0  0  0  0  0  0  0
   65.6080   33.4470   50.5050 C   0  0  0  0  0  0  0  0  0  0  0  0
   64.8620   32.6910   49.3840 C   0  0  0  0  0  0  0  0  0  0  0  0
   63.9150   33.5770   48.5540 C   0  0  0  0  0  0  0  0  0  0  0  0
   63.6280   33.0610   47.1360 C   0  0  0  0  0  0  0  0  0  0  0  0
   63.0560   31.6300   47.1240 C   0  0  0  0  0  0  0  0  0  0  0  0
   62.2160   31.3180   48.3740 C   0  0  0  0  0  0  0  0  0  0  0  0
   60.7490   31.7940   48.2390 C   0  0  0  0  0  0  0  0  0  0  0  0
   60.3840   32.9820   49.0760 N   0  0  0  0  0  0  0  0  0  0  0  0
   61.2340   32.9670   50.2960 C   0  0  0  0  0  0  0  0  0  0  0  0
   58.9760   32.8710   49.5300 C   0  0  0  0  0  0  0  0  0  0  0  0
   60.5390   34.2840   48.3530 C   0  0  0  0  0  0  0  0  0  0  0  0
   59.2470   34.8350   47.6920 C   0  0  0  0  0  0  0  0  0  0  0  0
   58.6990   33.8880   46.6000 C   0  0  0  0  0  0  0  0  0  0  0  0
   59.1940   34.1980   45.1760 C   0  0  0  0  0  0  0  0  0  0  0  0
   58.4540   33.4610   44.0480 C   0  0  0  0  0  0  0  0  0  0  0  0
   57.6750   32.2060   44.4920 C   0  0  0  0  0  0  0  0  0  0  0  0
   57.3520   31.2300   43.3350 C   0  0  0  0  0  0  0  0  0  0  0  0
   56.4400   30.0430   43.7190 C   0  0  0  0  0  0  0  0  0  0  0  0
   57.0180   28.9880   44.6970 C   0  0  0  0  0  0  0  0  0  0  0  0
   58.5150   28.5970   44.5030 C   0  0  0  0  0  0  0  0  0  0  0  0
   59.3440   28.5010   45.7500 N   0  0  0  0  0  0  0  0  0  0  0  0
   59.6910   27.0650   45.9290 C   0  0  0  0  0  0  0  0  0  0  0  0
   60.6070   29.2710   45.5850 C   0  0  0  0  0  0  0  0  0  0  0  0
   58.5640   29.0000   46.9280 C   0  0  0  0  0  0  0  0  0  0  0  0
   59.3100   28.9330   48.2430 C   0  0  0  0  0  0  0  0  0  0  0  0
   60.4340   28.3590   48.2870 O   0  0  0  0  0  0  0  0  0  0  0  0
   58.7510   29.5160   49.4310 N   0  0  0  0  0  0  0  0  0  0  0  0
   59.5000   29.5950   50.6840 C   0  0  0  0  0  0  0  0  0  0  0  0
   58.5510   29.7360   51.8830 C   0  0  0  0  0  0  0  0  0  0  0  0
   58.1090   31.1850   52.1730 C   0  0  0  0  0  0  0  0  0  0  0  0
   56.6530   31.5220   51.7960 C   0  0  0  0  0  0  0  0  0  0  0  0
   55.6200   30.8560   52.7250 C   0  0  0  0  0  0  0  0  0  0  0  0
   54.4470   30.2210   51.9560 C   0  0  0  0  0  0  0  0  0  0  0  0
   53.3020   31.1850   51.6040 C   0  0  0  0  0  0  0  0  0  0  0  0
   52.1920   30.5160   50.7960 C   0  0  0  0  0  0  0  0  0  0  0  0
   69.4332   25.7003   50.6940 H   0  0  0  0  0  0  0  0  0  0  0  0
   68.7246   25.0735   49.1670 H   0  0  0  0  0  0  0  0  0  0  0  0
   69.6283   26.6260   49.1670 H   0  0  0  0  0  0  0  0  0  0  0  0
   67.0110   26.6902   49.1467 H   0  0  0  0  0  0  0  0  0  0  0  0
   67.1772   26.2574   50.9061 H   0  0  0  0  0  0  0  0  0  0  0  0
   68.8689   28.2884   50.9087 H   0  0  0  0  0  0  0  0  0  0  0  0
   67.8705   28.7744   49.4483 H   0  0  0  0  0  0  0  0  0  0  0  0
   65.8591   28.8127   50.7766 H   0  0  0  0  0  0  0  0  0  0  0  0
   66.8014   28.2507   52.2352 H   0  0  0  0  0  0  0  0  0  0  0  0
   66.4579   30.5904   52.5167 H   0  0  0  0  0  0  0  0  0  0  0  0
   68.1791   30.3562   52.0063 H   0  0  0  0  0  0  0  0  0  0  0  0
   67.7312   31.0998   49.7863 H   0  0  0  0  0  0  0  0  0  0  0  0
   65.9367   31.0139   50.0596 H   0  0  0  0  0  0  0  0  0  0  0  0
   66.9715   32.7673   52.0384 H   0  0  0  0  0  0  0  0  0  0  0  0
   67.7443   33.2238   50.4563 H   0  0  0  0  0  0  0  0  0  0  0  0
   64.9407   33.5389   51.3747 H   0  0  0  0  0  0  0  0  0  0  0  0
   65.8944   34.4341   50.1131 H   0  0  0  0  0  0  0  0  0  0  0  0
   65.6091   32.2530   48.7057 H   0  0  0  0  0  0  0  0  0  0  0  0
   64.2374   31.9299   49.8745 H   0  0  0  0  0  0  0  0  0  0  0  0
   62.9580   33.6520   49.0911 H   0  0  0  0  0  0  0  0  0  0  0  0
   64.4225   34.5456   48.4343 H   0  0  0  0  0  0  0  0  0  0  0  0
   62.9009   33.7339   46.6579 H   0  0  0  0  0  0  0  0  0  0  0  0
   64.5840   33.0394   46.5923 H   0  0  0  0  0  0  0  0  0  0  0  0
   62.4203   31.5122   46.2340 H   0  0  0  0  0  0  0  0  0  0  0  0
   63.9059   30.9317   47.1111 H   0  0  0  0  0  0  0  0  0  0  0  0
   62.2198   30.2304   48.5387 H   0  0  0  0  0  0  0  0  0  0  0  0
   62.6651   31.8579   49.2207 H   0  0  0  0  0  0  0  0  0  0  0  0
   60.5709   32.0528   47.1848 H   0  0  0  0  0  0  0  0  0  0  0  0
   60.1243   30.9634   48.5992 H   0  0  0  0  0  0  0  0  0  0  0  0
   60.5928   32.9783   51.1898 H   0  0  0  0  0  0  0  0  0  0  0  0
   61.8531   32.0578   50.3004 H   0  0  0  0  0  0  0  0  0  0  0  0
   61.8848   33.8538   50.3004 H   0  0  0  0  0  0  0  0  0  0  0  0
   58.9444   32.8685   50.6295 H   0  0  0  0  0  0  0  0  0  0  0  0
   58.3992   33.7265   49.1485 H   0  0  0  0  0  0  0  0  0  0  0  0
   58.5404   31.9357   49.1485 H   0  0  0  0  0  0  0  0  0  0  0  0
   60.8971   35.0328   49.0749 H   0  0  0  0  0  0  0  0  0  0  0  0
   61.2432   34.0923   47.5300 H   0  0  0  0  0  0  0  0  0  0  0  0
   58.4785   34.9621   48.4687 H   0  0  0  0  0  0  0  0  0  0  0  0
   59.4955   35.7937   47.2133 H   0  0  0  0  0  0  0  0  0  0  0  0
   59.0020   32.8612   46.8527 H   0  0  0  0  0  0  0  0  0  0  0  0
   57.6076   34.0250   46.5875 H   0  0  0  0  0  0  0  0  0  0  0  0
   59.0831   35.2790   45.0055 H   0  0  0  0  0  0  0  0  0  0  0  0
   60.2366   33.8497   45.1340 H   0  0  0  0  0  0  0  0  0  0  0  0
   57.7398   34.1628   43.5927 H   0  0  0  0  0  0  0  0  0  0  0  0
   59.2281   33.1115   43.3490 H   0  0  0  0  0  0  0  0  0  0  0  0
   58.2779   31.6700   45.2399 H   0  0  0  0  0  0  0  0  0  0  0  0
   56.7128   32.5526   44.8971 H   0  0  0  0  0  0  0  0  0  0  0  0
   56.8533   31.7996   42.5369 H   0  0  0  0  0  0  0  0  0  0  0  0
   58.3122   30.7926   43.0239 H   0  0  0  0  0  0  0  0  0  0  0  0
   55.5329   30.4596   44.1811 H   0  0  0  0  0  0  0  0  0  0  0  0
   56.2779   29.4963   42.7783 H   0  0  0  0  0  0  0  0  0  0  0  0
   56.9066   29.3835   45.7174 H   0  0  0  0  0  0  0  0  0  0  0  0
   56.4510   28.0671   44.4959 H   0  0  0  0  0  0  0  0  0  0  0  0
   58.5435   27.6164   44.0053 H   0  0  0  0  0  0  0  0  0  0  0  0
   58.9587   29.4162   43.9182 H   0  0  0  0  0  0  0  0  0  0  0  0
   59.7472   26.8324   47.0027 H   0  0  0  0  0  0  0  0  0  0  0  0
   58.9181   26.4396   45.4583 H   0  0  0  0  0  0  0  0  0  0  0  0
   60.6642   26.8615   45.4583 H   0  0  0  0  0  0  0  0  0  0  0  0
   61.0163   29.5205   46.5751 H   0  0  0  0  0  0  0  0  0  0  0  0
   61.3366   28.6639   45.0290 H   0  0  0  0  0  0  0  0  0  0  0  0
   60.4015   30.1976   45.0290 H   0  0  0  0  0  0  0  0  0  0  0  0
   58.2901   30.0487   46.7405 H   0  0  0  0  0  0  0  0  0  0  0  0
   57.6892   28.3408   47.0284 H   0  0  0  0  0  0  0  0  0  0  0  0
   57.7780   29.8970   49.4140 H   0  0  0  0  0  0  0  0  0  0  0  0
   60.0982   28.6797   50.8041 H   0  0  0  0  0  0  0  0  0  0  0  0
   60.1531   30.4794   50.6474 H   0  0  0  0  0  0  0  0  0  0  0  0
   57.6518   29.1345   51.6838 H   0  0  0  0  0  0  0  0  0  0  0  0
   59.1067   29.3921   52.7679 H   0  0  0  0  0  0  0  0  0  0  0  0
   58.2310   31.3673   53.2509 H   0  0  0  0  0  0  0  0  0  0  0  0
   58.7410   31.8261   51.5409 H   0  0  0  0  0  0  0  0  0  0  0  0
   56.5207   32.6127   51.8497 H   0  0  0  0  0  0  0  0  0  0  0  0
   56.4787   31.1362   50.7807 H   0  0  0  0  0  0  0  0  0  0  0  0
   56.1252   30.0706   53.3064 H   0  0  0  0  0  0  0  0  0  0  0  0
   55.2041   31.6408   53.3739 H   0  0  0  0  0  0  0  0  0  0  0  0
   54.8408   29.8023   51.0181 H   0  0  0  0  0  0  0  0  0  0  0  0
   54.0152   29.4629   52.6259 H   0  0  0  0  0  0  0  0  0  0  0  0
   52.8708   31.5745   52.5380 H   0  0  0  0  0  0  0  0  0  0  0  0
   53.7249   31.9887   50.9834 H   0  0  0  0  0  0  0  0  0  0  0  0
   51.4556   30.0722   51.4821 H   0  0  0  0  0  0  0  0  0  0  0  0
   51.6969   31.2662   50.1620 H   0  0  0  0  0  0  0  0  0  0  0  0
   52.6241   29.7278   50.1620 H   0  0  0  0  0  0  0  0  0  0  0  0
  1  2  1  0
  2  3  1  0
  3  4  1  0
  4  5  1  0
  5  6  1  0
  6  7  1  0
  7  8  1  0
  8  9  1  0
  9 10  1  0
 10 11  1  0
 11 12  1  0
 12 13  1  0
 13 14  1  0
 14 15  1  0
 15 16  1  0
 15 17  1  0
 15 18  1  0
 18 19  1  0
 19 20  1  0
 20 21  1  0
 21 22  1  0
 22 23  1  0
 23 24  1  0
 24 25  1  0
 25 26  1  0
 26 27  1  0
 27 28  1  0
 28 29  1  0
 28 30  1  0
 28 31  1  0
 31 32  1  0
 32 33  2  0
 32 34  1  0
 34 35  1  0
 35 36  1  0
 36 37  1  0
 37 38  1  0
 38 39  1  0
 39 40  1  0
 40 41  1  0
 41 42  1  0
  1 43  1  0
  1 44  1  0
  1 45  1  0
  2 46  1  0
  2 47  1  0
  3 48  1  0
  3 49  1  0
  4 50  1  0
  4 51  1  0
  5 52  1  0
  5 53  1  0
  6 54  1  0
  6 55  1  0
  7 56  1  0
  7 57  1  0
  8 58  1  0
  8 59  1  0
  9 60  1  0
  9 61  1  0
 10 62  1  0
 10 63  1  0
 11 64  1  0
 11 65  1  0
 12 66  1  0
 12 67  1  0
 13 68  1  0
 13 69  1  0
 14 70  1  0
 14 71  1  0
 16 72  1  0
 16 73  1  0
 16 74  1  0
 17 75  1  0
 17 76  1  0
 17 77  1  0
 18 78  1  0
 18 79  1  0
 19 80  1  0
 19 81  1  0
 20 82  1  0
 20 83  1  0
 21 84  1  0
 21 85  1  0
 22 86  1  0
 22 87  1  0
 23 88  1  0
 23 89  1  0
 24 90  1  0
 24 91  1  0
 25 92  1  0
 25 93  1  0
 26 94  1  0
 26 95  1  0
 27 96  1  0
 27 97  1  0
 29 98  1  0
 29 99  1  0
 29100  1  0
 30101  1  0
 30102  1  0
 30103  1  0
 31104  1  0
 31105  1  0
 34106  1  0
 35107  1  0
 35108  1  0
 36109  1  0
 36110  1  0
 37111  1  0
 37112  1  0
 38113  1  0
 38114  1  0
 39115  1  0
 39116  1  0
 40117  1  0
 40118  1  0
 41119  1  0
 41120  1  0
 42121  1  0
 42122  1  0
 42123  1  0
M  CHG  2  15   1  28   1
M  END
>  <UniqueID>  (19) 
19

>  <SMILES>  (19) 
CCCCCCCCCCCCCC[N+](C)(C)CCCCCCCCCC[N+](C)(C)CC(=O)NCCCCCCCC

>  <Energy>  (19) 
106.30661923050715

>  <Genealogy>  (19) 
CCCCCCCCCCCCCC[N+](C)(C)CCCCCCCCCC[N+](C)(C)CC(=O)NCCCCCCCC (3D coordinates assigned)
CCCCCCCCCCCCCC[N+](C)(C)CCCCCCCCCC[N+](C)(C)CC(=O)NCCCCCCCC (optimized conformer: 106.30661923050715 kcal/mol)

>  <smiles>  (19) 
CCCCCCCCCCCCCC[N+](C)(C)CCCCCCCCCC[N+](C)(C)CC(=O)NCCCCCCCC

>  <score_type>  (19) 
oracle

>  <origin>  (19) 
adg

>  <m_score__min__energy>  (19) 
-3.9399999999999999

>  <m_primary>  (19) 
energy

$$$$
19:0
     RDKit          3D

 47 49  0  0  0  0  0  0  0  0999 V2000
   62.3860   34.3310   49.4980 C   0  0  0  0  0  0  0  0  0  0  0  0
   60.9660   34.2160   49.4710 O   0  0  0  0  0  0  0  0  0  0  0  0
   60.2030   33.8890   48.3350 C   0  0  0  0  0  0  0  0  0  0  0  0
   59.6370   34.8960   47.5460 C   0  0  0  0  0  0  0  0  0  0  0  0
   58.8890   34.5760   46.4330 C   0  0  0  0  0  0  0  0  0  0  0  0
   58.6880   33.2480   46.0730 C   0  0  0  0  0  0  0  0  0  0  0  0
   57.7610   32.9430   44.7040 S   0  0  0  0  0  0  0  0  0  0  0  0
   57.6000   31.3110   44.3870 C   0  0  0  0  0  0  0  0  0  0  0  0
   56.8530   30.8840   43.2830 C   0  0  0  0  0  0  0  0  0  0  0  0
   56.7190   29.5240   43.0180 C   0  0  0  0  0  0  0  0  0  0  0  0
   57.3290   28.5910   43.8540 C   0  0  0  0  0  0  0  0  0  0  0  0
   58.0740   29.0160   44.9590 C   0  0  0  0  0  0  0  0  0  0  0  0
   58.2300   30.3950   45.2540 C   0  0  0  0  0  0  0  0  0  0  0  0
   59.0070   30.7980   46.3930 C   0  0  0  0  0  0  0  0  0  0  0  0
   59.5240   29.8600   47.0560 O   0  0  0  0  0  0  0  0  0  0  0  0
   59.2350   32.1680   46.8200 C   0  0  0  0  0  0  0  0  0  0  0  0
   60.0120   32.5180   47.9980 C   0  0  0  0  0  0  0  0  0  0  0  0
   60.5980   31.5220   48.8860 N   0  0  0  0  0  0  0  0  0  0  0  0
   59.6170   30.9970   49.8600 C   0  0  0  0  0  0  0  0  0  0  0  0
   58.3810   31.9020   50.0370 C   0  0  0  0  0  0  0  0  0  0  0  0
   57.6930   31.7130   51.4100 C   0  0  0  0  0  0  0  0  0  0  0  0
   56.9820   30.4230   51.5620 N   0  0  0  0  0  0  0  0  0  0  0  0
   57.7120   29.4580   52.4000 C   0  0  0  0  0  0  0  0  0  0  0  0
   55.5920   30.5780   52.0160 C   0  0  0  0  0  0  0  0  0  0  0  0
   62.7318   34.3590   50.5419 H   0  0  0  0  0  0  0  0  0  0  0  0
   62.8337   33.4662   48.9865 H   0  0  0  0  0  0  0  0  0  0  0  0
   62.6887   35.2566   48.9865 H   0  0  0  0  0  0  0  0  0  0  0  0
   59.7899   35.9514   47.8157 H   0  0  0  0  0  0  0  0  0  0  0  0
   58.4471   35.3786   45.8242 H   0  0  0  0  0  0  0  0  0  0  0  0
   56.3720   31.6228   42.6251 H   0  0  0  0  0  0  0  0  0  0  0  0
   56.1328   29.1866   42.1505 H   0  0  0  0  0  0  0  0  0  0  0  0
   57.2243   27.5163   43.6443 H   0  0  0  0  0  0  0  0  0  0  0  0
   58.5476   28.2674   45.6112 H   0  0  0  0  0  0  0  0  0  0  0  0
   61.0350   30.7520   48.3350 H   0  0  0  0  0  0  0  0  0  0  0  0
   61.4230   31.9030   49.3980 H   0  0  0  0  0  0  0  0  0  0  0  0
   59.2785   30.0089   49.5150 H   0  0  0  0  0  0  0  0  0  0  0  0
   60.1239   30.9474   50.8350 H   0  0  0  0  0  0  0  0  0  0  0  0
   58.6972   32.9514   49.9435 H   0  0  0  0  0  0  0  0  0  0  0  0
   57.6531   31.6252   49.2602 H   0  0  0  0  0  0  0  0  0  0  0  0
   58.4630   31.7765   52.1930 H   0  0  0  0  0  0  0  0  0  0  0  0
   56.9329   32.5038   51.4934 H   0  0  0  0  0  0  0  0  0  0  0  0
   57.5376   29.6885   53.4613 H   0  0  0  0  0  0  0  0  0  0  0  0
   57.3557   28.4403   52.1825 H   0  0  0  0  0  0  0  0  0  0  0  0
   58.7883   29.5240   52.1825 H   0  0  0  0  0  0  0  0  0  0  0  0
   55.5636   30.5812   53.1156 H   0  0  0  0  0  0  0  0  0  0  0  0
   55.1858   31.5270   51.6360 H   0  0  0  0  0  0  0  0  0  0  0  0
   54.9867   29.7418   51.6360 H   0  0  0  0  0  0  0  0  0  0  0  0
  1  2  1  0
  2  3  1  0
  3  4  2  0
  4  5  1  0
  5  6  2  0
  6  7  1  0
  7  8  1  0
  8  9  2  0
  9 10  1  0
 10 11  2  0
 11 12  1  0
 12 13  2  0
 13 14  1  0
 14 15  2  0
 14 16  1  0
 16 17  2  0
 17 18  1  0
 18 19  1  0
 19 20  1  0
 20 21  1  0
 21 22  1  0
 22 23  1  0
 22 24  1  0
 17  3  1  0
 16  6  1  0
 13  8  1  0
  1 25  1  0
  1 26  1  0
  1 27  1  0
  4 28  1  0
  5 29  1  0
  9 30  1  0
 10 31  1  0
 11 32  1  0
 12 33  1  0
 18 34  1  0
 18 35  1  0
 19 36  1  0
 19 37  1  0
 20 38  1  0
 20 39  1  0
 21 40  1  0
 21 41  1  0
 23 42  1  0
 23 43  1  0
 23 44  1  0
 24 45  1  0
 24 46  1  0
 24 47  1  0
M  CHG  1  18   1
M  END
>  <UniqueID>  (20) 
20

>  <SMILES>  (20) 
COc1ccc2sc3ccccc3c(=O)c2c1[NH2+]CCCN(C)C

>  <Energy>  (20) 
73.8016005291498

>  <Genealogy>  (20) 
COc1ccc2sc3ccccc3c(=O)c2c1[NH2+]CCCN(C)C (protonated)
COc1ccc2sc3ccccc3c(=O)c2c1[NH2+]CCCN(C)C (3D coordinates assigned)
COc1ccc2sc3ccccc3c(=O)c2c1[NH2+]CCCN(C)C (optimized conformer: 73.8016005291498 kcal/mol)

>  <smiles>  (20) 
COc1ccc2sc3ccccc3c(=O)c2c1NCCCN(C)C

>  <score_type>  (20) 
oracle

>  <origin>  (20) 
adg

>  <m_score__min__energy>  (20) 
-5.4299999999999997

>  <m_primary>  (20) 
energy

$$$$
20:0
     RDKit          3D

 35 35  0  0  0  0  0  0  0  0999 V2000
   60.1180   30.4650   46.1200 C   0  0  0  0  0  0  0  0  0  0  0  0
   59.0230   29.4830   46.1260 N   0  0  0  0  0  0  0  0  0  0  0  0
   58.7470   29.0650   47.5110 C   0  0  0  0  0  0  0  0  0  0  0  0
   59.3680   28.3200   45.2790 C   0  0  0  0  0  0  0  0  0  0  0  0
   58.1810   27.8980   44.4090 C   0  0  0  0  0  0  0  0  0  0  0  0
   56.6480   28.7430   44.9490 S   0  0  0  0  0  0  0  0  0  0  0  0
   56.3630   29.7140   43.4230 C   0  0  0  0  0  0  0  0  0  0  0  0
   57.0120   31.1050   43.4890 C   0  0  0  0  0  0  0  0  0  0  0  0
   57.1010   31.6340   44.8660 N   0  0  0  0  0  0  0  0  0  0  0  0
   57.2990   33.0890   44.9040 C   0  0  0  0  0  0  0  0  0  0  0  0
   58.2060   33.4640   46.0360 C   0  0  0  0  0  0  0  0  0  0  0  0
   58.1580   32.9440   47.3220 C   0  0  0  0  0  0  0  0  0  0  0  0
   59.1160   33.5010   48.1770 C   0  0  0  0  0  0  0  0  0  0  0  0
   59.9140   34.4620   47.5680 C   0  0  0  0  0  0  0  0  0  0  0  0
   59.4270   34.6180   45.9650 S   0  0  0  0  0  0  0  0  0  0  0  0
   60.3941   30.7126   47.1556 H   0  0  0  0  0  0  0  0  0  0  0  0
   60.9890   30.0397   45.6000 H   0  0  0  0  0  0  0  0  0  0  0  0
   59.7898   31.3770   45.6000 H   0  0  0  0  0  0  0  0  0  0  0  0
   59.2157   29.7748   48.2085 H   0  0  0  0  0  0  0  0  0  0  0  0
   57.6601   29.0489   47.6795 H   0  0  0  0  0  0  0  0  0  0  0  0
   59.1591   28.0591   47.6795 H   0  0  0  0  0  0  0  0  0  0  0  0
   60.2129   28.5883   44.6277 H   0  0  0  0  0  0  0  0  0  0  0  0
   59.6362   27.4785   45.9347 H   0  0  0  0  0  0  0  0  0  0  0  0
   58.3891   28.1624   43.3617 H   0  0  0  0  0  0  0  0  0  0  0  0
   58.0391   26.8117   44.5080 H   0  0  0  0  0  0  0  0  0  0  0  0
   56.7880   29.1652   42.5696 H   0  0  0  0  0  0  0  0  0  0  0  0
   55.2777   29.8533   43.3098 H   0  0  0  0  0  0  0  0  0  0  0  0
   58.0279   31.0383   43.0724 H   0  0  0  0  0  0  0  0  0  0  0  0
   56.3768   31.7930   42.9118 H   0  0  0  0  0  0  0  0  0  0  0  0
   57.8820   31.1780   45.3920 H   0  0  0  0  0  0  0  0  0  0  0  0
   57.7482   33.4184   43.9555 H   0  0  0  0  0  0  0  0  0  0  0  0
   56.3245   33.5777   45.0510 H   0  0  0  0  0  0  0  0  0  0  0  0
   57.4400   32.1725   47.6372 H   0  0  0  0  0  0  0  0  0  0  0  0
   59.2267   33.2061   49.2309 H   0  0  0  0  0  0  0  0  0  0  0  0
   60.7259   35.0249   48.0516 H   0  0  0  0  0  0  0  0  0  0  0  0
  1  2  1  0
  2  3  1  0
  2  4  1  0
  4  5  1  0
  5  6  1  0
  6  7  1  0
  7  8  1  0
  8  9  1  0
  9 10  1  0
 10 11  1  0
 11 12  2  0
 12 13  1  0
 13 14  2  0
 14 15  1  0
 15 11  1  0
  1 16  1  0
  1 17  1  0
  1 18  1  0
  3 19  1  0
  3 20  1  0
  3 21  1  0
  4 22  1  0
  4 23  1  0
  5 24  1  0
  5 25  1  0
  7 26  1  0
  7 27  1  0
  8 28  1  0
  8 29  1  0
  9 30  1  0
 10 31  1  0
 10 32  1  0
 12 33  1  0
 13 34  1  0
 14 35  1  0
M  END
>  <UniqueID>  (21) 
21

>  <SMILES>  (21) 
CN(C)CCSCCNCc1cccs1

>  <Energy>  (21) 
54.48426317721906

>  <Genealogy>  (21) 
CN(C)CCSCCNCc1cccs1 (3D coordinates assigned)
CN(C)CCSCCNCc1cccs1 (optimized conformer: 54.48426317721906 kcal/mol)

>  <smiles>  (21) 
CN(C)CCSCCNCc1cccs1

>  <score_type>  (21) 
oracle

>  <origin>  (21) 
adg

>  <m_score__min__energy>  (21) 
-4.8099999999999996

>  <m_primary>  (21) 
energy

$$$$
21:0
     RDKit          3D

 45 48  0  0  0  0  0  0  0  0999 V2000
   58.5050   26.3600   44.5470 C   0  0  0  0  0  0  0  0  0  0  0  0
   58.3100   27.5270   45.4240 N   0  0  0  0  0  0  0  0  0  0  0  0
   56.9640   28.1300   45.2590 C   0  0  0  0  0  0  0  0  0  0  0  0
   56.9860   29.6260   45.0850 C   0  0  0  0  0  0  0  0  0  0  0  0
   56.1110   30.3680   44.3270 C   0  0  0  0  0  0  0  0  0  0  0  0
   56.4700   31.6230   44.4350 O   0  0  0  0  0  0  0  0  0  0  0  0
   57.5250   31.6650   45.2190 C   0  0  0  0  0  0  0  0  0  0  0  0
   58.2210   32.9110   45.6160 C   0  0  0  0  0  0  0  0  0  0  0  0
   58.4510   33.8750   44.6180 C   0  0  0  0  0  0  0  0  0  0  0  0
   59.1670   35.0370   44.8950 C   0  0  0  0  0  0  0  0  0  0  0  0
   59.6660   35.2670   46.1740 C   0  0  0  0  0  0  0  0  0  0  0  0
   59.4310   34.3420   47.2010 C   0  0  0  0  0  0  0  0  0  0  0  0
   59.9170   34.5980   48.4930 C   0  0  0  0  0  0  0  0  0  0  0  0
   59.6590   33.7040   49.5310 C   0  0  0  0  0  0  0  0  0  0  0  0
   58.9020   32.5570   49.2950 C   0  0  0  0  0  0  0  0  0  0  0  0
   58.4140   32.2850   48.0140 C   0  0  0  0  0  0  0  0  0  0  0  0
   58.6900   33.1560   46.9370 C   0  0  0  0  0  0  0  0  0  0  0  0
   57.8850   30.4410   45.6650 N   0  0  0  0  0  0  0  0  0  0  0  0
   58.6370   27.1920   46.8260 C   0  0  0  0  0  0  0  0  0  0  0  0
   59.5290   28.2420   47.4360 C   0  0  0  0  0  0  0  0  0  0  0  0
   59.8990   28.1630   48.7880 C   0  0  0  0  0  0  0  0  0  0  0  0
   60.7270   29.1470   49.3310 C   0  0  0  0  0  0  0  0  0  0  0  0
   61.1830   30.1910   48.5270 C   0  0  0  0  0  0  0  0  0  0  0  0
   60.8070   30.2360   47.1840 C   0  0  0  0  0  0  0  0  0  0  0  0
   59.9980   29.2690   46.6670 N   0  0  0  0  0  0  0  0  0  0  0  0
   58.6553   25.4603   45.1618 H   0  0  0  0  0  0  0  0  0  0  0  0
   57.6168   26.2260   43.9121 H   0  0  0  0  0  0  0  0  0  0  0  0
   59.3885   26.5220   43.9121 H   0  0  0  0  0  0  0  0  0  0  0  0
   56.4906   27.6844   44.3716 H   0  0  0  0  0  0  0  0  0  0  0  0
   56.4043   27.9228   46.1830 H   0  0  0  0  0  0  0  0  0  0  0  0
   55.2663   29.9797   43.7390 H   0  0  0  0  0  0  0  0  0  0  0  0
   58.0595   33.7087   43.6036 H   0  0  0  0  0  0  0  0  0  0  0  0
   59.3390   35.7767   44.0992 H   0  0  0  0  0  0  0  0  0  0  0  0
   60.2470   36.1781   46.3797 H   0  0  0  0  0  0  0  0  0  0  0  0
   60.5039   35.5079   48.6871 H   0  0  0  0  0  0  0  0  0  0  0  0
   60.0534   33.9038   50.5383 H   0  0  0  0  0  0  0  0  0  0  0  0
   58.6879   31.8629   50.1211 H   0  0  0  0  0  0  0  0  0  0  0  0
   57.8084   31.3828   47.8427 H   0  0  0  0  0  0  0  0  0  0  0  0
   57.7056   27.1286   47.4077 H   0  0  0  0  0  0  0  0  0  0  0  0
   59.1668   26.2282   46.8425 H   0  0  0  0  0  0  0  0  0  0  0  0
   59.5396   27.3330   49.4140 H   0  0  0  0  0  0  0  0  0  0  0  0
   61.0190   29.0989   50.3904 H   0  0  0  0  0  0  0  0  0  0  0  0
   61.8333   30.9721   48.9477 H   0  0  0  0  0  0  0  0  0  0  0  0
   61.1645   31.0539   46.5412 H   0  0  0  0  0  0  0  0  0  0  0  0
   59.7340   29.3260   45.6580 H   0  0  0  0  0  0  0  0  0  0  0  0
  1  2  1  0
  2  3  1  0
  3  4  1  0
  4  5  2  0
  5  6  1  0
  6  7  1  0
  7  8  1  0
  8  9  2  0
  9 10  1  0
 10 11  2  0
 11 12  1  0
 12 13  2  0
 13 14  1  0
 14 15  2  0
 15 16  1  0
 16 17  2  0
  7 18  2  0
  2 19  1  0
 19 20  1  0
 20 21  2  0
 21 22  1  0
 22 23  2  0
 23 24  1  0
 24 25  2  0
 18  4  1  0
 25 20  1  0
 17  8  1  0
 17 12  1  0
  1 26  1  0
  1 27  1  0
  1 28  1  0
  3 29  1  0
  3 30  1  0
  5 31  1  0
  9 32  1  0
 10 33  1  0
 11 34  1  0
 13 35  1  0
 14 36  1  0
 15 37  1  0
 16 38  1  0
 19 39  1  0
 19 40  1  0
 21 41  1  0
 22 42  1  0
 23 43  1  0
 24 44  1  0
 25 45  1  0
M  CHG  1  25   1
M  END
>  <UniqueID>  (22) 
22

>  <SMILES>  (22) 
CN(Cc1coc(-c2cccc3ccccc23)n1)Cc1cccc[nH+]1

>  <Energy>  (22) 
90.0716174878176

>  <Genealogy>  (22) 
CN(Cc1coc(-c2cccc3ccccc23)n1)Cc1cccc[nH+]1 (protonated)
CN(Cc1coc(-c2cccc3ccccc23)n1)Cc1cccc[nH+]1 (3D coordinates assigned)
CN(Cc1coc(-c2cccc3ccccc23)n1)Cc1cccc[nH+]1 (optimized conformer: 90.0716174878176 kcal/mol)

>  <smiles>  (22) 
CN(Cc1ccccn1)Cc1coc(-c2cccc3ccccc23)n1

>  <score_type>  (22) 
oracle

>  <origin>  (22) 
adg

>  <m_score__min__energy>  (22) 
-7.0199999999999996

>  <m_primary>  (22) 
energy

$$$$
22:0
     RDKit          3D

 76 78  0  0  0  0  0  0  0  0999 V2000
   57.0280   33.7960   45.7470 C   0  0  0  0  0  0  0  0  0  0  0  0
   57.9950   34.5830   44.8650 C   0  0  0  0  0  0  0  0  0  0  0  0
   59.4290   34.5080   45.4120 C   0  0  0  0  0  0  0  0  0  0  0  0
   59.5010   34.2940   46.9470 C   0  0  0  0  0  0  0  0  0  0  0  0
   60.0220   32.9710   47.3710 N   0  0  0  0  0  0  0  0  0  0  0  0
   59.1760   31.8380   46.9270 C   0  0  0  0  0  0  0  0  0  0  0  0
   58.9420   30.8400   48.0680 C   0  0  0  0  0  0  0  0  0  0  0  0
   59.6550   29.5010   47.8030 C   0  0  0  0  0  0  0  0  0  0  0  0
   60.7700   29.6150   46.7530 C   0  0  0  0  0  0  0  0  0  0  0  0
   60.4950   28.7610   45.5060 C   0  0  0  0  0  0  0  0  0  0  0  0
   59.0860   28.1610   45.5470 C   0  0  0  0  0  0  0  0  0  0  0  0
   58.1010   29.0850   44.8820 C   0  0  0  0  0  0  0  0  0  0  0  0
   58.5490   30.2260   44.1940 C   0  0  0  0  0  0  0  0  0  0  0  0
   57.6300   31.1050   43.6120 C   0  0  0  0  0  0  0  0  0  0  0  0
   56.2580   30.8620   43.7260 C   0  0  0  0  0  0  0  0  0  0  0  0
   55.8030   29.7370   44.4210 C   0  0  0  0  0  0  0  0  0  0  0  0
   56.7200   28.8510   44.9990 C   0  0  0  0  0  0  0  0  0  0  0  0
   61.4750   32.8010   47.1130 C   0  0  0  0  0  0  0  0  0  0  0  0
   62.3010   33.0220   48.3840 C   0  0  0  0  0  0  0  0  0  0  0  0
   61.5570   32.5710   49.6500 C   0  0  0  0  0  0  0  0  0  0  0  0
   61.0520   33.7690   50.4720 C   0  0  0  0  0  0  0  0  0  0  0  0
   60.3550   33.3300   51.7030 N   0  0  0  0  0  0  0  0  0  0  0  0
   59.2200   34.2290   52.0520 C   0  0  0  0  0  0  0  0  0  0  0  0
   58.0690   33.4770   52.7250 C   0  0  0  0  0  0  0  0  0  0  0  0
   57.5250   32.4610   51.8020 N   0  0  0  0  0  0  0  0  0  0  0  0
   56.6140   31.5240   52.4810 C   0  0  0  0  0  0  0  0  0  0  0  0
   56.9850   30.1820   51.9970 C   0  0  0  0  0  0  0  0  0  0  0  0
   56.3730   29.1670   52.2960 O   0  0  0  0  0  0  0  0  0  0  0  0
   58.1670   30.1900   51.1210 C   0  0  0  0  0  0  0  0  0  0  0  0
   58.5650   31.6740   51.0810 C   0  0  2  0  0  0  0  0  0  0  0  0
   59.9850   31.8940   51.6530 C   0  0  0  0  0  0  0  0  0  0  0  0
   57.2604   33.9851   46.8054 H   0  0  0  0  0  0  0  0  0  0  0  0
   55.9966   34.1146   45.5354 H   0  0  0  0  0  0  0  0  0  0  0  0
   57.1305   32.7214   45.5354 H   0  0  0  0  0  0  0  0  0  0  0  0
   57.9760   34.1638   43.8482 H   0  0  0  0  0  0  0  0  0  0  0  0
   57.6797   35.6368   44.8548 H   0  0  0  0  0  0  0  0  0  0  0  0
   59.9449   33.6702   44.9201 H   0  0  0  0  0  0  0  0  0  0  0  0
   59.9048   35.4768   45.2000 H   0  0  0  0  0  0  0  0  0  0  0  0
   60.1559   35.0702   47.3696 H   0  0  0  0  0  0  0  0  0  0  0  0
   58.4657   34.3493   47.3144 H   0  0  0  0  0  0  0  0  0  0  0  0
   58.2053   32.2271   46.5859 H   0  0  0  0  0  0  0  0  0  0  0  0
   59.6939   31.3163   46.1087 H   0  0  0  0  0  0  0  0  0  0  0  0
   59.3272   31.2707   49.0040 H   0  0  0  0  0  0  0  0  0  0  0  0
   57.8616   30.6467   48.1408 H   0  0  0  0  0  0  0  0  0  0  0  0
   60.0959   29.1455   48.7460 H   0  0  0  0  0  0  0  0  0  0  0  0
   58.9039   28.7989   47.4119 H   0  0  0  0  0  0  0  0  0  0  0  0
   60.8595   30.6677   46.4466 H   0  0  0  0  0  0  0  0  0  0  0  0
   61.6993   29.2462   47.2117 H   0  0  0  0  0  0  0  0  0  0  0  0
   60.5905   29.3923   44.6102 H   0  0  0  0  0  0  0  0  0  0  0  0
   61.2242   27.9378   45.4790 H   0  0  0  0  0  0  0  0  0  0  0  0
   59.0883   27.1949   45.0211 H   0  0  0  0  0  0  0  0  0  0  0  0
   58.7893   28.0200   46.5968 H   0  0  0  0  0  0  0  0  0  0  0  0
   59.6272   30.4284   44.1130 H   0  0  0  0  0  0  0  0  0  0  0  0
   57.9873   31.9891   43.0636 H   0  0  0  0  0  0  0  0  0  0  0  0
   55.5366   31.5555   43.2692 H   0  0  0  0  0  0  0  0  0  0  0  0
   54.7233   29.5480   44.5136 H   0  0  0  0  0  0  0  0  0  0  0  0
   56.3583   27.9683   45.5468 H   0  0  0  0  0  0  0  0  0  0  0  0
   61.6552   31.7811   46.7425 H   0  0  0  0  0  0  0  0  0  0  0  0
   61.7827   33.5488   46.3673 H   0  0  0  0  0  0  0  0  0  0  0  0
   63.2369   32.4500   48.3013 H   0  0  0  0  0  0  0  0  0  0  0  0
   62.4955   34.1008   48.4749 H   0  0  0  0  0  0  0  0  0  0  0  0
   60.6962   31.9525   49.3560 H   0  0  0  0  0  0  0  0  0  0  0  0
   62.2593   31.9992   50.2743 H   0  0  0  0  0  0  0  0  0  0  0  0
   61.9105   34.3969   50.7524 H   0  0  0  0  0  0  0  0  0  0  0  0
   60.3377   34.3335   49.8546 H   0  0  0  0  0  0  0  0  0  0  0  0
   59.5836   35.0074   52.7390 H   0  0  0  0  0  0  0  0  0  0  0  0
   58.8365   34.6650   51.1177 H   0  0  0  0  0  0  0  0  0  0  0  0
   58.4392   32.9822   53.6350 H   0  0  0  0  0  0  0  0  0  0  0  0
   57.2742   34.1908   52.9872 H   0  0  0  0  0  0  0  0  0  0  0  0
   56.7427   31.5871   53.5716 H   0  0  0  0  0  0  0  0  0  0  0  0
   55.5605   31.7554   52.2653 H   0  0  0  0  0  0  0  0  0  0  0  0
   58.9757   29.5761   51.5442 H   0  0  0  0  0  0  0  0  0  0  0  0
   57.9677   29.7700   50.1241 H   0  0  0  0  0  0  0  0  0  0  0  0
   58.6108   32.0236   50.0391 H   0  0  0  0  0  0  0  0  0  0  0  0
   60.0234   31.4830   52.6726 H   0  0  0  0  0  0  0  0  0  0  0  0
   60.6985   31.3853   50.9880 H   0  0  0  0  0  0  0  0  0  0  0  0
  1  2  1  0
  2  3  1  0
  3  4  1  0
  4  5  1  0
  5  6  1  0
  6  7  1  0
  7  8  1  0
  8  9  1  0
  9 10  1  0
 10 11  1  0
 11 12  1  0
 12 13  2  0
 13 14  1  0
 14 15  2  0
 15 16  1  0
 16 17  2  0
  5 18  1  0
 18 19  1  0
 19 20  1  0
 20 21  1  0
 21 22  1  0
 22 23  1  0
 23 24  1  0
 24 25  1  0
 25 26  1  0
 26 27  1  0
 27 28  2  0
 27 29  1  0
 29 30  1  0
 30 31  1  0
 17 12  1  0
 31 22  1  0
 30 25  1  0
  1 32  1  0
  1 33  1  0
  1 34  1  0
  2 35  1  0
  2 36  1  0
  3 37  1  0
  3 38  1  0
  4 39  1  0
  4 40  1  0
  6 41  1  0
  6 42  1  0
  7 43  1  0
  7 44  1  0
  8 45  1  0
  8 46  1  0
  9 47  1  0
  9 48  1  0
 10 49  1  0
 10 50  1  0
 11 51  1  0
 11 52  1  0
 13 53  1  0
 14 54  1  0
 15 55  1  0
 16 56  1  0
 17 57  1  0
 18 58  1  0
 18 59  1  0
 19 60  1  0
 19 61  1  0
 20 62  1  0
 20 63  1  0
 21 64  1  0
 21 65  1  0
 23 66  1  0
 23 67  1  0
 24 68  1  0
 24 69  1  0
 26 70  1  0
 26 71  1  0
 29 72  1  0
 29 73  1  0
 30 74  1  6
 31 75  1  0
 31 76  1  0
M  END
>  <UniqueID>  (23) 
23

>  <SMILES>  (23) 
CCCCN(CCCCCCc1ccccc1)CCCCN1CCN2CC(=O)C[C@@H]2C1

>  <Energy>  (23) 
79.1434323333765

>  <Genealogy>  (23) 
CCCCN(CCCCCCc1ccccc1)CCCCN1CCN2CC(=O)C[C@@H]2C1 (chirality)
CCCCN(CCCCCCc1ccccc1)CCCCN1CCN2CC(=O)C[C@@H]2C1 (3D coordinates assigned)
CCCCN(CCCCCCc1ccccc1)CCCCN1CCN2CC(=O)C[C@@H]2C1 (nonaromatic ring conformer: 79.1434323333765 kcal/mol)

>  <smiles>  (23) 
CCCCN(CCCCCCc1ccccc1)CCCCN1CCN2CC(=O)CC2C1

>  <score_type>  (23) 
oracle

>  <origin>  (23) 
adg

>  <m_score__min__energy>  (23) 
-7.9199999999999999

>  <m_primary>  (23) 
energy

$$$$
23:0
     RDKit          3D

 43 45  0  0  0  0  0  0  0  0999 V2000
   57.0110   30.3060   44.0270 C   0  0  0  0  0  0  0  0  0  0  0  0
   57.1690   30.9750   45.2390 O   0  0  0  0  0  0  0  0  0  0  0  0
   57.7600   32.1870   45.4600 C   0  0  0  0  0  0  0  0  0  0  0  0
   57.2920   33.3400   44.8680 C   0  0  0  0  0  0  0  0  0  0  0  0
   57.9030   34.5780   45.1020 C   0  0  0  0  0  0  0  0  0  0  0  0
   59.0080   34.6790   45.9450 C   0  0  0  0  0  0  0  0  0  0  0  0
   59.4760   33.5200   46.5380 C   0  0  0  0  0  0  0  0  0  0  0  0
   60.6430   33.4850   47.4090 C   0  0  0  0  0  0  0  0  0  0  0  0
   61.8720   33.3230   46.7510 C   0  0  0  0  0  0  0  0  0  0  0  0
   62.9810   33.2470   47.5660 C   0  0  0  0  0  0  0  0  0  0  0  0
   64.1550   33.1060   47.0400 N   0  0  0  0  0  0  0  0  0  0  0  0
   62.9030   33.3210   48.9020 N   0  0  0  0  0  0  0  0  0  0  0  0
   61.6840   33.4790   49.4760 C   0  0  0  0  0  0  0  0  0  0  0  0
   60.5550   33.5620   48.7440 N   0  0  0  0  0  0  0  0  0  0  0  0
   59.2840   33.7500   49.4110 C   0  0  0  0  0  0  0  0  0  0  0  0
   59.1070   32.6280   50.3670 C   0  0  0  0  0  0  0  0  0  0  0  0
   59.2700   31.4290   50.0600 O   0  0  0  0  0  0  0  0  0  0  0  0
   58.7290   32.9590   51.7000 N   0  0  0  0  0  0  0  0  0  0  0  0
   58.4620   32.0050   52.7940 C   0  0  0  0  0  0  0  0  0  0  0  0
   59.2520   32.6430   53.9180 C   0  0  0  0  0  0  0  0  0  0  0  0
   58.9130   34.1040   53.7630 C   0  0  0  0  0  0  0  0  0  0  0  0
   58.5320   34.2560   52.3120 C   0  0  0  0  0  0  0  0  0  0  0  0
   58.8520   32.2990   46.2900 C   0  0  0  0  0  0  0  0  0  0  0  0
   59.4440   30.8180   47.0570 Cl  0  0  0  0  0  0  0  0  0  0  0  0
   56.7621   29.2520   44.2197 H   0  0  0  0  0  0  0  0  0  0  0  0
   56.1990   30.7754   43.4522 H   0  0  0  0  0  0  0  0  0  0  0  0
   57.9472   30.3625   43.4522 H   0  0  0  0  0  0  0  0  0  0  0  0
   56.4210   33.2868   44.1982 H   0  0  0  0  0  0  0  0  0  0  0  0
   57.5063   35.4810   44.6149 H   0  0  0  0  0  0  0  0  0  0  0  0
   59.4923   35.6486   46.1328 H   0  0  0  0  0  0  0  0  0  0  0  0
   61.9455   33.2607   45.6552 H   0  0  0  0  0  0  0  0  0  0  0  0
   64.6150   32.2000   46.8630 H   0  0  0  0  0  0  0  0  0  0  0  0
   61.6147   33.5413   50.5720 H   0  0  0  0  0  0  0  0  0  0  0  0
   59.2828   34.7075   49.9524 H   0  0  0  0  0  0  0  0  0  0  0  0
   58.4630   33.7664   48.6791 H   0  0  0  0  0  0  0  0  0  0  0  0
   57.3895   31.9503   53.0320 H   0  0  0  0  0  0  0  0  0  0  0  0
   58.7407   30.9643   52.5720 H   0  0  0  0  0  0  0  0  0  0  0  0
   58.9292   32.2613   54.8979 H   0  0  0  0  0  0  0  0  0  0  0  0
   60.3310   32.4346   53.8703 H   0  0  0  0  0  0  0  0  0  0  0  0
   58.0714   34.3784   54.4160 H   0  0  0  0  0  0  0  0  0  0  0  0
   59.7515   34.7582   54.0441 H   0  0  0  0  0  0  0  0  0  0  0  0
   57.4789   34.5617   52.2251 H   0  0  0  0  0  0  0  0  0  0  0  0
   59.1418   35.0269   51.8181 H   0  0  0  0  0  0  0  0  0  0  0  0
  1  2  1  0
  2  3  1  0
  3  4  2  0
  4  5  1  0
  5  6  2  0
  6  7  1  0
  7  8  1  0
  8  9  2  0
  9 10  1  0
 10 11  2  3
 10 12  1  0
 12 13  2  0
 13 14  1  0
 14 15  1  0
 15 16  1  0
 16 17  2  0
 16 18  1  0
 18 19  1  0
 19 20  1  0
 20 21  1  0
 21 22  1  0
  7 23  2  0
 23 24  1  0
 23  3  1  0
 14  8  1  0
 22 18  1  0
  1 25  1  0
  1 26  1  0
  1 27  1  0
  4 28  1  0
  5 29  1  0
  6 30  1  0
  9 31  1  0
 11 32  1  0
 13 33  1  0
 15 34  1  0
 15 35  1  0
 19 36  1  0
 19 37  1  0
 20 38  1  0
 20 39  1  0
 21 40  1  0
 21 41  1  0
 22 42  1  0
 22 43  1  0
M  END
>  <smiles>  (24) 
COc1cccc(-c2cc(=N)ncn2CC(=O)N2CCCC2)c1Cl

>  <score_type>  (24) 
oracle

>  <origin>  (24) 
adg

>  <m_score__min__energy>  (24) 
-7.1600000000000001

>  <m_primary>  (24) 
energy

$$$$
24:0
     RDKit          3D

 41 44  0  0  0  0  0  0  0  0999 V2000
   55.7330   30.0770   44.0720 C   0  0  0  0  0  0  0  0  0  0  0  0
   56.2720   29.4140   45.2110 O   0  0  0  0  0  0  0  0  0  0  0  0
   57.6390   29.1890   45.4240 C   0  0  0  0  0  0  0  0  0  0  0  0
   58.2960   28.0340   44.9580 C   0  0  0  0  0  0  0  0  0  0  0  0
   59.6640   27.8620   45.1880 C   0  0  0  0  0  0  0  0  0  0  0  0
   60.3850   28.8300   45.8880 C   0  0  0  0  0  0  0  0  0  0  0  0
   59.7420   29.9760   46.3790 C   0  0  0  0  0  0  0  0  0  0  0  0
   60.4980   30.9730   47.0860 N   0  0  0  0  0  0  0  0  0  0  0  0
   61.5270   30.6800   47.8610 N   0  0  0  0  0  0  0  0  0  0  0  0
   62.0400   31.8610   48.2620 C   0  0  0  0  0  0  0  0  0  0  0  0
   63.2160   31.9870   49.1480 C   0  0  0  0  0  0  0  0  0  0  0  0
   64.2060   32.9510   48.8870 C   0  0  0  0  0  0  0  0  0  0  0  0
   65.3190   33.0680   49.7260 C   0  0  0  0  0  0  0  0  0  0  0  0
   65.4530   32.2250   50.8320 C   0  0  0  0  0  0  0  0  0  0  0  0
   64.4760   31.2640   51.1000 C   0  0  0  0  0  0  0  0  0  0  0  0
   63.3620   31.1420   50.2640 C   0  0  0  0  0  0  0  0  0  0  0  0
   61.3580   32.9150   47.7610 N   0  0  0  0  0  0  0  0  0  0  0  0
   60.3930   32.3200   47.0330 C   0  0  0  0  0  0  0  0  0  0  0  0
   59.3260   33.0860   46.3520 C   0  0  0  0  0  0  0  0  0  0  0  0
   58.0030   33.0610   46.8190 C   0  0  0  0  0  0  0  0  0  0  0  0
   57.0250   33.8110   46.1610 C   0  0  0  0  0  0  0  0  0  0  0  0
   57.3580   34.5730   45.0860 N   0  0  0  0  0  0  0  0  0  0  0  0
   58.6360   34.6330   44.6250 C   0  0  0  0  0  0  0  0  0  0  0  0
   59.6430   33.8980   45.2530 C   0  0  0  0  0  0  0  0  0  0  0  0
   58.3710   30.1550   46.1250 C   0  0  0  0  0  0  0  0  0  0  0  0
   55.0709   30.8914   44.4010 H   0  0  0  0  0  0  0  0  0  0  0  0
   56.5528   30.4924   43.4675 H   0  0  0  0  0  0  0  0  0  0  0  0
   55.1590   29.3593   43.4675 H   0  0  0  0  0  0  0  0  0  0  0  0
   57.7310   27.2647   44.4113 H   0  0  0  0  0  0  0  0  0  0  0  0
   60.1736   26.9609   44.8161 H   0  0  0  0  0  0  0  0  0  0  0  0
   61.4636   28.6937   46.0558 H   0  0  0  0  0  0  0  0  0  0  0  0
   64.1045   33.6172   48.0176 H   0  0  0  0  0  0  0  0  0  0  0  0
   66.0894   33.8243   49.5149 H   0  0  0  0  0  0  0  0  0  0  0  0
   66.3282   32.3183   51.4918 H   0  0  0  0  0  0  0  0  0  0  0  0
   64.5831   30.6011   51.9713 H   0  0  0  0  0  0  0  0  0  0  0  0
   62.5963   30.3822   50.4795 H   0  0  0  0  0  0  0  0  0  0  0  0
   57.7376   32.4547   47.6976 H   0  0  0  0  0  0  0  0  0  0  0  0
   55.9834   33.7847   46.5137 H   0  0  0  0  0  0  0  0  0  0  0  0
   58.8767   35.2621   43.7553 H   0  0  0  0  0  0  0  0  0  0  0  0
   60.6791   33.9553   44.8881 H   0  0  0  0  0  0  0  0  0  0  0  0
   57.8670   31.0654   46.4815 H   0  0  0  0  0  0  0  0  0  0  0  0
  1  2  1  0
  2  3  1  0
  3  4  2  0
  4  5  1  0
  5  6  2  0
  6  7  1  0
  7  8  1  0
  8  9  1  0
  9 10  2  0
 10 11  1  0
 11 12  2  0
 12 13  1  0
 13 14  2  0
 14 15  1  0
 15 16  2  0
 10 17  1  0
 17 18  2  0
 18 19  1  0
 19 20  2  0
 20 21  1  0
 21 22  2  0
 22 23  1  0
 23 24  2  0
  7 25  2  0
 25  3  1  0
 18  8  1  0
 24 19  1  0
 16 11  1  0
  1 26  1  0
  1 27  1  0
  1 28  1  0
  4 29  1  0
  5 30  1  0
  6 31  1  0
 12 32  1  0
 13 33  1  0
 14 34  1  0
 15 35  1  0
 16 36  1  0
 20 37  1  0
 21 38  1  0
 23 39  1  0
 24 40  1  0
 25 41  1  0
M  END
>  <UniqueID>  (25) 
24

>  <SMILES>  (25) 
COc1cccc(-n2nc(-c3ccccc3)nc2-c2ccncc2)c1

>  <Energy>  (25) 
88.18896251715903

>  <Genealogy>  (25) 
COc1cccc(-n2nc(-c3ccccc3)nc2-c2ccncc2)c1 (3D coordinates assigned)
COc1cccc(-n2nc(-c3ccccc3)nc2-c2ccncc2)c1 (optimized conformer: 88.18896251715903 kcal/mol)

>  <smiles>  (25) 
COc1cccc(-n2nc(-c3ccccc3)nc2-c2ccncc2)c1

>  <score_type>  (25) 
oracle

>  <origin>  (25) 
adg

>  <m_score__min__energy>  (25) 
-7.3700000000000001

>  <m_primary>  (25) 
energy

$$$$
25:0
     RDKit          3D

 30 31  0  0  0  0  0  0  0  0999 V2000
   57.7780   29.0180   45.0780 C   0  0  0  0  0  0  0  0  0  0  0  0
   57.0990   29.0760   43.7040 C   0  0  1  0  0  0  0  0  0  0  0  0
   55.7310   29.7440   43.6930 C   0  0  0  0  0  0  0  0  0  0  0  0
   56.9170   30.4330   43.0180 C   0  0  1  0  0  0  0  0  0  0  0  0
   57.4860   31.6790   43.7320 C   0  0  0  0  0  0  0  0  0  0  0  0
   56.6470   32.0850   44.8720 N   0  0  0  0  0  0  0  0  0  0  0  0
   57.0180   33.3890   45.4440 C   0  0  0  0  0  0  0  0  0  0  0  0
   58.4350   33.4130   45.9620 C   0  0  0  0  0  0  0  0  0  0  0  0
   58.9980   32.2650   46.5450 C   0  0  0  0  0  0  0  0  0  0  0  0
   60.3180   32.2830   47.0060 C   0  0  0  0  0  0  0  0  0  0  0  0
   61.0820   33.4490   46.9000 C   0  0  0  0  0  0  0  0  0  0  0  0
   62.8870   33.4700   47.5260 Br  0  0  0  0  0  0  0  0  0  0  0  0
   60.5240   34.6010   46.3360 C   0  0  0  0  0  0  0  0  0  0  0  0
   59.2070   34.5850   45.8720 C   0  0  0  0  0  0  0  0  0  0  0  0
   57.0146   29.0832   45.8673 H   0  0  0  0  0  0  0  0  0  0  0  0
   58.3267   28.0697   45.1761 H   0  0  0  0  0  0  0  0  0  0  0  0
   58.4796   29.8595   45.1761 H   0  0  0  0  0  0  0  0  0  0  0  0
   57.5271   28.1173   43.3758 H   0  0  0  0  0  0  0  0  0  0  0  0
   54.9192   29.3234   43.0814 H   0  0  0  0  0  0  0  0  0  0  0  0
   55.0017   30.0325   44.4643 H   0  0  0  0  0  0  0  0  0  0  0  0
   57.1315   30.8270   42.0136 H   0  0  0  0  0  0  0  0  0  0  0  0
   58.4975   31.4491   44.0980 H   0  0  0  0  0  0  0  0  0  0  0  0
   57.5068   32.5082   43.0095 H   0  0  0  0  0  0  0  0  0  0  0  0
   56.6280   31.3460   45.6140 H   0  0  0  0  0  0  0  0  0  0  0  0
   56.9148   34.1580   44.6643 H   0  0  0  0  0  0  0  0  0  0  0  0
   56.3486   33.5822   46.2952 H   0  0  0  0  0  0  0  0  0  0  0  0
   58.3976   31.3481   46.6391 H   0  0  0  0  0  0  0  0  0  0  0  0
   60.7560   31.3783   47.4528 H   0  0  0  0  0  0  0  0  0  0  0  0
   61.1231   35.5202   46.2579 H   0  0  0  0  0  0  0  0  0  0  0  0
   58.7708   35.4946   45.4335 H   0  0  0  0  0  0  0  0  0  0  0  0
  1  2  1  0
  2  3  1  0
  3  4  1  0
  4  5  1  0
  5  6  1  0
  6  7  1  0
  7  8  1  0
  8  9  2  0
  9 10  1  0
 10 11  2  0
 11 12  1  0
 11 13  1  0
 13 14  2  0
  4  2  1  0
 14  8  1  0
  1 15  1  0
  1 16  1  0
  1 17  1  0
  2 18  1  6
  3 19  1  0
  3 20  1  0
  4 21  1  6
  5 22  1  0
  5 23  1  0
  6 24  1  0
  7 25  1  0
  7 26  1  0
  9 27  1  0
 10 28  1  0
 13 29  1  0
 14 30  1  0
M  END
>  <UniqueID>  (26) 
25

>  <SMILES>  (26) 
C[C@H]1C[C@H]1CNCc1ccc(Br)cc1

>  <Energy>  (26) 
295.91524486530267

>  <Genealogy>  (26) 
C[C@H]1C[C@H]1CNCc1ccc(Br)cc1 (chirality)
C[C@H]1C[C@H]1CNCc1ccc(Br)cc1 (3D coordinates assigned)
C[C@H]1C[C@H]1CNCc1ccc(Br)cc1 (nonaromatic ring conformer: 295.91524486530267 kcal/mol)

>  <smiles>  (26) 
CC1CC1CNCc1ccc(Br)cc1

>  <score_type>  (26) 
oracle

>  <origin>  (26) 
adg

>  <m_score__min__energy>  (26) 
-6.4800000000000004

>  <m_primary>  (26) 
energy

$$$$
26:0
     RDKit          3D

 36 38  0  0  0  0  0  0  0  0999 V2000
   55.4940   29.7230   43.7000 C   0  0  0  0  0  0  0  0  0  0  0  0
   56.9870   29.8580   43.4030 C   0  0  0  0  0  0  0  0  0  0  0  0
   57.6800   30.5610   44.5050 N   0  0  0  0  0  0  0  0  0  0  0  0
   58.1380   29.8830   45.6200 C   0  0  0  0  0  0  0  0  0  0  0  0
   57.8980   28.4320   45.8340 C   0  0  0  0  0  0  0  0  0  0  0  0
   58.8640   27.4870   46.1320 C   0  0  0  0  0  0  0  0  0  0  0  0
   58.1930   26.2920   46.2640 C   0  0  0  0  0  0  0  0  0  0  0  0
   56.8620   26.5750   46.0430 C   0  0  0  0  0  0  0  0  0  0  0  0
   56.7180   27.8550   45.7930 O   0  0  0  0  0  0  0  0  0  0  0  0
   58.8480   30.5760   46.6130 C   0  0  0  0  0  0  0  0  0  0  0  0
   59.0860   31.9460   46.4890 C   0  0  0  0  0  0  0  0  0  0  0  0
   59.7830   32.6630   47.4750 O   0  0  0  0  0  0  0  0  0  0  0  0
   61.1780   32.7870   47.5580 C   0  0  0  0  0  0  0  0  0  0  0  0
   61.8230   33.7010   46.7150 C   0  0  0  0  0  0  0  0  0  0  0  0
   63.2140   33.8430   46.7590 C   0  0  0  0  0  0  0  0  0  0  0  0
   63.9700   33.0630   47.6380 C   0  0  0  0  0  0  0  0  0  0  0  0
   63.3370   32.1340   48.4680 C   0  0  0  0  0  0  0  0  0  0  0  0
   61.9480   31.9890   48.4270 C   0  0  0  0  0  0  0  0  0  0  0  0
   58.5740   32.6260   45.3860 C   0  0  0  0  0  0  0  0  0  0  0  0
   58.8470   34.5190   45.2190 Br  0  0  0  0  0  0  0  0  0  0  0  0
   57.8740   31.9210   44.3990 C   0  0  0  0  0  0  0  0  0  0  0  0
   57.4260   32.5560   43.4030 O   0  0  0  0  0  0  0  0  0  0  0  0
   55.3365   29.7088   44.7886 H   0  0  0  0  0  0  0  0  0  0  0  0
   54.9545   30.5760   43.2626 H   0  0  0  0  0  0  0  0  0  0  0  0
   55.1163   28.7870   43.2626 H   0  0  0  0  0  0  0  0  0  0  0  0
   57.4232   28.8552   43.2841 H   0  0  0  0  0  0  0  0  0  0  0  0
   57.1115   30.4415   42.4789 H   0  0  0  0  0  0  0  0  0  0  0  0
   59.9455   27.6558   46.2410 H   0  0  0  0  0  0  0  0  0  0  0  0
   58.6304   25.3103   46.4983 H   0  0  0  0  0  0  0  0  0  0  0  0
   56.0447   25.8394   46.0719 H   0  0  0  0  0  0  0  0  0  0  0  0
   59.2198   30.0353   47.4958 H   0  0  0  0  0  0  0  0  0  0  0  0
   61.2327   34.3103   46.0148 H   0  0  0  0  0  0  0  0  0  0  0  0
   63.7132   34.5695   46.1009 H   0  0  0  0  0  0  0  0  0  0  0  0
   65.0631   33.1802   47.6766 H   0  0  0  0  0  0  0  0  0  0  0  0
   63.9334   31.5157   49.1550 H   0  0  0  0  0  0  0  0  0  0  0  0
   61.4543   31.2498   49.0749 H   0  0  0  0  0  0  0  0  0  0  0  0
  1  2  1  0
  2  3  1  0
  3  4  1  0
  4  5  1  0
  5  6  2  0
  6  7  1  0
  7  8  2  0
  8  9  1  0
  4 10  2  0
 10 11  1  0
 11 12  1  0
 12 13  1  0
 13 14  2  0
 14 15  1  0
 15 16  2  0
 16 17  1  0
 17 18  2  0
 11 19  2  0
 19 20  1  0
 19 21  1  0
 21 22  2  0
 21  3  1  0
  9  5  1  0
 18 13  1  0
  1 23  1  0
  1 24  1  0
  1 25  1  0
  2 26  1  0
  2 27  1  0
  6 28  1  0
  7 29  1  0
  8 30  1  0
 10 31  1  0
 14 32  1  0
 15 33  1  0
 16 34  1  0
 17 35  1  0
 18 36  1  0
M  END
>  <UniqueID>  (27) 
26

>  <SMILES>  (27) 
CCn1c(-c2ccco2)cc(Oc2ccccc2)c(Br)c1=O

>  <Energy>  (27) 
78.47612788422512

>  <Genealogy>  (27) 
CCn1c(-c2ccco2)cc(Oc2ccccc2)c(Br)c1=O (3D coordinates assigned)
CCn1c(-c2ccco2)cc(Oc2ccccc2)c(Br)c1=O (optimized conformer: 78.47612788422512 kcal/mol)

>  <smiles>  (27) 
CCn1c(-c2ccco2)cc(Oc2ccccc2)c(Br)c1=O

>  <score_type>  (27) 
oracle

>  <origin>  (27) 
adg

>  <m_score__min__energy>  (27) 
-7.21

>  <m_primary>  (27) 
energy

$$$$
27:0
     RDKit          3D

 52 55  0  0  0  0  0  0  0  0999 V2000
   61.4960   26.7190   51.3070 C   0  0  0  0  0  0  0  0  0  0  0  0
   61.1810   26.3440   49.9700 O   0  0  0  0  0  0  0  0  0  0  0  0
   60.5200   27.1730   49.0510 C   0  0  0  0  0  0  0  0  0  0  0  0
   60.0430   28.4490   49.3960 C   0  0  0  0  0  0  0  0  0  0  0  0
   59.3890   29.2390   48.4450 C   0  0  0  0  0  0  0  0  0  0  0  0
   59.1980   28.7690   47.1350 C   0  0  0  0  0  0  0  0  0  0  0  0
   58.5030   29.5840   46.1100 C   0  0  0  0  0  0  0  0  0  0  0  0
   58.8710   30.8280   45.7220 N   0  0  0  0  0  0  0  0  0  0  0  0
   57.9660   31.1750   44.7900 C   0  0  0  0  0  0  0  0  0  0  0  0
   57.9260   32.5030   44.0930 C   0  0  0  0  0  0  0  0  0  0  0  0
   57.4510   33.5510   45.0210 N   0  0  0  0  0  0  0  0  0  0  0  0
   58.2080   34.8090   44.8700 C   0  0  0  0  0  0  0  0  0  0  0  0
   59.6760   34.6310   45.2780 C   0  0  0  0  0  0  0  0  0  0  0  0
   59.7970   33.8030   46.4860 N   0  0  0  0  0  0  0  0  0  0  0  0
   61.1140   33.4120   46.9310 C   0  0  0  0  0  0  0  0  0  0  0  0
   62.1320   33.8160   46.3010 O   0  0  0  0  0  0  0  0  0  0  0  0
   61.3080   32.4780   48.0980 C   0  0  0  0  0  0  0  0  0  0  0  0
   62.1010   31.2080   47.8120 C   0  0  0  0  0  0  0  0  0  0  0  0
   62.7510   32.3510   48.5680 C   0  0  0  0  0  0  0  0  0  0  0  0
   58.5940   33.5560   47.2980 C   0  0  0  0  0  0  0  0  0  0  0  0
   57.4090   33.0830   46.4290 C   0  0  0  0  0  0  0  0  0  0  0  0
   57.0740   30.1310   44.6440 C   0  0  0  0  0  0  0  0  0  0  0  0
   55.8910   30.0760   43.7360 C   0  0  0  0  0  0  0  0  0  0  0  0
   57.4300   29.1700   45.4640 O   0  0  0  0  0  0  0  0  0  0  0  0
   59.6760   27.4910   46.7980 C   0  0  0  0  0  0  0  0  0  0  0  0
   60.3310   26.7040   47.7490 C   0  0  0  0  0  0  0  0  0  0  0  0
   60.9508   26.0699   52.0080 H   0  0  0  0  0  0  0  0  0  0  0  0
   62.5780   26.6107   51.4729 H   0  0  0  0  0  0  0  0  0  0  0  0
   61.2026   27.7661   51.4729 H   0  0  0  0  0  0  0  0  0  0  0  0
   60.1846   28.8283   50.4188 H   0  0  0  0  0  0  0  0  0  0  0  0
   59.0210   30.2370   48.7253 H   0  0  0  0  0  0  0  0  0  0  0  0
   59.6720   31.4110   46.0570 H   0  0  0  0  0  0  0  0  0  0  0  0
   58.9361   32.7595   43.7412 H   0  0  0  0  0  0  0  0  0  0  0  0
   57.2362   32.4399   43.2385 H   0  0  0  0  0  0  0  0  0  0  0  0
   58.1650   35.1286   43.8183 H   0  0  0  0  0  0  0  0  0  0  0  0
   57.7554   35.5665   45.5268 H   0  0  0  0  0  0  0  0  0  0  0  0
   60.2206   34.1456   44.4547 H   0  0  0  0  0  0  0  0  0  0  0  0
   60.0998   35.6231   45.4928 H   0  0  0  0  0  0  0  0  0  0  0  0
   60.3384   32.6930   48.5710 H   0  0  0  0  0  0  0  0  0  0  0  0
   61.8509   30.2739   48.3364 H   0  0  0  0  0  0  0  0  0  0  0  0
   62.3493   30.6340   46.9071 H   0  0  0  0  0  0  0  0  0  0  0  0
   62.9723   32.2450   49.6403 H   0  0  0  0  0  0  0  0  0  0  0  0
   63.6657   32.9478   48.4374 H   0  0  0  0  0  0  0  0  0  0  0  0
   58.8205   32.7810   48.0451 H   0  0  0  0  0  0  0  0  0  0  0  0
   58.3081   34.4998   47.7853 H   0  0  0  0  0  0  0  0  0  0  0  0
   57.4037   31.9830   46.4251 H   0  0  0  0  0  0  0  0  0  0  0  0
   56.5019   33.5167   46.8752 H   0  0  0  0  0  0  0  0  0  0  0  0
   54.9700   30.0332   44.3359 H   0  0  0  0  0  0  0  0  0  0  0  0
   55.8738   30.9743   43.1014 H   0  0  0  0  0  0  0  0  0  0  0  0
   55.9572   29.1800   43.1014 H   0  0  0  0  0  0  0  0  0  0  0  0
   59.5333   27.1070   45.7771 H   0  0  0  0  0  0  0  0  0  0  0  0
   60.7010   25.7064   47.4698 H   0  0  0  0  0  0  0  0  0  0  0  0
  1  2  1  0
  2  3  1  0
  3  4  2  0
  4  5  1  0
  5  6  2  0
  6  7  1  0
  7  8  2  0
  8  9  1  0
  9 10  1  0
 10 11  1  0
 11 12  1  0
 12 13  1  0
 13 14  1  0
 14 15  1  0
 15 16  2  0
 15 17  1  0
 17 18  1  0
 18 19  1  0
 14 20  1  0
 20 21  1  0
  9 22  2  0
 22 23  1  0
 22 24  1  0
  6 25  1  0
 25 26  2  0
 26  3  1  0
 24  7  1  0
 21 11  1  0
 19 17  1  0
  1 27  1  0
  1 28  1  0
  1 29  1  0
  4 30  1  0
  5 31  1  0
  8 32  1  0
 10 33  1  0
 10 34  1  0
 12 35  1  0
 12 36  1  0
 13 37  1  0
 13 38  1  0
 17 39  1  0
 18 40  1  0
 18 41  1  0
 19 42  1  0
 19 43  1  0
 20 44  1  0
 20 45  1  0
 21 46  1  0
 21 47  1  0
 23 48  1  0
 23 49  1  0
 23 50  1  0
 25 51  1  0
 26 52  1  0
M  CHG  1   8   1
M  END
>  <UniqueID>  (28) 
27

>  <SMILES>  (28) 
COc1ccc(-c2[nH+]c(CN3CCN(C(=O)C4CC4)CC3)c(C)o2)cc1

>  <Energy>  (28) 
354.81367267375674

>  <Genealogy>  (28) 
COc1ccc(-c2[nH+]c(CN3CCN(C(=O)C4CC4)CC3)c(C)o2)cc1 (protonated)
COc1ccc(-c2[nH+]c(CN3CCN(C(=O)C4CC4)CC3)c(C)o2)cc1 (3D coordinates assigned)
COc1ccc(-c2[nH+]c(CN3CCN(C(=O)C4CC4)CC3)c(C)o2)cc1 (nonaromatic ring conformer: 354.81367267375674 kcal/mol)

>  <smiles>  (28) 
COc1ccc(-c2nc(CN3CCN(C(=O)C4CC4)CC3)c(C)o2)cc1

>  <score_type>  (28) 
oracle

>  <origin>  (28) 
adg

>  <m_score__min__energy>  (28) 
-6.2699999999999996

>  <m_primary>  (28) 
energy

$$$$
28:0
     RDKit          3D

 37 37  0  0  0  0  0  0  0  0999 V2000
   64.0700   32.4290   48.9140 C   0  0  0  0  0  0  0  0  0  0  0  0
   63.1190   31.8770   47.8450 C   0  0  0  0  0  0  0  0  0  0  0  0
   62.3890   32.9520   47.1220 N   0  0  2  0  0  0  0  0  0  0  0  0
   63.3390   33.8410   46.4240 C   0  0  0  0  0  0  0  0  0  0  0  0
   61.5620   33.7540   48.0620 C   0  0  0  0  0  0  0  0  0  0  0  0
   60.2490   34.2270   47.4240 C   0  0  0  0  0  0  0  0  0  0  0  0
   60.2540   33.8990   46.0380 O   0  0  0  0  0  0  0  0  0  0  0  0
   59.3220   34.4180   45.1370 C   0  0  0  0  0  0  0  0  0  0  0  0
   59.2700   35.6570   44.9070 O   0  0  0  0  0  0  0  0  0  0  0  0
   58.3640   33.4950   44.4570 C   0  0  0  0  0  0  0  0  0  0  0  0
   57.3990   32.5430   45.6810 S   0  0  0  0  0  0  0  0  0  0  0  0
   58.3460   31.0230   45.4930 C   0  0  0  0  0  0  0  0  0  0  0  0
   59.5350   30.8680   46.2210 C   0  0  0  0  0  0  0  0  0  0  0  0
   60.2940   29.7030   46.0910 C   0  0  0  0  0  0  0  0  0  0  0  0
   59.8680   28.6810   45.2410 C   0  0  0  0  0  0  0  0  0  0  0  0
   58.6750   28.8190   44.5240 C   0  0  0  0  0  0  0  0  0  0  0  0
   57.9070   29.9830   44.6490 C   0  0  0  0  0  0  0  0  0  0  0  0
   56.2550   30.0920   43.6810 Br  0  0  0  0  0  0  0  0  0  0  0  0
   63.6721   32.1981   49.9132 H   0  0  0  0  0  0  0  0  0  0  0  0
   65.0609   31.9657   48.7978 H   0  0  0  0  0  0  0  0  0  0  0  0
   64.1591   33.5192   48.7978 H   0  0  0  0  0  0  0  0  0  0  0  0
   63.7053   31.2974   47.1167 H   0  0  0  0  0  0  0  0  0  0  0  0
   62.3721   31.2499   48.3539 H   0  0  0  0  0  0  0  0  0  0  0  0
   61.7640   32.5280   46.3960 H   0  0  0  0  0  0  0  0  0  0  0  0
   63.9329   34.3968   47.1645 H   0  0  0  0  0  0  0  0  0  0  0  0
   64.0096   33.2385   45.7937 H   0  0  0  0  0  0  0  0  0  0  0  0
   62.7823   34.5501   45.7937 H   0  0  0  0  0  0  0  0  0  0  0  0
   61.3258   33.1362   48.9409 H   0  0  0  0  0  0  0  0  0  0  0  0
   62.1408   34.6465   48.3422 H   0  0  0  0  0  0  0  0  0  0  0  0
   59.4009   33.7288   47.9164 H   0  0  0  0  0  0  0  0  0  0  0  0
   60.1522   35.3161   47.5445 H   0  0  0  0  0  0  0  0  0  0  0  0
   57.6750   34.0851   43.8349 H   0  0  0  0  0  0  0  0  0  0  0  0
   58.9353   32.7908   43.8343 H   0  0  0  0  0  0  0  0  0  0  0  0
   59.8711   31.6678   46.8974 H   0  0  0  0  0  0  0  0  0  0  0  0
   61.2291   29.5905   46.6593 H   0  0  0  0  0  0  0  0  0  0  0  0
   60.4706   27.7669   45.1350 H   0  0  0  0  0  0  0  0  0  0  0  0
   58.3388   28.0097   43.8592 H   0  0  0  0  0  0  0  0  0  0  0  0
  1  2  1  0
  2  3  1  0
  3  4  1  0
  3  5  1  0
  5  6  1  0
  6  7  1  0
  7  8  1  0
  8  9  2  0
  8 10  1  0
 10 11  1  0
 11 12  1  0
 12 13  2  0
 13 14  1  0
 14 15  2  0
 15 16  1  0
 16 17  2  0
 17 18  1  0
 17 12  1  0
  1 19  1  0
  1 20  1  0
  1 21  1  0
  2 22  1  0
  2 23  1  0
  3 24  1  6
  4 25  1  0
  4 26  1  0
  4 27  1  0
  5 28  1  0
  5 29  1  0
  6 30  1  0
  6 31  1  0
 10 32  1  0
 10 33  1  0
 13 34  1  0
 14 35  1  0
 15 36  1  0
 16 37  1  0
M  CHG  1   3   1
M  END
>  <UniqueID>  (29) 
28

>  <SMILES>  (29) 
CC[N@H+](C)CCOC(=O)CSc1ccccc1Br

>  <Energy>  (29) 
28.00011521018511

>  <Genealogy>  (29) 
CC[NH+](C)CCOC(=O)CSc1ccccc1Br (protonated)
CC[N@H+](C)CCOC(=O)CSc1ccccc1Br (chirality)
CC[N@H+](C)CCOC(=O)CSc1ccccc1Br (3D coordinates assigned)
CC[N@H+](C)CCOC(=O)CSc1ccccc1Br (optimized conformer: 28.00011521018511 kcal/mol)

>  <smiles>  (29) 
CCN(C)CCOC(=O)CSc1ccccc1Br

>  <score_type>  (29) 
oracle

>  <origin>  (29) 
adg

>  <m_score__min__energy>  (29) 
-4.6399999999999997

>  <m_primary>  (29) 
energy

$$$$
29:0
     RDKit          3D

 38 39  0  0  0  0  0  0  0  0999 V2000
   63.6830   33.1130   47.1070 C   0  0  0  0  0  0  0  0  0  0  0  0
   63.3970   31.9420   48.0430 C   0  0  0  0  0  0  0  0  0  0  0  0
   62.0630   32.0590   48.6530 N   0  0  0  0  0  0  0  0  0  0  0  0
   61.5850   30.7980   49.2480 C   0  0  0  0  0  0  0  0  0  0  0  0
   60.5700   30.1030   48.3210 C   0  0  0  0  0  0  0  0  0  0  0  0
   60.7720   30.4240   46.8940 N   0  0  0  0  0  0  0  0  0  0  0  0
   59.5930   31.0060   46.2920 C   0  0  0  0  0  0  0  0  0  0  0  0
   58.5400   30.1730   45.8680 C   0  0  0  0  0  0  0  0  0  0  0  0
   57.3990   30.7090   45.2420 C   0  0  0  0  0  0  0  0  0  0  0  0
   56.3410   29.9050   44.7920 O   0  0  0  0  0  0  0  0  0  0  0  0
   56.0040   29.7100   43.4230 C   0  0  0  0  0  0  0  0  0  0  0  0
   57.3050   32.0910   45.0520 C   0  0  0  0  0  0  0  0  0  0  0  0
   58.3340   32.9400   45.4780 C   0  0  0  0  0  0  0  0  0  0  0  0
   58.2480   34.3260   45.2930 C   0  0  0  0  0  0  0  0  0  0  0  0
   59.2860   35.1510   45.7270 C   0  0  0  0  0  0  0  0  0  0  0  0
   60.4010   34.5830   46.3430 C   0  0  0  0  0  0  0  0  0  0  0  0
   60.4740   33.2370   46.5170 N   0  0  0  0  0  0  0  0  0  0  0  0
   59.4820   32.4010   46.1030 C   0  0  0  0  0  0  0  0  0  0  0  0
   63.9026   34.0122   47.7013 H   0  0  0  0  0  0  0  0  0  0  0  0
   64.5488   32.8723   46.4725 H   0  0  0  0  0  0  0  0  0  0  0  0
   62.8038   33.2985   46.4725 H   0  0  0  0  0  0  0  0  0  0  0  0
   63.4481   31.0044   47.4700 H   0  0  0  0  0  0  0  0  0  0  0  0
   64.1481   31.9482   48.8466 H   0  0  0  0  0  0  0  0  0  0  0  0
   61.3990   32.3290   47.8900 H   0  0  0  0  0  0  0  0  0  0  0  0
   62.4425   30.1283   49.4097 H   0  0  0  0  0  0  0  0  0  0  0  0
   61.0899   31.0257   50.2035 H   0  0  0  0  0  0  0  0  0  0  0  0
   60.6650   29.0149   48.4516 H   0  0  0  0  0  0  0  0  0  0  0  0
   59.5699   30.4664   48.5998 H   0  0  0  0  0  0  0  0  0  0  0  0
   61.0100   29.5420   46.3840 H   0  0  0  0  0  0  0  0  0  0  0  0
   61.5980   31.0590   46.7890 H   0  0  0  0  0  0  0  0  0  0  0  0
   58.6101   29.0870   46.0284 H   0  0  0  0  0  0  0  0  0  0  0  0
   55.0538   29.1602   43.3540 H   0  0  0  0  0  0  0  0  0  0  0  0
   55.8991   30.6869   42.9285 H   0  0  0  0  0  0  0  0  0  0  0  0
   56.7987   29.1322   42.9285 H   0  0  0  0  0  0  0  0  0  0  0  0
   56.4152   32.5150   44.5637 H   0  0  0  0  0  0  0  0  0  0  0  0
   57.3636   34.7631   44.8064 H   0  0  0  0  0  0  0  0  0  0  0  0
   59.2256   36.2401   45.5846 H   0  0  0  0  0  0  0  0  0  0  0  0
   61.2236   35.2262   46.6890 H   0  0  0  0  0  0  0  0  0  0  0  0
  1  2  1  0
  2  3  1  0
  3  4  1  0
  4  5  1  0
  5  6  1  0
  6  7  1  0
  7  8  2  0
  8  9  1  0
  9 10  1  0
 10 11  1  0
  9 12  2  0
 12 13  1  0
 13 14  2  0
 14 15  1  0
 15 16  2  0
 16 17  1  0
 17 18  2  0
 18  7  1  0
 18 13  1  0
  1 19  1  0
  1 20  1  0
  1 21  1  0
  2 22  1  0
  2 23  1  0
  3 24  1  0
  4 25  1  0
  4 26  1  0
  5 27  1  0
  5 28  1  0
  6 29  1  0
  6 30  1  0
  8 31  1  0
 11 32  1  0
 11 33  1  0
 11 34  1  0
 12 35  1  0
 14 36  1  0
 15 37  1  0
 16 38  1  0
M  CHG  1   6   1
M  END
>  <UniqueID>  (30) 
29

>  <SMILES>  (30) 
CCNCC[NH2+]c1cc(OC)cc2cccnc12

>  <Energy>  (30) 
39.426777015979354

>  <Genealogy>  (30) 
CCNCC[NH2+]c1cc(OC)cc2cccnc12 (protonated)
CCNCC[NH2+]c1cc(OC)cc2cccnc12 (3D coordinates assigned)
CCNCC[NH2+]c1cc(OC)cc2cccnc12 (optimized conformer: 39.426777015979354 kcal/mol)

>  <smiles>  (30) 
CCNCCNc1cc(OC)cc2cccnc12

>  <score_type>  (30) 
oracle

>  <origin>  (30) 
adg

>  <m_score__min__energy>  (30) 
-4.3600000000000003

>  <m_primary>  (30) 
energy

$$$$
30:0
     RDKit          3D

 63 66  0  0  0  0  0  0  0  0999 V2000
   53.1460   27.2480   53.5610 C   0  0  0  0  0  0  0  0  0  0  0  0
   52.9370   28.5820   52.8290 C   0  0  0  0  0  0  0  0  0  0  0  0
   54.2060   29.3180   52.5930 N   0  0  0  0  0  0  0  0  0  0  0  0
   54.0000   30.7470   52.2170 C   0  0  0  0  0  0  0  0  0  0  0  0
   52.8450   31.0060   51.2380 C   0  0  0  0  0  0  0  0  0  0  0  0
   55.1170   29.1510   53.7590 C   0  0  0  0  0  0  0  0  0  0  0  0
   56.6140   29.0460   53.3930 C   0  0  0  0  0  0  0  0  0  0  0  0
   56.8420   29.3660   52.0180 O   0  0  0  0  0  0  0  0  0  0  0  0
   57.5930   30.4510   51.5380 C   0  0  0  0  0  0  0  0  0  0  0  0
   57.5210   31.7360   52.1050 C   0  0  0  0  0  0  0  0  0  0  0  0
   58.2270   32.7980   51.5360 C   0  0  0  0  0  0  0  0  0  0  0  0
   59.0190   32.5960   50.3920 C   0  0  0  0  0  0  0  0  0  0  0  0
   59.7060   33.7350   49.7360 C   0  0  0  0  0  0  0  0  0  0  0  0
   59.2690   34.9060   49.9050 O   0  0  0  0  0  0  0  0  0  0  0  0
   60.8910   33.5340   48.8730 C   0  0  0  0  0  0  0  0  0  0  0  0
   60.8410   33.5400   47.4660 C   0  0  0  0  0  0  0  0  0  0  0  0
   59.6370   33.6370   46.6140 C   0  0  0  0  0  0  0  0  0  0  0  0
   59.5100   34.6930   45.6940 C   0  0  0  0  0  0  0  0  0  0  0  0
   58.3800   34.7830   44.8740 C   0  0  0  0  0  0  0  0  0  0  0  0
   57.3770   33.8150   44.9570 C   0  0  0  0  0  0  0  0  0  0  0  0
   57.5000   32.7550   45.8580 C   0  0  0  0  0  0  0  0  0  0  0  0
   58.6270   32.6610   46.6800 C   0  0  0  0  0  0  0  0  0  0  0  0
   62.4080   33.3390   46.8580 S   0  0  0  0  0  0  0  0  0  0  0  0
   63.1540   33.2450   48.3540 C   0  0  0  0  0  0  0  0  0  0  0  0
   64.5100   33.0780   48.6220 C   0  0  0  0  0  0  0  0  0  0  0  0
   64.9370   33.0520   49.9580 C   0  0  0  0  0  0  0  0  0  0  0  0
   66.3040   32.8670   50.2160 O   0  0  0  0  0  0  0  0  0  0  0  0
   66.8520   31.7170   50.8500 C   0  0  0  0  0  0  0  0  0  0  0  0
   63.9850   33.2150   50.9950 C   0  0  0  0  0  0  0  0  0  0  0  0
   62.6250   33.3850   50.7000 C   0  0  0  0  0  0  0  0  0  0  0  0
   62.2090   33.3790   49.3610 C   0  0  0  0  0  0  0  0  0  0  0  0
   59.1420   31.2990   49.8710 C   0  0  0  0  0  0  0  0  0  0  0  0
   58.4360   30.2360   50.4430 C   0  0  0  0  0  0  0  0  0  0  0  0
   53.1194   27.4178   54.6475 H   0  0  0  0  0  0  0  0  0  0  0  0
   52.3468   26.5464   53.2799 H   0  0  0  0  0  0  0  0  0  0  0  0
   54.1215   26.8244   53.2799 H   0  0  0  0  0  0  0  0  0  0  0  0
   52.4635   28.3785   51.8572 H   0  0  0  0  0  0  0  0  0  0  0  0
   52.3036   29.2137   53.4692 H   0  0  0  0  0  0  0  0  0  0  0  0
   54.6540   28.8490   51.7730 H   0  0  0  0  0  0  0  0  0  0  0  0
   53.8000   31.3155   53.1372 H   0  0  0  0  0  0  0  0  0  0  0  0
   54.9170   31.0609   51.6969 H   0  0  0  0  0  0  0  0  0  0  0  0
   51.9243   31.2125   51.8035 H   0  0  0  0  0  0  0  0  0  0  0  0
   53.0883   31.8719   50.6047 H   0  0  0  0  0  0  0  0  0  0  0  0
   52.6953   30.1191   50.6047 H   0  0  0  0  0  0  0  0  0  0  0  0
   54.9860   30.0173   54.4241 H   0  0  0  0  0  0  0  0  0  0  0  0
   54.8439   28.1977   54.2351 H   0  0  0  0  0  0  0  0  0  0  0  0
   57.1854   29.7446   54.0219 H   0  0  0  0  0  0  0  0  0  0  0  0
   56.9388   28.0090   53.5640 H   0  0  0  0  0  0  0  0  0  0  0  0
   56.9057   31.9053   53.0009 H   0  0  0  0  0  0  0  0  0  0  0  0
   58.1630   33.7997   51.9860 H   0  0  0  0  0  0  0  0  0  0  0  0
   60.3028   35.4518   45.6187 H   0  0  0  0  0  0  0  0  0  0  0  0
   58.2816   35.6169   44.1634 H   0  0  0  0  0  0  0  0  0  0  0  0
   56.4889   33.8874   44.3119 H   0  0  0  0  0  0  0  0  0  0  0  0
   56.7091   31.9931   45.9210 H   0  0  0  0  0  0  0  0  0  0  0  0
   58.7240   31.8195   47.3817 H   0  0  0  0  0  0  0  0  0  0  0  0
   65.2336   32.9684   47.8008 H   0  0  0  0  0  0  0  0  0  0  0  0
   66.7944   31.8378   51.9418 H   0  0  0  0  0  0  0  0  0  0  0  0
   66.2818   30.8257   50.5491 H   0  0  0  0  0  0  0  0  0  0  0  0
   67.9034   31.5985   50.5491 H   0  0  0  0  0  0  0  0  0  0  0  0
   64.3170   33.2081   52.0437 H   0  0  0  0  0  0  0  0  0  0  0  0
   61.8929   33.5215   51.5095 H   0  0  0  0  0  0  0  0  0  0  0  0
   59.7980   31.1172   49.0070 H   0  0  0  0  0  0  0  0  0  0  0  0
   58.5446   29.2229   50.0285 H   0  0  0  0  0  0  0  0  0  0  0  0
  1  2  1  0
  2  3  1  0
  3  4  1  0
  4  5  1  0
  3  6  1  0
  6  7  1  0
  7  8  1  0
  8  9  1  0
  9 10  2  0
 10 11  1  0
 11 12  2  0
 12 13  1  0
 13 14  2  0
 13 15  1  0
 15 16  2  0
 16 17  1  0
 17 18  2  0
 18 19  1  0
 19 20  2  0
 20 21  1  0
 21 22  2  0
 16 23  1  0
 23 24  1  0
 24 25  2  0
 25 26  1  0
 26 27  1  0
 27 28  1  0
 26 29  2  0
 29 30  1  0
 30 31  2  0
 12 32  1  0
 32 33  2  0
 33  9  1  0
 31 15  1  0
 22 17  1  0
 31 24  1  0
  1 34  1  0
  1 35  1  0
  1 36  1  0
  2 37  1  0
  2 38  1  0
  3 39  1  0
  4 40  1  0
  4 41  1  0
  5 42  1  0
  5 43  1  0
  5 44  1  0
  6 45  1  0
  6 46  1  0
  7 47  1  0
  7 48  1  0
 10 49  1  0
 11 50  1  0
 18 51  1  0
 19 52  1  0
 20 53  1  0
 21 54  1  0
 22 55  1  0
 25 56  1  0
 28 57  1  0
 28 58  1  0
 28 59  1  0
 29 60  1  0
 30 61  1  0
 32 62  1  0
 33 63  1  0
M  CHG  1   3   1
M  END
>  <UniqueID>  (31) 
30

>  <SMILES>  (31) 
CC[NH+](CC)CCOc1ccc(C(=O)c2c(-c3ccccc3)sc3cc(OC)ccc23)cc1

>  <Energy>  (31) 
112.52232331767799

>  <Genealogy>  (31) 
CC[NH+](CC)CCOc1ccc(C(=O)c2c(-c3ccccc3)sc3cc(OC)ccc23)cc1 (protonated)
CC[NH+](CC)CCOc1ccc(C(=O)c2c(-c3ccccc3)sc3cc(OC)ccc23)cc1 (3D coordinates assigned)
CC[NH+](CC)CCOc1ccc(C(=O)c2c(-c3ccccc3)sc3cc(OC)ccc23)cc1 (optimized conformer: 112.52232331767799 kcal/mol)

>  <smiles>  (31) 
CCN(CC)CCOc1ccc(C(=O)c2c(-c3ccccc3)sc3cc(OC)ccc23)cc1

>  <score_type>  (31) 
oracle

>  <origin>  (31) 
adg

>  <m_score__min__energy>  (31) 
-7.3600000000000003

>  <m_primary>  (31) 
energy

$$$$
31:0
     RDKit          3D

 71 74  0  0  0  0  0  0  0  0999 V2000
   61.0080   33.7460   51.3880 C   0  0  0  0  0  0  0  0  0  0  0  0
   60.8600   33.3890   52.8770 C   0  0  0  0  0  0  0  0  0  0  0  0
   59.4590   33.1610   53.2990 N   0  0  0  0  0  0  0  0  0  0  0  0
   59.1710   33.6940   54.6540 C   0  0  0  0  0  0  0  0  0  0  0  0
   59.2490   35.2140   54.6280 C   0  0  0  0  0  0  0  0  0  0  0  0
   58.4790   33.5950   52.2790 C   0  0  0  0  0  0  0  0  0  0  0  0
   57.9180   32.3920   51.5200 C   0  0  0  0  0  0  0  0  0  0  0  0
   58.9980   31.6200   51.0110 O   0  0  0  0  0  0  0  0  0  0  0  0
   58.8170   30.4800   50.2180 C   0  0  0  0  0  0  0  0  0  0  0  0
   58.1290   29.5180   50.6560 O   0  0  0  0  0  0  0  0  0  0  0  0
   59.4120   30.4440   48.8520 C   0  0  0  0  0  0  0  0  0  0  0  0
   58.5440   30.2970   47.7570 C   0  0  0  0  0  0  0  0  0  0  0  0
   59.0360   30.2060   46.4520 C   0  0  0  0  0  0  0  0  0  0  0  0
   58.1010   29.9890   45.3250 C   0  0  0  0  0  0  0  0  0  0  0  0
   57.1280   30.9190   45.1150 N   0  0  0  0  0  0  0  0  0  0  0  0
   56.2150   30.8050   44.1170 C   0  0  0  0  0  0  0  0  0  0  0  0
   56.2470   29.7030   43.2660 C   0  0  0  0  0  0  0  0  0  0  0  0
   57.2320   28.7340   43.4390 C   0  0  0  0  0  0  0  0  0  0  0  0
   58.1920   28.8720   44.4540 C   0  0  0  0  0  0  0  0  0  0  0  0
   59.2700   27.8300   44.5830 C   0  0  0  0  0  0  0  0  0  0  0  0
   60.4200   30.2340   46.2540 C   0  0  0  0  0  0  0  0  0  0  0  0
   61.2610   30.3880   47.3080 N   0  0  0  0  0  0  0  0  0  0  0  0
   60.8100   30.4990   48.5930 C   0  0  0  0  0  0  0  0  0  0  0  0
   61.8100   30.6900   49.6650 C   0  0  0  0  0  0  0  0  0  0  0  0
   61.5630   30.1490   50.9390 C   0  0  0  0  0  0  0  0  0  0  0  0
   62.4450   30.3910   51.9960 C   0  0  0  0  0  0  0  0  0  0  0  0
   63.5670   31.1970   51.7990 C   0  0  0  0  0  0  0  0  0  0  0  0
   63.8100   31.7600   50.5440 C   0  0  0  0  0  0  0  0  0  0  0  0
   62.9480   31.5070   49.4690 C   0  0  0  0  0  0  0  0  0  0  0  0
   63.2420   32.0960   48.2350 O   0  0  0  0  0  0  0  0  0  0  0  0
   62.7840   33.6970   47.8340 S   0  0  0  0  0  0  0  0  0  0  0  0
   63.6350   34.1750   46.6900 O   0  0  0  0  0  0  0  0  0  0  0  0
   63.0160   34.6010   49.0150 O   0  0  0  0  0  0  0  0  0  0  0  0
   61.0910   33.7390   47.3440 C   0  0  0  0  0  0  0  0  0  0  0  0
   60.7360   33.8680   45.9910 C   0  0  0  0  0  0  0  0  0  0  0  0
   59.3870   33.9380   45.6230 C   0  0  0  0  0  0  0  0  0  0  0  0
   58.3890   33.8730   46.6020 C   0  0  0  0  0  0  0  0  0  0  0  0
   58.7390   33.7270   47.9490 C   0  0  0  0  0  0  0  0  0  0  0  0
   60.0860   33.6580   48.3200 C   0  0  0  0  0  0  0  0  0  0  0  0
   61.4277   34.7584   51.2936 H   0  0  0  0  0  0  0  0  0  0  0  0
   61.6807   33.0235   50.9028 H   0  0  0  0  0  0  0  0  0  0  0  0
   60.0214   33.7114   50.9028 H   0  0  0  0  0  0  0  0  0  0  0  0
   61.4351   32.4720   53.0729 H   0  0  0  0  0  0  0  0  0  0  0  0
   61.2325   34.2496   53.4520 H   0  0  0  0  0  0  0  0  0  0  0  0
   58.1620   33.3838   54.9633 H   0  0  0  0  0  0  0  0  0  0  0  0
   59.9101   33.3009   55.3676 H   0  0  0  0  0  0  0  0  0  0  0  0
   59.2687   35.5978   55.6587 H   0  0  0  0  0  0  0  0  0  0  0  0
   60.1643   35.5253   54.1033 H   0  0  0  0  0  0  0  0  0  0  0  0
   58.3704   35.6173   54.1033 H   0  0  0  0  0  0  0  0  0  0  0  0
   57.6531   34.1258   52.7750 H   0  0  0  0  0  0  0  0  0  0  0  0
   58.9853   34.2593   51.5631 H   0  0  0  0  0  0  0  0  0  0  0  0
   57.3132   31.7756   52.2014 H   0  0  0  0  0  0  0  0  0  0  0  0
   57.2859   32.7390   50.6893 H   0  0  0  0  0  0  0  0  0  0  0  0
   57.4586   30.2528   47.9298 H   0  0  0  0  0  0  0  0  0  0  0  0
   55.4497   31.5832   43.9804 H   0  0  0  0  0  0  0  0  0  0  0  0
   55.5009   29.5990   42.4644 H   0  0  0  0  0  0  0  0  0  0  0  0
   57.2580   27.8559   42.7770 H   0  0  0  0  0  0  0  0  0  0  0  0
   59.4687   27.6379   45.6477 H   0  0  0  0  0  0  0  0  0  0  0  0
   58.9404   26.8994   44.0978 H   0  0  0  0  0  0  0  0  0  0  0  0
   60.1888   28.1910   44.0978 H   0  0  0  0  0  0  0  0  0  0  0  0
   60.8294   30.1306   45.2383 H   0  0  0  0  0  0  0  0  0  0  0  0
   62.2870   30.4250   47.1140 H   0  0  0  0  0  0  0  0  0  0  0  0
   60.6687   29.5305   51.1052 H   0  0  0  0  0  0  0  0  0  0  0  0
   62.2546   29.9458   52.9837 H   0  0  0  0  0  0  0  0  0  0  0  0
   64.2597   31.3889   52.6316 H   0  0  0  0  0  0  0  0  0  0  0  0
   64.6867   32.4083   50.3983 H   0  0  0  0  0  0  0  0  0  0  0  0
   61.5189   33.9141   45.2197 H   0  0  0  0  0  0  0  0  0  0  0  0
   59.1113   34.0442   44.5634 H   0  0  0  0  0  0  0  0  0  0  0  0
   57.3296   33.9367   46.3127 H   0  0  0  0  0  0  0  0  0  0  0  0
   57.9539   33.6664   48.7171 H   0  0  0  0  0  0  0  0  0  0  0  0
   60.3580   33.5400   49.3793 H   0  0  0  0  0  0  0  0  0  0  0  0
  1  2  1  0
  2  3  1  0
  3  4  1  0
  4  5  1  0
  3  6  1  0
  6  7  1  0
  7  8  1  0
  8  9  1  0
  9 10  2  0
  9 11  1  0
 11 12  2  0
 12 13  1  0
 13 14  1  0
 14 15  2  0
 15 16  1  0
 16 17  2  0
 17 18  1  0
 18 19  2  0
 19 20  1  0
 13 21  2  0
 21 22  1  0
 22 23  2  0
 23 24  1  0
 24 25  2  0
 25 26  1  0
 26 27  2  0
 27 28  1  0
 28 29  2  0
 29 30  1  0
 30 31  1  0
 31 32  2  0
 31 33  2  0
 31 34  1  0
 34 35  2  0
 35 36  1  0
 36 37  2  0
 37 38  1  0
 38 39  2  0
 23 11  1  0
 29 24  1  0
 39 34  1  0
 19 14  1  0
  1 40  1  0
  1 41  1  0
  1 42  1  0
  2 43  1  0
  2 44  1  0
  4 45  1  0
  4 46  1  0
  5 47  1  0
  5 48  1  0
  5 49  1  0
  6 50  1  0
  6 51  1  0
  7 52  1  0
  7 53  1  0
 12 54  1  0
 16 55  1  0
 17 56  1  0
 18 57  1  0
 20 58  1  0
 20 59  1  0
 20 60  1  0
 21 61  1  0
 22 62  1  0
 25 63  1  0
 26 64  1  0
 27 65  1  0
 28 66  1  0
 35 67  1  0
 36 68  1  0
 37 69  1  0
 38 70  1  0
 39 71  1  0
M  CHG  1  22   1
M  END
>  <UniqueID>  (32) 
31

>  <SMILES>  (32) 
CCN(CC)CCOC(=O)c1cc(-c2ncccc2C)c[nH+]c1-c1ccccc1OS(=O)(=O)c1ccccc1

>  <Energy>  (32) 
93.21887336736452

>  <Genealogy>  (32) 
CCN(CC)CCOC(=O)c1cc(-c2ncccc2C)c[nH+]c1-c1ccccc1OS(=O)(=O)c1ccccc1 (protonated)
CCN(CC)CCOC(=O)c1cc(-c2ncccc2C)c[nH+]c1-c1ccccc1OS(=O)(=O)c1ccccc1 (3D coordinates assigned)
CCN(CC)CCOC(=O)c1cc(-c2ncccc2C)c[nH+]c1-c1ccccc1OS(=O)(=O)c1ccccc1 (optimized conformer: 93.21887336736452 kcal/mol)

>  <smiles>  (32) 
CCN(CC)CCOC(=O)c1cc(-c2ncccc2C)cnc1-c1ccccc1OS(=O)(=O)c1ccccc1

>  <score_type>  (32) 
oracle

>  <origin>  (32) 
adg

>  <m_score__min__energy>  (32) 
-7.75

>  <m_primary>  (32) 
energy

$$$$
32:0
     RDKit          3D

 28 29  0  0  1  0  0  0  0  0999 V2000
   58.4550   28.7430   45.2380 C   0  0  0  0  0  0  0  0  0  0  0  0
   56.9770   28.5210   45.1980 C   0  0  0  0  0  0  0  0  0  0  0  0
   56.2070   29.7080   44.8760 N   0  0  0  0  0  0  0  0  0  0  0  0
   56.8350   30.7530   44.4190 C   0  0  0  0  0  0  0  0  0  0  0  0
   57.3790   31.6000   45.3100 N   0  0  0  0  0  0  0  0  0  0  0  0
   58.0380   32.6940   44.8640 C   0  0  0  0  0  0  0  0  0  0  0  0
   58.6310   33.6130   45.8430 C   0  0  0  0  0  0  0  0  0  0  0  0
   59.2710   34.7890   45.4960 C   0  0  0  0  0  0  0  0  0  0  0  0
   59.6730   35.3410   46.7060 C   0  0  0  0  0  0  0  0  0  0  0  0
   59.2630   34.4880   47.7120 C   0  0  0  0  0  0  0  0  0  0  0  0
   58.6470   33.4720   47.1610 O   0  0  0  0  0  0  0  0  0  0  0  0
   58.1290   32.9090   43.5000 C   0  0  0  0  0  0  0  0  0  0  0  0
   57.5700   32.0380   42.6110 C   0  0  0  0  0  0  0  0  0  0  0  0
   57.7090   32.3360   41.1610 C   0  0  0  0  0  0  0  0  0  0  0  0
   56.9220   30.9610   43.0770 N   0  0  0  0  0  0  0  0  0  0  0  0
   58.7900   28.7933   46.2845 H   0  0  0  0  0  0  0  0  0  0  0  0
   58.9646   27.9113   44.7294 H   0  0  0  0  0  0  0  0  0  0  0  0
   58.6978   29.6877   44.7294 H   0  0  0  0  0  0  0  0  0  0  0  0
   56.7635   27.7544   44.4385 H   0  0  0  0  0  0  0  0  0  0  0  0
   56.6756   28.2129   46.2100 H   0  0  0  0  0  0  0  0  0  0  0  0
   59.4271   35.1967   44.4863 H   0  0  0  0  0  0  0  0  0  0  0  0
   60.2191   36.2866   46.8388 H   0  0  0  0  0  0  0  0  0  0  0  0
   59.4257   34.6364   48.7897 H   0  0  0  0  0  0  0  0  0  0  0  0
   58.6607   33.7966   43.1264 H   0  0  0  0  0  0  0  0  0  0  0  0
   58.1708   33.3261   41.0328 H   0  0  0  0  0  0  0  0  0  0  0  0
   58.3435   31.5715   40.6887 H   0  0  0  0  0  0  0  0  0  0  0  0
   56.7156   32.3309   40.6887 H   0  0  0  0  0  0  0  0  0  0  0  0
   56.5010   30.3070   42.3840 H   0  0  0  0  0  0  0  0  0  0  0  0
  1  2  1  0
  2  3  1  0
  3  4  2  0
  4  5  1  0
  5  6  2  0
  6  7  1  0
  7  8  2  0
  8  9  1  0
  9 10  2  0
 10 11  1  0
  6 12  1  0
 12 13  2  0
 13 14  1  0
 13 15  1  0
 15  4  1  0
 11  7  1  0
  1 16  1  0
  1 17  1  0
  1 18  1  0
  2 19  1  0
  2 20  1  0
  8 21  1  0
  9 22  1  0
 10 23  1  0
 12 24  1  0
 14 25  1  0
 14 26  1  0
 14 27  1  0
 15 28  1  0
M  END
>  <smiles>  (33) 
CCN=c1nc(-c2ccco2)cc(C)[nH]1

>  <score_type>  (33) 
oracle

>  <origin>  (33) 
adg

>  <m_score__min__energy>  (33) 
-6.1200000000000001

>  <m_primary>  (33) 
energy

$$$$
33:0
     RDKit          3D

 68 70  0  0  0  0  0  0  0  0999 V2000
   57.0050   29.9990   43.2460 C   0  0  0  0  0  0  0  0  0  0  0  0
   57.1980   31.5210   43.2860 C   0  0  0  0  0  0  0  0  0  0  0  0
   57.7790   32.0060   41.9510 C   0  0  0  0  0  0  0  0  0  0  0  0
   58.1180   31.9640   44.4490 C   0  0  0  0  0  0  0  0  0  0  0  0
   57.3990   32.5810   45.6620 C   0  0  0  0  0  0  0  0  0  0  0  0
   57.8720   33.9870   46.1010 C   0  0  0  0  0  0  0  0  0  0  0  0
   59.4080   34.2400   46.2640 C   0  0  1  0  0  0  0  0  0  0  0  0
   59.8090   35.7020   45.9850 C   0  0  0  0  0  0  0  0  0  0  0  0
   60.0280   33.6130   47.5720 C   0  0  2  0  0  0  0  0  0  0  0  0
   60.3850   34.5690   48.7130 C   0  0  0  0  0  0  0  0  0  0  0  0
   61.3550   33.8110   49.6140 C   0  0  0  0  0  0  0  0  0  0  0  0
   61.8200   32.5530   48.8480 C   0  0  2  0  0  0  0  0  0  0  0  0
   63.3580   32.3170   48.8910 C   0  0  2  0  0  0  0  0  0  0  0  0
   63.9150   32.0050   50.3080 C   0  0  0  0  0  0  0  0  0  0  0  0
   65.4120   31.5970   50.4540 C   0  0  1  0  0  0  0  0  0  0  0  0
   66.4110   32.7370   50.2550 C   0  0  0  0  0  0  0  0  0  0  0  0
   67.5840   32.3940   51.1620 C   0  0  0  0  0  0  0  0  0  0  0  0
   67.2180   31.0660   51.8130 C   0  0  0  0  0  0  0  0  0  0  0  0
   65.7670   30.9310   51.7140 N   0  0  0  0  0  0  0  0  0  0  0  0
   64.1350   33.5020   48.2580 C   0  0  0  0  0  0  0  0  0  0  0  0
   63.3920   34.1770   47.0910 C   0  0  0  0  0  0  0  0  0  0  0  0
   62.3830   33.2380   46.4200 C   0  0  0  0  0  0  0  0  0  0  0  0
   61.2750   32.6880   47.3930 C   0  0  2  0  0  0  0  0  0  0  0  0
   60.8210   31.3010   46.8660 C   0  0  0  0  0  0  0  0  0  0  0  0
   56.9555   29.6086   44.2732 H   0  0  0  0  0  0  0  0  0  0  0  0
   56.0696   29.7618   42.7181 H   0  0  0  0  0  0  0  0  0  0  0  0
   57.8516   29.5358   42.7181 H   0  0  0  0  0  0  0  0  0  0  0  0
   56.2103   31.9750   43.4545 H   0  0  0  0  0  0  0  0  0  0  0  0
   58.6104   32.7000   42.1435 H   0  0  0  0  0  0  0  0  0  0  0  0
   58.1471   31.1433   41.3763 H   0  0  0  0  0  0  0  0  0  0  0  0
   56.9960   32.5223   41.3763 H   0  0  0  0  0  0  0  0  0  0  0  0
   58.6738   31.0809   44.7972 H   0  0  0  0  0  0  0  0  0  0  0  0
   58.7603   32.7585   44.0413 H   0  0  0  0  0  0  0  0  0  0  0  0
   56.3287   32.6494   45.4173 H   0  0  0  0  0  0  0  0  0  0  0  0
   57.6318   31.9174   46.5079 H   0  0  0  0  0  0  0  0  0  0  0  0
   57.5025   34.7027   45.3519 H   0  0  0  0  0  0  0  0  0  0  0  0
   57.4704   34.1012   47.1187 H   0  0  0  0  0  0  0  0  0  0  0  0
   59.8924   33.6653   45.4609 H   0  0  0  0  0  0  0  0  0  0  0  0
   59.9540   36.2308   46.9386 H   0  0  0  0  0  0  0  0  0  0  0  0
   60.7457   35.7217   45.4087 H   0  0  0  0  0  0  0  0  0  0  0  0
   59.0134   36.1968   45.4087 H   0  0  0  0  0  0  0  0  0  0  0  0
   59.1448   33.0176   47.8465 H   0  0  0  0  0  0  0  0  0  0  0  0
   60.8634   35.4761   48.3151 H   0  0  0  0  0  0  0  0  0  0  0  0
   59.4886   34.8866   49.2658 H   0  0  0  0  0  0  0  0  0  0  0  0
   62.2208   34.4467   49.8514 H   0  0  0  0  0  0  0  0  0  0  0  0
   60.8649   33.5290   50.5575 H   0  0  0  0  0  0  0  0  0  0  0  0
   61.4157   31.6552   49.3384 H   0  0  0  0  0  0  0  0  0  0  0  0
   63.5215   31.4119   48.2876 H   0  0  0  0  0  0  0  0  0  0  0  0
   63.7646   32.9065   50.9200 H   0  0  0  0  0  0  0  0  0  0  0  0
   63.3630   31.1055   50.6183 H   0  0  0  0  0  0  0  0  0  0  0  0
   65.4972   30.8754   49.6282 H   0  0  0  0  0  0  0  0  0  0  0  0
   66.7357   32.7880   49.2053 H   0  0  0  0  0  0  0  0  0  0  0  0
   65.9739   33.7170   50.4968 H   0  0  0  0  0  0  0  0  0  0  0  0
   68.5081   32.2925   50.5741 H   0  0  0  0  0  0  0  0  0  0  0  0
   67.7657   33.1797   51.9101 H   0  0  0  0  0  0  0  0  0  0  0  0
   67.7120   30.2370   51.2851 H   0  0  0  0  0  0  0  0  0  0  0  0
   67.5454   31.0385   52.8628 H   0  0  0  0  0  0  0  0  0  0  0  0
   65.4880   29.9210   51.6970 H   0  0  0  0  0  0  0  0  0  0  0  0
   65.3560   31.4050   52.5460 H   0  0  0  0  0  0  0  0  0  0  0  0
   64.3138   34.2563   49.0384 H   0  0  0  0  0  0  0  0  0  0  0  0
   65.0698   33.0912   47.8489 H   0  0  0  0  0  0  0  0  0  0  0  0
   62.8546   35.0564   47.4757 H   0  0  0  0  0  0  0  0  0  0  0  0
   64.1401   34.4605   46.3360 H   0  0  0  0  0  0  0  0  0  0  0  0
   61.8870   33.7877   45.6065 H   0  0  0  0  0  0  0  0  0  0  0  0
   62.9500   32.3673   46.0589 H   0  0  0  0  0  0  0  0  0  0  0  0
   60.6041   30.6385   47.7169 H   0  0  0  0  0  0  0  0  0  0  0  0
   59.9149   31.4200   46.2537 H   0  0  0  0  0  0  0  0  0  0  0  0
   61.6221   30.8612   46.2537 H   0  0  0  0  0  0  0  0  0  0  0  0
  1  2  1  0
  2  3  1  0
  2  4  1  0
  4  5  1  0
  5  6  1  0
  6  7  1  0
  7  8  1  0
  7  9  1  0
  9 10  1  0
 10 11  1  0
 11 12  1  0
 12 13  1  0
 13 14  1  0
 14 15  1  0
 15 16  1  0
 16 17  1  0
 17 18  1  0
 18 19  1  0
 13 20  1  0
 20 21  1  0
 21 22  1  0
 22 23  1  0
 23 24  1  6
 23  9  1  0
 23 12  1  0
 19 15  1  0
  1 25  1  0
  1 26  1  0
  1 27  1  0
  2 28  1  0
  3 29  1  0
  3 30  1  0
  3 31  1  0
  4 32  1  0
  4 33  1  0
  5 34  1  0
  5 35  1  0
  6 36  1  0
  6 37  1  0
  7 38  1  6
  8 39  1  0
  8 40  1  0
  8 41  1  0
  9 42  1  1
 10 43  1  0
 10 44  1  0
 11 45  1  0
 11 46  1  0
 12 47  1  1
 13 48  1  6
 14 49  1  0
 14 50  1  0
 15 51  1  6
 16 52  1  0
 16 53  1  0
 17 54  1  0
 17 55  1  0
 18 56  1  0
 18 57  1  0
 19 58  1  0
 19 59  1  0
 20 60  1  0
 20 61  1  0
 21 62  1  0
 21 63  1  0
 22 64  1  0
 22 65  1  0
 24 66  1  0
 24 67  1  0
 24 68  1  0
M  CHG  1  19   1
M  END
>  <UniqueID>  (34) 
32

>  <SMILES>  (34) 
CC(C)CCC[C@@H](C)[C@@H]1CCC2C(CC3CCC[NH2+]3)CCCC21C

>  <Energy>  (34) 
86.83686931359831

>  <Genealogy>  (34) 
CC(C)CCCC(C)C1CCC2C(CC3CCC[NH2+]3)CCCC12C (protonated)
CC(C)CCC[C@@H](C)[C@@H]1CCC2C(CC3CCC[NH2+]3)CCCC21C (chirality)
CC(C)CCC[C@@H](C)[C@@H]1CCC2C(CC3CCC[NH2+]3)CCCC21C (3D coordinates assigned)
CC(C)CCC[C@@H](C)[C@@H]1CCC2C(CC3CCC[NH2+]3)CCCC21C (nonaromatic ring conformer: 86.83686931359831 kcal/mol)

>  <smiles>  (34) 
CC(C)CCCC(C)C1CCC2C(CC3CCCN3)CCCC12C

>  <score_type>  (34) 
oracle

>  <origin>  (34) 
adg

>  <m_score__min__energy>  (34) 
-7.6900000000000004

>  <m_primary>  (34) 
energy

$$$$
34:0
     RDKit          3D

 49 51  0  0  0  0  0  0  0  0999 V2000
   62.6250   33.8280   46.8030 C   0  0  0  0  0  0  0  0  0  0  0  0
   61.2720   33.4250   47.4040 C   0  0  0  0  0  0  0  0  0  0  0  0
   60.4840   34.5480   47.9850 N   0  0  0  0  0  0  0  0  0  0  0  0
   60.0560   34.3320   49.3860 C   0  0  0  0  0  0  0  0  0  0  0  0
   59.8020   32.8550   49.6880 C   0  0  0  0  0  0  0  0  0  0  0  0
   59.3390   34.9470   47.1370 C   0  0  0  0  0  0  0  0  0  0  0  0
   58.5890   33.7430   46.6490 C   0  0  0  0  0  0  0  0  0  0  0  0
   57.6210   33.3000   47.3240 O   0  0  0  0  0  0  0  0  0  0  0  0
   58.9500   33.1360   45.3980 N   0  0  0  0  0  0  0  0  0  0  0  0
   58.5160   31.8300   44.9850 C   0  0  0  0  0  0  0  0  0  0  0  0
   57.7190   31.7030   43.8180 C   0  0  0  0  0  0  0  0  0  0  0  0
   57.2930   30.4420   43.3640 C   0  0  0  0  0  0  0  0  0  0  0  0
   57.6910   29.3190   44.0860 C   0  0  0  0  0  0  0  0  0  0  0  0
   57.3990   28.0280   43.8130 N   0  0  0  0  0  0  0  0  0  0  0  0
   58.0210   27.3230   44.7830 C   0  0  0  0  0  0  0  0  0  0  0  0
   58.0240   25.9400   44.9470 C   0  0  0  0  0  0  0  0  0  0  0  0
   58.7540   25.3950   46.0230 C   0  0  0  0  0  0  0  0  0  0  0  0
   58.7380   23.9740   46.2140 N   0  0  0  0  0  0  0  0  0  0  0  0
   59.2010   22.9810   45.2890 C   0  0  0  0  0  0  0  0  0  0  0  0
   58.3050   22.3860   44.2450 C   0  0  0  0  0  0  0  0  0  0  0  0
   60.3870   22.5710   45.3790 O   0  0  0  0  0  0  0  0  0  0  0  0
   59.4240   26.2570   46.9310 C   0  0  0  0  0  0  0  0  0  0  0  0
   59.4050   27.6520   46.7450 C   0  0  0  0  0  0  0  0  0  0  0  0
   58.6970   28.1500   45.6560 C   0  0  0  0  0  0  0  0  0  0  0  0
   58.4820   29.4340   45.2090 C   0  0  0  0  0  0  0  0  0  0  0  0
   58.9190   30.6670   45.6850 C   0  0  0  0  0  0  0  0  0  0  0  0
   63.3376   34.0403   47.6136 H   0  0  0  0  0  0  0  0  0  0  0  0
   63.0101   33.0056   46.1823 H   0  0  0  0  0  0  0  0  0  0  0  0
   62.4973   34.7271   46.1823 H   0  0  0  0  0  0  0  0  0  0  0  0
   60.6699   32.9604   46.6092 H   0  0  0  0  0  0  0  0  0  0  0  0
   61.4956   32.7419   48.2367 H   0  0  0  0  0  0  0  0  0  0  0  0
   60.8441   34.7012   50.0587 H   0  0  0  0  0  0  0  0  0  0  0  0
   59.1127   34.8765   49.5400 H   0  0  0  0  0  0  0  0  0  0  0  0
   59.7758   32.7027   50.7771 H   0  0  0  0  0  0  0  0  0  0  0  0
   58.8386   32.5520   49.2521 H   0  0  0  0  0  0  0  0  0  0  0  0
   60.6089   32.2476   49.2521 H   0  0  0  0  0  0  0  0  0  0  0  0
   58.6590   35.5809   47.7250 H   0  0  0  0  0  0  0  0  0  0  0  0
   59.7222   35.4991   46.2662 H   0  0  0  0  0  0  0  0  0  0  0  0
   59.5200   33.7010   44.7300 H   0  0  0  0  0  0  0  0  0  0  0  0
   57.4297   32.6054   43.2594 H   0  0  0  0  0  0  0  0  0  0  0  0
   56.6647   30.3453   42.4663 H   0  0  0  0  0  0  0  0  0  0  0  0
   56.8230   27.6580   43.0240 H   0  0  0  0  0  0  0  0  0  0  0  0
   57.4705   25.2890   44.2542 H   0  0  0  0  0  0  0  0  0  0  0  0
   57.4841   21.8409   44.7338 H   0  0  0  0  0  0  0  0  0  0  0  0
   57.8898   23.1884   43.6175 H   0  0  0  0  0  0  0  0  0  0  0  0
   58.8835   21.6920   43.6175 H   0  0  0  0  0  0  0  0  0  0  0  0
   59.9637   25.8299   47.7891 H   0  0  0  0  0  0  0  0  0  0  0  0
   59.9319   28.3254   47.4370 H   0  0  0  0  0  0  0  0  0  0  0  0
   59.5579   30.7357   46.5778 H   0  0  0  0  0  0  0  0  0  0  0  0
  1  2  1  0
  2  3  1  0
  3  4  1  0
  4  5  1  0
  3  6  1  0
  6  7  1  0
  7  8  2  0
  7  9  1  0
  9 10  1  0
 10 11  2  0
 11 12  1  0
 12 13  2  0
 13 14  1  0
 14 15  1  0
 15 16  2  0
 16 17  1  0
 17 18  1  0
 18 19  1  0
 19 20  1  0
 19 21  2  0
 17 22  2  0
 22 23  1  0
 23 24  2  0
 24 25  1  0
 25 26  2  0
 26 10  1  0
 25 13  1  0
 24 15  1  0
  1 27  1  0
  1 28  1  0
  1 29  1  0
  2 30  1  0
  2 31  1  0
  4 32  1  0
  4 33  1  0
  5 34  1  0
  5 35  1  0
  5 36  1  0
  6 37  1  0
  6 38  1  0
  9 39  1  0
 11 40  1  0
 12 41  1  0
 14 42  1  0
 16 43  1  0
 20 44  1  0
 20 45  1  0
 20 46  1  0
 22 47  1  0
 23 48  1  0
 26 49  1  0
M  CHG  1  18  -1
M  END
>  <UniqueID>  (35) 
33

>  <SMILES>  (35) 
CCN(CC)CC(=O)Nc1ccc2[nH]c3cc([N-]C(C)=O)ccc3c2c1

>  <Energy>  (35) 
98.5167670697055

>  <Genealogy>  (35) 
CCN(CC)CC(=O)Nc1ccc2[nH]c3cc([N-]C(C)=O)ccc3c2c1 (protonated)
CCN(CC)CC(=O)Nc1ccc2[nH]c3cc([N-]C(C)=O)ccc3c2c1 (3D coordinates assigned)
CCN(CC)CC(=O)Nc1ccc2[nH]c3cc([N-]C(C)=O)ccc3c2c1 (optimized conformer: 98.5167670697055 kcal/mol)

>  <smiles>  (35) 
CCN(CC)CC(=O)Nc1ccc2[nH]c3cc(NC(C)=O)ccc3c2c1

>  <score_type>  (35) 
oracle

>  <origin>  (35) 
adg

>  <m_score__min__energy>  (35) 
-9.3699999999999992

>  <m_primary>  (35) 
energy

$$$$
35:0
     RDKit          3D

 57 60  0  0  0  0  0  0  0  0999 V2000
   58.1400   24.4400   45.2230 C   0  0  0  0  0  0  0  0  0  0  0  0
   57.9050   25.9010   44.9780 C   0  0  0  0  0  0  0  0  0  0  0  0
   57.5220   26.7440   46.0330 C   0  0  0  0  0  0  0  0  0  0  0  0
   57.3240   28.1090   45.8090 C   0  0  0  0  0  0  0  0  0  0  0  0
   57.5270   28.6520   44.5330 C   0  0  0  0  0  0  0  0  0  0  0  0
   57.2580   30.3720   44.2420 S   0  0  0  0  0  0  0  0  0  0  0  0
   55.8760   30.7400   44.7060 O   0  0  0  0  0  0  0  0  0  0  0  0
   57.3400   30.6460   42.7650 O   0  0  0  0  0  0  0  0  0  0  0  0
   58.4400   31.3560   45.0740 N   0  0  0  0  0  0  0  0  0  0  0  0
   57.7770   32.3310   45.9530 C   0  0  0  0  0  0  0  0  0  0  0  0
   58.7500   33.3300   46.4760 N   0  0  0  0  0  0  0  0  0  0  0  0
   58.6150   34.6020   45.7370 C   0  0  0  0  0  0  0  0  0  0  0  0
   60.1580   32.8310   46.4570 C   0  0  1  0  0  0  0  0  0  0  0  0
   61.0810   33.7100   47.3380 C   0  0  0  0  0  0  0  0  0  0  0  0
   62.4750   33.1460   47.4050 C   0  0  0  0  0  0  0  0  0  0  0  0
   63.4350   33.9030   47.4020 O   0  0  0  0  0  0  0  0  0  0  0  0
   62.6960   31.6740   47.5950 C   0  0  0  0  0  0  0  0  0  0  0  0
   61.7160   30.8530   46.7450 C   0  0  0  0  0  0  0  0  0  0  0  0
   60.2310   31.3170   46.8710 C   0  0  1  0  0  0  0  0  0  0  0  0
   59.7090   31.1320   48.3510 C   0  0  0  0  0  0  0  0  0  0  0  0
   60.0550   29.8160   49.0190 C   0  0  0  0  0  0  0  0  0  0  0  0
   59.9560   28.6010   48.3160 C   0  0  0  0  0  0  0  0  0  0  0  0
   60.3030   27.3960   48.9330 C   0  0  0  0  0  0  0  0  0  0  0  0
   60.7700   27.3910   50.2500 C   0  0  0  0  0  0  0  0  0  0  0  0
   60.8960   28.5930   50.9500 C   0  0  0  0  0  0  0  0  0  0  0  0
   60.5460   29.8000   50.3380 C   0  0  0  0  0  0  0  0  0  0  0  0
   59.3650   30.5010   45.8430 C   0  0  0  0  0  0  0  0  0  0  0  0
   57.9370   27.8160   43.4840 C   0  0  0  0  0  0  0  0  0  0  0  0
   58.1270   26.4490   43.7060 C   0  0  0  0  0  0  0  0  0  0  0  0
   58.1705   24.2501   46.3061 H   0  0  0  0  0  0  0  0  0  0  0  0
   57.3242   23.8566   44.7713 H   0  0  0  0  0  0  0  0  0  0  0  0
   59.0976   24.1419   44.7713 H   0  0  0  0  0  0  0  0  0  0  0  0
   57.3770   26.3281   47.0410 H   0  0  0  0  0  0  0  0  0  0  0  0
   57.0076   28.7599   46.6374 H   0  0  0  0  0  0  0  0  0  0  0  0
   56.9954   32.8549   45.3833 H   0  0  0  0  0  0  0  0  0  0  0  0
   57.3383   31.7913   46.8052 H   0  0  0  0  0  0  0  0  0  0  0  0
   58.5267   35.4336   46.4516 H   0  0  0  0  0  0  0  0  0  0  0  0
   59.5020   34.7546   45.1046 H   0  0  0  0  0  0  0  0  0  0  0  0
   57.7157   34.5650   45.1046 H   0  0  0  0  0  0  0  0  0  0  0  0
   60.5256   32.9072   45.4230 H   0  0  0  0  0  0  0  0  0  0  0  0
   61.1247   34.7229   46.9112 H   0  0  0  0  0  0  0  0  0  0  0  0
   60.6675   33.7337   48.3570 H   0  0  0  0  0  0  0  0  0  0  0  0
   63.7253   31.4241   47.2982 H   0  0  0  0  0  0  0  0  0  0  0  0
   62.5286   31.4298   48.6544 H   0  0  0  0  0  0  0  0  0  0  0  0
   62.0172   30.9368   45.6904 H   0  0  0  0  0  0  0  0  0  0  0  0
   61.7607   29.8179   47.1147 H   0  0  0  0  0  0  0  0  0  0  0  0
   60.1353   31.9415   48.9617 H   0  0  0  0  0  0  0  0  0  0  0  0
   58.6113   31.1496   48.2822 H   0  0  0  0  0  0  0  0  0  0  0  0
   59.6032   28.5997   47.2741 H   0  0  0  0  0  0  0  0  0  0  0  0
   60.2083   26.4494   48.3807 H   0  0  0  0  0  0  0  0  0  0  0  0
   61.0382   26.4409   50.7352 H   0  0  0  0  0  0  0  0  0  0  0  0
   61.2711   28.5898   51.9841 H   0  0  0  0  0  0  0  0  0  0  0  0
   60.6551   30.7444   50.8914 H   0  0  0  0  0  0  0  0  0  0  0  0
   60.0403   29.9915   45.1399 H   0  0  0  0  0  0  0  0  0  0  0  0
   58.7577   29.7839   46.4148 H   0  0  0  0  0  0  0  0  0  0  0  0
   58.1097   28.2377   42.4828 H   0  0  0  0  0  0  0  0  0  0  0  0
   58.4521   25.8001   42.8794 H   0  0  0  0  0  0  0  0  0  0  0  0
  1  2  1  0
  2  3  2  0
  3  4  1  0
  4  5  2  0
  5  6  1  0
  6  7  2  0
  6  8  2  0
  6  9  1  0
  9 10  1  0
 10 11  1  0
 11 12  1  0
 11 13  1  0
 13 14  1  0
 14 15  1  0
 15 16  2  0
 15 17  1  0
 17 18  1  0
 18 19  1  0
 19 20  1  1
 20 21  1  0
 21 22  2  0
 22 23  1  0
 23 24  2  0
 24 25  1  0
 25 26  2  0
 19 27  1  0
  5 28  1  0
 28 29  2  0
 29  2  1  0
 27  9  1  0
 19 13  1  0
 26 21  1  0
  1 30  1  0
  1 31  1  0
  1 32  1  0
  3 33  1  0
  4 34  1  0
 10 35  1  0
 10 36  1  0
 12 37  1  0
 12 38  1  0
 12 39  1  0
 13 40  1  6
 14 41  1  0
 14 42  1  0
 17 43  1  0
 17 44  1  0
 18 45  1  0
 18 46  1  0
 20 47  1  0
 20 48  1  0
 22 49  1  0
 23 50  1  0
 24 51  1  0
 25 52  1  0
 26 53  1  0
 27 54  1  0
 27 55  1  0
 28 56  1  0
 29 57  1  0
M  END
>  <UniqueID>  (36) 
34

>  <SMILES>  (36) 
Cc1ccc(S(=O)(=O)N2CN(C)[C@H]3CC(=O)CC[C@]3(Cc3ccccc3)C2)cc1

>  <Energy>  (36) 
73.32710267164845

>  <Genealogy>  (36) 
Cc1ccc(S(=O)(=O)N2CN(C)[C@H]3CC(=O)CC[C@]3(Cc3ccccc3)C2)cc1 (chirality)
Cc1ccc(S(=O)(=O)N2CN(C)[C@H]3CC(=O)CC[C@]3(Cc3ccccc3)C2)cc1 (3D coordinates assigned)
Cc1ccc(S(=O)(=O)N2CN(C)[C@H]3CC(=O)CC[C@]3(Cc3ccccc3)C2)cc1 (nonaromatic ring conformer: 73.32710267164845 kcal/mol)

>  <smiles>  (36) 
Cc1ccc(S(=O)(=O)N2CN(C)C3CC(=O)CCC3(Cc3ccccc3)C2)cc1

>  <score_type>  (36) 
oracle

>  <origin>  (36) 
adg

>  <m_score__min__energy>  (36) 
-9.3000000000000007

>  <m_primary>  (36) 
energy

$$$$
36:0
     RDKit          3D

 41 43  0  0  0  0  0  0  0  0999 V2000
   53.6230   26.3360   45.6860 H   0  0  0  0  0  0  0  0  0  0  0  0
   54.4670   25.7950   45.9800 N   0  0  0  0  0  0  0  0  0  0  0  0
   55.6290   26.3560   46.0690 C   0  0  0  0  0  0  0  0  0  0  0  0
   55.8750   27.6050   45.6220 N   0  0  0  0  0  0  0  0  0  0  0  0
   57.1790   27.7820   45.8970 C   0  0  0  0  0  0  0  0  0  0  0  0
   57.7577   28.6920   45.6803 H   0  0  0  0  0  0  0  0  0  0  0  0
   57.6760   26.6440   46.4930 C   0  0  0  0  0  0  0  0  0  0  0  0
   59.0970   26.4310   46.9500 C   0  0  0  0  0  0  0  0  0  0  0  0
   59.0805   26.1489   48.0131 H   0  0  0  0  0  0  0  0  0  0  0  0
   59.5236   25.6437   46.3111 H   0  0  0  0  0  0  0  0  0  0  0  0
   59.9630   27.6270   46.7970 N   0  0  0  0  0  0  0  0  0  0  0  0
   60.9450   27.2630   46.8730 H   0  0  0  0  0  0  0  0  0  0  0  0
   59.8090   28.6060   47.9130 C   0  0  0  0  0  0  0  0  0  0  0  0
   59.3407   28.0929   48.7659 H   0  0  0  0  0  0  0  0  0  0  0  0
   60.8131   28.9829   48.1576 H   0  0  0  0  0  0  0  0  0  0  0  0
   58.9440   29.8210   47.5390 C   0  0  0  0  0  0  0  0  0  0  0  0
   57.9077   29.4903   47.3752 H   0  0  0  0  0  0  0  0  0  0  0  0
   58.9849   30.5517   48.3602 H   0  0  0  0  0  0  0  0  0  0  0  0
   59.4470   30.4560   46.3150 N   0  0  0  0  0  0  0  0  0  0  0  0
   59.0320   31.7920   45.9710 C   0  0  0  0  0  0  0  0  0  0  0  0
   59.8690   32.8810   46.2730 C   0  0  0  0  0  0  0  0  0  0  0  0
   60.8378   32.7046   46.7632 H   0  0  0  0  0  0  0  0  0  0  0  0
   59.4810   34.1840   45.9560 C   0  0  0  0  0  0  0  0  0  0  0  0
   60.1421   35.0292   46.1983 H   0  0  0  0  0  0  0  0  0  0  0  0
   58.2550   34.4140   45.3320 C   0  0  0  0  0  0  0  0  0  0  0  0
   57.9482   35.4416   45.0874 H   0  0  0  0  0  0  0  0  0  0  0  0
   57.4160   33.3430   45.0170 C   0  0  0  0  0  0  0  0  0  0  0  0
   56.4494   33.5318   44.5270 H   0  0  0  0  0  0  0  0  0  0  0  0
   57.8000   32.0210   45.3230 C   0  0  0  0  0  0  0  0  0  0  0  0
   57.0000   30.9200   44.9760 O   0  0  0  0  0  0  0  0  0  0  0  0
   56.9270   30.3540   43.6710 C   0  0  0  0  0  0  0  0  0  0  0  0
   56.7867   29.2659   43.7506 H   0  0  0  0  0  0  0  0  0  0  0  0
   56.0782   30.7944   43.1273 H   0  0  0  0  0  0  0  0  0  0  0  0
   57.8597   30.5646   43.1273 H   0  0  0  0  0  0  0  0  0  0  0  0
   60.2960   29.6820   45.4030 C   0  0  0  0  0  0  0  0  0  0  0  0
   60.1932   30.0758   44.3811 H   0  0  0  0  0  0  0  0  0  0  0  0
   61.3467   29.7615   45.7186 H   0  0  0  0  0  0  0  0  0  0  0  0
   59.8590   28.2150   45.4330 C   0  0  0  0  0  0  0  0  0  0  0  0
   58.8135   28.1495   45.0974 H   0  0  0  0  0  0  0  0  0  0  0  0
   60.5280   27.6488   44.7683 H   0  0  0  0  0  0  0  0  0  0  0  0
   56.6940   25.7300   46.6080 N   0  0  0  0  0  0  0  0  0  0  0  0
  1  2  1  0
  2  3  2  0
  3  4  1  0
  4  5  1  0
  5  6  1  0
  5  7  2  0
  7  8  1  0
  8  9  1  0
  8 10  1  0
  8 11  1  0
 11 12  1  0
 11 13  1  0
 13 14  1  0
 13 15  1  0
 13 16  1  0
 16 17  1  0
 16 18  1  0
 16 19  1  0
 19 20  1  0
 20 21  2  0
 21 22  1  0
 21 23  1  0
 23 24  1  0
 23 25  2  0
 25 26  1  0
 25 27  1  0
 27 28  1  0
 27 29  2  0
 29 30  1  0
 30 31  1  0
 31 32  1  0
 31 33  1  0
 31 34  1  0
 19 35  1  0
 35 36  1  0
 35 37  1  0
 35 38  1  0
 38 39  1  0
 38 40  1  0
  7 41  1  0
 41  3  1  0
 38 11  1  0
 29 20  1  0
M  CHG  3   4  -1  11   1  41  -1
M  END
>  <UniqueID>  (37) 
35

>  <SMILES>  (37) 
[H]/N=c1\[n-]cc(C[NH+]2CCN(c3ccccc3OC)CC2)[n-]1

>  <Energy>  (37) 
82.78933421433949

>  <Genealogy>  (37) 
COc1ccccc1N1CC[NH+](Cc2c[n-]c(=N)[n-]2)CC1 (protonated)
[H]/N=c1\[n-]cc(C[NH+]2CCN(c3ccccc3OC)CC2)[n-]1 (cis-trans isomerization)
[H]/N=c1\[n-]cc(C[NH+]2CCN(c3ccccc3OC)CC2)[n-]1 (3D coordinates assigned)
[H]/N=c1\[n-]cc(C[NH+]2CCN(c3ccccc3OC)CC2)[n-]1 (nonaromatic ring conformer: 82.78933421433949 kcal/mol)

>  <smiles>  (37) 
COc1ccccc1N1CCN(Cc2c[nH]c(=N)[nH]2)CC1

>  <score_type>  (37) 
oracle

>  <origin>  (37) 
adg

>  <m_score__min__energy>  (37) 
-10.210000000000001

>  <m_primary>  (37) 
energy

$$$$
37:0
     RDKit          3D

 38 39  0  0  0  0  0  0  0  0999 V2000
   59.2670   31.0100   49.0840 C   0  0  0  0  0  0  0  0  0  0  0  0
   59.1770   31.7550   47.8750 O   0  0  0  0  0  0  0  0  0  0  0  0
   58.5390   31.3100   46.7060 C   0  0  0  0  0  0  0  0  0  0  0  0
   58.5660   29.9530   46.3220 C   0  0  0  0  0  0  0  0  0  0  0  0
   57.8770   29.5250   45.1860 C   0  0  0  0  0  0  0  0  0  0  0  0
   57.1510   30.4380   44.4210 C   0  0  0  0  0  0  0  0  0  0  0  0
   56.2750   29.8930   43.0020 Cl  0  0  0  0  0  0  0  0  0  0  0  0
   57.1230   31.7860   44.7840 C   0  0  0  0  0  0  0  0  0  0  0  0
   57.8300   32.2380   45.9090 C   0  0  0  0  0  0  0  0  0  0  0  0
   57.7780   33.6360   46.2420 N   0  0  0  0  0  0  0  0  0  0  0  0
   58.8190   34.5930   45.8670 C   0  0  0  0  0  0  0  0  0  0  0  0
   59.6340   34.9870   47.1170 C   0  0  0  0  0  0  0  0  0  0  0  0
   60.6210   33.9780   47.5760 N   0  0  0  0  0  0  0  0  0  0  0  0
   61.7770   33.8260   46.6710 C   0  0  0  0  0  0  0  0  0  0  0  0
   62.6630   32.6420   47.1260 C   0  0  0  0  0  0  0  0  0  0  0  0
   62.3510   32.1960   48.4360 O   0  0  0  0  0  0  0  0  0  0  0  0
   62.2730   33.2960   49.3200 C   0  0  0  0  0  0  0  0  0  0  0  0
   61.0720   34.2020   48.9690 C   0  0  0  0  0  0  0  0  0  0  0  0
   59.1845   31.6928   49.9425 H   0  0  0  0  0  0  0  0  0  0  0  0
   58.4514   30.2729   49.1221 H   0  0  0  0  0  0  0  0  0  0  0  0
   60.2347   30.4883   49.1221 H   0  0  0  0  0  0  0  0  0  0  0  0
   59.1341   29.2269   46.9220 H   0  0  0  0  0  0  0  0  0  0  0  0
   57.9066   28.4651   44.8933 H   0  0  0  0  0  0  0  0  0  0  0  0
   56.5414   32.5003   44.1827 H   0  0  0  0  0  0  0  0  0  0  0  0
   56.8720   34.0290   46.5870 H   0  0  0  0  0  0  0  0  0  0  0  0
   59.4875   34.1342   45.1236 H   0  0  0  0  0  0  0  0  0  0  0  0
   58.3519   35.4913   45.4371 H   0  0  0  0  0  0  0  0  0  0  0  0
   60.1783   35.9152   46.8888 H   0  0  0  0  0  0  0  0  0  0  0  0
   58.9050   35.0923   47.9340 H   0  0  0  0  0  0  0  0  0  0  0  0
   60.1050   33.0640   47.5680 H   0  0  0  0  0  0  0  0  0  0  0  0
   61.4157   33.6372   45.6493 H   0  0  0  0  0  0  0  0  0  0  0  0
   62.3740   34.7496   46.6949 H   0  0  0  0  0  0  0  0  0  0  0  0
   62.5192   31.8057   46.4261 H   0  0  0  0  0  0  0  0  0  0  0  0
   63.7060   32.9915   47.1338 H   0  0  0  0  0  0  0  0  0  0  0  0
   62.1548   32.9238   50.3483 H   0  0  0  0  0  0  0  0  0  0  0  0
   63.1967   33.8862   49.2285 H   0  0  0  0  0  0  0  0  0  0  0  0
   60.2417   33.9789   49.6552 H   0  0  0  0  0  0  0  0  0  0  0  0
   61.3865   35.2514   49.0688 H   0  0  0  0  0  0  0  0  0  0  0  0
  1  2  1  0
  2  3  1  0
  3  4  2  0
  4  5  1  0
  5  6  2  0
  6  7  1  0
  6  8  1  0
  8  9  2  0
  9 10  1  0
 10 11  1  0
 11 12  1  0
 12 13  1  0
 13 14  1  0
 14 15  1  0
 15 16  1  0
 16 17  1  0
 17 18  1  0
  9  3  1  0
 18 13  1  0
  1 19  1  0
  1 20  1  0
  1 21  1  0
  4 22  1  0
  5 23  1  0
  8 24  1  0
 10 25  1  0
 11 26  1  0
 11 27  1  0
 12 28  1  0
 12 29  1  0
 13 30  1  0
 14 31  1  0
 14 32  1  0
 15 33  1  0
 15 34  1  0
 17 35  1  0
 17 36  1  0
 18 37  1  0
 18 38  1  0
M  CHG  1  13   1
M  END
>  <UniqueID>  (38) 
36

>  <SMILES>  (38) 
COc1ccc(Cl)cc1NCC[NH+]1CCOCC1

>  <Energy>  (38) 
51.62461472612231

>  <Genealogy>  (38) 
COc1ccc(Cl)cc1NCC[NH+]1CCOCC1 (protonated)
COc1ccc(Cl)cc1NCC[NH+]1CCOCC1 (3D coordinates assigned)
COc1ccc(Cl)cc1NCC[NH+]1CCOCC1 (nonaromatic ring conformer: 51.62461472612231 kcal/mol)

>  <smiles>  (38) 
COc1ccc(Cl)cc1NCCN1CCOCC1

>  <score_type>  (38) 
oracle

>  <origin>  (38) 
adg

>  <m_score__min__energy>  (38) 
-5.2699999999999996

>  <m_primary>  (38) 
energy

$$$$
38:0
     RDKit          3D

 38 41  0  0  1  0  0  0  0  0999 V2000
   58.3970   34.2530   46.2450 C   0  0  0  0  0  0  0  0  0  0  0  0
   58.0910   34.2310   44.8910 C   0  0  0  0  0  0  0  0  0  0  0  0
   57.7930   33.0640   44.2180 C   0  0  0  0  0  0  0  0  0  0  0  0
   57.8020   31.8820   44.9330 C   0  0  0  0  0  0  0  0  0  0  0  0
   57.4990   30.5930   44.3070 C   0  0  0  0  0  0  0  0  0  0  0  0
   56.7940   29.6990   45.2350 N   0  0  0  0  0  0  0  0  0  0  0  0
   57.4080   28.6980   45.7740 C   0  0  0  0  0  0  0  0  0  0  0  0
   57.3010   27.4100   45.2410 C   0  0  0  0  0  0  0  0  0  0  0  0
   57.9500   26.3310   45.8030 C   0  0  0  0  0  0  0  0  0  0  0  0
   57.8430   24.9870   45.2530 C   0  0  0  0  0  0  0  0  0  0  0  0
   58.6840   23.9660   45.6450 C   0  0  0  0  0  0  0  0  0  0  0  0
   58.5710   22.6750   45.1080 C   0  0  0  0  0  0  0  0  0  0  0  0
   57.6250   22.3750   44.1760 C   0  0  0  0  0  0  0  0  0  0  0  0
   57.2880   21.2620   43.5030 N   0  0  0  0  0  0  0  0  0  0  0  0
   56.2600   21.5340   42.6910 N   0  0  0  0  0  0  0  0  0  0  0  0
   55.9140   22.8270   42.8260 C   0  0  0  0  0  0  0  0  0  0  0  0
   56.7750   23.3840   43.7720 C   0  0  0  0  0  0  0  0  0  0  0  0
   56.8890   24.6730   44.3090 C   0  0  0  0  0  0  0  0  0  0  0  0
   58.6950   26.5810   46.8950 N   0  0  0  0  0  0  0  0  0  0  0  0
   58.8060   27.8350   47.4230 C   0  0  0  0  0  0  0  0  0  0  0  0
   58.1680   28.8800   46.8670 N   0  0  0  0  0  0  0  0  0  0  0  0
   58.1070   31.9020   46.2880 C   0  0  0  0  0  0  0  0  0  0  0  0
   58.4040   33.0650   46.9540 C   0  0  0  0  0  0  0  0  0  0  0  0
   58.6309   35.2030   46.7477 H   0  0  0  0  0  0  0  0  0  0  0  0
   58.0859   35.1795   44.3339 H   0  0  0  0  0  0  0  0  0  0  0  0
   57.5553   33.0745   43.1440 H   0  0  0  0  0  0  0  0  0  0  0  0
   56.8656   30.7640   43.4241 H   0  0  0  0  0  0  0  0  0  0  0  0
   58.4478   30.1159   44.0203 H   0  0  0  0  0  0  0  0  0  0  0  0
   56.6805   27.2526   44.3465 H   0  0  0  0  0  0  0  0  0  0  0  0
   59.4614   24.1691   46.3963 H   0  0  0  0  0  0  0  0  0  0  0  0
   59.2612   21.8885   45.4471 H   0  0  0  0  0  0  0  0  0  0  0  0
   57.7790   20.3510   43.6240 H   0  0  0  0  0  0  0  0  0  0  0  0
   55.1052   23.3468   42.2916 H   0  0  0  0  0  0  0  0  0  0  0  0
   56.1972   25.4571   43.9674 H   0  0  0  0  0  0  0  0  0  0  0  0
   59.2310   25.8490   47.4070 H   0  0  0  0  0  0  0  0  0  0  0  0
   59.4270   27.9930   48.3171 H   0  0  0  0  0  0  0  0  0  0  0  0
   58.1107   30.9541   46.8461 H   0  0  0  0  0  0  0  0  0  0  0  0
   58.6423   33.0527   48.0278 H   0  0  0  0  0  0  0  0  0  0  0  0
  1  2  2  0
  2  3  1  0
  3  4  2  0
  4  5  1  0
  5  6  1  0
  6  7  2  0
  7  8  1  0
  8  9  2  0
  9 10  1  0
 10 11  2  0
 11 12  1  0
 12 13  2  0
 13 14  1  0
 14 15  1  0
 15 16  2  0
 16 17  1  0
 17 18  2  0
  9 19  1  0
 19 20  1  0
 20 21  2  0
  4 22  1  0
 22 23  2  0
 23  1  1  0
 21  7  1  0
 18 10  1  0
 17 13  1  0
  1 24  1  0
  2 25  1  0
  3 26  1  0
  5 27  1  0
  5 28  1  0
  8 29  1  0
 11 30  1  0
 12 31  1  0
 14 32  1  0
 16 33  1  0
 18 34  1  0
 19 35  1  0
 20 36  1  0
 22 37  1  0
 23 38  1  0
M  END
>  <smiles>  (39) 
c1ccc(CN=c2cc(-c3ccc4[nH]ncc4c3)[nH]cn2)cc1

>  <score_type>  (39) 
oracle

>  <origin>  (39) 
adg

>  <m_score__min__energy>  (39) 
-8.3800000000000008

>  <m_primary>  (39) 
energy

$$$$
39:0
     RDKit          3D

 46 49  0  0  0  0  0  0  0  0999 V2000
   58.1410   26.7380   42.4210 C   0  0  0  0  0  0  0  0  0  0  0  0
   57.7720   25.8980   44.0010 S   0  0  0  0  0  0  0  0  0  0  0  0
   58.3490   27.2760   44.9990 C   0  0  0  0  0  0  0  0  0  0  0  0
   57.8380   27.4640   46.2860 C   0  0  0  0  0  0  0  0  0  0  0  0
   58.2890   28.5270   47.0750 C   0  0  0  0  0  0  0  0  0  0  0  0
   59.2300   29.4370   46.5670 C   0  0  0  0  0  0  0  0  0  0  0  0
   59.7050   30.6070   47.4070 C   0  0  1  0  0  0  0  0  0  0  0  0
   61.1770   30.5920   47.4330 N   0  0  0  0  0  0  0  0  0  0  0  0
   61.9710   31.7800   47.5400 C   0  0  0  0  0  0  0  0  0  0  0  0
   63.3560   31.6880   47.7560 C   0  0  0  0  0  0  0  0  0  0  0  0
   64.1190   32.8560   47.8950 C   0  0  0  0  0  0  0  0  0  0  0  0
   63.5070   34.1170   47.8260 C   0  0  0  0  0  0  0  0  0  0  0  0
   62.1370   34.2090   47.6070 C   0  0  0  0  0  0  0  0  0  0  0  0
   61.3620   33.0430   47.4470 C   0  0  0  0  0  0  0  0  0  0  0  0
   59.9190   33.1150   47.1590 C   0  0  0  0  0  0  0  0  0  0  0  0
   59.3410   34.2370   47.1360 O   0  0  0  0  0  0  0  0  0  0  0  0
   59.1720   31.9020   46.9110 N   0  0  0  0  0  0  0  0  0  0  0  0
   57.7660   32.0250   46.4720 C   0  0  0  0  0  0  0  0  0  0  0  0
   57.6350   31.8800   44.9760 C   0  0  0  0  0  0  0  0  0  0  0  0
   58.2300   32.8180   44.1120 C   0  0  0  0  0  0  0  0  0  0  0  0
   58.1340   32.6640   42.7240 C   0  0  0  0  0  0  0  0  0  0  0  0
   57.4440   31.5740   42.1860 C   0  0  0  0  0  0  0  0  0  0  0  0
   56.8370   30.6430   43.0350 C   0  0  0  0  0  0  0  0  0  0  0  0
   56.9300   30.7980   44.4230 C   0  0  0  0  0  0  0  0  0  0  0  0
   59.7310   29.2490   45.2640 C   0  0  0  0  0  0  0  0  0  0  0  0
   59.3160   28.1550   44.4980 C   0  0  0  0  0  0  0  0  0  0  0  0
   58.5758   27.7277   42.6247 H   0  0  0  0  0  0  0  0  0  0  0  0
   58.8570   26.1348   41.8435 H   0  0  0  0  0  0  0  0  0  0  0  0
   57.2124   26.8572   41.8435 H   0  0  0  0  0  0  0  0  0  0  0  0
   57.0781   26.7732   46.6800 H   0  0  0  0  0  0  0  0  0  0  0  0
   57.9048   28.6508   48.0983 H   0  0  0  0  0  0  0  0  0  0  0  0
   59.3190   30.5010   48.4316 H   0  0  0  0  0  0  0  0  0  0  0  0
   61.6540   29.6660   47.6190 H   0  0  0  0  0  0  0  0  0  0  0  0
   63.8406   30.7023   47.8159 H   0  0  0  0  0  0  0  0  0  0  0  0
   65.2043   32.7835   48.0592 H   0  0  0  0  0  0  0  0  0  0  0  0
   64.1092   35.0298   47.9448 H   0  0  0  0  0  0  0  0  0  0  0  0
   61.6557   35.1969   47.5584 H   0  0  0  0  0  0  0  0  0  0  0  0
   57.1700   31.2398   46.9600 H   0  0  0  0  0  0  0  0  0  0  0  0
   57.4048   33.0253   46.7530 H   0  0  0  0  0  0  0  0  0  0  0  0
   58.7741   33.6778   44.5301 H   0  0  0  0  0  0  0  0  0  0  0  0
   58.6022   33.4018   42.0558 H   0  0  0  0  0  0  0  0  0  0  0  0
   57.3784   31.4485   41.0952 H   0  0  0  0  0  0  0  0  0  0  0  0
   56.2868   29.7894   42.6122 H   0  0  0  0  0  0  0  0  0  0  0  0
   56.4467   30.0660   45.0868 H   0  0  0  0  0  0  0  0  0  0  0  0
   60.4527   29.9667   44.8467 H   0  0  0  0  0  0  0  0  0  0  0  0
   59.7497   27.9853   43.5015 H   0  0  0  0  0  0  0  0  0  0  0  0
  1  2  1  0
  2  3  1  0
  3  4  2  0
  4  5  1  0
  5  6  2  0
  6  7  1  0
  7  8  1  0
  8  9  1  0
  9 10  2  0
 10 11  1  0
 11 12  2  0
 12 13  1  0
 13 14  2  0
 14 15  1  0
 15 16  2  0
 15 17  1  0
 17 18  1  0
 18 19  1  0
 19 20  2  0
 20 21  1  0
 21 22  2  0
 22 23  1  0
 23 24  2  0
  6 25  1  0
 25 26  2  0
 26  3  1  0
 17  7  1  0
 24 19  1  0
 14  9  1  0
  1 27  1  0
  1 28  1  0
  1 29  1  0
  4 30  1  0
  5 31  1  0
  7 32  1  1
  8 33  1  0
 10 34  1  0
 11 35  1  0
 12 36  1  0
 13 37  1  0
 18 38  1  0
 18 39  1  0
 20 40  1  0
 21 41  1  0
 22 42  1  0
 23 43  1  0
 24 44  1  0
 25 45  1  0
 26 46  1  0
M  END
>  <UniqueID>  (40) 
37

>  <SMILES>  (40) 
CSc1ccc([C@H]2Nc3ccccc3C(=O)N2Cc2ccccc2)cc1

>  <Energy>  (40) 
50.241170560778734

>  <Genealogy>  (40) 
CSc1ccc([C@H]2Nc3ccccc3C(=O)N2Cc2ccccc2)cc1 (chirality)
CSc1ccc([C@H]2Nc3ccccc3C(=O)N2Cc2ccccc2)cc1 (3D coordinates assigned)
CSc1ccc([C@H]2Nc3ccccc3C(=O)N2Cc2ccccc2)cc1 (nonaromatic ring conformer: 50.241170560778734 kcal/mol)

>  <smiles>  (40) 
CSc1ccc(C2Nc3ccccc3C(=O)N2Cc2ccccc2)cc1

>  <score_type>  (40) 
oracle

>  <origin>  (40) 
adg

>  <m_score__min__energy>  (40) 
-7.9900000000000002

>  <m_primary>  (40) 
energy

$$$$
40:0
     RDKit          3D

 32 34  0  0  1  0  0  0  0  0999 V2000
   55.5790   29.7190   43.4450 C   0  0  0  0  0  0  0  0  0  0  0  0
   55.7630   29.5100   44.8390 O   0  0  0  0  0  0  0  0  0  0  0  0
   56.8510   28.8180   45.3160 C   0  0  0  0  0  0  0  0  0  0  0  0
   57.0310   27.4650   45.0960 C   0  0  0  0  0  0  0  0  0  0  0  0
   58.1420   26.7790   45.5870 C   0  0  0  0  0  0  0  0  0  0  0  0
   59.1020   27.4520   46.3160 C   0  0  0  0  0  0  0  0  0  0  0  0
   58.9240   28.7950   46.5340 C   0  0  0  0  0  0  0  0  0  0  0  0
   57.8190   29.4770   46.0460 C   0  0  0  0  0  0  0  0  0  0  0  0
   57.7580   30.8670   46.3440 N   0  0  0  0  0  0  0  0  0  0  0  0
   58.0200   31.7820   45.4940 C   0  0  0  0  0  0  0  0  0  0  0  0
   57.7900   31.6000   44.2000 N   0  0  0  0  0  0  0  0  0  0  0  0
   58.0880   32.6010   43.3540 C   0  0  0  0  0  0  0  0  0  0  0  0
   57.7760   32.3380   41.6560 Cl  0  0  0  0  0  0  0  0  0  0  0  0
   58.6120   33.7800   43.7900 N   0  0  0  0  0  0  0  0  0  0  0  0
   58.8630   34.0100   45.0890 C   0  0  0  0  0  0  0  0  0  0  0  0
   59.3910   35.1850   45.5690 C   0  0  0  0  0  0  0  0  0  0  0  0
   59.6160   35.3380   46.9210 C   0  0  0  0  0  0  0  0  0  0  0  0
   59.3240   34.3340   47.8260 C   0  0  0  0  0  0  0  0  0  0  0  0
   58.7980   33.1710   47.3280 C   0  0  0  0  0  0  0  0  0  0  0  0
   58.5580   32.9820   45.9700 C   0  0  0  0  0  0  0  0  0  0  0  0
   54.8595   30.5362   43.2886 H   0  0  0  0  0  0  0  0  0  0  0  0
   56.5417   29.9847   42.9839 H   0  0  0  0  0  0  0  0  0  0  0  0
   55.1934   28.7978   42.9839 H   0  0  0  0  0  0  0  0  0  0  0  0
   56.2760   26.9132   44.5168 H   0  0  0  0  0  0  0  0  0  0  0  0
   58.2532   25.7019   45.3933 H   0  0  0  0  0  0  0  0  0  0  0  0
   59.9842   26.9267   46.7107 H   0  0  0  0  0  0  0  0  0  0  0  0
   59.6795   29.3468   47.1125 H   0  0  0  0  0  0  0  0  0  0  0  0
   57.3870   30.6900   43.8800 H   0  0  0  0  0  0  0  0  0  0  0  0
   59.6340   36.0030   44.8748 H   0  0  0  0  0  0  0  0  0  0  0  0
   60.0391   36.2842   47.2894 H   0  0  0  0  0  0  0  0  0  0  0  0
   59.5068   34.4639   48.9029 H   0  0  0  0  0  0  0  0  0  0  0  0
   58.5565   32.3567   48.0270 H   0  0  0  0  0  0  0  0  0  0  0  0
  1  2  1  0
  2  3  1  0
  3  4  2  0
  4  5  1  0
  5  6  2  0
  6  7  1  0
  7  8  2  0
  8  9  1  0
  9 10  2  0
 10 11  1  0
 11 12  1  0
 12 13  1  0
 12 14  2  0
 14 15  1  0
 15 16  2  0
 16 17  1  0
 17 18  2  0
 18 19  1  0
 19 20  2  0
  8  3  1  0
 20 10  1  0
 20 15  1  0
  1 21  1  0
  1 22  1  0
  1 23  1  0
  4 24  1  0
  5 25  1  0
  6 26  1  0
  7 27  1  0
 11 28  1  0
 16 29  1  0
 17 30  1  0
 18 31  1  0
 19 32  1  0
M  END
>  <smiles>  (41) 
COc1ccccc1N=c1[nH]c(Cl)nc2ccccc12

>  <score_type>  (41) 
oracle

>  <origin>  (41) 
adg

>  <m_score__min__energy>  (41) 
-7.3399999999999999

>  <m_primary>  (41) 
energy

$$$$
41:0
     RDKit          3D

 46 48  0  0  0  0  0  0  0  0999 V2000
   57.1468   24.8194   43.0643 H   0  0  0  0  0  0  0  0  0  0  0  0
   56.5800   24.3610   43.8880 C   0  0  0  0  0  0  0  0  0  0  0  0
   56.7960   24.7350   45.1110 N   0  0  0  0  0  0  0  0  0  0  0  0
   56.3020   25.9570   45.6790 C   0  0  0  0  0  0  0  0  0  0  0  0
   55.0790   26.0700   45.9730 O   0  0  0  0  0  0  0  0  0  0  0  0
   57.2280   27.0870   45.9250 C   0  0  0  0  0  0  0  0  0  0  0  0
   57.1510   28.2590   45.1520 C   0  0  0  0  0  0  0  0  0  0  0  0
   56.4006   28.3357   44.3514 H   0  0  0  0  0  0  0  0  0  0  0  0
   58.0200   29.3280   45.3920 C   0  0  0  0  0  0  0  0  0  0  0  0
   57.9469   30.2381   44.7786 H   0  0  0  0  0  0  0  0  0  0  0  0
   58.9850   29.2500   46.4090 C   0  0  0  0  0  0  0  0  0  0  0  0
   59.8940   30.3920   46.6650 C   0  0  0  0  0  0  0  0  0  0  0  0
   61.1960   30.2380   47.0180 N   0  0  0  0  0  0  0  0  0  0  0  0
   61.8150   31.4380   47.1690 C   0  0  0  0  0  0  0  0  0  0  0  0
   63.1570   31.5950   47.5200 C   0  0  0  0  0  0  0  0  0  0  0  0
   63.7934   30.7177   47.7078 H   0  0  0  0  0  0  0  0  0  0  0  0
   63.6800   32.8960   47.6290 C   0  0  0  0  0  0  0  0  0  0  0  0
   64.7355   33.0404   47.9028 H   0  0  0  0  0  0  0  0  0  0  0  0
   62.8580   34.0160   47.3890 C   0  0  0  0  0  0  0  0  0  0  0  0
   63.2765   35.0297   47.4740 H   0  0  0  0  0  0  0  0  0  0  0  0
   61.5080   33.8450   47.0420 C   0  0  0  0  0  0  0  0  0  0  0  0
   60.8576   34.7120   46.8539 H   0  0  0  0  0  0  0  0  0  0  0  0
   61.0170   32.5460   46.9430 C   0  0  0  0  0  0  0  0  0  0  0  0
   59.4740   32.0330   46.5360 S   0  0  0  0  0  0  0  0  0  0  0  0
   59.0700   28.0740   47.1760 C   0  0  0  0  0  0  0  0  0  0  0  0
   59.8268   27.9943   47.9703 H   0  0  0  0  0  0  0  0  0  0  0  0
   58.2000   27.0050   46.9370 C   0  0  0  0  0  0  0  0  0  0  0  0
   58.2772   26.0924   47.5463 H   0  0  0  0  0  0  0  0  0  0  0  0
   55.5530   23.2990   43.5960 C   0  0  0  0  0  0  0  0  0  0  0  0
   55.2228   23.4087   42.5525 H   0  0  0  0  0  0  0  0  0  0  0  0
   54.7251   23.4389   44.3067 H   0  0  0  0  0  0  0  0  0  0  0  0
   56.0700   21.9230   43.7850 N   0  0  0  0  0  0  0  0  0  0  0  0
   56.0790   21.5080   45.2080 C   0  0  0  0  0  0  0  0  0  0  0  0
   57.0216   21.8297   45.6749 H   0  0  0  0  0  0  0  0  0  0  0  0
   55.9880   20.4132   45.2644 H   0  0  0  0  0  0  0  0  0  0  0  0
   54.9070   22.1450   45.9470 C   0  0  0  0  0  0  0  0  0  0  0  0
   55.0668   22.0582   47.0319 H   0  0  0  0  0  0  0  0  0  0  0  0
   54.8333   23.2073   45.6711 H   0  0  0  0  0  0  0  0  0  0  0  0
   53.9755   21.6290   45.6711 H   0  0  0  0  0  0  0  0  0  0  0  0
   57.3790   21.7150   43.1240 C   0  0  0  0  0  0  0  0  0  0  0  0
   57.3913   20.7235   42.6477 H   0  0  0  0  0  0  0  0  0  0  0  0
   57.5256   22.4992   42.3667 H   0  0  0  0  0  0  0  0  0  0  0  0
   58.5090   21.7960   44.1470 C   0  0  0  0  0  0  0  0  0  0  0  0
   58.0872   21.7658   45.1625 H   0  0  0  0  0  0  0  0  0  0  0  0
   59.1913   20.9445   44.0079 H   0  0  0  0  0  0  0  0  0  0  0  0
   59.0629   22.7362   44.0079 H   0  0  0  0  0  0  0  0  0  0  0  0
  1  2  1  0
  2  3  2  0
  3  4  1  0
  4  5  2  0
  4  6  1  0
  6  7  2  0
  7  8  1  0
  7  9  1  0
  9 10  1  0
  9 11  2  0
 11 12  1  0
 12 13  2  0
 13 14  1  0
 14 15  2  0
 15 16  1  0
 15 17  1  0
 17 18  1  0
 17 19  2  0
 19 20  1  0
 19 21  1  0
 21 22  1  0
 21 23  2  0
 23 24  1  0
 11 25  1  0
 25 26  1  0
 25 27  2  0
 27 28  1  0
  2 29  1  0
 29 30  1  0
 29 31  1  0
 29 32  1  0
 32 33  1  0
 33 34  1  0
 33 35  1  0
 33 36  1  0
 36 37  1  0
 36 38  1  0
 36 39  1  0
 32 40  1  0
 40 41  1  0
 40 42  1  0
 40 43  1  0
 43 44  1  0
 43 45  1  0
 43 46  1  0
 27  6  1  0
 24 12  1  0
 23 14  1  0
M  END
>  <UniqueID>  (42) 
38

>  <SMILES>  (42) 
CCN(CC)C/C=N/C(=O)c1ccc(-c2nc3ccccc3s2)cc1

>  <Energy>  (42) 
83.69627707222698

>  <Genealogy>  (42) 
CCN(CC)C/C=N/C(=O)c1ccc(-c2nc3ccccc3s2)cc1 (cis-trans isomerization)
CCN(CC)C/C=N/C(=O)c1ccc(-c2nc3ccccc3s2)cc1 (3D coordinates assigned)
CCN(CC)C/C=N/C(=O)c1ccc(-c2nc3ccccc3s2)cc1 (optimized conformer: 83.69627707222698 kcal/mol)

>  <smiles>  (42) 
CCN(CC)CC=NC(=O)c1ccc(-c2nc3ccccc3s2)cc1

>  <score_type>  (42) 
oracle

>  <origin>  (42) 
adg

>  <m_score__min__energy>  (42) 
-7.8200000000000003

>  <m_primary>  (42) 
energy

$$$$
42:0
     RDKit          3D

 51 53  0  0  0  0  0  0  0  0999 V2000
   54.6574   21.7936   47.3131 H   0  0  0  0  0  0  0  0  0  0  0  0
   55.1100   22.7750   47.1080 C   0  0  0  0  0  0  0  0  0  0  0  0
   56.1630   23.2370   47.8990 C   0  0  0  0  0  0  0  0  0  0  0  0
   56.5363   22.6204   48.7300 H   0  0  0  0  0  0  0  0  0  0  0  0
   56.7450   24.4820   47.6380 C   0  0  0  0  0  0  0  0  0  0  0  0
   57.5717   24.8418   48.2682 H   0  0  0  0  0  0  0  0  0  0  0  0
   56.2790   25.2780   46.5730 C   0  0  0  0  0  0  0  0  0  0  0  0
   56.8730   26.6080   46.2820 C   0  0  0  0  0  0  0  0  0  0  0  0
   56.1540   27.5110   45.5720 N   0  0  0  0  0  0  0  0  0  0  0  0
   56.6300   28.7400   45.2540 C   0  0  0  0  0  0  0  0  0  0  0  0
   55.8170   29.5950   44.4990 C   0  0  0  0  0  0  0  0  0  0  0  0
   54.8018   29.2777   44.2184 H   0  0  0  0  0  0  0  0  0  0  0  0
   56.2860   30.8430   44.1020 C   0  0  0  0  0  0  0  0  0  0  0  0
   55.6363   31.5183   43.5259 H   0  0  0  0  0  0  0  0  0  0  0  0
   57.5780   31.2350   44.4350 C   0  0  0  0  0  0  0  0  0  0  0  0
   57.9549   32.2132   44.1018 H   0  0  0  0  0  0  0  0  0  0  0  0
   58.4010   30.3950   45.1900 C   0  0  0  0  0  0  0  0  0  0  0  0
   59.4284   30.7117   45.4228 H   0  0  0  0  0  0  0  0  0  0  0  0
   57.9350   29.1420   45.6610 C   0  0  0  0  0  0  0  0  0  0  0  0
   58.6910   28.2260   46.4690 C   0  0  0  0  0  0  0  0  0  0  0  0
   59.8290   28.4770   47.0650 N   0  0  0  0  0  0  0  0  0  0  0  0
   60.1790   28.7510   48.4540 C   0  0  0  0  0  0  0  0  0  0  0  0
   60.9891   28.0758   48.7666 H   0  0  0  0  0  0  0  0  0  0  0  0
   59.2962   28.5894   49.0900 H   0  0  0  0  0  0  0  0  0  0  0  0
   60.6450   30.2040   48.5940 C   0  0  0  0  0  0  0  0  0  0  0  0
   61.6115   30.2131   49.1191 H   0  0  0  0  0  0  0  0  0  0  0  0
   59.8685   30.7461   49.1536 H   0  0  0  0  0  0  0  0  0  0  0  0
   60.8160   30.9130   47.2410 C   0  0  0  0  0  0  0  0  0  0  0  0
   59.8444   30.9519   46.7267 H   0  0  0  0  0  0  0  0  0  0  0  0
   61.5425   30.3532   46.6337 H   0  0  0  0  0  0  0  0  0  0  0  0
   61.3190   32.2950   47.4420 N   0  0  0  0  0  0  0  0  0  0  0  0
   60.7190   33.2820   46.5190 C   0  0  0  0  0  0  0  0  0  0  0  0
   60.4853   32.7865   45.5651 H   0  0  0  0  0  0  0  0  0  0  0  0
   61.4394   34.0986   46.3634 H   0  0  0  0  0  0  0  0  0  0  0  0
   59.4370   33.8700   47.1030 C   0  0  0  0  0  0  0  0  0  0  0  0
   59.4897   33.8458   48.2015 H   0  0  0  0  0  0  0  0  0  0  0  0
   59.3232   34.9103   46.7642 H   0  0  0  0  0  0  0  0  0  0  0  0
   58.5743   33.2776   46.7642 H   0  0  0  0  0  0  0  0  0  0  0  0
   62.7980   32.3710   47.4740 C   0  0  0  0  0  0  0  0  0  0  0  0
   63.1227   32.3777   48.5250 H   0  0  0  0  0  0  0  0  0  0  0  0
   63.1767   31.4974   46.9232 H   0  0  0  0  0  0  0  0  0  0  0  0
   63.3670   33.6180   46.7830 C   0  0  0  0  0  0  0  0  0  0  0  0
   63.6967   34.3406   47.5440 H   0  0  0  0  0  0  0  0  0  0  0  0
   64.2231   33.3307   46.1549 H   0  0  0  0  0  0  0  0  0  0  0  0
   62.5889   34.0763   46.1549 H   0  0  0  0  0  0  0  0  0  0  0  0
   58.1550   26.9560   46.7220 C   0  0  0  0  0  0  0  0  0  0  0  0
   58.7535   26.2186   47.2771 H   0  0  0  0  0  0  0  0  0  0  0  0
   55.2080   24.8060   45.7910 C   0  0  0  0  0  0  0  0  0  0  0  0
   54.8218   25.4219   44.9655 H   0  0  0  0  0  0  0  0  0  0  0  0
   54.6310   23.5590   46.0560 C   0  0  0  0  0  0  0  0  0  0  0  0
   53.7990   23.1957   45.4349 H   0  0  0  0  0  0  0  0  0  0  0  0
  1  2  1  0
  2  3  2  0
  3  4  1  0
  3  5  1  0
  5  6  1  0
  5  7  2  0
  7  8  1  0
  8  9  1  0
  9 10  1  0
 10 11  2  0
 11 12  1  0
 11 13  1  0
 13 14  1  0
 13 15  2  0
 15 16  1  0
 15 17  1  0
 17 18  1  0
 17 19  2  0
 19 20  1  0
 20 21  2  0
 21 22  1  0
 22 23  1  0
 22 24  1  0
 22 25  1  0
 25 26  1  0
 25 27  1  0
 25 28  1  0
 28 29  1  0
 28 30  1  0
 28 31  1  0
 31 32  1  0
 32 33  1  0
 32 34  1  0
 32 35  1  0
 35 36  1  0
 35 37  1  0
 35 38  1  0
 31 39  1  0
 39 40  1  0
 39 41  1  0
 39 42  1  0
 42 43  1  0
 42 44  1  0
 42 45  1  0
 20 46  1  0
 46 47  1  0
  7 48  1  0
 48 49  1  0
 48 50  2  0
 50 51  1  0
 50  2  1  0
 46  8  2  0
 19 10  1  0
M  CHG  1   9  -1
M  END
>  <UniqueID>  (43) 
39

>  <SMILES>  (43) 
CCN(CC)CCC/N=c1/cc(-c2ccccc2)[n-]c2ccccc12

>  <Energy>  (43) 
71.89226576766907

>  <Genealogy>  (43) 
CCN(CC)CCCN=c1cc(-c2ccccc2)[n-]c2ccccc12 (protonated)
CCN(CC)CCC/N=c1/cc(-c2ccccc2)[n-]c2ccccc12 (cis-trans isomerization)
CCN(CC)CCC/N=c1/cc(-c2ccccc2)[n-]c2ccccc12 (3D coordinates assigned)
CCN(CC)CCC/N=c1/cc(-c2ccccc2)[n-]c2ccccc12 (optimized conformer: 71.89226576766907 kcal/mol)

>  <smiles>  (43) 
CCN(CC)CCCN=c1cc(-c2ccccc2)[nH]c2ccccc12

>  <score_type>  (43) 
oracle

>  <origin>  (43) 
adg

>  <m_score__min__energy>  (43) 
-8.5399999999999991

>  <m_primary>  (43) 
energy

$$$$
43:0
     RDKit          3D

 38 40  0  0  0  0  0  0  0  0999 V2000
   59.5430   28.2100   44.6480 C   0  0  0  0  0  0  0  0  0  0  0  0
   60.4700   29.3340   45.1050 C   0  0  0  0  0  0  0  0  0  0  0  0
   59.9520   30.0410   46.2920 N   0  0  0  0  0  0  0  0  0  0  0  0
   59.2220   29.2550   47.2980 C   0  0  0  0  0  0  0  0  0  0  0  0
   58.9210   30.0960   48.5350 C   0  0  0  0  0  0  0  0  0  0  0  0
   60.5510   31.2870   46.7120 C   0  0  0  0  0  0  0  0  0  0  0  0
   61.6600   31.2660   47.5150 N   0  0  0  0  0  0  0  0  0  0  0  0
   62.1960   32.4100   48.0330 C   0  0  0  0  0  0  0  0  0  0  0  0
   61.6260   33.6160   47.7780 N   0  0  0  0  0  0  0  0  0  0  0  0
   60.5320   33.6670   46.9840 C   0  0  0  0  0  0  0  0  0  0  0  0
   59.6800   35.0460   46.5690 S   0  0  0  0  0  0  0  0  0  0  0  0
   58.5570   34.2300   45.6100 C   0  0  0  0  0  0  0  0  0  0  0  0
   58.8540   32.8650   45.5990 C   0  0  0  0  0  0  0  0  0  0  0  0
   58.1160   31.9390   44.7260 C   0  0  0  0  0  0  0  0  0  0  0  0
   58.0600   32.1720   43.3470 C   0  0  0  0  0  0  0  0  0  0  0  0
   57.3470   31.3040   42.5140 C   0  0  0  0  0  0  0  0  0  0  0  0
   56.6670   30.2110   43.0610 C   0  0  0  0  0  0  0  0  0  0  0  0
   55.9750   29.3690   42.2540 F   0  0  0  0  0  0  0  0  0  0  0  0
   56.6890   29.9950   44.4430 C   0  0  0  0  0  0  0  0  0  0  0  0
   57.4020   30.8640   45.2760 C   0  0  0  0  0  0  0  0  0  0  0  0
   59.9710   32.5410   46.4080 C   0  0  0  0  0  0  0  0  0  0  0  0
   59.1229   27.7006   45.5278 H   0  0  0  0  0  0  0  0  0  0  0  0
   58.7262   28.6313   44.0435 H   0  0  0  0  0  0  0  0  0  0  0  0
   60.1120   27.4884   44.0435 H   0  0  0  0  0  0  0  0  0  0  0  0
   61.4524   28.9043   45.3503 H   0  0  0  0  0  0  0  0  0  0  0  0
   60.5433   30.0634   44.2849 H   0  0  0  0  0  0  0  0  0  0  0  0
   58.2749   28.9038   46.8624 H   0  0  0  0  0  0  0  0  0  0  0  0
   59.8477   28.4015   47.5979 H   0  0  0  0  0  0  0  0  0  0  0  0
   59.1320   29.5065   49.4394 H   0  0  0  0  0  0  0  0  0  0  0  0
   59.5526   30.9966   48.5287 H   0  0  0  0  0  0  0  0  0  0  0  0
   57.8614   30.3913   48.5287 H   0  0  0  0  0  0  0  0  0  0  0  0
   62.1000   30.3580   47.7810 H   0  0  0  0  0  0  0  0  0  0  0  0
   63.0968   32.3544   48.6619 H   0  0  0  0  0  0  0  0  0  0  0  0
   57.7190   34.7009   45.0751 H   0  0  0  0  0  0  0  0  0  0  0  0
   58.5789   33.0413   42.9168 H   0  0  0  0  0  0  0  0  0  0  0  0
   57.3210   31.4808   41.4286 H   0  0  0  0  0  0  0  0  0  0  0  0
   56.1456   29.1417   44.8749 H   0  0  0  0  0  0  0  0  0  0  0  0
   57.4027   30.7040   46.3643 H   0  0  0  0  0  0  0  0  0  0  0  0
  1  2  1  0
  2  3  1  0
  3  4  1  0
  4  5  1  0
  3  6  1  0
  6  7  2  0
  7  8  1  0
  8  9  2  0
  9 10  1  0
 10 11  1  0
 11 12  1  0
 12 13  2  0
 13 14  1  0
 14 15  2  0
 15 16  1  0
 16 17  2  0
 17 18  1  0
 17 19  1  0
 19 20  2  0
 13 21  1  0
 21  6  1  0
 21 10  2  0
 20 14  1  0
  1 22  1  0
  1 23  1  0
  1 24  1  0
  2 25  1  0
  2 26  1  0
  4 27  1  0
  4 28  1  0
  5 29  1  0
  5 30  1  0
  5 31  1  0
  7 32  1  0
  8 33  1  0
 12 34  1  0
 15 35  1  0
 16 36  1  0
 19 37  1  0
 20 38  1  0
M  CHG  1   7   1
M  END
>  <UniqueID>  (44) 
40

>  <SMILES>  (44) 
CCN(CC)c1[nH+]cnc2scc(-c3ccc(F)cc3)c12

>  <Energy>  (44) 
80.07687186522568

>  <Genealogy>  (44) 
CCN(CC)c1[nH+]cnc2scc(-c3ccc(F)cc3)c12 (protonated)
CCN(CC)c1[nH+]cnc2scc(-c3ccc(F)cc3)c12 (3D coordinates assigned)
CCN(CC)c1[nH+]cnc2scc(-c3ccc(F)cc3)c12 (optimized conformer: 80.07687186522568 kcal/mol)

>  <smiles>  (44) 
CCN(CC)c1ncnc2scc(-c3ccc(F)cc3)c12

>  <score_type>  (44) 
oracle

>  <origin>  (44) 
adg

>  <m_score__min__energy>  (44) 
-5.0700000000000003

>  <m_primary>  (44) 
energy

$$$$
44:0
     RDKit          3D

 57 60  0  0  0  0  0  0  0  0999 V2000
   66.6620   32.6660   50.1510 C   0  0  0  0  0  0  0  0  0  0  0  0
   65.5080   31.9750   49.6830 O   0  0  0  0  0  0  0  0  0  0  0  0
   64.2260   32.5370   49.6000 C   0  0  0  0  0  0  0  0  0  0  0  0
   63.9350   33.8180   50.0970 C   0  0  0  0  0  0  0  0  0  0  0  0
   62.6430   34.3340   49.9990 C   0  0  0  0  0  0  0  0  0  0  0  0
   61.6220   33.5850   49.4000 C   0  0  0  0  0  0  0  0  0  0  0  0
   60.3250   34.1130   49.3210 C   0  0  0  0  0  0  0  0  0  0  0  0
   59.2990   33.3710   48.7420 C   0  0  0  0  0  0  0  0  0  0  0  0
   59.5540   32.1030   48.2220 C   0  0  0  0  0  0  0  0  0  0  0  0
   60.8490   31.5530   48.2630 C   0  0  0  0  0  0  0  0  0  0  0  0
   61.0500   30.1680   47.6810 C   0  0  0  0  0  0  0  0  0  0  0  0
   59.7010   29.4430   47.5170 C   0  0  0  0  0  0  0  0  0  0  0  0
   59.8040   28.1980   46.7080 N   0  0  0  0  0  0  0  0  0  0  0  0
   58.4990   27.4830   46.6630 C   0  0  0  0  0  0  0  0  0  0  0  0
   57.6330   27.8160   45.4250 C   0  0  0  0  0  0  0  0  0  0  0  0
   58.0130   29.1030   44.8210 N   0  0  0  0  0  0  0  0  0  0  0  0
   57.0010   30.0510   44.4110 C   0  0  0  0  0  0  0  0  0  0  0  0
   55.8130   29.9130   44.8190 O   0  0  0  0  0  0  0  0  0  0  0  0
   57.3480   31.2540   43.5650 C   0  0  0  0  0  0  0  0  0  0  0  0
   57.7300   32.4440   44.4080 C   0  0  0  0  0  0  0  0  0  0  0  0
   58.8020   33.2710   44.0390 C   0  0  0  0  0  0  0  0  0  0  0  0
   59.1590   34.3520   44.8480 C   0  0  0  0  0  0  0  0  0  0  0  0
   58.4480   34.5900   46.0250 C   0  0  0  0  0  0  0  0  0  0  0  0
   57.4200   33.7720   46.3780 N   0  0  0  0  0  0  0  0  0  0  0  0
   57.0520   32.7150   45.6070 C   0  0  0  0  0  0  0  0  0  0  0  0
   59.4320   29.3450   44.5230 C   0  0  0  0  0  0  0  0  0  0  0  0
   60.3350   28.4120   45.3410 C   0  0  0  0  0  0  0  0  0  0  0  0
   61.8980   32.2920   48.8790 C   0  0  0  0  0  0  0  0  0  0  0  0
   63.2100   31.7840   48.9990 C   0  0  0  0  0  0  0  0  0  0  0  0
   66.6667   32.6688   51.2510 H   0  0  0  0  0  0  0  0  0  0  0  0
   67.5667   32.1609   49.7817 H   0  0  0  0  0  0  0  0  0  0  0  0
   66.6439   33.7020   49.7817 H   0  0  0  0  0  0  0  0  0  0  0  0
   64.7297   34.4170   50.5657 H   0  0  0  0  0  0  0  0  0  0  0  0
   62.4241   35.3366   50.3950 H   0  0  0  0  0  0  0  0  0  0  0  0
   60.1175   35.1176   49.7182 H   0  0  0  0  0  0  0  0  0  0  0  0
   58.2820   33.7875   48.6946 H   0  0  0  0  0  0  0  0  0  0  0  0
   58.7325   31.5248   47.7738 H   0  0  0  0  0  0  0  0  0  0  0  0
   61.5337   30.2569   46.6970 H   0  0  0  0  0  0  0  0  0  0  0  0
   61.6824   29.5855   48.3671 H   0  0  0  0  0  0  0  0  0  0  0  0
   59.3199   29.1817   48.5153 H   0  0  0  0  0  0  0  0  0  0  0  0
   59.0231   30.1262   46.9843 H   0  0  0  0  0  0  0  0  0  0  0  0
   60.4800   27.5680   47.2040 H   0  0  0  0  0  0  0  0  0  0  0  0
   58.6987   26.4013   46.6629 H   0  0  0  0  0  0  0  0  0  0  0  0
   57.9288   27.8124   47.5441 H   0  0  0  0  0  0  0  0  0  0  0  0
   57.7611   27.0201   44.6766 H   0  0  0  0  0  0  0  0  0  0  0  0
   56.5849   27.8881   45.7509 H   0  0  0  0  0  0  0  0  0  0  0  0
   58.1935   30.9961   42.9103 H   0  0  0  0  0  0  0  0  0  0  0  0
   56.4586   31.5247   42.9770 H   0  0  0  0  0  0  0  0  0  0  0  0
   59.3606   33.0680   43.1134 H   0  0  0  0  0  0  0  0  0  0  0  0
   59.9926   35.0095   44.5602 H   0  0  0  0  0  0  0  0  0  0  0  0
   58.7192   35.4402   46.6682 H   0  0  0  0  0  0  0  0  0  0  0  0
   56.2196   32.0693   45.9237 H   0  0  0  0  0  0  0  0  0  0  0  0
   59.6094   29.1685   43.4518 H   0  0  0  0  0  0  0  0  0  0  0  0
   59.6724   30.3851   44.7883 H   0  0  0  0  0  0  0  0  0  0  0  0
   60.4026   27.4411   44.8284 H   0  0  0  0  0  0  0  0  0  0  0  0
   61.3262   28.8812   45.4268 H   0  0  0  0  0  0  0  0  0  0  0  0
   63.4378   30.7792   48.6136 H   0  0  0  0  0  0  0  0  0  0  0  0
  1  2  1  0
  2  3  1  0
  3  4  2  0
  4  5  1  0
  5  6  2  0
  6  7  1  0
  7  8  2  0
  8  9  1  0
  9 10  2  0
 10 11  1  0
 11 12  1  0
 12 13  1  0
 13 14  1  0
 14 15  1  0
 15 16  1  0
 16 17  1  0
 17 18  2  0
 17 19  1  0
 19 20  1  0
 20 21  2  0
 21 22  1  0
 22 23  2  0
 23 24  1  0
 24 25  2  0
 16 26  1  0
 26 27  1  0
 10 28  1  0
 28 29  2  0
 29  3  1  0
 28  6  1  0
 27 13  1  0
 25 20  1  0
  1 30  1  0
  1 31  1  0
  1 32  1  0
  4 33  1  0
  5 34  1  0
  7 35  1  0
  8 36  1  0
  9 37  1  0
 11 38  1  0
 11 39  1  0
 12 40  1  0
 12 41  1  0
 13 42  1  0
 14 43  1  0
 14 44  1  0
 15 45  1  0
 15 46  1  0
 19 47  1  0
 19 48  1  0
 21 49  1  0
 22 50  1  0
 23 51  1  0
 25 52  1  0
 26 53  1  0
 26 54  1  0
 27 55  1  0
 27 56  1  0
 29 57  1  0
M  CHG  1  13   1
M  END
>  <UniqueID>  (45) 
41

>  <SMILES>  (45) 
COc1ccc2cccc(CC[NH+]3CCN(C(=O)Cc4cccnc4)CC3)c2c1

>  <Energy>  (45) 
75.00266402542431

>  <Genealogy>  (45) 
COc1ccc2cccc(CC[NH+]3CCN(C(=O)Cc4cccnc4)CC3)c2c1 (protonated)
COc1ccc2cccc(CC[NH+]3CCN(C(=O)Cc4cccnc4)CC3)c2c1 (3D coordinates assigned)
COc1ccc2cccc(CC[NH+]3CCN(C(=O)Cc4cccnc4)CC3)c2c1 (nonaromatic ring conformer: 75.00266402542431 kcal/mol)

>  <smiles>  (45) 
COc1ccc2cccc(CCN3CCN(C(=O)Cc4cccnc4)CC3)c2c1

>  <score_type>  (45) 
oracle

>  <origin>  (45) 
adg

>  <m_score__min__energy>  (45) 
-7.3600000000000003

>  <m_primary>  (45) 
energy

$$$$
45:0
     RDKit          3D

 67 72  0  0  0  0  0  0  0  0999 V2000
   57.8200   32.3360   50.1510 O   0  0  0  0  0  0  0  0  0  0  0  0
   58.9780   32.7280   50.1340 C   0  0  0  0  0  0  0  0  0  0  0  0
   59.4410   33.6410   51.2400 C   0  0  0  0  0  0  0  0  0  0  0  0
   60.7910   33.1840   51.7980 C   0  0  0  0  0  0  0  0  0  0  0  0
   61.8170   32.7780   50.7040 C   0  0  2  0  0  0  0  0  0  0  0  0
   63.1540   33.5220   50.8760 C   0  0  0  0  0  0  0  0  0  0  0  0
   64.0920   33.1950   49.7890 N   0  0  0  0  0  0  0  0  0  0  0  0
   65.5260   33.4570   50.0130 C   0  0  0  0  0  0  0  0  0  0  0  0
   65.8560   33.8590   51.4470 C   0  0  0  0  0  0  0  0  0  0  0  0
   66.7050   32.6010   51.5960 C   0  0  0  0  0  0  0  0  0  0  0  0
   66.3780   32.1970   50.1630 C   0  0  0  0  0  0  0  0  0  0  0  0
   63.5960   32.7370   48.5090 C   0  0  0  0  0  0  0  0  0  0  0  0
   62.3230   32.6210   48.2820 N   0  0  0  0  0  0  0  0  0  0  0  0
   61.3100   33.0220   49.2580 C   0  0  1  0  0  0  0  0  0  0  0  0
   59.9030   32.3880   48.9520 C   0  0  2  0  0  0  0  0  0  0  0  0
   59.3960   33.0630   47.6580 C   0  0  0  0  0  0  0  0  0  0  0  0
   58.0640   32.8590   47.2250 C   0  0  0  0  0  0  0  0  0  0  0  0
   57.6010   33.4280   46.0360 C   0  0  0  0  0  0  0  0  0  0  0  0
   58.4580   34.1890   45.2430 C   0  0  0  0  0  0  0  0  0  0  0  0
   59.7880   34.3670   45.6260 C   0  0  0  0  0  0  0  0  0  0  0  0
   60.2590   33.8000   46.8130 C   0  0  0  0  0  0  0  0  0  0  0  0
   59.8750   30.8440   48.7640 C   0  0  0  0  0  0  0  0  0  0  0  0
   59.7600   29.9130   49.8230 C   0  0  0  0  0  0  0  0  0  0  0  0
   59.7390   28.5400   49.5740 C   0  0  0  0  0  0  0  0  0  0  0  0
   59.8380   28.0570   48.2720 C   0  0  0  0  0  0  0  0  0  0  0  0
   59.9780   28.9390   47.2020 C   0  0  0  0  0  0  0  0  0  0  0  0
   60.0790   28.4020   45.9070 O   0  0  0  0  0  0  0  0  0  0  0  0
   59.9470   29.1440   44.6920 C   0  0  0  0  0  0  0  0  0  0  0  0
   58.5260   29.6030   44.4840 C   0  0  0  0  0  0  0  0  0  0  0  0
   57.4550   28.8530   45.0000 C   0  0  0  0  0  0  0  0  0  0  0  0
   56.1380   29.2800   44.8090 C   0  0  0  0  0  0  0  0  0  0  0  0
   55.8810   30.4660   44.1140 C   0  0  0  0  0  0  0  0  0  0  0  0
   56.9410   31.2270   43.6120 C   0  0  0  0  0  0  0  0  0  0  0  0
   58.2600   30.8010   43.8000 C   0  0  0  0  0  0  0  0  0  0  0  0
   60.0140   30.3220   47.4550 C   0  0  0  0  0  0  0  0  0  0  0  0
   59.5421   34.6626   50.8448 H   0  0  0  0  0  0  0  0  0  0  0  0
   58.6986   33.6139   52.0513 H   0  0  0  0  0  0  0  0  0  0  0  0
   61.2198   34.0083   52.3868 H   0  0  0  0  0  0  0  0  0  0  0  0
   60.5994   32.2875   52.4059 H   0  0  0  0  0  0  0  0  0  0  0  0
   61.9594   31.6962   50.8433 H   0  0  0  0  0  0  0  0  0  0  0  0
   62.9643   34.6055   50.8717 H   0  0  0  0  0  0  0  0  0  0  0  0
   63.6050   33.2096   51.8294 H   0  0  0  0  0  0  0  0  0  0  0  0
   65.7125   34.1509   49.1801 H   0  0  0  0  0  0  0  0  0  0  0  0
   66.4232   34.7976   51.5323 H   0  0  0  0  0  0  0  0  0  0  0  0
   65.0524   34.0798   52.1650 H   0  0  0  0  0  0  0  0  0  0  0  0
   67.7724   32.7999   51.7723 H   0  0  0  0  0  0  0  0  0  0  0  0
   66.5171   31.9019   52.4242 H   0  0  0  0  0  0  0  0  0  0  0  0
   67.2509   32.1611   49.4946 H   0  0  0  0  0  0  0  0  0  0  0  0
   65.9552   31.2056   49.9432 H   0  0  0  0  0  0  0  0  0  0  0  0
   64.3113   32.4823   47.7131 H   0  0  0  0  0  0  0  0  0  0  0  0
   61.1476   34.1061   49.1668 H   0  0  0  0  0  0  0  0  0  0  0  0
   57.3841   32.2441   47.8329 H   0  0  0  0  0  0  0  0  0  0  0  0
   56.5571   33.2749   45.7248 H   0  0  0  0  0  0  0  0  0  0  0  0
   58.0862   34.6491   44.3156 H   0  0  0  0  0  0  0  0  0  0  0  0
   60.4674   34.9553   44.9917 H   0  0  0  0  0  0  0  0  0  0  0  0
   61.3147   33.9283   47.0943 H   0  0  0  0  0  0  0  0  0  0  0  0
   59.6860   30.2769   50.8584 H   0  0  0  0  0  0  0  0  0  0  0  0
   59.6435   27.8344   50.4124 H   0  0  0  0  0  0  0  0  0  0  0  0
   59.8055   26.9732   48.0868 H   0  0  0  0  0  0  0  0  0  0  0  0
   60.6054   30.0241   44.7359 H   0  0  0  0  0  0  0  0  0  0  0  0
   60.2279   28.4905   43.8530 H   0  0  0  0  0  0  0  0  0  0  0  0
   57.6544   27.9255   45.5568 H   0  0  0  0  0  0  0  0  0  0  0  0
   55.3034   28.6831   45.2054 H   0  0  0  0  0  0  0  0  0  0  0  0
   54.8441   30.8004   43.9622 H   0  0  0  0  0  0  0  0  0  0  0  0
   56.7375   32.1616   43.0687 H   0  0  0  0  0  0  0  0  0  0  0  0
   59.0920   31.4062   43.4109 H   0  0  0  0  0  0  0  0  0  0  0  0
   60.1539   31.0167   46.6137 H   0  0  0  0  0  0  0  0  0  0  0  0
  1  2  2  0
  2  3  1  0
  3  4  1  0
  4  5  1  0
  5  6  1  0
  6  7  1  0
  7  8  1  0
  8  9  1  0
  9 10  1  0
 10 11  1  0
  7 12  1  0
 12 13  2  0
 13 14  1  0
 14 15  1  0
 15 16  1  6
 16 17  2  0
 17 18  1  0
 18 19  2  0
 19 20  1  0
 20 21  2  0
 15 22  1  0
 22 23  2  0
 23 24  1  0
 24 25  2  0
 25 26  1  0
 26 27  1  0
 27 28  1  0
 28 29  1  0
 29 30  2  0
 30 31  1  0
 31 32  2  0
 32 33  1  0
 33 34  2  0
 26 35  2  0
 15  2  1  0
 21 16  1  0
 35 22  1  0
 14  5  1  0
 34 29  1  0
 11  8  1  0
  3 36  1  0
  3 37  1  0
  4 38  1  0
  4 39  1  0
  5 40  1  6
  6 41  1  0
  6 42  1  0
  8 43  1  0
  9 44  1  0
  9 45  1  0
 10 46  1  0
 10 47  1  0
 11 48  1  0
 11 49  1  0
 12 50  1  0
 14 51  1  1
 17 52  1  0
 18 53  1  0
 19 54  1  0
 20 55  1  0
 21 56  1  0
 23 57  1  0
 24 58  1  0
 25 59  1  0
 28 60  1  0
 28 61  1  0
 30 62  1  0
 31 63  1  0
 32 64  1  0
 33 65  1  0
 34 66  1  0
 35 67  1  0
M  END
>  <UniqueID>  (46) 
42

>  <SMILES>  (46) 
O=C1CC[C@@H]2CN(C3CCC3)C=N[C@H]2C1(c1ccccc1)c1cccc(OCc2ccccc2)c1

>  <Energy>  (46) 
152.8266687753995

>  <Genealogy>  (46) 
O=C1CC[C@@H]2CN(C3CCC3)C=N[C@H]2C1(c1ccccc1)c1cccc(OCc2ccccc2)c1 (chirality)
O=C1CC[C@@H]2CN(C3CCC3)C=N[C@H]2C1(c1ccccc1)c1cccc(OCc2ccccc2)c1 (3D coordinates assigned)
O=C1CC[C@@H]2CN(C3CCC3)C=N[C@H]2C1(c1ccccc1)c1cccc(OCc2ccccc2)c1 (nonaromatic ring conformer: 152.8266687753995 kcal/mol)

>  <smiles>  (46) 
O=C1CCC2CN(C3CCC3)C=NC2C1(c1ccccc1)c1cccc(OCc2ccccc2)c1

>  <score_type>  (46) 
oracle

>  <origin>  (46) 
adg

>  <m_score__min__energy>  (46) 
-10.24

>  <m_primary>  (46) 
energy

$$$$
46:0
     RDKit          3D

 45 45  0  0  0  0  0  0  0  0999 V2000
   59.0680   29.7280   44.8650 C   0  0  0  0  0  0  0  0  0  0  0  0
   57.8520   30.1340   45.6960 C   0  0  0  0  0  0  0  0  0  0  0  0
   56.8570   30.8720   44.8870 N   0  0  0  0  0  0  0  0  0  0  0  0
   55.8830   30.0430   44.1370 C   0  0  0  0  0  0  0  0  0  0  0  0
   56.3140   29.6940   42.7100 C   0  0  0  0  0  0  0  0  0  0  0  0
   57.3920   32.0350   44.1360 C   0  0  0  0  0  0  0  0  0  0  0  0
   57.4150   33.3580   44.9330 C   0  0  0  0  0  0  0  0  0  0  0  0
   58.4430   33.3040   45.9710 N   0  0  0  0  0  0  0  0  0  0  0  0
   59.4940   34.2820   46.0660 C   0  0  0  0  0  0  0  0  0  0  0  0
   59.4820   35.2850   45.3020 O   0  0  0  0  0  0  0  0  0  0  0  0
   60.5850   34.1420   47.0600 C   0  0  0  0  0  0  0  0  0  0  0  0
   60.3460   34.3130   48.4350 C   0  0  0  0  0  0  0  0  0  0  0  0
   61.3840   34.1730   49.3590 C   0  0  0  0  0  0  0  0  0  0  0  0
   62.6840   33.8550   48.9330 C   0  0  0  0  0  0  0  0  0  0  0  0
   63.8020   33.7050   49.9480 C   0  0  0  0  0  0  0  0  0  0  0  0
   64.8480   32.6890   49.4730 C   0  0  0  0  0  0  0  0  0  0  0  0
   63.2500   33.3260   51.3270 C   0  0  0  0  0  0  0  0  0  0  0  0
   62.9220   33.6720   47.5580 C   0  0  0  0  0  0  0  0  0  0  0  0
   61.8830   33.8100   46.6340 C   0  0  0  0  0  0  0  0  0  0  0  0
   59.8949   29.4519   45.5358 H   0  0  0  0  0  0  0  0  0  0  0  0
   58.8079   28.8680   44.2304 H   0  0  0  0  0  0  0  0  0  0  0  0
   59.3767   30.5718   44.2304 H   0  0  0  0  0  0  0  0  0  0  0  0
   57.3793   29.2276   46.1022 H   0  0  0  0  0  0  0  0  0  0  0  0
   58.1952   30.7963   46.5045 H   0  0  0  0  0  0  0  0  0  0  0  0
   55.7329   29.1041   44.6901 H   0  0  0  0  0  0  0  0  0  0  0  0
   54.9642   30.6415   44.0493 H   0  0  0  0  0  0  0  0  0  0  0  0
   57.1685   29.0021   42.7439 H   0  0  0  0  0  0  0  0  0  0  0  0
   55.4764   29.2166   42.1804 H   0  0  0  0  0  0  0  0  0  0  0  0
   56.6068   30.6126   42.1804 H   0  0  0  0  0  0  0  0  0  0  0  0
   58.4221   31.8011   43.8291 H   0  0  0  0  0  0  0  0  0  0  0  0
   56.7146   32.1952   43.2843 H   0  0  0  0  0  0  0  0  0  0  0  0
   57.6332   34.1909   44.2484 H   0  0  0  0  0  0  0  0  0  0  0  0
   56.4338   33.5088   45.4069 H   0  0  0  0  0  0  0  0  0  0  0  0
   58.3840   32.5320   46.6700 H   0  0  0  0  0  0  0  0  0  0  0  0
   59.3330   34.5591   48.7860 H   0  0  0  0  0  0  0  0  0  0  0  0
   61.1813   34.3132   50.4310 H   0  0  0  0  0  0  0  0  0  0  0  0
   64.3011   34.6806   50.0431 H   0  0  0  0  0  0  0  0  0  0  0  0
   65.3285   32.2223   50.3455 H   0  0  0  0  0  0  0  0  0  0  0  0
   64.3571   31.9137   48.8664 H   0  0  0  0  0  0  0  0  0  0  0  0
   65.6087   33.2022   48.8664 H   0  0  0  0  0  0  0  0  0  0  0  0
   63.8871   33.7634   52.1098 H   0  0  0  0  0  0  0  0  0  0  0  0
   62.2250   33.7117   51.4303 H   0  0  0  0  0  0  0  0  0  0  0  0
   63.2418   32.2309   51.4303 H   0  0  0  0  0  0  0  0  0  0  0  0
   63.9336   33.4184   47.2081 H   0  0  0  0  0  0  0  0  0  0  0  0
   62.0825   33.6574   45.5631 H   0  0  0  0  0  0  0  0  0  0  0  0
  1  2  1  0
  2  3  1  0
  3  4  1  0
  4  5  1  0
  3  6  1  0
  6  7  1  0
  7  8  1  0
  8  9  1  0
  9 10  2  0
  9 11  1  0
 11 12  2  0
 12 13  1  0
 13 14  2  0
 14 15  1  0
 15 16  1  0
 15 17  1  0
 14 18  1  0
 18 19  2  0
 19 11  1  0
  1 20  1  0
  1 21  1  0
  1 22  1  0
  2 23  1  0
  2 24  1  0
  4 25  1  0
  4 26  1  0
  5 27  1  0
  5 28  1  0
  5 29  1  0
  6 30  1  0
  6 31  1  0
  7 32  1  0
  7 33  1  0
  8 34  1  0
 12 35  1  0
 13 36  1  0
 15 37  1  0
 16 38  1  0
 16 39  1  0
 16 40  1  0
 17 41  1  0
 17 42  1  0
 17 43  1  0
 18 44  1  0
 19 45  1  0
M  END
>  <UniqueID>  (47) 
43

>  <SMILES>  (47) 
CCN(CC)CCNC(=O)c1ccc(C(C)C)cc1

>  <Energy>  (47) 
44.27559128120458

>  <Genealogy>  (47) 
CCN(CC)CCNC(=O)c1ccc(C(C)C)cc1 (3D coordinates assigned)
CCN(CC)CCNC(=O)c1ccc(C(C)C)cc1 (optimized conformer: 44.27559128120458 kcal/mol)

>  <smiles>  (47) 
CCN(CC)CCNC(=O)c1ccc(C(C)C)cc1

>  <score_type>  (47) 
oracle

>  <origin>  (47) 
adg

>  <m_score__min__energy>  (47) 
-6.5099999999999998

>  <m_primary>  (47) 
energy

$$$$
