0:0
     RDKit          3D

 37 39  0  0  0  0  0  0  0  0999 V2000
   55.6180   30.6700   44.5250 O   0  0  0  0  0  0  0  0  0  0  0  0
   56.8800   30.2420   43.8290 S   0  0  0  0  0  0  0  0  0  0  0  0
   56.6170   30.2140   42.3490 O   0  0  0  0  0  0  0  0  0  0  0  0
   57.3090   28.6260   44.3670 C   0  0  0  0  0  0  0  0  0  0  0  0
   57.0430   28.0880   45.6170 C   0  0  0  0  0  0  0  0  0  0  0  0
   57.4920   26.7700   45.7510 C   0  0  0  0  0  0  0  0  0  0  0  0
   58.1110   26.2730   44.6110 C   0  0  0  0  0  0  0  0  0  0  0  0
   58.1010   27.4750   43.4330 S   0  0  0  0  0  0  0  0  0  0  0  0
   58.1520   31.3890   44.1810 N   0  0  0  0  0  0  0  0  0  0  0  0
   57.7270   32.7800   43.8900 C   0  0  0  0  0  0  0  0  0  0  0  0
   57.3780   33.5760   45.1540 C   0  0  0  0  0  0  0  0  0  0  0  0
   58.5690   33.6360   46.1260 C   0  0  0  0  0  0  0  0  0  0  0  0
   59.4800   32.3870   46.0420 C   0  0  1  0  0  0  0  0  0  0  0  0
   60.1540   32.1140   47.4010 C   0  0  0  0  0  0  0  0  0  0  0  0
   61.5390   32.5780   47.4050 N   0  0  0  0  0  0  0  0  0  0  0  0
   61.9760   33.8330   47.6100 C   0  0  0  0  0  0  0  0  0  0  0  0
   63.3200   33.9090   47.5010 N   0  0  0  0  0  0  0  0  0  0  0  0
   63.6680   32.6330   47.2160 C   0  0  0  0  0  0  0  0  0  0  0  0
   62.5940   31.8260   47.1550 N   0  0  0  0  0  0  0  0  0  0  0  0
   58.6730   31.1700   45.5480 C   0  0  0  0  0  0  0  0  0  0  0  0
   56.5321   28.6401   46.4196 H   0  0  0  0  0  0  0  0  0  0  0  0
   57.3667   26.1824   46.6724 H   0  0  0  0  0  0  0  0  0  0  0  0
   58.5357   25.2647   44.4975 H   0  0  0  0  0  0  0  0  0  0  0  0
   58.5461   33.2947   43.3664 H   0  0  0  0  0  0  0  0  0  0  0  0
   56.8173   32.7245   43.2740 H   0  0  0  0  0  0  0  0  0  0  0  0
   57.0989   34.6003   44.8662 H   0  0  0  0  0  0  0  0  0  0  0  0
   56.5422   33.0717   45.6611 H   0  0  0  0  0  0  0  0  0  0  0  0
   59.1708   34.5257   45.8889 H   0  0  0  0  0  0  0  0  0  0  0  0
   58.1601   33.6777   47.1463 H   0  0  0  0  0  0  0  0  0  0  0  0
   60.2804   32.5767   45.3117 H   0  0  0  0  0  0  0  0  0  0  0  0
   59.5968   32.6400   48.1902 H   0  0  0  0  0  0  0  0  0  0  0  0
   60.1491   31.0289   47.5811 H   0  0  0  0  0  0  0  0  0  0  0  0
   61.3226   34.6882   47.8374 H   0  0  0  0  0  0  0  0  0  0  0  0
   64.7028   32.2968   47.0540 H   0  0  0  0  0  0  0  0  0  0  0  0
   62.5800   30.8040   46.9410 H   0  0  0  0  0  0  0  0  0  0  0  0
   59.3257   30.2846   45.5450 H   0  0  0  0  0  0  0  0  0  0  0  0
   57.8190   31.0219   46.2252 H   0  0  0  0  0  0  0  0  0  0  0  0
  1  2  2  0
  2  3  2  0
  2  4  1  0
  4  5  2  0
  5  6  1  0
  6  7  2  0
  7  8  1  0
  2  9  1  0
  9 10  1  0
 10 11  1  0
 11 12  1  0
 12 13  1  0
 13 14  1  0
 14 15  1  0
 15 16  1  0
 16 17  2  0
 17 18  1  0
 18 19  2  0
 13 20  1  0
  8  4  1  0
 20  9  1  0
 19 15  1  0
  5 21  1  0
  6 22  1  0
  7 23  1  0
 10 24  1  0
 10 25  1  0
 11 26  1  0
 11 27  1  0
 12 28  1  0
 12 29  1  0
 13 30  1  6
 14 31  1  0
 14 32  1  0
 16 33  1  0
 18 34  1  0
 19 35  1  0
 20 36  1  0
 20 37  1  0
M  CHG  1  19   1
M  END
>  <UniqueID>  (1) 
1

>  <SMILES>  (1) 
O=S(=O)(c1cccs1)N1CCC[C@@H](Cn2cnc[nH+]2)C1

>  <Energy>  (1) 
100.36125399639893

>  <Genealogy>  (1) 
O=S(=O)(c1cccs1)N1CCCC(Cn2cnc[nH+]2)C1 (protonated)
O=S(=O)(c1cccs1)N1CCC[C@@H](Cn2cnc[nH+]2)C1 (chirality)
O=S(=O)(c1cccs1)N1CCC[C@@H](Cn2cnc[nH+]2)C1 (3D coordinates assigned)
O=S(=O)(c1cccs1)N1CCC[C@@H](Cn2cnc[nH+]2)C1 (nonaromatic ring conformer: 100.36125399639893 kcal/mol)

>  <smiles>  (1) 
O=S(=O)(c1cccs1)N1CCCC(Cn2cncn2)C1

>  <score_type>  (1) 
oracle

>  <origin>  (1) 
adg

>  <m_score__min__energy>  (1) 
-6.6299999999999999

>  <m_primary>  (1) 
energy

$$$$
1:0
     RDKit          3D

 41 44  0  0  0  0  0  0  0  0999 V2000
   59.8550   26.8710   46.1600 C   0  0  0  0  0  0  0  0  0  0  0  0
   58.5700   27.5910   45.9260 C   0  0  0  0  0  0  0  0  0  0  0  0
   58.6020   28.9700   46.3310 N   0  0  0  0  0  0  0  0  0  0  0  0
   59.3880   29.4120   47.3590 C   0  0  0  0  0  0  0  0  0  0  0  0
   59.2690   30.7580   47.5130 C   0  0  0  0  0  0  0  0  0  0  0  0
   59.9060   31.6650   48.4640 C   0  0  0  0  0  0  0  0  0  0  0  0
   59.1600   32.3170   49.4450 C   0  0  0  0  0  0  0  0  0  0  0  0
   59.7470   33.1780   50.3530 C   0  0  0  0  0  0  0  0  0  0  0  0
   61.1280   33.3930   50.2760 C   0  0  0  0  0  0  0  0  0  0  0  0
   61.6640   34.2440   51.1830 F   0  0  0  0  0  0  0  0  0  0  0  0
   61.8800   32.7560   49.3100 C   0  0  0  0  0  0  0  0  0  0  0  0
   61.2650   31.9070   48.4240 C   0  0  0  0  0  0  0  0  0  0  0  0
   62.0340   31.1910   47.3590 C   0  0  0  0  0  0  0  0  0  0  0  0
   63.2310   32.1270   47.1220 C   0  0  0  0  0  0  0  0  0  0  0  0
   64.0320   32.2560   48.2970 N   0  0  0  0  0  0  0  0  0  0  0  0
   63.3390   33.0420   49.3000 C   0  0  0  0  0  0  0  0  0  0  0  0
   58.3760   31.1760   46.5460 C   0  0  0  0  0  0  0  0  0  0  0  0
   57.8950   32.3940   46.2470 N   0  0  0  0  0  0  0  0  0  0  0  0
   57.0180   32.4640   45.2310 C   0  0  0  0  0  0  0  0  0  0  0  0
   56.6060   31.4120   44.5180 N   0  0  0  0  0  0  0  0  0  0  0  0
   57.0780   30.1540   44.7980 C   0  0  0  0  0  0  0  0  0  0  0  0
   56.6200   29.2220   44.0910 N   0  0  0  0  0  0  0  0  0  0  0  0
   57.9780   30.0450   45.8300 C   0  0  0  0  0  0  0  0  0  0  0  0
   60.0290   26.7735   47.2418 H   0  0  0  0  0  0  0  0  0  0  0  0
   59.8029   25.8707   45.7054 H   0  0  0  0  0  0  0  0  0  0  0  0
   60.6809   27.4378   45.7054 H   0  0  0  0  0  0  0  0  0  0  0  0
   58.3384   27.5492   44.8515 H   0  0  0  0  0  0  0  0  0  0  0  0
   57.8042   27.0922   46.5382 H   0  0  0  0  0  0  0  0  0  0  0  0
   60.0293   28.7667   47.9773 H   0  0  0  0  0  0  0  0  0  0  0  0
   58.0754   32.1415   49.4977 H   0  0  0  0  0  0  0  0  0  0  0  0
   59.1418   33.6835   51.1199 H   0  0  0  0  0  0  0  0  0  0  0  0
   62.3664   30.2017   47.7065 H   0  0  0  0  0  0  0  0  0  0  0  0
   61.4450   30.9957   46.4507 H   0  0  0  0  0  0  0  0  0  0  0  0
   63.8500   31.7178   46.3100 H   0  0  0  0  0  0  0  0  0  0  0  0
   62.8450   33.1219   46.8551 H   0  0  0  0  0  0  0  0  0  0  0  0
   64.9150   32.7480   47.9870 H   0  0  0  0  0  0  0  0  0  0  0  0
   63.7558   32.8045   50.2899 H   0  0  0  0  0  0  0  0  0  0  0  0
   63.4786   34.1062   49.0590 H   0  0  0  0  0  0  0  0  0  0  0  0
   58.1900   33.2580   46.7830 H   0  0  0  0  0  0  0  0  0  0  0  0
   56.6128   33.4526   44.9693 H   0  0  0  0  0  0  0  0  0  0  0  0
   56.6330   28.2280   44.1240 H   0  0  0  0  0  0  0  0  0  0  0  0
  1  2  1  0
  2  3  1  0
  3  4  1  0
  4  5  2  0
  5  6  1  0
  6  7  2  0
  7  8  1  0
  8  9  2  0
  9 10  1  0
  9 11  1  0
 11 12  2  0
 12 13  1  0
 13 14  1  0
 14 15  1  0
 15 16  1  0
  5 17  1  0
 17 18  1  0
 18 19  1  0
 19 20  2  0
 20 21  1  0
 21 22  2  3
 21 23  1  0
 23  3  1  0
 12  6  1  0
 23 17  2  0
 16 11  1  0
  1 24  1  0
  1 25  1  0
  1 26  1  0
  2 27  1  0
  2 28  1  0
  4 29  1  0
  7 30  1  0
  8 31  1  0
 13 32  1  0
 13 33  1  0
 14 34  1  0
 14 35  1  0
 15 36  1  0
 16 37  1  0
 16 38  1  0
 18 39  1  0
 19 40  1  0
 22 41  1  0
M  END
>  <smiles>  (2) 
CCn1cc(-c2ccc(F)c3c2CCNC3)c2[nH]cnc(=N)c21

>  <score_type>  (2) 
oracle

>  <origin>  (2) 
adg

>  <m_score__min__energy>  (2) 
-6.6600000000000001

>  <m_primary>  (2) 
energy

$$$$
2:0
     RDKit          3D

 58 61  0  0  0  0  0  0  0  0999 V2000
   58.1460   26.8110   47.4100 C   0  0  0  0  0  0  0  0  0  0  0  0
   59.2970   27.5980   46.7510 C   0  0  2  0  0  0  0  0  0  0  0  0
   60.2040   26.6710   46.1960 O   0  0  0  0  0  0  0  0  0  0  0  0
   60.0080   28.4610   47.7930 C   0  0  0  0  0  0  0  0  0  0  0  0
   60.6270   29.6810   47.4400 C   0  0  0  0  0  0  0  0  0  0  0  0
   61.2590   30.4650   48.4080 C   0  0  0  0  0  0  0  0  0  0  0  0
   61.2820   30.0540   49.7400 C   0  0  0  0  0  0  0  0  0  0  0  0
   60.6630   28.8600   50.1110 C   0  0  0  0  0  0  0  0  0  0  0  0
   60.0270   28.0700   49.1510 C   0  0  0  0  0  0  0  0  0  0  0  0
   58.7690   28.4960   45.6510 C   0  0  0  0  0  0  0  0  0  0  0  0
   58.8380   28.2130   44.3310 N   0  0  0  0  0  0  0  0  0  0  0  0
   58.2280   29.2300   43.7470 N   0  0  0  0  0  0  0  0  0  0  0  0
   57.8030   30.0830   44.6600 N   0  0  0  0  0  0  0  0  0  0  0  0
   57.1370   31.3490   44.3780 C   0  0  0  0  0  0  0  0  0  0  0  0
   58.1500   32.4910   44.2600 C   0  0  0  0  0  0  0  0  0  0  0  0
   57.6510   33.6990   44.9620 N   0  0  0  0  0  0  0  0  0  0  0  0
   57.2970   33.4680   46.3700 C   0  0  0  0  0  0  0  0  0  0  0  0
   58.5130   33.1910   47.2720 C   0  0  0  0  0  0  0  0  0  0  0  0
   59.7730   33.8500   46.8610 N   0  0  0  0  0  0  0  0  0  0  0  0
   60.9710   33.6440   47.6720 C   0  0  0  0  0  0  0  0  0  0  0  0
   60.9370   33.7720   49.0810 C   0  0  0  0  0  0  0  0  0  0  0  0
   62.0860   33.5900   49.8520 C   0  0  0  0  0  0  0  0  0  0  0  0
   63.3130   33.2940   49.2450 C   0  0  0  0  0  0  0  0  0  0  0  0
   64.5500   33.0630   50.0770 C   0  0  0  0  0  0  0  0  0  0  0  0
   65.6710   32.9960   49.2690 F   0  0  0  0  0  0  0  0  0  0  0  0
   64.4210   31.8710   50.7690 F   0  0  0  0  0  0  0  0  0  0  0  0
   64.7310   34.0940   50.9830 F   0  0  0  0  0  0  0  0  0  0  0  0
   63.3590   33.1310   47.8550 C   0  0  0  0  0  0  0  0  0  0  0  0
   62.2130   33.3120   47.0800 C   0  0  0  0  0  0  0  0  0  0  0  0
   59.8930   34.5860   45.5840 C   0  0  0  0  0  0  0  0  0  0  0  0
   58.5620   34.8460   44.8750 C   0  0  0  0  0  0  0  0  0  0  0  0
   58.1170   29.6590   45.8710 N   0  0  0  0  0  0  0  0  0  0  0  0
   58.2382   26.8740   48.5043 H   0  0  0  0  0  0  0  0  0  0  0  0
   57.1825   27.2402   47.0979 H   0  0  0  0  0  0  0  0  0  0  0  0
   58.1964   25.7574   47.0979 H   0  0  0  0  0  0  0  0  0  0  0  0
   60.2680   26.8400   45.2190 H   0  0  0  0  0  0  0  0  0  0  0  0
   60.6111   30.0167   46.3926 H   0  0  0  0  0  0  0  0  0  0  0  0
   61.7405   31.4106   48.1182 H   0  0  0  0  0  0  0  0  0  0  0  0
   61.7877   30.6705   50.4977 H   0  0  0  0  0  0  0  0  0  0  0  0
   60.6760   28.5398   51.1633 H   0  0  0  0  0  0  0  0  0  0  0  0
   59.5358   27.1338   49.4549 H   0  0  0  0  0  0  0  0  0  0  0  0
   58.1120   29.3420   42.7140 H   0  0  0  0  0  0  0  0  0  0  0  0
   56.5835   31.2606   43.4315 H   0  0  0  0  0  0  0  0  0  0  0  0
   56.4510   31.5751   45.2077 H   0  0  0  0  0  0  0  0  0  0  0  0
   59.1034   32.1778   44.7104 H   0  0  0  0  0  0  0  0  0  0  0  0
   58.2954   32.7307   43.1963 H   0  0  0  0  0  0  0  0  0  0  0  0
   56.7783   34.3607   46.7495 H   0  0  0  0  0  0  0  0  0  0  0  0
   56.6609   32.5711   46.4004 H   0  0  0  0  0  0  0  0  0  0  0  0
   58.2668   33.5336   48.2879 H   0  0  0  0  0  0  0  0  0  0  0  0
   58.7008   32.1094   47.2030 H   0  0  0  0  0  0  0  0  0  0  0  0
   59.9873   34.0195   49.5777 H   0  0  0  0  0  0  0  0  0  0  0  0
   62.0274   33.6799   50.9468 H   0  0  0  0  0  0  0  0  0  0  0  0
   64.3075   32.8577   47.3695 H   0  0  0  0  0  0  0  0  0  0  0  0
   62.2760   33.1944   45.9881 H   0  0  0  0  0  0  0  0  0  0  0  0
   60.3681   35.5565   45.7899 H   0  0  0  0  0  0  0  0  0  0  0  0
   60.4876   33.9508   44.9110 H   0  0  0  0  0  0  0  0  0  0  0  0
   58.0783   35.7179   45.3395 H   0  0  0  0  0  0  0  0  0  0  0  0
   58.7769   35.0250   43.8111 H   0  0  0  0  0  0  0  0  0  0  0  0
  1  2  1  0
  2  3  1  6
  2  4  1  0
  4  5  2  0
  5  6  1  0
  6  7  2  0
  7  8  1  0
  8  9  2  0
  2 10  1  0
 10 11  1  0
 11 12  2  0
 12 13  1  0
 13 14  1  0
 14 15  1  0
 15 16  1  0
 16 17  1  0
 17 18  1  0
 18 19  1  0
 19 20  1  0
 20 21  2  0
 21 22  1  0
 22 23  2  0
 23 24  1  0
 24 25  1  0
 24 26  1  0
 24 27  1  0
 23 28  1  0
 28 29  2  0
 19 30  1  0
 30 31  1  0
 13 32  1  0
  9  4  1  0
 32 10  2  0
 31 16  1  0
 29 20  1  0
  1 33  1  0
  1 34  1  0
  1 35  1  0
  3 36  1  0
  5 37  1  0
  6 38  1  0
  7 39  1  0
  8 40  1  0
  9 41  1  0
 12 42  1  0
 14 43  1  0
 14 44  1  0
 15 45  1  0
 15 46  1  0
 17 47  1  0
 17 48  1  0
 18 49  1  0
 18 50  1  0
 21 51  1  0
 22 52  1  0
 28 53  1  0
 29 54  1  0
 30 55  1  0
 30 56  1  0
 31 57  1  0
 31 58  1  0
M  CHG  1  12   1
M  END
>  <UniqueID>  (3) 
2

>  <SMILES>  (3) 
C[C@](O)(c1ccccc1)c1n[nH+]n(CCN2CCN(c3ccc(C(F)(F)F)cc3)CC2)n1

>  <Energy>  (3) 
113.00763152652468

>  <Genealogy>  (3) 
CC(O)(c1ccccc1)c1n[nH+]n(CCN2CCN(c3ccc(C(F)(F)F)cc3)CC2)n1 (protonated)
C[C@](O)(c1ccccc1)c1n[nH+]n(CCN2CCN(c3ccc(C(F)(F)F)cc3)CC2)n1 (chirality)
C[C@](O)(c1ccccc1)c1n[nH+]n(CCN2CCN(c3ccc(C(F)(F)F)cc3)CC2)n1 (3D coordinates assigned)
C[C@](O)(c1ccccc1)c1n[nH+]n(CCN2CCN(c3ccc(C(F)(F)F)cc3)CC2)n1 (nonaromatic ring conformer: 113.00763152652468 kcal/mol)

>  <smiles>  (3) 
CC(O)(c1ccccc1)c1nnn(CCN2CCN(c3ccc(C(F)(F)F)cc3)CC2)n1

>  <score_type>  (3) 
oracle

>  <origin>  (3) 
adg

>  <m_score__min__energy>  (3) 
-8.0199999999999996

>  <m_primary>  (3) 
energy

$$$$
3:0
     RDKit          3D

 44 46  0  0  0  0  0  0  0  0999 V2000
   59.0010   30.0320   46.9010 C   0  0  0  0  0  0  0  0  0  0  0  0
   57.7480   30.4320   46.3560 O   0  0  0  0  0  0  0  0  0  0  0  0
   57.4760   30.5460   44.9830 C   0  0  0  0  0  0  0  0  0  0  0  0
   57.0650   29.4410   44.2100 C   0  0  0  0  0  0  0  0  0  0  0  0
   56.8290   29.5860   42.8410 C   0  0  0  0  0  0  0  0  0  0  0  0
   57.0030   30.8280   42.2270 C   0  0  0  0  0  0  0  0  0  0  0  0
   57.4060   31.9300   42.9830 C   0  0  0  0  0  0  0  0  0  0  0  0
   57.6350   31.8000   44.3620 C   0  0  0  0  0  0  0  0  0  0  0  0
   58.0480   32.9410   45.1330 N   0  0  0  0  0  0  0  0  0  0  0  0
   59.0850   33.8350   44.6070 C   0  0  0  0  0  0  0  0  0  0  0  0
   59.7010   34.6860   45.7300 C   0  0  0  0  0  0  0  0  0  0  0  0
   59.6420   33.9620   47.0170 N   0  0  0  0  0  0  0  0  0  0  0  0
   60.5090   34.5710   48.0590 C   0  0  0  0  0  0  0  0  0  0  0  0
   61.7830   33.7950   48.3580 C   0  0  0  0  0  0  0  0  0  0  0  0
   62.0830   33.3970   49.6770 C   0  0  0  0  0  0  0  0  0  0  0  0
   61.2430   33.6970   50.7010 F   0  0  0  0  0  0  0  0  0  0  0  0
   63.2540   32.6840   49.9510 C   0  0  0  0  0  0  0  0  0  0  0  0
   64.1270   32.3440   48.9160 C   0  0  0  0  0  0  0  0  0  0  0  0
   63.8270   32.7070   47.6020 C   0  0  0  0  0  0  0  0  0  0  0  0
   62.6590   33.4210   47.3180 C   0  0  0  0  0  0  0  0  0  0  0  0
   62.3760   33.7220   46.0250 F   0  0  0  0  0  0  0  0  0  0  0  0
   58.2390   33.7970   47.4670 C   0  0  0  0  0  0  0  0  0  0  0  0
   57.2980   33.3210   46.3350 C   0  0  0  0  0  0  0  0  0  0  0  0
   58.9455   30.0497   47.9995 H   0  0  0  0  0  0  0  0  0  0  0  0
   59.2397   29.0130   46.5623 H   0  0  0  0  0  0  0  0  0  0  0  0
   59.7859   30.7242   46.5623 H   0  0  0  0  0  0  0  0  0  0  0  0
   56.9294   28.4594   44.6876 H   0  0  0  0  0  0  0  0  0  0  0  0
   56.5053   28.7198   42.2452 H   0  0  0  0  0  0  0  0  0  0  0  0
   56.8225   30.9380   41.1475 H   0  0  0  0  0  0  0  0  0  0  0  0
   57.5450   32.9062   42.4954 H   0  0  0  0  0  0  0  0  0  0  0  0
   59.8760   33.2315   44.1379 H   0  0  0  0  0  0  0  0  0  0  0  0
   58.6252   34.5087   43.8690 H   0  0  0  0  0  0  0  0  0  0  0  0
   60.7509   34.9044   45.4849 H   0  0  0  0  0  0  0  0  0  0  0  0
   59.1313   35.6225   45.8212 H   0  0  0  0  0  0  0  0  0  0  0  0
   60.0320   33.0000   46.8570 H   0  0  0  0  0  0  0  0  0  0  0  0
   60.7927   35.5792   47.7226 H   0  0  0  0  0  0  0  0  0  0  0  0
   59.9216   34.5749   48.9890 H   0  0  0  0  0  0  0  0  0  0  0  0
   63.4881   32.3901   50.9849 H   0  0  0  0  0  0  0  0  0  0  0  0
   65.0514   31.7899   49.1360 H   0  0  0  0  0  0  0  0  0  0  0  0
   64.5120   32.4303   46.7870 H   0  0  0  0  0  0  0  0  0  0  0  0
   58.2153   33.0552   48.2789 H   0  0  0  0  0  0  0  0  0  0  0  0
   57.8812   34.7814   47.8029 H   0  0  0  0  0  0  0  0  0  0  0  0
   56.7259   32.4506   46.6888 H   0  0  0  0  0  0  0  0  0  0  0  0
   56.6269   34.1524   46.0732 H   0  0  0  0  0  0  0  0  0  0  0  0
  1  2  1  0
  2  3  1  0
  3  4  2  0
  4  5  1  0
  5  6  2  0
  6  7  1  0
  7  8  2  0
  8  9  1  0
  9 10  1  0
 10 11  1  0
 11 12  1  0
 12 13  1  0
 13 14  1  0
 14 15  2  0
 15 16  1  0
 15 17  1  0
 17 18  2  0
 18 19  1  0
 19 20  2  0
 20 21  1  0
 12 22  1  0
 22 23  1  0
  8  3  1  0
 23  9  1  0
 20 14  1  0
  1 24  1  0
  1 25  1  0
  1 26  1  0
  4 27  1  0
  5 28  1  0
  6 29  1  0
  7 30  1  0
 10 31  1  0
 10 32  1  0
 11 33  1  0
 11 34  1  0
 12 35  1  0
 13 36  1  0
 13 37  1  0
 17 38  1  0
 18 39  1  0
 19 40  1  0
 22 41  1  0
 22 42  1  0
 23 43  1  0
 23 44  1  0
M  CHG  1  12   1
M  END
>  <UniqueID>  (4) 
3

>  <SMILES>  (4) 
COc1ccccc1N1CC[NH+](Cc2c(F)cccc2F)CC1

>  <Energy>  (4) 
60.40314878579119

>  <Genealogy>  (4) 
COc1ccccc1N1CC[NH+](Cc2c(F)cccc2F)CC1 (protonated)
COc1ccccc1N1CC[NH+](Cc2c(F)cccc2F)CC1 (3D coordinates assigned)
COc1ccccc1N1CC[NH+](Cc2c(F)cccc2F)CC1 (nonaromatic ring conformer: 60.40314878579119 kcal/mol)

>  <smiles>  (4) 
COc1ccccc1N1CCN(Cc2c(F)cccc2F)CC1

>  <score_type>  (4) 
oracle

>  <origin>  (4) 
adg

>  <m_score__min__energy>  (4) 
-5.2300000000000004

>  <m_primary>  (4) 
energy

$$$$
4:0
     RDKit          3D

 53 56  0  0  0  0  0  0  0  0999 V2000
   58.1390   33.6960   44.7800 C   0  0  0  0  0  0  0  0  0  0  0  0
   57.5680   33.0960   45.9060 C   0  0  0  0  0  0  0  0  0  0  0  0
   58.0670   33.3820   47.1800 C   0  0  0  0  0  0  0  0  0  0  0  0
   59.1490   34.2640   47.3360 C   0  0  0  0  0  0  0  0  0  0  0  0
   59.6660   34.6010   48.7090 C   0  0  0  0  0  0  0  0  0  0  0  0
   61.1320   34.1720   48.8500 C   0  0  0  0  0  0  0  0  0  0  0  0
   61.3280   32.6950   49.2790 C   0  0  0  0  0  0  0  0  0  0  0  0
   60.6930   31.6520   48.4230 N   0  0  0  0  0  0  0  0  0  0  0  0
   60.4730   30.3610   49.1070 C   0  0  0  0  0  0  0  0  0  0  0  0
   59.5920   29.4270   48.2490 C   0  0  0  0  0  0  0  0  0  0  0  0
   59.6700   29.7300   46.7930 N   0  0  0  0  0  0  0  0  0  0  0  0
   59.2360   28.5560   45.9880 C   0  0  1  0  0  0  0  0  0  0  0  0
   57.8710   27.9790   46.4490 C   0  0  0  0  0  0  0  0  0  0  0  0
   57.0220   28.0010   45.1650 C   0  0  1  0  0  0  0  0  0  0  0  0
   56.6320   29.4580   44.8620 C   0  0  0  0  0  0  0  0  0  0  0  0
   57.9610   30.0720   44.3970 C   0  0  0  0  0  0  0  0  0  0  0  0
   58.9410   28.8850   44.4970 C   0  0  2  0  0  0  0  0  0  0  0  0
   58.0540   27.7280   44.1010 C   0  0  0  0  0  0  0  0  0  0  0  0
   61.0460   30.1440   46.4420 C   0  0  0  0  0  0  0  0  0  0  0  0
   61.3870   31.4830   47.1230 C   0  0  0  0  0  0  0  0  0  0  0  0
   59.7070   34.8740   46.2000 C   0  0  0  0  0  0  0  0  0  0  0  0
   59.2060   34.5870   44.9270 C   0  0  0  0  0  0  0  0  0  0  0  0
   57.7484   33.4669   43.7775 H   0  0  0  0  0  0  0  0  0  0  0  0
   56.7255   32.3984   45.7895 H   0  0  0  0  0  0  0  0  0  0  0  0
   57.6102   32.9141   48.0646 H   0  0  0  0  0  0  0  0  0  0  0  0
   59.5894   35.6867   48.8685 H   0  0  0  0  0  0  0  0  0  0  0  0
   59.0643   34.0649   49.4577 H   0  0  0  0  0  0  0  0  0  0  0  0
   61.6280   34.3170   47.8789 H   0  0  0  0  0  0  0  0  0  0  0  0
   61.5652   34.7915   49.6491 H   0  0  0  0  0  0  0  0  0  0  0  0
   62.4096   32.4956   49.2979 H   0  0  0  0  0  0  0  0  0  0  0  0
   60.8242   32.6110   50.2532 H   0  0  0  0  0  0  0  0  0  0  0  0
   59.7390   32.0260   48.1940 H   0  0  0  0  0  0  0  0  0  0  0  0
   61.4448   29.8771   49.2845 H   0  0  0  0  0  0  0  0  0  0  0  0
   59.9591   30.5512   50.0608 H   0  0  0  0  0  0  0  0  0  0  0  0
   59.9209   28.3896   48.4094 H   0  0  0  0  0  0  0  0  0  0  0  0
   58.5485   29.5795   48.5617 H   0  0  0  0  0  0  0  0  0  0  0  0
   60.0852   27.8694   46.1199 H   0  0  0  0  0  0  0  0  0  0  0  0
   57.9853   26.9526   46.8277 H   0  0  0  0  0  0  0  0  0  0  0  0
   57.4190   28.5515   47.2724 H   0  0  0  0  0  0  0  0  0  0  0  0
   56.1496   27.3337   45.2261 H   0  0  0  0  0  0  0  0  0  0  0  0
   55.8721   29.5086   44.0682 H   0  0  0  0  0  0  0  0  0  0  0  0
   56.1870   29.9793   45.7224 H   0  0  0  0  0  0  0  0  0  0  0  0
   57.8873   30.4386   43.3625 H   0  0  0  0  0  0  0  0  0  0  0  0
   58.2702   30.9428   44.9938 H   0  0  0  0  0  0  0  0  0  0  0  0
   59.8658   29.0712   43.9312 H   0  0  0  0  0  0  0  0  0  0  0  0
   57.6553   27.8202   43.0799 H   0  0  0  0  0  0  0  0  0  0  0  0
   58.5020   26.7241   44.0622 H   0  0  0  0  0  0  0  0  0  0  0  0
   61.7548   29.3735   46.7795 H   0  0  0  0  0  0  0  0  0  0  0  0
   61.1173   30.2669   45.3512 H   0  0  0  0  0  0  0  0  0  0  0  0
   62.4727   31.5251   47.2946 H   0  0  0  0  0  0  0  0  0  0  0  0
   61.0512   32.2917   46.4572 H   0  0  0  0  0  0  0  0  0  0  0  0
   60.5422   35.5809   46.3129 H   0  0  0  0  0  0  0  0  0  0  0  0
   59.6515   35.0624   44.0407 H   0  0  0  0  0  0  0  0  0  0  0  0
  1  2  2  0
  2  3  1  0
  3  4  2  0
  4  5  1  0
  5  6  1  0
  6  7  1  0
  7  8  1  0
  8  9  1  0
  9 10  1  0
 10 11  1  0
 11 12  1  0
 12 13  1  0
 13 14  1  0
 14 15  1  0
 15 16  1  0
 16 17  1  0
 17 18  1  0
 11 19  1  0
 19 20  1  0
  4 21  1  0
 21 22  2  0
 22  1  1  0
 20  8  1  0
 17 12  1  0
 18 14  1  0
  1 23  1  0
  2 24  1  0
  3 25  1  0
  5 26  1  0
  5 27  1  0
  6 28  1  0
  6 29  1  0
  7 30  1  0
  7 31  1  0
  8 32  1  0
  9 33  1  0
  9 34  1  0
 10 35  1  0
 10 36  1  0
 12 37  1  6
 13 38  1  0
 13 39  1  0
 14 40  1  1
 15 41  1  0
 15 42  1  0
 16 43  1  0
 16 44  1  0
 17 45  1  6
 18 46  1  0
 18 47  1  0
 19 48  1  0
 19 49  1  0
 20 50  1  0
 20 51  1  0
 21 52  1  0
 22 53  1  0
M  CHG  1   8   1
M  END
>  <UniqueID>  (5) 
4

>  <SMILES>  (5) 
c1ccc(CCC[NH+]2CCN([C@H]3C[C@H]4CCC3C4)CC2)cc1

>  <Energy>  (5) 
94.55375586930002

>  <Genealogy>  (5) 
c1ccc(CCC[NH+]2CCN(C3CC4CCC3C4)CC2)cc1 (protonated)
c1ccc(CCC[NH+]2CCN([C@H]3C[C@H]4CCC3C4)CC2)cc1 (chirality)
c1ccc(CCC[NH+]2CCN([C@H]3C[C@H]4CCC3C4)CC2)cc1 (3D coordinates assigned)
c1ccc(CCC[NH+]2CCN([C@H]3C[C@H]4CCC3C4)CC2)cc1 (nonaromatic ring conformer: 94.55375586930002 kcal/mol)

>  <smiles>  (5) 
c1ccc(CCCN2CCN(C3CC4CCC3C4)CC2)cc1

>  <score_type>  (5) 
oracle

>  <origin>  (5) 
adg

>  <m_score__min__energy>  (5) 
-6.0099999999999998

>  <m_primary>  (5) 
energy

$$$$
5:0
     RDKit          3D

 34 36  0  0  0  0  0  0  0  0999 V2000
   58.3040   25.6250   47.5120 H   0  0  0  0  0  0  0  0  0  0  0  0
   57.5830   24.8840   47.3800 N   0  0  0  0  0  0  0  0  0  0  0  0
   56.4510   25.0860   46.7860 C   0  0  0  0  0  0  0  0  0  0  0  0
   55.4910   24.1540   46.6930 N   0  0  0  0  0  0  0  0  0  0  0  0
   54.5220   24.7290   46.0360 O   0  0  0  0  0  0  0  0  0  0  0  0
   54.7760   25.9630   45.6940 N   0  0  0  0  0  0  0  0  0  0  0  0
   56.0100   26.2350   46.1580 C   0  0  0  0  0  0  0  0  0  0  0  0
   56.6760   27.5370   45.9800 C   0  0  0  0  0  0  0  0  0  0  0  0
   56.1540   28.5110   45.1910 N   0  0  0  0  0  0  0  0  0  0  0  0
   57.0540   29.4980   45.3090 C   0  0  0  0  0  0  0  0  0  0  0  0
   57.0240   30.7520   44.7100 C   0  0  0  0  0  0  0  0  0  0  0  0
   56.1963   31.0436   44.0468 H   0  0  0  0  0  0  0  0  0  0  0  0
   58.0930   31.6440   44.9800 C   0  0  0  0  0  0  0  0  0  0  0  0
   58.1500   32.9340   44.4220 O   0  0  0  0  0  0  0  0  0  0  0  0
   57.9450   34.1570   45.1310 C   0  0  0  0  0  0  0  0  0  0  0  0
   57.2185   34.7747   44.5827 H   0  0  0  0  0  0  0  0  0  0  0  0
   57.5655   33.9232   46.1367 H   0  0  0  0  0  0  0  0  0  0  0  0
   59.2540   34.9270   45.2680 C   0  0  0  0  0  0  0  0  0  0  0  0
   59.4884   35.0649   46.3338 H   0  0  0  0  0  0  0  0  0  0  0  0
   60.0643   34.3616   44.7845 H   0  0  0  0  0  0  0  0  0  0  0  0
   59.1535   35.9099   44.7845 H   0  0  0  0  0  0  0  0  0  0  0  0
   59.1470   31.2460   45.8420 C   0  0  0  0  0  0  0  0  0  0  0  0
   60.1820   32.1650   46.0850 O   0  0  0  0  0  0  0  0  0  0  0  0
   61.1260   32.0920   47.1550 C   0  0  0  0  0  0  0  0  0  0  0  0
   60.5862   32.0977   48.1134 H   0  0  0  0  0  0  0  0  0  0  0  0
   61.7082   31.1647   47.0496 H   0  0  0  0  0  0  0  0  0  0  0  0
   62.0830   33.2780   47.1130 C   0  0  0  0  0  0  0  0  0  0  0  0
   62.3311   33.5855   48.1396 H   0  0  0  0  0  0  0  0  0  0  0  0
   63.0032   32.9881   46.5845 H   0  0  0  0  0  0  0  0  0  0  0  0
   61.6052   34.1161   46.5845 H   0  0  0  0  0  0  0  0  0  0  0  0
   59.1290   29.9550   46.4320 C   0  0  0  0  0  0  0  0  0  0  0  0
   59.9351   29.6281   47.1053 H   0  0  0  0  0  0  0  0  0  0  0  0
   58.0620   29.1170   46.1330 C   0  0  0  0  0  0  0  0  0  0  0  0
   57.8500   27.8700   46.5780 N   0  0  0  0  0  0  0  0  0  0  0  0
  1  2  1  0
  2  3  2  0
  3  4  1  0
  4  5  1  0
  5  6  1  0
  6  7  2  0
  7  8  1  0
  8  9  2  0
  9 10  1  0
 10 11  2  0
 11 12  1  0
 11 13  1  0
 13 14  1  0
 14 15  1  0
 15 16  1  0
 15 17  1  0
 15 18  1  0
 18 19  1  0
 18 20  1  0
 18 21  1  0
 13 22  2  0
 22 23  1  0
 23 24  1  0
 24 25  1  0
 24 26  1  0
 24 27  1  0
 27 28  1  0
 27 29  1  0
 27 30  1  0
 22 31  1  0
 31 32  1  0
 31 33  2  0
 33 34  1  0
  7  3  1  0
 34  8  1  0
 33 10  1  0
M  CHG  2   4  -1  34  -1
M  END
>  <UniqueID>  (6) 
5

>  <SMILES>  (6) 
[H]/N=c1/[n-]onc1-c1nc2cc(OCC)c(OCC)cc2[n-]1

>  <Energy>  (6) 
103.89294185100755

>  <Genealogy>  (6) 
CCOc1cc2nc(-c3no[n-]c3=N)[n-]c2cc1OCC (protonated)
[H]/N=c1/[n-]onc1-c1nc2cc(OCC)c(OCC)cc2[n-]1 (cis-trans isomerization)
[H]/N=c1/[n-]onc1-c1nc2cc(OCC)c(OCC)cc2[n-]1 (3D coordinates assigned)
[H]/N=c1/[n-]onc1-c1nc2cc(OCC)c(OCC)cc2[n-]1 (optimized conformer: 103.89294185100755 kcal/mol)

>  <smiles>  (6) 
CCOc1cc2nc(-c3no[nH]c3=N)[nH]c2cc1OCC

>  <score_type>  (6) 
oracle

>  <origin>  (6) 
adg

>  <m_score__min__energy>  (6) 
-9.1999999999999993

>  <m_primary>  (6) 
energy

$$$$
6:0
     RDKit          3D

 38 41  0  0  0  0  0  0  0  0999 V2000
   57.3860   23.3530   47.9160 O   0  0  0  0  0  0  0  0  0  0  0  0
   56.4270   24.0180   46.9710 S   0  0  0  0  0  0  0  0  0  0  0  0
   55.0200   23.8950   47.4790 O   0  0  0  0  0  0  0  0  0  0  0  0
   56.8420   25.6830   46.8090 N   0  0  0  0  0  0  0  0  0  0  0  0
   57.0830   26.2580   45.6680 C   0  0  0  0  0  0  0  0  0  0  0  0
   57.4280   27.7010   45.6630 C   0  0  0  0  0  0  0  0  0  0  0  0
   56.7090   28.6000   44.8580 C   0  0  0  0  0  0  0  0  0  0  0  0
   57.0260   29.9610   44.8520 C   0  0  0  0  0  0  0  0  0  0  0  0
   58.0640   30.4570   45.6600 C   0  0  0  0  0  0  0  0  0  0  0  0
   58.4000   31.9030   45.6540 C   0  0  0  0  0  0  0  0  0  0  0  0
   57.6400   32.8120   44.8930 C   0  0  0  0  0  0  0  0  0  0  0  0
   57.9590   34.1730   44.8870 C   0  0  0  0  0  0  0  0  0  0  0  0
   59.0370   34.6430   45.6400 C   0  0  0  0  0  0  0  0  0  0  0  0
   59.8000   33.7520   46.4000 C   0  0  0  0  0  0  0  0  0  0  0  0
   60.8440   34.2100   47.1340 F   0  0  0  0  0  0  0  0  0  0  0  0
   59.4850   32.3900   46.4080 C   0  0  0  0  0  0  0  0  0  0  0  0
   58.7750   29.5600   46.4750 C   0  0  0  0  0  0  0  0  0  0  0  0
   58.4600   28.1990   46.4790 C   0  0  0  0  0  0  0  0  0  0  0  0
   57.0020   25.5330   44.4190 N   0  0  0  0  0  0  0  0  0  0  0  0
   56.8210   24.1110   44.2840 C   0  0  0  0  0  0  0  0  0  0  0  0
   56.9010   23.5220   43.0090 C   0  0  0  0  0  0  0  0  0  0  0  0
   56.7250   22.1450   42.8520 C   0  0  0  0  0  0  0  0  0  0  0  0
   56.4640   21.3400   43.9630 C   0  0  0  0  0  0  0  0  0  0  0  0
   56.3780   21.9140   45.2330 C   0  0  0  0  0  0  0  0  0  0  0  0
   56.5550   23.2940   45.3930 C   0  0  0  0  0  0  0  0  0  0  0  0
   55.8885   28.2291   44.2262 H   0  0  0  0  0  0  0  0  0  0  0  0
   56.4584   30.6502   44.2095 H   0  0  0  0  0  0  0  0  0  0  0  0
   56.7888   32.4483   44.2987 H   0  0  0  0  0  0  0  0  0  0  0  0
   57.3599   34.8748   44.2882 H   0  0  0  0  0  0  0  0  0  0  0  0
   59.2857   35.7145   45.6350 H   0  0  0  0  0  0  0  0  0  0  0  0
   60.0892   31.6935   47.0078 H   0  0  0  0  0  0  0  0  0  0  0  0
   59.5874   29.9330   47.1160 H   0  0  0  0  0  0  0  0  0  0  0  0
   59.0238   27.5108   47.1259 H   0  0  0  0  0  0  0  0  0  0  0  0
   57.0660   26.0860   43.5350 H   0  0  0  0  0  0  0  0  0  0  0  0
   57.1036   24.1503   42.1291 H   0  0  0  0  0  0  0  0  0  0  0  0
   56.7921   21.6938   41.8510 H   0  0  0  0  0  0  0  0  0  0  0  0
   56.3264   20.2558   43.8378 H   0  0  0  0  0  0  0  0  0  0  0  0
   56.1710   21.2815   46.1088 H   0  0  0  0  0  0  0  0  0  0  0  0
  1  2  2  0
  2  3  2  0
  2  4  1  0
  4  5  2  0
  5  6  1  0
  6  7  2  0
  7  8  1  0
  8  9  2  0
  9 10  1  0
 10 11  2  0
 11 12  1  0
 12 13  2  0
 13 14  1  0
 14 15  1  0
 14 16  2  0
  9 17  1  0
 17 18  2  0
  5 19  1  0
 19 20  1  0
 20 21  2  0
 21 22  1  0
 22 23  2  0
 23 24  1  0
 24 25  2  0
 25  2  1  0
 18  6  1  0
 25 20  1  0
 16 10  1  0
  7 26  1  0
  8 27  1  0
 11 28  1  0
 12 29  1  0
 13 30  1  0
 16 31  1  0
 17 32  1  0
 18 33  1  0
 19 34  1  0
 21 35  1  0
 22 36  1  0
 23 37  1  0
 24 38  1  0
M  END
>  <UniqueID>  (7) 
6

>  <SMILES>  (7) 
O=S1(=O)N=C(c2ccc(-c3cccc(F)c3)cc2)Nc2ccccc21

>  <Energy>  (7) 
57.09826661223472

>  <Genealogy>  (7) 
O=S1(=O)N=C(c2ccc(-c3cccc(F)c3)cc2)Nc2ccccc21 (3D coordinates assigned)
O=S1(=O)N=C(c2ccc(-c3cccc(F)c3)cc2)Nc2ccccc21 (nonaromatic ring conformer: 57.09826661223472 kcal/mol)

>  <smiles>  (7) 
O=S1(=O)N=C(c2ccc(-c3cccc(F)c3)cc2)Nc2ccccc21

>  <score_type>  (7) 
oracle

>  <origin>  (7) 
adg

>  <m_score__min__energy>  (7) 
-8.5500000000000007

>  <m_primary>  (7) 
energy

$$$$
7:0
     RDKit          3D

 48 52  0  0  0  0  0  0  0  0999 V2000
   65.3530   32.5680   54.5700 C   0  0  0  0  0  0  0  0  0  0  0  0
   65.8360   32.1210   53.3080 O   0  0  0  0  0  0  0  0  0  0  0  0
   65.2320   32.4160   52.0760 C   0  0  0  0  0  0  0  0  0  0  0  0
   65.9200   32.3070   50.8550 C   0  0  0  0  0  0  0  0  0  0  0  0
   65.2810   32.6100   49.6520 C   0  0  0  0  0  0  0  0  0  0  0  0
   63.9410   33.0270   49.6470 C   0  0  0  0  0  0  0  0  0  0  0  0
   63.2320   33.1440   50.8770 C   0  0  0  0  0  0  0  0  0  0  0  0
   63.8960   32.8320   52.0780 C   0  0  0  0  0  0  0  0  0  0  0  0
   61.8760   33.5760   50.8870 C   0  0  0  0  0  0  0  0  0  0  0  0
   61.2020   33.6890   52.1150 O   0  0  0  0  0  0  0  0  0  0  0  0
   59.7920   33.5670   52.2790 C   0  0  0  0  0  0  0  0  0  0  0  0
   61.2320   33.8860   49.6670 C   0  0  0  0  0  0  0  0  0  0  0  0
   61.9420   33.7330   48.4770 C   0  0  0  0  0  0  0  0  0  0  0  0
   61.5750   33.9700   47.1620 C   0  0  0  0  0  0  0  0  0  0  0  0
   60.2740   34.4260   46.6330 C   0  0  0  0  0  0  0  0  0  0  0  0
   60.0160   35.6590   46.6440 O   0  0  0  0  0  0  0  0  0  0  0  0
   59.2810   33.4850   46.0680 C   0  0  0  0  0  0  0  0  0  0  0  0
   58.0280   33.9430   45.6160 C   0  0  0  0  0  0  0  0  0  0  0  0
   57.0930   33.0480   45.0860 C   0  0  0  0  0  0  0  0  0  0  0  0
   57.3960   31.6860   45.0180 C   0  0  0  0  0  0  0  0  0  0  0  0
   58.6420   31.2210   45.4550 C   0  0  0  0  0  0  0  0  0  0  0  0
   59.5740   32.1110   45.9990 C   0  0  0  0  0  0  0  0  0  0  0  0
   58.9380   29.8600   45.3380 O   0  0  0  0  0  0  0  0  0  0  0  0
   58.1270   28.9930   44.5410 C   0  0  0  0  0  0  0  0  0  0  0  0
   56.6450   29.3630   44.6950 C   0  0  0  0  0  0  0  0  0  0  0  0
   56.4660   30.7710   44.5170 O   0  0  0  0  0  0  0  0  0  0  0  0
   62.7160   33.7280   46.4070 C   0  0  0  0  0  0  0  0  0  0  0  0
   63.7340   33.3310   47.2010 N   0  0  0  0  0  0  0  0  0  0  0  0
   63.2560   33.3370   48.4630 C   0  0  0  0  0  0  0  0  0  0  0  0
   65.9035   32.0586   55.3746 H   0  0  0  0  0  0  0  0  0  0  0  0
   65.5012   33.6546   54.6554 H   0  0  0  0  0  0  0  0  0  0  0  0
   64.2811   32.3363   54.6554 H   0  0  0  0  0  0  0  0  0  0  0  0
   66.9703   31.9803   50.8478 H   0  0  0  0  0  0  0  0  0  0  0  0
   65.8303   32.5216   48.7031 H   0  0  0  0  0  0  0  0  0  0  0  0
   63.3565   32.9165   53.0329 H   0  0  0  0  0  0  0  0  0  0  0  0
   59.5481   33.5459   53.3514 H   0  0  0  0  0  0  0  0  0  0  0  0
   59.2922   34.4253   51.8061 H   0  0  0  0  0  0  0  0  0  0  0  0
   59.4471   32.6357   51.8061 H   0  0  0  0  0  0  0  0  0  0  0  0
   60.1909   34.2410   49.6570 H   0  0  0  0  0  0  0  0  0  0  0  0
   57.7828   35.0134   45.6804 H   0  0  0  0  0  0  0  0  0  0  0  0
   56.1216   33.4156   44.7237 H   0  0  0  0  0  0  0  0  0  0  0  0
   60.5378   31.7357   46.3735 H   0  0  0  0  0  0  0  0  0  0  0  0
   58.4184   29.0921   43.4849 H   0  0  0  0  0  0  0  0  0  0  0  0
   58.2745   27.9556   44.8756 H   0  0  0  0  0  0  0  0  0  0  0  0
   56.0554   28.8234   43.9392 H   0  0  0  0  0  0  0  0  0  0  0  0
   56.3083   29.0833   45.7042 H   0  0  0  0  0  0  0  0  0  0  0  0
   62.7812   33.8436   45.3150 H   0  0  0  0  0  0  0  0  0  0  0  0
   64.6960   33.0870   46.8800 H   0  0  0  0  0  0  0  0  0  0  0  0
  1  2  1  0
  2  3  1  0
  3  4  2  0
  4  5  1  0
  5  6  2  0
  6  7  1  0
  7  8  2  0
  7  9  1  0
  9 10  1  0
 10 11  1  0
  9 12  2  0
 12 13  1  0
 13 14  1  0
 14 15  1  0
 15 16  2  0
 15 17  1  0
 17 18  2  0
 18 19  1  0
 19 20  2  0
 20 21  1  0
 21 22  2  0
 21 23  1  0
 23 24  1  0
 24 25  1  0
 25 26  1  0
 14 27  2  0
 27 28  1  0
 28 29  1  0
  8  3  1  0
 29 13  2  0
 29  6  1  0
 22 17  1  0
 26 20  1  0
  1 30  1  0
  1 31  1  0
  1 32  1  0
  4 33  1  0
  5 34  1  0
  8 35  1  0
 11 36  1  0
 11 37  1  0
 11 38  1  0
 12 39  1  0
 18 40  1  0
 19 41  1  0
 22 42  1  0
 24 43  1  0
 24 44  1  0
 25 45  1  0
 25 46  1  0
 27 47  1  0
 28 48  1  0
M  END
>  <UniqueID>  (8) 
7

>  <SMILES>  (8) 
COc1ccc2c(c1)c(OC)cc1c(C(=O)c3ccc4c(c3)OCCO4)c[nH]c12

>  <Energy>  (8) 
96.12728940598119

>  <Genealogy>  (8) 
COc1ccc2c(c1)c(OC)cc1c(C(=O)c3ccc4c(c3)OCCO4)c[nH]c12 (3D coordinates assigned)
COc1ccc2c(c1)c(OC)cc1c(C(=O)c3ccc4c(c3)OCCO4)c[nH]c12 (nonaromatic ring conformer: 96.12728940598119 kcal/mol)

>  <smiles>  (8) 
COc1ccc2c(c1)c(OC)cc1c(C(=O)c3ccc4c(c3)OCCO4)c[nH]c12

>  <score_type>  (8) 
oracle

>  <origin>  (8) 
adg

>  <m_score__min__energy>  (8) 
-8.3699999999999992

>  <m_primary>  (8) 
energy

$$$$
8:0
     RDKit          3D

 60 64  0  0  0  0  0  0  0  0999 V2000
   56.2780   29.7840   44.8720 O   0  0  0  0  0  0  0  0  0  0  0  0
   57.5120   30.0090   44.7240 C   0  0  0  0  0  0  0  0  0  0  0  0
   57.9560   31.0620   43.7360 C   0  0  0  0  0  0  0  0  0  0  0  0
   57.5660   32.4240   44.1750 N   0  0  0  0  0  0  0  0  0  0  0  0
   58.5520   33.4600   43.7520 C   0  0  0  0  0  0  0  0  0  0  0  0
   59.1240   34.3140   44.9000 C   0  0  0  0  0  0  0  0  0  0  0  0
   59.4490   33.4760   46.0620 N   0  0  0  0  0  0  0  0  0  0  0  0
   60.6010   33.7380   46.8890 C   0  0  0  0  0  0  0  0  0  0  0  0
   60.4660   34.1010   48.2430 C   0  0  0  0  0  0  0  0  0  0  0  0
   61.6100   34.3310   49.0110 C   0  0  0  0  0  0  0  0  0  0  0  0
   62.8740   34.1920   48.4370 C   0  0  0  0  0  0  0  0  0  0  0  0
   62.9750   33.8180   47.0960 C   0  0  0  0  0  0  0  0  0  0  0  0
   61.8510   33.6000   46.3630 N   0  0  0  0  0  0  0  0  0  0  0  0
   58.5070   32.4300   46.4790 C   0  0  0  0  0  0  0  0  0  0  0  0
   57.2400   32.4620   45.6170 C   0  0  0  0  0  0  0  0  0  0  0  0
   58.4680   29.2520   45.5010 N   0  0  0  0  0  0  0  0  0  0  0  0
   59.9120   29.3150   45.2580 C   0  0  0  0  0  0  0  0  0  0  0  0
   60.5720   30.1570   46.3520 C   0  0  0  0  0  0  0  0  0  0  0  0
   60.1280   29.7180   47.6880 N   0  0  0  0  0  0  0  0  0  0  0  0
   61.0010   29.8760   48.8280 C   0  0  0  0  0  0  0  0  0  0  0  0
   61.8620   30.9090   48.9670 N   0  0  0  0  0  0  0  0  0  0  0  0
   62.5830   30.8400   50.1220 C   0  0  0  0  0  0  0  0  0  0  0  0
   63.5850   31.8820   50.4690 C   0  0  0  0  0  0  0  0  0  0  0  0
   63.3490   32.8200   51.4950 C   0  0  0  0  0  0  0  0  0  0  0  0
   64.3110   33.7850   51.8080 C   0  0  0  0  0  0  0  0  0  0  0  0
   65.5170   33.8270   51.1070 C   0  0  0  0  0  0  0  0  0  0  0  0
   65.7660   32.9020   50.0920 C   0  0  0  0  0  0  0  0  0  0  0  0
   64.8090   31.9330   49.7740 C   0  0  0  0  0  0  0  0  0  0  0  0
   62.2850   29.7310   50.9220 C   0  0  0  0  0  0  0  0  0  0  0  0
   61.0980   28.8300   50.1450 S   0  0  0  0  0  0  0  0  0  0  0  0
   58.6880   29.4980   47.9160 C   0  0  0  0  0  0  0  0  0  0  0  0
   58.0810   28.6640   46.7860 C   0  0  0  0  0  0  0  0  0  0  0  0
   59.0507   31.0190   43.6368 H   0  0  0  0  0  0  0  0  0  0  0  0
   57.4651   30.8580   42.7730 H   0  0  0  0  0  0  0  0  0  0  0  0
   59.3902   32.9514   43.2533 H   0  0  0  0  0  0  0  0  0  0  0  0
   58.0097   34.1524   43.0913 H   0  0  0  0  0  0  0  0  0  0  0  0
   60.0374   34.8192   44.5530 H   0  0  0  0  0  0  0  0  0  0  0  0
   58.3673   35.0540   45.1997 H   0  0  0  0  0  0  0  0  0  0  0  0
   59.4672   34.2027   48.6925 H   0  0  0  0  0  0  0  0  0  0  0  0
   61.5143   34.6215   50.0676 H   0  0  0  0  0  0  0  0  0  0  0  0
   63.7797   34.3749   49.0338 H   0  0  0  0  0  0  0  0  0  0  0  0
   63.9652   33.6995   46.6318 H   0  0  0  0  0  0  0  0  0  0  0  0
   58.9899   31.4473   46.3737 H   0  0  0  0  0  0  0  0  0  0  0  0
   58.2244   32.6080   47.5271 H   0  0  0  0  0  0  0  0  0  0  0  0
   56.6161   31.5909   45.8657 H   0  0  0  0  0  0  0  0  0  0  0  0
   56.7036   33.3994   45.8256 H   0  0  0  0  0  0  0  0  0  0  0  0
   60.3319   28.2984   45.2730 H   0  0  0  0  0  0  0  0  0  0  0  0
   60.1010   29.7728   44.2758 H   0  0  0  0  0  0  0  0  0  0  0  0
   61.6644   30.0488   46.2811 H   0  0  0  0  0  0  0  0  0  0  0  0
   60.2823   31.2088   46.2114 H   0  0  0  0  0  0  0  0  0  0  0  0
   62.4014   32.7923   52.0530 H   0  0  0  0  0  0  0  0  0  0  0  0
   64.1167   34.5133   52.6092 H   0  0  0  0  0  0  0  0  0  0  0  0
   66.2710   34.5888   51.3543 H   0  0  0  0  0  0  0  0  0  0  0  0
   66.7173   32.9352   49.5408 H   0  0  0  0  0  0  0  0  0  0  0  0
   65.0138   31.2052   48.9750 H   0  0  0  0  0  0  0  0  0  0  0  0
   62.7473   29.4908   51.8908 H   0  0  0  0  0  0  0  0  0  0  0  0
   58.5507   28.9675   48.8698 H   0  0  0  0  0  0  0  0  0  0  0  0
   58.1821   30.4743   47.9450 H   0  0  0  0  0  0  0  0  0  0  0  0
   58.4553   27.6314   46.8472 H   0  0  0  0  0  0  0  0  0  0  0  0
   56.9848   28.6555   46.8767 H   0  0  0  0  0  0  0  0  0  0  0  0
  1  2  2  0
  2  3  1  0
  3  4  1  0
  4  5  1  0
  5  6  1  0
  6  7  1  0
  7  8  1  0
  8  9  2  0
  9 10  1  0
 10 11  2  0
 11 12  1  0
 12 13  2  0
  7 14  1  0
 14 15  1  0
  2 16  1  0
 16 17  1  0
 17 18  1  0
 18 19  1  0
 19 20  1  0
 20 21  2  0
 21 22  1  0
 22 23  1  0
 23 24  2  0
 24 25  1  0
 25 26  2  0
 26 27  1  0
 27 28  2  0
 22 29  2  0
 29 30  1  0
 19 31  1  0
 31 32  1  0
 15  4  1  0
 32 16  1  0
 13  8  1  0
 30 20  1  0
 28 23  1  0
  3 33  1  0
  3 34  1  0
  5 35  1  0
  5 36  1  0
  6 37  1  0
  6 38  1  0
  9 39  1  0
 10 40  1  0
 11 41  1  0
 12 42  1  0
 14 43  1  0
 14 44  1  0
 15 45  1  0
 15 46  1  0
 17 47  1  0
 17 48  1  0
 18 49  1  0
 18 50  1  0
 24 51  1  0
 25 52  1  0
 26 53  1  0
 27 54  1  0
 28 55  1  0
 29 56  1  0
 31 57  1  0
 31 58  1  0
 32 59  1  0
 32 60  1  0
M  END
>  <UniqueID>  (9) 
8

>  <SMILES>  (9) 
O=C(CN1CCN(c2ccccn2)CC1)N1CCN(c2nc(-c3ccccc3)cs2)CC1

>  <Energy>  (9) 
111.13128167102026

>  <Genealogy>  (9) 
O=C(CN1CCN(c2ccccn2)CC1)N1CCN(c2nc(-c3ccccc3)cs2)CC1 (3D coordinates assigned)
O=C(CN1CCN(c2ccccn2)CC1)N1CCN(c2nc(-c3ccccc3)cs2)CC1 (nonaromatic ring conformer: 111.13128167102026 kcal/mol)

>  <smiles>  (9) 
O=C(CN1CCN(c2ccccn2)CC1)N1CCN(c2nc(-c3ccccc3)cs2)CC1

>  <score_type>  (9) 
oracle

>  <origin>  (9) 
adg

>  <m_score__min__energy>  (9) 
-9.4299999999999997

>  <m_primary>  (9) 
energy

$$$$
9:0
     RDKit          3D

 56 58  0  0  0  0  0  0  0  0999 V2000
   55.6300   30.4610   44.5030 O   0  0  0  0  0  0  0  0  0  0  0  0
   56.6590   29.7280   44.5260 C   0  0  0  0  0  0  0  0  0  0  0  0
   56.6050   28.3690   45.1670 C   0  0  0  0  0  0  0  0  0  0  0  0
   58.0130   27.7910   45.4320 C   0  0  0  0  0  0  0  0  0  0  0  0
   58.9620   28.7630   46.0170 N   0  0  0  0  0  0  0  0  0  0  0  0
   60.3650   28.5300   45.6390 C   0  0  0  0  0  0  0  0  0  0  0  0
   61.1700   29.7870   45.9590 C   0  0  0  0  0  0  0  0  0  0  0  0
   60.9000   30.2550   47.3280 N   0  0  0  0  0  0  0  0  0  0  0  0
   61.6810   31.3430   47.8680 C   0  0  0  0  0  0  0  0  0  0  0  0
   62.7440   31.8990   47.1290 C   0  0  0  0  0  0  0  0  0  0  0  0
   63.4980   32.9520   47.6540 C   0  0  0  0  0  0  0  0  0  0  0  0
   63.1990   33.4670   48.9170 C   0  0  0  0  0  0  0  0  0  0  0  0
   62.1450   32.9280   49.6610 C   0  0  0  0  0  0  0  0  0  0  0  0
   61.7740   33.5700   51.2510 Cl  0  0  0  0  0  0  0  0  0  0  0  0
   61.3890   31.8720   49.1400 C   0  0  0  0  0  0  0  0  0  0  0  0
   60.0240   29.4630   48.2080 C   0  0  0  0  0  0  0  0  0  0  0  0
   58.7580   28.9770   47.4710 C   0  0  0  0  0  0  0  0  0  0  0  0
   57.9010   30.2160   43.9960 N   0  0  0  0  0  0  0  0  0  0  0  0
   58.0470   31.5600   43.4400 C   0  0  0  0  0  0  0  0  0  0  0  0
   57.4570   32.6020   44.3960 C   0  0  0  0  0  0  0  0  0  0  0  0
   58.4770   33.0400   45.4210 C   0  0  0  0  0  0  0  0  0  0  0  0
   59.2320   34.1350   45.2120 C   0  0  0  0  0  0  0  0  0  0  0  0
   60.1790   34.5950   46.2860 C   0  0  0  0  0  0  0  0  0  0  0  0
   59.4800   34.5880   47.6570 C   0  0  0  0  0  0  0  0  0  0  0  0
   58.6040   33.3300   47.9100 C   0  0  0  0  0  0  0  0  0  0  0  0
   58.6100   32.3220   46.7450 C   0  0  0  0  0  0  0  0  0  0  0  0
   56.0697   28.4502   46.1245 H   0  0  0  0  0  0  0  0  0  0  0  0
   56.0866   27.6898   44.4742 H   0  0  0  0  0  0  0  0  0  0  0  0
   57.9140   26.9435   46.1262 H   0  0  0  0  0  0  0  0  0  0  0  0
   58.4237   27.4932   44.4559 H   0  0  0  0  0  0  0  0  0  0  0  0
   60.7657   27.6783   46.2082 H   0  0  0  0  0  0  0  0  0  0  0  0
   60.4324   28.3035   44.5647 H   0  0  0  0  0  0  0  0  0  0  0  0
   62.2422   29.5615   45.8613 H   0  0  0  0  0  0  0  0  0  0  0  0
   60.8757   30.5790   45.2547 H   0  0  0  0  0  0  0  0  0  0  0  0
   62.9822   31.5013   46.1315 H   0  0  0  0  0  0  0  0  0  0  0  0
   64.3288   33.3761   47.0710 H   0  0  0  0  0  0  0  0  0  0  0  0
   63.7930   34.2972   49.3268 H   0  0  0  0  0  0  0  0  0  0  0  0
   60.5602   31.4518   49.7286 H   0  0  0  0  0  0  0  0  0  0  0  0
   60.5823   28.5877   48.5716 H   0  0  0  0  0  0  0  0  0  0  0  0
   59.7077   30.1055   49.0430 H   0  0  0  0  0  0  0  0  0  0  0  0
   58.4374   28.0257   47.9208 H   0  0  0  0  0  0  0  0  0  0  0  0
   57.9998   29.7668   47.5774 H   0  0  0  0  0  0  0  0  0  0  0  0
   58.7320   29.5820   43.9850 H   0  0  0  0  0  0  0  0  0  0  0  0
   59.1148   31.7739   43.2853 H   0  0  0  0  0  0  0  0  0  0  0  0
   57.5082   31.6098   42.4823 H   0  0  0  0  0  0  0  0  0  0  0  0
   57.1317   33.4782   43.8159 H   0  0  0  0  0  0  0  0  0  0  0  0
   56.6046   32.1489   44.9233 H   0  0  0  0  0  0  0  0  0  0  0  0
   59.1569   34.6882   44.2642 H   0  0  0  0  0  0  0  0  0  0  0  0
   61.0464   33.9193   46.3180 H   0  0  0  0  0  0  0  0  0  0  0  0
   60.5064   35.6201   46.0578 H   0  0  0  0  0  0  0  0  0  0  0  0
   60.2516   34.6360   48.4395 H   0  0  0  0  0  0  0  0  0  0  0  0
   58.8051   35.4564   47.6760 H   0  0  0  0  0  0  0  0  0  0  0  0
   58.9796   32.8215   48.8102 H   0  0  0  0  0  0  0  0  0  0  0  0
   57.5675   33.6799   48.0248 H   0  0  0  0  0  0  0  0  0  0  0  0
   59.5553   31.7596   46.7581 H   0  0  0  0  0  0  0  0  0  0  0  0
   57.7582   31.6362   46.8643 H   0  0  0  0  0  0  0  0  0  0  0  0
  1  2  2  0
  2  3  1  0
  3  4  1  0
  4  5  1  0
  5  6  1  0
  6  7  1  0
  7  8  1  0
  8  9  1  0
  9 10  2  0
 10 11  1  0
 11 12  2  0
 12 13  1  0
 13 14  1  0
 13 15  2  0
  8 16  1  0
 16 17  1  0
  2 18  1  0
 18 19  1  0
 19 20  1  0
 20 21  1  0
 21 22  2  0
 22 23  1  0
 23 24  1  0
 24 25  1  0
 25 26  1  0
 17  5  1  0
 26 21  1  0
 15  9  1  0
  3 27  1  0
  3 28  1  0
  4 29  1  0
  4 30  1  0
  6 31  1  0
  6 32  1  0
  7 33  1  0
  7 34  1  0
 10 35  1  0
 11 36  1  0
 12 37  1  0
 15 38  1  0
 16 39  1  0
 16 40  1  0
 17 41  1  0
 17 42  1  0
 18 43  1  0
 19 44  1  0
 19 45  1  0
 20 46  1  0
 20 47  1  0
 22 48  1  0
 23 49  1  0
 23 50  1  0
 24 51  1  0
 24 52  1  0
 25 53  1  0
 25 54  1  0
 26 55  1  0
 26 56  1  0
M  END
>  <UniqueID>  (10) 
9

>  <SMILES>  (10) 
O=C(CCN1CCN(c2cccc(Cl)c2)CC1)NCCC1=CCCCC1

>  <Energy>  (10) 
62.073721766029784

>  <Genealogy>  (10) 
O=C(CCN1CCN(c2cccc(Cl)c2)CC1)NCCC1=CCCCC1 (3D coordinates assigned)
O=C(CCN1CCN(c2cccc(Cl)c2)CC1)NCCC1=CCCCC1 (nonaromatic ring conformer: 62.073721766029784 kcal/mol)

>  <smiles>  (10) 
O=C(CCN1CCN(c2cccc(Cl)c2)CC1)NCCC1=CCCCC1

>  <score_type>  (10) 
oracle

>  <origin>  (10) 
adg

>  <m_score__min__energy>  (10) 
-9.2799999999999994

>  <m_primary>  (10) 
energy

$$$$
10:0
     RDKit          3D

 45 46  0  0  0  0  0  0  0  0999 V2000
   55.6150   29.8250   43.3780 C   0  0  0  0  0  0  0  0  0  0  0  0
   55.6420   29.6220   44.7730 O   0  0  0  0  0  0  0  0  0  0  0  0
   56.8000   28.8970   45.1470 C   0  0  0  0  0  0  0  0  0  0  0  0
   58.0450   29.7960   45.1160 C   0  0  0  0  0  0  0  0  0  0  0  0
   57.7170   31.2110   45.4180 N   0  0  0  0  0  0  0  0  0  0  0  0
   57.7500   32.0440   44.1910 C   0  0  0  0  0  0  0  0  0  0  0  0
   57.4320   33.5320   44.4330 C   0  0  0  0  0  0  0  0  0  0  0  0
   58.5250   34.2260   45.2680 C   0  0  0  0  0  0  0  0  0  0  0  0
   58.2660   34.2350   46.7220 N   0  0  0  0  0  0  0  0  0  0  0  0
   59.2700   34.9830   47.5100 C   0  0  0  0  0  0  0  0  0  0  0  0
   60.5460   34.1800   47.6300 C   0  0  0  0  0  0  0  0  0  0  0  0
   61.4360   34.1510   46.5420 C   0  0  0  0  0  0  0  0  0  0  0  0
   62.6330   33.4360   46.6190 C   0  0  0  0  0  0  0  0  0  0  0  0
   62.9580   32.7430   47.7840 C   0  0  0  0  0  0  0  0  0  0  0  0
   62.0890   32.7620   48.8760 C   0  0  0  0  0  0  0  0  0  0  0  0
   60.8780   33.4730   48.8150 C   0  0  0  0  0  0  0  0  0  0  0  0
   59.9720   33.4820   50.0200 C   0  0  0  0  0  0  0  0  0  0  0  0
   57.8940   32.9230   47.2950 C   0  0  0  0  0  0  0  0  0  0  0  0
   58.5260   31.7230   46.5530 C   0  0  0  0  0  0  0  0  0  0  0  0
   55.4727   30.8949   43.1659 H   0  0  0  0  0  0  0  0  0  0  0  0
   56.5659   29.4876   42.9399 H   0  0  0  0  0  0  0  0  0  0  0  0
   54.7853   29.2508   42.9399 H   0  0  0  0  0  0  0  0  0  0  0  0
   56.6652   28.5039   46.1655 H   0  0  0  0  0  0  0  0  0  0  0  0
   56.9442   28.0732   44.4325 H   0  0  0  0  0  0  0  0  0  0  0  0
   58.7651   29.4312   45.8633 H   0  0  0  0  0  0  0  0  0  0  0  0
   58.4685   29.7547   44.1016 H   0  0  0  0  0  0  0  0  0  0  0  0
   58.7560   31.9726   43.7518 H   0  0  0  0  0  0  0  0  0  0  0  0
   56.9667   31.6565   43.5230 H   0  0  0  0  0  0  0  0  0  0  0  0
   57.3506   34.0406   43.4611 H   0  0  0  0  0  0  0  0  0  0  0  0
   56.4869   33.5914   44.9928 H   0  0  0  0  0  0  0  0  0  0  0  0
   59.4770   33.7041   45.0910 H   0  0  0  0  0  0  0  0  0  0  0  0
   58.5472   35.2775   44.9457 H   0  0  0  0  0  0  0  0  0  0  0  0
   59.4875   35.9375   47.0084 H   0  0  0  0  0  0  0  0  0  0  0  0
   58.8683   35.1700   48.5168 H   0  0  0  0  0  0  0  0  0  0  0  0
   61.1868   34.6973   45.6204 H   0  0  0  0  0  0  0  0  0  0  0  0
   63.3198   33.4196   45.7599 H   0  0  0  0  0  0  0  0  0  0  0  0
   63.9012   32.1801   47.8428 H   0  0  0  0  0  0  0  0  0  0  0  0
   62.3543   32.2154   49.7930 H   0  0  0  0  0  0  0  0  0  0  0  0
   60.5805   33.4760   50.9363 H   0  0  0  0  0  0  0  0  0  0  0  0
   59.3461   34.3864   50.0014 H   0  0  0  0  0  0  0  0  0  0  0  0
   59.3283   32.5902   50.0014 H   0  0  0  0  0  0  0  0  0  0  0  0
   58.2230   32.8957   48.3443 H   0  0  0  0  0  0  0  0  0  0  0  0
   56.8028   32.8253   47.1965 H   0  0  0  0  0  0  0  0  0  0  0  0
   59.5060   32.0361   46.1638 H   0  0  0  0  0  0  0  0  0  0  0  0
   58.5977   30.9036   47.2834 H   0  0  0  0  0  0  0  0  0  0  0  0
  1  2  1  0
  2  3  1  0
  3  4  1  0
  4  5  1  0
  5  6  1  0
  6  7  1  0
  7  8  1  0
  8  9  1  0
  9 10  1  0
 10 11  1  0
 11 12  2  0
 12 13  1  0
 13 14  2  0
 14 15  1  0
 15 16  2  0
 16 17  1  0
  9 18  1  0
 18 19  1  0
 19  5  1  0
 16 11  1  0
  1 20  1  0
  1 21  1  0
  1 22  1  0
  3 23  1  0
  3 24  1  0
  4 25  1  0
  4 26  1  0
  6 27  1  0
  6 28  1  0
  7 29  1  0
  7 30  1  0
  8 31  1  0
  8 32  1  0
 10 33  1  0
 10 34  1  0
 12 35  1  0
 13 36  1  0
 14 37  1  0
 15 38  1  0
 17 39  1  0
 17 40  1  0
 17 41  1  0
 18 42  1  0
 18 43  1  0
 19 44  1  0
 19 45  1  0
M  END
>  <UniqueID>  (11) 
10

>  <SMILES>  (11) 
COCCN1CCCN(Cc2ccccc2C)CC1

>  <Energy>  (11) 
62.953703056880755

>  <Genealogy>  (11) 
COCCN1CCCN(Cc2ccccc2C)CC1 (3D coordinates assigned)
COCCN1CCCN(Cc2ccccc2C)CC1 (nonaromatic ring conformer: 62.953703056880755 kcal/mol)

>  <smiles>  (11) 
COCCN1CCCN(Cc2ccccc2C)CC1

>  <score_type>  (11) 
oracle

>  <origin>  (11) 
adg

>  <m_score__min__energy>  (11) 
-5.3600000000000003

>  <m_primary>  (11) 
energy

$$$$
11:0
     RDKit          3D

 47 49  0  0  0  0  0  0  0  0999 V2000
   59.4950   32.8950   50.6840 C   0  0  0  0  0  0  0  0  0  0  0  0
   59.3230   33.2540   49.2370 C   0  0  0  0  0  0  0  0  0  0  0  0
   60.1230   34.2550   48.6620 C   0  0  0  0  0  0  0  0  0  0  0  0
   59.9930   34.5680   47.3050 C   0  0  0  0  0  0  0  0  0  0  0  0
   59.0700   33.8780   46.5120 C   0  0  0  0  0  0  0  0  0  0  0  0
   58.9050   34.2720   44.7710 S   0  0  0  0  0  0  0  0  0  0  0  0
   57.5400   33.0950   44.5040 C   0  0  0  0  0  0  0  0  0  0  0  0
   57.7730   32.3090   43.2160 C   0  0  0  0  0  0  0  0  0  0  0  0
   58.1910   30.9390   43.5090 N   0  0  0  0  0  0  0  0  0  0  0  0
   57.3320   30.0320   44.2140 C   0  0  0  0  0  0  0  0  0  0  0  0
   56.1690   30.3860   44.5470 O   0  0  0  0  0  0  0  0  0  0  0  0
   57.8240   28.6670   44.5940 C   0  0  0  0  0  0  0  0  0  0  0  0
   58.4710   28.7100   45.9140 N   0  0  0  0  0  0  0  0  0  0  0  0
   58.0090   27.8810   46.9100 C   0  0  0  0  0  0  0  0  0  0  0  0
   58.5640   27.9060   48.1520 N   0  0  0  0  0  0  0  0  0  0  0  0
   59.5750   28.7660   48.4030 C   0  0  0  0  0  0  0  0  0  0  0  0
   60.3780   28.9600   49.8580 S   0  0  0  0  0  0  0  0  0  0  0  0
   61.3990   30.1830   49.2840 C   0  0  0  0  0  0  0  0  0  0  0  0
   62.4250   30.8720   50.1260 C   0  0  0  0  0  0  0  0  0  0  0  0
   61.1080   30.4520   47.9350 C   0  0  0  0  0  0  0  0  0  0  0  0
   61.8100   31.5030   47.1160 C   0  0  0  0  0  0  0  0  0  0  0  0
   60.0670   29.6330   47.4470 C   0  0  0  0  0  0  0  0  0  0  0  0
   59.4920   29.5990   46.1670 C   0  0  0  0  0  0  0  0  0  0  0  0
   59.9050   30.3750   45.2610 O   0  0  0  0  0  0  0  0  0  0  0  0
   58.2830   32.8670   47.0770 C   0  0  0  0  0  0  0  0  0  0  0  0
   58.4130   32.5510   48.4330 C   0  0  0  0  0  0  0  0  0  0  0  0
   59.1050   33.7091   51.3126 H   0  0  0  0  0  0  0  0  0  0  0  0
   58.9431   31.9683   50.9000 H   0  0  0  0  0  0  0  0  0  0  0  0
   60.5630   32.7445   50.9000 H   0  0  0  0  0  0  0  0  0  0  0  0
   60.8545   34.7948   49.2812 H   0  0  0  0  0  0  0  0  0  0  0  0
   60.6171   35.3575   46.8609 H   0  0  0  0  0  0  0  0  0  0  0  0
   57.4896   32.3970   45.3527 H   0  0  0  0  0  0  0  0  0  0  0  0
   56.5945   33.6511   44.4218 H   0  0  0  0  0  0  0  0  0  0  0  0
   56.8391   32.2842   42.6354 H   0  0  0  0  0  0  0  0  0  0  0  0
   58.5697   32.8042   42.6415 H   0  0  0  0  0  0  0  0  0  0  0  0
   59.1330   30.6050   43.2030 H   0  0  0  0  0  0  0  0  0  0  0  0
   56.9732   27.9707   44.6288 H   0  0  0  0  0  0  0  0  0  0  0  0
   58.5560   28.3281   43.8462 H   0  0  0  0  0  0  0  0  0  0  0  0
   57.1802   27.1890   46.6995 H   0  0  0  0  0  0  0  0  0  0  0  0
   62.1918   30.7154   51.1895 H   0  0  0  0  0  0  0  0  0  0  0  0
   63.4197   30.4581   49.9039 H   0  0  0  0  0  0  0  0  0  0  0  0
   62.4182   31.9493   49.9039 H   0  0  0  0  0  0  0  0  0  0  0  0
   62.2942   32.2279   47.7869 H   0  0  0  0  0  0  0  0  0  0  0  0
   62.5712   31.0255   46.4814 H   0  0  0  0  0  0  0  0  0  0  0  0
   61.0774   32.0232   46.4814 H   0  0  0  0  0  0  0  0  0  0  0  0
   57.5609   32.3202   46.4528 H   0  0  0  0  0  0  0  0  0  0  0  0
   57.8002   31.7491   48.8705 H   0  0  0  0  0  0  0  0  0  0  0  0
  1  2  1  0
  2  3  2  0
  3  4  1  0
  4  5  2  0
  5  6  1  0
  6  7  1  0
  7  8  1  0
  8  9  1  0
  9 10  1  0
 10 11  2  0
 10 12  1  0
 12 13  1  0
 13 14  1  0
 14 15  2  0
 15 16  1  0
 16 17  1  0
 17 18  1  0
 18 19  1  0
 18 20  2  0
 20 21  1  0
 20 22  1  0
 22 23  1  0
 23 24  2  0
  5 25  1  0
 25 26  2  0
 26  2  1  0
 23 13  1  0
 22 16  2  0
  1 27  1  0
  1 28  1  0
  1 29  1  0
  3 30  1  0
  4 31  1  0
  7 32  1  0
  7 33  1  0
  8 34  1  0
  8 35  1  0
  9 36  1  0
 12 37  1  0
 12 38  1  0
 14 39  1  0
 19 40  1  0
 19 41  1  0
 19 42  1  0
 21 43  1  0
 21 44  1  0
 21 45  1  0
 25 46  1  0
 26 47  1  0
M  END
>  <UniqueID>  (12) 
11

>  <SMILES>  (12) 
Cc1ccc(SCCNC(=O)Cn2cnc3sc(C)c(C)c3c2=O)cc1

>  <Energy>  (12) 
73.10168187781915

>  <Genealogy>  (12) 
Cc1ccc(SCCNC(=O)Cn2cnc3sc(C)c(C)c3c2=O)cc1 (3D coordinates assigned)
Cc1ccc(SCCNC(=O)Cn2cnc3sc(C)c(C)c3c2=O)cc1 (optimized conformer: 73.10168187781915 kcal/mol)

>  <smiles>  (12) 
Cc1ccc(SCCNC(=O)Cn2cnc3sc(C)c(C)c3c2=O)cc1

>  <score_type>  (12) 
oracle

>  <origin>  (12) 
adg

>  <m_score__min__energy>  (12) 
-7.7599999999999998

>  <m_primary>  (12) 
energy

$$$$
12:0
     RDKit          3D

 46 49  0  0  0  0  0  0  0  0999 V2000
   56.2562   33.1554   43.9906 H   0  0  0  0  0  0  0  0  0  0  0  0
   57.0860   33.2050   44.7110 C   0  0  0  0  0  0  0  0  0  0  0  0
   57.4170   34.4900   45.7510 S   0  0  0  0  0  0  0  0  0  0  0  0
   58.7570   33.7300   46.4180 C   0  0  0  0  0  0  0  0  0  0  0  0
   59.5150   34.2700   47.3260 N   0  0  0  0  0  0  0  0  0  0  0  0
   59.7610   33.7150   48.6270 C   0  0  0  0  0  0  0  0  0  0  0  0
   60.8470   34.1940   49.3740 C   0  0  0  0  0  0  0  0  0  0  0  0
   61.5017   34.9708   48.9523 H   0  0  0  0  0  0  0  0  0  0  0  0
   61.1010   33.6880   50.6530 C   0  0  0  0  0  0  0  0  0  0  0  0
   61.9650   34.0547   51.2267 H   0  0  0  0  0  0  0  0  0  0  0  0
   60.2590   32.7170   51.2040 C   0  0  0  0  0  0  0  0  0  0  0  0
   60.5040   32.2310   52.4460 F   0  0  0  0  0  0  0  0  0  0  0  0
   59.1540   32.2600   50.4810 C   0  0  0  0  0  0  0  0  0  0  0  0
   58.4854   31.5052   50.9207 H   0  0  0  0  0  0  0  0  0  0  0  0
   58.8950   32.7590   49.2000 C   0  0  0  0  0  0  0  0  0  0  0  0
   57.7790   32.3510   48.5460 F   0  0  0  0  0  0  0  0  0  0  0  0
   58.9860   32.5210   45.8600 N   0  0  0  0  0  0  0  0  0  0  0  0
   58.0460   32.2160   44.9220 C   0  0  0  0  0  0  0  0  0  0  0  0
   58.1020   30.9560   44.1080 C   0  0  0  0  0  0  0  0  0  0  0  0
   59.1543   30.6937   43.9238 H   0  0  0  0  0  0  0  0  0  0  0  0
   57.5750   31.1298   43.1582 H   0  0  0  0  0  0  0  0  0  0  0  0
   57.4330   29.8220   44.8230 C   0  0  0  0  0  0  0  0  0  0  0  0
   56.1750   29.7330   44.8150 O   0  0  0  0  0  0  0  0  0  0  0  0
   58.2360   28.8610   45.5220 N   0  0  0  0  0  0  0  0  0  0  0  0
   59.1810   29.1370   46.5680 C   0  0  0  0  0  0  0  0  0  0  0  0
   60.0900   30.2060   46.4660 C   0  0  0  0  0  0  0  0  0  0  0  0
   60.0567   30.8643   45.5853 H   0  0  0  0  0  0  0  0  0  0  0  0
   61.0390   30.4440   47.4730 C   0  0  0  0  0  0  0  0  0  0  0  0
   61.9670   31.5430   47.3630 N   0  0  0  0  0  0  0  0  0  0  0  0
   63.2140   31.5980   47.8820 C   0  0  0  0  0  0  0  0  0  0  0  0
   63.7027   30.8020   48.4631 H   0  0  0  0  0  0  0  0  0  0  0  0
   63.7730   32.8210   47.5610 C   0  0  0  0  0  0  0  0  0  0  0  0
   64.7752   33.1899   47.8248 H   0  0  0  0  0  0  0  0  0  0  0  0
   62.7970   33.4790   46.8360 C   0  0  0  0  0  0  0  0  0  0  0  0
   62.8875   34.4901   46.4123 H   0  0  0  0  0  0  0  0  0  0  0  0
   61.7180   32.6810   46.7330 N   0  0  0  0  0  0  0  0  0  0  0  0
   60.8210   32.9320   46.2590 H   0  0  0  0  0  0  0  0  0  0  0  0
   61.0790   29.5910   48.5850 C   0  0  0  0  0  0  0  0  0  0  0  0
   61.8131   29.7706   49.3842 H   0  0  0  0  0  0  0  0  0  0  0  0
   60.1950   28.5160   48.6860 C   0  0  0  0  0  0  0  0  0  0  0  0
   60.2418   27.8515   49.5613 H   0  0  0  0  0  0  0  0  0  0  0  0
   59.2470   28.2760   47.6800 C   0  0  0  0  0  0  0  0  0  0  0  0
   58.3020   27.1130   47.8010 C   0  0  0  0  0  0  0  0  0  0  0  0
   58.1242   26.8941   48.8642 H   0  0  0  0  0  0  0  0  0  0  0  0
   57.3482   27.3634   47.3136 H   0  0  0  0  0  0  0  0  0  0  0  0
   58.7422   26.2306   47.3136 H   0  0  0  0  0  0  0  0  0  0  0  0
  1  2  1  0
  2  3  1  0
  3  4  1  0
  4  5  2  0
  5  6  1  0
  6  7  2  0
  7  8  1  0
  7  9  1  0
  9 10  1  0
  9 11  2  0
 11 12  1  0
 11 13  1  0
 13 14  1  0
 13 15  2  0
 15 16  1  0
  4 17  1  0
 17 18  1  0
 18 19  1  0
 19 20  1  0
 19 21  1  0
 19 22  1  0
 22 23  2  0
 22 24  1  0
 24 25  1  0
 25 26  2  0
 26 27  1  0
 26 28  1  0
 28 29  1  0
 29 30  1  0
 30 31  1  0
 30 32  2  0
 32 33  1  0
 32 34  1  0
 34 35  1  0
 34 36  2  0
 36 37  1  0
 28 38  2  0
 38 39  1  0
 38 40  1  0
 40 41  1  0
 40 42  2  0
 42 43  1  0
 43 44  1  0
 43 45  1  0
 43 46  1  0
 18  2  2  0
 42 25  1  0
 15  6  1  0
 36 29  1  0
M  CHG  3  17  -1  24  -1  36   1
M  END
>  <UniqueID>  (13) 
12

>  <SMILES>  (13) 
Cc1ccc(-n2ccc[nH+]2)cc1[N-]C(=O)Cc1cs/c(=N/c2ccc(F)cc2F)[n-]1

>  <Energy>  (13) 
119.01158113849928

>  <Genealogy>  (13) 
Cc1ccc(-n2ccc[nH+]2)cc1[N-]C(=O)Cc1csc(=Nc2ccc(F)cc2F)[n-]1 (protonated)
Cc1ccc(-n2ccc[nH+]2)cc1[N-]C(=O)Cc1cs/c(=N/c2ccc(F)cc2F)[n-]1 (cis-trans isomerization)
Cc1ccc(-n2ccc[nH+]2)cc1[N-]C(=O)Cc1cs/c(=N/c2ccc(F)cc2F)[n-]1 (3D coordinates assigned)
Cc1ccc(-n2ccc[nH+]2)cc1[N-]C(=O)Cc1cs/c(=N/c2ccc(F)cc2F)[n-]1 (optimized conformer: 119.01158113849928 kcal/mol)

>  <smiles>  (13) 
Cc1ccc(-n2cccn2)cc1NC(=O)Cc1csc(=Nc2ccc(F)cc2F)[nH]1

>  <score_type>  (13) 
oracle

>  <origin>  (13) 
adg

>  <m_score__min__energy>  (13) 
-9.7599999999999998

>  <m_primary>  (13) 
energy

$$$$
13:0
     RDKit          3D

 48 52  0  0  0  0  0  0  0  0999 V2000
   60.9210   31.1750   49.2510 C   0  0  0  0  0  0  0  0  0  0  0  0
   59.9890   31.7670   48.4380 N   0  0  0  0  0  0  0  0  0  0  0  0
   60.3520   32.6410   47.4520 C   0  0  0  0  0  0  0  0  0  0  0  0
   59.3540   33.2420   46.6140 N   0  0  0  0  0  0  0  0  0  0  0  0
   59.7620   34.2550   45.6350 C   0  0  0  0  0  0  0  0  0  0  0  0
   58.5430   34.8200   44.8900 C   0  0  0  0  0  0  0  0  0  0  0  0
   57.5700   33.7580   44.5670 N   0  0  0  0  0  0  0  0  0  0  0  0
   58.1130   32.7820   43.5970 C   0  0  0  0  0  0  0  0  0  0  0  0
   57.8700   31.3760   44.0790 C   0  0  0  0  0  0  0  0  0  0  0  0
   56.6760   30.6980   43.7490 C   0  0  0  0  0  0  0  0  0  0  0  0
   56.4620   29.3850   44.1920 C   0  0  0  0  0  0  0  0  0  0  0  0
   57.4480   28.7630   44.9590 C   0  0  0  0  0  0  0  0  0  0  0  0
   58.6090   29.4150   45.2830 C   0  0  0  0  0  0  0  0  0  0  0  0
   58.8470   30.7240   44.8570 C   0  0  0  0  0  0  0  0  0  0  0  0
   59.5130   28.5730   46.0990 C   0  0  0  0  0  0  0  0  0  0  0  0
   58.7570   27.2370   46.2360 C   0  0  0  0  0  0  0  0  0  0  0  0
   57.4040   27.3930   45.5150 C   0  0  0  0  0  0  0  0  0  0  0  0
   57.0170   33.1030   45.7810 C   0  0  0  0  0  0  0  0  0  0  0  0
   57.9460   33.1570   47.0130 C   0  0  0  0  0  0  0  0  0  0  0  0
   61.7130   32.9000   47.2890 C   0  0  0  0  0  0  0  0  0  0  0  0
   62.4290   33.6470   46.3740 C   0  0  0  0  0  0  0  0  0  0  0  0
   63.7650   33.4570   46.7170 C   0  0  0  0  0  0  0  0  0  0  0  0
   63.8780   32.6300   47.7820 N   0  0  0  0  0  0  0  0  0  0  0  0
   62.6200   32.2990   48.1100 C   0  0  0  0  0  0  0  0  0  0  0  0
   62.2500   31.4390   49.0880 N   0  0  0  0  0  0  0  0  0  0  0  0
   60.5950   30.4820   50.0406 H   0  0  0  0  0  0  0  0  0  0  0  0
   60.2761   35.0748   46.1581 H   0  0  0  0  0  0  0  0  0  0  0  0
   60.4346   33.7849   44.9025 H   0  0  0  0  0  0  0  0  0  0  0  0
   58.0532   35.5733   45.5245 H   0  0  0  0  0  0  0  0  0  0  0  0
   58.8905   35.2696   43.9481 H   0  0  0  0  0  0  0  0  0  0  0  0
   57.6182   32.9230   42.6247 H   0  0  0  0  0  0  0  0  0  0  0  0
   59.1963   32.9433   43.4953 H   0  0  0  0  0  0  0  0  0  0  0  0
   55.9101   31.2024   43.1415 H   0  0  0  0  0  0  0  0  0  0  0  0
   55.5324   28.8541   43.9392 H   0  0  0  0  0  0  0  0  0  0  0  0
   59.7823   31.2374   45.1247 H   0  0  0  0  0  0  0  0  0  0  0  0
   60.4766   28.4263   45.5892 H   0  0  0  0  0  0  0  0  0  0  0  0
   59.7497   29.0269   47.0726 H   0  0  0  0  0  0  0  0  0  0  0  0
   59.3387   26.4272   45.7715 H   0  0  0  0  0  0  0  0  0  0  0  0
   58.6039   26.9859   47.2960 H   0  0  0  0  0  0  0  0  0  0  0  0
   57.3014   26.6486   44.7117 H   0  0  0  0  0  0  0  0  0  0  0  0
   56.5470   27.2370   46.1867 H   0  0  0  0  0  0  0  0  0  0  0  0
   56.0715   33.6016   46.0407 H   0  0  0  0  0  0  0  0  0  0  0  0
   56.8862   32.0395   45.5324 H   0  0  0  0  0  0  0  0  0  0  0  0
   57.6904   34.0406   47.6163 H   0  0  0  0  0  0  0  0  0  0  0  0
   57.8049   32.2346   47.5954 H   0  0  0  0  0  0  0  0  0  0  0  0
   62.0300   34.2595   45.5521 H   0  0  0  0  0  0  0  0  0  0  0  0
   64.6150   33.9176   46.1923 H   0  0  0  0  0  0  0  0  0  0  0  0
   64.7590   32.3020   48.2360 H   0  0  0  0  0  0  0  0  0  0  0  0
  1  2  2  0
  2  3  1  0
  3  4  1  0
  4  5  1  0
  5  6  1  0
  6  7  1  0
  7  8  1  0
  8  9  1  0
  9 10  2  0
 10 11  1  0
 11 12  2  0
 12 13  1  0
 13 14  2  0
 13 15  1  0
 15 16  1  0
 16 17  1  0
  7 18  1  0
 18 19  1  0
  3 20  2  0
 20 21  1  0
 21 22  2  0
 22 23  1  0
 23 24  1  0
 24 25  2  0
 25  1  1  0
 19  4  1  0
 24 20  1  0
 14  9  1  0
 17 12  1  0
  1 26  1  0
  5 27  1  0
  5 28  1  0
  6 29  1  0
  6 30  1  0
  8 31  1  0
  8 32  1  0
 10 33  1  0
 11 34  1  0
 14 35  1  0
 15 36  1  0
 15 37  1  0
 16 38  1  0
 16 39  1  0
 17 40  1  0
 17 41  1  0
 18 42  1  0
 18 43  1  0
 19 44  1  0
 19 45  1  0
 21 46  1  0
 22 47  1  0
 23 48  1  0
M  END
>  <UniqueID>  (14) 
13

>  <SMILES>  (14) 
c1nc(N2CCN(Cc3ccc4c(c3)CCC4)CC2)c2cc[nH]c2n1

>  <Energy>  (14) 
106.99088478774141

>  <Genealogy>  (14) 
c1nc(N2CCN(Cc3ccc4c(c3)CCC4)CC2)c2cc[nH]c2n1 (3D coordinates assigned)
c1nc(N2CCN(Cc3ccc4c(c3)CCC4)CC2)c2cc[nH]c2n1 (nonaromatic ring conformer: 106.99088478774141 kcal/mol)

>  <smiles>  (14) 
c1nc(N2CCN(Cc3ccc4c(c3)CCC4)CC2)c2cc[nH]c2n1

>  <score_type>  (14) 
oracle

>  <origin>  (14) 
adg

>  <m_score__min__energy>  (14) 
-8.5600000000000005

>  <m_primary>  (14) 
energy

$$$$
14:0
     RDKit          3D

 37 39  0  0  0  0  0  0  0  0999 V2000
   61.6620   25.5320   52.6980 C   0  0  0  0  0  0  0  0  0  0  0  0
   61.2450   26.8910   52.6130 O   0  0  0  0  0  0  0  0  0  0  0  0
   60.9650   27.5620   51.4130 C   0  0  0  0  0  0  0  0  0  0  0  0
   60.7210   28.9470   51.3600 C   0  0  0  0  0  0  0  0  0  0  0  0
   60.4490   29.5840   50.1320 C   0  0  0  0  0  0  0  0  0  0  0  0
   60.2200   30.9690   50.0600 O   0  0  0  0  0  0  0  0  0  0  0  0
   58.9890   31.6080   50.3820 C   0  0  0  0  0  0  0  0  0  0  0  0
   60.4180   28.8140   48.9490 C   0  0  0  0  0  0  0  0  0  0  0  0
   60.6460   27.4270   49.0110 C   0  0  0  0  0  0  0  0  0  0  0  0
   60.9280   26.8160   50.2340 C   0  0  0  0  0  0  0  0  0  0  0  0
   60.5790   26.6380   47.8540 O   0  0  0  0  0  0  0  0  0  0  0  0
   60.1220   27.1230   46.5850 C   0  0  1  0  0  0  0  0  0  0  0  0
   58.6370   26.8770   46.3970 C   0  0  0  0  0  0  0  0  0  0  0  0
   58.0020   25.7280   46.9100 C   0  0  0  0  0  0  0  0  0  0  0  0
   56.6240   25.5500   46.7530 C   0  0  0  0  0  0  0  0  0  0  0  0
   55.8610   26.5180   46.0950 C   0  0  0  0  0  0  0  0  0  0  0  0
   54.4930   26.3370   45.9420 O   0  0  0  0  0  0  0  0  0  0  0  0
   56.4760   27.6680   45.5950 C   0  0  0  0  0  0  0  0  0  0  0  0
   57.8540   27.8510   45.7500 C   0  0  0  0  0  0  0  0  0  0  0  0
   60.4790   28.6070   46.3860 C   0  0  0  0  0  0  0  0  0  0  0  0
   60.1670   29.4070   47.6160 C   0  0  0  0  0  0  0  0  0  0  0  0
   59.7420   30.5880   47.4930 O   0  0  0  0  0  0  0  0  0  0  0  0
   61.7512   25.2413   53.7551 H   0  0  0  0  0  0  0  0  0  0  0  0
   60.9198   24.8890   52.2023 H   0  0  0  0  0  0  0  0  0  0  0  0
   62.6371   25.4160   52.2023 H   0  0  0  0  0  0  0  0  0  0  0  0
   60.7427   29.5390   52.2868 H   0  0  0  0  0  0  0  0  0  0  0  0
   58.8802   31.6645   51.4751 H   0  0  0  0  0  0  0  0  0  0  0  0
   58.9817   32.6237   49.9598 H   0  0  0  0  0  0  0  0  0  0  0  0
   58.1541   31.0294   49.9598 H   0  0  0  0  0  0  0  0  0  0  0  0
   61.1233   25.7340   50.2689 H   0  0  0  0  0  0  0  0  0  0  0  0
   60.6493   26.5521   45.8065 H   0  0  0  0  0  0  0  0  0  0  0  0
   58.5946   24.9660   47.4375 H   0  0  0  0  0  0  0  0  0  0  0  0
   56.1393   24.6453   47.1487 H   0  0  0  0  0  0  0  0  0  0  0  0
   55.8755   28.4312   45.0783 H   0  0  0  0  0  0  0  0  0  0  0  0
   58.3298   28.7641   45.3628 H   0  0  0  0  0  0  0  0  0  0  0  0
   61.5533   28.6916   46.1653 H   0  0  0  0  0  0  0  0  0  0  0  0
   59.8807   29.0015   45.5515 H   0  0  0  0  0  0  0  0  0  0  0  0
  1  2  1  0
  2  3  1  0
  3  4  2  0
  4  5  1  0
  5  6  1  0
  6  7  1  0
  5  8  2  0
  8  9  1  0
  9 10  2  0
  9 11  1  0
 11 12  1  0
 12 13  1  0
 13 14  2  0
 14 15  1  0
 15 16  2  0
 16 17  1  0
 16 18  1  0
 18 19  2  0
 12 20  1  0
 20 21  1  0
 21 22  2  0
 10  3  1  0
 19 13  1  0
 21  8  1  0
  1 23  1  0
  1 24  1  0
  1 25  1  0
  4 26  1  0
  7 27  1  0
  7 28  1  0
  7 29  1  0
 10 30  1  0
 12 31  1  6
 14 32  1  0
 15 33  1  0
 18 34  1  0
 19 35  1  0
 20 36  1  0
 20 37  1  0
M  CHG  1  17  -1
M  END
>  <UniqueID>  (15) 
14

>  <SMILES>  (15) 
COc1cc(OC)c2c(c1)O[C@@H](c1ccc([O-])cc1)CC2=O

>  <Energy>  (15) 
42.503011495848675

>  <Genealogy>  (15) 
COc1cc(OC)c2c(c1)OC(c1ccc([O-])cc1)CC2=O (protonated)
COc1cc(OC)c2c(c1)O[C@@H](c1ccc([O-])cc1)CC2=O (chirality)
COc1cc(OC)c2c(c1)O[C@@H](c1ccc([O-])cc1)CC2=O (3D coordinates assigned)
COc1cc(OC)c2c(c1)O[C@@H](c1ccc([O-])cc1)CC2=O (nonaromatic ring conformer: 42.503011495848675 kcal/mol)

>  <smiles>  (15) 
COc1cc(OC)c2c(c1)OC(c1ccc(O)cc1)CC2=O

>  <score_type>  (15) 
oracle

>  <origin>  (15) 
adg

>  <m_score__min__energy>  (15) 
-8.8000000000000007

>  <m_primary>  (15) 
energy

$$$$
15:0
     RDKit          3D

 55 57  0  0  0  0  0  0  0  0999 V2000
   58.4910   25.4220   46.3980 C   0  0  0  0  0  0  0  0  0  0  0  0
   59.4800   26.4170   46.1480 O   0  0  0  0  0  0  0  0  0  0  0  0
   59.3720   27.7650   46.5340 C   0  0  0  0  0  0  0  0  0  0  0  0
   60.1660   28.3100   47.5580 C   0  0  0  0  0  0  0  0  0  0  0  0
   60.0220   29.6480   47.9350 C   0  0  0  0  0  0  0  0  0  0  0  0
   60.8720   30.2190   49.0410 C   0  0  0  0  0  0  0  0  0  0  0  0
   61.9370   31.0590   48.4940 N   0  0  0  0  0  0  0  0  0  0  0  0
   62.2640   31.1930   47.1980 C   0  0  0  0  0  0  0  0  0  0  0  0
   63.3540   32.0300   47.1180 C   0  0  0  0  0  0  0  0  0  0  0  0
   63.7210   32.4200   48.3560 N   0  0  0  0  0  0  0  0  0  0  0  0
   62.8340   31.8100   49.1690 C   0  0  0  0  0  0  0  0  0  0  0  0
   62.8870   31.9720   50.9580 S   0  0  0  0  0  0  0  0  0  0  0  0
   62.2820   33.6930   50.9850 C   0  0  0  0  0  0  0  0  0  0  0  0
   61.0900   33.8520   50.0920 C   0  0  0  0  0  0  0  0  0  0  0  0
   59.9460   33.9880   50.6080 O   0  0  0  0  0  0  0  0  0  0  0  0
   61.2650   33.9290   48.6680 N   0  0  0  0  0  0  0  0  0  0  0  0
   60.1800   34.0360   47.7310 C   0  0  0  0  0  0  0  0  0  0  0  0
   58.9050   33.5210   48.0260 C   0  0  0  0  0  0  0  0  0  0  0  0
   57.8700   33.6220   47.0920 C   0  0  0  0  0  0  0  0  0  0  0  0
   58.1010   34.2070   45.8390 C   0  0  0  0  0  0  0  0  0  0  0  0
   56.9840   34.3360   44.8440 C   0  0  0  0  0  0  0  0  0  0  0  0
   59.3730   34.7170   45.5430 C   0  0  0  0  0  0  0  0  0  0  0  0
   60.4070   34.6190   46.4770 C   0  0  0  0  0  0  0  0  0  0  0  0
   59.0940   30.4540   47.2640 C   0  0  0  0  0  0  0  0  0  0  0  0
   58.2990   29.9350   46.2260 C   0  0  0  0  0  0  0  0  0  0  0  0
   57.3680   30.7450   45.5580 O   0  0  0  0  0  0  0  0  0  0  0  0
   57.3640   31.0080   44.1600 C   0  0  0  0  0  0  0  0  0  0  0  0
   58.4400   28.5720   45.8630 C   0  0  0  0  0  0  0  0  0  0  0  0
   57.6840   27.9550   44.8500 O   0  0  0  0  0  0  0  0  0  0  0  0
   58.1670   27.5180   43.5840 C   0  0  0  0  0  0  0  0  0  0  0  0
   58.3648   25.2950   47.4833 H   0  0  0  0  0  0  0  0  0  0  0  0
   57.5354   25.7346   45.9518 H   0  0  0  0  0  0  0  0  0  0  0  0
   58.8094   24.4683   45.9518 H   0  0  0  0  0  0  0  0  0  0  0  0
   60.9077   27.6773   48.0674 H   0  0  0  0  0  0  0  0  0  0  0  0
   60.2395   30.8254   49.7060 H   0  0  0  0  0  0  0  0  0  0  0  0
   61.3285   29.3891   49.6003 H   0  0  0  0  0  0  0  0  0  0  0  0
   61.7507   30.7173   46.3493 H   0  0  0  0  0  0  0  0  0  0  0  0
   63.8508   32.3348   46.1851 H   0  0  0  0  0  0  0  0  0  0  0  0
   61.9998   33.9599   52.0141 H   0  0  0  0  0  0  0  0  0  0  0  0
   63.0836   34.3542   50.6240 H   0  0  0  0  0  0  0  0  0  0  0  0
   62.2380   34.0380   48.3020 H   0  0  0  0  0  0  0  0  0  0  0  0
   58.7214   33.0364   48.9963 H   0  0  0  0  0  0  0  0  0  0  0  0
   56.8689   33.2405   47.3414 H   0  0  0  0  0  0  0  0  0  0  0  0
   56.0285   34.4463   45.3777 H   0  0  0  0  0  0  0  0  0  0  0  0
   57.1556   35.2203   44.2127 H   0  0  0  0  0  0  0  0  0  0  0  0
   56.9495   33.4359   44.2127 H   0  0  0  0  0  0  0  0  0  0  0  0
   59.5576   35.1967   44.5705 H   0  0  0  0  0  0  0  0  0  0  0  0
   61.4071   35.0024   46.2263 H   0  0  0  0  0  0  0  0  0  0  0  0
   58.9850   31.5097   47.5532 H   0  0  0  0  0  0  0  0  0  0  0  0
   57.3475   32.0949   43.9914 H   0  0  0  0  0  0  0  0  0  0  0  0
   58.2688   30.5799   43.7038 H   0  0  0  0  0  0  0  0  0  0  0  0
   56.4727   30.5526   43.7038 H   0  0  0  0  0  0  0  0  0  0  0  0
   58.9752   26.7867   43.7324 H   0  0  0  0  0  0  0  0  0  0  0  0
   57.3469   27.0488   43.0207 H   0  0  0  0  0  0  0  0  0  0  0  0
   58.5520   28.3808   43.0207 H   0  0  0  0  0  0  0  0  0  0  0  0
  1  2  1  0
  2  3  1  0
  3  4  2  0
  4  5  1  0
  5  6  1  0
  6  7  1  0
  7  8  1  0
  8  9  2  0
  9 10  1  0
 10 11  2  0
 11 12  1  0
 12 13  1  0
 13 14  1  0
 14 15  2  0
 14 16  1  0
 16 17  1  0
 17 18  2  0
 18 19  1  0
 19 20  2  0
 20 21  1  0
 20 22  1  0
 22 23  2  0
  5 24  2  0
 24 25  1  0
 25 26  1  0
 26 27  1  0
 25 28  2  0
 28 29  1  0
 29 30  1  0
 28  3  1  0
 11  7  1  0
 23 17  1  0
  1 31  1  0
  1 32  1  0
  1 33  1  0
  4 34  1  0
  6 35  1  0
  6 36  1  0
  8 37  1  0
  9 38  1  0
 13 39  1  0
 13 40  1  0
 16 41  1  0
 18 42  1  0
 19 43  1  0
 21 44  1  0
 21 45  1  0
 21 46  1  0
 22 47  1  0
 23 48  1  0
 24 49  1  0
 27 50  1  0
 27 51  1  0
 27 52  1  0
 30 53  1  0
 30 54  1  0
 30 55  1  0
M  END
>  <UniqueID>  (16) 
15

>  <SMILES>  (16) 
COc1cc(Cn2ccnc2SCC(=O)Nc2ccc(C)cc2)cc(OC)c1OC

>  <Energy>  (16) 
82.69156081883925

>  <Genealogy>  (16) 
COc1cc(Cn2ccnc2SCC(=O)Nc2ccc(C)cc2)cc(OC)c1OC (3D coordinates assigned)
COc1cc(Cn2ccnc2SCC(=O)Nc2ccc(C)cc2)cc(OC)c1OC (optimized conformer: 82.69156081883925 kcal/mol)

>  <smiles>  (16) 
COc1cc(Cn2ccnc2SCC(=O)Nc2ccc(C)cc2)cc(OC)c1OC

>  <score_type>  (16) 
oracle

>  <origin>  (16) 
adg

>  <m_score__min__energy>  (16) 
-7.6399999999999997

>  <m_primary>  (16) 
energy

$$$$
16:0
     RDKit          3D

 33 35  0  0  0  0  0  0  0  0999 V2000
   57.7310   32.3130   42.7590 O   0  0  0  0  0  0  0  0  0  0  0  0
   57.6190   32.2210   44.0120 C   0  0  0  0  0  0  0  0  0  0  0  0
   56.7850   31.2010   44.5840 N   0  0  0  0  0  0  0  0  0  0  0  0
   56.2460   30.0920   43.7940 C   0  0  0  0  0  0  0  0  0  0  0  0
   57.2790   28.9690   43.6600 C   0  0  0  0  0  0  0  0  0  0  0  0
   58.2170   28.9350   44.8380 C   0  0  0  0  0  0  0  0  0  0  0  0
   59.5520   29.3410   44.6980 C   0  0  0  0  0  0  0  0  0  0  0  0
   60.3980   29.3530   45.8090 C   0  0  0  0  0  0  0  0  0  0  0  0
   59.8990   28.9640   47.0540 C   0  0  0  0  0  0  0  0  0  0  0  0
   58.6000   28.5800   47.1770 N   0  0  0  0  0  0  0  0  0  0  0  0
   57.7570   28.5580   46.1110 C   0  0  0  0  0  0  0  0  0  0  0  0
   58.3660   33.1580   44.8710 C   0  0  0  0  0  0  0  0  0  0  0  0
   58.9990   34.3520   44.5170 C   0  0  0  0  0  0  0  0  0  0  0  0
   59.5570   34.9260   45.6120 N   0  0  0  0  0  0  0  0  0  0  0  0
   59.2930   34.1310   46.6340 N   0  0  0  0  0  0  0  0  0  0  0  0
   59.6520   34.3150   47.9270 C   0  0  0  0  0  0  0  0  0  0  0  0
   59.2580   33.3470   48.8600 C   0  0  0  0  0  0  0  0  0  0  0  0
   58.5120   32.2370   48.4130 C   0  0  0  0  0  0  0  0  0  0  0  0
   58.1810   32.1120   47.0950 N   0  0  0  0  0  0  0  0  0  0  0  0
   58.5860   33.0720   46.2270 C   0  0  0  0  0  0  0  0  0  0  0  0
   56.6700   31.1480   45.6200 H   0  0  0  0  0  0  0  0  0  0  0  0
   55.3472   29.6982   44.2911 H   0  0  0  0  0  0  0  0  0  0  0  0
   55.9954   30.4631   42.7893 H   0  0  0  0  0  0  0  0  0  0  0  0
   56.7524   28.0054   43.5951 H   0  0  0  0  0  0  0  0  0  0  0  0
   57.8727   29.1541   42.7527 H   0  0  0  0  0  0  0  0  0  0  0  0
   59.9327   29.6499   43.7133 H   0  0  0  0  0  0  0  0  0  0  0  0
   61.4474   29.6659   45.7045 H   0  0  0  0  0  0  0  0  0  0  0  0
   60.5568   28.9682   47.9356 H   0  0  0  0  0  0  0  0  0  0  0  0
   56.7113   28.2441   46.2453 H   0  0  0  0  0  0  0  0  0  0  0  0
   59.0391   34.7662   43.4988 H   0  0  0  0  0  0  0  0  0  0  0  0
   60.2342   35.1961   48.2346 H   0  0  0  0  0  0  0  0  0  0  0  0
   59.5257   33.4510   49.9219 H   0  0  0  0  0  0  0  0  0  0  0  0
   58.1948   31.4668   49.1314 H   0  0  0  0  0  0  0  0  0  0  0  0
  1  2  2  0
  2  3  1  0
  3  4  1  0
  4  5  1  0
  5  6  1  0
  6  7  2  0
  7  8  1  0
  8  9  2  0
  9 10  1  0
 10 11  2  0
  2 12  1  0
 12 13  1  0
 13 14  2  0
 14 15  1  0
 15 16  1  0
 16 17  2  0
 17 18  1  0
 18 19  2  0
 19 20  1  0
 11  6  1  0
 20 12  2  0
 20 15  1  0
  3 21  1  0
  4 22  1  0
  4 23  1  0
  5 24  1  0
  5 25  1  0
  7 26  1  0
  8 27  1  0
  9 28  1  0
 11 29  1  0
 13 30  1  0
 16 31  1  0
 17 32  1  0
 18 33  1  0
M  END
>  <UniqueID>  (17) 
16

>  <SMILES>  (17) 
O=C(NCCc1cccnc1)c1cnn2cccnc12

>  <Energy>  (17) 
69.16155950769168

>  <Genealogy>  (17) 
O=C(NCCc1cccnc1)c1cnn2cccnc12 (3D coordinates assigned)
O=C(NCCc1cccnc1)c1cnn2cccnc12 (optimized conformer: 69.16155950769168 kcal/mol)

>  <smiles>  (17) 
O=C(NCCc1cccnc1)c1cnn2cccnc12

>  <score_type>  (17) 
oracle

>  <origin>  (17) 
adg

>  <m_score__min__energy>  (17) 
-6.9299999999999997

>  <m_primary>  (17) 
energy

$$$$
17:0
     RDKit          3D

 32 33  0  0  0  0  0  0  0  0999 V2000
   65.3110   32.9850   50.6570 C   0  0  0  0  0  0  0  0  0  0  0  0
   65.1200   33.1100   49.2160 N   0  0  0  0  0  0  0  0  0  0  0  0
   63.8310   33.2750   48.5940 C   0  0  0  0  0  0  0  0  0  0  0  0
   63.6860   33.3580   47.2010 C   0  0  0  0  0  0  0  0  0  0  0  0
   62.4220   33.5190   46.6260 C   0  0  0  0  0  0  0  0  0  0  0  0
   61.2550   33.5960   47.4220 C   0  0  0  0  0  0  0  0  0  0  0  0
   59.9290   33.7620   46.8200 N   0  0  0  0  0  0  0  0  0  0  0  0
   58.7600   33.1580   47.5050 C   0  0  0  0  0  0  0  0  0  0  0  0
   57.4000   33.4630   46.8730 C   0  0  0  0  0  0  0  0  0  0  0  0
   57.4810   33.4770   45.3590 C   0  0  0  0  0  0  0  0  0  0  0  0
   58.4150   34.5970   44.9490 C   0  0  0  0  0  0  0  0  0  0  0  0
   59.8370   34.3600   45.4650 C   0  0  0  0  0  0  0  0  0  0  0  0
   61.4230   33.5220   48.8260 C   0  0  0  0  0  0  0  0  0  0  0  0
   62.6890   33.3610   49.3970 C   0  0  0  0  0  0  0  0  0  0  0  0
   64.5019   33.5145   51.1814 H   0  0  0  0  0  0  0  0  0  0  0  0
   65.2957   31.9216   50.9380 H   0  0  0  0  0  0  0  0  0  0  0  0
   66.2794   33.4246   50.9380 H   0  0  0  0  0  0  0  0  0  0  0  0
   65.9710   33.0760   48.6100 H   0  0  0  0  0  0  0  0  0  0  0  0
   64.5746   33.2959   46.5557 H   0  0  0  0  0  0  0  0  0  0  0  0
   62.3329   33.5872   45.5317 H   0  0  0  0  0  0  0  0  0  0  0  0
   58.8954   32.0664   47.5088 H   0  0  0  0  0  0  0  0  0  0  0  0
   58.7340   33.6034   48.5105 H   0  0  0  0  0  0  0  0  0  0  0  0
   56.6799   32.6923   47.1852 H   0  0  0  0  0  0  0  0  0  0  0  0
   57.0784   34.4593   47.2105 H   0  0  0  0  0  0  0  0  0  0  0  0
   57.8716   32.5144   44.9974 H   0  0  0  0  0  0  0  0  0  0  0  0
   56.4826   33.6347   44.9250 H   0  0  0  0  0  0  0  0  0  0  0  0
   58.4389   34.6584   43.8510 H   0  0  0  0  0  0  0  0  0  0  0  0
   58.0415   35.5349   45.3859 H   0  0  0  0  0  0  0  0  0  0  0  0
   60.3460   33.6855   44.7607 H   0  0  0  0  0  0  0  0  0  0  0  0
   60.3030   35.3536   45.5390 H   0  0  0  0  0  0  0  0  0  0  0  0
   60.5411   33.5925   49.4796 H   0  0  0  0  0  0  0  0  0  0  0  0
   62.7881   33.3012   50.4909 H   0  0  0  0  0  0  0  0  0  0  0  0
  1  2  1  0
  2  3  1  0
  3  4  2  0
  4  5  1  0
  5  6  2  0
  6  7  1  0
  7  8  1  0
  8  9  1  0
  9 10  1  0
 10 11  1  0
 11 12  1  0
  6 13  1  0
 13 14  2  0
 14  3  1  0
 12  7  1  0
  1 15  1  0
  1 16  1  0
  1 17  1  0
  2 18  1  0
  4 19  1  0
  5 20  1  0
  8 21  1  0
  8 22  1  0
  9 23  1  0
  9 24  1  0
 10 25  1  0
 10 26  1  0
 11 27  1  0
 11 28  1  0
 12 29  1  0
 12 30  1  0
 13 31  1  0
 14 32  1  0
M  END
>  <UniqueID>  (18) 
17

>  <SMILES>  (18) 
CNc1ccc(N2CCCCC2)cc1

>  <Energy>  (18) 
35.10300878281683

>  <Genealogy>  (18) 
CNc1ccc(N2CCCCC2)cc1 (3D coordinates assigned)
CNc1ccc(N2CCCCC2)cc1 (nonaromatic ring conformer: 35.10300878281683 kcal/mol)

>  <smiles>  (18) 
CNc1ccc(N2CCCCC2)cc1

>  <score_type>  (18) 
oracle

>  <origin>  (18) 
adg

>  <m_score__min__energy>  (18) 
-5.6200000000000001

>  <m_primary>  (18) 
energy

$$$$
18:0
     RDKit          3D

 42 45  0  0  0  0  0  0  0  0999 V2000
   57.6430   21.1200   45.6260 C   0  0  0  0  0  0  0  0  0  0  0  0
   57.3850   22.0980   46.6290 O   0  0  0  0  0  0  0  0  0  0  0  0
   57.3990   23.4820   46.4050 C   0  0  0  0  0  0  0  0  0  0  0  0
   56.2640   24.2910   46.6030 C   0  0  0  0  0  0  0  0  0  0  0  0
   56.3290   25.6680   46.3660 C   0  0  0  0  0  0  0  0  0  0  0  0
   57.5280   26.2590   45.9350 C   0  0  0  0  0  0  0  0  0  0  0  0
   57.5970   27.6750   45.6750 N   0  0  0  0  0  0  0  0  0  0  0  0
   57.1190   28.1420   44.5060 N   0  0  0  0  0  0  0  0  0  0  0  0
   57.1470   29.4710   44.1780 C   0  0  0  0  0  0  0  0  0  0  0  0
   56.5970   29.9300   42.8590 C   0  0  0  0  0  0  0  0  0  0  0  0
   57.6970   30.3580   45.1100 C   0  0  0  0  0  0  0  0  0  0  0  0
   57.8970   31.7320   45.1190 C   0  0  0  0  0  0  0  0  0  0  0  0
   57.6100   32.7330   44.1850 C   0  0  0  0  0  0  0  0  0  0  0  0
   57.9560   34.0560   44.5020 C   0  0  0  0  0  0  0  0  0  0  0  0
   58.5780   34.3580   45.7290 C   0  0  0  0  0  0  0  0  0  0  0  0
   58.8610   33.3420   46.6560 C   0  0  0  0  0  0  0  0  0  0  0  0
   58.5070   32.0270   46.3270 C   0  0  0  0  0  0  0  0  0  0  0  0
   58.6870   30.9030   47.0680 N   0  0  0  0  0  0  0  0  0  0  0  0
   59.3040   30.7880   48.3920 C   0  0  0  0  0  0  0  0  0  0  0  0
   58.1920   29.8920   46.3070 C   0  0  0  0  0  0  0  0  0  0  0  0
   58.1550   28.5270   46.5990 C   0  0  0  0  0  0  0  0  0  0  0  0
   58.6390   28.0850   47.6760 O   0  0  0  0  0  0  0  0  0  0  0  0
   58.6550   25.4490   45.7300 C   0  0  0  0  0  0  0  0  0  0  0  0
   58.5910   24.0740   45.9660 C   0  0  0  0  0  0  0  0  0  0  0  0
   57.8957   20.1622   46.1042 H   0  0  0  0  0  0  0  0  0  0  0  0
   56.7478   20.9922   44.9996 H   0  0  0  0  0  0  0  0  0  0  0  0
   58.4847   21.4504   44.9996 H   0  0  0  0  0  0  0  0  0  0  0  0
   55.3219   23.8382   46.9456 H   0  0  0  0  0  0  0  0  0  0  0  0
   55.4358   26.2917   46.5181 H   0  0  0  0  0  0  0  0  0  0  0  0
   56.6970   27.4690   43.8240 H   0  0  0  0  0  0  0  0  0  0  0  0
   55.7629   30.6261   43.0318 H   0  0  0  0  0  0  0  0  0  0  0  0
   57.3880   30.4397   42.2893 H   0  0  0  0  0  0  0  0  0  0  0  0
   56.2370   29.0606   42.2893 H   0  0  0  0  0  0  0  0  0  0  0  0
   57.1260   32.4899   43.2276 H   0  0  0  0  0  0  0  0  0  0  0  0
   57.7397   34.8631   43.7866 H   0  0  0  0  0  0  0  0  0  0  0  0
   58.8445   35.3992   45.9632 H   0  0  0  0  0  0  0  0  0  0  0  0
   59.3478   33.5725   47.6151 H   0  0  0  0  0  0  0  0  0  0  0  0
   58.5371   30.9309   49.1676 H   0  0  0  0  0  0  0  0  0  0  0  0
   59.7545   29.7904   48.5012 H   0  0  0  0  0  0  0  0  0  0  0  0
   60.0836   31.5563   48.5012 H   0  0  0  0  0  0  0  0  0  0  0  0
   59.5956   25.9001   45.3810 H   0  0  0  0  0  0  0  0  0  0  0  0
   59.4832   23.4508   45.8061 H   0  0  0  0  0  0  0  0  0  0  0  0
  1  2  1  0
  2  3  1  0
  3  4  2  0
  4  5  1  0
  5  6  2  0
  6  7  1  0
  7  8  1  0
  8  9  2  0
  9 10  1  0
  9 11  1  0
 11 12  1  0
 12 13  2  0
 13 14  1  0
 14 15  2  0
 15 16  1  0
 16 17  2  0
 17 18  1  0
 18 19  1  0
 18 20  1  0
 20 21  1  0
 21 22  2  0
  6 23  1  0
 23 24  2  0
 24  3  1  0
 21  7  1  0
 20 11  2  0
 17 12  1  0
  1 25  1  0
  1 26  1  0
  1 27  1  0
  4 28  1  0
  5 29  1  0
  8 30  1  0
 10 31  1  0
 10 32  1  0
 10 33  1  0
 13 34  1  0
 14 35  1  0
 15 36  1  0
 16 37  1  0
 19 38  1  0
 19 39  1  0
 19 40  1  0
 23 41  1  0
 24 42  1  0
M  CHG  1   8   1
M  END
>  <UniqueID>  (19) 
18

>  <SMILES>  (19) 
COc1ccc(-n2[nH+]c(C)c3c4ccccc4n(C)c3c2=O)cc1

>  <Energy>  (19) 
99.36518581066056

>  <Genealogy>  (19) 
COc1ccc(-n2[nH+]c(C)c3c4ccccc4n(C)c3c2=O)cc1 (protonated)
COc1ccc(-n2[nH+]c(C)c3c4ccccc4n(C)c3c2=O)cc1 (3D coordinates assigned)
COc1ccc(-n2[nH+]c(C)c3c4ccccc4n(C)c3c2=O)cc1 (optimized conformer: 99.36518581066056 kcal/mol)

>  <smiles>  (19) 
COc1ccc(-n2nc(C)c3c4ccccc4n(C)c3c2=O)cc1

>  <score_type>  (19) 
oracle

>  <origin>  (19) 
adg

>  <m_score__min__energy>  (19) 
-6.6600000000000001

>  <m_primary>  (19) 
energy

$$$$
19:0
     RDKit          3D

 41 43  0  0  0  0  0  0  0  0999 V2000
   57.7675   20.2341   44.1542 H   0  0  0  0  0  0  0  0  0  0  0  0
   57.1740   21.0620   43.7390 C   0  0  0  0  0  0  0  0  0  0  0  0
   56.2210   20.8100   42.9540 O   0  0  0  0  0  0  0  0  0  0  0  0
   57.4970   22.4160   44.1000 N   0  0  0  0  0  0  0  0  0  0  0  0
   56.7960   23.5200   43.4320 C   0  0  0  0  0  0  0  0  0  0  0  0
   57.3896   23.8523   42.5676 H   0  0  0  0  0  0  0  0  0  0  0  0
   55.8082   23.1618   43.1066 H   0  0  0  0  0  0  0  0  0  0  0  0
   56.6000   24.6800   44.3690 C   0  0  0  0  0  0  0  0  0  0  0  0
   57.7110   25.9330   44.5570 S   0  0  0  0  0  0  0  0  0  0  0  0
   56.7970   26.6980   45.7340 C   0  0  0  0  0  0  0  0  0  0  0  0
   57.1400   27.8240   46.2880 N   0  0  0  0  0  0  0  0  0  0  0  0
   57.3120   29.0870   45.6230 C   0  0  0  0  0  0  0  0  0  0  0  0
   56.7280   29.3590   44.3710 C   0  0  0  0  0  0  0  0  0  0  0  0
   56.1377   28.5819   43.8633 H   0  0  0  0  0  0  0  0  0  0  0  0
   56.8930   30.6090   43.7690 C   0  0  0  0  0  0  0  0  0  0  0  0
   56.4443   30.8065   42.7843 H   0  0  0  0  0  0  0  0  0  0  0  0
   57.6280   31.6120   44.4150 C   0  0  0  0  0  0  0  0  0  0  0  0
   57.8000   32.8710   43.8180 C   0  0  0  0  0  0  0  0  0  0  0  0
   57.3612   33.0748   42.8301 H   0  0  0  0  0  0  0  0  0  0  0  0
   58.5280   33.8660   44.4770 C   0  0  0  0  0  0  0  0  0  0  0  0
   58.6620   34.8506   44.0052 H   0  0  0  0  0  0  0  0  0  0  0  0
   59.0860   33.6140   45.7330 C   0  0  0  0  0  0  0  0  0  0  0  0
   59.6562   34.4015   46.2476 H   0  0  0  0  0  0  0  0  0  0  0  0
   58.9220   32.3640   46.3380 C   0  0  0  0  0  0  0  0  0  0  0  0
   59.3646   32.1700   47.3261 H   0  0  0  0  0  0  0  0  0  0  0  0
   58.1940   31.3570   45.6870 C   0  0  0  0  0  0  0  0  0  0  0  0
   58.0210   30.0990   46.2840 C   0  0  0  0  0  0  0  0  0  0  0  0
   58.4458   29.9054   47.2800 H   0  0  0  0  0  0  0  0  0  0  0  0
   55.6480   26.0390   45.9960 N   0  0  0  0  0  0  0  0  0  0  0  0
   55.5250   24.9110   45.2420 C   0  0  0  0  0  0  0  0  0  0  0  0
   54.3440   23.9990   45.4040 C   0  0  0  0  0  0  0  0  0  0  0  0
   53.2010   24.7510   45.6010 F   0  0  0  0  0  0  0  0  0  0  0  0
   54.5330   23.1520   46.4800 F   0  0  0  0  0  0  0  0  0  0  0  0
   54.1780   23.2320   44.2650 F   0  0  0  0  0  0  0  0  0  0  0  0
   58.4110   22.6910   45.2170 C   0  0  0  0  0  0  0  0  0  0  0  0
   58.0729   22.1381   46.1058 H   0  0  0  0  0  0  0  0  0  0  0  0
   58.4098   23.7722   45.4194 H   0  0  0  0  0  0  0  0  0  0  0  0
   59.8300   22.2570   44.8660 C   0  0  0  0  0  0  0  0  0  0  0  0
   60.3995   22.0828   45.7908 H   0  0  0  0  0  0  0  0  0  0  0  0
   59.7944   21.3287   44.2770 H   0  0  0  0  0  0  0  0  0  0  0  0
   60.3198   23.0464   44.2770 H   0  0  0  0  0  0  0  0  0  0  0  0
  1  2  1  0
  2  3  2  0
  2  4  1  0
  4  5  1  0
  5  6  1  0
  5  7  1  0
  5  8  1  0
  8  9  1  0
  9 10  1  0
 10 11  2  0
 11 12  1  0
 12 13  2  0
 13 14  1  0
 13 15  1  0
 15 16  1  0
 15 17  2  0
 17 18  1  0
 18 19  1  0
 18 20  2  0
 20 21  1  0
 20 22  1  0
 22 23  1  0
 22 24  2  0
 24 25  1  0
 24 26  1  0
 26 27  2  0
 27 28  1  0
 10 29  1  0
 29 30  1  0
 30 31  1  0
 31 32  1  0
 31 33  1  0
 31 34  1  0
  4 35  1  0
 35 36  1  0
 35 37  1  0
 35 38  1  0
 38 39  1  0
 38 40  1  0
 38 41  1  0
 30  8  2  0
 27 12  1  0
 26 17  1  0
M  CHG  1  29  -1
M  END
>  <UniqueID>  (20) 
19

>  <SMILES>  (20) 
CCN(C=O)Cc1s/c(=N/c2ccc3ccccc3c2)[n-]c1C(F)(F)F

>  <Energy>  (20) 
75.32798133623659

>  <Genealogy>  (20) 
CCN(C=O)Cc1sc(=Nc2ccc3ccccc3c2)[n-]c1C(F)(F)F (protonated)
CCN(C=O)Cc1s/c(=N/c2ccc3ccccc3c2)[n-]c1C(F)(F)F (cis-trans isomerization)
CCN(C=O)Cc1s/c(=N/c2ccc3ccccc3c2)[n-]c1C(F)(F)F (3D coordinates assigned)
CCN(C=O)Cc1s/c(=N/c2ccc3ccccc3c2)[n-]c1C(F)(F)F (optimized conformer: 75.32798133623659 kcal/mol)

>  <smiles>  (20) 
CCN(C=O)Cc1sc(=Nc2ccc3ccccc3c2)[nH]c1C(F)(F)F

>  <score_type>  (20) 
oracle

>  <origin>  (20) 
adg

>  <m_score__min__energy>  (20) 
-9.3200000000000003

>  <m_primary>  (20) 
energy

$$$$
20:0
     RDKit          3D

 57 60  0  0  0  0  0  0  0  0999 V2000
   60.7300   32.4720   48.6240 C   0  0  0  0  0  0  0  0  0  0  0  0
   59.9870   31.7880   47.5430 N   0  0  0  0  0  0  0  0  0  0  0  0
   60.8630   30.7630   46.9250 C   0  0  0  0  0  0  0  0  0  0  0  0
   60.1640   29.4250   46.8340 C   0  0  0  0  0  0  0  0  0  0  0  0
   60.4020   28.4370   47.7800 C   0  0  0  0  0  0  0  0  0  0  0  0
   59.4260   27.5180   47.7170 N   0  0  0  0  0  0  0  0  0  0  0  0
   58.6030   27.9520   46.7480 C   0  0  0  0  0  0  0  0  0  0  0  0
   57.3720   27.3830   46.4320 C   0  0  0  0  0  0  0  0  0  0  0  0
   56.9370   26.2230   47.0830 O   0  0  0  0  0  0  0  0  0  0  0  0
   57.1450   24.9060   46.5750 C   0  0  0  0  0  0  0  0  0  0  0  0
   55.8830   24.0430   46.7010 C   0  0  0  0  0  0  0  0  0  0  0  0
   54.7490   24.5460   45.8020 C   0  0  0  0  0  0  0  0  0  0  0  0
   54.7530   26.0050   45.7610 N   0  0  0  0  0  0  0  0  0  0  0  0
   56.6030   27.9950   45.4930 N   0  0  0  0  0  0  0  0  0  0  0  0
   57.0220   29.1180   44.8410 C   0  0  0  0  0  0  0  0  0  0  0  0
   56.2030   29.6920   43.8630 C   0  0  0  0  0  0  0  0  0  0  0  0
   56.6580   30.7850   43.1260 C   0  0  0  0  0  0  0  0  0  0  0  0
   57.9480   31.2760   43.3310 C   0  0  0  0  0  0  0  0  0  0  0  0
   58.7770   30.7100   44.3050 C   0  0  0  0  0  0  0  0  0  0  0  0
   58.3000   29.6710   45.1340 C   0  0  0  0  0  0  0  0  0  0  0  0
   59.0280   29.0920   46.1510 N   0  0  0  0  0  0  0  0  0  0  0  0
   59.3550   32.6850   46.5180 C   0  0  0  0  0  0  0  0  0  0  0  0
   57.8160   32.6690   46.7230 C   0  0  0  0  0  0  0  0  0  0  0  0
   57.0750   33.8400   46.0430 C   0  0  0  0  0  0  0  0  0  0  0  0
   57.8640   34.4100   44.8640 C   0  0  0  0  0  0  0  0  0  0  0  0
   59.2330   34.9510   45.3160 C   0  0  0  0  0  0  0  0  0  0  0  0
   59.8530   34.1580   46.4890 C   0  0  0  0  0  0  0  0  0  0  0  0
   60.3566   32.1283   49.5999 H   0  0  0  0  0  0  0  0  0  0  0  0
   61.8012   32.2374   48.5379 H   0  0  0  0  0  0  0  0  0  0  0  0
   60.5846   33.5590   48.5379 H   0  0  0  0  0  0  0  0  0  0  0  0
   61.1403   31.0919   45.9126 H   0  0  0  0  0  0  0  0  0  0  0  0
   61.7572   30.6453   47.5547 H   0  0  0  0  0  0  0  0  0  0  0  0
   61.2564   28.4115   48.4724 H   0  0  0  0  0  0  0  0  0  0  0  0
   59.2990   26.6920   48.3450 H   0  0  0  0  0  0  0  0  0  0  0  0
   57.4260   24.9736   45.5137 H   0  0  0  0  0  0  0  0  0  0  0  0
   57.9439   24.4332   47.1651 H   0  0  0  0  0  0  0  0  0  0  0  0
   56.1299   23.0097   46.4159 H   0  0  0  0  0  0  0  0  0  0  0  0
   55.5380   24.0975   47.7441 H   0  0  0  0  0  0  0  0  0  0  0  0
   54.8895   24.1528   44.7843 H   0  0  0  0  0  0  0  0  0  0  0  0
   53.7869   24.1992   46.2070 H   0  0  0  0  0  0  0  0  0  0  0  0
   55.6140   26.3190   45.2550 H   0  0  0  0  0  0  0  0  0  0  0  0
   54.8470   26.3520   46.7430 H   0  0  0  0  0  0  0  0  0  0  0  0
   55.2000   29.2812   43.6752 H   0  0  0  0  0  0  0  0  0  0  0  0
   56.0002   31.2600   42.3833 H   0  0  0  0  0  0  0  0  0  0  0  0
   58.3158   32.1148   42.7218 H   0  0  0  0  0  0  0  0  0  0  0  0
   59.8071   31.0765   44.4261 H   0  0  0  0  0  0  0  0  0  0  0  0
   59.6604   32.2705   45.5459 H   0  0  0  0  0  0  0  0  0  0  0  0
   57.4231   31.7272   46.3124 H   0  0  0  0  0  0  0  0  0  0  0  0
   57.6400   32.7688   47.8042 H   0  0  0  0  0  0  0  0  0  0  0  0
   56.1016   33.4802   45.6781 H   0  0  0  0  0  0  0  0  0  0  0  0
   56.9501   34.6406   46.7869 H   0  0  0  0  0  0  0  0  0  0  0  0
   58.0208   33.6151   44.1200 H   0  0  0  0  0  0  0  0  0  0  0  0
   57.2883   35.2410   44.4304 H   0  0  0  0  0  0  0  0  0  0  0  0
   59.9244   34.9062   44.4616 H   0  0  0  0  0  0  0  0  0  0  0  0
   59.0732   35.9801   45.6701 H   0  0  0  0  0  0  0  0  0  0  0  0
   60.9478   34.1616   46.3819 H   0  0  0  0  0  0  0  0  0  0  0  0
   59.5459   34.6411   47.4283 H   0  0  0  0  0  0  0  0  0  0  0  0
  1  2  1  0
  2  3  1  0
  3  4  1  0
  4  5  2  0
  5  6  1  0
  6  7  2  0
  7  8  1  0
  8  9  1  0
  9 10  1  0
 10 11  1  0
 11 12  1  0
 12 13  1  0
  8 14  2  0
 14 15  1  0
 15 16  2  0
 16 17  1  0
 17 18  2  0
 18 19  1  0
 19 20  2  0
 20 21  1  0
  2 22  1  0
 22 23  1  0
 23 24  1  0
 24 25  1  0
 25 26  1  0
 26 27  1  0
 21  4  1  0
 27 22  1  0
 21  7  1  0
 20 15  1  0
  1 28  1  0
  1 29  1  0
  1 30  1  0
  3 31  1  0
  3 32  1  0
  5 33  1  0
  6 34  1  0
 10 35  1  0
 10 36  1  0
 11 37  1  0
 11 38  1  0
 12 39  1  0
 12 40  1  0
 13 41  1  0
 13 42  1  0
 16 43  1  0
 17 44  1  0
 18 45  1  0
 19 46  1  0
 22 47  1  0
 23 48  1  0
 23 49  1  0
 24 50  1  0
 24 51  1  0
 25 52  1  0
 25 53  1  0
 26 54  1  0
 26 55  1  0
 27 56  1  0
 27 57  1  0
M  CHG  1   6   1
M  END
>  <UniqueID>  (21) 
20

>  <SMILES>  (21) 
CN(Cc1c[nH+]c2c(OCCCN)nc3ccccc3n12)C1CCCCC1

>  <Energy>  (21) 
114.32881572667857

>  <Genealogy>  (21) 
CN(Cc1c[nH+]c2c(OCCCN)nc3ccccc3n12)C1CCCCC1 (protonated)
CN(Cc1c[nH+]c2c(OCCCN)nc3ccccc3n12)C1CCCCC1 (3D coordinates assigned)
CN(Cc1c[nH+]c2c(OCCCN)nc3ccccc3n12)C1CCCCC1 (nonaromatic ring conformer: 114.32881572667857 kcal/mol)

>  <smiles>  (21) 
CN(Cc1cnc2c(OCCCN)nc3ccccc3n12)C1CCCCC1

>  <score_type>  (21) 
oracle

>  <origin>  (21) 
adg

>  <m_score__min__energy>  (21) 
-7.1900000000000004

>  <m_primary>  (21) 
energy

$$$$
21:0
     RDKit          3D

 38 40  0  0  0  0  0  0  0  0999 V2000
   60.8650   27.9230   50.5240 C   0  0  0  0  0  0  0  0  0  0  0  0
   60.4930   27.1590   49.3830 O   0  0  0  0  0  0  0  0  0  0  0  0
   59.8420   27.6850   48.2580 C   0  0  0  0  0  0  0  0  0  0  0  0
   59.3010   28.9930   48.2380 C   0  0  0  0  0  0  0  0  0  0  0  0
   58.6620   29.4670   47.0830 C   0  0  0  0  0  0  0  0  0  0  0  0
   58.5870   28.6480   45.9980 N   0  0  0  0  0  0  0  0  0  0  0  0
   58.0300   28.8230   44.7790 C   0  0  0  0  0  0  0  0  0  0  0  0
   57.3670   30.0510   44.2860 C   0  0  0  0  0  0  0  0  0  0  0  0
   57.1940   30.2120   43.0480 O   0  0  0  0  0  0  0  0  0  0  0  0
   57.0060   31.0630   45.1840 O   0  0  0  0  0  0  0  0  0  0  0  0
   57.7340   32.2380   45.4200 C   0  0  0  0  0  0  0  0  0  0  0  0
   58.0920   33.0300   44.3230 C   0  0  0  0  0  0  0  0  0  0  0  0
   58.8320   34.2010   44.5060 C   0  0  0  0  0  0  0  0  0  0  0  0
   59.2270   34.5870   45.7880 C   0  0  0  0  0  0  0  0  0  0  0  0
   58.8800   33.8050   46.8990 C   0  0  0  0  0  0  0  0  0  0  0  0
   59.3550   34.1880   48.2700 C   0  0  0  0  0  0  0  0  0  0  0  0
   58.1510   32.6190   46.7090 C   0  0  0  0  0  0  0  0  0  0  0  0
   58.2120   27.6330   44.0770 C   0  0  0  0  0  0  0  0  0  0  0  0
   57.7720   27.3390   42.6780 C   0  0  0  0  0  0  0  0  0  0  0  0
   58.8740   26.7330   44.8420 N   0  0  0  0  0  0  0  0  0  0  0  0
   59.0810   27.3960   45.9980 C   0  0  0  0  0  0  0  0  0  0  0  0
   59.7250   26.8730   47.1170 C   0  0  0  0  0  0  0  0  0  0  0  0
   60.5968   27.3721   51.4375 H   0  0  0  0  0  0  0  0  0  0  0  0
   61.9505   28.1006   50.5083 H   0  0  0  0  0  0  0  0  0  0  0  0
   60.3354   28.8870   50.5083 H   0  0  0  0  0  0  0  0  0  0  0  0
   59.3816   29.6364   49.1266 H   0  0  0  0  0  0  0  0  0  0  0  0
   58.2308   30.4785   47.0544 H   0  0  0  0  0  0  0  0  0  0  0  0
   57.7886   32.7285   43.3096 H   0  0  0  0  0  0  0  0  0  0  0  0
   59.1038   34.8199   43.6382 H   0  0  0  0  0  0  0  0  0  0  0  0
   59.8125   35.5078   45.9272 H   0  0  0  0  0  0  0  0  0  0  0  0
   58.7335   33.6869   49.0267 H   0  0  0  0  0  0  0  0  0  0  0  0
   60.4036   33.8798   48.3941 H   0  0  0  0  0  0  0  0  0  0  0  0
   59.2761   35.2781   48.3941 H   0  0  0  0  0  0  0  0  0  0  0  0
   57.9047   31.9844   47.5731 H   0  0  0  0  0  0  0  0  0  0  0  0
   56.8576   26.7280   42.7020 H   0  0  0  0  0  0  0  0  0  0  0  0
   57.5684   28.2832   42.1516 H   0  0  0  0  0  0  0  0  0  0  0  0
   58.5664   26.7896   42.1516 H   0  0  0  0  0  0  0  0  0  0  0  0
   60.1314   25.8509   47.1078 H   0  0  0  0  0  0  0  0  0  0  0  0
  1  2  1  0
  2  3  1  0
  3  4  1  0
  4  5  2  0
  5  6  1  0
  6  7  1  0
  7  8  1  0
  8  9  2  0
  8 10  1  0
 10 11  1  0
 11 12  2  0
 12 13  1  0
 13 14  2  0
 14 15  1  0
 15 16  1  0
 15 17  2  0
  7 18  2  0
 18 19  1  0
 18 20  1  0
 20 21  2  0
 21 22  1  0
 22  3  2  0
 21  6  1  0
 17 11  1  0
  1 23  1  0
  1 24  1  0
  1 25  1  0
  4 26  1  0
  5 27  1  0
 12 28  1  0
 13 29  1  0
 14 30  1  0
 16 31  1  0
 16 32  1  0
 16 33  1  0
 17 34  1  0
 19 35  1  0
 19 36  1  0
 19 37  1  0
 22 38  1  0
M  END
>  <UniqueID>  (22) 
21

>  <SMILES>  (22) 
COc1ccn2c(C(=O)Oc3cccc(C)c3)c(C)nc2c1

>  <Energy>  (22) 
79.42442962902436

>  <Genealogy>  (22) 
COc1ccn2c(C(=O)Oc3cccc(C)c3)c(C)nc2c1 (3D coordinates assigned)
COc1ccn2c(C(=O)Oc3cccc(C)c3)c(C)nc2c1 (optimized conformer: 79.42442962902436 kcal/mol)

>  <smiles>  (22) 
COc1ccn2c(C(=O)Oc3cccc(C)c3)c(C)nc2c1

>  <score_type>  (22) 
oracle

>  <origin>  (22) 
adg

>  <m_score__min__energy>  (22) 
-6.8799999999999999

>  <m_primary>  (22) 
energy

$$$$
22:0
     RDKit          3D

 39 41  0  0  0  0  0  0  0  0999 V2000
   61.6180   28.9176   50.2602 H   0  0  0  0  0  0  0  0  0  0  0  0
   60.8500   29.6560   50.5340 C   0  0  0  0  0  0  0  0  0  0  0  0
   59.6680   29.2390   51.0550 N   0  0  0  0  0  0  0  0  0  0  0  0
   58.6920   30.1170   51.4070 C   0  0  0  0  0  0  0  0  0  0  0  0
   57.4910   29.6350   51.9400 C   0  0  0  0  0  0  0  0  0  0  0  0
   57.3426   28.5517   52.0605 H   0  0  0  0  0  0  0  0  0  0  0  0
   56.4740   30.5250   52.3220 C   0  0  0  0  0  0  0  0  0  0  0  0
   55.2230   30.0480   52.8480 N   0  0  0  0  0  0  0  0  0  0  0  0
   55.2460   29.2230   53.4890 H   0  0  0  0  0  0  0  0  0  0  0  0
   53.9420   30.6300   52.5480 C   0  0  0  0  0  0  0  0  0  0  0  0
   53.6770   31.0810   51.2460 C   0  0  0  0  0  0  0  0  0  0  0  0
   54.4406   30.9672   50.4624 H   0  0  0  0  0  0  0  0  0  0  0  0
   52.4490   31.6740   50.9380 C   0  0  0  0  0  0  0  0  0  0  0  0
   52.2440   32.0119   49.9114 H   0  0  0  0  0  0  0  0  0  0  0  0
   51.4810   31.8380   51.9340 C   0  0  0  0  0  0  0  0  0  0  0  0
   50.2610   32.4270   51.6270 O   0  0  0  0  0  0  0  0  0  0  0  0
   51.7450   31.4140   53.2390 C   0  0  0  0  0  0  0  0  0  0  0  0
   50.9857   31.5482   54.0236 H   0  0  0  0  0  0  0  0  0  0  0  0
   52.9710   30.8200   53.5500 C   0  0  0  0  0  0  0  0  0  0  0  0
   53.1784   30.4996   54.5816 H   0  0  0  0  0  0  0  0  0  0  0  0
   56.6580   31.9010   52.1260 C   0  0  0  0  0  0  0  0  0  0  0  0
   55.8534   32.6015   52.3941 H   0  0  0  0  0  0  0  0  0  0  0  0
   57.8520   32.3910   51.5940 C   0  0  0  0  0  0  0  0  0  0  0  0
   57.9854   33.4744   51.4579 H   0  0  0  0  0  0  0  0  0  0  0  0
   58.8880   31.5070   51.2300 C   0  0  0  0  0  0  0  0  0  0  0  0
   60.1120   31.9640   50.6890 C   0  0  0  0  0  0  0  0  0  0  0  0
   60.3060   33.2450   50.5230 N   0  0  0  0  0  0  0  0  0  0  0  0
   60.8110   33.9010   49.3170 C   0  0  0  0  0  0  0  0  0  0  0  0
   61.3446   33.1644   48.6984 H   0  0  0  0  0  0  0  0  0  0  0  0
   61.4956   34.7115   49.6077 H   0  0  0  0  0  0  0  0  0  0  0  0
   59.6500   34.4900   48.5140 C   0  0  0  0  0  0  0  0  0  0  0  0
   59.5835   35.5677   48.7241 H   0  0  0  0  0  0  0  0  0  0  0  0
   58.7295   33.9684   48.8151 H   0  0  0  0  0  0  0  0  0  0  0  0
   59.8350   34.2910   47.0100 C   0  0  0  0  0  0  0  0  0  0  0  0
   60.5743   33.4958   46.8335 H   0  0  0  0  0  0  0  0  0  0  0  0
   58.8741   34.0055   46.5570 H   0  0  0  0  0  0  0  0  0  0  0  0
   60.1898   35.2285   46.5570 H   0  0  0  0  0  0  0  0  0  0  0  0
   61.0960   31.0150   50.3440 C   0  0  0  0  0  0  0  0  0  0  0  0
   62.0575   31.3468   49.9251 H   0  0  0  0  0  0  0  0  0  0  0  0
  1  2  1  0
  2  3  1  0
  3  4  1  0
  4  5  2  0
  5  6  1  0
  5  7  1  0
  7  8  1  0
  8  9  1  0
  8 10  1  0
 10 11  2  0
 11 12  1  0
 11 13  1  0
 13 14  1  0
 13 15  2  0
 15 16  1  0
 15 17  1  0
 17 18  1  0
 17 19  2  0
 19 20  1  0
  7 21  2  0
 21 22  1  0
 21 23  1  0
 23 24  1  0
 23 25  2  0
 25 26  1  0
 26 27  2  0
 27 28  1  0
 28 29  1  0
 28 30  1  0
 28 31  1  0
 31 32  1  0
 31 33  1  0
 31 34  1  0
 34 35  1  0
 34 36  1  0
 34 37  1  0
 26 38  1  0
 38 39  1  0
 38  2  2  0
 25  4  1  0
 19 10  1  0
M  CHG  2   3  -1  16  -1
M  END
>  <UniqueID>  (23) 
22

>  <SMILES>  (23) 
CCC/N=c1\cc[n-]c2cc(Nc3ccc([O-])cc3)ccc12

>  <Energy>  (23) 
48.162702251929545

>  <Genealogy>  (23) 
CCCN=c1cc[n-]c2cc(Nc3ccc([O-])cc3)ccc12 (protonated)
CCC/N=c1\cc[n-]c2cc(Nc3ccc([O-])cc3)ccc12 (cis-trans isomerization)
CCC/N=c1\cc[n-]c2cc(Nc3ccc([O-])cc3)ccc12 (3D coordinates assigned)
CCC/N=c1\cc[n-]c2cc(Nc3ccc([O-])cc3)ccc12 (optimized conformer: 48.162702251929545 kcal/mol)

>  <smiles>  (23) 
CCCN=c1cc[nH]c2cc(Nc3ccc(O)cc3)ccc12

>  <score_type>  (23) 
oracle

>  <origin>  (23) 
adg

>  <m_score__min__energy>  (23) 
-10.68

>  <m_primary>  (23) 
energy

$$$$
23:0
     RDKit          3D

 32 34  0  0  0  0  0  0  0  0999 V2000
   64.3690   32.5470   49.7420 C   0  0  0  0  0  0  0  0  0  0  0  0
   63.9450   31.8960   48.5500 O   0  0  0  0  0  0  0  0  0  0  0  0
   62.7050   32.1460   47.9540 C   0  0  0  0  0  0  0  0  0  0  0  0
   62.1690   33.4320   47.9990 C   0  0  0  0  0  0  0  0  0  0  0  0
   60.9160   33.6630   47.4080 C   0  0  0  0  0  0  0  0  0  0  0  0
   60.3030   34.9260   47.4290 O   0  0  0  0  0  0  0  0  0  0  0  0
   59.6330   35.5140   46.3180 C   0  0  0  0  0  0  0  0  0  0  0  0
   60.2670   32.6340   46.7990 N   0  0  0  0  0  0  0  0  0  0  0  0
   60.8150   31.3850   46.7440 C   0  0  0  0  0  0  0  0  0  0  0  0
   60.1500   30.3190   46.1240 O   0  0  0  0  0  0  0  0  0  0  0  0
   58.8510   30.3780   45.6090 C   0  0  0  0  0  0  0  0  0  0  0  0
   58.3610   31.5080   45.0110 N   0  0  0  0  0  0  0  0  0  0  0  0
   57.0950   31.5500   44.4880 C   0  0  0  0  0  0  0  0  0  0  0  0
   56.2860   30.4500   44.5430 N   0  0  0  0  0  0  0  0  0  0  0  0
   56.7690   29.3270   45.1260 C   0  0  0  0  0  0  0  0  0  0  0  0
   56.1220   28.1610   45.2630 N   0  0  0  0  0  0  0  0  0  0  0  0
   56.9950   27.3380   45.8950 C   0  0  0  0  0  0  0  0  0  0  0  0
   58.1960   27.9950   46.1560 C   0  0  0  0  0  0  0  0  0  0  0  0
   58.0220   29.2650   45.6520 C   0  0  0  0  0  0  0  0  0  0  0  0
   62.0170   31.1510   47.3320 N   0  0  0  0  0  0  0  0  0  0  0  0
   64.0041   31.9867   50.6155 H   0  0  0  0  0  0  0  0  0  0  0  0
   65.4680   32.5886   49.7660 H   0  0  0  0  0  0  0  0  0  0  0  0
   63.9628   33.5690   49.7660 H   0  0  0  0  0  0  0  0  0  0  0  0
   62.7171   34.2506   48.4883 H   0  0  0  0  0  0  0  0  0  0  0  0
   58.8526   36.1989   46.6810 H   0  0  0  0  0  0  0  0  0  0  0  0
   60.3569   36.0736   45.7075 H   0  0  0  0  0  0  0  0  0  0  0  0
   59.1721   34.7235   45.7075 H   0  0  0  0  0  0  0  0  0  0  0  0
   59.3170   32.8100   46.4040 H   0  0  0  0  0  0  0  0  0  0  0  0
   56.7275   32.4755   44.0207 H   0  0  0  0  0  0  0  0  0  0  0  0
   55.1530   27.9310   44.9490 H   0  0  0  0  0  0  0  0  0  0  0  0
   56.7837   26.2928   46.1652 H   0  0  0  0  0  0  0  0  0  0  0  0
   59.0878   27.5883   46.6553 H   0  0  0  0  0  0  0  0  0  0  0  0
  1  2  1  0
  2  3  1  0
  3  4  2  0
  4  5  1  0
  5  6  1  0
  6  7  1  0
  5  8  2  0
  8  9  1  0
  9 10  1  0
 10 11  1  0
 11 12  2  0
 12 13  1  0
 13 14  2  0
 14 15  1  0
 15 16  1  0
 16 17  1  0
 17 18  2  0
 18 19  1  0
  9 20  2  0
 20  3  1  0
 19 11  1  0
 19 15  2  0
  1 21  1  0
  1 22  1  0
  1 23  1  0
  4 24  1  0
  7 25  1  0
  7 26  1  0
  7 27  1  0
  8 28  1  0
 13 29  1  0
 16 30  1  0
 17 31  1  0
 18 32  1  0
M  CHG  1   8   1
M  END
>  <UniqueID>  (24) 
23

>  <SMILES>  (24) 
COc1cc(OC)[nH+]c(Oc2ncnc3[nH]ccc23)n1

>  <Energy>  (24) 
72.10125217347722

>  <Genealogy>  (24) 
COc1cc(OC)[nH+]c(Oc2ncnc3[nH]ccc23)n1 (protonated)
COc1cc(OC)[nH+]c(Oc2ncnc3[nH]ccc23)n1 (3D coordinates assigned)
COc1cc(OC)[nH+]c(Oc2ncnc3[nH]ccc23)n1 (optimized conformer: 72.10125217347722 kcal/mol)

>  <smiles>  (24) 
COc1cc(OC)nc(Oc2ncnc3[nH]ccc23)n1

>  <score_type>  (24) 
oracle

>  <origin>  (24) 
adg

>  <m_score__min__energy>  (24) 
-4.5800000000000001

>  <m_primary>  (24) 
energy

$$$$
24:0
     RDKit          3D

 39 41  0  0  1  0  0  0  0  0999 V2000
   56.6730   30.3560   42.6660 C   0  0  0  0  0  0  0  0  0  0  0  0
   55.4090   29.7340   43.3660 C   0  0  0  0  0  0  0  0  0  0  0  0
   55.9400   29.4930   44.6410 N   0  0  0  0  0  0  0  0  0  0  0  0
   57.0260   29.8410   45.1330 C   0  0  0  0  0  0  0  0  0  0  0  0
   57.2230   31.1280   45.4360 N   0  0  0  0  0  0  0  0  0  0  0  0
   58.3530   31.6090   45.9750 C   0  0  0  0  0  0  0  0  0  0  0  0
   58.4670   32.9990   46.2610 N   0  0  0  0  0  0  0  0  0  0  0  0
   58.0170   34.0120   45.3090 C   0  0  0  0  0  0  0  0  0  0  0  0
   59.1020   34.9770   44.9260 C   0  0  0  0  0  0  0  0  0  0  0  0
   59.9870   35.2630   46.0990 C   0  0  0  0  0  0  0  0  0  0  0  0
   59.2530   34.9610   47.3670 C   0  0  0  0  0  0  0  0  0  0  0  0
   59.0350   33.4490   47.5190 C   0  0  0  0  0  0  0  0  0  0  0  0
   59.3360   30.7250   46.2170 N   0  0  0  0  0  0  0  0  0  0  0  0
   59.1740   29.4210   45.9250 C   0  0  0  0  0  0  0  0  0  0  0  0
   60.2340   28.5910   46.2050 C   0  0  0  0  0  0  0  0  0  0  0  0
   60.0570   27.2580   45.8980 C   0  0  0  0  0  0  0  0  0  0  0  0
   58.9260   26.7370   45.3510 C   0  0  0  0  0  0  0  0  0  0  0  0
   57.8440   27.5980   45.0670 C   0  0  0  0  0  0  0  0  0  0  0  0
   58.0070   28.9120   45.3660 C   0  0  0  0  0  0  0  0  0  0  0  0
   57.3817   30.7047   43.4316 H   0  0  0  0  0  0  0  0  0  0  0  0
   57.1571   29.5932   42.0385 H   0  0  0  0  0  0  0  0  0  0  0  0
   56.3640   31.2050   42.0385 H   0  0  0  0  0  0  0  0  0  0  0  0
   54.5689   30.4433   43.3996 H   0  0  0  0  0  0  0  0  0  0  0  0
   54.9841   28.8525   42.8635 H   0  0  0  0  0  0  0  0  0  0  0  0
   57.6607   33.5056   44.3998 H   0  0  0  0  0  0  0  0  0  0  0  0
   57.2176   34.5902   45.7955 H   0  0  0  0  0  0  0  0  0  0  0  0
   59.7047   34.5411   44.1156 H   0  0  0  0  0  0  0  0  0  0  0  0
   58.6399   35.9174   44.5912 H   0  0  0  0  0  0  0  0  0  0  0  0
   60.8882   34.6351   46.0393 H   0  0  0  0  0  0  0  0  0  0  0  0
   60.2761   36.3243   46.0882 H   0  0  0  0  0  0  0  0  0  0  0  0
   59.8405   35.3291   48.2211 H   0  0  0  0  0  0  0  0  0  0  0  0
   58.2727   35.4590   47.3361 H   0  0  0  0  0  0  0  0  0  0  0  0
   59.9924   32.9419   47.7094 H   0  0  0  0  0  0  0  0  0  0  0  0
   58.3712   33.2204   48.3659 H   0  0  0  0  0  0  0  0  0  0  0  0
   60.2190   31.1130   46.6420 H   0  0  0  0  0  0  0  0  0  0  0  0
   61.1679   28.9678   46.6476 H   0  0  0  0  0  0  0  0  0  0  0  0
   60.8877   26.5689   46.1102 H   0  0  0  0  0  0  0  0  0  0  0  0
   58.8555   25.6611   45.1332 H   0  0  0  0  0  0  0  0  0  0  0  0
   56.9107   27.2210   44.6233 H   0  0  0  0  0  0  0  0  0  0  0  0
  1  2  1  0
  2  3  1  0
  3  4  2  0
  4  5  1  0
  5  6  2  0
  6  7  1  0
  7  8  1  0
  8  9  1  0
  9 10  1  0
 10 11  1  0
 11 12  1  0
  6 13  1  0
 13 14  1  0
 14 15  2  0
 15 16  1  0
 16 17  2  0
 17 18  1  0
 18 19  2  0
 19  4  1  0
 12  7  1  0
 19 14  1  0
  1 20  1  0
  1 21  1  0
  1 22  1  0
  2 23  1  0
  2 24  1  0
  8 25  1  0
  8 26  1  0
  9 27  1  0
  9 28  1  0
 10 29  1  0
 10 30  1  0
 11 31  1  0
 11 32  1  0
 12 33  1  0
 12 34  1  0
 13 35  1  0
 15 36  1  0
 16 37  1  0
 17 38  1  0
 18 39  1  0
M  END
>  <smiles>  (25) 
CCN=c1nc(N2CCCCC2)[nH]c2ccccc12

>  <score_type>  (25) 
oracle

>  <origin>  (25) 
adg

>  <m_score__min__energy>  (25) 
-7.1900000000000004

>  <m_primary>  (25) 
energy

$$$$
25:0
     RDKit          3D

 24 25  0  0  0  0  0  0  0  0999 V2000
   57.6290   27.7450   44.6770 C   0  0  0  0  0  0  0  0  0  0  0  0
   57.3590   29.0140   45.4850 C   0  0  1  0  0  0  0  0  0  0  0  0
   58.6680   29.8410   45.6680 C   0  0  0  0  0  0  0  0  0  0  0  0
   58.4070   31.3190   45.7400 C   0  0  0  0  0  0  0  0  0  0  0  0
   59.1920   32.1660   46.5370 C   0  0  0  0  0  0  0  0  0  0  0  0
   58.9770   33.5500   46.5100 C   0  0  0  0  0  0  0  0  0  0  0  0
   59.9530   34.6080   47.5120 Cl  0  0  0  0  0  0  0  0  0  0  0  0
   57.9920   34.0890   45.6760 C   0  0  0  0  0  0  0  0  0  0  0  0
   57.2190   33.2490   44.8680 C   0  0  0  0  0  0  0  0  0  0  0  0
   57.4280   31.8630   44.9020 C   0  0  0  0  0  0  0  0  0  0  0  0
   56.6280   30.9130   44.0620 C   0  0  0  0  0  0  0  0  0  0  0  0
   56.2280   29.7520   44.8680 N   0  0  0  0  0  0  0  0  0  0  0  0
   57.8079   26.9043   45.3635 H   0  0  0  0  0  0  0  0  0  0  0  0
   56.7582   27.5218   44.0430 H   0  0  0  0  0  0  0  0  0  0  0  0
   58.5152   27.8956   44.0430 H   0  0  0  0  0  0  0  0  0  0  0  0
   57.0435   28.7695   46.5100 H   0  0  0  0  0  0  0  0  0  0  0  0
   59.1591   29.5233   46.5996 H   0  0  0  0  0  0  0  0  0  0  0  0
   59.3068   29.6557   44.7918 H   0  0  0  0  0  0  0  0  0  0  0  0
   59.9759   31.7434   47.1827 H   0  0  0  0  0  0  0  0  0  0  0  0
   57.8249   35.1760   45.6556 H   0  0  0  0  0  0  0  0  0  0  0  0
   56.4491   33.6746   44.2076 H   0  0  0  0  0  0  0  0  0  0  0  0
   55.7292   31.4247   43.6875 H   0  0  0  0  0  0  0  0  0  0  0  0
   57.2411   30.5729   43.2144 H   0  0  0  0  0  0  0  0  0  0  0  0
   55.5900   30.0900   45.6280 H   0  0  0  0  0  0  0  0  0  0  0  0
  1  2  1  0
  2  3  1  0
  3  4  1  0
  4  5  2  0
  5  6  1  0
  6  7  1  0
  6  8  2  0
  8  9  1  0
  9 10  2  0
 10 11  1  0
 11 12  1  0
 12  2  1  0
 10  4  1  0
  1 13  1  0
  1 14  1  0
  1 15  1  0
  2 16  1  1
  3 17  1  0
  3 18  1  0
  5 19  1  0
  8 20  1  0
  9 21  1  0
 11 22  1  0
 11 23  1  0
 12 24  1  0
M  END
>  <UniqueID>  (26) 
24

>  <SMILES>  (26) 
C[C@H]1Cc2cc(Cl)ccc2CN1

>  <Energy>  (26) 
29.85376590612261

>  <Genealogy>  (26) 
C[C@H]1Cc2cc(Cl)ccc2CN1 (chirality)
C[C@H]1Cc2cc(Cl)ccc2CN1 (3D coordinates assigned)
C[C@H]1Cc2cc(Cl)ccc2CN1 (nonaromatic ring conformer: 29.85376590612261 kcal/mol)

>  <smiles>  (26) 
CC1Cc2cc(Cl)ccc2CN1

>  <score_type>  (26) 
oracle

>  <origin>  (26) 
adg

>  <m_score__min__energy>  (26) 
-6.4000000000000004

>  <m_primary>  (26) 
energy

$$$$
26:0
     RDKit          3D

 46 48  0  0  0  0  0  0  0  0999 V2000
   56.2850   22.6200   47.0090 C   0  0  0  0  0  0  0  0  0  0  0  0
   55.9780   23.9890   47.2550 O   0  0  0  0  0  0  0  0  0  0  0  0
   56.6780   25.0730   46.7030 C   0  0  0  0  0  0  0  0  0  0  0  0
   58.0800   25.1740   46.7810 C   0  0  0  0  0  0  0  0  0  0  0  0
   58.7430   26.2650   46.2140 C   0  0  0  0  0  0  0  0  0  0  0  0
   58.0230   27.2690   45.5530 C   0  0  0  0  0  0  0  0  0  0  0  0
   58.7360   28.4250   44.9610 C   0  0  0  0  0  0  0  0  0  0  0  0
   59.8030   28.2290   44.3190 O   0  0  0  0  0  0  0  0  0  0  0  0
   58.2390   29.8100   45.1080 C   0  0  0  0  0  0  0  0  0  0  0  0
   57.1090   30.3940   44.5260 C   0  0  0  0  0  0  0  0  0  0  0  0
   56.1200   29.7300   43.6230 C   0  0  0  0  0  0  0  0  0  0  0  0
   57.0170   31.6630   44.8810 O   0  0  0  0  0  0  0  0  0  0  0  0
   58.0420   31.9380   45.6500 C   0  0  0  0  0  0  0  0  0  0  0  0
   58.3460   33.1560   46.2480 C   0  0  0  0  0  0  0  0  0  0  0  0
   59.5090   33.2370   47.0510 C   0  0  0  0  0  0  0  0  0  0  0  0
   59.8860   34.4300   47.6880 O   0  0  0  0  0  0  0  0  0  0  0  0
   59.9950   34.5900   49.0980 C   0  0  0  0  0  0  0  0  0  0  0  0
   60.3290   32.0930   47.2300 C   0  0  0  0  0  0  0  0  0  0  0  0
   61.4710   32.2140   48.0350 O   0  0  0  0  0  0  0  0  0  0  0  0
   62.7580   32.5900   47.5560 C   0  0  0  0  0  0  0  0  0  0  0  0
   59.9840   30.8700   46.6030 C   0  0  0  0  0  0  0  0  0  0  0  0
   58.8350   30.8350   45.8150 C   0  0  0  0  0  0  0  0  0  0  0  0
   56.6230   27.1800   45.4930 C   0  0  0  0  0  0  0  0  0  0  0  0
   55.9470   26.0810   46.0560 C   0  0  0  0  0  0  0  0  0  0  0  0
   54.5500   25.9540   45.9950 O   0  0  0  0  0  0  0  0  0  0  0  0
   53.8640   24.7710   45.5980 C   0  0  0  0  0  0  0  0  0  0  0  0
   56.4032   22.0928   47.9672 H   0  0  0  0  0  0  0  0  0  0  0  0
   55.4681   22.1585   46.4349 H   0  0  0  0  0  0  0  0  0  0  0  0
   57.2208   22.5515   46.4349 H   0  0  0  0  0  0  0  0  0  0  0  0
   58.6570   24.3889   47.2916 H   0  0  0  0  0  0  0  0  0  0  0  0
   59.8383   26.3364   46.2870 H   0  0  0  0  0  0  0  0  0  0  0  0
   55.3573   29.2179   44.2280 H   0  0  0  0  0  0  0  0  0  0  0  0
   55.6368   30.4874   42.9883 H   0  0  0  0  0  0  0  0  0  0  0  0
   56.6381   28.9961   42.9883 H   0  0  0  0  0  0  0  0  0  0  0  0
   57.6996   34.0338   46.1009 H   0  0  0  0  0  0  0  0  0  0  0  0
   59.4446   33.7821   49.6023 H   0  0  0  0  0  0  0  0  0  0  0  0
   61.0546   34.5501   49.3907 H   0  0  0  0  0  0  0  0  0  0  0  0
   59.5700   35.5615   49.3907 H   0  0  0  0  0  0  0  0  0  0  0  0
   63.4243   32.7847   48.4093 H   0  0  0  0  0  0  0  0  0  0  0  0
   63.1739   31.7758   46.9443 H   0  0  0  0  0  0  0  0  0  0  0  0
   62.6701   33.5000   46.9443 H   0  0  0  0  0  0  0  0  0  0  0  0
   60.6062   29.9725   46.7347 H   0  0  0  0  0  0  0  0  0  0  0  0
   56.0480   27.9780   45.0005 H   0  0  0  0  0  0  0  0  0  0  0  0
   53.5423   24.2163   46.4917 H   0  0  0  0  0  0  0  0  0  0  0  0
   52.9829   25.0420   44.9978 H   0  0  0  0  0  0  0  0  0  0  0  0
   54.5368   24.1409   44.9978 H   0  0  0  0  0  0  0  0  0  0  0  0
  1  2  1  0
  2  3  1  0
  3  4  2  0
  4  5  1  0
  5  6  2  0
  6  7  1  0
  7  8  2  0
  7  9  1  0
  9 10  2  0
 10 11  1  0
 10 12  1  0
 12 13  1  0
 13 14  2  0
 14 15  1  0
 15 16  1  0
 16 17  1  0
 15 18  2  0
 18 19  1  0
 19 20  1  0
 18 21  1  0
 21 22  2  0
  6 23  1  0
 23 24  2  0
 24 25  1  0
 25 26  1  0
 24  3  1  0
 22  9  1  0
 22 13  1  0
  1 27  1  0
  1 28  1  0
  1 29  1  0
  4 30  1  0
  5 31  1  0
 11 32  1  0
 11 33  1  0
 11 34  1  0
 14 35  1  0
 17 36  1  0
 17 37  1  0
 17 38  1  0
 20 39  1  0
 20 40  1  0
 20 41  1  0
 21 42  1  0
 23 43  1  0
 26 44  1  0
 26 45  1  0
 26 46  1  0
M  END
>  <UniqueID>  (27) 
25

>  <SMILES>  (27) 
COc1ccc(C(=O)c2c(C)oc3cc(OC)c(OC)cc23)cc1OC

>  <Energy>  (27) 
84.5255511080508

>  <Genealogy>  (27) 
COc1ccc(C(=O)c2c(C)oc3cc(OC)c(OC)cc23)cc1OC (3D coordinates assigned)
COc1ccc(C(=O)c2c(C)oc3cc(OC)c(OC)cc23)cc1OC (optimized conformer: 84.5255511080508 kcal/mol)

>  <smiles>  (27) 
COc1ccc(C(=O)c2c(C)oc3cc(OC)c(OC)cc23)cc1OC

>  <score_type>  (27) 
oracle

>  <origin>  (27) 
adg

>  <m_score__min__energy>  (27) 
-6.9500000000000002

>  <m_primary>  (27) 
energy

$$$$
27:0
     RDKit          3D

 30 32  0  0  0  0  0  0  0  0999 V2000
   61.8734   33.6434   49.0024 H   0  0  0  0  0  0  0  0  0  0  0  0
   61.0490   33.7430   48.2810 C   0  0  0  0  0  0  0  0  0  0  0  0
   61.2090   33.8330   46.6090 S   0  0  0  0  0  0  0  0  0  0  0  0
   59.5670   33.9780   46.2770 C   0  0  0  0  0  0  0  0  0  0  0  0
   58.9660   34.0500   44.9090 C   0  0  0  0  0  0  0  0  0  0  0  0
   59.5644   33.4396   44.2167 H   0  0  0  0  0  0  0  0  0  0  0  0
   58.9583   35.0981   44.5751 H   0  0  0  0  0  0  0  0  0  0  0  0
   57.5550   33.5330   44.9340 C   0  0  0  0  0  0  0  0  0  0  0  0
   56.6630   34.2040   45.5180 O   0  0  0  0  0  0  0  0  0  0  0  0
   57.1920   32.3160   44.2770 N   0  0  0  0  0  0  0  0  0  0  0  0
   56.4680   31.4400   44.8460 N   0  0  0  0  0  0  0  0  0  0  0  0
   56.9080   30.0930   45.0330 C   0  0  0  0  0  0  0  0  0  0  0  0
   56.1200   28.9660   44.8710 C   0  0  0  0  0  0  0  0  0  0  0  0
   54.7820   28.9720   44.4970 O   0  0  0  0  0  0  0  0  0  0  0  0
   56.8200   27.8400   45.1260 N   0  0  0  0  0  0  0  0  0  0  0  0
   56.4710   26.8560   45.0800 H   0  0  0  0  0  0  0  0  0  0  0  0
   58.0590   28.2540   45.4530 C   0  0  0  0  0  0  0  0  0  0  0  0
   59.1450   27.4530   45.8010 C   0  0  0  0  0  0  0  0  0  0  0  0
   59.0540   26.3572   45.8328 H   0  0  0  0  0  0  0  0  0  0  0  0
   60.3600   28.0880   46.1100 C   0  0  0  0  0  0  0  0  0  0  0  0
   61.2362   27.4837   46.3876 H   0  0  0  0  0  0  0  0  0  0  0  0
   60.4650   29.4950   46.0670 C   0  0  0  0  0  0  0  0  0  0  0  0
   61.6440   30.0920   46.3690 F   0  0  0  0  0  0  0  0  0  0  0  0
   59.3540   30.2830   45.7140 C   0  0  0  0  0  0  0  0  0  0  0  0
   59.4248   31.3802   45.6792 H   0  0  0  0  0  0  0  0  0  0  0  0
   58.1580   29.6280   45.4090 C   0  0  0  0  0  0  0  0  0  0  0  0
   58.8660   33.9420   47.4760 C   0  0  0  0  0  0  0  0  0  0  0  0
   57.7697   34.0059   47.5396 H   0  0  0  0  0  0  0  0  0  0  0  0
   59.6980   33.8160   48.5950 C   0  0  0  0  0  0  0  0  0  0  0  0
   59.3173   33.7783   49.6263 H   0  0  0  0  0  0  0  0  0  0  0  0
  1  2  1  0
  2  3  1  0
  3  4  1  0
  4  5  1  0
  5  6  1  0
  5  7  1  0
  5  8  1  0
  8  9  2  0
  8 10  1  0
 10 11  2  0
 11 12  1  0
 12 13  2  0
 13 14  1  0
 13 15  1  0
 15 16  1  0
 15 17  1  0
 17 18  2  0
 18 19  1  0
 18 20  1  0
 20 21  1  0
 20 22  2  0
 22 23  1  0
 22 24  1  0
 24 25  1  0
 24 26  2  0
  4 27  2  0
 27 28  1  0
 27 29  1  0
 29 30  1  0
 29  2  2  0
 26 12  1  0
 26 17  1  0
M  CHG  1  14  -1
M  END
>  <UniqueID>  (28) 
26

>  <SMILES>  (28) 
O=C(Cc1cccs1)/N=N/c1c([O-])[nH]c2ccc(F)cc12

>  <Energy>  (28) 
90.64855127137045

>  <Genealogy>  (28) 
O=C(Cc1cccs1)N=Nc1c([O-])[nH]c2ccc(F)cc12 (protonated)
O=C(Cc1cccs1)/N=N/c1c([O-])[nH]c2ccc(F)cc12 (cis-trans isomerization)
O=C(Cc1cccs1)/N=N/c1c([O-])[nH]c2ccc(F)cc12 (3D coordinates assigned)
O=C(Cc1cccs1)/N=N/c1c([O-])[nH]c2ccc(F)cc12 (optimized conformer: 90.64855127137045 kcal/mol)

>  <smiles>  (28) 
O=C(Cc1cccs1)N=Nc1c(O)[nH]c2ccc(F)cc12

>  <score_type>  (28) 
oracle

>  <origin>  (28) 
adg

>  <m_score__min__energy>  (28) 
-11.65

>  <m_primary>  (28) 
energy

$$$$
28:0
     RDKit          3D

 38 39  0  0  0  0  0  0  0  0999 V2000
   60.2640   34.5730   48.5960 C   0  0  0  0  0  0  0  0  0  0  0  0
   59.2230   34.9180   47.6890 O   0  0  0  0  0  0  0  0  0  0  0  0
   58.8170   34.1230   46.6050 C   0  0  0  0  0  0  0  0  0  0  0  0
   58.9390   34.5580   45.2730 C   0  0  0  0  0  0  0  0  0  0  0  0
   58.5270   33.7380   44.2200 C   0  0  0  0  0  0  0  0  0  0  0  0
   57.9870   32.4680   44.4740 C   0  0  0  0  0  0  0  0  0  0  0  0
   57.5530   31.6270   43.3880 N   0  0  0  0  0  0  0  0  0  0  0  0
   57.7340   32.0570   42.0020 C   0  0  0  0  0  0  0  0  0  0  0  0
   56.7860   30.0960   43.7030 S   0  0  0  0  0  0  0  0  0  0  0  0
   56.4000   29.4550   42.3990 O   0  0  0  0  0  0  0  0  0  0  0  0
   55.5490   30.2950   44.5340 O   0  0  0  0  0  0  0  0  0  0  0  0
   57.8890   29.0580   44.6030 C   0  0  0  0  0  0  0  0  0  0  0  0
   57.3700   28.0730   45.4570 C   0  0  0  0  0  0  0  0  0  0  0  0
   58.2330   27.2510   46.1880 C   0  0  0  0  0  0  0  0  0  0  0  0
   59.6170   27.4110   46.0720 C   0  0  0  0  0  0  0  0  0  0  0  0
   60.4540   26.6120   46.7790 F   0  0  0  0  0  0  0  0  0  0  0  0
   60.1390   28.3960   45.2260 C   0  0  0  0  0  0  0  0  0  0  0  0
   59.2790   29.2190   44.4940 C   0  0  0  0  0  0  0  0  0  0  0  0
   57.8560   32.0370   45.8050 C   0  0  0  0  0  0  0  0  0  0  0  0
   58.2730   32.8570   46.8720 C   0  0  0  0  0  0  0  0  0  0  0  0
   58.1610   32.4490   48.2110 O   0  0  0  0  0  0  0  0  0  0  0  0
   58.9060   31.3860   48.7970 C   0  0  0  0  0  0  0  0  0  0  0  0
   59.9048   34.6920   49.6289 H   0  0  0  0  0  0  0  0  0  0  0  0
   60.5634   33.5276   48.4301 H   0  0  0  0  0  0  0  0  0  0  0  0
   61.1285   35.2327   48.4301 H   0  0  0  0  0  0  0  0  0  0  0  0
   59.3618   35.5507   45.0591 H   0  0  0  0  0  0  0  0  0  0  0  0
   58.6267   34.0908   43.1829 H   0  0  0  0  0  0  0  0  0  0  0  0
   58.1607   33.0707   41.9853 H   0  0  0  0  0  0  0  0  0  0  0  0
   58.4165   31.3634   41.4891 H   0  0  0  0  0  0  0  0  0  0  0  0
   56.7609   32.0603   41.4891 H   0  0  0  0  0  0  0  0  0  0  0  0
   56.2813   27.9472   45.5516 H   0  0  0  0  0  0  0  0  0  0  0  0
   57.8229   26.4781   46.8546 H   0  0  0  0  0  0  0  0  0  0  0  0
   61.2281   28.5226   45.1371 H   0  0  0  0  0  0  0  0  0  0  0  0
   59.6919   29.9940   43.8315 H   0  0  0  0  0  0  0  0  0  0  0  0
   57.4229   31.0481   46.0162 H   0  0  0  0  0  0  0  0  0  0  0  0
   58.8529   31.4618   49.8931 H   0  0  0  0  0  0  0  0  0  0  0  0
   58.4848   30.4221   48.4753 H   0  0  0  0  0  0  0  0  0  0  0  0
   59.9557   31.4531   48.4753 H   0  0  0  0  0  0  0  0  0  0  0  0
  1  2  1  0
  2  3  1  0
  3  4  2  0
  4  5  1  0
  5  6  2  0
  6  7  1  0
  7  8  1  0
  7  9  1  0
  9 10  2  0
  9 11  2  0
  9 12  1  0
 12 13  2  0
 13 14  1  0
 14 15  2  0
 15 16  1  0
 15 17  1  0
 17 18  2  0
  6 19  1  0
 19 20  2  0
 20 21  1  0
 21 22  1  0
 20  3  1  0
 18 12  1  0
  1 23  1  0
  1 24  1  0
  1 25  1  0
  4 26  1  0
  5 27  1  0
  8 28  1  0
  8 29  1  0
  8 30  1  0
 13 31  1  0
 14 32  1  0
 17 33  1  0
 18 34  1  0
 19 35  1  0
 22 36  1  0
 22 37  1  0
 22 38  1  0
M  END
>  <UniqueID>  (29) 
27

>  <SMILES>  (29) 
COc1ccc(N(C)S(=O)(=O)c2ccc(F)cc2)cc1OC

>  <Energy>  (29) 
41.78793127504844

>  <Genealogy>  (29) 
COc1ccc(N(C)S(=O)(=O)c2ccc(F)cc2)cc1OC (3D coordinates assigned)
COc1ccc(N(C)S(=O)(=O)c2ccc(F)cc2)cc1OC (optimized conformer: 41.78793127504844 kcal/mol)

>  <smiles>  (29) 
COc1ccc(N(C)S(=O)(=O)c2ccc(F)cc2)cc1OC

>  <score_type>  (29) 
oracle

>  <origin>  (29) 
adg

>  <m_score__min__energy>  (29) 
-7.6699999999999999

>  <m_primary>  (29) 
energy

$$$$
29:0
     RDKit          3D

 26 29  0  0  0  0  0  0  0  0999 V2000
   55.5180   28.9680   44.7950 O   0  0  0  0  0  0  0  0  0  0  0  0
   56.6930   29.0120   45.2460 C   0  0  0  0  0  0  0  0  0  0  0  0
   57.5290   27.8790   45.6520 C   0  0  0  0  0  0  0  0  0  0  0  0
   57.2600   26.5140   45.6490 C   0  0  0  0  0  0  0  0  0  0  0  0
   58.2730   25.6530   46.1030 C   0  0  0  0  0  0  0  0  0  0  0  0
   59.4740   26.1570   46.5300 N   0  0  0  0  0  0  0  0  0  0  0  0
   59.7390   27.4960   46.5340 C   0  0  0  0  0  0  0  0  0  0  0  0
   58.7500   28.3650   46.0880 C   0  0  0  0  0  0  0  0  0  0  0  0
   58.7260   29.8210   45.9720 C   0  0  0  0  0  0  0  0  0  0  0  0
   59.6840   30.7320   46.2740 N   0  0  0  0  0  0  0  0  0  0  0  0
   59.4100   32.0600   46.0710 C   0  0  0  0  0  0  0  0  0  0  0  0
   60.3650   33.0430   46.3670 C   0  0  0  0  0  0  0  0  0  0  0  0
   60.0710   34.3930   46.1530 C   0  0  0  0  0  0  0  0  0  0  0  0
   58.8240   34.7730   45.6440 C   0  0  0  0  0  0  0  0  0  0  0  0
   57.8590   33.8060   45.3430 C   0  0  0  0  0  0  0  0  0  0  0  0
   58.1380   32.4510   45.5500 C   0  0  0  0  0  0  0  0  0  0  0  0
   57.1980   31.5040   45.2570 N   0  0  0  0  0  0  0  0  0  0  0  0
   57.5030   30.2020   45.4710 C   0  0  0  0  0  0  0  0  0  0  0  0
   56.2910   26.1238   45.3043 H   0  0  0  0  0  0  0  0  0  0  0  0
   58.1011   24.5666   46.1159 H   0  0  0  0  0  0  0  0  0  0  0  0
   60.7104   27.8777   46.8813 H   0  0  0  0  0  0  0  0  0  0  0  0
   60.6060   30.4190   46.6530 H   0  0  0  0  0  0  0  0  0  0  0  0
   61.3469   32.7516   46.7682 H   0  0  0  0  0  0  0  0  0  0  0  0
   60.8238   35.1605   46.3859 H   0  0  0  0  0  0  0  0  0  0  0  0
   58.6015   35.8377   45.4797 H   0  0  0  0  0  0  0  0  0  0  0  0
   56.8806   34.1112   44.9435 H   0  0  0  0  0  0  0  0  0  0  0  0
  1  2  2  0
  2  3  1  0
  3  4  2  0
  4  5  1  0
  5  6  2  0
  6  7  1  0
  7  8  2  0
  8  9  1  0
  9 10  2  0
 10 11  1  0
 11 12  2  0
 12 13  1  0
 13 14  2  0
 14 15  1  0
 15 16  2  0
 16 17  1  0
 17 18  2  0
 18  2  1  0
  8  3  1  0
 18  9  1  0
 16 11  1  0
  4 19  1  0
  5 20  1  0
  7 21  1  0
 10 22  1  0
 12 23  1  0
 13 24  1  0
 14 25  1  0
 15 26  1  0
M  CHG  1  10   1
M  END
>  <UniqueID>  (30) 
28

>  <SMILES>  (30) 
O=C1c2ccncc2-c2[nH+]c3ccccc3nc21

>  <Energy>  (30) 
72.62944174745694

>  <Genealogy>  (30) 
O=C1c2ccncc2-c2[nH+]c3ccccc3nc21 (protonated)
O=C1c2ccncc2-c2[nH+]c3ccccc3nc21 (3D coordinates assigned)
O=C1c2ccncc2-c2[nH+]c3ccccc3nc21 (nonaromatic ring conformer: 72.62944174745694 kcal/mol)

>  <smiles>  (30) 
O=C1c2ccncc2-c2nc3ccccc3nc21

>  <score_type>  (30) 
oracle

>  <origin>  (30) 
adg

>  <m_score__min__energy>  (30) 
-5.6299999999999999

>  <m_primary>  (30) 
energy

$$$$
30:0
     RDKit          3D

 44 46  0  0  0  0  0  0  0  0999 V2000
   56.5900   22.3990   48.4890 C   0  0  0  0  0  0  0  0  0  0  0  0
   57.3920   22.9590   47.4560 O   0  0  0  0  0  0  0  0  0  0  0  0
   57.2690   24.2720   46.9680 C   0  0  0  0  0  0  0  0  0  0  0  0
   58.3320   25.1900   47.0510 C   0  0  0  0  0  0  0  0  0  0  0  0
   58.1960   26.4910   46.5520 C   0  0  0  0  0  0  0  0  0  0  0  0
   59.2670   27.3920   46.6400 C   0  0  0  0  0  0  0  0  0  0  0  0
   59.1430   28.6910   46.1470 C   0  0  0  0  0  0  0  0  0  0  0  0
   57.9430   29.1140   45.5530 C   0  0  0  0  0  0  0  0  0  0  0  0
   57.7930   30.4200   45.0440 C   0  0  0  0  0  0  0  0  0  0  0  0
   58.7360   31.2540   45.1070 O   0  0  0  0  0  0  0  0  0  0  0  0
   56.5820   30.8010   44.4600 C   0  0  0  0  0  0  0  0  0  0  0  0
   55.5350   29.8840   44.3860 C   0  0  0  0  0  0  0  0  0  0  0  0
   55.6910   28.6280   44.8800 N   0  0  0  0  0  0  0  0  0  0  0  0
   56.8530   28.2130   45.4590 C   0  0  0  0  0  0  0  0  0  0  0  0
   56.9780   26.8970   45.9600 C   0  0  0  0  0  0  0  0  0  0  0  0
   55.9160   25.9780   45.8840 C   0  0  0  0  0  0  0  0  0  0  0  0
   56.0520   24.6640   46.3760 C   0  0  0  0  0  0  0  0  0  0  0  0
   54.9620   23.7180   46.2970 N   0  0  0  0  0  0  0  0  0  0  0  0
   54.3770   23.2190   45.0510 C   0  0  0  0  0  0  0  0  0  0  0  0
   55.4390   23.1350   43.9490 C   0  0  0  0  0  0  0  0  0  0  0  0
   56.2560   21.8420   44.0710 C   0  0  0  0  0  0  0  0  0  0  0  0
   57.7450   22.1080   44.3530 C   0  0  0  0  0  0  0  0  0  0  0  0
   58.3310   21.0910   45.2280 N   0  0  0  0  0  0  0  0  0  0  0  0
   57.0007   22.6858   49.4683 H   0  0  0  0  0  0  0  0  0  0  0  0
   55.5604   22.7755   48.3987 H   0  0  0  0  0  0  0  0  0  0  0  0
   56.5888   21.3027   48.3987 H   0  0  0  0  0  0  0  0  0  0  0  0
   59.2813   24.8818   47.5135 H   0  0  0  0  0  0  0  0  0  0  0  0
   60.2127   27.0717   47.1016 H   0  0  0  0  0  0  0  0  0  0  0  0
   59.9904   29.3882   46.2240 H   0  0  0  0  0  0  0  0  0  0  0  0
   56.4558   31.8184   44.0612 H   0  0  0  0  0  0  0  0  0  0  0  0
   54.5798   30.1780   43.9264 H   0  0  0  0  0  0  0  0  0  0  0  0
   54.9626   26.2901   45.4327 H   0  0  0  0  0  0  0  0  0  0  0  0
   54.5470   23.3510   47.1820 H   0  0  0  0  0  0  0  0  0  0  0  0
   53.9573   22.2172   45.2250 H   0  0  0  0  0  0  0  0  0  0  0  0
   53.5870   23.9132   44.7285 H   0  0  0  0  0  0  0  0  0  0  0  0
   54.9419   23.1553   42.9679 H   0  0  0  0  0  0  0  0  0  0  0  0
   56.1209   23.9919   44.0530 H   0  0  0  0  0  0  0  0  0  0  0  0
   55.8433   21.2407   44.8945 H   0  0  0  0  0  0  0  0  0  0  0  0
   56.1882   21.3128   43.1091 H   0  0  0  0  0  0  0  0  0  0  0  0
   58.2914   22.1118   43.3983 H   0  0  0  0  0  0  0  0  0  0  0  0
   57.8245   23.0795   44.8628 H   0  0  0  0  0  0  0  0  0  0  0  0
   58.0120   21.2630   46.2090 H   0  0  0  0  0  0  0  0  0  0  0  0
   58.0220   20.1350   44.9370 H   0  0  0  0  0  0  0  0  0  0  0  0
   59.3740   21.1510   45.2080 H   0  0  0  0  0  0  0  0  0  0  0  0
  1  2  1  0
  2  3  1  0
  3  4  2  0
  4  5  1  0
  5  6  2  0
  6  7  1  0
  7  8  2  0
  8  9  1  0
  9 10  2  0
  9 11  1  0
 11 12  2  0
 12 13  1  0
 13 14  1  0
 14 15  2  0
 15 16  1  0
 16 17  2  0
 17 18  1  0
 18 19  1  0
 19 20  1  0
 20 21  1  0
 21 22  1  0
 22 23  1  0
 17  3  1  0
 15  5  1  0
 14  8  1  0
  1 24  1  0
  1 25  1  0
  1 26  1  0
  4 27  1  0
  6 28  1  0
  7 29  1  0
 11 30  1  0
 12 31  1  0
 16 32  1  0
 18 33  1  0
 19 34  1  0
 19 35  1  0
 20 36  1  0
 20 37  1  0
 21 38  1  0
 21 39  1  0
 22 40  1  0
 22 41  1  0
 23 42  1  0
 23 43  1  0
 23 44  1  0
M  CHG  2  13  -1  23   1
M  END
>  <UniqueID>  (31) 
29

>  <SMILES>  (31) 
COc1cc2ccc3c(=O)cc[n-]c3c2cc1NCCCC[NH3+]

>  <Energy>  (31) 
48.57344476165818

>  <Genealogy>  (31) 
COc1cc2ccc3c(=O)cc[n-]c3c2cc1NCCCC[NH3+] (protonated)
COc1cc2ccc3c(=O)cc[n-]c3c2cc1NCCCC[NH3+] (3D coordinates assigned)
COc1cc2ccc3c(=O)cc[n-]c3c2cc1NCCCC[NH3+] (optimized conformer: 48.57344476165818 kcal/mol)

>  <smiles>  (31) 
COc1cc2ccc3c(=O)cc[nH]c3c2cc1NCCCCN

>  <score_type>  (31) 
oracle

>  <origin>  (31) 
adg

>  <m_score__min__energy>  (31) 
-7.7400000000000002

>  <m_primary>  (31) 
energy

$$$$
31:0
     RDKit          3D

 39 40  0  0  0  0  0  0  0  0999 V2000
   59.6810   33.8530   47.6090 C   0  0  0  0  0  0  0  0  0  0  0  0
   60.2680   33.1360   46.3970 C   0  0  0  0  0  0  0  0  0  0  0  0
   59.7230   31.7420   46.2880 C   0  0  0  0  0  0  0  0  0  0  0  0
   60.3650   30.6570   46.7710 N   0  0  0  0  0  0  0  0  0  0  0  0
   59.6660   29.6040   46.3060 C   0  0  0  0  0  0  0  0  0  0  0  0
   60.0210   28.2690   46.4740 C   0  0  0  0  0  0  0  0  0  0  0  0
   59.2340   27.2990   45.8440 C   0  0  0  0  0  0  0  0  0  0  0  0
   58.1190   27.6790   45.0800 C   0  0  0  0  0  0  0  0  0  0  0  0
   57.7860   29.0420   44.9500 C   0  0  0  0  0  0  0  0  0  0  0  0
   56.5590   29.4080   44.2170 C   0  0  0  0  0  0  0  0  0  0  0  0
   55.2900   29.3020   44.8550 N   0  0  0  0  0  0  0  0  0  0  0  0
   56.6290   29.8750   43.0510 O   0  0  0  0  0  0  0  0  0  0  0  0
   58.5950   29.9620   45.5650 N   0  0  0  0  0  0  0  0  0  0  0  0
   58.6230   31.3170   45.5490 C   0  0  0  0  0  0  0  0  0  0  0  0
   57.8290   32.1510   44.6820 N   0  0  0  0  0  0  0  0  0  0  0  0
   58.4440   32.5460   43.4050 C   0  0  0  0  0  0  0  0  0  0  0  0
   57.5140   32.3270   42.2130 C   0  0  0  0  0  0  0  0  0  0  0  0
   56.7190   32.9630   45.2230 C   0  0  0  0  0  0  0  0  0  0  0  0
   57.0030   34.4690   45.2220 C   0  0  0  0  0  0  0  0  0  0  0  0
   60.0618   33.3878   48.5302 H   0  0  0  0  0  0  0  0  0  0  0  0
   59.9739   34.9130   47.5853 H   0  0  0  0  0  0  0  0  0  0  0  0
   58.5840   33.7751   47.5853 H   0  0  0  0  0  0  0  0  0  0  0  0
   60.0100   33.6965   45.4863 H   0  0  0  0  0  0  0  0  0  0  0  0
   61.3602   33.0798   46.5150 H   0  0  0  0  0  0  0  0  0  0  0  0
   61.2550   30.6380   47.3170 H   0  0  0  0  0  0  0  0  0  0  0  0
   60.8924   27.9855   47.0826 H   0  0  0  0  0  0  0  0  0  0  0  0
   59.4898   26.2342   45.9476 H   0  0  0  0  0  0  0  0  0  0  0  0
   57.5056   26.9130   44.5831 H   0  0  0  0  0  0  0  0  0  0  0  0
   55.1470   28.6550   45.6620 H   0  0  0  0  0  0  0  0  0  0  0  0
   58.7068   33.6130   43.4556 H   0  0  0  0  0  0  0  0  0  0  0  0
   59.3331   31.9161   43.2543 H   0  0  0  0  0  0  0  0  0  0  0  0
   56.5031   32.0889   42.5755 H   0  0  0  0  0  0  0  0  0  0  0  0
   57.4787   33.2414   41.6026 H   0  0  0  0  0  0  0  0  0  0  0  0
   57.8905   31.4929   41.6026 H   0  0  0  0  0  0  0  0  0  0  0  0
   55.8230   32.7777   44.6124 H   0  0  0  0  0  0  0  0  0  0  0  0
   56.5804   32.6617   46.2718 H   0  0  0  0  0  0  0  0  0  0  0  0
   57.0711   34.8300   46.2589 H   0  0  0  0  0  0  0  0  0  0  0  0
   57.9535   34.6626   44.7032 H   0  0  0  0  0  0  0  0  0  0  0  0
   56.1883   34.9954   44.7032 H   0  0  0  0  0  0  0  0  0  0  0  0
  1  2  1  0
  2  3  1  0
  3  4  1  0
  4  5  2  0
  5  6  1  0
  6  7  2  0
  7  8  1  0
  8  9  2  0
  9 10  1  0
 10 11  1  0
 10 12  2  0
  9 13  1  0
 13 14  1  0
 14 15  1  0
 15 16  1  0
 16 17  1  0
 15 18  1  0
 18 19  1  0
 14  3  2  0
 13  5  1  0
  1 20  1  0
  1 21  1  0
  1 22  1  0
  2 23  1  0
  2 24  1  0
  4 25  1  0
  6 26  1  0
  7 27  1  0
  8 28  1  0
 11 29  1  0
 16 30  1  0
 16 31  1  0
 17 32  1  0
 17 33  1  0
 17 34  1  0
 18 35  1  0
 18 36  1  0
 19 37  1  0
 19 38  1  0
 19 39  1  0
M  CHG  2   4   1  11  -1
M  END
>  <UniqueID>  (32) 
30

>  <SMILES>  (32) 
CCc1[nH+]c2cccc(C([NH-])=O)n2c1N(CC)CC

>  <Energy>  (32) 
79.72184324333102

>  <Genealogy>  (32) 
CCc1[nH+]c2cccc(C([NH-])=O)n2c1N(CC)CC (protonated)
CCc1[nH+]c2cccc(C([NH-])=O)n2c1N(CC)CC (3D coordinates assigned)
CCc1[nH+]c2cccc(C([NH-])=O)n2c1N(CC)CC (optimized conformer: 79.72184324333102 kcal/mol)

>  <smiles>  (32) 
CCc1nc2cccc(C(N)=O)n2c1N(CC)CC

>  <score_type>  (32) 
oracle

>  <origin>  (32) 
adg

>  <m_score__min__energy>  (32) 
-7.9199999999999999

>  <m_primary>  (32) 
energy

$$$$
32:0
     RDKit          3D

 49 50  0  0  0  0  0  0  0  0999 V2000
   63.1780   31.9570   48.4210 C   0  0  0  0  0  0  0  0  0  0  0  0
   62.3720   31.3120   47.3030 C   0  0  0  0  0  0  0  0  0  0  0  0
   61.5260   30.3050   47.8510 O   0  0  0  0  0  0  0  0  0  0  0  0
   60.3360   29.8580   47.2590 C   0  0  0  0  0  0  0  0  0  0  0  0
   59.9440   30.2400   45.9600 C   0  0  0  0  0  0  0  0  0  0  0  0
   58.7450   29.7640   45.4180 C   0  0  0  0  0  0  0  0  0  0  0  0
   57.9340   28.8870   46.1530 C   0  0  0  0  0  0  0  0  0  0  0  0
   56.6630   28.3960   45.5820 C   0  0  0  0  0  0  0  0  0  0  0  0
   56.3690   27.1750   45.6910 O   0  0  0  0  0  0  0  0  0  0  0  0
   55.7530   29.2680   44.9050 N   0  0  0  0  0  0  0  0  0  0  0  0
   55.8190   29.5810   43.4790 C   0  0  0  0  0  0  0  0  0  0  0  0
   56.6600   30.8350   43.2470 C   0  0  0  0  0  0  0  0  0  0  0  0
   56.6600   31.6910   44.4320 N   0  0  0  0  0  0  0  0  0  0  0  0
   57.4820   32.8660   44.5310 C   0  0  0  0  0  0  0  0  0  0  0  0
   58.3670   33.0820   43.6600 O   0  0  0  0  0  0  0  0  0  0  0  0
   57.3420   33.8110   45.6010 N   0  0  0  0  0  0  0  0  0  0  0  0
   58.2330   34.0450   46.7380 C   0  0  0  0  0  0  0  0  0  0  0  0
   59.5890   34.6540   46.2930 C   0  0  0  0  0  0  0  0  0  0  0  0
   60.7640   34.2000   47.1760 C   0  0  0  0  0  0  0  0  0  0  0  0
   60.3420   34.1190   48.6490 C   0  0  0  0  0  0  0  0  0  0  0  0
   59.2340   33.0670   48.8740 C   0  0  0  0  0  0  0  0  0  0  0  0
   58.3810   32.7860   47.6180 C   0  0  0  0  0  0  0  0  0  0  0  0
   58.3150   28.5270   47.4540 C   0  0  0  0  0  0  0  0  0  0  0  0
   59.5100   29.0030   47.9980 C   0  0  0  0  0  0  0  0  0  0  0  0
   62.7773   31.6363   49.3939 H   0  0  0  0  0  0  0  0  0  0  0  0
   64.2308   31.6492   48.3386 H   0  0  0  0  0  0  0  0  0  0  0  0
   63.1085   33.0517   48.3386 H   0  0  0  0  0  0  0  0  0  0  0  0
   61.7577   32.0766   46.8050 H   0  0  0  0  0  0  0  0  0  0  0  0
   63.0562   30.8590   46.5704 H   0  0  0  0  0  0  0  0  0  0  0  0
   60.5826   30.9144   45.3706 H   0  0  0  0  0  0  0  0  0  0  0  0
   58.4369   30.0793   44.4102 H   0  0  0  0  0  0  0  0  0  0  0  0
   56.2742   28.7351   42.9430 H   0  0  0  0  0  0  0  0  0  0  0  0
   54.8000   29.7609   43.1058 H   0  0  0  0  0  0  0  0  0  0  0  0
   57.6939   30.5376   43.0178 H   0  0  0  0  0  0  0  0  0  0  0  0
   56.2264   31.3980   42.4073 H   0  0  0  0  0  0  0  0  0  0  0  0
   56.0660   31.3890   45.2320 H   0  0  0  0  0  0  0  0  0  0  0  0
   57.7632   34.8043   47.3804 H   0  0  0  0  0  0  0  0  0  0  0  0
   59.7891   34.3464   45.2560 H   0  0  0  0  0  0  0  0  0  0  0  0
   59.5078   35.7471   46.3856 H   0  0  0  0  0  0  0  0  0  0  0  0
   61.1024   33.2077   46.8431 H   0  0  0  0  0  0  0  0  0  0  0  0
   61.5778   34.9343   47.0832 H   0  0  0  0  0  0  0  0  0  0  0  0
   61.2186   33.8475   49.2556 H   0  0  0  0  0  0  0  0  0  0  0  0
   59.9442   35.1012   48.9440 H   0  0  0  0  0  0  0  0  0  0  0  0
   59.7077   32.1258   49.1899 H   0  0  0  0  0  0  0  0  0  0  0  0
   58.5558   33.4728   49.6391 H   0  0  0  0  0  0  0  0  0  0  0  0
   58.8644   31.9932   47.0283 H   0  0  0  0  0  0  0  0  0  0  0  0
   57.3779   32.4758   47.9459 H   0  0  0  0  0  0  0  0  0  0  0  0
   57.6685   27.8656   48.0496 H   0  0  0  0  0  0  0  0  0  0  0  0
   59.8043   28.7038   49.0148 H   0  0  0  0  0  0  0  0  0  0  0  0
  1  2  1  0
  2  3  1  0
  3  4  1  0
  4  5  2  0
  5  6  1  0
  6  7  2  0
  7  8  1  0
  8  9  2  0
  8 10  1  0
 10 11  1  0
 11 12  1  0
 12 13  1  0
 13 14  1  0
 14 15  2  0
 14 16  1  0
 16 17  1  0
 17 18  1  0
 18 19  1  0
 19 20  1  0
 20 21  1  0
 21 22  1  0
  7 23  1  0
 23 24  2  0
 24  4  1  0
 22 17  1  0
  1 25  1  0
  1 26  1  0
  1 27  1  0
  2 28  1  0
  2 29  1  0
  5 30  1  0
  6 31  1  0
 11 32  1  0
 11 33  1  0
 12 34  1  0
 12 35  1  0
 13 36  1  0
 17 37  1  0
 18 38  1  0
 18 39  1  0
 19 40  1  0
 19 41  1  0
 20 42  1  0
 20 43  1  0
 21 44  1  0
 21 45  1  0
 22 46  1  0
 22 47  1  0
 23 48  1  0
 24 49  1  0
M  CHG  2  10  -1  16  -1
M  END
>  <UniqueID>  (33) 
31

>  <SMILES>  (33) 
CCOc1ccc(C(=O)[N-]CCNC(=O)[N-]C2CCCCC2)cc1

>  <Energy>  (33) 
48.00883528956892

>  <Genealogy>  (33) 
CCOc1ccc(C(=O)[N-]CCNC(=O)[N-]C2CCCCC2)cc1 (protonated)
CCOc1ccc(C(=O)[N-]CCNC(=O)[N-]C2CCCCC2)cc1 (3D coordinates assigned)
CCOc1ccc(C(=O)[N-]CCNC(=O)[N-]C2CCCCC2)cc1 (nonaromatic ring conformer: 48.00883528956892 kcal/mol)

>  <smiles>  (33) 
CCOc1ccc(C(=O)NCCNC(=O)NC2CCCCC2)cc1

>  <score_type>  (33) 
oracle

>  <origin>  (33) 
adg

>  <m_score__min__energy>  (33) 
-10.02

>  <m_primary>  (33) 
energy

$$$$
33:0
     RDKit          3D

 64 68  0  0  1  0  0  0  0  0999 V2000
   57.6320   34.2370   44.8580 C   0  0  0  0  0  0  0  0  0  0  0  0
   57.0360   33.4820   46.0050 C   0  0  0  0  0  0  0  0  0  0  0  0
   57.9010   32.4210   46.4820 N   0  0  0  0  0  0  0  0  0  0  0  0
   58.1620   31.4520   45.4590 C   0  0  0  0  0  0  0  0  0  0  0  0
   58.2700   30.0390   45.9670 C   0  0  0  0  0  0  0  0  0  0  0  0
   59.3730   33.0160   47.1180 S   0  0  0  0  0  0  0  0  0  0  0  0
   59.1600   34.4630   47.5250 O   0  0  0  0  0  0  0  0  0  0  0  0
   60.3790   33.0550   45.9990 O   0  0  0  0  0  0  0  0  0  0  0  0
   59.9700   32.0910   48.4500 C   0  0  0  0  0  0  0  0  0  0  0  0
   59.5670   32.4310   49.7320 C   0  0  0  0  0  0  0  0  0  0  0  0
   60.0020   31.7370   50.8520 C   0  0  0  0  0  0  0  0  0  0  0  0
   60.8630   30.6690   50.7250 C   0  0  0  0  0  0  0  0  0  0  0  0
   61.2950   29.9670   51.9400 C   0  0  0  0  0  0  0  0  0  0  0  0
   66.8420   28.2430   51.7490 N   0  0  0  0  0  0  0  0  0  0  0  0
   65.8500   29.0450   51.5780 C   0  0  0  0  0  0  0  0  0  0  0  0
   63.7490   30.6630   51.2330 N   0  0  0  0  0  0  0  0  0  0  0  0
   65.0210   31.1290   51.1140 C   0  0  0  0  0  0  0  0  0  0  0  0
   65.4440   32.4110   50.8200 C   0  0  0  0  0  0  0  0  0  0  0  0
   64.6610   33.4470   50.5940 C   0  0  0  0  0  0  0  0  0  0  0  0
   63.9330   33.5560   49.3490 C   0  0  0  0  0  0  0  0  0  0  0  0
   64.3770   33.3370   48.0980 N   0  0  0  0  0  0  0  0  0  0  0  0
   63.3480   33.5590   47.2610 C   0  0  0  0  0  0  0  0  0  0  0  0
   63.3470   33.4650   46.0090 O   0  0  0  0  0  0  0  0  0  0  0  0
   62.2680   33.9160   47.9910 N   0  0  0  0  0  0  0  0  0  0  0  0
   62.5870   33.9260   49.2930 C   0  0  0  0  0  0  0  0  0  0  0  0
   61.7770   34.2350   50.3910 O   0  0  0  0  0  0  0  0  0  0  0  0
   66.8210   32.3460   50.8220 C   0  0  0  0  0  0  0  0  0  0  0  0
   67.1800   31.0800   51.1040 N   0  0  0  0  0  0  0  0  0  0  0  0
   66.0950   30.3370   51.2830 N   0  0  0  0  0  0  0  0  0  0  0  0
   63.5420   29.3680   51.5280 C   0  0  0  0  0  0  0  0  0  0  0  0
   62.3120   28.9580   51.6330 N   0  0  0  0  0  0  0  0  0  0  0  0
   67.7680   27.8540   50.7320 C   0  0  0  0  0  0  0  0  0  0  0  0
   68.3330   26.4270   50.9660 C   0  0  0  0  0  0  0  0  0  0  0  0
   67.5350   26.7890   49.7550 C   0  0  0  0  0  0  0  0  0  0  0  0
   64.5970   28.5530   51.7020 N   0  0  0  0  0  0  0  0  0  0  0  0
   61.2630   30.3310   49.4470 C   0  0  0  0  0  0  0  0  0  0  0  0
   60.8250   31.0300   48.3270 C   0  0  0  0  0  0  0  0  0  0  0  0
   58.2704   35.0457   45.2435 H   0  0  0  0  0  0  0  0  0  0  0  0
   58.2368   33.5536   44.2438 H   0  0  0  0  0  0  0  0  0  0  0  0
   56.8268   34.6666   44.2438 H   0  0  0  0  0  0  0  0  0  0  0  0
   56.8509   34.1842   46.8312 H   0  0  0  0  0  0  0  0  0  0  0  0
   56.1034   33.0185   45.6509 H   0  0  0  0  0  0  0  0  0  0  0  0
   57.3432   31.4942   44.7256 H   0  0  0  0  0  0  0  0  0  0  0  0
   59.1376   31.7077   45.0200 H   0  0  0  0  0  0  0  0  0  0  0  0
   58.2696   30.0438   47.0670 H   0  0  0  0  0  0  0  0  0  0  0  0
   57.4141   29.4519   45.6026 H   0  0  0  0  0  0  0  0  0  0  0  0
   59.2052   29.5888   45.6026 H   0  0  0  0  0  0  0  0  0  0  0  0
   58.8795   33.2792   49.8659 H   0  0  0  0  0  0  0  0  0  0  0  0
   59.6562   32.0424   51.8506 H   0  0  0  0  0  0  0  0  0  0  0  0
   61.7156   30.6976   52.6466 H   0  0  0  0  0  0  0  0  0  0  0  0
   60.4229   29.4613   52.3800 H   0  0  0  0  0  0  0  0  0  0  0  0
   64.5607   34.2332   51.3567 H   0  0  0  0  0  0  0  0  0  0  0  0
   65.3500   33.0470   47.8580 H   0  0  0  0  0  0  0  0  0  0  0  0
   61.3160   34.1520   47.6060 H   0  0  0  0  0  0  0  0  0  0  0  0
   62.0030   33.8150   51.2860 H   0  0  0  0  0  0  0  0  0  0  0  0
   67.5071   33.1834   50.6270 H   0  0  0  0  0  0  0  0  0  0  0  0
   68.1024   28.8916   50.5849 H   0  0  0  0  0  0  0  0  0  0  0  0
   69.4131   26.2352   50.8846 H   0  0  0  0  0  0  0  0  0  0  0  0
   68.2684   25.6691   51.7607 H   0  0  0  0  0  0  0  0  0  0  0  0
   68.0316   26.8366   48.7746 H   0  0  0  0  0  0  0  0  0  0  0  0
   66.6295   26.3708   49.2911 H   0  0  0  0  0  0  0  0  0  0  0  0
   64.4510   27.5490   51.9300 H   0  0  0  0  0  0  0  0  0  0  0  0
   61.9495   29.4824   49.3106 H   0  0  0  0  0  0  0  0  0  0  0  0
   61.1710   30.7254   47.3282 H   0  0  0  0  0  0  0  0  0  0  0  0
  1  2  1  0
  2  3  1  0
  3  4  1  0
  4  5  1  0
  3  6  1  0
  6  7  2  0
  6  8  2  0
  6  9  1  0
  9 10  2  0
 10 11  1  0
 11 12  2  0
 12 13  1  0
 13 14  1  0
 14 15  2  0
 15 16  1  0
 16 17  2  0
 17 18  1  0
 18 19  2  0
 19 20  1  0
 20 21  1  0
 21 22  1  0
 22 23  2  0
 22 24  1  0
 24 25  1  0
 25 26  1  0
 18 27  1  0
 27 28  2  0
 28 29  1  0
 29 30  1  0
 30 31  2  0
 31 32  1  0
 32 33  1  0
 33 34  1  0
 30 35  1  0
 12 36  1  0
 36 37  2  0
 37  9  1  0
 35 15  1  0
 29 17  1  0
 34 32  1  0
 25 20  2  0
  1 38  1  0
  1 39  1  0
  1 40  1  0
  2 41  1  0
  2 42  1  0
  4 43  1  0
  4 44  1  0
  5 45  1  0
  5 46  1  0
  5 47  1  0
 10 48  1  0
 11 49  1  0
 13 50  1  0
 13 51  1  0
 19 52  1  0
 21 53  1  0
 24 54  1  0
 26 55  1  0
 27 56  1  0
 32 57  1  0
 33 58  1  0
 33 59  1  0
 34 60  1  0
 34 61  1  0
 35 62  1  0
 36 63  1  0
 37 64  1  0
M  END
>  <smiles>  (34) 
CCN(CC)S(=O)(=O)c1ccc(CN=c2nc3c(=Cc4[nH]c(=O)[nH]c4O)cnn3c(=NC3CC3)[nH]2)cc1

>  <score_type>  (34) 
oracle

>  <origin>  (34) 
adg

>  <m_score__min__energy>  (34) 
-10.550000000000001

>  <m_primary>  (34) 
energy

$$$$
34:0
     RDKit          3D

 41 43  0  0  0  0  0  0  0  0999 V2000
   56.6270   28.9820   42.5780 N   0  0  0  0  0  0  0  0  0  0  0  0
   56.3270   29.9270   43.6530 C   0  0  0  0  0  0  0  0  0  0  0  0
   57.4980   30.0990   44.6430 C   0  0  0  0  0  0  0  0  0  0  0  0
   57.6260   31.5440   45.2130 C   0  0  2  0  0  0  0  0  0  0  0  0
   57.5880   32.5780   44.0600 C   0  0  0  0  0  0  0  0  0  0  0  0
   57.7440   34.0510   44.5220 C   0  0  0  0  0  0  0  0  0  0  0  0
   58.0720   34.2200   46.0160 C   0  0  0  0  0  0  0  0  0  0  0  0
   59.0530   33.1740   46.4730 C   0  0  0  0  0  0  0  0  0  0  0  0
   60.1310   33.5220   47.2990 C   0  0  0  0  0  0  0  0  0  0  0  0
   61.0440   32.5460   47.7310 C   0  0  0  0  0  0  0  0  0  0  0  0
   62.1890   32.9150   48.6010 C   0  0  0  0  0  0  0  0  0  0  0  0
   63.4500   32.3130   48.4200 C   0  0  0  0  0  0  0  0  0  0  0  0
   64.5260   32.6640   49.2400 C   0  0  0  0  0  0  0  0  0  0  0  0
   64.3580   33.6150   50.2490 C   0  0  0  0  0  0  0  0  0  0  0  0
   63.1140   34.2190   50.4400 C   0  0  0  0  0  0  0  0  0  0  0  0
   62.0340   33.8730   49.6210 C   0  0  0  0  0  0  0  0  0  0  0  0
   60.8560   31.2160   47.3260 C   0  0  0  0  0  0  0  0  0  0  0  0
   59.7750   30.8620   46.5150 C   0  0  0  0  0  0  0  0  0  0  0  0
   58.8530   31.8350   46.0810 C   0  0  0  0  0  0  0  0  0  0  0  0
   56.6680   28.0180   42.9800 H   0  0  0  0  0  0  0  0  0  0  0  0
   55.8680   29.0040   41.8590 H   0  0  0  0  0  0  0  0  0  0  0  0
   57.5530   29.1980   42.1450 H   0  0  0  0  0  0  0  0  0  0  0  0
   56.0978   30.9058   43.2065 H   0  0  0  0  0  0  0  0  0  0  0  0
   55.4726   29.5255   44.2176 H   0  0  0  0  0  0  0  0  0  0  0  0
   57.3474   29.4056   45.4836 H   0  0  0  0  0  0  0  0  0  0  0  0
   58.4237   29.8882   44.0875 H   0  0  0  0  0  0  0  0  0  0  0  0
   56.7619   31.6305   45.8882 H   0  0  0  0  0  0  0  0  0  0  0  0
   58.4062   32.3468   43.3620 H   0  0  0  0  0  0  0  0  0  0  0  0
   56.5949   32.4961   43.5942 H   0  0  0  0  0  0  0  0  0  0  0  0
   58.5553   34.5101   43.9381 H   0  0  0  0  0  0  0  0  0  0  0  0
   56.7696   34.5348   44.3590 H   0  0  0  0  0  0  0  0  0  0  0  0
   58.5072   35.2171   46.1785 H   0  0  0  0  0  0  0  0  0  0  0  0
   57.1432   34.1068   46.5944 H   0  0  0  0  0  0  0  0  0  0  0  0
   60.2629   34.5684   47.6115 H   0  0  0  0  0  0  0  0  0  0  0  0
   63.5885   31.5620   47.6283 H   0  0  0  0  0  0  0  0  0  0  0  0
   65.5074   32.1902   49.0904 H   0  0  0  0  0  0  0  0  0  0  0  0
   65.2064   33.8882   50.8936 H   0  0  0  0  0  0  0  0  0  0  0  0
   62.9829   34.9677   51.2352 H   0  0  0  0  0  0  0  0  0  0  0  0
   61.0563   34.3530   49.7751 H   0  0  0  0  0  0  0  0  0  0  0  0
   61.5680   30.4430   47.6508 H   0  0  0  0  0  0  0  0  0  0  0  0
   59.6423   29.8129   46.2121 H   0  0  0  0  0  0  0  0  0  0  0  0
  1  2  1  0
  2  3  1  0
  3  4  1  0
  4  5  1  0
  5  6  1  0
  6  7  1  0
  7  8  1  0
  8  9  2  0
  9 10  1  0
 10 11  1  0
 11 12  2  0
 12 13  1  0
 13 14  2  0
 14 15  1  0
 15 16  2  0
 10 17  2  0
 17 18  1  0
 18 19  2  0
 19  4  1  0
 19  8  1  0
 16 11  1  0
  1 20  1  0
  1 21  1  0
  1 22  1  0
  2 23  1  0
  2 24  1  0
  3 25  1  0
  3 26  1  0
  4 27  1  1
  5 28  1  0
  5 29  1  0
  6 30  1  0
  6 31  1  0
  7 32  1  0
  7 33  1  0
  9 34  1  0
 12 35  1  0
 13 36  1  0
 14 37  1  0
 15 38  1  0
 16 39  1  0
 17 40  1  0
 18 41  1  0
M  CHG  1   1   1
M  END
>  <UniqueID>  (35) 
32

>  <SMILES>  (35) 
[NH3+]CC[C@@H]1CCCc2cc(-c3ccccc3)ccc21

>  <Energy>  (35) 
56.90504752478174

>  <Genealogy>  (35) 
[NH3+]CCC1CCCc2cc(-c3ccccc3)ccc21 (protonated)
[NH3+]CC[C@@H]1CCCc2cc(-c3ccccc3)ccc21 (chirality)
[NH3+]CC[C@@H]1CCCc2cc(-c3ccccc3)ccc21 (3D coordinates assigned)
[NH3+]CC[C@@H]1CCCc2cc(-c3ccccc3)ccc21 (nonaromatic ring conformer: 56.90504752478174 kcal/mol)

>  <smiles>  (35) 
NCCC1CCCc2cc(-c3ccccc3)ccc21

>  <score_type>  (35) 
oracle

>  <origin>  (35) 
adg

>  <m_score__min__energy>  (35) 
-6.5

>  <m_primary>  (35) 
energy

$$$$
35:0
     RDKit          3D

 43 46  0  0  1  0  0  0  0  0999 V2000
   59.5570   34.3450   47.6920 C   0  0  0  0  0  0  0  0  0  0  0  0
   59.0280   33.6910   46.4520 C   0  0  0  0  0  0  0  0  0  0  0  0
   58.8940   34.4700   44.8490 S   0  0  0  0  0  0  0  0  0  0  0  0
   58.1890   32.9440   44.0870 C   0  0  0  0  0  0  0  0  0  0  0  0
   57.7960   32.7260   42.8000 N   0  0  0  0  0  0  0  0  0  0  0  0
   57.3010   31.5140   42.4500 C   0  0  0  0  0  0  0  0  0  0  0  0
   57.2360   30.6010   43.4230 N   0  0  0  0  0  0  0  0  0  0  0  0
   57.6050   30.7710   44.6860 C   0  0  0  0  0  0  0  0  0  0  0  0
   57.4790   29.7930   45.4980 N   0  0  0  0  0  0  0  0  0  0  0  0
   57.5410   28.4250   45.1090 C   0  0  0  0  0  0  0  0  0  0  0  0
   56.9610   27.5100   45.9700 C   0  0  0  0  0  0  0  0  0  0  0  0
   56.9760   26.1680   45.6680 C   0  0  0  0  0  0  0  0  0  0  0  0
   57.5670   25.7060   44.5060 C   0  0  0  0  0  0  0  0  0  0  0  0
   57.5750   24.3000   44.2040 N   0  0  0  0  0  0  0  0  0  0  0  0
   58.4150   23.3340   44.8440 C   0  0  0  0  0  0  0  0  0  0  0  0
   57.5660   22.0750   44.7860 C   0  0  0  0  0  0  0  0  0  0  0  0
   56.9440   22.2220   43.4070 C   0  0  0  0  0  0  0  0  0  0  0  0
   56.7230   23.6920   43.2020 C   0  0  0  0  0  0  0  0  0  0  0  0
   58.1360   26.6350   43.6670 C   0  0  0  0  0  0  0  0  0  0  0  0
   58.1380   27.9980   43.9420 C   0  0  0  0  0  0  0  0  0  0  0  0
   58.1280   32.0140   45.1050 C   0  0  0  0  0  0  0  0  0  0  0  0
   58.5530   32.3880   46.3100 C   0  0  0  0  0  0  0  0  0  0  0  0
   58.5480   31.4820   47.5290 C   0  0  0  0  0  0  0  0  0  0  0  0
   59.1467   33.8378   48.5776 H   0  0  0  0  0  0  0  0  0  0  0  0
   60.6546   34.2738   47.7043 H   0  0  0  0  0  0  0  0  0  0  0  0
   59.2580   35.4035   47.7043 H   0  0  0  0  0  0  0  0  0  0  0  0
   56.9716   31.2946   41.4237 H   0  0  0  0  0  0  0  0  0  0  0  0
   56.8460   29.6570   43.1400 H   0  0  0  0  0  0  0  0  0  0  0  0
   56.4861   27.8571   46.8995 H   0  0  0  0  0  0  0  0  0  0  0  0
   56.5110   25.4515   46.3611 H   0  0  0  0  0  0  0  0  0  0  0  0
   59.3597   23.2027   44.2960 H   0  0  0  0  0  0  0  0  0  0  0  0
   58.7125   23.6172   45.8644 H   0  0  0  0  0  0  0  0  0  0  0  0
   58.1819   21.1665   44.8587 H   0  0  0  0  0  0  0  0  0  0  0  0
   56.8409   21.9735   45.6069 H   0  0  0  0  0  0  0  0  0  0  0  0
   57.6244   21.8278   42.6378 H   0  0  0  0  0  0  0  0  0  0  0  0
   56.0013   21.6604   43.3306 H   0  0  0  0  0  0  0  0  0  0  0  0
   57.0248   23.9984   42.1896 H   0  0  0  0  0  0  0  0  0  0  0  0
   55.6675   23.9862   43.2985 H   0  0  0  0  0  0  0  0  0  0  0  0
   58.6100   26.2848   42.7382 H   0  0  0  0  0  0  0  0  0  0  0  0
   58.6024   28.7147   43.2486 H   0  0  0  0  0  0  0  0  0  0  0  0
   58.5514   32.0956   48.4419 H   0  0  0  0  0  0  0  0  0  0  0  0
   57.6464   30.8521   47.5140 H   0  0  0  0  0  0  0  0  0  0  0  0
   59.4426   30.8421   47.5140 H   0  0  0  0  0  0  0  0  0  0  0  0
  1  2  1  0
  2  3  1  0
  3  4  1  0
  4  5  1  0
  5  6  2  0
  6  7  1  0
  7  8  1  0
  8  9  2  0
  9 10  1  0
 10 11  2  0
 11 12  1  0
 12 13  2  0
 13 14  1  0
 14 15  1  0
 15 16  1  0
 16 17  1  0
 17 18  1  0
 13 19  1  0
 19 20  2  0
  8 21  1  0
 21 22  1  0
 22 23  1  0
 22  2  2  0
 21  4  2  0
 20 10  1  0
 18 14  1  0
  1 24  1  0
  1 25  1  0
  1 26  1  0
  6 27  1  0
  7 28  1  0
 11 29  1  0
 12 30  1  0
 15 31  1  0
 15 32  1  0
 16 33  1  0
 16 34  1  0
 17 35  1  0
 17 36  1  0
 18 37  1  0
 18 38  1  0
 19 39  1  0
 20 40  1  0
 23 41  1  0
 23 42  1  0
 23 43  1  0
M  END
>  <smiles>  (36) 
Cc1sc2nc[nH]c(=Nc3ccc(N4CCCC4)cc3)c2c1C

>  <score_type>  (36) 
oracle

>  <origin>  (36) 
adg

>  <m_score__min__energy>  (36) 
-7.5999999999999996

>  <m_primary>  (36) 
energy

$$$$
36:0
     RDKit          3D

 51 54  0  0  0  0  0  0  0  0999 V2000
   64.3410   31.7730   50.0860 C   0  0  0  0  0  0  0  0  0  0  0  0
   62.9180   31.7640   50.1340 O   0  0  0  0  0  0  0  0  0  0  0  0
   62.0960   31.1150   49.1980 C   0  0  0  0  0  0  0  0  0  0  0  0
   61.1630   30.1330   49.5790 C   0  0  0  0  0  0  0  0  0  0  0  0
   60.3570   29.5160   48.6220 C   0  0  0  0  0  0  0  0  0  0  0  0
   60.4610   29.8770   47.2730 C   0  0  0  0  0  0  0  0  0  0  0  0
   59.5900   29.2420   46.2680 C   0  0  0  0  0  0  0  0  0  0  0  0
   59.5800   27.8880   45.9150 C   0  0  0  0  0  0  0  0  0  0  0  0
   60.5350   26.8460   46.4080 C   0  0  0  0  0  0  0  0  0  0  0  0
   58.5600   27.6210   45.0670 N   0  0  0  0  0  0  0  0  0  0  0  0
   57.9230   28.7910   44.8930 C   0  0  0  0  0  0  0  0  0  0  0  0
   56.8040   28.9830   44.1520 N   0  0  0  0  0  0  0  0  0  0  0  0
   56.2630   30.2360   44.1000 C   0  0  0  0  0  0  0  0  0  0  0  0
   56.8580   31.2750   44.7630 N   0  0  0  0  0  0  0  0  0  0  0  0
   57.9900   31.0990   45.5060 C   0  0  0  0  0  0  0  0  0  0  0  0
   58.6330   32.2340   46.1050 N   0  0  0  0  0  0  0  0  0  0  0  0
   59.2600   33.2560   45.2540 C   0  0  0  0  0  0  0  0  0  0  0  0
   58.7140   34.6360   45.6230 C   0  0  0  0  0  0  0  0  0  0  0  0
   58.8940   34.9600   47.1240 C   0  0  0  0  0  0  0  0  0  0  0  0
   59.2040   33.7290   47.9950 C   0  0  0  0  0  0  0  0  0  0  0  0
   58.4200   32.4950   47.5350 C   0  0  0  0  0  0  0  0  0  0  0  0
   58.5180   29.8060   45.5880 C   0  0  0  0  0  0  0  0  0  0  0  0
   61.4010   30.8410   46.8840 C   0  0  0  0  0  0  0  0  0  0  0  0
   62.2190   31.4670   47.8450 C   0  0  0  0  0  0  0  0  0  0  0  0
   63.1630   32.4460   47.4930 O   0  0  0  0  0  0  0  0  0  0  0  0
   62.8750   33.5980   46.7080 C   0  0  0  0  0  0  0  0  0  0  0  0
   64.7424   31.7755   51.1101 H   0  0  0  0  0  0  0  0  0  0  0  0
   64.6957   30.8771   49.5554 H   0  0  0  0  0  0  0  0  0  0  0  0
   64.6843   32.6733   49.5554 H   0  0  0  0  0  0  0  0  0  0  0  0
   61.0686   29.8501   50.6378 H   0  0  0  0  0  0  0  0  0  0  0  0
   59.6369   28.7429   48.9283 H   0  0  0  0  0  0  0  0  0  0  0  0
   60.5381   26.8426   47.5080 H   0  0  0  0  0  0  0  0  0  0  0  0
   60.2222   25.8580   46.0391 H   0  0  0  0  0  0  0  0  0  0  0  0
   61.5464   27.0717   46.0391 H   0  0  0  0  0  0  0  0  0  0  0  0
   58.3050   26.6970   44.6540 H   0  0  0  0  0  0  0  0  0  0  0  0
   56.3570   28.1910   43.6400 H   0  0  0  0  0  0  0  0  0  0  0  0
   55.3437   30.4111   43.5219 H   0  0  0  0  0  0  0  0  0  0  0  0
   60.3494   33.2407   45.4057 H   0  0  0  0  0  0  0  0  0  0  0  0
   59.0322   33.0430   44.1991 H   0  0  0  0  0  0  0  0  0  0  0  0
   59.2458   35.3958   45.0315 H   0  0  0  0  0  0  0  0  0  0  0  0
   57.6355   34.6383   45.4068 H   0  0  0  0  0  0  0  0  0  0  0  0
   59.7236   35.6749   47.2270 H   0  0  0  0  0  0  0  0  0  0  0  0
   57.9370   35.3697   47.4793 H   0  0  0  0  0  0  0  0  0  0  0  0
   60.2803   33.5107   47.9329 H   0  0  0  0  0  0  0  0  0  0  0  0
   58.9063   33.9577   49.0290 H   0  0  0  0  0  0  0  0  0  0  0  0
   58.7546   31.6210   48.1132 H   0  0  0  0  0  0  0  0  0  0  0  0
   57.3485   32.6813   47.6997 H   0  0  0  0  0  0  0  0  0  0  0  0
   61.5006   31.1104   45.8222 H   0  0  0  0  0  0  0  0  0  0  0  0
   62.6621   34.4496   47.3709 H   0  0  0  0  0  0  0  0  0  0  0  0
   63.7415   33.8351   46.0732 H   0  0  0  0  0  0  0  0  0  0  0  0
   61.9988   33.3995   46.0732 H   0  0  0  0  0  0  0  0  0  0  0  0
  1  2  1  0
  2  3  1  0
  3  4  2  0
  4  5  1  0
  5  6  2  0
  6  7  1  0
  7  8  2  0
  8  9  1  0
  8 10  1  0
 10 11  1  0
 11 12  2  0
 12 13  1  0
 13 14  2  0
 14 15  1  0
 15 16  1  0
 16 17  1  0
 17 18  1  0
 18 19  1  0
 19 20  1  0
 20 21  1  0
 15 22  2  0
  6 23  1  0
 23 24  2  0
 24 25  1  0
 25 26  1  0
 24  3  1  0
 22  7  1  0
 22 11  1  0
 21 16  1  0
  1 27  1  0
  1 28  1  0
  1 29  1  0
  4 30  1  0
  5 31  1  0
  9 32  1  0
  9 33  1  0
  9 34  1  0
 10 35  1  0
 12 36  1  0
 13 37  1  0
 17 38  1  0
 17 39  1  0
 18 40  1  0
 18 41  1  0
 19 42  1  0
 19 43  1  0
 20 44  1  0
 20 45  1  0
 21 46  1  0
 21 47  1  0
 23 48  1  0
 26 49  1  0
 26 50  1  0
 26 51  1  0
M  CHG  1  12   1
M  END
>  <UniqueID>  (37) 
33

>  <SMILES>  (37) 
COc1ccc(-c2c(C)[nH]c3[nH+]cnc(N4CCCCC4)c23)cc1OC

>  <Energy>  (37) 
96.14099249359904

>  <Genealogy>  (37) 
COc1ccc(-c2c(C)[nH]c3[nH+]cnc(N4CCCCC4)c23)cc1OC (protonated)
COc1ccc(-c2c(C)[nH]c3[nH+]cnc(N4CCCCC4)c23)cc1OC (3D coordinates assigned)
COc1ccc(-c2c(C)[nH]c3[nH+]cnc(N4CCCCC4)c23)cc1OC (nonaromatic ring conformer: 96.14099249359904 kcal/mol)

>  <smiles>  (37) 
COc1ccc(-c2c(C)[nH]c3ncnc(N4CCCCC4)c23)cc1OC

>  <score_type>  (37) 
oracle

>  <origin>  (37) 
adg

>  <m_score__min__energy>  (37) 
-5.9800000000000004

>  <m_primary>  (37) 
energy

$$$$
37:0
     RDKit          3D

 41 43  0  0  0  0  0  0  0  0999 V2000
   60.5759   29.6094   45.1792 H   0  0  0  0  0  0  0  0  0  0  0  0
   59.5630   29.2490   45.4120 C   0  0  0  0  0  0  0  0  0  0  0  0
   58.5910   30.1730   45.5710 C   0  0  0  0  0  0  0  0  0  0  0  0
   58.6880   31.2290   46.6090 C   0  0  0  0  0  0  0  0  0  0  0  0
   58.5230   30.9140   47.8190 O   0  0  0  0  0  0  0  0  0  0  0  0
   58.9790   32.5970   46.2580 N   0  0  0  0  0  0  0  0  0  0  0  0
   58.7730   33.0860   44.8900 C   0  0  0  0  0  0  0  0  0  0  0  0
   59.6998   32.9551   44.3121 H   0  0  0  0  0  0  0  0  0  0  0  0
   57.9587   32.5155   44.4194 H   0  0  0  0  0  0  0  0  0  0  0  0
   58.3980   34.5710   44.9200 C   0  0  0  0  0  0  0  0  0  0  0  0
   58.3815   34.9595   43.8910 H   0  0  0  0  0  0  0  0  0  0  0  0
   57.4064   34.6746   45.3847 H   0  0  0  0  0  0  0  0  0  0  0  0
   59.3340   35.3110   45.6800 O   0  0  0  0  0  0  0  0  0  0  0  0
   59.2700   34.9080   47.0340 C   0  0  0  0  0  0  0  0  0  0  0  0
   59.9262   35.5553   47.6344 H   0  0  0  0  0  0  0  0  0  0  0  0
   58.2288   34.9933   47.3785 H   0  0  0  0  0  0  0  0  0  0  0  0
   59.7210   33.4530   47.1900 C   0  0  0  0  0  0  0  0  0  0  0  0
   60.7972   33.3797   46.9744 H   0  0  0  0  0  0  0  0  0  0  0  0
   59.5245   33.1217   48.2203 H   0  0  0  0  0  0  0  0  0  0  0  0
   57.4810   30.2170   44.6560 N   0  0  0  0  0  0  0  0  0  0  0  0
   56.2520   29.8450   44.9680 N   0  0  0  0  0  0  0  0  0  0  0  0
   55.5230   30.0150   43.8480 C   0  0  0  0  0  0  0  0  0  0  0  0
   54.4470   29.7968   43.7801 H   0  0  0  0  0  0  0  0  0  0  0  0
   56.2600   30.4830   42.8180 N   0  0  0  0  0  0  0  0  0  0  0  0
   57.4850   30.5990   43.3650 C   0  0  0  0  0  0  0  0  0  0  0  0
   58.3740   30.9593   42.8266 H   0  0  0  0  0  0  0  0  0  0  0  0
   59.3650   27.7880   45.5280 C   0  0  0  0  0  0  0  0  0  0  0  0
   58.2170   27.2050   44.9740 C   0  0  0  0  0  0  0  0  0  0  0  0
   57.4888   27.8333   44.4402 H   0  0  0  0  0  0  0  0  0  0  0  0
   57.9910   25.8310   45.0950 C   0  0  0  0  0  0  0  0  0  0  0  0
   57.0945   25.3819   44.6426 H   0  0  0  0  0  0  0  0  0  0  0  0
   58.9050   25.0190   45.7930 C   0  0  0  0  0  0  0  0  0  0  0  0
   58.7260   23.6360   45.9370 O   0  0  0  0  0  0  0  0  0  0  0  0
   58.8730   22.6920   44.8800 C   0  0  0  0  0  0  0  0  0  0  0  0
   59.0292   21.6888   45.3034 H   0  0  0  0  0  0  0  0  0  0  0  0
   57.9642   22.6910   44.2603 H   0  0  0  0  0  0  0  0  0  0  0  0
   59.7391   22.9674   44.2603 H   0  0  0  0  0  0  0  0  0  0  0  0
   60.0360   25.6080   46.3720 C   0  0  0  0  0  0  0  0  0  0  0  0
   60.7508   24.9846   46.9291 H   0  0  0  0  0  0  0  0  0  0  0  0
   60.2640   26.9810   46.2480 C   0  0  0  0  0  0  0  0  0  0  0  0
   61.1511   27.4329   46.7159 H   0  0  0  0  0  0  0  0  0  0  0  0
  1  2  1  0
  2  3  2  0
  3  4  1  0
  4  5  2  0
  4  6  1  0
  6  7  1  0
  7  8  1  0
  7  9  1  0
  7 10  1  0
 10 11  1  0
 10 12  1  0
 10 13  1  0
 13 14  1  0
 14 15  1  0
 14 16  1  0
 14 17  1  0
 17 18  1  0
 17 19  1  0
  3 20  1  0
 20 21  1  0
 21 22  2  0
 22 23  1  0
 22 24  1  0
 24 25  2  0
 25 26  1  0
  2 27  1  0
 27 28  2  0
 28 29  1  0
 28 30  1  0
 30 31  1  0
 30 32  2  0
 32 33  1  0
 33 34  1  0
 34 35  1  0
 34 36  1  0
 34 37  1  0
 32 38  1  0
 38 39  1  0
 38 40  2  0
 40 41  1  0
 17  6  1  0
 25 20  1  0
 40 27  1  0
M  END
>  <UniqueID>  (38) 
34

>  <SMILES>  (38) 
COc1ccc(/C=C(\C(=O)N2CCOCC2)n2cncn2)cc1

>  <Energy>  (38) 
88.32819591175125

>  <Genealogy>  (38) 
COc1ccc(/C=C(\C(=O)N2CCOCC2)n2cncn2)cc1 (cis-trans isomerization)
COc1ccc(/C=C(\C(=O)N2CCOCC2)n2cncn2)cc1 (3D coordinates assigned)
COc1ccc(/C=C(\C(=O)N2CCOCC2)n2cncn2)cc1 (nonaromatic ring conformer: 88.32819591175125 kcal/mol)

>  <smiles>  (38) 
COc1ccc(C=C(C(=O)N2CCOCC2)n2cncn2)cc1

>  <score_type>  (38) 
oracle

>  <origin>  (38) 
adg

>  <m_score__min__energy>  (38) 
-6.5700000000000003

>  <m_primary>  (38) 
energy

$$$$
38:0
     RDKit          3D

 60 64  0  0  0  0  0  0  0  0999 V2000
   62.1800   33.8130   46.0160 C   0  0  0  0  0  0  0  0  0  0  0  0
   62.1450   32.8780   47.2330 C   0  0  1  0  0  0  0  0  0  0  0  0
   63.5920   32.6460   47.7600 C   0  0  0  0  0  0  0  0  0  0  0  0
   63.6080   32.5510   49.2230 N   0  0  0  0  0  0  0  0  0  0  0  0
   64.9490   32.3890   49.7940 C   0  0  0  0  0  0  0  0  0  0  0  0
   64.9300   33.0860   51.1580 C   0  0  0  0  0  0  0  0  0  0  0  0
   63.6020   33.8290   51.2200 C   0  0  0  0  0  0  0  0  0  0  0  0
   63.1080   33.7960   49.7820 C   0  0  2  0  0  0  0  0  0  0  0  0
   61.5970   33.8120   49.6210 C   0  0  0  0  0  0  0  0  0  0  0  0
   61.2000   33.3900   48.2630 N   0  0  0  0  0  0  0  0  0  0  0  0
   59.7870   33.3150   48.0090 C   0  0  0  0  0  0  0  0  0  0  0  0
   58.9780   33.9550   48.7280 O   0  0  0  0  0  0  0  0  0  0  0  0
   59.2860   32.4900   46.9490 N   0  0  0  0  0  0  0  0  0  0  0  0
   59.3030   31.0240   47.0320 C   0  0  0  0  0  0  0  0  0  0  0  0
   58.4930   30.6330   45.8550 C   0  0  0  0  0  0  0  0  0  0  0  0
   57.5740   29.6290   45.6390 C   0  0  0  0  0  0  0  0  0  0  0  0
   57.5600   28.2910   46.2500 C   0  0  0  0  0  0  0  0  0  0  0  0
   58.0240   28.1420   47.4120 O   0  0  0  0  0  0  0  0  0  0  0  0
   56.9700   27.1820   45.5570 N   0  0  0  0  0  0  0  0  0  0  0  0
   57.1470   25.8090   45.9470 C   0  0  0  0  0  0  0  0  0  0  0  0
   56.3070   25.2020   46.8980 C   0  0  0  0  0  0  0  0  0  0  0  0
   56.5120   23.8720   47.2750 C   0  0  0  0  0  0  0  0  0  0  0  0
   57.5640   23.1390   46.7190 C   0  0  0  0  0  0  0  0  0  0  0  0
   57.7660   21.8150   47.0940 O   0  0  0  0  0  0  0  0  0  0  0  0
   58.4160   23.7400   45.7880 C   0  0  0  0  0  0  0  0  0  0  0  0
   58.2130   25.0710   45.4100 C   0  0  0  0  0  0  0  0  0  0  0  0
   56.5780   30.1220   44.8660 N   0  0  0  0  0  0  0  0  0  0  0  0
   56.8140   31.4090   44.6370 N   0  0  0  0  0  0  0  0  0  0  0  0
   57.9910   31.7070   45.2170 C   0  0  0  0  0  0  0  0  0  0  0  0
   58.4360   32.9830   45.8460 C   0  0  0  0  0  0  0  0  0  0  0  0
   57.2380   33.7810   46.3910 C   0  0  0  0  0  0  0  0  0  0  0  0
   59.2500   33.8120   44.8430 C   0  0  0  0  0  0  0  0  0  0  0  0
   62.2191   34.8579   46.3574 H   0  0  0  0  0  0  0  0  0  0  0  0
   63.0705   33.5919   45.4093 H   0  0  0  0  0  0  0  0  0  0  0  0
   61.2755   33.6591   45.4093 H   0  0  0  0  0  0  0  0  0  0  0  0
   61.7558   31.8913   46.9415 H   0  0  0  0  0  0  0  0  0  0  0  0
   63.9845   31.7108   47.3342 H   0  0  0  0  0  0  0  0  0  0  0  0
   64.2170   33.4989   47.4567 H   0  0  0  0  0  0  0  0  0  0  0  0
   65.1831   31.3212   49.9165 H   0  0  0  0  0  0  0  0  0  0  0  0
   65.7158   32.8242   49.1363 H   0  0  0  0  0  0  0  0  0  0  0  0
   64.9937   32.3452   51.9686 H   0  0  0  0  0  0  0  0  0  0  0  0
   65.7842   33.7686   51.2781 H   0  0  0  0  0  0  0  0  0  0  0  0
   62.8959   33.3166   51.8900 H   0  0  0  0  0  0  0  0  0  0  0  0
   63.7013   34.8508   51.6151 H   0  0  0  0  0  0  0  0  0  0  0  0
   63.4674   34.7062   49.2796 H   0  0  0  0  0  0  0  0  0  0  0  0
   61.1507   33.1249   50.3550 H   0  0  0  0  0  0  0  0  0  0  0  0
   61.2403   34.8396   49.7845 H   0  0  0  0  0  0  0  0  0  0  0  0
   60.3283   30.6325   46.9581 H   0  0  0  0  0  0  0  0  0  0  0  0
   58.9156   30.6317   47.9839 H   0  0  0  0  0  0  0  0  0  0  0  0
   56.2790   27.3880   44.8020 H   0  0  0  0  0  0  0  0  0  0  0  0
   55.4842   25.7773   47.3475 H   0  0  0  0  0  0  0  0  0  0  0  0
   55.8438   23.4010   48.0110 H   0  0  0  0  0  0  0  0  0  0  0  0
   59.2468   23.1656   45.3523 H   0  0  0  0  0  0  0  0  0  0  0  0
   58.8939   25.5430   44.6864 H   0  0  0  0  0  0  0  0  0  0  0  0
   57.2582   33.7675   47.4907 H   0  0  0  0  0  0  0  0  0  0  0  0
   57.2977   34.8204   46.0359 H   0  0  0  0  0  0  0  0  0  0  0  0
   56.3019   33.3254   46.0359 H   0  0  0  0  0  0  0  0  0  0  0  0
   59.9193   34.4936   45.3884 H   0  0  0  0  0  0  0  0  0  0  0  0
   59.8479   33.1390   44.2109 H   0  0  0  0  0  0  0  0  0  0  0  0
   58.5662   34.3975   44.2109 H   0  0  0  0  0  0  0  0  0  0  0  0
  1  2  1  0
  2  3  1  0
  3  4  1  0
  4  5  1  0
  5  6  1  0
  6  7  1  0
  7  8  1  0
  8  9  1  0
  9 10  1  0
 10 11  1  0
 11 12  2  0
 11 13  1  0
 13 14  1  0
 14 15  1  0
 15 16  1  0
 16 17  1  0
 17 18  2  0
 17 19  1  0
 19 20  1  0
 20 21  2  0
 21 22  1  0
 22 23  2  0
 23 24  1  0
 23 25  1  0
 25 26  2  0
 16 27  2  0
 27 28  1  0
 28 29  1  0
 29 30  1  0
 30 31  1  0
 30 32  1  0
 10  2  1  0
 30 13  1  0
  8  4  1  0
 29 15  2  0
 26 20  1  0
  1 33  1  0
  1 34  1  0
  1 35  1  0
  2 36  1  6
  3 37  1  0
  3 38  1  0
  5 39  1  0
  5 40  1  0
  6 41  1  0
  6 42  1  0
  7 43  1  0
  7 44  1  0
  8 45  1  6
  9 46  1  0
  9 47  1  0
 14 48  1  0
 14 49  1  0
 19 50  1  0
 21 51  1  0
 22 52  1  0
 25 53  1  0
 26 54  1  0
 31 55  1  0
 31 56  1  0
 31 57  1  0
 32 58  1  0
 32 59  1  0
 32 60  1  0
M  CHG  2  24  -1  28  -1
M  END
>  <UniqueID>  (39) 
35

>  <SMILES>  (39) 
C[C@H]1CN2CCC[C@@H]2CN1C(=O)N1Cc2c(C(=O)Nc3ccc([O-])cc3)n[n-]c2C1(C)C

>  <Energy>  (39) 
135.69659880400414

>  <Genealogy>  (39) 
CC1CN2CCCC2CN1C(=O)N1Cc2c(C(=O)Nc3ccc([O-])cc3)n[n-]c2C1(C)C (protonated)
C[C@H]1CN2CCC[C@@H]2CN1C(=O)N1Cc2c(C(=O)Nc3ccc([O-])cc3)n[n-]c2C1(C)C (chirality)
C[C@H]1CN2CCC[C@@H]2CN1C(=O)N1Cc2c(C(=O)Nc3ccc([O-])cc3)n[n-]c2C1(C)C (3D coordinates assigned)
C[C@H]1CN2CCC[C@@H]2CN1C(=O)N1Cc2c(C(=O)Nc3ccc([O-])cc3)n[n-]c2C1(C)C (nonaromatic ring conformer: 135.69659880400414 kcal/mol)

>  <smiles>  (39) 
CC1CN2CCCC2CN1C(=O)N1Cc2c(C(=O)Nc3ccc(O)cc3)n[nH]c2C1(C)C

>  <score_type>  (39) 
oracle

>  <origin>  (39) 
adg

>  <m_score__min__energy>  (39) 
-12.74

>  <m_primary>  (39) 
energy

$$$$
39:0
     RDKit          3D

 43 45  0  0  0  0  0  0  0  0999 V2000
   61.9310   33.4270   51.3120 C   0  0  0  0  0  0  0  0  0  0  0  0
   61.8420   33.7050   49.8500 C   0  0  0  0  0  0  0  0  0  0  0  0
   62.8510   33.5050   48.9270 C   0  0  0  0  0  0  0  0  0  0  0  0
   62.2710   33.8340   47.7180 C   0  0  0  0  0  0  0  0  0  0  0  0
   62.9590   33.7880   46.3890 C   0  0  0  0  0  0  0  0  0  0  0  0
   60.9840   34.1950   47.9330 N   0  0  0  0  0  0  0  0  0  0  0  0
   60.0290   34.6520   46.9560 C   0  0  0  0  0  0  0  0  0  0  0  0
   59.9960   35.8710   46.6390 O   0  0  0  0  0  0  0  0  0  0  0  0
   59.0590   33.7190   46.3350 C   0  0  0  0  0  0  0  0  0  0  0  0
   58.0620   34.2090   45.4750 C   0  0  0  0  0  0  0  0  0  0  0  0
   57.1500   33.3350   44.8760 C   0  0  0  0  0  0  0  0  0  0  0  0
   57.2130   31.9610   45.1290 C   0  0  0  0  0  0  0  0  0  0  0  0
   56.2700   31.0970   44.4760 N   0  0  0  0  0  0  0  0  0  0  0  0
   56.3290   29.6660   44.4200 C   0  0  0  0  0  0  0  0  0  0  0  0
   55.4870   28.9590   45.0370 O   0  0  0  0  0  0  0  0  0  0  0  0
   57.3990   29.0060   43.6120 C   0  0  0  0  0  0  0  0  0  0  0  0
   58.4410   28.4200   44.5220 C   0  0  0  0  0  0  0  0  0  0  0  0
   58.0890   27.4410   45.4660 C   0  0  0  0  0  0  0  0  0  0  0  0
   59.0520   26.9230   46.3370 C   0  0  0  0  0  0  0  0  0  0  0  0
   60.3700   27.3850   46.2780 C   0  0  0  0  0  0  0  0  0  0  0  0
   60.7260   28.3690   45.3510 C   0  0  0  0  0  0  0  0  0  0  0  0
   59.7650   28.8890   44.4790 C   0  0  0  0  0  0  0  0  0  0  0  0
   58.2330   31.4610   45.9560 C   0  0  0  0  0  0  0  0  0  0  0  0
   59.1460   32.3330   46.5550 C   0  0  0  0  0  0  0  0  0  0  0  0
   60.7200   34.1150   49.2280 N   0  0  0  0  0  0  0  0  0  0  0  0
   61.6428   34.3272   51.8746 H   0  0  0  0  0  0  0  0  0  0  0  0
   61.2526   32.6005   51.5700 H   0  0  0  0  0  0  0  0  0  0  0  0
   62.9633   33.1482   51.5700 H   0  0  0  0  0  0  0  0  0  0  0  0
   63.8797   33.1625   49.1128 H   0  0  0  0  0  0  0  0  0  0  0  0
   64.0460   33.7153   46.5412 H   0  0  0  0  0  0  0  0  0  0  0  0
   62.6083   32.9113   45.8247 H   0  0  0  0  0  0  0  0  0  0  0  0
   62.7282   34.7036   45.8247 H   0  0  0  0  0  0  0  0  0  0  0  0
   57.9985   35.2881   45.2715 H   0  0  0  0  0  0  0  0  0  0  0  0
   56.3772   33.7309   44.2007 H   0  0  0  0  0  0  0  0  0  0  0  0
   56.9543   28.2048   43.0035 H   0  0  0  0  0  0  0  0  0  0  0  0
   57.8703   29.7535   42.9569 H   0  0  0  0  0  0  0  0  0  0  0  0
   57.0512   27.0805   45.5201 H   0  0  0  0  0  0  0  0  0  0  0  0
   58.7724   26.1513   47.0693 H   0  0  0  0  0  0  0  0  0  0  0  0
   61.1276   26.9740   46.9615 H   0  0  0  0  0  0  0  0  0  0  0  0
   61.7627   28.7342   45.3077 H   0  0  0  0  0  0  0  0  0  0  0  0
   60.0465   29.6688   43.7560 H   0  0  0  0  0  0  0  0  0  0  0  0
   58.3132   30.3783   46.1327 H   0  0  0  0  0  0  0  0  0  0  0  0
   59.9388   31.9320   47.2036 H   0  0  0  0  0  0  0  0  0  0  0  0
  1  2  1  0
  2  3  1  0
  3  4  2  0
  4  5  1  0
  4  6  1  0
  6  7  1  0
  7  8  2  0
  7  9  1  0
  9 10  2  0
 10 11  1  0
 11 12  2  0
 12 13  1  0
 13 14  1  0
 14 15  2  0
 14 16  1  0
 16 17  1  0
 17 18  2  0
 18 19  1  0
 19 20  2  0
 20 21  1  0
 21 22  2  0
 12 23  1  0
 23 24  2  0
  6 25  1  0
 25  2  2  0
 24  9  1  0
 22 17  1  0
  1 26  1  0
  1 27  1  0
  1 28  1  0
  3 29  1  0
  5 30  1  0
  5 31  1  0
  5 32  1  0
 10 33  1  0
 11 34  1  0
 16 35  1  0
 16 36  1  0
 18 37  1  0
 19 38  1  0
 20 39  1  0
 21 40  1  0
 22 41  1  0
 23 42  1  0
 24 43  1  0
M  CHG  1  13  -1
M  END
>  <UniqueID>  (40) 
36

>  <SMILES>  (40) 
Cc1cc(C)n(C(=O)c2ccc([N-]C(=O)Cc3ccccc3)cc2)n1

>  <Energy>  (40) 
79.26139986005995

>  <Genealogy>  (40) 
Cc1cc(C)n(C(=O)c2ccc([N-]C(=O)Cc3ccccc3)cc2)n1 (protonated)
Cc1cc(C)n(C(=O)c2ccc([N-]C(=O)Cc3ccccc3)cc2)n1 (3D coordinates assigned)
Cc1cc(C)n(C(=O)c2ccc([N-]C(=O)Cc3ccccc3)cc2)n1 (optimized conformer: 79.26139986005995 kcal/mol)

>  <smiles>  (40) 
Cc1cc(C)n(C(=O)c2ccc(NC(=O)Cc3ccccc3)cc2)n1

>  <score_type>  (40) 
oracle

>  <origin>  (40) 
adg

>  <m_score__min__energy>  (40) 
-10.35

>  <m_primary>  (40) 
energy

$$$$
41:0
     RDKit          3D

 50 53  0  0  0  0  0  0  0  0999 V2000
   61.3767   32.8737   45.7869 H   0  0  0  0  0  0  0  0  0  0  0  0
   61.6000   33.2660   46.7900 C   0  0  0  0  0  0  0  0  0  0  0  0
   62.9180   33.2770   47.2560 C   0  0  0  0  0  0  0  0  0  0  0  0
   63.7316   32.9214   46.6067 H   0  0  0  0  0  0  0  0  0  0  0  0
   63.2080   33.7410   48.5520 C   0  0  0  0  0  0  0  0  0  0  0  0
   64.5180   33.7840   49.0500 O   0  0  0  0  0  0  0  0  0  0  0  0
   65.1170   32.8030   49.8520 C   0  0  0  0  0  0  0  0  0  0  0  0
   66.5030   32.7740   50.0840 C   0  0  0  0  0  0  0  0  0  0  0  0
   67.1485   33.5450   49.6380 H   0  0  0  0  0  0  0  0  0  0  0  0
   67.0660   31.7700   50.8790 C   0  0  0  0  0  0  0  0  0  0  0  0
   68.1503   31.7608   51.0642 H   0  0  0  0  0  0  0  0  0  0  0  0
   66.2490   30.7710   51.4430 C   0  0  0  0  0  0  0  0  0  0  0  0
   66.7650   29.7430   52.2470 O   0  0  0  0  0  0  0  0  0  0  0  0
   67.0480   29.8760   53.6360 C   0  0  0  0  0  0  0  0  0  0  0  0
   66.2052   29.4799   54.2215 H   0  0  0  0  0  0  0  0  0  0  0  0
   67.9607   29.3126   53.8798 H   0  0  0  0  0  0  0  0  0  0  0  0
   67.1967   30.9383   53.8798 H   0  0  0  0  0  0  0  0  0  0  0  0
   64.8730   30.7930   51.1930 C   0  0  0  0  0  0  0  0  0  0  0  0
   64.2274   30.0140   51.6247 H   0  0  0  0  0  0  0  0  0  0  0  0
   64.3120   31.7970   50.3990 C   0  0  0  0  0  0  0  0  0  0  0  0
   63.2297   31.7967   50.2024 H   0  0  0  0  0  0  0  0  0  0  0  0
   62.1660   34.2130   49.3590 C   0  0  0  0  0  0  0  0  0  0  0  0
   62.3858   34.5952   50.3668 H   0  0  0  0  0  0  0  0  0  0  0  0
   60.8480   34.2020   48.8930 C   0  0  0  0  0  0  0  0  0  0  0  0
   60.0333   34.5469   49.5467 H   0  0  0  0  0  0  0  0  0  0  0  0
   60.5600   33.7540   47.5980 C   0  0  0  0  0  0  0  0  0  0  0  0
   59.1920   33.6990   47.1630 N   0  0  0  0  0  0  0  0  0  0  0  0
   58.6720   32.9290   46.2430 C   0  0  0  0  0  0  0  0  0  0  0  0
   58.0680   33.4570   45.0930 C   0  0  0  0  0  0  0  0  0  0  0  0
   58.0350   34.5462   44.9430 H   0  0  0  0  0  0  0  0  0  0  0  0
   57.5110   32.6110   44.1420 C   0  0  0  0  0  0  0  0  0  0  0  0
   57.0581   33.0432   43.2375 H   0  0  0  0  0  0  0  0  0  0  0  0
   57.5130   31.2530   44.3050 N   0  0  0  0  0  0  0  0  0  0  0  0
   56.8890   30.4490   43.2330 C   0  0  0  0  0  0  0  0  0  0  0  0
   57.5973   29.6743   42.9041 H   0  0  0  0  0  0  0  0  0  0  0  0
   56.6343   31.1145   42.3950 H   0  0  0  0  0  0  0  0  0  0  0  0
   55.6120   29.7800   43.7330 C   0  0  0  0  0  0  0  0  0  0  0  0
   55.6062   29.7769   44.8330 H   0  0  0  0  0  0  0  0  0  0  0  0
   54.7378   30.3360   43.3632 H   0  0  0  0  0  0  0  0  0  0  0  0
   55.5714   28.7448   43.3632 H   0  0  0  0  0  0  0  0  0  0  0  0
   58.1020   30.6880   45.4210 C   0  0  0  0  0  0  0  0  0  0  0  0
   58.1580   29.2850   45.6100 C   0  0  0  0  0  0  0  0  0  0  0  0
   57.7316   28.6184   44.8459 H   0  0  0  0  0  0  0  0  0  0  0  0
   58.7460   28.7350   46.7510 C   0  0  0  0  0  0  0  0  0  0  0  0
   58.8000   26.9930   46.9570 Cl  0  0  0  0  0  0  0  0  0  0  0  0
   59.2920   29.5630   47.7260 C   0  0  0  0  0  0  0  0  0  0  0  0
   59.7472   29.1241   48.6261 H   0  0  0  0  0  0  0  0  0  0  0  0
   59.2640   30.9460   47.5660 C   0  0  0  0  0  0  0  0  0  0  0  0
   59.7027   31.5921   48.3407 H   0  0  0  0  0  0  0  0  0  0  0  0
   58.6790   31.5280   46.4210 C   0  0  0  0  0  0  0  0  0  0  0  0
  1  2  1  0
  2  3  2  0
  3  4  1  0
  3  5  1  0
  5  6  1  0
  6  7  1  0
  7  8  2  0
  8  9  1  0
  8 10  1  0
 10 11  1  0
 10 12  2  0
 12 13  1  0
 13 14  1  0
 14 15  1  0
 14 16  1  0
 14 17  1  0
 12 18  1  0
 18 19  1  0
 18 20  2  0
 20 21  1  0
  5 22  2  0
 22 23  1  0
 22 24  1  0
 24 25  1  0
 24 26  2  0
 26 27  1  0
 27 28  2  0
 28 29  1  0
 29 30  1  0
 29 31  2  0
 31 32  1  0
 31 33  1  0
 33 34  1  0
 34 35  1  0
 34 36  1  0
 34 37  1  0
 37 38  1  0
 37 39  1  0
 37 40  1  0
 33 41  1  0
 41 42  2  0
 42 43  1  0
 42 44  1  0
 44 45  1  0
 44 46  2  0
 46 47  1  0
 46 48  1  0
 48 49  1  0
 48 50  2  0
 26  2  1  0
 50 28  1  0
 20  7  1  0
 50 41  1  0
M  END
>  <UniqueID>  (41) 
37

>  <SMILES>  (41) 
CCn1cc/c(=N\c2ccc(Oc3ccc(OC)cc3)cc2)c2ccc(Cl)cc21

>  <Energy>  (41) 
77.55228265993964

>  <Genealogy>  (41) 
CCn1cc/c(=N\c2ccc(Oc3ccc(OC)cc3)cc2)c2ccc(Cl)cc21 (cis-trans isomerization)
CCn1cc/c(=N\c2ccc(Oc3ccc(OC)cc3)cc2)c2ccc(Cl)cc21 (3D coordinates assigned)
CCn1cc/c(=N\c2ccc(Oc3ccc(OC)cc3)cc2)c2ccc(Cl)cc21 (optimized conformer: 77.55228265993964 kcal/mol)

>  <smiles>  (41) 
CCn1ccc(=Nc2ccc(Oc3ccc(OC)cc3)cc2)c2ccc(Cl)cc21

>  <score_type>  (41) 
oracle

>  <origin>  (41) 
adg

>  <m_score__min__energy>  (41) 
-8.1099999999999994

>  <m_primary>  (41) 
energy

$$$$
42:0
     RDKit          3D

 34 35  0  0  0  0  0  0  0  0999 V2000
   56.2290   24.5340   45.3560 C   0  0  0  0  0  0  0  0  0  0  0  0
   56.2710   26.0020   45.6280 C   0  0  0  0  0  0  0  0  0  0  0  0
   55.2190   26.5910   45.9960 O   0  0  0  0  0  0  0  0  0  0  0  0
   57.5210   26.7060   45.5580 N   0  0  0  0  0  0  0  0  0  0  0  0
   57.6450   28.1370   45.6190 C   0  0  0  0  0  0  0  0  0  0  0  0
   56.9570   28.9280   44.6890 C   0  0  0  0  0  0  0  0  0  0  0  0
   57.0440   30.3220   44.7380 C   0  0  0  0  0  0  0  0  0  0  0  0
   57.8060   30.9520   45.7350 C   0  0  0  0  0  0  0  0  0  0  0  0
   57.9060   32.3890   45.7800 N   0  0  0  0  0  0  0  0  0  0  0  0
   57.7680   33.1160   47.0490 C   0  0  0  0  0  0  0  0  0  0  0  0
   59.0090   33.9840   47.3100 C   0  0  0  0  0  0  0  0  0  0  0  0
   59.5990   34.6110   46.0260 C   0  0  0  0  0  0  0  0  0  0  0  0
   58.6170   34.5840   44.8480 C   0  0  0  0  0  0  0  0  0  0  0  0
   58.1870   33.1400   44.5460 C   0  0  0  0  0  0  0  0  0  0  0  0
   58.4850   30.1610   46.6780 C   0  0  0  0  0  0  0  0  0  0  0  0
   58.3980   28.7660   46.6270 C   0  0  0  0  0  0  0  0  0  0  0  0
   56.2133   23.9848   46.3090 H   0  0  0  0  0  0  0  0  0  0  0  0
   55.3236   24.2937   44.7793 H   0  0  0  0  0  0  0  0  0  0  0  0
   57.1192   24.2423   44.7793 H   0  0  0  0  0  0  0  0  0  0  0  0
   58.3970   26.1360   45.5440 H   0  0  0  0  0  0  0  0  0  0  0  0
   56.3428   28.4473   43.9133 H   0  0  0  0  0  0  0  0  0  0  0  0
   56.5122   30.9294   43.9909 H   0  0  0  0  0  0  0  0  0  0  0  0
   56.8784   33.7613   47.0016 H   0  0  0  0  0  0  0  0  0  0  0  0
   57.6651   32.3876   47.8668 H   0  0  0  0  0  0  0  0  0  0  0  0
   58.7289   34.7955   47.9977 H   0  0  0  0  0  0  0  0  0  0  0  0
   59.7817   33.3272   47.7360 H   0  0  0  0  0  0  0  0  0  0  0  0
   59.8673   35.6568   46.2364 H   0  0  0  0  0  0  0  0  0  0  0  0
   60.4779   34.0150   45.7392 H   0  0  0  0  0  0  0  0  0  0  0  0
   57.7291   35.1816   45.1019 H   0  0  0  0  0  0  0  0  0  0  0  0
   59.1118   35.0035   43.9596 H   0  0  0  0  0  0  0  0  0  0  0  0
   57.2787   33.1603   43.9258 H   0  0  0  0  0  0  0  0  0  0  0  0
   59.0118   32.6386   44.0185 H   0  0  0  0  0  0  0  0  0  0  0  0
   59.0888   30.6424   47.4613 H   0  0  0  0  0  0  0  0  0  0  0  0
   58.9213   28.1574   47.3792 H   0  0  0  0  0  0  0  0  0  0  0  0
  1  2  1  0
  2  3  2  0
  2  4  1  0
  4  5  1  0
  5  6  2  0
  6  7  1  0
  7  8  2  0
  8  9  1  0
  9 10  1  0
 10 11  1  0
 11 12  1  0
 12 13  1  0
 13 14  1  0
  8 15  1  0
 15 16  2  0
 16  5  1  0
 14  9  1  0
  1 17  1  0
  1 18  1  0
  1 19  1  0
  4 20  1  0
  6 21  1  0
  7 22  1  0
 10 23  1  0
 10 24  1  0
 11 25  1  0
 11 26  1  0
 12 27  1  0
 12 28  1  0
 13 29  1  0
 13 30  1  0
 14 31  1  0
 14 32  1  0
 15 33  1  0
 16 34  1  0
M  END
>  <UniqueID>  (42) 
38

>  <SMILES>  (42) 
CC(=O)Nc1ccc(N2CCCCC2)cc1

>  <Energy>  (42) 
39.569161263181606

>  <Genealogy>  (42) 
CC(=O)Nc1ccc(N2CCCCC2)cc1 (3D coordinates assigned)
CC(=O)Nc1ccc(N2CCCCC2)cc1 (nonaromatic ring conformer: 39.569161263181606 kcal/mol)

>  <smiles>  (42) 
CC(=O)Nc1ccc(N2CCCCC2)cc1

>  <score_type>  (42) 
oracle

>  <origin>  (42) 
adg

>  <m_score__min__energy>  (42) 
-6.5599999999999996

>  <m_primary>  (42) 
energy

$$$$
43:0
     RDKit          3D

 25 25  0  0  0  0  0  0  0  0999 V2000
   56.2840   29.7190   43.0020 C   0  0  0  0  0  0  0  0  0  0  0  0
   56.8000   29.8840   44.4270 C   0  0  0  0  0  0  0  0  0  0  0  0
   56.6720   31.2390   44.8530 O   0  0  0  0  0  0  0  0  0  0  0  0
   57.4980   32.2750   44.3960 C   0  0  0  0  0  0  0  0  0  0  0  0
   57.6240   32.4850   43.1580 O   0  0  0  0  0  0  0  0  0  0  0  0
   58.2220   33.1320   45.3620 C   0  0  0  0  0  0  0  0  0  0  0  0
   58.3530   32.7490   46.6420 C   0  0  0  0  0  0  0  0  0  0  0  0
   59.0470   33.5720   47.5940 N   0  0  0  0  0  0  0  0  0  0  0  0
   59.2100   33.1050   48.9690 C   0  0  0  0  0  0  0  0  0  0  0  0
   59.7140   34.7670   47.1660 C   0  0  0  0  0  0  0  0  0  0  0  0
   59.6140   35.1860   45.9070 C   0  0  0  0  0  0  0  0  0  0  0  0
   58.7770   34.4610   44.8870 C   0  0  0  0  0  0  0  0  0  0  0  0
   55.2366   29.3841   43.0278 H   0  0  0  0  0  0  0  0  0  0  0  0
   56.3480   30.6824   42.4750 H   0  0  0  0  0  0  0  0  0  0  0  0
   56.8951   28.9715   42.4750 H   0  0  0  0  0  0  0  0  0  0  0  0
   56.2178   29.2370   45.0996 H   0  0  0  0  0  0  0  0  0  0  0  0
   57.8630   29.6024   44.4543 H   0  0  0  0  0  0  0  0  0  0  0  0
   57.9225   31.7904   46.9671 H   0  0  0  0  0  0  0  0  0  0  0  0
   58.9293   33.9092   49.6651 H   0  0  0  0  0  0  0  0  0  0  0  0
   58.5637   32.2312   49.1385 H   0  0  0  0  0  0  0  0  0  0  0  0
   60.2597   32.8231   49.1385 H   0  0  0  0  0  0  0  0  0  0  0  0
   60.3143   35.3431   47.8856 H   0  0  0  0  0  0  0  0  0  0  0  0
   60.1602   36.0907   45.6018 H   0  0  0  0  0  0  0  0  0  0  0  0
   57.9313   35.1087   44.6129 H   0  0  0  0  0  0  0  0  0  0  0  0
   59.4399   34.2387   44.0378 H   0  0  0  0  0  0  0  0  0  0  0  0
  1  2  1  0
  2  3  1  0
  3  4  1  0
  4  5  2  0
  4  6  1  0
  6  7  2  0
  7  8  1  0
  8  9  1  0
  8 10  1  0
 10 11  2  0
 11 12  1  0
 12  6  1  0
  1 13  1  0
  1 14  1  0
  1 15  1  0
  2 16  1  0
  2 17  1  0
  7 18  1  0
  9 19  1  0
  9 20  1  0
  9 21  1  0
 10 22  1  0
 11 23  1  0
 12 24  1  0
 12 25  1  0
M  END
>  <UniqueID>  (43) 
39

>  <SMILES>  (43) 
CCOC(=O)C1=CN(C)C=CC1

>  <Energy>  (43) 
17.102292117710967

>  <Genealogy>  (43) 
CCOC(=O)C1=CN(C)C=CC1 (3D coordinates assigned)
CCOC(=O)C1=CN(C)C=CC1 (nonaromatic ring conformer: 17.102292117710967 kcal/mol)

>  <smiles>  (43) 
CCOC(=O)C1=CN(C)C=CC1

>  <score_type>  (43) 
oracle

>  <origin>  (43) 
adg

>  <m_score__min__energy>  (43) 
-4.9900000000000002

>  <m_primary>  (43) 
energy

$$$$
44:0
     RDKit          3D

 49 51  0  0  0  0  0  0  0  0999 V2000
   63.2060   33.6830   49.8490 C   0  0  0  0  0  0  0  0  0  0  0  0
   61.7900   33.8080   49.9220 O   0  0  0  0  0  0  0  0  0  0  0  0
   60.9210   33.6840   48.8250 C   0  0  0  0  0  0  0  0  0  0  0  0
   61.2440   34.2100   47.5590 C   0  0  0  0  0  0  0  0  0  0  0  0
   60.3700   34.0500   46.4820 C   0  0  0  0  0  0  0  0  0  0  0  0
   59.1640   33.3610   46.6480 C   0  0  0  0  0  0  0  0  0  0  0  0
   58.0400   33.1800   45.3040 S   0  0  0  0  0  0  0  0  0  0  0  0
   56.6500   32.9510   45.8290 O   0  0  0  0  0  0  0  0  0  0  0  0
   58.0410   34.4600   44.5150 O   0  0  0  0  0  0  0  0  0  0  0  0
   58.5330   31.8610   44.2630 N   0  0  0  0  0  0  0  0  0  0  0  0
   58.8130   30.6310   45.0260 C   0  0  0  0  0  0  0  0  0  0  0  0
   57.5210   29.9510   45.5370 C   0  0  0  0  0  0  0  0  0  0  0  0
   56.3510   30.3670   44.8540 O   0  0  0  0  0  0  0  0  0  0  0  0
   56.6000   30.4590   43.4690 C   0  0  0  0  0  0  0  0  0  0  0  0
   57.5580   31.6290   43.1740 C   0  0  0  0  0  0  0  0  0  0  0  0
   58.8320   32.8440   47.9050 C   0  0  0  0  0  0  0  0  0  0  0  0
   59.7000   33.0020   48.9970 C   0  0  0  0  0  0  0  0  0  0  0  0
   59.3220   32.4800   50.2820 N   0  0  0  0  0  0  0  0  0  0  0  0
   58.8930   33.3910   51.3520 C   0  0  0  0  0  0  0  0  0  0  0  0
   57.9790   32.6650   52.3440 C   0  0  0  0  0  0  0  0  0  0  0  0
   57.1010   31.7430   51.6030 N   0  0  0  0  0  0  0  0  0  0  0  0
   56.0280   31.2400   52.4730 C   0  0  0  0  0  0  0  0  0  0  0  0
   57.8650   30.6140   51.0200 C   0  0  0  0  0  0  0  0  0  0  0  0
   59.2600   31.0310   50.5080 C   0  0  0  0  0  0  0  0  0  0  0  0
   63.6237   33.6461   50.8659 H   0  0  0  0  0  0  0  0  0  0  0  0
   63.4653   32.7585   49.3123 H   0  0  0  0  0  0  0  0  0  0  0  0
   63.6233   34.5478   49.3123 H   0  0  0  0  0  0  0  0  0  0  0  0
   62.1915   34.7507   47.4178 H   0  0  0  0  0  0  0  0  0  0  0  0
   60.6310   34.4677   45.4984 H   0  0  0  0  0  0  0  0  0  0  0  0
   59.3506   29.9256   44.3753 H   0  0  0  0  0  0  0  0  0  0  0  0
   59.4168   30.9085   45.9026 H   0  0  0  0  0  0  0  0  0  0  0  0
   57.6280   28.8634   45.4122 H   0  0  0  0  0  0  0  0  0  0  0  0
   57.3992   30.2420   46.5908 H   0  0  0  0  0  0  0  0  0  0  0  0
   57.0549   29.5206   43.1191 H   0  0  0  0  0  0  0  0  0  0  0  0
   55.6487   30.6351   42.9456 H   0  0  0  0  0  0  0  0  0  0  0  0
   58.1105   31.4062   42.2493 H   0  0  0  0  0  0  0  0  0  0  0  0
   56.9484   32.5393   43.0760 H   0  0  0  0  0  0  0  0  0  0  0  0
   57.8808   32.3081   48.0390 H   0  0  0  0  0  0  0  0  0  0  0  0
   59.7794   33.7658   51.8847 H   0  0  0  0  0  0  0  0  0  0  0  0
   58.3366   34.2274   50.9038 H   0  0  0  0  0  0  0  0  0  0  0  0
   58.5903   32.0962   53.0601 H   0  0  0  0  0  0  0  0  0  0  0  0
   57.3690   33.3984   52.8917 H   0  0  0  0  0  0  0  0  0  0  0  0
   56.3161   31.3751   53.5260 H   0  0  0  0  0  0  0  0  0  0  0  0
   55.1013   31.7975   52.2720 H   0  0  0  0  0  0  0  0  0  0  0  0
   55.8637   30.1711   52.2720 H   0  0  0  0  0  0  0  0  0  0  0  0
   57.9916   29.8406   51.7919 H   0  0  0  0  0  0  0  0  0  0  0  0
   57.2948   30.2420   50.1560 H   0  0  0  0  0  0  0  0  0  0  0  0
   60.0169   30.7501   51.2551 H   0  0  0  0  0  0  0  0  0  0  0  0
   59.4530   30.5174   49.5546 H   0  0  0  0  0  0  0  0  0  0  0  0
  1  2  1  0
  2  3  1  0
  3  4  2  0
  4  5  1  0
  5  6  2  0
  6  7  1  0
  7  8  2  0
  7  9  2  0
  7 10  1  0
 10 11  1  0
 11 12  1  0
 12 13  1  0
 13 14  1  0
 14 15  1  0
  6 16  1  0
 16 17  2  0
 17 18  1  0
 18 19  1  0
 19 20  1  0
 20 21  1  0
 21 22  1  0
 21 23  1  0
 23 24  1  0
 17  3  1  0
 24 18  1  0
 15 10  1  0
  1 25  1  0
  1 26  1  0
  1 27  1  0
  4 28  1  0
  5 29  1  0
 11 30  1  0
 11 31  1  0
 12 32  1  0
 12 33  1  0
 14 34  1  0
 14 35  1  0
 15 36  1  0
 15 37  1  0
 16 38  1  0
 19 39  1  0
 19 40  1  0
 20 41  1  0
 20 42  1  0
 22 43  1  0
 22 44  1  0
 22 45  1  0
 23 46  1  0
 23 47  1  0
 24 48  1  0
 24 49  1  0
M  END
>  <UniqueID>  (44) 
40

>  <SMILES>  (44) 
COc1ccc(S(=O)(=O)N2CCOCC2)cc1N1CCN(C)CC1

>  <Energy>  (44) 
68.78031320214728

>  <Genealogy>  (44) 
COc1ccc(S(=O)(=O)N2CCOCC2)cc1N1CCN(C)CC1 (3D coordinates assigned)
COc1ccc(S(=O)(=O)N2CCOCC2)cc1N1CCN(C)CC1 (nonaromatic ring conformer: 68.78031320214728 kcal/mol)

>  <smiles>  (44) 
COc1ccc(S(=O)(=O)N2CCOCC2)cc1N1CCN(C)CC1

>  <score_type>  (44) 
oracle

>  <origin>  (44) 
adg

>  <m_score__min__energy>  (44) 
-7.6100000000000003

>  <m_primary>  (44) 
energy

$$$$
45:0
     RDKit          3D

 19 21  0  0  0  0  0  0  0  0999 V2000
   56.5480   26.1280   45.9640 S   0  0  0  0  0  0  0  0  0  0  0  0
   56.9870   27.6960   45.8590 C   0  0  0  0  0  0  0  0  0  0  0  0
   56.2870   28.6150   45.1410 N   0  0  0  0  0  0  0  0  0  0  0  0
   57.0270   29.7150   45.3650 C   0  0  0  0  0  0  0  0  0  0  0  0
   56.7750   30.9510   44.8710 N   0  0  0  0  0  0  0  0  0  0  0  0
   57.6270   31.9710   45.1900 C   0  0  0  0  0  0  0  0  0  0  0  0
   57.3930   33.2600   44.6980 C   0  0  0  0  0  0  0  0  0  0  0  0
   58.2660   34.3040   45.0250 C   0  0  0  0  0  0  0  0  0  0  0  0
   59.3740   34.0680   45.8460 C   0  0  0  0  0  0  0  0  0  0  0  0
   59.6220   32.7850   46.3480 C   0  0  0  0  0  0  0  0  0  0  0  0
   58.7550   31.7320   46.0270 C   0  0  0  0  0  0  0  0  0  0  0  0
   58.9680   30.4300   46.5100 C   0  0  0  0  0  0  0  0  0  0  0  0
   58.0800   29.4740   46.1480 N   0  0  0  0  0  0  0  0  0  0  0  0
   58.0830   28.2000   46.4790 N   0  0  0  0  0  0  0  0  0  0  0  0
   56.5224   33.4528   44.0539 H   0  0  0  0  0  0  0  0  0  0  0  0
   58.0800   35.3154   44.6344 H   0  0  0  0  0  0  0  0  0  0  0  0
   60.0539   34.8951   46.0984 H   0  0  0  0  0  0  0  0  0  0  0  0
   60.4948   32.6040   46.9925 H   0  0  0  0  0  0  0  0  0  0  0  0
   59.8250   30.1957   47.1586 H   0  0  0  0  0  0  0  0  0  0  0  0
  1  2  2  0
  2  3  1  0
  3  4  2  0
  4  5  1  0
  5  6  2  0
  6  7  1  0
  7  8  2  0
  8  9  1  0
  9 10  2  0
 10 11  1  0
 11 12  2  0
 12 13  1  0
 13 14  1  0
 14  2  1  0
 13  4  1  0
 11  6  1  0
  7 15  1  0
  8 16  1  0
  9 17  1  0
 10 18  1  0
 12 19  1  0
M  CHG  1  14  -1
M  END
>  <UniqueID>  (45) 
41

>  <SMILES>  (45) 
S=c1nc2nc3ccccc3cn2[n-]1

>  <Energy>  (45) 
64.05061289958587

>  <Genealogy>  (45) 
S=c1nc2nc3ccccc3cn2[n-]1 (protonated)
S=c1nc2nc3ccccc3cn2[n-]1 (3D coordinates assigned)
S=c1nc2nc3ccccc3cn2[n-]1 (optimized conformer: 64.05061289958587 kcal/mol)

>  <smiles>  (45) 
S=c1nc2nc3ccccc3cn2[nH]1

>  <score_type>  (45) 
oracle

>  <origin>  (45) 
adg

>  <m_score__min__energy>  (45) 
-7.3300000000000001

>  <m_primary>  (45) 
energy

$$$$
46:0
     RDKit          3D

 30 32  0  0  0  0  0  0  0  0999 V2000
   55.8930   27.5220   45.5980 O   0  0  0  0  0  0  0  0  0  0  0  0
   57.0260   28.0790   45.6150 C   0  0  0  0  0  0  0  0  0  0  0  0
   58.2340   27.2470   45.8270 C   0  0  0  0  0  0  0  0  0  0  0  0
   58.1450   25.8460   45.7900 C   0  0  0  0  0  0  0  0  0  0  0  0
   59.2900   25.0740   46.0020 C   0  0  0  0  0  0  0  0  0  0  0  0
   60.4810   25.6750   46.2550 N   0  0  0  0  0  0  0  0  0  0  0  0
   60.5980   27.0290   46.3110 C   0  0  0  0  0  0  0  0  0  0  0  0
   59.4780   27.8390   46.1030 C   0  0  0  0  0  0  0  0  0  0  0  0
   57.1190   29.5010   45.4110 N   0  0  0  0  0  0  0  0  0  0  0  0
   57.9110   30.3540   46.0860 C   0  0  0  0  0  0  0  0  0  0  0  0
   57.7500   31.6160   45.5440 C   0  0  0  0  0  0  0  0  0  0  0  0
   58.4240   32.8670   45.9720 C   0  0  0  0  0  0  0  0  0  0  0  0
   58.8540   33.0500   47.3020 C   0  0  0  0  0  0  0  0  0  0  0  0
   59.4860   34.2370   47.6840 C   0  0  0  0  0  0  0  0  0  0  0  0
   59.6960   35.2540   46.7500 C   0  0  0  0  0  0  0  0  0  0  0  0
   59.2730   35.0850   45.4310 C   0  0  0  0  0  0  0  0  0  0  0  0
   58.6400   33.9010   45.0410 C   0  0  0  0  0  0  0  0  0  0  0  0
   56.8670   31.5560   44.5240 N   0  0  0  0  0  0  0  0  0  0  0  0
   56.5110   30.2570   44.4680 C   0  0  0  0  0  0  0  0  0  0  0  0
   55.4130   29.6970   43.3880 S   0  0  0  0  0  0  0  0  0  0  0  0
   57.1783   25.3587   45.5950 H   0  0  0  0  0  0  0  0  0  0  0  0
   59.2265   23.9765   45.9639 H   0  0  0  0  0  0  0  0  0  0  0  0
   61.5758   27.4874   46.5204 H   0  0  0  0  0  0  0  0  0  0  0  0
   59.5700   28.9339   46.1551 H   0  0  0  0  0  0  0  0  0  0  0  0
   58.5728   30.0924   46.9248 H   0  0  0  0  0  0  0  0  0  0  0  0
   58.6913   32.2541   48.0436 H   0  0  0  0  0  0  0  0  0  0  0  0
   59.8191   34.3705   48.7238 H   0  0  0  0  0  0  0  0  0  0  0  0
   60.1940   36.1866   47.0536 H   0  0  0  0  0  0  0  0  0  0  0  0
   59.4382   35.8861   44.6955 H   0  0  0  0  0  0  0  0  0  0  0  0
   58.3084   33.7764   43.9996 H   0  0  0  0  0  0  0  0  0  0  0  0
  1  2  2  0
  2  3  1  0
  3  4  2  0
  4  5  1  0
  5  6  2  0
  6  7  1  0
  7  8  2  0
  2  9  1  0
  9 10  1  0
 10 11  2  0
 11 12  1  0
 12 13  2  0
 13 14  1  0
 14 15  2  0
 15 16  1  0
 16 17  2  0
 11 18  1  0
 18 19  1  0
 19 20  2  0
  8  3  1  0
 19  9  1  0
 17 12  1  0
  4 21  1  0
  5 22  1  0
  7 23  1  0
  8 24  1  0
 10 25  1  0
 13 26  1  0
 14 27  1  0
 15 28  1  0
 16 29  1  0
 17 30  1  0
M  CHG  1  18  -1
M  END
>  <UniqueID>  (46) 
42

>  <SMILES>  (46) 
O=C(c1ccncc1)n1cc(-c2ccccc2)[n-]c1=S

>  <Energy>  (46) 
71.75239685112878

>  <Genealogy>  (46) 
O=C(c1ccncc1)n1cc(-c2ccccc2)[n-]c1=S (protonated)
O=C(c1ccncc1)n1cc(-c2ccccc2)[n-]c1=S (3D coordinates assigned)
O=C(c1ccncc1)n1cc(-c2ccccc2)[n-]c1=S (optimized conformer: 71.75239685112878 kcal/mol)

>  <smiles>  (46) 
O=C(c1ccncc1)n1cc(-c2ccccc2)[nH]c1=S

>  <score_type>  (46) 
oracle

>  <origin>  (46) 
adg

>  <m_score__min__energy>  (46) 
-8.7599999999999998

>  <m_primary>  (46) 
energy

$$$$
47:0
     RDKit          3D

 47 50  0  0  0  0  0  0  0  0999 V2000
   56.6950   23.1000   44.9160 C   0  0  0  0  0  0  0  0  0  0  0  0
   56.9360   24.5800   44.9430 C   0  0  0  0  0  0  0  0  0  0  0  0
   57.5950   25.2080   43.8740 C   0  0  0  0  0  0  0  0  0  0  0  0
   57.7870   26.5930   43.8790 C   0  0  0  0  0  0  0  0  0  0  0  0
   57.3240   27.3710   44.9550 C   0  0  0  0  0  0  0  0  0  0  0  0
   57.4830   28.7980   44.9740 N   0  0  0  0  0  0  0  0  0  0  0  0
   56.3960   29.7330   44.8450 C   0  0  0  0  0  0  0  0  0  0  0  0
   55.2050   29.3260   44.7940 O   0  0  0  0  0  0  0  0  0  0  0  0
   56.6410   31.1440   44.8020 N   0  0  0  0  0  0  0  0  0  0  0  0
   57.6150   31.8390   45.5860 C   0  0  0  0  0  0  0  0  0  0  0  0
   58.6780   31.2620   46.2690 C   0  0  0  0  0  0  0  0  0  0  0  0
   59.3790   32.2750   46.7950 N   0  0  0  0  0  0  0  0  0  0  0  0
   60.5060   32.2700   47.5470 C   0  0  0  0  0  0  0  0  0  0  0  0
   61.0380   33.5100   47.9420 C   0  0  0  0  0  0  0  0  0  0  0  0
   62.2580   33.5730   48.7790 C   0  0  0  0  0  0  0  0  0  0  0  0
   62.1300   33.8370   50.1510 C   0  0  0  0  0  0  0  0  0  0  0  0
   63.2610   33.9210   50.9620 C   0  0  0  0  0  0  0  0  0  0  0  0
   64.5250   33.7380   50.3950 C   0  0  0  0  0  0  0  0  0  0  0  0
   65.7530   33.8130   51.2450 C   0  0  0  0  0  0  0  0  0  0  0  0
   64.6360   33.4570   49.0690 N   0  0  0  0  0  0  0  0  0  0  0  0
   63.5520   33.3600   48.2490 C   0  0  0  0  0  0  0  0  0  0  0  0
   63.7820   33.0260   46.8040 C   0  0  0  0  0  0  0  0  0  0  0  0
   60.3590   34.6870   47.5490 C   0  0  0  0  0  0  0  0  0  0  0  0
   59.2280   34.6170   46.7860 N   0  0  0  0  0  0  0  0  0  0  0  0
   58.7580   33.4000   46.4210 C   0  0  0  0  0  0  0  0  0  0  0  0
   57.6640   33.1910   45.6600 N   0  0  0  0  0  0  0  0  0  0  0  0
   56.6270   26.7460   45.9990 C   0  0  0  0  0  0  0  0  0  0  0  0
   56.4360   25.3610   45.9960 C   0  0  0  0  0  0  0  0  0  0  0  0
   56.6331   22.7197   45.9463 H   0  0  0  0  0  0  0  0  0  0  0  0
   55.7511   22.8917   44.3909 H   0  0  0  0  0  0  0  0  0  0  0  0
   57.5240   22.6030   44.3909 H   0  0  0  0  0  0  0  0  0  0  0  0
   57.9620   24.6076   43.0285 H   0  0  0  0  0  0  0  0  0  0  0  0
   58.3031   27.0767   43.0366 H   0  0  0  0  0  0  0  0  0  0  0  0
   58.4580   29.1690   45.0170 H   0  0  0  0  0  0  0  0  0  0  0  0
   58.8997   30.1884   46.3597 H   0  0  0  0  0  0  0  0  0  0  0  0
   60.9893   31.3260   47.8391 H   0  0  0  0  0  0  0  0  0  0  0  0
   61.1312   33.9786   50.5895 H   0  0  0  0  0  0  0  0  0  0  0  0
   63.1593   34.1292   52.0373 H   0  0  0  0  0  0  0  0  0  0  0  0
   65.4657   33.7955   52.3067 H   0  0  0  0  0  0  0  0  0  0  0  0
   66.4031   32.9529   51.0268 H   0  0  0  0  0  0  0  0  0  0  0  0
   66.2936   34.7458   51.0268 H   0  0  0  0  0  0  0  0  0  0  0  0
   64.4045   32.1220   46.7312 H   0  0  0  0  0  0  0  0  0  0  0  0
   62.8153   32.8462   46.3109 H   0  0  0  0  0  0  0  0  0  0  0  0
   64.2948   33.8650   46.3109 H   0  0  0  0  0  0  0  0  0  0  0  0
   60.7455   35.6685   47.8609 H   0  0  0  0  0  0  0  0  0  0  0  0
   56.2274   27.3502   46.8268 H   0  0  0  0  0  0  0  0  0  0  0  0
   55.8914   24.8815   46.8227 H   0  0  0  0  0  0  0  0  0  0  0  0
  1  2  1  0
  2  3  2  0
  3  4  1  0
  4  5  2  0
  5  6  1  0
  6  7  1  0
  7  8  2  0
  7  9  1  0
  9 10  1  0
 10 11  2  0
 11 12  1  0
 12 13  1  0
 13 14  2  0
 14 15  1  0
 15 16  2  0
 16 17  1  0
 17 18  2  0
 18 19  1  0
 18 20  1  0
 20 21  2  0
 21 22  1  0
 14 23  1  0
 23 24  2  0
 24 25  1  0
 25 26  2  0
  5 27  1  0
 27 28  2  0
 28  2  1  0
 26 10  1  0
 25 12  1  0
 21 15  1  0
  1 29  1  0
  1 30  1  0
  1 31  1  0
  3 32  1  0
  4 33  1  0
  6 34  1  0
 11 35  1  0
 13 36  1  0
 16 37  1  0
 17 38  1  0
 19 39  1  0
 19 40  1  0
 19 41  1  0
 22 42  1  0
 22 43  1  0
 22 44  1  0
 23 45  1  0
 27 46  1  0
 28 47  1  0
M  CHG  1   9  -1
M  END
>  <UniqueID>  (47) 
43

>  <SMILES>  (47) 
Cc1ccc(NC(=O)[N-]c2cn3cc(-c4ccc(C)nc4C)cnc3n2)cc1

>  <Energy>  (47) 
100.11287840103446

>  <Genealogy>  (47) 
Cc1ccc(NC(=O)[N-]c2cn3cc(-c4ccc(C)nc4C)cnc3n2)cc1 (protonated)
Cc1ccc(NC(=O)[N-]c2cn3cc(-c4ccc(C)nc4C)cnc3n2)cc1 (3D coordinates assigned)
Cc1ccc(NC(=O)[N-]c2cn3cc(-c4ccc(C)nc4C)cnc3n2)cc1 (optimized conformer: 100.11287840103446 kcal/mol)

>  <smiles>  (47) 
Cc1ccc(NC(=O)Nc2cn3cc(-c4ccc(C)nc4C)cnc3n2)cc1

>  <score_type>  (47) 
oracle

>  <origin>  (47) 
adg

>  <m_score__min__energy>  (47) 
-10.08

>  <m_primary>  (47) 
energy

$$$$
