0:0
     RDKit          3D

 83 87  0  0  0  0  0  0  0  0999 V2000
   63.7400   32.4070   47.0010 C   0  0  0  0  0  0  0  0  0  0  0  0
   63.2970   33.8520   47.2020 C   0  0  0  0  0  0  0  0  0  0  0  0
   62.9040   34.0630   48.6020 N   0  0  0  0  0  0  0  0  0  0  0  0
   63.3590   32.9640   49.4660 C   0  0  0  0  0  0  0  0  0  0  0  0
   62.1810   32.0800   49.9120 C   0  0  0  0  0  0  0  0  0  0  0  0
   60.8600   32.6920   49.6500 N   0  0  0  0  0  0  0  0  0  0  0  0
   60.2480   32.1840   48.4360 C   0  0  0  0  0  0  0  0  0  0  0  0
   59.8390   33.0770   47.3940 C   0  0  0  0  0  0  0  0  0  0  0  0
   59.9880   34.4810   47.5220 C   0  0  0  0  0  0  0  0  0  0  0  0
   59.6370   35.3420   46.4870 C   0  0  0  0  0  0  0  0  0  0  0  0
   59.1420   34.8360   45.2940 C   0  0  0  0  0  0  0  0  0  0  0  0
   58.9700   33.4640   45.1340 C   0  0  0  0  0  0  0  0  0  0  0  0
   59.2790   32.5570   46.1790 C   0  0  0  0  0  0  0  0  0  0  0  0
   59.0680   31.2000   46.0300 N   0  0  0  0  0  0  0  0  0  0  0  0
   58.3580   30.6560   44.8540 C   0  0  0  0  0  0  0  0  0  0  0  0
   59.5310   30.3520   46.9980 C   0  0  0  0  0  0  0  0  0  0  0  0
   59.5240   29.0010   46.9200 N   0  0  0  0  0  0  0  0  0  0  0  0
   60.0390   28.5710   48.0810 C   0  0  0  0  0  0  0  0  0  0  0  0
   60.2270   27.2400   48.4410 C   0  0  0  0  0  0  0  0  0  0  0  0
   60.7770   26.9610   49.6980 C   0  0  0  0  0  0  0  0  0  0  0  0
   61.1170   28.0150   50.5820 C   0  0  0  0  0  0  0  0  0  0  0  0
   61.6710   27.7890   51.8540 O   0  0  0  0  0  0  0  0  0  0  0  0
   63.0250   27.4230   52.1210 C   0  0  0  0  0  0  0  0  0  0  0  0
   63.9420   28.6700   52.0430 C   0  0  0  0  0  0  0  0  0  0  0  0
   65.3350   28.5010   52.5880 N   0  0  1  0  0  0  0  0  0  0  0  0
   65.4550   29.1720   53.9140 C   0  0  0  0  0  0  0  0  0  0  0  0
   65.6270   27.0360   52.7870 C   0  0  0  0  0  0  0  0  0  0  0  0
   66.2750   26.3760   51.5550 C   0  0  0  0  0  0  0  0  0  0  0  0
   67.6140   26.9640   51.2390 N   0  0  0  0  0  0  0  0  0  0  0  0
   67.8650   26.8320   49.7810 C   0  0  0  0  0  0  0  0  0  0  0  0
   68.6730   26.2080   51.9520 C   0  0  0  0  0  0  0  0  0  0  0  0
   67.6930   28.4070   51.6360 C   0  0  0  0  0  0  0  0  0  0  0  0
   66.3070   29.1020   51.5890 C   0  0  2  0  0  0  0  0  0  0  0  0
   66.4890   30.6360   51.6930 C   0  0  0  0  0  0  0  0  0  0  0  0
   60.9090   29.3500   50.1880 C   0  0  0  0  0  0  0  0  0  0  0  0
   60.3830   29.6210   48.9120 C   0  0  0  0  0  0  0  0  0  0  0  0
   60.0800   30.7970   48.1960 C   0  0  0  0  0  0  0  0  0  0  0  0
   63.8866   31.9288   47.9807 H   0  0  0  0  0  0  0  0  0  0  0  0
   62.9678   31.8616   46.4386 H   0  0  0  0  0  0  0  0  0  0  0  0
   64.6852   32.3881   46.4386 H   0  0  0  0  0  0  0  0  0  0  0  0
   64.1284   34.5270   46.9506 H   0  0  0  0  0  0  0  0  0  0  0  0
   62.4376   34.0622   46.5484 H   0  0  0  0  0  0  0  0  0  0  0  0
   63.3800   34.9380   48.9290 H   0  0  0  0  0  0  0  0  0  0  0  0
   64.0804   32.3466   48.9107 H   0  0  0  0  0  0  0  0  0  0  0  0
   63.8270   33.3974   50.3622 H   0  0  0  0  0  0  0  0  0  0  0  0
   62.2368   31.1241   49.3705 H   0  0  0  0  0  0  0  0  0  0  0  0
   62.2681   31.9448   51.0002 H   0  0  0  0  0  0  0  0  0  0  0  0
   60.9740   33.7280   49.5680 H   0  0  0  0  0  0  0  0  0  0  0  0
   60.2400   32.6070   50.4720 H   0  0  0  0  0  0  0  0  0  0  0  0
   60.3889   34.8977   48.4577 H   0  0  0  0  0  0  0  0  0  0  0  0
   59.7525   36.4284   46.6152 H   0  0  0  0  0  0  0  0  0  0  0  0
   58.8848   35.5207   44.4724 H   0  0  0  0  0  0  0  0  0  0  0  0
   58.5870   33.0761   44.1786 H   0  0  0  0  0  0  0  0  0  0  0  0
   57.5266   30.0190   45.1900 H   0  0  0  0  0  0  0  0  0  0  0  0
   57.9632   31.4850   44.2482 H   0  0  0  0  0  0  0  0  0  0  0  0
   59.0557   30.0591   44.2482 H   0  0  0  0  0  0  0  0  0  0  0  0
   59.2270   28.3890   46.1300 H   0  0  0  0  0  0  0  0  0  0  0  0
   59.9501   26.4264   47.7544 H   0  0  0  0  0  0  0  0  0  0  0  0
   60.9462   25.9172   50.0012 H   0  0  0  0  0  0  0  0  0  0  0  0
   63.0913   26.9857   53.1282 H   0  0  0  0  0  0  0  0  0  0  0  0
   63.3530   26.6888   51.3704 H   0  0  0  0  0  0  0  0  0  0  0  0
   64.0275   28.9590   50.9851 H   0  0  0  0  0  0  0  0  0  0  0  0
   63.4647   29.4289   52.6804 H   0  0  0  0  0  0  0  0  0  0  0  0
   65.3221   28.4291   54.7142 H   0  0  0  0  0  0  0  0  0  0  0  0
   66.4498   29.6329   54.0030 H   0  0  0  0  0  0  0  0  0  0  0  0
   64.6816   29.9491   54.0030 H   0  0  0  0  0  0  0  0  0  0  0  0
   66.3106   26.9283   53.6420 H   0  0  0  0  0  0  0  0  0  0  0  0
   64.6657   26.5308   52.9620 H   0  0  0  0  0  0  0  0  0  0  0  0
   66.3976   25.3008   51.7523 H   0  0  0  0  0  0  0  0  0  0  0  0
   65.6163   26.5514   50.6917 H   0  0  0  0  0  0  0  0  0  0  0  0
   68.8280   26.3256   49.6191 H   0  0  0  0  0  0  0  0  0  0  0  0
   67.0584   26.2414   49.3221 H   0  0  0  0  0  0  0  0  0  0  0  0
   67.8945   27.8313   49.3221 H   0  0  0  0  0  0  0  0  0  0  0  0
   68.5291   26.3107   53.0377 H   0  0  0  0  0  0  0  0  0  0  0  0
   68.6157   25.1454   51.6735 H   0  0  0  0  0  0  0  0  0  0  0  0
   69.6594   26.6074   51.6735 H   0  0  0  0  0  0  0  0  0  0  0  0
   68.0877   28.4718   52.6607 H   0  0  0  0  0  0  0  0  0  0  0  0
   68.3532   28.9194   50.9208 H   0  0  0  0  0  0  0  0  0  0  0  0
   65.8297   28.9130   50.6161 H   0  0  0  0  0  0  0  0  0  0  0  0
   66.5239   30.9301   52.7524 H   0  0  0  0  0  0  0  0  0  0  0  0
   67.4281   30.9281   51.2003 H   0  0  0  0  0  0  0  0  0  0  0  0
   65.6443   31.1397   51.2003 H   0  0  0  0  0  0  0  0  0  0  0  0
   61.1558   30.1749   50.8725 H   0  0  0  0  0  0  0  0  0  0  0  0
  1  2  1  0
  2  3  1  0
  3  4  1  0
  4  5  1  0
  5  6  1  0
  6  7  1  0
  7  8  2  0
  8  9  1  0
  9 10  2  0
 10 11  1  0
 11 12  2  0
 12 13  1  0
 13 14  2  0
 14 15  1  0
 14 16  1  0
 16 17  1  0
 17 18  1  0
 18 19  2  0
 19 20  1  0
 20 21  2  0
 21 22  1  0
 22 23  1  0
 23 24  1  0
 25 24  1  6
 25 26  1  0
 25 27  1  0
 27 28  1  0
 28 29  1  0
 29 30  1  0
 29 31  1  0
 29 32  1  0
 32 33  1  0
 33 34  1  0
 21 35  1  0
 35 36  2  0
 36 37  1  0
 37  7  1  0
 13  8  1  0
 37 16  2  0
 36 18  1  0
 33 25  1  0
  1 38  1  0
  1 39  1  0
  1 40  1  0
  2 41  1  0
  2 42  1  0
  3 43  1  0
  4 44  1  0
  4 45  1  0
  5 46  1  0
  5 47  1  0
  6 48  1  0
  6 49  1  0
  9 50  1  0
 10 51  1  0
 11 52  1  0
 12 53  1  0
 15 54  1  0
 15 55  1  0
 15 56  1  0
 17 57  1  0
 19 58  1  0
 20 59  1  0
 23 60  1  0
 23 61  1  0
 24 62  1  0
 24 63  1  0
 26 64  1  0
 26 65  1  0
 26 66  1  0
 27 67  1  0
 27 68  1  0
 28 69  1  0
 28 70  1  0
 30 71  1  0
 30 72  1  0
 30 73  1  0
 31 74  1  0
 31 75  1  0
 31 76  1  0
 32 77  1  0
 32 78  1  0
 33 79  1  6
 34 80  1  0
 34 81  1  0
 34 82  1  0
 35 83  1  0
M  CHG  4   6   1  14   1  25   1  29   1
M  END
>  <UniqueID>  (1) 
1

>  <SMILES>  (1) 
CCNCC[NH2+]c1c2ccccc2[n+](C)c2[nH]c3ccc(OCC[N@@+]4(C)CC[N+](C)(C)C[C@@H]4C)cc3c12

>  <Energy>  (1) 
175.95241346804409

>  <Genealogy>  (1) 
CCNCC[NH2+]c1c2ccccc2[n+](C)c2[nH]c3ccc(OCC[N+]4(C)CC[N+](C)(C)CC4C)cc3c12 (protonated)
CCNCC[NH2+]c1c2ccccc2[n+](C)c2[nH]c3ccc(OCC[N@@+]4(C)CC[N+](C)(C)C[C@@H]4C)cc3c12 (chirality)
CCNCC[NH2+]c1c2ccccc2[n+](C)c2[nH]c3ccc(OCC[N@@+]4(C)CC[N+](C)(C)C[C@@H]4C)cc3c12 (3D coordinates assigned)
CCNCC[NH2+]c1c2ccccc2[n+](C)c2[nH]c3ccc(OCC[N@@+]4(C)CC[N+](C)(C)C[C@@H]4C)cc3c12 (nonaromatic ring conformer: 175.95241346804409 kcal/mol)

>  <smiles>  (1) 
CCNCCNc1c2ccccc2[n+](C)c2[nH]c3ccc(OCC[N+]4(C)CC[N+](C)(C)CC4C)cc3c12

>  <score_type>  (1) 
oracle

>  <origin>  (1) 
adg

>  <m_score__min__energy>  (1) 
-3.0800000000000001

>  <m_primary>  (1) 
energy

$$$$
1:0
     RDKit          3D

 63 65  0  0  0  0  0  0  0  0999 V2000
   61.9866   34.1305   49.5064 H   0  0  0  0  0  0  0  0  0  0  0  0
   61.2650   33.4960   48.9710 C   0  0  0  0  0  0  0  0  0  0  0  0
   61.6750   32.4560   48.3310 N   0  0  0  0  0  0  0  0  0  0  0  0
   62.8260   32.4880   47.4560 C   0  0  0  0  0  0  0  0  0  0  0  0
   62.7367   31.6818   46.7130 H   0  0  0  0  0  0  0  0  0  0  0  0
   63.7336   32.3513   48.0623 H   0  0  0  0  0  0  0  0  0  0  0  0
   62.9190   33.8270   46.7320 C   0  0  0  0  0  0  0  0  0  0  0  0
   62.9755   34.6401   47.4707 H   0  0  0  0  0  0  0  0  0  0  0  0
   63.8203   33.8411   46.1015 H   0  0  0  0  0  0  0  0  0  0  0  0
   62.0283   33.9656   46.1015 H   0  0  0  0  0  0  0  0  0  0  0  0
   59.8100   33.8430   48.9880 C   0  0  0  0  0  0  0  0  0  0  0  0
   59.4574   33.8793   50.0293 H   0  0  0  0  0  0  0  0  0  0  0  0
   59.6695   34.8233   48.5091 H   0  0  0  0  0  0  0  0  0  0  0  0
   59.0420   32.8390   48.2530 N   0  0  0  0  0  0  0  0  0  0  0  0
   58.5030   32.1450   48.8170 H   0  0  0  0  0  0  0  0  0  0  0  0
   58.7970   32.8980   46.8340 C   0  0  0  0  0  0  0  0  0  0  0  0
   58.6290   34.1510   46.2250 C   0  0  0  0  0  0  0  0  0  0  0  0
   58.8285   35.0671   46.8003 H   0  0  0  0  0  0  0  0  0  0  0  0
   58.2140   34.2460   44.9050 C   0  0  0  0  0  0  0  0  0  0  0  0
   58.1468   35.2316   44.4211 H   0  0  0  0  0  0  0  0  0  0  0  0
   57.8830   33.1010   44.1920 C   0  0  0  0  0  0  0  0  0  0  0  0
   57.5208   33.1950   43.1576 H   0  0  0  0  0  0  0  0  0  0  0  0
   58.0030   31.8170   44.7710 C   0  0  0  0  0  0  0  0  0  0  0  0
   58.5860   31.7120   46.0670 C   0  0  0  0  0  0  0  0  0  0  0  0
   58.9920   30.4340   46.5180 C   0  0  0  0  0  0  0  0  0  0  0  0
   59.8910   30.3040   47.6340 N   0  0  0  0  0  0  0  0  0  0  0  0
   60.7030   30.9570   47.6850 H   0  0  0  0  0  0  0  0  0  0  0  0
   59.5060   29.5920   48.8580 C   0  0  0  0  0  0  0  0  0  0  0  0
   58.4616   29.8382   49.1001 H   0  0  0  0  0  0  0  0  0  0  0  0
   59.6255   28.5132   48.6791 H   0  0  0  0  0  0  0  0  0  0  0  0
   60.3980   29.9820   50.0470 C   0  0  0  0  0  0  0  0  0  0  0  0
   60.7823   29.0638   50.5152 H   0  0  0  0  0  0  0  0  0  0  0  0
   61.2126   30.6117   49.6597 H   0  0  0  0  0  0  0  0  0  0  0  0
   59.6430   30.7990   51.1110 C   0  0  0  0  0  0  0  0  0  0  0  0
   59.8553   30.3737   52.1030 H   0  0  0  0  0  0  0  0  0  0  0  0
   59.9848   31.8426   51.0462 H   0  0  0  0  0  0  0  0  0  0  0  0
   58.1300   30.7790   50.8770 C   0  0  0  0  0  0  0  0  0  0  0  0
   57.9168   30.2574   49.9323 H   0  0  0  0  0  0  0  0  0  0  0  0
   57.6474   30.2567   51.7162 H   0  0  0  0  0  0  0  0  0  0  0  0
   57.6020   32.1480   50.8030 N   0  0  0  0  0  0  0  0  0  0  0  0
   56.6330   32.0920   50.4120 H   0  0  0  0  0  0  0  0  0  0  0  0
   57.5150   32.7630   52.1350 C   0  0  0  0  0  0  0  0  0  0  0  0
   56.5177   33.2093   52.2620 H   0  0  0  0  0  0  0  0  0  0  0  0
   57.6854   31.9859   52.8947 H   0  0  0  0  0  0  0  0  0  0  0  0
   58.5750   33.8500   52.2990 C   0  0  0  0  0  0  0  0  0  0  0  0
   58.7518   34.0313   53.3695 H   0  0  0  0  0  0  0  0  0  0  0  0
   59.5114   33.5238   51.8228 H   0  0  0  0  0  0  0  0  0  0  0  0
   58.2254   34.7779   51.8228 H   0  0  0  0  0  0  0  0  0  0  0  0
   58.6740   29.2920   45.7610 C   0  0  0  0  0  0  0  0  0  0  0  0
   59.0290   28.0040   46.2190 C   0  0  0  0  0  0  0  0  0  0  0  0
   59.5175   27.8908   47.1981 H   0  0  0  0  0  0  0  0  0  0  0  0
   58.7680   26.8760   45.4460 C   0  0  0  0  0  0  0  0  0  0  0  0
   59.0413   25.8783   45.8201 H   0  0  0  0  0  0  0  0  0  0  0  0
   58.1630   27.0090   44.2030 C   0  0  0  0  0  0  0  0  0  0  0  0
   57.9822   26.1187   43.5828 H   0  0  0  0  0  0  0  0  0  0  0  0
   57.7840   28.2690   43.7390 C   0  0  0  0  0  0  0  0  0  0  0  0
   57.3124   28.3617   42.7496 H   0  0  0  0  0  0  0  0  0  0  0  0
   57.9970   29.4340   44.5230 C   0  0  0  0  0  0  0  0  0  0  0  0
   57.5980   30.6840   44.0910 N   0  0  0  0  0  0  0  0  0  0  0  0
   56.6970   30.8080   42.9230 C   0  0  0  0  0  0  0  0  0  0  0  0
   55.6632   30.9503   43.2709 H   0  0  0  0  0  0  0  0  0  0  0  0
   57.0016   31.6727   42.3151 H   0  0  0  0  0  0  0  0  0  0  0  0
   56.7567   29.8932   42.3151 H   0  0  0  0  0  0  0  0  0  0  0  0
  1  2  1  0
  2  3  2  0
  3  4  1  0
  4  5  1  0
  4  6  1  0
  4  7  1  0
  7  8  1  0
  7  9  1  0
  7 10  1  0
  2 11  1  0
 11 12  1  0
 11 13  1  0
 11 14  1  0
 14 15  1  0
 14 16  1  0
 16 17  2  0
 17 18  1  0
 17 19  1  0
 19 20  1  0
 19 21  2  0
 21 22  1  0
 21 23  1  0
 23 24  2  0
 24 25  1  0
 25 26  1  0
 26 27  1  0
 26 28  1  0
 28 29  1  0
 28 30  1  0
 28 31  1  0
 31 32  1  0
 31 33  1  0
 31 34  1  0
 34 35  1  0
 34 36  1  0
 34 37  1  0
 37 38  1  0
 37 39  1  0
 37 40  1  0
 40 41  1  0
 40 42  1  0
 42 43  1  0
 42 44  1  0
 42 45  1  0
 45 46  1  0
 45 47  1  0
 45 48  1  0
 25 49  2  0
 49 50  1  0
 50 51  1  0
 50 52  2  0
 52 53  1  0
 52 54  1  0
 54 55  1  0
 54 56  2  0
 56 57  1  0
 56 58  1  0
 58 59  2  0
 59 60  1  0
 60 61  1  0
 60 62  1  0
 60 63  1  0
 24 16  1  0
 58 49  1  0
 59 23  1  0
M  CHG  1  59   1
M  END
>  <UniqueID>  (2) 
2

>  <SMILES>  (2) 
CC/N=C/CNc1cccc2c1c(NCCCCNCC)c1ccccc1[n+]2C

>  <Energy>  (2) 
82.85696436940502

>  <Genealogy>  (2) 
CC/N=C/CNc1cccc2c1c(NCCCCNCC)c1ccccc1[n+]2C (cis-trans isomerization)
CC/N=C/CNc1cccc2c1c(NCCCCNCC)c1ccccc1[n+]2C (3D coordinates assigned)
CC/N=C/CNc1cccc2c1c(NCCCCNCC)c1ccccc1[n+]2C (optimized conformer: 82.85696436940502 kcal/mol)

>  <smiles>  (2) 
CCN=CCNc1cccc2c1c(NCCCCNCC)c1ccccc1[n+]2C

>  <score_type>  (2) 
oracle

>  <origin>  (2) 
adg

>  <m_score__min__energy>  (2) 
-5.4400000000000004

>  <m_primary>  (2) 
energy

$$$$
2:0
     RDKit          3D

 66 69  0  0  0  0  0  0  0  0999 V2000
   58.5690   32.4640   49.0780 C   0  0  0  0  0  0  0  0  0  0  0  0
   59.5990   33.3380   49.7740 C   0  0  0  0  0  0  0  0  0  0  0  0
   59.7910   32.8640   51.0930 O   0  0  0  0  0  0  0  0  0  0  0  0
   58.6580   33.1350   51.9590 C   0  0  0  0  0  0  0  0  0  0  0  0
   56.2120   31.2590   52.0540 C   0  0  0  0  0  0  0  0  0  0  0  0
   56.3680   29.8280   52.2460 O   0  0  0  0  0  0  0  0  0  0  0  0
   57.7170   29.3990   52.3610 C   0  0  0  0  0  0  0  0  0  0  0  0
   58.5010   29.4650   51.0280 C   0  0  0  0  0  0  0  0  0  0  0  0
   59.9340   29.8100   51.2000 N   0  0  0  0  0  0  0  0  0  0  0  0
   60.6850   29.7950   49.9220 C   0  0  0  0  0  0  0  0  0  0  0  0
   60.3230   28.5770   49.0480 C   0  0  0  0  0  0  0  0  0  0  0  0
   60.5450   28.8450   47.6230 N   0  0  0  0  0  0  0  0  0  0  0  0
   60.2010   30.0810   46.9870 C   0  0  0  0  0  0  0  0  0  0  0  0
   58.7270   30.1950   46.0080 C   0  0  0  0  0  0  0  0  0  0  0  0
   57.8550   29.1510   45.7700 C   0  0  0  0  0  0  0  0  0  0  0  0
   56.7230   29.3630   44.9670 C   0  0  0  0  0  0  0  0  0  0  0  0
   56.4000   30.6000   44.3660 C   0  0  0  0  0  0  0  0  0  0  0  0
   57.1730   31.7660   44.4960 C   0  0  0  0  0  0  0  0  0  0  0  0
   58.3340   31.7360   45.2520 C   0  0  0  0  0  0  0  0  0  0  0  0
   59.3200   33.0260   45.4980 N   0  0  0  0  0  0  0  0  0  0  0  0
   58.9430   34.2950   44.8800 C   0  0  0  0  0  0  0  0  0  0  0  0
   60.6730   32.9830   46.4080 C   0  0  0  0  0  0  0  0  0  0  0  0
   61.4820   33.9800   46.7880 N   0  0  0  0  0  0  0  0  0  0  0  0
   62.3690   33.4230   47.6740 C   0  0  0  0  0  0  0  0  0  0  0  0
   63.3470   34.1500   48.3520 C   0  0  0  0  0  0  0  0  0  0  0  0
   64.1390   33.5010   49.3110 C   0  0  0  0  0  0  0  0  0  0  0  0
   63.9360   32.1300   49.6180 C   0  0  0  0  0  0  0  0  0  0  0  0
   64.6840   31.4650   50.5990 O   0  0  0  0  0  0  0  0  0  0  0  0
   66.0830   31.6400   50.8010 C   0  0  0  0  0  0  0  0  0  0  0  0
   62.9490   31.4010   48.9340 C   0  0  0  0  0  0  0  0  0  0  0  0
   62.2050   32.0370   47.9430 C   0  0  0  0  0  0  0  0  0  0  0  0
   61.1620   31.5500   47.1850 C   0  0  0  0  0  0  0  0  0  0  0  0
   57.9583   31.9458   49.8320 H   0  0  0  0  0  0  0  0  0  0  0  0
   57.9205   33.0916   48.4491 H   0  0  0  0  0  0  0  0  0  0  0  0
   59.0827   31.7220   48.4491 H   0  0  0  0  0  0  0  0  0  0  0  0
   60.5509   33.2946   49.2245 H   0  0  0  0  0  0  0  0  0  0  0  0
   59.2446   34.3790   49.8016 H   0  0  0  0  0  0  0  0  0  0  0  0
   59.0549   33.1788   52.9840 H   0  0  0  0  0  0  0  0  0  0  0  0
   58.2364   34.0493   51.5159 H   0  0  0  0  0  0  0  0  0  0  0  0
   55.5768   31.6166   52.8778 H   0  0  0  0  0  0  0  0  0  0  0  0
   55.8220   31.3218   51.0274 H   0  0  0  0  0  0  0  0  0  0  0  0
   58.2251   30.0406   53.0960 H   0  0  0  0  0  0  0  0  0  0  0  0
   57.6959   28.3442   52.6724 H   0  0  0  0  0  0  0  0  0  0  0  0
   58.4359   28.4829   50.5369 H   0  0  0  0  0  0  0  0  0  0  0  0
   58.0461   30.2644   50.4246 H   0  0  0  0  0  0  0  0  0  0  0  0
   59.9970   30.7770   51.5950 H   0  0  0  0  0  0  0  0  0  0  0  0
   60.3900   29.1940   51.9120 H   0  0  0  0  0  0  0  0  0  0  0  0
   60.4521   30.7136   49.3634 H   0  0  0  0  0  0  0  0  0  0  0  0
   61.7569   29.7327   50.1609 H   0  0  0  0  0  0  0  0  0  0  0  0
   60.9465   27.7230   49.3512 H   0  0  0  0  0  0  0  0  0  0  0  0
   59.2549   28.3572   49.1927 H   0  0  0  0  0  0  0  0  0  0  0  0
   61.2330   28.2340   47.1280 H   0  0  0  0  0  0  0  0  0  0  0  0
   58.0461   28.1597   46.2067 H   0  0  0  0  0  0  0  0  0  0  0  0
   56.0457   28.5134   44.7952 H   0  0  0  0  0  0  0  0  0  0  0  0
   55.4852   30.6537   43.7576 H   0  0  0  0  0  0  0  0  0  0  0  0
   56.8587   32.6966   44.0009 H   0  0  0  0  0  0  0  0  0  0  0  0
   58.7235   35.0340   45.6646 H   0  0  0  0  0  0  0  0  0  0  0  0
   59.7718   34.6590   44.2550 H   0  0  0  0  0  0  0  0  0  0  0  0
   58.0499   34.1474   44.2550 H   0  0  0  0  0  0  0  0  0  0  0  0
   61.4210   34.9860   46.5180 H   0  0  0  0  0  0  0  0  0  0  0  0
   63.4955   35.2186   48.1376 H   0  0  0  0  0  0  0  0  0  0  0  0
   64.9283   34.0624   49.8323 H   0  0  0  0  0  0  0  0  0  0  0  0
   66.2972   31.6668   51.8796 H   0  0  0  0  0  0  0  0  0  0  0  0
   66.6276   30.8030   50.3397 H   0  0  0  0  0  0  0  0  0  0  0  0
   66.4047   32.5854   50.3397 H   0  0  0  0  0  0  0  0  0  0  0  0
   62.7665   30.3439   49.1773 H   0  0  0  0  0  0  0  0  0  0  0  0
  1  2  1  0
  2  3  1  0
  3  4  1  0
  4  5  1  0
  5  6  1  0
  6  7  1  0
  7  8  1  0
  8  9  1  0
  9 10  1  0
 10 11  1  0
 11 12  1  0
 12 13  1  0
 13 14  2  0
 14 15  1  0
 15 16  2  0
 16 17  1  0
 17 18  2  0
 18 19  1  0
 19 20  2  0
 20 21  1  0
 20 22  1  0
 22 23  1  0
 23 24  1  0
 24 25  2  0
 25 26  1  0
 26 27  2  0
 27 28  1  0
 28 29  1  0
 27 30  1  0
 30 31  2  0
 31 32  1  0
 32 13  1  0
 19 14  1  0
 32 22  2  0
 31 24  1  0
  1 33  1  0
  1 34  1  0
  1 35  1  0
  2 36  1  0
  2 37  1  0
  4 38  1  0
  4 39  1  0
  5 40  1  0
  5 41  1  0
  7 42  1  0
  7 43  1  0
  8 44  1  0
  8 45  1  0
  9 46  1  0
  9 47  1  0
 10 48  1  0
 10 49  1  0
 11 50  1  0
 11 51  1  0
 12 52  1  0
 15 53  1  0
 16 54  1  0
 17 55  1  0
 18 56  1  0
 21 57  1  0
 21 58  1  0
 21 59  1  0
 23 60  1  0
 25 61  1  0
 26 62  1  0
 29 63  1  0
 29 64  1  0
 29 65  1  0
 30 66  1  0
M  CHG  2   9   1  20   1
M  END
>  <UniqueID>  (3) 
3

>  <SMILES>  (3) 
CCOCCOCC[NH2+]CCNc1c2ccccc2[n+](C)c2[nH]c3ccc(OC)cc3c12

>  <Energy>  (3) 
1952.883293053632

>  <Genealogy>  (3) 
CCOCCOCC[NH2+]CCNc1c2ccccc2[n+](C)c2[nH]c3ccc(OC)cc3c12 (protonated)
CCOCCOCC[NH2+]CCNc1c2ccccc2[n+](C)c2[nH]c3ccc(OC)cc3c12 (3D coordinates assigned)
CCOCCOCC[NH2+]CCNc1c2ccccc2[n+](C)c2[nH]c3ccc(OC)cc3c12 (optimized conformer: 1952.883293053632 kcal/mol)

>  <smiles>  (3) 
CCOCCOCCNCCNc1c2ccccc2[n+](C)c2[nH]c3ccc(OC)cc3c12

>  <score_type>  (3) 
oracle

>  <origin>  (3) 
adg

>  <m_score__min__energy>  (3) 
-4.8600000000000003

>  <m_primary>  (3) 
energy

$$$$
3:0
     RDKit          3D

 47 49  0  0  0  0  0  0  0  0999 V2000
   56.6470   29.6230   43.3600 C   0  0  0  0  0  0  0  0  0  0  0  0
   56.1520   29.0920   44.7040 C   0  0  0  0  0  0  0  0  0  0  0  0
   57.2160   28.3350   45.4020 N   0  0  0  0  0  0  0  0  0  0  0  0
   56.8280   26.9180   45.6270 C   0  0  0  0  0  0  0  0  0  0  0  0
   57.8470   25.9980   44.9650 C   0  0  0  0  0  0  0  0  0  0  0  0
   58.4980   28.4440   44.6680 C   0  0  0  0  0  0  0  0  0  0  0  0
   59.6120   28.9740   45.5840 C   0  0  0  0  0  0  0  0  0  0  0  0
   59.0440   29.6620   46.7540 N   0  0  0  0  0  0  0  0  0  0  0  0
   59.3490   31.0760   46.7020 C   0  0  0  0  0  0  0  0  0  0  0  0
   60.5390   31.6390   47.2470 C   0  0  0  0  0  0  0  0  0  0  0  0
   61.5070   30.8360   47.8870 C   0  0  0  0  0  0  0  0  0  0  0  0
   62.6660   31.3990   48.4170 C   0  0  0  0  0  0  0  0  0  0  0  0
   62.8880   32.7680   48.3250 C   0  0  0  0  0  0  0  0  0  0  0  0
   64.3520   33.4620   49.0000 Cl  0  0  0  0  0  0  0  0  0  0  0  0
   61.9480   33.5930   47.7070 C   0  0  0  0  0  0  0  0  0  0  0  0
   60.7580   33.0600   47.1540 C   0  0  0  0  0  0  0  0  0  0  0  0
   59.8170   33.8800   46.5470 N   0  0  0  0  0  0  0  0  0  0  0  0
   60.0320   35.3340   46.4260 C   0  0  0  0  0  0  0  0  0  0  0  0
   58.6710   33.3030   46.0720 C   0  0  0  0  0  0  0  0  0  0  0  0
   57.5610   33.8690   45.4670 C   0  0  0  0  0  0  0  0  0  0  0  0
   56.7170   32.7990   45.2080 C   0  0  0  0  0  0  0  0  0  0  0  0
   57.2640   31.6740   45.6210 O   0  0  0  0  0  0  0  0  0  0  0  0
   58.4340   31.9610   46.1410 C   0  0  0  0  0  0  0  0  0  0  0  0
   57.3880   30.4179   43.5303 H   0  0  0  0  0  0  0  0  0  0  0  0
   57.1117   28.8043   42.7910 H   0  0  0  0  0  0  0  0  0  0  0  0
   55.7978   30.0292   42.7910 H   0  0  0  0  0  0  0  0  0  0  0  0
   55.8421   29.9395   45.3331 H   0  0  0  0  0  0  0  0  0  0  0  0
   55.3038   28.4157   44.5218 H   0  0  0  0  0  0  0  0  0  0  0  0
   56.7979   26.7138   46.7075 H   0  0  0  0  0  0  0  0  0  0  0  0
   55.8346   26.7373   45.1904 H   0  0  0  0  0  0  0  0  0  0  0  0
   58.4265   25.4748   45.7399 H   0  0  0  0  0  0  0  0  0  0  0  0
   57.3231   25.2610   44.3387 H   0  0  0  0  0  0  0  0  0  0  0  0
   58.5268   26.5942   44.3387 H   0  0  0  0  0  0  0  0  0  0  0  0
   58.7833   27.4503   44.2922 H   0  0  0  0  0  0  0  0  0  0  0  0
   58.3657   29.1477   43.8329 H   0  0  0  0  0  0  0  0  0  0  0  0
   60.2292   28.1303   45.9264 H   0  0  0  0  0  0  0  0  0  0  0  0
   60.2237   29.6907   45.0164 H   0  0  0  0  0  0  0  0  0  0  0  0
   59.4540   29.2450   47.6230 H   0  0  0  0  0  0  0  0  0  0  0  0
   58.0130   29.5090   46.8170 H   0  0  0  0  0  0  0  0  0  0  0  0
   61.3443   29.7512   47.9685 H   0  0  0  0  0  0  0  0  0  0  0  0
   63.4096   30.7564   48.9111 H   0  0  0  0  0  0  0  0  0  0  0  0
   62.1341   34.6755   47.6482 H   0  0  0  0  0  0  0  0  0  0  0  0
   60.0979   35.7797   47.4295 H   0  0  0  0  0  0  0  0  0  0  0  0
   60.9677   35.5220   45.8791 H   0  0  0  0  0  0  0  0  0  0  0  0
   59.1907   35.7848   45.8791 H   0  0  0  0  0  0  0  0  0  0  0  0
   57.3872   34.9316   45.2418 H   0  0  0  0  0  0  0  0  0  0  0  0
   55.7313   32.8786   44.7263 H   0  0  0  0  0  0  0  0  0  0  0  0
  1  2  1  0
  2  3  1  0
  3  4  1  0
  4  5  1  0
  3  6  1  0
  6  7  1  0
  7  8  1  0
  8  9  1  0
  9 10  2  0
 10 11  1  0
 11 12  2  0
 12 13  1  0
 13 14  1  0
 13 15  2  0
 15 16  1  0
 16 17  2  0
 17 18  1  0
 17 19  1  0
 19 20  1  0
 20 21  2  0
 21 22  1  0
 22 23  1  0
 23  9  1  0
 16 10  1  0
 23 19  2  0
  1 24  1  0
  1 25  1  0
  1 26  1  0
  2 27  1  0
  2 28  1  0
  4 29  1  0
  4 30  1  0
  5 31  1  0
  5 32  1  0
  5 33  1  0
  6 34  1  0
  6 35  1  0
  7 36  1  0
  7 37  1  0
  8 38  1  0
  8 39  1  0
 11 40  1  0
 12 41  1  0
 15 42  1  0
 18 43  1  0
 18 44  1  0
 18 45  1  0
 20 46  1  0
 21 47  1  0
M  CHG  2   8   1  17   1
M  END
>  <UniqueID>  (4) 
4

>  <SMILES>  (4) 
CCN(CC)CC[NH2+]c1c2ccc(Cl)cc2[n+](C)c2ccoc12

>  <Energy>  (4) 
92.82247069767081

>  <Genealogy>  (4) 
CCN(CC)CC[NH2+]c1c2ccc(Cl)cc2[n+](C)c2ccoc12 (protonated)
CCN(CC)CC[NH2+]c1c2ccc(Cl)cc2[n+](C)c2ccoc12 (3D coordinates assigned)
CCN(CC)CC[NH2+]c1c2ccc(Cl)cc2[n+](C)c2ccoc12 (optimized conformer: 92.82247069767081 kcal/mol)

>  <smiles>  (4) 
CCN(CC)CCNc1c2ccc(Cl)cc2[n+](C)c2ccoc12

>  <score_type>  (4) 
oracle

>  <origin>  (4) 
adg

>  <m_score__min__energy>  (4) 
-3.46

>  <m_primary>  (4) 
energy

$$$$
4:0
     RDKit          3D

 53 55  0  0  0  0  0  0  0  0999 V2000
   55.5210   29.7290   44.0410 C   0  0  0  0  0  0  0  0  0  0  0  0
   56.9460   29.3420   44.4400 C   0  0  0  0  0  0  0  0  0  0  0  0
   57.9510   30.2690   43.9020 N   0  0  0  0  0  0  0  0  0  0  0  0
   57.3640   31.3070   43.0440 C   0  0  0  0  0  0  0  0  0  0  0  0
   57.8650   32.6970   43.4710 C   0  0  0  0  0  0  0  0  0  0  0  0
   57.4530   33.1000   44.8990 C   0  0  0  0  0  0  0  0  0  0  0  0
   58.6020   33.1330   45.9160 C   0  0  0  0  0  0  0  0  0  0  0  0
   59.5210   32.0090   45.7280 N   0  0  0  0  0  0  0  0  0  0  0  0
   60.3290   31.4930   46.8020 C   0  0  0  0  0  0  0  0  0  0  0  0
   61.3530   32.2750   47.3680 C   0  0  0  0  0  0  0  0  0  0  0  0
   62.0160   31.8210   48.5240 C   0  0  0  0  0  0  0  0  0  0  0  0
   61.6310   30.6460   49.1330 N   0  0  0  0  0  0  0  0  0  0  0  0
   62.1040   30.3340   50.4970 C   0  0  0  0  0  0  0  0  0  0  0  0
   60.7950   29.7720   48.4660 C   0  0  0  0  0  0  0  0  0  0  0  0
   60.5850   28.4480   48.9130 C   0  0  0  0  0  0  0  0  0  0  0  0
   59.6970   27.6070   48.2490 C   0  0  0  0  0  0  0  0  0  0  0  0
   59.0180   28.0760   47.1320 C   0  0  0  0  0  0  0  0  0  0  0  0
   59.2350   29.3370   46.6770 N   0  0  0  0  0  0  0  0  0  0  0  0
   60.1130   30.1910   47.2930 C   0  0  0  0  0  0  0  0  0  0  0  0
   63.1340   32.6940   49.0660 C   0  0  0  0  0  0  0  0  0  0  0  0
   64.0310   33.1880   47.9240 C   0  0  0  0  0  0  0  0  0  0  0  0
   63.2570   33.8270   46.7520 C   0  0  0  0  0  0  0  0  0  0  0  0
   61.7320   33.6310   46.8100 C   0  0  0  0  0  0  0  0  0  0  0  0
   54.9183   29.8927   44.9465 H   0  0  0  0  0  0  0  0  0  0  0  0
   55.5453   30.6531   43.4448 H   0  0  0  0  0  0  0  0  0  0  0  0
   55.0745   28.9196   43.4448 H   0  0  0  0  0  0  0  0  0  0  0  0
   57.0176   29.3420   45.5377 H   0  0  0  0  0  0  0  0  0  0  0  0
   57.1518   28.3456   44.0219 H   0  0  0  0  0  0  0  0  0  0  0  0
   58.6630   29.7290   43.3540 H   0  0  0  0  0  0  0  0  0  0  0  0
   57.6543   31.1215   41.9993 H   0  0  0  0  0  0  0  0  0  0  0  0
   56.2688   31.2753   43.1415 H   0  0  0  0  0  0  0  0  0  0  0  0
   58.9635   32.7013   43.4137 H   0  0  0  0  0  0  0  0  0  0  0  0
   57.4023   33.4254   42.7888 H   0  0  0  0  0  0  0  0  0  0  0  0
   57.0058   34.1040   44.8555 H   0  0  0  0  0  0  0  0  0  0  0  0
   56.7526   32.3272   45.2486 H   0  0  0  0  0  0  0  0  0  0  0  0
   59.1591   34.0737   45.7947 H   0  0  0  0  0  0  0  0  0  0  0  0
   58.1703   33.0592   46.9251 H   0  0  0  0  0  0  0  0  0  0  0  0
   59.4810   31.4890   44.8220 H   0  0  0  0  0  0  0  0  0  0  0  0
   61.4219   30.7839   51.2335 H   0  0  0  0  0  0  0  0  0  0  0  0
   62.1266   29.2431   50.6367 H   0  0  0  0  0  0  0  0  0  0  0  0
   63.1157   30.7426   50.6367 H   0  0  0  0  0  0  0  0  0  0  0  0
   61.1290   28.0784   49.7947 H   0  0  0  0  0  0  0  0  0  0  0  0
   59.5343   26.5793   48.6059 H   0  0  0  0  0  0  0  0  0  0  0  0
   58.3009   27.4228   46.6132 H   0  0  0  0  0  0  0  0  0  0  0  0
   58.6990   29.6270   45.8300 H   0  0  0  0  0  0  0  0  0  0  0  0
   62.6978   33.5605   49.5845 H   0  0  0  0  0  0  0  0  0  0  0  0
   63.7419   32.1007   49.7649 H   0  0  0  0  0  0  0  0  0  0  0  0
   64.7263   33.9377   48.3294 H   0  0  0  0  0  0  0  0  0  0  0  0
   64.5492   32.3055   47.5207 H   0  0  0  0  0  0  0  0  0  0  0  0
   63.4645   34.9073   46.7520 H   0  0  0  0  0  0  0  0  0  0  0  0
   63.6020   33.3218   45.8378 H   0  0  0  0  0  0  0  0  0  0  0  0
   61.2980   34.4124   47.4512 H   0  0  0  0  0  0  0  0  0  0  0  0
   61.3427   33.6958   45.7832 H   0  0  0  0  0  0  0  0  0  0  0  0
  1  2  1  0
  2  3  1  0
  3  4  1  0
  4  5  1  0
  5  6  1  0
  6  7  1  0
  7  8  1  0
  8  9  1  0
  9 10  2  0
 10 11  1  0
 11 12  2  0
 12 13  1  0
 12 14  1  0
 14 15  2  0
 15 16  1  0
 16 17  2  0
 17 18  1  0
 18 19  2  0
 11 20  1  0
 20 21  1  0
 21 22  1  0
 22 23  1  0
 19  9  1  0
 23 10  1  0
 19 14  1  0
  1 24  1  0
  1 25  1  0
  1 26  1  0
  2 27  1  0
  2 28  1  0
  3 29  1  0
  4 30  1  0
  4 31  1  0
  5 32  1  0
  5 33  1  0
  6 34  1  0
  6 35  1  0
  7 36  1  0
  7 37  1  0
  8 38  1  0
 13 39  1  0
 13 40  1  0
 13 41  1  0
 15 42  1  0
 16 43  1  0
 17 44  1  0
 18 45  1  0
 20 46  1  0
 20 47  1  0
 21 48  1  0
 21 49  1  0
 22 50  1  0
 22 51  1  0
 23 52  1  0
 23 53  1  0
M  CHG  2  12   1  18   1
M  END
>  <UniqueID>  (5) 
5

>  <SMILES>  (5) 
CCNCCCCNc1c2c([n+](C)c3ccc[nH+]c13)CCCC2

>  <Energy>  (5) 
68.89529463625581

>  <Genealogy>  (5) 
CCNCCCCNc1c2c([n+](C)c3ccc[nH+]c13)CCCC2 (protonated)
CCNCCCCNc1c2c([n+](C)c3ccc[nH+]c13)CCCC2 (3D coordinates assigned)
CCNCCCCNc1c2c([n+](C)c3ccc[nH+]c13)CCCC2 (nonaromatic ring conformer: 68.89529463625581 kcal/mol)

>  <smiles>  (5) 
CCNCCCCNc1c2c([n+](C)c3cccnc13)CCCC2

>  <score_type>  (5) 
oracle

>  <origin>  (5) 
adg

>  <m_score__min__energy>  (5) 
-4.6600000000000001

>  <m_primary>  (5) 
energy

$$$$
5:0
     RDKit          3D

 76 79  0  0  0  0  0  0  0  0999 V2000
   59.9520   32.7430   51.2400 C   0  0  0  0  0  0  0  0  0  0  0  0
   59.7570   32.9330   49.7950 N   0  0  0  0  0  0  0  0  0  0  0  0
   59.7030   34.3620   49.4460 C   0  0  0  0  0  0  0  0  0  0  0  0
   58.6130   32.1620   49.2580 C   0  0  0  0  0  0  0  0  0  0  0  0
   58.9040   30.6590   49.0380 C   0  0  0  0  0  0  0  0  0  0  0  0
   60.4050   30.3850   48.8920 C   0  0  0  0  0  0  0  0  0  0  0  0
   60.8230   30.4840   47.4920 N   0  0  0  0  0  0  0  0  0  0  0  0
   59.8580   30.6040   46.4350 C   0  0  0  0  0  0  0  0  0  0  0  0
   59.3420   29.4430   45.8320 C   0  0  0  0  0  0  0  0  0  0  0  0
   59.8890   28.1690   46.1080 C   0  0  0  0  0  0  0  0  0  0  0  0
   59.4060   27.0310   45.4690 C   0  0  0  0  0  0  0  0  0  0  0  0
   58.3780   27.1380   44.5400 C   0  0  0  0  0  0  0  0  0  0  0  0
   57.8020   28.3790   44.2740 C   0  0  0  0  0  0  0  0  0  0  0  0
   58.2450   29.5500   44.9410 C   0  0  0  0  0  0  0  0  0  0  0  0
   57.6370   30.7710   44.7430 N   0  0  0  0  0  0  0  0  0  0  0  0
   56.2940   30.8290   44.1190 C   0  0  0  0  0  0  0  0  0  0  0  0
   58.2660   31.9330   45.1490 C   0  0  0  0  0  0  0  0  0  0  0  0
   57.8090   33.2030   44.7180 C   0  0  0  0  0  0  0  0  0  0  0  0
   58.4130   34.3750   45.1580 C   0  0  0  0  0  0  0  0  0  0  0  0
   59.5160   34.3190   45.9950 C   0  0  0  0  0  0  0  0  0  0  0  0
   60.0450   33.0910   46.3970 C   0  0  0  0  0  0  0  0  0  0  0  0
   61.2710   33.1140   47.1370 N   0  0  0  0  0  0  0  0  0  0  0  0
   62.4260   33.8500   46.6220 C   0  0  0  0  0  0  0  0  0  0  0  0
   63.7330   33.1630   47.0470 C   0  0  0  0  0  0  0  0  0  0  0  0
   63.5720   32.0010   48.0650 C   0  0  0  0  0  0  0  0  0  0  0  0
   63.7620   32.3050   49.5280 N   0  0  0  0  0  0  0  0  0  0  0  0
   63.1790   31.2090   50.3550 C   0  0  0  0  0  0  0  0  0  0  0  0
   65.2450   32.3700   49.7540 C   0  0  0  0  0  0  0  0  0  0  0  0
   65.6660   32.9030   51.1380 C   0  0  0  0  0  0  0  0  0  0  0  0
   64.9940   34.2380   51.4440 C   0  0  0  0  0  0  0  0  0  0  0  0
   63.4880   34.1140   51.2820 C   0  0  0  0  0  0  0  0  0  0  0  0
   63.1350   33.6200   49.8710 C   0  0  0  0  0  0  0  0  0  0  0  0
   59.4050   31.8740   46.0060 C   0  0  0  0  0  0  0  0  0  0  0  0
   59.2707   33.4069   51.7923 H   0  0  0  0  0  0  0  0  0  0  0  0
   59.7388   31.6967   51.5043 H   0  0  0  0  0  0  0  0  0  0  0  0
   60.9924   32.9833   51.5043 H   0  0  0  0  0  0  0  0  0  0  0  0
   59.6803   34.9637   50.3666 H   0  0  0  0  0  0  0  0  0  0  0  0
   60.5917   34.6290   48.8553 H   0  0  0  0  0  0  0  0  0  0  0  0
   58.7967   34.5612   48.8553 H   0  0  0  0  0  0  0  0  0  0  0  0
   57.7756   32.2505   49.9658 H   0  0  0  0  0  0  0  0  0  0  0  0
   58.3845   32.5861   48.2691 H   0  0  0  0  0  0  0  0  0  0  0  0
   58.5208   30.0924   49.8994 H   0  0  0  0  0  0  0  0  0  0  0  0
   58.4075   30.3474   48.1072 H   0  0  0  0  0  0  0  0  0  0  0  0
   60.9646   31.1214   49.4874 H   0  0  0  0  0  0  0  0  0  0  0  0
   60.6112   29.3648   49.2479 H   0  0  0  0  0  0  0  0  0  0  0  0
   61.8110   30.2550   47.2450 H   0  0  0  0  0  0  0  0  0  0  0  0
   60.7071   28.0760   46.8374 H   0  0  0  0  0  0  0  0  0  0  0  0
   59.8382   26.0461   45.6994 H   0  0  0  0  0  0  0  0  0  0  0  0
   58.0182   26.2416   44.0136 H   0  0  0  0  0  0  0  0  0  0  0  0
   56.9906   28.4516   43.5348 H   0  0  0  0  0  0  0  0  0  0  0  0
   55.5255   30.8622   44.9053 H   0  0  0  0  0  0  0  0  0  0  0  0
   56.2186   31.7312   43.4943 H   0  0  0  0  0  0  0  0  0  0  0  0
   56.1411   29.9366   43.4943 H   0  0  0  0  0  0  0  0  0  0  0  0
   56.9596   33.2626   44.0216 H   0  0  0  0  0  0  0  0  0  0  0  0
   58.0142   35.3499   44.8409 H   0  0  0  0  0  0  0  0  0  0  0  0
   59.9799   35.2524   46.3466 H   0  0  0  0  0  0  0  0  0  0  0  0
   61.1930   32.9880   48.1740 H   0  0  0  0  0  0  0  0  0  0  0  0
   62.3744   33.8827   45.5237 H   0  0  0  0  0  0  0  0  0  0  0  0
   62.4101   34.8706   47.0321 H   0  0  0  0  0  0  0  0  0  0  0  0
   64.2139   32.7593   46.1438 H   0  0  0  0  0  0  0  0  0  0  0  0
   64.3295   33.9336   47.5572 H   0  0  0  0  0  0  0  0  0  0  0  0
   62.5546   31.6005   47.9446 H   0  0  0  0  0  0  0  0  0  0  0  0
   64.3922   31.3097   47.8215 H   0  0  0  0  0  0  0  0  0  0  0  0
   63.3057   31.4472   51.4214 H   0  0  0  0  0  0  0  0  0  0  0  0
   62.1077   31.1076   50.1267 H   0  0  0  0  0  0  0  0  0  0  0  0
   63.6936   30.2640   50.1267 H   0  0  0  0  0  0  0  0  0  0  0  0
   65.6533   31.3550   49.6397 H   0  0  0  0  0  0  0  0  0  0  0  0
   65.6396   33.0827   49.0149 H   0  0  0  0  0  0  0  0  0  0  0  0
   65.3771   32.1715   51.9071 H   0  0  0  0  0  0  0  0  0  0  0  0
   66.7555   33.0544   51.1358 H   0  0  0  0  0  0  0  0  0  0  0  0
   65.2256   34.5333   52.4780 H   0  0  0  0  0  0  0  0  0  0  0  0
   65.3699   34.9990   50.7443 H   0  0  0  0  0  0  0  0  0  0  0  0
   63.1024   33.3980   52.0227 H   0  0  0  0  0  0  0  0  0  0  0  0
   63.0321   35.1032   51.4359 H   0  0  0  0  0  0  0  0  0  0  0  0
   62.0423   33.5140   49.8018 H   0  0  0  0  0  0  0  0  0  0  0  0
   63.5264   34.3620   49.1595 H   0  0  0  0  0  0  0  0  0  0  0  0
  1  2  1  0
  2  3  1  0
  2  4  1  0
  4  5  1  0
  5  6  1  0
  6  7  1  0
  7  8  1  0
  8  9  2  0
  9 10  1  0
 10 11  2  0
 11 12  1  0
 12 13  2  0
 13 14  1  0
 14 15  2  0
 15 16  1  0
 15 17  1  0
 17 18  2  0
 18 19  1  0
 19 20  2  0
 20 21  1  0
 21 22  1  0
 22 23  1  0
 23 24  1  0
 24 25  1  0
 25 26  1  0
 26 27  1  0
 26 28  1  0
 28 29  1  0
 29 30  1  0
 30 31  1  0
 31 32  1  0
 21 33  2  0
 33  8  1  0
 14  9  1  0
 33 17  1  0
 32 26  1  0
  1 34  1  0
  1 35  1  0
  1 36  1  0
  3 37  1  0
  3 38  1  0
  3 39  1  0
  4 40  1  0
  4 41  1  0
  5 42  1  0
  5 43  1  0
  6 44  1  0
  6 45  1  0
  7 46  1  0
 10 47  1  0
 11 48  1  0
 12 49  1  0
 13 50  1  0
 16 51  1  0
 16 52  1  0
 16 53  1  0
 18 54  1  0
 19 55  1  0
 20 56  1  0
 22 57  1  0
 23 58  1  0
 23 59  1  0
 24 60  1  0
 24 61  1  0
 25 62  1  0
 25 63  1  0
 27 64  1  0
 27 65  1  0
 27 66  1  0
 28 67  1  0
 28 68  1  0
 29 69  1  0
 29 70  1  0
 30 71  1  0
 30 72  1  0
 31 73  1  0
 31 74  1  0
 32 75  1  0
 32 76  1  0
M  CHG  2  15   1  26   1
M  END
>  <UniqueID>  (6) 
6

>  <SMILES>  (6) 
CN(C)CCCNc1c2ccccc2[n+](C)c2cccc(NCCC[N+]3(C)CCCCC3)c12

>  <Energy>  (6) 
121.46602184188582

>  <Genealogy>  (6) 
CN(C)CCCNc1c2ccccc2[n+](C)c2cccc(NCCC[N+]3(C)CCCCC3)c12 (3D coordinates assigned)
CN(C)CCCNc1c2ccccc2[n+](C)c2cccc(NCCC[N+]3(C)CCCCC3)c12 (nonaromatic ring conformer: 121.46602184188582 kcal/mol)

>  <smiles>  (6) 
CN(C)CCCNc1c2ccccc2[n+](C)c2cccc(NCCC[N+]3(C)CCCCC3)c12

>  <score_type>  (6) 
oracle

>  <origin>  (6) 
adg

>  <m_score__min__energy>  (6) 
-5

>  <m_primary>  (6) 
energy

$$$$
6:0
     RDKit          3D

 56 57  0  0  0  0  0  0  0  0999 V2000
   63.8340   33.2330   47.7590 C   0  0  0  0  0  0  0  0  0  0  0  0
   63.0590   31.9450   47.4920 C   0  0  0  0  0  0  0  0  0  0  0  0
   61.6280   32.2490   47.0210 C   0  0  0  0  0  0  0  0  0  0  0  0
   60.6060   31.2700   47.6270 C   0  0  2  0  0  0  0  0  0  0  0  0
   59.6320   30.7010   46.5580 C   0  0  0  0  0  0  0  0  0  0  0  0
   59.6430   29.2310   46.3880 N   0  0  0  0  0  0  0  0  0  0  0  0
   59.3090   28.4350   47.5840 C   0  0  0  0  0  0  0  0  0  0  0  0
   58.8320   27.0280   47.2070 C   0  0  0  0  0  0  0  0  0  0  0  0
   57.6510   27.0830   46.3150 N   0  0  0  0  0  0  0  0  0  0  0  0
   57.3250   25.7100   45.8470 C   0  0  0  0  0  0  0  0  0  0  0  0
   55.8110   25.4740   45.7410 C   0  0  0  0  0  0  0  0  0  0  0  0
   55.1170   26.6210   46.1530 O   0  0  0  0  0  0  0  0  0  0  0  0
   57.8170   28.0330   45.1670 C   0  0  0  0  0  0  0  0  0  0  0  0
   59.2080   28.6900   45.0860 C   0  0  0  0  0  0  0  0  0  0  0  0
   59.8320   31.9760   48.5860 O   0  0  0  0  0  0  0  0  0  0  0  0
   60.4600   33.1860   48.9560 C   0  0  0  0  0  0  0  0  0  0  0  0
   59.5250   34.3500   48.6350 C   0  0  0  0  0  0  0  0  0  0  0  0
   58.9750   34.2230   47.2380 C   0  0  0  0  0  0  0  0  0  0  0  0
   59.6650   34.7810   46.1490 C   0  0  0  0  0  0  0  0  0  0  0  0
   59.1630   34.6410   44.8500 C   0  0  0  0  0  0  0  0  0  0  0  0
   57.9770   33.9340   44.6290 C   0  0  0  0  0  0  0  0  0  0  0  0
   57.2930   33.3620   45.7070 C   0  0  0  0  0  0  0  0  0  0  0  0
   57.7910   33.5010   47.0070 C   0  0  0  0  0  0  0  0  0  0  0  0
   63.9266   33.3869   48.8442 H   0  0  0  0  0  0  0  0  0  0  0  0
   64.8365   33.1570   47.3126 H   0  0  0  0  0  0  0  0  0  0  0  0
   63.2973   34.0831   47.3126 H   0  0  0  0  0  0  0  0  0  0  0  0
   63.5787   31.3677   46.7132 H   0  0  0  0  0  0  0  0  0  0  0  0
   63.0044   31.3693   48.4277 H   0  0  0  0  0  0  0  0  0  0  0  0
   61.3634   33.2727   47.3242 H   0  0  0  0  0  0  0  0  0  0  0  0
   61.5981   32.1403   45.9268 H   0  0  0  0  0  0  0  0  0  0  0  0
   61.1616   30.4311   48.0714 H   0  0  0  0  0  0  0  0  0  0  0  0
   58.6114   30.9997   46.8395 H   0  0  0  0  0  0  0  0  0  0  0  0
   59.9725   31.1135   45.5968 H   0  0  0  0  0  0  0  0  0  0  0  0
   60.2034   28.3511   48.2188 H   0  0  0  0  0  0  0  0  0  0  0  0
   58.4944   28.9434   48.1206 H   0  0  0  0  0  0  0  0  0  0  0  0
   59.6469   26.4993   46.6909 H   0  0  0  0  0  0  0  0  0  0  0  0
   58.5478   26.4985   48.1283 H   0  0  0  0  0  0  0  0  0  0  0  0
   56.8520   27.4230   46.9030 H   0  0  0  0  0  0  0  0  0  0  0  0
   57.7770   25.5576   44.8558 H   0  0  0  0  0  0  0  0  0  0  0  0
   57.7254   24.9992   46.5849 H   0  0  0  0  0  0  0  0  0  0  0  0
   55.5501   25.2456   44.6971 H   0  0  0  0  0  0  0  0  0  0  0  0
   55.5308   24.6302   46.3886 H   0  0  0  0  0  0  0  0  0  0  0  0
   54.1930   26.3240   46.3670 H   0  0  0  0  0  0  0  0  0  0  0  0
   57.6425   27.4789   44.2329 H   0  0  0  0  0  0  0  0  0  0  0  0
   57.0925   28.8459   45.3226 H   0  0  0  0  0  0  0  0  0  0  0  0
   59.9373   27.9366   44.7534 H   0  0  0  0  0  0  0  0  0  0  0  0
   59.1464   29.5270   44.3749 H   0  0  0  0  0  0  0  0  0  0  0  0
   60.6772   33.1740   50.0343 H   0  0  0  0  0  0  0  0  0  0  0  0
   61.4016   33.3013   48.3992 H   0  0  0  0  0  0  0  0  0  0  0  0
   58.6911   34.3515   49.3524 H   0  0  0  0  0  0  0  0  0  0  0  0
   60.0928   35.2894   48.7070 H   0  0  0  0  0  0  0  0  0  0  0  0
   60.6032   35.3299   46.3178 H   0  0  0  0  0  0  0  0  0  0  0  0
   59.7022   35.0878   44.0017 H   0  0  0  0  0  0  0  0  0  0  0  0
   57.5820   33.8276   43.6079 H   0  0  0  0  0  0  0  0  0  0  0  0
   56.3624   32.8022   45.5323 H   0  0  0  0  0  0  0  0  0  0  0  0
   57.2543   33.0438   47.8513 H   0  0  0  0  0  0  0  0  0  0  0  0
  1  2  1  0
  2  3  1  0
  3  4  1  0
  4  5  1  0
  5  6  1  0
  6  7  1  0
  7  8  1  0
  8  9  1  0
  9 10  1  0
 10 11  1  0
 11 12  1  0
  9 13  1  0
 13 14  1  0
  4 15  1  0
 15 16  1  0
 16 17  1  0
 17 18  1  0
 18 19  2  0
 19 20  1  0
 20 21  2  0
 21 22  1  0
 22 23  2  0
 14  6  1  0
 23 18  1  0
  1 24  1  0
  1 25  1  0
  1 26  1  0
  2 27  1  0
  2 28  1  0
  3 29  1  0
  3 30  1  0
  4 31  1  1
  5 32  1  0
  5 33  1  0
  7 34  1  0
  7 35  1  0
  8 36  1  0
  8 37  1  0
  9 38  1  0
 10 39  1  0
 10 40  1  0
 11 41  1  0
 11 42  1  0
 12 43  1  0
 13 44  1  0
 13 45  1  0
 14 46  1  0
 14 47  1  0
 16 48  1  0
 16 49  1  0
 17 50  1  0
 17 51  1  0
 19 52  1  0
 20 53  1  0
 21 54  1  0
 22 55  1  0
 23 56  1  0
M  CHG  1   9   1
M  END
>  <UniqueID>  (7) 
7

>  <SMILES>  (7) 
CCC[C@H](CN1CC[NH+](CCO)CC1)OCCc1ccccc1

>  <Energy>  (7) 
66.51207167310942

>  <Genealogy>  (7) 
CCCC(CN1CC[NH+](CCO)CC1)OCCc1ccccc1 (protonated)
CCC[C@H](CN1CC[NH+](CCO)CC1)OCCc1ccccc1 (chirality)
CCC[C@H](CN1CC[NH+](CCO)CC1)OCCc1ccccc1 (3D coordinates assigned)
CCC[C@H](CN1CC[NH+](CCO)CC1)OCCc1ccccc1 (nonaromatic ring conformer: 66.51207167310942 kcal/mol)

>  <smiles>  (7) 
CCCC(CN1CCN(CCO)CC1)OCCc1ccccc1

>  <score_type>  (7) 
oracle

>  <origin>  (7) 
adg

>  <m_score__min__energy>  (7) 
-6.21

>  <m_primary>  (7) 
energy

$$$$
7:0
     RDKit          3D

 69 71  0  0  0  0  0  0  0  0999 V2000
   59.5340   32.1360   50.7410 C   0  0  0  0  0  0  0  0  0  0  0  0
   58.4650   32.0290   49.6580 C   0  0  0  0  0  0  0  0  0  0  0  0
   58.4570   30.7220   49.0820 O   0  0  0  0  0  0  0  0  0  0  0  0
   59.2070   30.3140   47.9670 C   0  0  0  0  0  0  0  0  0  0  0  0
   60.5280   30.7460   47.7340 C   0  0  0  0  0  0  0  0  0  0  0  0
   61.2210   30.3110   46.6030 C   0  0  0  0  0  0  0  0  0  0  0  0
   60.6110   29.4460   45.6920 C   0  0  0  0  0  0  0  0  0  0  0  0
   59.2960   29.0070   45.9100 C   0  0  0  0  0  0  0  0  0  0  0  0
   58.6130   28.1140   44.9070 C   0  0  0  0  0  0  0  0  0  0  0  0
   57.2070   28.6210   44.5370 C   0  0  0  0  0  0  0  0  0  0  0  0
   57.0560   28.8890   43.0880 N   0  0  0  0  0  0  0  0  0  0  0  0
   56.2950   30.1270   42.8330 C   0  0  0  0  0  0  0  0  0  0  0  0
   55.9110   30.8400   44.1390 C   0  0  0  0  0  0  0  0  0  0  0  0
   56.8770   31.9470   44.4790 C   0  0  0  0  0  0  0  0  0  0  0  0
   56.6500   32.7610   45.5990 C   0  0  0  0  0  0  0  0  0  0  0  0
   57.5250   33.8090   45.8980 C   0  0  0  0  0  0  0  0  0  0  0  0
   58.6330   34.0680   45.0810 C   0  0  0  0  0  0  0  0  0  0  0  0
   59.4710   35.1410   45.4260 O   0  0  0  0  0  0  0  0  0  0  0  0
   59.5760   35.7290   46.7230 C   0  0  0  0  0  0  0  0  0  0  0  0
   59.5530   34.6490   47.8140 C   0  0  0  0  0  0  0  0  0  0  0  0
   60.8100   33.8640   47.8540 N   0  0  0  0  0  0  0  0  0  0  0  0
   61.4810   33.6010   46.5570 C   0  0  0  0  0  0  0  0  0  0  0  0
   62.8980   34.2010   46.4440 C   0  0  0  0  0  0  0  0  0  0  0  0
   63.9670   33.4690   47.2740 C   0  0  0  0  0  0  0  0  0  0  0  0
   63.4460   32.4930   48.3490 C   0  0  0  0  0  0  0  0  0  0  0  0
   62.6330   33.1630   49.4680 C   0  0  0  0  0  0  0  0  0  0  0  0
   61.7250   34.2880   48.9330 C   0  0  0  0  0  0  0  0  0  0  0  0
   58.8560   33.2550   43.9520 C   0  0  0  0  0  0  0  0  0  0  0  0
   57.9830   32.2040   43.6550 C   0  0  0  0  0  0  0  0  0  0  0  0
   58.6010   29.4480   47.0470 C   0  0  0  0  0  0  0  0  0  0  0  0
   59.0583   32.0884   51.7317 H   0  0  0  0  0  0  0  0  0  0  0  0
   60.2467   31.3047   50.6361 H   0  0  0  0  0  0  0  0  0  0  0  0
   60.0678   33.0921   50.6361 H   0  0  0  0  0  0  0  0  0  0  0  0
   57.4797   32.2336   50.1021 H   0  0  0  0  0  0  0  0  0  0  0  0
   58.6880   32.7615   48.8682 H   0  0  0  0  0  0  0  0  0  0  0  0
   61.0149   31.4286   48.4461 H   0  0  0  0  0  0  0  0  0  0  0  0
   62.2524   30.6512   46.4285 H   0  0  0  0  0  0  0  0  0  0  0  0
   61.1622   29.1082   44.8020 H   0  0  0  0  0  0  0  0  0  0  0  0
   59.2259   28.0729   43.9945 H   0  0  0  0  0  0  0  0  0  0  0  0
   58.5034   27.1184   45.3618 H   0  0  0  0  0  0  0  0  0  0  0  0
   56.4700   27.8597   44.8322 H   0  0  0  0  0  0  0  0  0  0  0  0
   57.0474   29.5712   45.0678 H   0  0  0  0  0  0  0  0  0  0  0  0
   56.5310   28.0900   42.6630 H   0  0  0  0  0  0  0  0  0  0  0  0
   57.9900   28.9390   42.6200 H   0  0  0  0  0  0  0  0  0  0  0  0
   56.9118   30.8053   42.2251 H   0  0  0  0  0  0  0  0  0  0  0  0
   55.3682   29.8563   42.3060 H   0  0  0  0  0  0  0  0  0  0  0  0
   54.9039   31.2682   44.0278 H   0  0  0  0  0  0  0  0  0  0  0  0
   55.9392   30.1004   44.9528 H   0  0  0  0  0  0  0  0  0  0  0  0
   55.7794   32.5735   46.2447 H   0  0  0  0  0  0  0  0  0  0  0  0
   57.3419   34.4362   46.7830 H   0  0  0  0  0  0  0  0  0  0  0  0
   60.5203   36.2892   46.7898 H   0  0  0  0  0  0  0  0  0  0  0  0
   58.7199   36.4027   46.8753 H   0  0  0  0  0  0  0  0  0  0  0  0
   59.4081   35.1350   48.7901 H   0  0  0  0  0  0  0  0  0  0  0  0
   58.7301   33.9559   47.5847 H   0  0  0  0  0  0  0  0  0  0  0  0
   61.5559   32.5119   46.4221 H   0  0  0  0  0  0  0  0  0  0  0  0
   60.8700   34.0859   45.7814 H   0  0  0  0  0  0  0  0  0  0  0  0
   63.2017   34.1691   45.3872 H   0  0  0  0  0  0  0  0  0  0  0  0
   62.8379   35.2245   46.8426 H   0  0  0  0  0  0  0  0  0  0  0  0
   64.5976   32.8961   46.5782 H   0  0  0  0  0  0  0  0  0  0  0  0
   64.5006   34.2567   47.8261 H   0  0  0  0  0  0  0  0  0  0  0  0
   62.8050   31.7472   47.8561 H   0  0  0  0  0  0  0  0  0  0  0  0
   64.3310   32.0463   48.8256 H   0  0  0  0  0  0  0  0  0  0  0  0
   62.0052   32.4019   49.9544 H   0  0  0  0  0  0  0  0  0  0  0  0
   63.3423   33.6106   50.1798 H   0  0  0  0  0  0  0  0  0  0  0  0
   61.1200   34.6701   49.7685 H   0  0  0  0  0  0  0  0  0  0  0  0
   62.3884   35.0531   48.5034 H   0  0  0  0  0  0  0  0  0  0  0  0
   59.7213   33.4482   43.3009 H   0  0  0  0  0  0  0  0  0  0  0  0
   58.1643   31.5754   42.7707 H   0  0  0  0  0  0  0  0  0  0  0  0
   57.5683   29.1098   47.2179 H   0  0  0  0  0  0  0  0  0  0  0  0
  1  2  1  0
  2  3  1  0
  3  4  1  0
  4  5  2  0
  5  6  1  0
  6  7  2  0
  7  8  1  0
  8  9  1  0
  9 10  1  0
 10 11  1  0
 11 12  1  0
 12 13  1  0
 13 14  1  0
 14 15  2  0
 15 16  1  0
 16 17  2  0
 17 18  1  0
 18 19  1  0
 19 20  1  0
 20 21  1  0
 21 22  1  0
 22 23  1  0
 23 24  1  0
 24 25  1  0
 25 26  1  0
 26 27  1  0
 17 28  1  0
 28 29  2  0
  8 30  2  0
 30  4  1  0
 29 14  1  0
 27 21  1  0
  1 31  1  0
  1 32  1  0
  1 33  1  0
  2 34  1  0
  2 35  1  0
  5 36  1  0
  6 37  1  0
  7 38  1  0
  9 39  1  0
  9 40  1  0
 10 41  1  0
 10 42  1  0
 11 43  1  0
 11 44  1  0
 12 45  1  0
 12 46  1  0
 13 47  1  0
 13 48  1  0
 15 49  1  0
 16 50  1  0
 19 51  1  0
 19 52  1  0
 20 53  1  0
 20 54  1  0
 22 55  1  0
 22 56  1  0
 23 57  1  0
 23 58  1  0
 24 59  1  0
 24 60  1  0
 25 61  1  0
 25 62  1  0
 26 63  1  0
 26 64  1  0
 27 65  1  0
 27 66  1  0
 28 67  1  0
 29 68  1  0
 30 69  1  0
M  CHG  1  11   1
M  END
>  <UniqueID>  (8) 
8

>  <SMILES>  (8) 
CCOc1cccc(CC[NH2+]CCc2ccc(OCCN3CCCCCC3)cc2)c1

>  <Energy>  (8) 
74.61639115820088

>  <Genealogy>  (8) 
CCOc1cccc(CC[NH2+]CCc2ccc(OCCN3CCCCCC3)cc2)c1 (protonated)
CCOc1cccc(CC[NH2+]CCc2ccc(OCCN3CCCCCC3)cc2)c1 (3D coordinates assigned)
CCOc1cccc(CC[NH2+]CCc2ccc(OCCN3CCCCCC3)cc2)c1 (nonaromatic ring conformer: 74.61639115820088 kcal/mol)

>  <smiles>  (8) 
CCOc1cccc(CCNCCc2ccc(OCCN3CCCCCC3)cc2)c1

>  <score_type>  (8) 
oracle

>  <origin>  (8) 
adg

>  <m_score__min__energy>  (8) 
-4.2400000000000002

>  <m_primary>  (8) 
energy

$$$$
8:0
     RDKit          3D

 44 45  0  0  0  0  0  0  0  0999 V2000
   63.4700   33.7100   47.0390 C   0  0  0  0  0  0  0  0  0  0  0  0
   63.4570   32.3650   47.7590 C   0  0  0  0  0  0  0  0  0  0  0  0
   62.4050   31.4280   47.1580 C   0  0  0  0  0  0  0  0  0  0  0  0
   61.1470   31.3820   48.0290 C   0  0  0  0  0  0  0  0  0  0  0  0
   59.9560   31.5980   47.2060 N   0  0  0  0  0  0  0  0  0  0  0  0
   58.9000   30.7580   47.0330 C   0  0  0  0  0  0  0  0  0  0  0  0
   58.7830   29.1170   47.7500 S   0  0  0  0  0  0  0  0  0  0  0  0
   59.4050   28.2950   46.2420 C   0  0  0  0  0  0  0  0  0  0  0  0
   58.5830   28.7040   45.0200 C   0  0  0  0  0  0  0  0  0  0  0  0
   57.1150   28.5660   45.2800 C   0  0  0  0  0  0  0  0  0  0  0  0
   56.6610   27.4930   45.7630 O   0  0  0  0  0  0  0  0  0  0  0  0
   56.2660   29.6430   45.0090 O   0  0  0  0  0  0  0  0  0  0  0  0
   55.8980   30.0140   43.6840 C   0  0  0  0  0  0  0  0  0  0  0  0
   57.0160   30.8290   43.0550 C   0  0  0  0  0  0  0  0  0  0  0  0
   57.9170   31.2990   46.2730 N   0  0  0  0  0  0  0  0  0  0  0  0
   58.3720   32.5270   45.9720 C   0  0  0  0  0  0  0  0  0  0  0  0
   57.7410   33.5200   45.2280 C   0  0  0  0  0  0  0  0  0  0  0  0
   58.4130   34.7460   45.0740 C   0  0  0  0  0  0  0  0  0  0  0  0
   59.6820   34.9470   45.6650 C   0  0  0  0  0  0  0  0  0  0  0  0
   60.2920   33.9220   46.4140 C   0  0  0  0  0  0  0  0  0  0  0  0
   59.6020   32.7140   46.5400 C   0  0  0  0  0  0  0  0  0  0  0  0
   63.4779   34.5227   47.7803 H   0  0  0  0  0  0  0  0  0  0  0  0
   64.3689   33.7799   46.4088 H   0  0  0  0  0  0  0  0  0  0  0  0
   62.5727   33.7972   46.4088 H   0  0  0  0  0  0  0  0  0  0  0  0
   64.4487   31.8983   47.6663 H   0  0  0  0  0  0  0  0  0  0  0  0
   63.2081   32.5372   48.8165 H   0  0  0  0  0  0  0  0  0  0  0  0
   62.1343   31.7881   46.1545 H   0  0  0  0  0  0  0  0  0  0  0  0
   62.8297   30.4148   47.1033 H   0  0  0  0  0  0  0  0  0  0  0  0
   61.0783   30.3986   48.5170 H   0  0  0  0  0  0  0  0  0  0  0  0
   61.2071   32.1744   48.7896 H   0  0  0  0  0  0  0  0  0  0  0  0
   60.4549   28.5818   46.0824 H   0  0  0  0  0  0  0  0  0  0  0  0
   59.3203   27.2063   46.3745 H   0  0  0  0  0  0  0  0  0  0  0  0
   58.8060   29.7524   44.7729 H   0  0  0  0  0  0  0  0  0  0  0  0
   58.8510   28.0413   44.1840 H   0  0  0  0  0  0  0  0  0  0  0  0
   55.7235   29.1080   43.0850 H   0  0  0  0  0  0  0  0  0  0  0  0
   54.9785   30.6170   43.7150 H   0  0  0  0  0  0  0  0  0  0  0  0
   57.6326   31.2785   43.8474 H   0  0  0  0  0  0  0  0  0  0  0  0
   57.6414   30.1734   42.4312 H   0  0  0  0  0  0  0  0  0  0  0  0
   56.5832   31.6250   42.4312 H   0  0  0  0  0  0  0  0  0  0  0  0
   57.0070   30.8660   46.0000 H   0  0  0  0  0  0  0  0  0  0  0  0
   56.7521   33.3519   44.7766 H   0  0  0  0  0  0  0  0  0  0  0  0
   57.9483   35.5540   44.4899 H   0  0  0  0  0  0  0  0  0  0  0  0
   60.1965   35.9110   45.5388 H   0  0  0  0  0  0  0  0  0  0  0  0
   61.2764   34.0675   46.8829 H   0  0  0  0  0  0  0  0  0  0  0  0
  1  2  1  0
  2  3  1  0
  3  4  1  0
  4  5  1  0
  5  6  1  0
  6  7  1  0
  7  8  1  0
  8  9  1  0
  9 10  1  0
 10 11  2  0
 10 12  1  0
 12 13  1  0
 13 14  1  0
  6 15  2  0
 15 16  1  0
 16 17  2  0
 17 18  1  0
 18 19  2  0
 19 20  1  0
 20 21  2  0
 21  5  1  0
 21 16  1  0
  1 22  1  0
  1 23  1  0
  1 24  1  0
  2 25  1  0
  2 26  1  0
  3 27  1  0
  3 28  1  0
  4 29  1  0
  4 30  1  0
  8 31  1  0
  8 32  1  0
  9 33  1  0
  9 34  1  0
 13 35  1  0
 13 36  1  0
 14 37  1  0
 14 38  1  0
 14 39  1  0
 15 40  1  0
 17 41  1  0
 18 42  1  0
 19 43  1  0
 20 44  1  0
M  CHG  1  15   1
M  END
>  <UniqueID>  (9) 
9

>  <SMILES>  (9) 
CCCCn1c(SCCC(=O)OCC)[nH+]c2ccccc21

>  <Energy>  (9) 
61.72350237352501

>  <Genealogy>  (9) 
CCCCn1c(SCCC(=O)OCC)[nH+]c2ccccc21 (protonated)
CCCCn1c(SCCC(=O)OCC)[nH+]c2ccccc21 (3D coordinates assigned)
CCCCn1c(SCCC(=O)OCC)[nH+]c2ccccc21 (optimized conformer: 61.72350237352501 kcal/mol)

>  <smiles>  (9) 
CCCCn1c(SCCC(=O)OCC)nc2ccccc21

>  <score_type>  (9) 
oracle

>  <origin>  (9) 
adg

>  <m_score__min__energy>  (9) 
-5.6900000000000004

>  <m_primary>  (9) 
energy

$$$$
10:0
     RDKit          3D

 41 44  0  0  0  0  0  0  0  0999 V2000
   55.5061   24.8139   46.6322 H   0  0  0  0  0  0  0  0  0  0  0  0
   56.1170   25.5830   46.1370 C   0  0  0  0  0  0  0  0  0  0  0  0
   55.6260   26.8410   45.9770 N   0  0  0  0  0  0  0  0  0  0  0  0
   56.3480   27.8280   45.3730 C   0  0  0  0  0  0  0  0  0  0  0  0
   55.8640   29.0290   45.2390 N   0  0  0  0  0  0  0  0  0  0  0  0
   56.4600   30.0920   44.4790 C   0  0  0  0  0  0  0  0  0  0  0  0
   56.0240   30.3260   43.3210 O   0  0  0  0  0  0  0  0  0  0  0  0
   57.5180   30.9570   45.0340 C   0  0  0  0  0  0  0  0  0  0  0  0
   57.5300   32.6680   44.8890 S   0  0  0  0  0  0  0  0  0  0  0  0
   58.9500   32.7940   45.7660 C   0  0  0  0  0  0  0  0  0  0  0  0
   59.4090   31.5950   46.1570 C   0  0  0  0  0  0  0  0  0  0  0  0
   58.6320   30.5120   45.7740 C   0  0  0  0  0  0  0  0  0  0  0  0
   58.8525   29.4610   46.0125 H   0  0  0  0  0  0  0  0  0  0  0  0
   60.6060   31.8120   46.7970 C   0  0  0  0  0  0  0  0  0  0  0  0
   60.8180   33.1890   46.7090 C   0  0  0  0  0  0  0  0  0  0  0  0
   59.7710   33.8060   46.0970 N   0  0  0  0  0  0  0  0  0  0  0  0
   59.6440   35.2120   45.7270 C   0  0  0  0  0  0  0  0  0  0  0  0
   59.5884   35.8271   46.6373 H   0  0  0  0  0  0  0  0  0  0  0  0
   60.5184   35.5151   45.1324 H   0  0  0  0  0  0  0  0  0  0  0  0
   58.7294   35.3535   45.1324 H   0  0  0  0  0  0  0  0  0  0  0  0
   62.0400   33.8600   47.2660 C   0  0  0  0  0  0  0  0  0  0  0  0
   62.3769   34.6369   46.5639 H   0  0  0  0  0  0  0  0  0  0  0  0
   61.7853   34.3080   48.2378 H   0  0  0  0  0  0  0  0  0  0  0  0
   63.1770   32.8380   47.4740 C   0  0  0  0  0  0  0  0  0  0  0  0
   63.6074   32.5809   46.4949 H   0  0  0  0  0  0  0  0  0  0  0  0
   63.9310   33.2962   48.1310 H   0  0  0  0  0  0  0  0  0  0  0  0
   62.6730   31.5450   48.1530 C   0  0  0  0  0  0  0  0  0  0  0  0
   63.5259   30.8676   48.3072 H   0  0  0  0  0  0  0  0  0  0  0  0
   62.2093   31.8197   49.1119 H   0  0  0  0  0  0  0  0  0  0  0  0
   61.6140   30.8270   47.2960 C   0  0  0  0  0  0  0  0  0  0  0  0
   62.1057   30.3433   46.4391 H   0  0  0  0  0  0  0  0  0  0  0  0
   61.1052   30.0698   47.9106 H   0  0  0  0  0  0  0  0  0  0  0  0
   57.6440   27.5560   44.9230 C   0  0  0  0  0  0  0  0  0  0  0  0
   58.2444   28.3478   44.4513 H   0  0  0  0  0  0  0  0  0  0  0  0
   58.1700   26.2720   45.0770 C   0  0  0  0  0  0  0  0  0  0  0  0
   59.1904   26.0511   44.7306 H   0  0  0  0  0  0  0  0  0  0  0  0
   57.4000   25.2650   45.6720 C   0  0  0  0  0  0  0  0  0  0  0  0
   57.9660   23.8910   45.8770 C   0  0  0  0  0  0  0  0  0  0  0  0
   58.0504   23.6862   46.9545 H   0  0  0  0  0  0  0  0  0  0  0  0
   57.3009   23.1475   45.4134 H   0  0  0  0  0  0  0  0  0  0  0  0
   58.9618   23.8317   45.4134 H   0  0  0  0  0  0  0  0  0  0  0  0
  1  2  1  0
  2  3  1  0
  3  4  1  0
  4  5  2  0
  5  6  1  0
  6  7  2  0
  6  8  1  0
  8  9  1  0
  9 10  1  0
 10 11  2  0
 11 12  1  0
 12 13  1  0
 11 14  1  0
 14 15  2  0
 15 16  1  0
 16 17  1  0
 17 18  1  0
 17 19  1  0
 17 20  1  0
 15 21  1  0
 21 22  1  0
 21 23  1  0
 21 24  1  0
 24 25  1  0
 24 26  1  0
 24 27  1  0
 27 28  1  0
 27 29  1  0
 27 30  1  0
 30 31  1  0
 30 32  1  0
  4 33  1  0
 33 34  1  0
 33 35  2  0
 35 36  1  0
 35 37  1  0
 37 38  1  0
 38 39  1  0
 38 40  1  0
 38 41  1  0
 37  2  2  0
 12  8  2  0
 30 14  1  0
 16 10  1  0
M  CHG  1   3  -1
M  END
>  <UniqueID>  (10) 
10

>  <SMILES>  (10) 
Cc1cc/c(=N/C(=O)c2cc3c4c(n(C)c3s2)CCCC4)[n-]c1

>  <Energy>  (10) 
123.77319680847029

>  <Genealogy>  (10) 
Cc1ccc(=NC(=O)c2cc3c4c(n(C)c3s2)CCCC4)[n-]c1 (protonated)
Cc1cc/c(=N/C(=O)c2cc3c4c(n(C)c3s2)CCCC4)[n-]c1 (cis-trans isomerization)
Cc1cc/c(=N/C(=O)c2cc3c4c(n(C)c3s2)CCCC4)[n-]c1 (3D coordinates assigned)
Cc1cc/c(=N/C(=O)c2cc3c4c(n(C)c3s2)CCCC4)[n-]c1 (nonaromatic ring conformer: 123.77319680847029 kcal/mol)

>  <smiles>  (10) 
Cc1ccc(=NC(=O)c2cc3c4c(n(C)c3s2)CCCC4)[nH]c1

>  <score_type>  (10) 
oracle

>  <origin>  (10) 
adg

>  <m_score__min__energy>  (10) 
-10.31

>  <m_primary>  (10) 
energy

$$$$
11:0
     RDKit          3D

 41 42  0  0  0  0  0  0  0  0999 V2000
   59.1490   28.7820   45.6510 C   0  0  0  0  0  0  0  0  0  0  0  0
   58.6340   30.0910   45.1520 C   0  0  0  0  0  0  0  0  0  0  0  0
   58.4140   31.2230   45.9170 C   0  0  0  0  0  0  0  0  0  0  0  0
   58.0330   32.1870   45.0000 C   0  0  0  0  0  0  0  0  0  0  0  0
   57.7700   33.6270   45.3140 C   0  0  0  0  0  0  0  0  0  0  0  0
   57.8570   33.8280   46.7660 N   0  0  0  0  0  0  0  0  0  0  0  0
   58.8900   34.8090   47.1170 C   0  0  0  0  0  0  0  0  0  0  0  0
   60.2090   34.1090   47.3380 C   0  0  0  0  0  0  0  0  0  0  0  0
   61.2270   34.2070   46.3790 C   0  0  0  0  0  0  0  0  0  0  0  0
   62.4180   33.5020   46.5460 C   0  0  0  0  0  0  0  0  0  0  0  0
   62.5840   32.6930   47.6690 C   0  0  0  0  0  0  0  0  0  0  0  0
   61.5910   32.6010   48.5930 N   0  0  0  0  0  0  0  0  0  0  0  0
   60.4200   33.2830   48.4630 C   0  0  0  0  0  0  0  0  0  0  0  0
   59.4070   33.1360   49.4660 N   0  0  0  0  0  0  0  0  0  0  0  0
   58.5200   31.9770   49.4010 C   0  0  0  0  0  0  0  0  0  0  0  0
   59.5820   33.8160   50.7490 C   0  0  0  0  0  0  0  0  0  0  0  0
   58.0670   31.6500   43.7600 N   0  0  0  0  0  0  0  0  0  0  0  0
   57.7480   32.3240   42.5040 C   0  0  0  0  0  0  0  0  0  0  0  0
   58.4270   30.3810   43.8520 N   0  0  0  0  0  0  0  0  0  0  0  0
   59.1486   28.7831   46.7510 H   0  0  0  0  0  0  0  0  0  0  0  0
   58.5032   27.9703   45.2849 H   0  0  0  0  0  0  0  0  0  0  0  0
   60.1748   28.6279   45.2849 H   0  0  0  0  0  0  0  0  0  0  0  0
   58.5183   31.3319   47.0066 H   0  0  0  0  0  0  0  0  0  0  0  0
   58.5184   34.2561   44.8099 H   0  0  0  0  0  0  0  0  0  0  0  0
   56.7655   33.9047   44.9619 H   0  0  0  0  0  0  0  0  0  0  0  0
   56.9340   34.1920   47.0980 H   0  0  0  0  0  0  0  0  0  0  0  0
   58.9956   35.5362   46.2985 H   0  0  0  0  0  0  0  0  0  0  0  0
   58.5967   35.3291   48.0408 H   0  0  0  0  0  0  0  0  0  0  0  0
   61.0855   34.8421   45.4921 H   0  0  0  0  0  0  0  0  0  0  0  0
   63.2202   33.5834   45.7978 H   0  0  0  0  0  0  0  0  0  0  0  0
   63.5183   32.1291   47.8075 H   0  0  0  0  0  0  0  0  0  0  0  0
   58.2693   31.6495   50.4208 H   0  0  0  0  0  0  0  0  0  0  0  0
   57.5982   32.2503   48.8667 H   0  0  0  0  0  0  0  0  0  0  0  0
   59.0246   31.1586   48.8667 H   0  0  0  0  0  0  0  0  0  0  0  0
   59.3991   33.1054   51.5685 H   0  0  0  0  0  0  0  0  0  0  0  0
   60.6090   34.2032   50.8217 H   0  0  0  0  0  0  0  0  0  0  0  0
   58.8694   34.6508   50.8217 H   0  0  0  0  0  0  0  0  0  0  0  0
   57.2864   33.2992   42.7182 H   0  0  0  0  0  0  0  0  0  0  0  0
   58.6705   32.4744   41.9240 H   0  0  0  0  0  0  0  0  0  0  0  0
   57.0469   31.7059   41.9240 H   0  0  0  0  0  0  0  0  0  0  0  0
   58.5440   29.7290   43.0450 H   0  0  0  0  0  0  0  0  0  0  0  0
  1  2  1  0
  2  3  1  0
  3  4  2  0
  4  5  1  0
  5  6  1  0
  6  7  1  0
  7  8  1  0
  8  9  2  0
  9 10  1  0
 10 11  2  0
 11 12  1  0
 12 13  2  0
 13 14  1  0
 14 15  1  0
 14 16  1  0
  4 17  1  0
 17 18  1  0
 17 19  1  0
 19  2  2  0
 13  8  1  0
  1 20  1  0
  1 21  1  0
  1 22  1  0
  3 23  1  0
  5 24  1  0
  5 25  1  0
  6 26  1  0
  7 27  1  0
  7 28  1  0
  9 29  1  0
 10 30  1  0
 11 31  1  0
 15 32  1  0
 15 33  1  0
 15 34  1  0
 16 35  1  0
 16 36  1  0
 16 37  1  0
 18 38  1  0
 18 39  1  0
 18 40  1  0
 19 41  1  0
M  CHG  1  19   1
M  END
>  <UniqueID>  (11) 
11

>  <SMILES>  (11) 
Cc1cc(CNCc2cccnc2N(C)C)n(C)[nH+]1

>  <Energy>  (11) 
70.06002501604817

>  <Genealogy>  (11) 
Cc1cc(CNCc2cccnc2N(C)C)n(C)[nH+]1 (protonated)
Cc1cc(CNCc2cccnc2N(C)C)n(C)[nH+]1 (3D coordinates assigned)
Cc1cc(CNCc2cccnc2N(C)C)n(C)[nH+]1 (optimized conformer: 70.06002501604817 kcal/mol)

>  <smiles>  (11) 
Cc1cc(CNCc2cccnc2N(C)C)n(C)n1

>  <score_type>  (11) 
oracle

>  <origin>  (11) 
adg

>  <m_score__min__energy>  (11) 
-4.8200000000000003

>  <m_primary>  (11) 
energy

$$$$
12:0
     RDKit          3D

 62 64  0  0  0  0  0  0  0  0999 V2000
   58.9720   33.5500   51.7170 C   0  0  0  0  0  0  0  0  0  0  0  0
   59.9540   33.8510   50.5960 C   0  0  0  0  0  0  0  0  0  0  0  0
   59.5660   33.1370   49.4410 O   0  0  0  0  0  0  0  0  0  0  0  0
   58.7350   32.0430   49.7850 C   0  0  0  0  0  0  0  0  0  0  0  0
   59.2120   30.7400   49.1170 C   0  0  0  0  0  0  0  0  0  0  0  0
   60.3130   30.9910   48.1660 N   0  0  0  0  0  0  0  0  0  0  0  0
   59.8340   31.0110   46.7870 C   0  0  0  0  0  0  0  0  0  0  0  0
   59.5660   29.7940   46.1120 C   0  0  0  0  0  0  0  0  0  0  0  0
   60.1610   28.5800   46.5290 C   0  0  0  0  0  0  0  0  0  0  0  0
   59.8250   27.3710   45.9260 C   0  0  0  0  0  0  0  0  0  0  0  0
   58.8850   27.3430   44.9070 C   0  0  0  0  0  0  0  0  0  0  0  0
   58.3100   28.5280   44.4500 C   0  0  0  0  0  0  0  0  0  0  0  0
   58.6780   29.7850   45.0010 C   0  0  0  0  0  0  0  0  0  0  0  0
   58.1640   30.9710   44.5100 N   0  0  0  0  0  0  0  0  0  0  0  0
   57.3850   30.9720   43.2480 C   0  0  0  0  0  0  0  0  0  0  0  0
   58.4450   32.1670   45.1440 C   0  0  0  0  0  0  0  0  0  0  0  0
   57.7660   33.3640   44.8040 C   0  0  0  0  0  0  0  0  0  0  0  0
   58.1740   34.5900   45.3190 C   0  0  0  0  0  0  0  0  0  0  0  0
   59.2930   34.6630   46.1350 C   0  0  0  0  0  0  0  0  0  0  0  0
   59.9560   33.4970   46.5410 C   0  0  0  0  0  0  0  0  0  0  0  0
   61.2520   33.6130   47.1600 N   0  0  0  0  0  0  0  0  0  0  0  0
   62.4740   33.8470   46.3870 C   0  0  0  0  0  0  0  0  0  0  0  0
   63.6940   33.1640   47.0250 C   0  0  0  0  0  0  0  0  0  0  0  0
   63.3400   31.9000   47.8300 C   0  0  0  0  0  0  0  0  0  0  0  0
   62.6690   32.2220   49.1090 N   0  0  0  0  0  0  0  0  0  0  0  0
   62.8500   31.1160   50.0630 C   0  0  0  0  0  0  0  0  0  0  0  0
   63.2090   33.4640   49.6950 C   0  0  0  0  0  0  0  0  0  0  0  0
   59.4250   32.2240   46.1720 C   0  0  0  0  0  0  0  0  0  0  0  0
   59.4663   33.7015   52.6880 H   0  0  0  0  0  0  0  0  0  0  0  0
   58.1064   34.2241   51.6370 H   0  0  0  0  0  0  0  0  0  0  0  0
   58.6328   32.5066   51.6370 H   0  0  0  0  0  0  0  0  0  0  0  0
   59.9495   34.9299   50.3815 H   0  0  0  0  0  0  0  0  0  0  0  0
   60.9672   33.5472   50.8979 H   0  0  0  0  0  0  0  0  0  0  0  0
   58.7510   31.9115   50.8770 H   0  0  0  0  0  0  0  0  0  0  0  0
   57.7160   32.2591   49.4315 H   0  0  0  0  0  0  0  0  0  0  0  0
   59.5633   30.0470   49.8957 H   0  0  0  0  0  0  0  0  0  0  0  0
   58.3671   30.3081   48.5606 H   0  0  0  0  0  0  0  0  0  0  0  0
   61.0730   30.2820   48.2690 H   0  0  0  0  0  0  0  0  0  0  0  0
   60.7060   31.9080   48.4570 H   0  0  0  0  0  0  0  0  0  0  0  0
   60.9010   28.5916   47.3428 H   0  0  0  0  0  0  0  0  0  0  0  0
   60.3049   26.4385   46.2577 H   0  0  0  0  0  0  0  0  0  0  0  0
   58.5920   26.3826   44.4577 H   0  0  0  0  0  0  0  0  0  0  0  0
   57.5578   28.4892   43.6483 H   0  0  0  0  0  0  0  0  0  0  0  0
   56.3099   30.9734   43.4807 H   0  0  0  0  0  0  0  0  0  0  0  0
   57.6348   31.8698   42.6636 H   0  0  0  0  0  0  0  0  0  0  0  0
   57.6325   30.0735   42.6636 H   0  0  0  0  0  0  0  0  0  0  0  0
   56.9034   33.3227   44.1226 H   0  0  0  0  0  0  0  0  0  0  0  0
   57.6086   35.5025   45.0788 H   0  0  0  0  0  0  0  0  0  0  0  0
   59.6633   35.6444   46.4663 H   0  0  0  0  0  0  0  0  0  0  0  0
   61.2910   33.6350   48.2040 H   0  0  0  0  0  0  0  0  0  0  0  0
   62.3341   33.4489   45.3711 H   0  0  0  0  0  0  0  0  0  0  0  0
   62.6620   34.9306   46.3653 H   0  0  0  0  0  0  0  0  0  0  0  0
   64.3934   32.8821   46.2242 H   0  0  0  0  0  0  0  0  0  0  0  0
   64.1351   33.8835   47.7305 H   0  0  0  0  0  0  0  0  0  0  0  0
   62.6688   31.2717   47.2261 H   0  0  0  0  0  0  0  0  0  0  0  0
   64.2777   31.3744   48.0634 H   0  0  0  0  0  0  0  0  0  0  0  0
   62.7865   31.5039   51.0904 H   0  0  0  0  0  0  0  0  0  0  0  0
   62.0630   30.3637   49.9058 H   0  0  0  0  0  0  0  0  0  0  0  0
   63.8357   30.6538   49.9058 H   0  0  0  0  0  0  0  0  0  0  0  0
   63.1790   33.3949   50.7924 H   0  0  0  0  0  0  0  0  0  0  0  0
   64.2489   33.6033   49.3647 H   0  0  0  0  0  0  0  0  0  0  0  0
   62.6016   34.3196   49.3647 H   0  0  0  0  0  0  0  0  0  0  0  0
  1  2  1  0
  2  3  1  0
  3  4  1  0
  4  5  1  0
  5  6  1  0
  6  7  1  0
  7  8  2  0
  8  9  1  0
  9 10  2  0
 10 11  1  0
 11 12  2  0
 12 13  1  0
 13 14  2  0
 14 15  1  0
 14 16  1  0
 16 17  2  0
 17 18  1  0
 18 19  2  0
 19 20  1  0
 20 21  1  0
 21 22  1  0
 22 23  1  0
 23 24  1  0
 24 25  1  0
 25 26  1  0
 25 27  1  0
 20 28  2  0
 28  7  1  0
 13  8  1  0
 28 16  1  0
  1 29  1  0
  1 30  1  0
  1 31  1  0
  2 32  1  0
  2 33  1  0
  4 34  1  0
  4 35  1  0
  5 36  1  0
  5 37  1  0
  6 38  1  0
  6 39  1  0
  9 40  1  0
 10 41  1  0
 11 42  1  0
 12 43  1  0
 15 44  1  0
 15 45  1  0
 15 46  1  0
 17 47  1  0
 18 48  1  0
 19 49  1  0
 21 50  1  0
 22 51  1  0
 22 52  1  0
 23 53  1  0
 23 54  1  0
 24 55  1  0
 24 56  1  0
 26 57  1  0
 26 58  1  0
 26 59  1  0
 27 60  1  0
 27 61  1  0
 27 62  1  0
M  CHG  2   6   1  14   1
M  END
>  <UniqueID>  (12) 
12

>  <SMILES>  (12) 
CCOCC[NH2+]c1c2ccccc2[n+](C)c2cccc(NCCCN(C)C)c12

>  <Energy>  (12) 
100.39958318681617

>  <Genealogy>  (12) 
CCOCC[NH2+]c1c2ccccc2[n+](C)c2cccc(NCCCN(C)C)c12 (protonated)
CCOCC[NH2+]c1c2ccccc2[n+](C)c2cccc(NCCCN(C)C)c12 (3D coordinates assigned)
CCOCC[NH2+]c1c2ccccc2[n+](C)c2cccc(NCCCN(C)C)c12 (optimized conformer: 100.39958318681617 kcal/mol)

>  <smiles>  (12) 
CCOCCNc1c2ccccc2[n+](C)c2cccc(NCCCN(C)C)c12

>  <score_type>  (12) 
oracle

>  <origin>  (12) 
adg

>  <m_score__min__energy>  (12) 
-3.4900000000000002

>  <m_primary>  (12) 
energy

$$$$
13:0
     RDKit          3D

 17 17  0  0  0  0  0  0  0  0999 V2000
   55.5380   29.7170   45.9990 H   0  0  0  0  0  0  0  0  0  0  0  0
   55.6090   29.7180   44.9570 N   0  0  0  0  0  0  0  0  0  0  0  0
   56.7250   29.9760   44.3480 C   0  0  0  0  0  0  0  0  0  0  0  0
   57.4810   31.2060   44.6950 C   0  0  0  0  0  0  0  0  0  0  0  0
   58.0810   31.3380   45.9620 C   0  0  0  0  0  0  0  0  0  0  0  0
   57.9858   30.5261   46.6981 H   0  0  0  0  0  0  0  0  0  0  0  0
   58.7970   32.4930   46.2920 C   0  0  0  0  0  0  0  0  0  0  0  0
   59.2555   32.5891   47.2872 H   0  0  0  0  0  0  0  0  0  0  0  0
   58.9310   33.5250   45.3600 C   0  0  0  0  0  0  0  0  0  0  0  0
   59.6270   34.6420   45.6820 F   0  0  0  0  0  0  0  0  0  0  0  0
   58.3520   33.4010   44.0960 C   0  0  0  0  0  0  0  0  0  0  0  0
   58.4625   34.2117   43.3607 H   0  0  0  0  0  0  0  0  0  0  0  0
   57.6320   32.2500   43.7610 C   0  0  0  0  0  0  0  0  0  0  0  0
   57.1807   32.1591   42.7620 H   0  0  0  0  0  0  0  0  0  0  0  0
   57.2000   29.0790   43.3370 N   0  0  0  0  0  0  0  0  0  0  0  0
   58.0030   29.3290   42.7190 H   0  0  0  0  0  0  0  0  0  0  0  0
   56.6980   28.1840   43.1430 H   0  0  0  0  0  0  0  0  0  0  0  0
  1  2  1  0
  2  3  2  0
  3  4  1  0
  4  5  2  0
  5  6  1  0
  5  7  1  0
  7  8  1  0
  7  9  2  0
  9 10  1  0
  9 11  1  0
 11 12  1  0
 11 13  2  0
 13 14  1  0
  3 15  1  0
 15 16  1  0
 15 17  1  0
 13  4  1  0
M  END
>  <UniqueID>  (13) 
13

>  <SMILES>  (13) 
[H]/N=C(\N)c1ccc(F)cc1

>  <Energy>  (13) 
17.023222787635376

>  <Genealogy>  (13) 
[H]/N=C(\N)c1ccc(F)cc1 (cis-trans isomerization)
[H]/N=C(\N)c1ccc(F)cc1 (3D coordinates assigned)
[H]/N=C(\N)c1ccc(F)cc1 (optimized conformer: 17.023222787635376 kcal/mol)

>  <smiles>  (13) 
N=C(N)c1ccc(F)cc1

>  <score_type>  (13) 
oracle

>  <origin>  (13) 
adg

>  <m_score__min__energy>  (13) 
-5.3399999999999999

>  <m_primary>  (13) 
energy

$$$$
14:0
     RDKit          3D

 82 86  0  0  0  0  0  0  0  0999 V2000
   59.1260   33.4700   51.8770 C   0  0  0  0  0  0  0  0  0  0  0  0
   60.2380   33.3080   51.0170 O   0  0  0  0  0  0  0  0  0  0  0  0
   60.7440   31.9800   51.0870 C   0  0  1  0  0  0  0  0  0  0  0  0
   59.9930   31.0780   50.1630 C   0  0  0  0  0  0  0  0  0  0  0  0
   60.1160   31.4220   48.6680 C   0  0  1  0  0  0  0  0  0  0  0  0
   58.7640   31.9770   48.1260 C   0  0  0  0  0  0  0  0  0  0  0  0
   58.7870   32.2370   46.5960 C   0  0  2  0  0  0  0  0  0  0  0  0
   57.4360   32.8680   46.1340 C   0  0  0  0  0  0  0  0  0  0  0  0
   57.3930   32.9290   44.5940 C   0  0  0  0  0  0  0  0  0  0  0  0
   57.4390   31.5030   43.9790 C   0  0  0  0  0  0  0  0  0  0  0  0
   56.0500   30.8410   44.1380 C   0  0  0  0  0  0  0  0  0  0  0  0
   57.7710   31.6070   42.4660 C   0  0  0  0  0  0  0  0  0  0  0  0
   58.4920   30.6450   44.6800 C   0  0  0  0  0  0  0  0  0  0  0  0
   58.9180   29.6020   44.1310 O   0  0  0  0  0  0  0  0  0  0  0  0
   58.9520   30.9550   45.9500 O   0  0  0  0  0  0  0  0  0  0  0  0
   59.9710   33.1960   46.2250 C   0  0  0  0  0  0  0  0  0  0  0  0
   60.9540   33.4550   47.3650 C   0  0  0  0  0  0  0  0  0  0  0  0
   61.4210   32.1830   48.1700 C   0  0  2  0  0  0  0  0  0  0  0  0
   62.0500   31.2040   47.1090 C   0  0  0  0  0  0  0  0  0  0  0  0
   62.5490   32.6140   49.3370 C   0  0  1  0  0  0  0  0  0  0  0  0
   63.9720   32.2450   48.8210 C   0  0  0  0  0  0  0  0  0  0  0  0
   62.6220   34.1600   49.5770 C   0  0  0  0  0  0  0  0  0  0  0  0
   63.5560   34.5980   50.6900 C   0  0  0  0  0  0  0  0  0  0  0  0
   63.2490   33.9870   52.0870 C   0  0  2  0  0  0  0  0  0  0  0  0
   64.2090   34.5430   53.2400 C   0  0  0  0  0  0  0  0  0  0  0  0
   63.5430   34.4580   54.6620 C   0  0  0  0  0  0  0  0  0  0  0  0
   64.5860   36.0430   53.0420 C   0  0  0  0  0  0  0  0  0  0  0  0
   65.4830   33.7180   53.2770 C   0  0  0  0  0  0  0  0  0  0  0  0
   66.3410   33.9970   54.1130 O   0  0  0  0  0  0  0  0  0  0  0  0
   65.8290   32.6670   52.2430 C   0  0  0  0  0  0  0  0  0  0  0  0
   64.6430   31.7550   51.8980 C   0  0  0  0  0  0  0  0  0  0  0  0
   63.2010   32.3990   51.9830 C   0  0  1  0  0  0  0  0  0  0  0  0
   62.6280   31.8010   53.3100 C   0  0  0  0  0  0  0  0  0  0  0  0
   62.2780   31.9200   50.7480 C   0  0  1  0  0  0  0  0  0  0  0  0
   59.4616   33.4211   52.9234 H   0  0  0  0  0  0  0  0  0  0  0  0
   58.6555   34.4462   51.6880 H   0  0  0  0  0  0  0  0  0  0  0  0
   58.3965   32.6686   51.6880 H   0  0  0  0  0  0  0  0  0  0  0  0
   60.6063   31.6382   52.1234 H   0  0  0  0  0  0  0  0  0  0  0  0
   60.3672   30.0539   50.3085 H   0  0  0  0  0  0  0  0  0  0  0  0
   58.9295   31.1975   50.4172 H   0  0  0  0  0  0  0  0  0  0  0  0
   60.3162   30.4578   48.1778 H   0  0  0  0  0  0  0  0  0  0  0  0
   57.9715   31.2466   48.3459 H   0  0  0  0  0  0  0  0  0  0  0  0
   58.5810   32.9417   48.6218 H   0  0  0  0  0  0  0  0  0  0  0  0
   56.6007   32.2526   46.4994 H   0  0  0  0  0  0  0  0  0  0  0  0
   57.3499   33.8858   46.5423 H   0  0  0  0  0  0  0  0  0  0  0  0
   56.4638   33.4266   44.2795 H   0  0  0  0  0  0  0  0  0  0  0  0
   58.2699   33.4915   44.2409 H   0  0  0  0  0  0  0  0  0  0  0  0
   55.8170   30.7299   45.2073 H   0  0  0  0  0  0  0  0  0  0  0  0
   55.2862   31.4719   43.6599 H   0  0  0  0  0  0  0  0  0  0  0  0
   56.0591   29.8504   43.6599 H   0  0  0  0  0  0  0  0  0  0  0  0
   58.8139   31.9337   42.3411 H   0  0  0  0  0  0  0  0  0  0  0  0
   57.6356   30.6234   41.9925 H   0  0  0  0  0  0  0  0  0  0  0  0
   57.0987   32.3376   41.9925 H   0  0  0  0  0  0  0  0  0  0  0  0
   60.5260   32.7492   45.3870 H   0  0  0  0  0  0  0  0  0  0  0  0
   59.5209   34.1672   45.9718 H   0  0  0  0  0  0  0  0  0  0  0  0
   61.8487   33.9312   46.9376 H   0  0  0  0  0  0  0  0  0  0  0  0
   60.4143   34.0846   48.0878 H   0  0  0  0  0  0  0  0  0  0  0  0
   62.5742   30.3882   47.6283 H   0  0  0  0  0  0  0  0  0  0  0  0
   61.2520   30.7845   46.4788 H   0  0  0  0  0  0  0  0  0  0  0  0
   62.7632   31.7555   46.4788 H   0  0  0  0  0  0  0  0  0  0  0  0
   64.6394   32.0719   49.6781 H   0  0  0  0  0  0  0  0  0  0  0  0
   63.9152   31.3319   48.2103 H   0  0  0  0  0  0  0  0  0  0  0  0
   64.3661   33.0707   48.2103 H   0  0  0  0  0  0  0  0  0  0  0  0
   62.9596   34.6337   48.6434 H   0  0  0  0  0  0  0  0  0  0  0  0
   61.6126   34.4687   49.8865 H   0  0  0  0  0  0  0  0  0  0  0  0
   64.5797   34.3095   50.4093 H   0  0  0  0  0  0  0  0  0  0  0  0
   63.4204   35.6846   50.7941 H   0  0  0  0  0  0  0  0  0  0  0  0
   62.2500   34.3217   52.4033 H   0  0  0  0  0  0  0  0  0  0  0  0
   64.3180   34.5569   55.4364 H   0  0  0  0  0  0  0  0  0  0  0  0
   62.8089   35.2697   54.7722 H   0  0  0  0  0  0  0  0  0  0  0  0
   63.0363   33.4879   54.7722 H   0  0  0  0  0  0  0  0  0  0  0  0
   64.7068   36.5234   54.0241 H   0  0  0  0  0  0  0  0  0  0  0  0
   65.5297   36.1129   52.4811 H   0  0  0  0  0  0  0  0  0  0  0  0
   63.7875   36.5508   52.4811 H   0  0  0  0  0  0  0  0  0  0  0  0
   66.1607   33.1738   51.3248 H   0  0  0  0  0  0  0  0  0  0  0  0
   66.6202   32.0326   52.6691 H   0  0  0  0  0  0  0  0  0  0  0  0
   64.7873   31.3964   50.8681 H   0  0  0  0  0  0  0  0  0  0  0  0
   64.6525   30.9671   52.6656 H   0  0  0  0  0  0  0  0  0  0  0  0
   63.1024   32.2961   54.1702 H   0  0  0  0  0  0  0  0  0  0  0  0
   61.5408   31.9646   53.3465 H   0  0  0  0  0  0  0  0  0  0  0  0
   62.8378   30.7218   53.3465 H   0  0  0  0  0  0  0  0  0  0  0  0
   62.5959   30.8751   50.6173 H   0  0  0  0  0  0  0  0  0  0  0  0
  1  2  1  0
  2  3  1  0
  3  4  1  0
  4  5  1  0
  5  6  1  0
  6  7  1  0
  7  8  1  0
  8  9  1  0
  9 10  1  0
 10 11  1  0
 10 12  1  0
 10 13  1  0
 13 14  2  0
 13 15  1  0
  7 16  1  0
 16 17  1  0
 17 18  1  0
 18 19  1  6
 18 20  1  0
 20 21  1  6
 20 22  1  0
 22 23  1  0
 23 24  1  0
 24 25  1  0
 25 26  1  0
 25 27  1  0
 25 28  1  0
 28 29  2  0
 28 30  1  0
 30 31  1  0
 31 32  1  0
 32 33  1  1
 32 34  1  0
 34  3  1  0
 18  5  1  0
 34 20  1  0
  7 15  1  6
 32 24  1  0
  1 35  1  0
  1 36  1  0
  1 37  1  0
  3 38  1  1
  4 39  1  0
  4 40  1  0
  5 41  1  6
  6 42  1  0
  6 43  1  0
  8 44  1  0
  8 45  1  0
  9 46  1  0
  9 47  1  0
 11 48  1  0
 11 49  1  0
 11 50  1  0
 12 51  1  0
 12 52  1  0
 12 53  1  0
 16 54  1  0
 16 55  1  0
 17 56  1  0
 17 57  1  0
 19 58  1  0
 19 59  1  0
 19 60  1  0
 21 61  1  0
 21 62  1  0
 21 63  1  0
 22 64  1  0
 22 65  1  0
 23 66  1  0
 23 67  1  0
 24 68  1  1
 26 69  1  0
 26 70  1  0
 26 71  1  0
 27 72  1  0
 27 73  1  0
 27 74  1  0
 30 75  1  0
 30 76  1  0
 31 77  1  0
 31 78  1  0
 33 79  1  0
 33 80  1  0
 33 81  1  0
 34 82  1  6
M  END
>  <UniqueID>  (14) 
14

>  <SMILES>  (14) 
CO[C@H]1C[C@H]2CC3(CCC(C)(C)C(=O)O3)CCC2(C)C2(C)CCC3C(C)(C)C(=O)CCC3(C)C12

>  <Energy>  (14) 
192.98328912868075

>  <Genealogy>  (14) 
CO[C@H]1C[C@H]2CC3(CCC(C)(C)C(=O)O3)CCC2(C)C2(C)CCC3C(C)(C)C(=O)CCC3(C)C12 (chirality)
CO[C@H]1C[C@H]2CC3(CCC(C)(C)C(=O)O3)CCC2(C)C2(C)CCC3C(C)(C)C(=O)CCC3(C)C12 (3D coordinates assigned)
CO[C@H]1C[C@H]2CC3(CCC(C)(C)C(=O)O3)CCC2(C)C2(C)CCC3C(C)(C)C(=O)CCC3(C)C12 (nonaromatic ring conformer: 192.98328912868075 kcal/mol)

>  <smiles>  (14) 
COC1CC2CC3(CCC(C)(C)C(=O)O3)CCC2(C)C2(C)CCC3C(C)(C)C(=O)CCC3(C)C12

>  <score_type>  (14) 
oracle

>  <origin>  (14) 
adg

>  <m_score__min__energy>  (14) 
-9

>  <m_primary>  (14) 
energy

$$$$
15:0
     RDKit          3D

 46 47  0  0  0  0  0  0  0  0999 V2000
   63.8898   34.5590   47.1749 H   0  0  0  0  0  0  0  0  0  0  0  0
   63.2080   33.8280   47.6340 C   0  0  0  0  0  0  0  0  0  0  0  0
   61.9680   34.1420   47.8290 N   0  0  0  0  0  0  0  0  0  0  0  0
   61.4330   34.1110   49.0950 O   0  0  0  0  0  0  0  0  0  0  0  0
   60.0390   34.2870   49.2910 C   0  0  0  0  0  0  0  0  0  0  0  0
   59.5348   34.3285   48.3142 H   0  0  0  0  0  0  0  0  0  0  0  0
   59.8636   35.2254   49.8375 H   0  0  0  0  0  0  0  0  0  0  0  0
   59.4840   33.1240   50.0970 C   0  0  0  0  0  0  0  0  0  0  0  0
   59.5870   33.3398   51.1707 H   0  0  0  0  0  0  0  0  0  0  0  0
   58.4211   32.9821   49.8518 H   0  0  0  0  0  0  0  0  0  0  0  0
   60.0423   32.2085   49.8518 H   0  0  0  0  0  0  0  0  0  0  0  0
   63.7230   32.4780   48.0280 C   0  0  0  0  0  0  0  0  0  0  0  0
   64.7324   32.3458   47.6114 H   0  0  0  0  0  0  0  0  0  0  0  0
   63.7404   32.4243   49.1266 H   0  0  0  0  0  0  0  0  0  0  0  0
   62.8140   31.3470   47.5050 C   0  0  0  0  0  0  0  0  0  0  0  0
   62.6319   31.5130   46.4330 H   0  0  0  0  0  0  0  0  0  0  0  0
   63.3344   30.3967   47.6948 H   0  0  0  0  0  0  0  0  0  0  0  0
   61.5140   31.2780   48.1950 N   0  0  0  0  0  0  0  0  0  0  0  0
   61.2510   32.2310   48.5370 H   0  0  0  0  0  0  0  0  0  0  0  0
   61.5200   30.3430   49.3280 C   0  0  0  0  0  0  0  0  0  0  0  0
   62.5592   30.0905   49.5856 H   0  0  0  0  0  0  0  0  0  0  0  0
   61.0252   30.8174   50.1883 H   0  0  0  0  0  0  0  0  0  0  0  0
   60.7640   29.0620   48.9590 C   0  0  0  0  0  0  0  0  0  0  0  0
   61.3865   28.4660   48.2754 H   0  0  0  0  0  0  0  0  0  0  0  0
   60.5546   28.5101   49.8872 H   0  0  0  0  0  0  0  0  0  0  0  0
   59.4280   29.3650   48.2750 C   0  0  0  0  0  0  0  0  0  0  0  0
   58.8105   28.4547   48.2653 H   0  0  0  0  0  0  0  0  0  0  0  0
   58.9139   30.1628   48.8310 H   0  0  0  0  0  0  0  0  0  0  0  0
   59.6520   29.8110   46.9000 N   0  0  0  0  0  0  0  0  0  0  0  0
   60.6350   30.0400   46.6270 H   0  0  0  0  0  0  0  0  0  0  0  0
   58.5840   30.3670   46.1170 C   0  0  0  0  0  0  0  0  0  0  0  0
   57.5740   29.5290   45.6160 C   0  0  0  0  0  0  0  0  0  0  0  0
   57.5670   27.6440   45.9890 Br  0  0  0  0  0  0  0  0  0  0  0  0
   56.5790   30.0810   44.7970 C   0  0  0  0  0  0  0  0  0  0  0  0
   55.6740   29.3470   44.3180 O   0  0  0  0  0  0  0  0  0  0  0  0
   56.5820   31.3780   44.5120 O   0  0  0  0  0  0  0  0  0  0  0  0
   57.4970   32.2170   44.9850 C   0  0  0  0  0  0  0  0  0  0  0  0
   57.4260   33.5730   44.6500 C   0  0  0  0  0  0  0  0  0  0  0  0
   56.6280   33.9322   43.9835 H   0  0  0  0  0  0  0  0  0  0  0  0
   58.3650   34.4720   45.1590 C   0  0  0  0  0  0  0  0  0  0  0  0
   58.3116   35.5359   44.8845 H   0  0  0  0  0  0  0  0  0  0  0  0
   59.3720   34.0230   46.0160 C   0  0  0  0  0  0  0  0  0  0  0  0
   60.1019   34.7369   46.4253 H   0  0  0  0  0  0  0  0  0  0  0  0
   59.4560   32.6680   46.3560 C   0  0  0  0  0  0  0  0  0  0  0  0
   60.2448   32.3220   47.0401 H   0  0  0  0  0  0  0  0  0  0  0  0
   58.5340   31.7470   45.8250 C   0  0  0  0  0  0  0  0  0  0  0  0
  1  2  1  0
  2  3  2  0
  3  4  1  0
  4  5  1  0
  5  6  1  0
  5  7  1  0
  5  8  1  0
  8  9  1  0
  8 10  1  0
  8 11  1  0
  2 12  1  0
 12 13  1  0
 12 14  1  0
 12 15  1  0
 15 16  1  0
 15 17  1  0
 15 18  1  0
 18 19  1  0
 18 20  1  0
 20 21  1  0
 20 22  1  0
 20 23  1  0
 23 24  1  0
 23 25  1  0
 23 26  1  0
 26 27  1  0
 26 28  1  0
 26 29  1  0
 29 30  1  0
 29 31  1  0
 31 32  2  0
 32 33  1  0
 32 34  1  0
 34 35  2  0
 34 36  1  0
 36 37  1  0
 37 38  2  0
 38 39  1  0
 38 40  1  0
 40 41  1  0
 40 42  2  0
 42 43  1  0
 42 44  1  0
 44 45  1  0
 44 46  2  0
 46 31  1  0
 46 37  1  0
M  END
>  <UniqueID>  (15) 
15

>  <SMILES>  (15) 
CCO/N=C/CCNCCCNc1c(Br)c(=O)oc2ccccc12

>  <Energy>  (15) 
43.59150895942351

>  <Genealogy>  (15) 
CCO/N=C/CCNCCCNc1c(Br)c(=O)oc2ccccc12 (cis-trans isomerization)
CCO/N=C/CCNCCCNc1c(Br)c(=O)oc2ccccc12 (3D coordinates assigned)
CCO/N=C/CCNCCCNc1c(Br)c(=O)oc2ccccc12 (optimized conformer: 43.59150895942351 kcal/mol)

>  <smiles>  (15) 
CCON=CCCNCCCNc1c(Br)c(=O)oc2ccccc12

>  <score_type>  (15) 
oracle

>  <origin>  (15) 
adg

>  <m_score__min__energy>  (15) 
-6.75

>  <m_primary>  (15) 
energy

$$$$
16:0
     RDKit          3D

 29 30  0  0  0  0  0  0  0  0999 V2000
   60.0850   23.5520   45.8990 O   0  0  0  0  0  0  0  0  0  0  0  0
   58.9140   23.9220   45.6190 C   0  0  0  0  0  0  0  0  0  0  0  0
   58.3810   25.0740   46.2890 N   0  0  0  0  0  0  0  0  0  0  0  0
   58.5830   26.4430   45.9090 C   0  0  0  0  0  0  0  0  0  0  0  0
   59.8560   27.0050   46.0570 C   0  0  0  0  0  0  0  0  0  0  0  0
   60.0870   28.3360   45.7010 C   0  0  0  0  0  0  0  0  0  0  0  0
   59.0480   29.1120   45.1790 C   0  0  0  0  0  0  0  0  0  0  0  0
   57.7760   28.5520   44.9880 C   0  0  0  0  0  0  0  0  0  0  0  0
   56.6500   29.3900   44.4490 C   0  0  0  0  0  0  0  0  0  0  0  0
   55.4800   29.1510   45.1820 O   0  0  0  0  0  0  0  0  0  0  0  0
   57.5470   27.2180   45.3550 C   0  0  0  0  0  0  0  0  0  0  0  0
   58.1130   23.1310   44.6540 C   0  0  0  0  0  0  0  0  0  0  0  0
   57.1090   23.7470   43.8930 C   0  0  0  0  0  0  0  0  0  0  0  0
   56.3580   22.9960   42.9880 C   0  0  0  0  0  0  0  0  0  0  0  0
   56.6220   21.6350   42.8410 C   0  0  0  0  0  0  0  0  0  0  0  0
   57.6090   21.0490   43.5710 N   0  0  0  0  0  0  0  0  0  0  0  0
   58.3560   21.7600   44.4590 C   0  0  0  0  0  0  0  0  0  0  0  0
   60.6798   26.3950   46.4561 H   0  0  0  0  0  0  0  0  0  0  0  0
   61.0876   28.7739   45.8316 H   0  0  0  0  0  0  0  0  0  0  0  0
   59.2284   30.1651   44.9172 H   0  0  0  0  0  0  0  0  0  0  0  0
   56.9180   30.4539   44.5277 H   0  0  0  0  0  0  0  0  0  0  0  0
   56.4759   29.1255   43.3956 H   0  0  0  0  0  0  0  0  0  0  0  0
   55.5290   29.7260   45.9900 H   0  0  0  0  0  0  0  0  0  0  0  0
   56.5511   26.7744   45.2089 H   0  0  0  0  0  0  0  0  0  0  0  0
   56.9133   24.8232   44.0096 H   0  0  0  0  0  0  0  0  0  0  0  0
   55.5641   23.4740   42.3953 H   0  0  0  0  0  0  0  0  0  0  0  0
   56.0314   21.0342   42.1338 H   0  0  0  0  0  0  0  0  0  0  0  0
   57.8010   20.0290   43.4430 H   0  0  0  0  0  0  0  0  0  0  0  0
   59.1540   21.2595   45.0271 H   0  0  0  0  0  0  0  0  0  0  0  0
  1  2  2  0
  2  3  1  0
  3  4  1  0
  4  5  2  0
  5  6  1  0
  6  7  2  0
  7  8  1  0
  8  9  1  0
  9 10  1  0
  8 11  2  0
  2 12  1  0
 12 13  2  0
 13 14  1  0
 14 15  2  0
 15 16  1  0
 16 17  2  0
 11  4  1  0
 17 12  1  0
  5 18  1  0
  6 19  1  0
  7 20  1  0
  9 21  1  0
  9 22  1  0
 10 23  1  0
 11 24  1  0
 13 25  1  0
 14 26  1  0
 15 27  1  0
 16 28  1  0
 17 29  1  0
M  CHG  2   3  -1  16   1
M  END
>  <UniqueID>  (16) 
16

>  <SMILES>  (16) 
O=C([N-]c1cccc(CO)c1)c1ccc[nH+]c1

>  <Energy>  (16) 
35.49778535516455

>  <Genealogy>  (16) 
O=C([N-]c1cccc(CO)c1)c1ccc[nH+]c1 (protonated)
O=C([N-]c1cccc(CO)c1)c1ccc[nH+]c1 (3D coordinates assigned)
O=C([N-]c1cccc(CO)c1)c1ccc[nH+]c1 (optimized conformer: 35.49778535516455 kcal/mol)

>  <smiles>  (16) 
O=C(Nc1cccc(CO)c1)c1cccnc1

>  <score_type>  (16) 
oracle

>  <origin>  (16) 
adg

>  <m_score__min__energy>  (16) 
-7.3499999999999996

>  <m_primary>  (16) 
energy

$$$$
17:0
     RDKit          3D

 46 49  0  0  0  0  0  0  0  0999 V2000
   57.4160   31.9590   42.0610 C   0  0  0  0  0  0  0  0  0  0  0  0
   57.7840   32.0880   43.4680 N   0  0  0  0  0  0  0  0  0  0  0  0
   58.0810   33.2400   44.1180 C   0  0  0  0  0  0  0  0  0  0  0  0
   58.4180   32.9680   45.4400 C   0  0  0  0  0  0  0  0  0  0  0  0
   58.7600   33.9740   46.5000 C   0  0  0  0  0  0  0  0  0  0  0  0
   59.9640   33.5670   47.2490 N   0  0  0  0  0  0  0  0  0  0  0  0
   60.0470   34.2600   48.5600 C   0  0  0  0  0  0  0  0  0  0  0  0
   61.4640   34.2480   49.1710 C   0  0  0  0  0  0  0  0  0  0  0  0
   62.3060   33.2200   48.5530 N   0  0  0  0  0  0  0  0  0  0  0  0
   63.3190   32.5780   49.3360 C   0  0  0  0  0  0  0  0  0  0  0  0
   64.6200   33.1070   49.3590 C   0  0  0  0  0  0  0  0  0  0  0  0
   65.6170   32.4930   50.1250 C   0  0  0  0  0  0  0  0  0  0  0  0
   65.3180   31.3500   50.8750 C   0  0  0  0  0  0  0  0  0  0  0  0
   66.2860   30.7570   51.6200 F   0  0  0  0  0  0  0  0  0  0  0  0
   64.0220   30.8210   50.8620 C   0  0  0  0  0  0  0  0  0  0  0  0
   63.0180   31.4320   50.0980 C   0  0  0  0  0  0  0  0  0  0  0  0
   61.2430   30.7110   50.1460 Br  0  0  0  0  0  0  0  0  0  0  0  0
   62.3540   33.0890   47.0930 C   0  0  0  0  0  0  0  0  0  0  0  0
   61.1740   33.8170   46.4450 C   0  0  0  0  0  0  0  0  0  0  0  0
   58.3160   31.5980   45.5860 C   0  0  0  0  0  0  0  0  0  0  0  0
   58.5250   30.7740   46.6930 C   0  0  0  0  0  0  0  0  0  0  0  0
   58.3510   29.3910   46.5240 C   0  0  0  0  0  0  0  0  0  0  0  0
   57.9700   28.8660   45.2680 C   0  0  0  0  0  0  0  0  0  0  0  0
   57.7570   29.7210   44.1710 C   0  0  0  0  0  0  0  0  0  0  0  0
   57.9370   31.0930   44.3660 C   0  0  0  0  0  0  0  0  0  0  0  0
   56.3804   31.5960   41.9847 H   0  0  0  0  0  0  0  0  0  0  0  0
   57.4980   32.9395   41.5692 H   0  0  0  0  0  0  0  0  0  0  0  0
   58.0923   31.2443   41.5692 H   0  0  0  0  0  0  0  0  0  0  0  0
   58.0588   34.2427   43.6663 H   0  0  0  0  0  0  0  0  0  0  0  0
   58.9450   34.9484   46.0243 H   0  0  0  0  0  0  0  0  0  0  0  0
   57.9168   34.0412   47.2033 H   0  0  0  0  0  0  0  0  0  0  0  0
   59.7357   35.3060   48.4218 H   0  0  0  0  0  0  0  0  0  0  0  0
   59.3889   33.7187   49.2556 H   0  0  0  0  0  0  0  0  0  0  0  0
   61.9291   35.2325   49.0148 H   0  0  0  0  0  0  0  0  0  0  0  0
   61.3756   34.0229   50.2441 H   0  0  0  0  0  0  0  0  0  0  0  0
   64.8559   34.0073   48.7727 H   0  0  0  0  0  0  0  0  0  0  0  0
   66.6354   32.9086   50.1377 H   0  0  0  0  0  0  0  0  0  0  0  0
   63.7907   29.9228   51.4533 H   0  0  0  0  0  0  0  0  0  0  0  0
   63.2940   33.5237   46.7222 H   0  0  0  0  0  0  0  0  0  0  0  0
   62.2975   32.0219   46.8318 H   0  0  0  0  0  0  0  0  0  0  0  0
   61.3791   34.8972   46.4112 H   0  0  0  0  0  0  0  0  0  0  0  0
   61.0246   33.4488   45.4193 H   0  0  0  0  0  0  0  0  0  0  0  0
   58.8167   31.1946   47.6667 H   0  0  0  0  0  0  0  0  0  0  0  0
   58.5122   28.7119   47.3742 H   0  0  0  0  0  0  0  0  0  0  0  0
   57.8390   27.7805   45.1473 H   0  0  0  0  0  0  0  0  0  0  0  0
   57.4581   29.3219   43.1905 H   0  0  0  0  0  0  0  0  0  0  0  0
  1  2  1  0
  2  3  1  0
  3  4  2  0
  4  5  1  0
  5  6  1  0
  6  7  1  0
  7  8  1  0
  8  9  1  0
  9 10  1  0
 10 11  2  0
 11 12  1  0
 12 13  2  0
 13 14  1  0
 13 15  1  0
 15 16  2  0
 16 17  1  0
  9 18  1  0
 18 19  1  0
  4 20  1  0
 20 21  2  0
 21 22  1  0
 22 23  2  0
 23 24  1  0
 24 25  2  0
 25  2  1  0
 19  6  1  0
 25 20  1  0
 16 10  1  0
  1 26  1  0
  1 27  1  0
  1 28  1  0
  3 29  1  0
  5 30  1  0
  5 31  1  0
  7 32  1  0
  7 33  1  0
  8 34  1  0
  8 35  1  0
 11 36  1  0
 12 37  1  0
 15 38  1  0
 18 39  1  0
 18 40  1  0
 19 41  1  0
 19 42  1  0
 21 43  1  0
 22 44  1  0
 23 45  1  0
 24 46  1  0
M  END
>  <UniqueID>  (17) 
17

>  <SMILES>  (17) 
Cn1cc(CN2CCN(c3ccc(F)cc3Br)CC2)c2ccccc21

>  <Energy>  (17) 
92.14369397065049

>  <Genealogy>  (17) 
Cn1cc(CN2CCN(c3ccc(F)cc3Br)CC2)c2ccccc21 (3D coordinates assigned)
Cn1cc(CN2CCN(c3ccc(F)cc3Br)CC2)c2ccccc21 (nonaromatic ring conformer: 92.14369397065049 kcal/mol)

>  <smiles>  (17) 
Cn1cc(CN2CCN(c3ccc(F)cc3Br)CC2)c2ccccc21

>  <score_type>  (17) 
oracle

>  <origin>  (17) 
adg

>  <m_score__min__energy>  (17) 
-7.6799999999999997

>  <m_primary>  (17) 
energy

$$$$
18:0
     RDKit          3D

 64 66  0  0  0  0  0  0  0  0999 V2000
   64.1140   33.0630   48.5710 C   0  0  0  0  0  0  0  0  0  0  0  0
   63.2430   32.6870   47.4220 C   0  0  0  0  0  0  0  0  0  0  0  0
   62.5900   33.8390   46.7280 C   0  0  0  0  0  0  0  0  0  0  0  0
   61.1340   33.6620   46.4690 C   0  0  0  0  0  0  0  0  0  0  0  0
   60.3670   34.5910   47.4020 C   0  0  0  0  0  0  0  0  0  0  0  0
   58.8930   34.1930   47.4530 C   0  0  0  0  0  0  0  0  0  0  0  0
   58.4760   33.5420   46.1910 C   0  0  0  0  0  0  0  0  0  0  0  0
   58.0890   34.2540   45.0950 N   0  0  0  0  0  0  0  0  0  0  0  0
   57.6880   33.4350   44.1570 N   0  0  0  0  0  0  0  0  0  0  0  0
   57.7910   32.1670   44.5780 C   0  0  0  0  0  0  0  0  0  0  0  0
   58.2900   32.2270   45.8640 C   0  0  0  0  0  0  0  0  0  0  0  0
   58.5540   31.0940   46.5710 C   0  0  0  0  0  0  0  0  0  0  0  0
   59.0770   30.9780   47.8590 N   0  0  0  0  0  0  0  0  0  0  0  0
   60.4240   30.8860   48.2890 C   0  0  0  0  0  0  0  0  0  0  0  0
   60.5580   31.5720   49.6310 C   0  0  0  0  0  0  0  0  0  0  0  0
   59.3600   32.1670   50.1300 N   0  0  0  0  0  0  0  0  0  0  0  0
   58.7540   31.3350   51.1610 C   0  0  0  0  0  0  0  0  0  0  0  0
   57.4500   31.9610   51.5550 C   0  0  0  0  0  0  0  0  0  0  0  0
   59.7590   33.4550   50.7180 C   0  0  0  0  0  0  0  0  0  0  0  0
   61.2590   33.5730   50.5740 C   0  0  0  0  0  0  0  0  0  0  0  0
   58.2820   29.8810   45.9060 C   0  0  0  0  0  0  0  0  0  0  0  0
   58.5290   28.6870   46.5510 C   0  0  0  0  0  0  0  0  0  0  0  0
   58.2780   27.4640   45.9220 C   0  0  0  0  0  0  0  0  0  0  0  0
   57.7780   27.4430   44.6390 C   0  0  0  0  0  0  0  0  0  0  0  0
   57.5340   28.6500   44.0020 C   0  0  0  0  0  0  0  0  0  0  0  0
   57.7820   29.8470   44.6290 C   0  0  0  0  0  0  0  0  0  0  0  0
   57.5390   30.9920   43.9690 N   0  0  0  0  0  0  0  0  0  0  0  0
   57.0160   30.9090   42.6300 C   0  0  0  0  0  0  0  0  0  0  0  0
   63.5941   32.8386   49.5140 H   0  0  0  0  0  0  0  0  0  0  0  0
   65.0514   32.4894   48.5236 H   0  0  0  0  0  0  0  0  0  0  0  0
   64.3395   34.1386   48.5236 H   0  0  0  0  0  0  0  0  0  0  0  0
   63.8595   32.1492   46.6867 H   0  0  0  0  0  0  0  0  0  0  0  0
   62.4296   32.0738   47.8372 H   0  0  0  0  0  0  0  0  0  0  0  0
   62.7210   34.7349   47.3527 H   0  0  0  0  0  0  0  0  0  0  0  0
   63.0736   33.9249   45.7438 H   0  0  0  0  0  0  0  0  0  0  0  0
   60.9085   33.9161   45.4228 H   0  0  0  0  0  0  0  0  0  0  0  0
   60.8408   32.6171   46.6486 H   0  0  0  0  0  0  0  0  0  0  0  0
   60.7958   34.5250   48.4128 H   0  0  0  0  0  0  0  0  0  0  0  0
   60.4464   35.6215   47.0254 H   0  0  0  0  0  0  0  0  0  0  0  0
   58.7380   33.4930   48.2873 H   0  0  0  0  0  0  0  0  0  0  0  0
   58.2892   35.1014   47.5952 H   0  0  0  0  0  0  0  0  0  0  0  0
   57.3440   33.7470   43.2240 H   0  0  0  0  0  0  0  0  0  0  0  0
   58.3280   30.9530   48.6410 H   0  0  0  0  0  0  0  0  0  0  0  0
   60.7095   29.8280   48.3850 H   0  0  0  0  0  0  0  0  0  0  0  0
   61.0836   31.3715   47.5547 H   0  0  0  0  0  0  0  0  0  0  0  0
   60.8977   30.8247   50.3632 H   0  0  0  0  0  0  0  0  0  0  0  0
   61.2708   32.3967   49.4833 H   0  0  0  0  0  0  0  0  0  0  0  0
   58.5784   30.3226   50.7682 H   0  0  0  0  0  0  0  0  0  0  0  0
   59.4208   31.2607   52.0327 H   0  0  0  0  0  0  0  0  0  0  0  0
   57.3768   31.9961   52.6520 H   0  0  0  0  0  0  0  0  0  0  0  0
   57.3969   32.9828   51.1510 H   0  0  0  0  0  0  0  0  0  0  0  0
   56.6195   31.3634   51.1510 H   0  0  0  0  0  0  0  0  0  0  0  0
   59.2642   34.2806   50.1856 H   0  0  0  0  0  0  0  0  0  0  0  0
   59.4655   33.5058   51.7769 H   0  0  0  0  0  0  0  0  0  0  0  0
   61.7214   33.6094   51.5714 H   0  0  0  0  0  0  0  0  0  0  0  0
   61.6441   32.7024   50.0229 H   0  0  0  0  0  0  0  0  0  0  0  0
   61.5032   34.4931   50.0229 H   0  0  0  0  0  0  0  0  0  0  0  0
   58.9294   28.6973   47.5755 H   0  0  0  0  0  0  0  0  0  0  0  0
   58.4794   26.5206   46.4507 H   0  0  0  0  0  0  0  0  0  0  0  0
   57.5765   26.4887   44.1303 H   0  0  0  0  0  0  0  0  0  0  0  0
   57.1350   28.6492   42.9769 H   0  0  0  0  0  0  0  0  0  0  0  0
   55.9303   30.7367   42.6704 H   0  0  0  0  0  0  0  0  0  0  0  0
   57.2183   31.8505   42.0983 H   0  0  0  0  0  0  0  0  0  0  0  0
   57.4998   30.0764   42.0983 H   0  0  0  0  0  0  0  0  0  0  0  0
  1  2  1  0
  2  3  1  0
  3  4  1  0
  4  5  1  0
  5  6  1  0
  6  7  1  0
  7  8  2  0
  8  9  1  0
  9 10  1  0
 10 11  2  0
 11 12  1  0
 12 13  1  0
 13 14  1  0
 14 15  1  0
 15 16  1  0
 16 17  1  0
 17 18  1  0
 16 19  1  0
 19 20  1  0
 12 21  2  0
 21 22  1  0
 22 23  2  0
 23 24  1  0
 24 25  2  0
 25 26  1  0
 26 27  2  0
 27 28  1  0
 11  7  1  0
 26 21  1  0
 27 10  1  0
  1 29  1  0
  1 30  1  0
  1 31  1  0
  2 32  1  0
  2 33  1  0
  3 34  1  0
  3 35  1  0
  4 36  1  0
  4 37  1  0
  5 38  1  0
  5 39  1  0
  6 40  1  0
  6 41  1  0
  9 42  1  0
 13 43  1  0
 14 44  1  0
 14 45  1  0
 15 46  1  0
 15 47  1  0
 17 48  1  0
 17 49  1  0
 18 50  1  0
 18 51  1  0
 18 52  1  0
 19 53  1  0
 19 54  1  0
 20 55  1  0
 20 56  1  0
 20 57  1  0
 22 58  1  0
 23 59  1  0
 24 60  1  0
 25 61  1  0
 28 62  1  0
 28 63  1  0
 28 64  1  0
M  CHG  1  27   1
M  END
>  <smiles>  (18) 
CCCCCCc1n[nH]c2c1c(NCCN(CC)CC)c1ccccc1[n+]2C

>  <score_type>  (18) 
oracle

>  <origin>  (18) 
adg

>  <m_score__min__energy>  (18) 
-6.5199999999999996

>  <m_primary>  (18) 
energy

$$$$
19:0
     RDKit          3D

 57 59  0  0  0  0  0  0  0  0999 V2000
   60.7380   29.4670   50.2830 C   0  0  0  0  0  0  0  0  0  0  0  0
   59.2780   29.4110   49.8310 C   0  0  0  0  0  0  0  0  0  0  0  0
   58.7570   30.7160   49.5900 O   0  0  0  0  0  0  0  0  0  0  0  0
   58.5470   31.7120   50.5600 C   0  0  0  0  0  0  0  0  0  0  0  0
   57.4420   31.6880   51.4340 C   0  0  0  0  0  0  0  0  0  0  0  0
   57.2590   32.7150   52.3610 C   0  0  0  0  0  0  0  0  0  0  0  0
   58.1740   33.7680   52.4280 C   0  0  0  0  0  0  0  0  0  0  0  0
   59.2830   33.7920   51.5810 C   0  0  0  0  0  0  0  0  0  0  0  0
   59.4800   32.7600   50.6430 C   0  0  0  0  0  0  0  0  0  0  0  0
   60.5940   32.7240   49.7880 O   0  0  0  0  0  0  0  0  0  0  0  0
   61.9130   33.1540   50.1200 C   0  0  0  0  0  0  0  0  0  0  0  0
   62.7890   33.2480   48.8660 C   0  0  0  0  0  0  0  0  0  0  0  0
   62.0150   32.8950   47.6640 N   0  0  0  0  0  0  0  0  0  0  0  0
   62.3460   31.5570   47.1390 C   0  0  0  0  0  0  0  0  0  0  0  0
   61.1430   30.6020   47.0350 C   0  0  0  0  0  0  0  0  0  0  0  0
   59.8810   31.2970   47.2970 N   0  0  0  0  0  0  0  0  0  0  0  0
   59.0820   31.8630   46.2420 C   0  0  0  0  0  0  0  0  0  0  0  0
   59.1540   33.2490   45.9800 C   0  0  0  0  0  0  0  0  0  0  0  0
   60.0370   34.0390   46.7370 O   0  0  0  0  0  0  0  0  0  0  0  0
   59.6410   34.9390   47.7680 C   0  0  0  0  0  0  0  0  0  0  0  0
   58.3690   33.8030   44.9520 C   0  0  0  0  0  0  0  0  0  0  0  0
   57.5660   32.9920   44.1550 C   0  0  0  0  0  0  0  0  0  0  0  0
   57.5170   31.6110   44.3730 C   0  0  0  0  0  0  0  0  0  0  0  0
   56.7230   30.7990   43.5500 C   0  0  0  0  0  0  0  0  0  0  0  0
   56.6680   29.4210   43.7640 C   0  0  0  0  0  0  0  0  0  0  0  0
   57.3910   28.8460   44.8080 C   0  0  0  0  0  0  0  0  0  0  0  0
   58.1800   29.6420   45.6410 C   0  0  0  0  0  0  0  0  0  0  0  0
   58.2710   31.0330   45.4270 C   0  0  0  0  0  0  0  0  0  0  0  0
   60.7817   29.4687   51.3821 H   0  0  0  0  0  0  0  0  0  0  0  0
   61.2756   28.5888   49.8960 H   0  0  0  0  0  0  0  0  0  0  0  0
   61.2067   30.3838   49.8960 H   0  0  0  0  0  0  0  0  0  0  0  0
   59.2129   28.8229   48.9037 H   0  0  0  0  0  0  0  0  0  0  0  0
   58.6856   28.9445   50.6319 H   0  0  0  0  0  0  0  0  0  0  0  0
   56.7220   30.8578   51.3855 H   0  0  0  0  0  0  0  0  0  0  0  0
   56.3934   32.6951   53.0395 H   0  0  0  0  0  0  0  0  0  0  0  0
   58.0199   34.5821   53.1516 H   0  0  0  0  0  0  0  0  0  0  0  0
   60.0052   34.6192   51.6462 H   0  0  0  0  0  0  0  0  0  0  0  0
   61.8598   34.1436   50.5973 H   0  0  0  0  0  0  0  0  0  0  0  0
   62.3597   32.4200   50.8068 H   0  0  0  0  0  0  0  0  0  0  0  0
   63.1651   34.2767   48.7643 H   0  0  0  0  0  0  0  0  0  0  0  0
   63.6279   32.5437   48.9665 H   0  0  0  0  0  0  0  0  0  0  0  0
   60.9920   32.9600   47.8730 H   0  0  0  0  0  0  0  0  0  0  0  0
   62.2270   33.5880   46.9090 H   0  0  0  0  0  0  0  0  0  0  0  0
   62.7776   31.6781   46.1345 H   0  0  0  0  0  0  0  0  0  0  0  0
   63.0479   31.1028   47.8539 H   0  0  0  0  0  0  0  0  0  0  0  0
   61.1122   30.1752   46.0216 H   0  0  0  0  0  0  0  0  0  0  0  0
   61.2643   29.8111   47.7899 H   0  0  0  0  0  0  0  0  0  0  0  0
   59.5970   31.4620   48.2880 H   0  0  0  0  0  0  0  0  0  0  0  0
   59.8413   34.4837   48.7491 H   0  0  0  0  0  0  0  0  0  0  0  0
   60.2100   35.8758   47.6755 H   0  0  0  0  0  0  0  0  0  0  0  0
   58.5659   35.1524   47.6755 H   0  0  0  0  0  0  0  0  0  0  0  0
   58.3901   34.8887   44.7763 H   0  0  0  0  0  0  0  0  0  0  0  0
   56.9663   33.4398   43.3488 H   0  0  0  0  0  0  0  0  0  0  0  0
   56.1413   31.2501   42.7326 H   0  0  0  0  0  0  0  0  0  0  0  0
   56.0531   28.7875   43.1078 H   0  0  0  0  0  0  0  0  0  0  0  0
   57.3398   27.7602   44.9764 H   0  0  0  0  0  0  0  0  0  0  0  0
   58.7351   29.1803   46.4709 H   0  0  0  0  0  0  0  0  0  0  0  0
  1  2  1  0
  2  3  1  0
  3  4  1  0
  4  5  2  0
  5  6  1  0
  6  7  2  0
  7  8  1  0
  8  9  2  0
  9 10  1  0
 10 11  1  0
 11 12  1  0
 12 13  1  0
 13 14  1  0
 14 15  1  0
 15 16  1  0
 16 17  1  0
 17 18  2  0
 18 19  1  0
 19 20  1  0
 18 21  1  0
 21 22  2  0
 22 23  1  0
 23 24  2  0
 24 25  1  0
 25 26  2  0
 26 27  1  0
 27 28  2  0
  9  4  1  0
 28 17  1  0
 28 23  1  0
  1 29  1  0
  1 30  1  0
  1 31  1  0
  2 32  1  0
  2 33  1  0
  5 34  1  0
  6 35  1  0
  7 36  1  0
  8 37  1  0
 11 38  1  0
 11 39  1  0
 12 40  1  0
 12 41  1  0
 13 42  1  0
 13 43  1  0
 14 44  1  0
 14 45  1  0
 15 46  1  0
 15 47  1  0
 16 48  1  0
 20 49  1  0
 20 50  1  0
 20 51  1  0
 21 52  1  0
 22 53  1  0
 24 54  1  0
 25 55  1  0
 26 56  1  0
 27 57  1  0
M  CHG  1  13   1
M  END
>  <UniqueID>  (19) 
18

>  <SMILES>  (19) 
CCOc1ccccc1OCC[NH2+]CCNc1c(OC)ccc2ccccc12

>  <Energy>  (19) 
65.04308362282198

>  <Genealogy>  (19) 
CCOc1ccccc1OCC[NH2+]CCNc1c(OC)ccc2ccccc12 (protonated)
CCOc1ccccc1OCC[NH2+]CCNc1c(OC)ccc2ccccc12 (3D coordinates assigned)
CCOc1ccccc1OCC[NH2+]CCNc1c(OC)ccc2ccccc12 (optimized conformer: 65.04308362282198 kcal/mol)

>  <smiles>  (19) 
CCOc1ccccc1OCCNCCNc1c(OC)ccc2ccccc12

>  <score_type>  (19) 
oracle

>  <origin>  (19) 
adg

>  <m_score__min__energy>  (19) 
-3.9700000000000002

>  <m_primary>  (19) 
energy

$$$$
20:0
     RDKit          3D

 49 51  0  0  0  0  0  0  0  0999 V2000
   61.3240   27.2710   51.5420 C   0  0  0  0  0  0  0  0  0  0  0  0
   60.8160   27.3750   50.2160 O   0  0  0  0  0  0  0  0  0  0  0  0
   60.6210   28.5840   49.5320 C   0  0  0  0  0  0  0  0  0  0  0  0
   61.4380   29.6640   49.8540 C   0  0  0  0  0  0  0  0  0  0  0  0
   61.2780   30.8930   49.2160 C   0  0  0  0  0  0  0  0  0  0  0  0
   60.2730   31.0840   48.2360 C   0  0  0  0  0  0  0  0  0  0  0  0
   59.4770   29.9740   47.8670 C   0  0  0  0  0  0  0  0  0  0  0  0
   59.6450   28.7400   48.5340 C   0  0  0  0  0  0  0  0  0  0  0  0
   58.5290   30.1110   46.8380 C   0  0  0  0  0  0  0  0  0  0  0  0
   57.6420   29.0200   46.5570 N   0  0  0  0  0  0  0  0  0  0  0  0
   58.1870   27.6940   46.2600 C   0  0  0  0  0  0  0  0  0  0  0  0
   59.1690   27.7350   45.0790 C   0  0  0  0  0  0  0  0  0  0  0  0
   58.5650   27.2320   43.7560 C   0  0  0  0  0  0  0  0  0  0  0  0
   57.4530   28.0710   43.3040 N   0  0  0  0  0  0  0  0  0  0  0  0
   58.4770   31.3060   46.0850 C   0  0  0  0  0  0  0  0  0  0  0  0
   57.6600   31.4320   44.9210 C   0  0  0  0  0  0  0  0  0  0  0  0
   56.8800   30.3490   44.4800 O   0  0  0  0  0  0  0  0  0  0  0  0
   55.8880   30.4180   43.4590 C   0  0  0  0  0  0  0  0  0  0  0  0
   57.6590   32.6410   44.2050 C   0  0  0  0  0  0  0  0  0  0  0  0
   58.4730   33.6940   44.5900 C   0  0  0  0  0  0  0  0  0  0  0  0
   59.2870   33.5790   45.7080 C   0  0  0  0  0  0  0  0  0  0  0  0
   59.2860   32.4050   46.4990 C   0  0  0  0  0  0  0  0  0  0  0  0
   60.0640   32.3120   47.6390 N   0  0  0  0  0  0  0  0  0  0  0  0
   60.6530   33.5310   48.2370 C   0  0  0  0  0  0  0  0  0  0  0  0
   60.5086   27.4379   52.2612 H   0  0  0  0  0  0  0  0  0  0  0  0
   61.7478   26.2675   51.6946 H   0  0  0  0  0  0  0  0  0  0  0  0
   62.1081   28.0273   51.6946 H   0  0  0  0  0  0  0  0  0  0  0  0
   62.2184   29.5464   50.6203 H   0  0  0  0  0  0  0  0  0  0  0  0
   61.9435   31.7288   49.4780 H   0  0  0  0  0  0  0  0  0  0  0  0
   59.0017   27.8884   48.2677 H   0  0  0  0  0  0  0  0  0  0  0  0
   56.6330   29.2360   46.3850 H   0  0  0  0  0  0  0  0  0  0  0  0
   58.7142   27.3179   47.1492 H   0  0  0  0  0  0  0  0  0  0  0  0
   57.3511   27.0326   45.9883 H   0  0  0  0  0  0  0  0  0  0  0  0
   59.4989   28.7748   44.9373 H   0  0  0  0  0  0  0  0  0  0  0  0
   60.0019   27.0615   45.3293 H   0  0  0  0  0  0  0  0  0  0  0  0
   59.3487   27.2358   42.9842 H   0  0  0  0  0  0  0  0  0  0  0  0
   58.1765   26.2169   43.9253 H   0  0  0  0  0  0  0  0  0  0  0  0
   57.8020   29.0010   42.9820 H   0  0  0  0  0  0  0  0  0  0  0  0
   56.9800   27.6000   42.5000 H   0  0  0  0  0  0  0  0  0  0  0  0
   56.7580   28.1990   44.0750 H   0  0  0  0  0  0  0  0  0  0  0  0
   54.8916   30.4873   43.9199 H   0  0  0  0  0  0  0  0  0  0  0  0
   56.0657   31.3060   42.8345 H   0  0  0  0  0  0  0  0  0  0  0  0
   55.9410   29.5140   42.8345 H   0  0  0  0  0  0  0  0  0  0  0  0
   57.0041   32.7528   43.3283 H   0  0  0  0  0  0  0  0  0  0  0  0
   58.4740   34.6263   44.0062 H   0  0  0  0  0  0  0  0  0  0  0  0
   59.9453   34.4157   45.9847 H   0  0  0  0  0  0  0  0  0  0  0  0
   60.6166   33.4557   49.3338 H   0  0  0  0  0  0  0  0  0  0  0  0
   61.6988   33.6309   47.9108 H   0  0  0  0  0  0  0  0  0  0  0  0
   60.0814   34.4124   47.9108 H   0  0  0  0  0  0  0  0  0  0  0  0
  1  2  1  0
  2  3  1  0
  3  4  2  0
  4  5  1  0
  5  6  2  0
  6  7  1  0
  7  8  2  0
  7  9  1  0
  9 10  1  0
 10 11  1  0
 11 12  1  0
 12 13  1  0
 13 14  1  0
  9 15  2  0
 15 16  1  0
 16 17  1  0
 17 18  1  0
 16 19  2  0
 19 20  1  0
 20 21  2  0
 21 22  1  0
 22 23  2  0
 23 24  1  0
  8  3  1  0
 22 15  1  0
 23  6  1  0
  1 25  1  0
  1 26  1  0
  1 27  1  0
  4 28  1  0
  5 29  1  0
  8 30  1  0
 10 31  1  0
 11 32  1  0
 11 33  1  0
 12 34  1  0
 12 35  1  0
 13 36  1  0
 13 37  1  0
 14 38  1  0
 14 39  1  0
 14 40  1  0
 18 41  1  0
 18 42  1  0
 18 43  1  0
 19 44  1  0
 20 45  1  0
 21 46  1  0
 24 47  1  0
 24 48  1  0
 24 49  1  0
M  CHG  2  14   1  23   1
M  END
>  <UniqueID>  (20) 
19

>  <SMILES>  (20) 
COc1ccc2c(c1)c(NCCC[NH3+])c1c(OC)cccc1[n+]2C

>  <Energy>  (20) 
74.30660627383864

>  <Genealogy>  (20) 
COc1ccc2c(c1)c(NCCC[NH3+])c1c(OC)cccc1[n+]2C (protonated)
COc1ccc2c(c1)c(NCCC[NH3+])c1c(OC)cccc1[n+]2C (3D coordinates assigned)
COc1ccc2c(c1)c(NCCC[NH3+])c1c(OC)cccc1[n+]2C (optimized conformer: 74.30660627383864 kcal/mol)

>  <smiles>  (20) 
COc1ccc2c(c1)c(NCCCN)c1c(OC)cccc1[n+]2C

>  <score_type>  (20) 
oracle

>  <origin>  (20) 
adg

>  <m_score__min__energy>  (20) 
-3.4100000000000001

>  <m_primary>  (20) 
energy

$$$$
