0:0
     RDKit          3D

 59 63  0  0  0  0  0  0  0  0999 V2000
   62.9060   33.8440   46.3530 C   0  0  0  0  0  0  0  0  0  0  0  0
   63.7000   33.6370   47.6380 C   0  0  0  0  0  0  0  0  0  0  0  0
   63.6960   32.1940   47.8980 N   0  0  0  0  0  0  0  0  0  0  0  0
   63.4810   31.9800   49.3320 C   0  0  0  0  0  0  0  0  0  0  0  0
   62.6610   33.1180   49.8750 C   0  0  0  0  0  0  0  0  0  0  0  0
   61.2990   32.6980   50.2550 N   0  0  0  0  0  0  0  0  0  0  0  0
   60.8110   31.5400   49.6250 C   0  0  0  0  0  0  0  0  0  0  0  0
   61.1420   30.3460   50.3030 C   0  0  0  0  0  0  0  0  0  0  0  0
   61.8390   30.3910   51.5010 C   0  0  0  0  0  0  0  0  0  0  0  0
   62.1910   29.2710   52.2200 C   0  0  0  0  0  0  0  0  0  0  0  0
   61.8220   28.0500   51.7040 C   0  0  0  0  0  0  0  0  0  0  0  0
   61.1310   28.0070   50.5160 C   0  0  0  0  0  0  0  0  0  0  0  0
   60.7760   29.1310   49.7920 C   0  0  0  0  0  0  0  0  0  0  0  0
   60.0870   29.0070   48.6230 N   0  0  0  0  0  0  0  0  0  0  0  0
   59.7910   27.6670   48.2190 C   0  0  0  0  0  0  0  0  0  0  0  0
   59.7770   30.1280   47.9930 C   0  0  0  0  0  0  0  0  0  0  0  0
   59.0650   30.0160   46.8040 C   0  0  0  0  0  0  0  0  0  0  0  0
   58.6790   31.1210   46.0660 C   0  0  0  0  0  0  0  0  0  0  0  0
   57.9080   30.8880   44.8610 C   0  0  0  0  0  0  0  0  0  0  0  0
   58.1130   31.5310   43.6640 C   0  0  0  0  0  0  0  0  0  0  0  0
   57.3790   31.2880   42.5230 C   0  0  0  0  0  0  0  0  0  0  0  0
   56.3710   30.3500   42.5510 C   0  0  0  0  0  0  0  0  0  0  0  0
   56.1290   29.6750   43.7420 C   0  0  0  0  0  0  0  0  0  0  0  0
   56.8800   29.9370   44.8700 C   0  0  0  0  0  0  0  0  0  0  0  0
   59.0300   32.3530   46.5610 C   0  0  0  0  0  0  0  0  0  0  0  0
   58.6230   33.4500   45.8210 C   0  0  0  0  0  0  0  0  0  0  0  0
   58.9180   34.7170   46.2620 C   0  0  0  0  0  0  0  0  0  0  0  0
   59.6010   34.9090   47.4090 C   0  0  0  0  0  0  0  0  0  0  0  0
   60.0050   33.7830   48.1400 C   0  0  0  0  0  0  0  0  0  0  0  0
   59.7450   32.4990   47.7550 C   0  0  0  0  0  0  0  0  0  0  0  0
   60.1230   31.4080   48.4680 C   0  0  0  0  0  0  0  0  0  0  0  0
   61.8692   34.1143   46.6021 H   0  0  0  0  0  0  0  0  0  0  0  0
   63.3645   34.6526   45.7649 H   0  0  0  0  0  0  0  0  0  0  0  0
   62.9114   32.9144   45.7649 H   0  0  0  0  0  0  0  0  0  0  0  0
   64.7313   33.9979   47.5105 H   0  0  0  0  0  0  0  0  0  0  0  0
   63.2561   34.1948   48.4758 H   0  0  0  0  0  0  0  0  0  0  0  0
   64.5940   31.7870   47.6270 H   0  0  0  0  0  0  0  0  0  0  0  0
   62.9460   31.0316   49.4880 H   0  0  0  0  0  0  0  0  0  0  0  0
   64.4492   31.9358   49.8523 H   0  0  0  0  0  0  0  0  0  0  0  0
   63.1660   33.5250   50.7634 H   0  0  0  0  0  0  0  0  0  0  0  0
   62.5698   33.8744   49.0815 H   0  0  0  0  0  0  0  0  0  0  0  0
   60.7600   33.2340   51.0050 H   0  0  0  0  0  0  0  0  0  0  0  0
   62.1264   31.3756   51.8986 H   0  0  0  0  0  0  0  0  0  0  0  0
   62.7442   29.3490   53.1676 H   0  0  0  0  0  0  0  0  0  0  0  0
   62.0764   27.1207   52.2348 H   0  0  0  0  0  0  0  0  0  0  0  0
   60.8440   27.0223   50.1185 H   0  0  0  0  0  0  0  0  0  0  0  0
   59.6520   27.0376   49.1103 H   0  0  0  0  0  0  0  0  0  0  0  0
   58.8697   27.6603   47.6180 H   0  0  0  0  0  0  0  0  0  0  0  0
   60.6237   27.2728   47.6180 H   0  0  0  0  0  0  0  0  0  0  0  0
   58.7992   29.0136   46.4371 H   0  0  0  0  0  0  0  0  0  0  0  0
   58.9116   32.2857   43.6133 H   0  0  0  0  0  0  0  0  0  0  0  0
   57.5968   31.8394   41.5965 H   0  0  0  0  0  0  0  0  0  0  0  0
   55.7719   30.1400   41.6527 H   0  0  0  0  0  0  0  0  0  0  0  0
   55.3283   28.9220   43.7860 H   0  0  0  0  0  0  0  0  0  0  0  0
   56.6661   29.3860   45.7977 H   0  0  0  0  0  0  0  0  0  0  0  0
   58.0655   33.3075   44.8835 H   0  0  0  0  0  0  0  0  0  0  0  0
   58.5929   35.5865   45.6719 H   0  0  0  0  0  0  0  0  0  0  0  0
   59.8353   35.9241   47.7622 H   0  0  0  0  0  0  0  0  0  0  0  0
   60.5620   33.9427   49.0750 H   0  0  0  0  0  0  0  0  0  0  0  0
  1  2  1  0
  2  3  1  0
  3  4  1  0
  4  5  1  0
  5  6  1  0
  6  7  1  0
  7  8  2  0
  8  9  1  0
  9 10  2  0
 10 11  1  0
 11 12  2  0
 12 13  1  0
 13 14  2  0
 14 15  1  0
 14 16  1  0
 16 17  2  0
 17 18  1  0
 18 19  1  0
 19 20  2  0
 20 21  1  0
 21 22  2  0
 22 23  1  0
 23 24  2  0
 18 25  2  0
 25 26  1  0
 26 27  2  0
 27 28  1  0
 28 29  2  0
 29 30  1  0
 30 31  2  0
 31  7  1  0
 13  8  1  0
 31 16  1  0
 24 19  1  0
 30 25  1  0
  1 32  1  0
  1 33  1  0
  1 34  1  0
  2 35  1  0
  2 36  1  0
  3 37  1  0
  4 38  1  0
  4 39  1  0
  5 40  1  0
  5 41  1  0
  6 42  1  0
  9 43  1  0
 10 44  1  0
 11 45  1  0
 12 46  1  0
 15 47  1  0
 15 48  1  0
 15 49  1  0
 17 50  1  0
 20 51  1  0
 21 52  1  0
 22 53  1  0
 23 54  1  0
 24 55  1  0
 26 56  1  0
 27 57  1  0
 28 58  1  0
 29 59  1  0
M  CHG  1  14   1
M  END
>  <smiles>  (1) 
CCNCCNc1c2ccccc2[n+](C)c2cc(-c3ccccc3)c3ccccc3c12

>  <score_type>  (1) 
oracle

>  <origin>  (1) 
adg

>  <m_score__min__energy>  (1) 
-8.4000000000000004

>  <m_primary>  (1) 
energy

$$$$
1:0
     RDKit          3D

 66 70  0  0  0  0  0  0  0  0999 V2000
   57.3670   30.6750   52.0020 C   0  0  0  0  0  0  0  0  0  0  0  0
   58.2630   31.5410   51.2330 C   0  0  0  0  0  0  0  0  0  0  0  0
   59.4390   31.9990   51.8030 C   0  0  0  0  0  0  0  0  0  0  0  0
   60.2750   32.7910   51.1210 N   0  0  0  0  0  0  0  0  0  0  0  0
   60.0340   33.1900   49.8570 C   0  0  0  0  0  0  0  0  0  0  0  0
   58.8830   32.7720   49.2290 C   0  0  0  0  0  0  0  0  0  0  0  0
   58.0080   31.9490   49.9250 C   0  0  0  0  0  0  0  0  0  0  0  0
   58.8380   33.2920   47.9610 N   0  0  0  0  0  0  0  0  0  0  0  0
   57.7150   33.0070   47.0930 C   0  0  0  0  0  0  0  0  0  0  0  0
   58.2720   32.7650   45.6980 C   0  0  0  0  0  0  0  0  0  0  0  0
   57.3310   32.2310   44.7760 N   0  0  0  0  0  0  0  0  0  0  0  0
   58.0340   31.5300   43.6800 C   0  0  0  0  0  0  0  0  0  0  0  0
   57.0200   31.0300   42.7020 C   0  0  0  0  0  0  0  0  0  0  0  0
   56.0840   30.1440   43.1690 N   0  0  0  0  0  0  0  0  0  0  0  0
   56.0930   29.4820   44.4000 C   0  0  0  0  0  0  0  0  0  0  0  0
   57.0260   28.3150   44.5810 C   0  0  0  0  0  0  0  0  0  0  0  0
   58.3910   28.8330   44.5500 N   0  0  0  0  0  0  0  0  0  0  0  0
   59.1160   29.1640   45.7280 C   0  0  0  0  0  0  0  0  0  0  0  0
   58.7540   28.6260   46.9750 C   0  0  0  0  0  0  0  0  0  0  0  0
   59.4320   28.9420   48.1300 C   0  0  0  0  0  0  0  0  0  0  0  0
   60.5020   29.8040   48.1220 C   0  0  0  0  0  0  0  0  0  0  0  0
   61.2290   30.1580   49.2270 C   0  0  0  0  0  0  0  0  0  0  0  0
   62.3070   31.0260   49.1690 C   0  0  0  0  0  0  0  0  0  0  0  0
   63.0540   31.3960   50.2450 C   0  0  0  0  0  0  0  0  0  0  0  0
   64.1240   32.2740   50.0790 C   0  0  0  0  0  0  0  0  0  0  0  0
   65.1040   32.7580   51.4530 Cl  0  0  0  0  0  0  0  0  0  0  0  0
   64.4520   32.7860   48.8370 C   0  0  0  0  0  0  0  0  0  0  0  0
   63.6970   32.4170   47.7410 C   0  0  0  0  0  0  0  0  0  0  0  0
   62.6440   31.5460   47.9370 C   0  0  0  0  0  0  0  0  0  0  0  0
   61.9290   31.1980   46.8510 N   0  0  0  0  0  0  0  0  0  0  0  0
   60.8770   30.3490   46.9160 C   0  0  0  0  0  0  0  0  0  0  0  0
   60.1890   30.0270   45.7510 C   0  0  0  0  0  0  0  0  0  0  0  0
   59.9370   34.0200   47.7990 C   0  0  0  0  0  0  0  0  0  0  0  0
   60.2250   34.6440   46.7460 O   0  0  0  0  0  0  0  0  0  0  0  0
   60.6680   33.9600   48.9540 N   0  0  0  0  0  0  0  0  0  0  0  0
   61.9520   34.6230   49.2040 C   0  0  0  0  0  0  0  0  0  0  0  0
   57.5343   30.8367   53.0771 H   0  0  0  0  0  0  0  0  0  0  0  0
   56.3226   30.9147   51.7533 H   0  0  0  0  0  0  0  0  0  0  0  0
   57.5710   29.6231   51.7533 H   0  0  0  0  0  0  0  0  0  0  0  0
   59.6902   31.7070   52.8334 H   0  0  0  0  0  0  0  0  0  0  0  0
   57.0866   31.6090   49.4296 H   0  0  0  0  0  0  0  0  0  0  0  0
   57.1835   32.1113   47.4468 H   0  0  0  0  0  0  0  0  0  0  0  0
   57.0035   33.8459   47.0883 H   0  0  0  0  0  0  0  0  0  0  0  0
   58.6363   33.7242   45.3015 H   0  0  0  0  0  0  0  0  0  0  0  0
   59.0696   32.0149   45.8035 H   0  0  0  0  0  0  0  0  0  0  0  0
   56.8090   33.0150   44.3170 H   0  0  0  0  0  0  0  0  0  0  0  0
   58.7218   32.2256   43.1769 H   0  0  0  0  0  0  0  0  0  0  0  0
   58.6117   30.6861   44.0850 H   0  0  0  0  0  0  0  0  0  0  0  0
   56.4809   31.9041   42.3080 H   0  0  0  0  0  0  0  0  0  0  0  0
   57.5989   30.4649   41.9567 H   0  0  0  0  0  0  0  0  0  0  0  0
   55.1640   30.1020   42.6760 H   0  0  0  0  0  0  0  0  0  0  0  0
   56.3517   30.2266   45.1672 H   0  0  0  0  0  0  0  0  0  0  0  0
   55.0892   29.0383   44.4745 H   0  0  0  0  0  0  0  0  0  0  0  0
   56.8321   27.8259   45.5470 H   0  0  0  0  0  0  0  0  0  0  0  0
   56.8760   27.5727   43.7832 H   0  0  0  0  0  0  0  0  0  0  0  0
   58.8740   28.9690   43.6360 H   0  0  0  0  0  0  0  0  0  0  0  0
   57.9029   27.9313   47.0293 H   0  0  0  0  0  0  0  0  0  0  0  0
   59.1099   28.4942   49.0817 H   0  0  0  0  0  0  0  0  0  0  0  0
   60.9450   29.7352   50.2020 H   0  0  0  0  0  0  0  0  0  0  0  0
   62.8138   31.0029   51.2439 H   0  0  0  0  0  0  0  0  0  0  0  0
   65.3009   33.4763   48.7238 H   0  0  0  0  0  0  0  0  0  0  0  0
   63.9285   32.8067   46.7387 H   0  0  0  0  0  0  0  0  0  0  0  0
   60.5168   30.4824   44.8049 H   0  0  0  0  0  0  0  0  0  0  0  0
   62.1159   34.7077   50.2884 H   0  0  0  0  0  0  0  0  0  0  0  0
   62.7636   34.0313   48.7555 H   0  0  0  0  0  0  0  0  0  0  0  0
   61.9395   35.6274   48.7555 H   0  0  0  0  0  0  0  0  0  0  0  0
  1  2  1  0
  2  3  2  0
  3  4  1  0
  4  5  2  0
  5  6  1  0
  6  7  2  0
  6  8  1  0
  8  9  1  0
  9 10  1  0
 10 11  1  0
 11 12  1  0
 12 13  1  0
 13 14  1  0
 14 15  1  0
 15 16  1  0
 16 17  1  0
 17 18  1  0
 18 19  2  0
 19 20  1  0
 20 21  2  0
 21 22  1  0
 22 23  2  0
 23 24  1  0
 24 25  2  0
 25 26  1  0
 25 27  1  0
 27 28  2  0
 28 29  1  0
 29 30  2  0
 30 31  1  0
 31 32  2  0
  8 33  1  0
 33 34  2  0
 33 35  1  0
 35 36  1  0
  7  2  1  0
 32 18  1  0
 35  5  1  0
 31 21  1  0
 29 23  1  0
  1 37  1  0
  1 38  1  0
  1 39  1  0
  3 40  1  0
  7 41  1  0
  9 42  1  0
  9 43  1  0
 10 44  1  0
 10 45  1  0
 11 46  1  0
 12 47  1  0
 12 48  1  0
 13 49  1  0
 13 50  1  0
 14 51  1  0
 15 52  1  0
 15 53  1  0
 16 54  1  0
 16 55  1  0
 17 56  1  0
 19 57  1  0
 20 58  1  0
 22 59  1  0
 24 60  1  0
 27 61  1  0
 28 62  1  0
 32 63  1  0
 36 64  1  0
 36 65  1  0
 36 66  1  0
M  END
>  <smiles>  (2) 
Cc1cnc2c(c1)n(CCNCCNCCNc1ccc3cc4cc(Cl)ccc4nc3c1)c(=O)n2C

>  <score_type>  (2) 
oracle

>  <origin>  (2) 
adg

>  <m_score__min__energy>  (2) 
-8.5500000000000007

>  <m_primary>  (2) 
energy

$$$$
2:0
     RDKit          3D

 27 28  0  0  0  0  0  0  0  0999 V2000
   58.1540   27.1810   43.4060 C   0  0  0  0  0  0  0  0  0  0  0  0
   57.9560   27.3360   44.8840 C   0  0  0  0  0  0  0  0  0  0  0  0
   56.6670   28.5570   45.2140 S   0  0  0  0  0  0  0  0  0  0  0  0
   57.2630   30.2120   44.9380 C   0  0  0  0  0  0  0  0  0  0  0  0
   57.7710   30.8620   46.0250 N   0  0  0  0  0  0  0  0  0  0  0  0
   58.2250   32.1090   45.9020 C   0  0  0  0  0  0  0  0  0  0  0  0
   58.7280   32.7180   47.0340 C   0  0  0  0  0  0  0  0  0  0  0  0
   59.2070   34.0240   46.9240 C   0  0  0  0  0  0  0  0  0  0  0  0
   59.1510   34.6320   45.6920 C   0  0  0  0  0  0  0  0  0  0  0  0
   58.6500   34.0330   44.5580 C   0  0  0  0  0  0  0  0  0  0  0  0
   58.1740   32.7320   44.6690 C   0  0  0  0  0  0  0  0  0  0  0  0
   57.6540   32.0580   43.5690 C   0  0  0  0  0  0  0  0  0  0  0  0
   57.6130   32.6440   42.4360 O   0  0  0  0  0  0  0  0  0  0  0  0
   57.2030   30.7960   43.7300 N   0  0  0  0  0  0  0  0  0  0  0  0
   56.6530   30.1530   42.5540 C   0  0  0  0  0  0  0  0  0  0  0  0
   59.0075   26.5129   43.2185 H   0  0  0  0  0  0  0  0  0  0  0  0
   57.2463   26.7510   42.9576 H   0  0  0  0  0  0  0  0  0  0  0  0
   58.3535   28.1654   42.9576 H   0  0  0  0  0  0  0  0  0  0  0  0
   57.6590   26.3683   45.3146 H   0  0  0  0  0  0  0  0  0  0  0  0
   58.8980   27.6756   45.3393 H   0  0  0  0  0  0  0  0  0  0  0  0
   58.7507   32.1877   47.9975 H   0  0  0  0  0  0  0  0  0  0  0  0
   59.6175   34.5518   47.7975 H   0  0  0  0  0  0  0  0  0  0  0  0
   59.5301   35.6611   45.6071 H   0  0  0  0  0  0  0  0  0  0  0  0
   58.6273   34.5664   43.5962 H   0  0  0  0  0  0  0  0  0  0  0  0
   55.9666   29.3505   42.8621 H   0  0  0  0  0  0  0  0  0  0  0  0
   56.1049   30.8939   41.9535 H   0  0  0  0  0  0  0  0  0  0  0  0
   57.4699   29.7263   41.9535 H   0  0  0  0  0  0  0  0  0  0  0  0
  1  2  1  0
  2  3  1  0
  3  4  1  0
  4  5  2  0
  5  6  1  0
  6  7  2  0
  7  8  1  0
  8  9  2  0
  9 10  1  0
 10 11  2  0
 11 12  1  0
 12 13  2  0
 12 14  1  0
 14 15  1  0
 14  4  1  0
 11  6  1  0
  1 16  1  0
  1 17  1  0
  1 18  1  0
  2 19  1  0
  2 20  1  0
  7 21  1  0
  8 22  1  0
  9 23  1  0
 10 24  1  0
 15 25  1  0
 15 26  1  0
 15 27  1  0
M  END
>  <smiles>  (3) 
CCSc1nc2ccccc2c(=O)n1C

>  <score_type>  (3) 
oracle

>  <origin>  (3) 
adg

>  <m_score__min__energy>  (3) 
-5.96

>  <m_primary>  (3) 
energy

$$$$
3:0
     RDKit          3D

 59 61  0  0  0  0  0  0  0  0999 V2000
   64.1530   32.5200   49.0520 C   0  0  0  0  0  0  0  0  0  0  0  0
   63.3760   32.1120   47.8570 C   0  0  0  0  0  0  0  0  0  0  0  0
   62.3640   33.0940   47.5330 N   0  0  0  0  0  0  0  0  0  0  0  0
   62.9640   33.8270   46.3770 C   0  0  0  0  0  0  0  0  0  0  0  0
   62.1840   34.0520   48.6120 C   0  0  0  0  0  0  0  0  0  0  0  0
   60.8900   33.8180   49.3720 C   0  0  0  0  0  0  0  0  0  0  0  0
   61.1040   33.4440   50.6710 O   0  0  0  0  0  0  0  0  0  0  0  0
   60.2600   32.3990   51.1130 C   0  0  0  0  0  0  0  0  0  0  0  0
   59.3550   31.9110   50.0420 C   0  0  0  0  0  0  0  0  0  0  0  0
   59.7900   30.8330   49.1430 C   0  0  0  0  0  0  0  0  0  0  0  0
   60.1870   31.0230   47.8160 N   0  0  0  0  0  0  0  0  0  0  0  0
   59.4760   31.0010   46.6080 C   0  0  0  0  0  0  0  0  0  0  0  0
   58.9530   32.1450   46.0060 C   0  0  0  0  0  0  0  0  0  0  0  0
   59.2070   33.3860   46.5470 C   0  0  0  0  0  0  0  0  0  0  0  0
   58.7710   34.5730   46.0190 C   0  0  0  0  0  0  0  0  0  0  0  0
   58.0290   34.5330   44.8700 C   0  0  0  0  0  0  0  0  0  0  0  0
   57.7620   33.2890   44.3040 C   0  0  0  0  0  0  0  0  0  0  0  0
   58.2090   32.1060   44.8490 C   0  0  0  0  0  0  0  0  0  0  0  0
   57.9380   30.9230   44.2160 N   0  0  0  0  0  0  0  0  0  0  0  0
   57.1490   30.9970   43.0290 C   0  0  0  0  0  0  0  0  0  0  0  0
   58.4290   29.8050   44.7680 C   0  0  0  0  0  0  0  0  0  0  0  0
   58.1750   28.6010   44.1440 C   0  0  0  0  0  0  0  0  0  0  0  0
   58.6600   27.3890   44.6600 C   0  0  0  0  0  0  0  0  0  0  0  0
   59.4070   27.3900   45.8150 C   0  0  0  0  0  0  0  0  0  0  0  0
   59.8950   26.0820   46.3220 C   0  0  0  0  0  0  0  0  0  0  0  0
   59.6600   28.5930   46.4370 C   0  0  0  0  0  0  0  0  0  0  0  0
   59.1850   29.8070   45.9380 C   0  0  0  0  0  0  0  0  0  0  0  0
   63.6051   32.2323   49.9614 H   0  0  0  0  0  0  0  0  0  0  0  0
   65.1327   32.0200   49.0406 H   0  0  0  0  0  0  0  0  0  0  0  0
   64.2976   33.6104   49.0406 H   0  0  0  0  0  0  0  0  0  0  0  0
   64.0605   32.0062   47.0024 H   0  0  0  0  0  0  0  0  0  0  0  0
   62.8777   31.1557   48.0742 H   0  0  0  0  0  0  0  0  0  0  0  0
   63.6193   34.6276   46.7507 H   0  0  0  0  0  0  0  0  0  0  0  0
   63.5521   33.1276   45.7647 H   0  0  0  0  0  0  0  0  0  0  0  0
   62.1622   34.2654   45.7647 H   0  0  0  0  0  0  0  0  0  0  0  0
   63.0279   33.9613   49.3117 H   0  0  0  0  0  0  0  0  0  0  0  0
   62.1401   35.0579   48.1689 H   0  0  0  0  0  0  0  0  0  0  0  0
   60.3039   34.7488   49.3652 H   0  0  0  0  0  0  0  0  0  0  0  0
   60.3535   32.9977   48.8727 H   0  0  0  0  0  0  0  0  0  0  0  0
   60.8850   31.5614   51.4562 H   0  0  0  0  0  0  0  0  0  0  0  0
   59.6341   32.7947   51.9264 H   0  0  0  0  0  0  0  0  0  0  0  0
   58.4380   31.5596   50.5376 H   0  0  0  0  0  0  0  0  0  0  0  0
   59.2688   32.7784   49.3711 H   0  0  0  0  0  0  0  0  0  0  0  0
   60.6466   30.3577   49.6433 H   0  0  0  0  0  0  0  0  0  0  0  0
   58.8429   30.2927   48.9980 H   0  0  0  0  0  0  0  0  0  0  0  0
   61.2510   31.2290   47.6660 H   0  0  0  0  0  0  0  0  0  0  0  0
   59.8034   33.4272   47.4704 H   0  0  0  0  0  0  0  0  0  0  0  0
   59.0106   35.5304   46.5048 H   0  0  0  0  0  0  0  0  0  0  0  0
   57.6540   35.4574   44.4065 H   0  0  0  0  0  0  0  0  0  0  0  0
   57.1670   33.2495   43.3796 H   0  0  0  0  0  0  0  0  0  0  0  0
   56.0875   31.0966   43.2999 H   0  0  0  0  0  0  0  0  0  0  0  0
   57.4595   31.8700   42.4361 H   0  0  0  0  0  0  0  0  0  0  0  0
   57.2918   30.0815   42.4361 H   0  0  0  0  0  0  0  0  0  0  0  0
   57.5782   28.5906   43.2201 H   0  0  0  0  0  0  0  0  0  0  0  0
   58.4436   26.4425   44.1429 H   0  0  0  0  0  0  0  0  0  0  0  0
   59.8917   26.0908   47.4220 H   0  0  0  0  0  0  0  0  0  0  0  0
   59.2359   25.2793   45.9598 H   0  0  0  0  0  0  0  0  0  0  0  0
   60.9188   25.9072   45.9598 H   0  0  0  0  0  0  0  0  0  0  0  0
   60.2580   28.5970   47.3603 H   0  0  0  0  0  0  0  0  0  0  0  0
  1  2  1  0
  2  3  1  0
  3  4  1  0
  3  5  1  0
  5  6  1  0
  6  7  1  0
  7  8  1  0
  8  9  1  0
  9 10  1  0
 10 11  1  0
 11 12  1  0
 12 13  2  0
 13 14  1  0
 14 15  2  0
 15 16  1  0
 16 17  2  0
 17 18  1  0
 18 19  2  0
 19 20  1  0
 19 21  1  0
 21 22  2  0
 22 23  1  0
 23 24  2  0
 24 25  1  0
 24 26  1  0
 26 27  2  0
 27 12  1  0
 18 13  1  0
 27 21  1  0
  1 28  1  0
  1 29  1  0
  1 30  1  0
  2 31  1  0
  2 32  1  0
  4 33  1  0
  4 34  1  0
  4 35  1  0
  5 36  1  0
  5 37  1  0
  6 38  1  0
  6 39  1  0
  8 40  1  0
  8 41  1  0
  9 42  1  0
  9 43  1  0
 10 44  1  0
 10 45  1  0
 11 46  1  0
 14 47  1  0
 15 48  1  0
 16 49  1  0
 17 50  1  0
 20 51  1  0
 20 52  1  0
 20 53  1  0
 22 54  1  0
 23 55  1  0
 25 56  1  0
 25 57  1  0
 25 58  1  0
 26 59  1  0
M  CHG  1  19   1
M  END
>  <smiles>  (4) 
CCN(C)CCOCCCNc1c2ccccc2[n+](C)c2ccc(C)cc12

>  <score_type>  (4) 
oracle

>  <origin>  (4) 
adg

>  <m_score__min__energy>  (4) 
-5.6699999999999999

>  <m_primary>  (4) 
energy

$$$$
4:0
     RDKit          3D

 42 44  0  0  0  0  0  0  0  0999 V2000
   58.9630   29.7910   49.5520 C   0  0  0  0  0  0  0  0  0  0  0  0
   58.9820   29.7850   48.0530 C   0  0  0  0  0  0  0  0  0  0  0  0
   58.5200   30.9640   47.4490 O   0  0  0  0  0  0  0  0  0  0  0  0
   59.3880   31.9910   47.1620 C   0  0  0  0  0  0  0  0  0  0  0  0
   60.7000   32.0510   47.5730 C   0  0  0  0  0  0  0  0  0  0  0  0
   61.5540   33.0910   47.2750 C   0  0  0  0  0  0  0  0  0  0  0  0
   61.0990   34.1610   46.5170 C   0  0  0  0  0  0  0  0  0  0  0  0
   59.7930   34.1330   46.0910 C   0  0  0  0  0  0  0  0  0  0  0  0
   58.9360   33.0750   46.3970 C   0  0  0  0  0  0  0  0  0  0  0  0
   57.5320   33.0570   45.9570 C   0  0  0  0  0  0  0  0  0  0  0  0
   57.4360   33.3610   44.5690 N   0  0  0  0  0  0  0  0  0  0  0  0
   57.7660   32.2810   43.6680 C   0  0  0  0  0  0  0  0  0  0  0  0
   57.3030   30.9640   44.2390 C   0  0  0  0  0  0  0  0  0  0  0  0
   56.0090   30.6760   44.4960 N   0  0  0  0  0  0  0  0  0  0  0  0
   55.9280   29.4370   45.0030 N   0  0  0  0  0  0  0  0  0  0  0  0
   57.1800   28.9590   45.0600 C   0  0  0  0  0  0  0  0  0  0  0  0
   57.6890   27.7240   45.5020 C   0  0  0  0  0  0  0  0  0  0  0  0
   56.6850   26.7400   46.0160 C   0  0  0  0  0  0  0  0  0  0  0  0
   59.0410   27.4540   45.4630 C   0  0  0  0  0  0  0  0  0  0  0  0
   59.8590   28.4480   44.9750 C   0  0  0  0  0  0  0  0  0  0  0  0
   59.3690   29.6650   44.5380 C   0  0  0  0  0  0  0  0  0  0  0  0
   58.0560   29.8980   44.5870 N   0  0  0  0  0  0  0  0  0  0  0  0
   59.9472   29.4801   49.9324 H   0  0  0  0  0  0  0  0  0  0  0  0
   58.7345   30.8051   49.9117 H   0  0  0  0  0  0  0  0  0  0  0  0
   58.1934   29.0922   49.9117 H   0  0  0  0  0  0  0  0  0  0  0  0
   60.0187   29.6176   47.7256 H   0  0  0  0  0  0  0  0  0  0  0  0
   58.2909   28.9884   47.7402 H   0  0  0  0  0  0  0  0  0  0  0  0
   61.0909   31.2182   48.1761 H   0  0  0  0  0  0  0  0  0  0  0  0
   62.5927   33.0731   47.6367 H   0  0  0  0  0  0  0  0  0  0  0  0
   61.7613   35.0026   46.2659 H   0  0  0  0  0  0  0  0  0  0  0  0
   59.4109   34.9711   45.4897 H   0  0  0  0  0  0  0  0  0  0  0  0
   57.1096   32.0576   46.1379 H   0  0  0  0  0  0  0  0  0  0  0  0
   56.9735   33.8157   46.5249 H   0  0  0  0  0  0  0  0  0  0  0  0
   57.8870   34.2650   44.3040 H   0  0  0  0  0  0  0  0  0  0  0  0
   57.2710   32.4513   42.7005 H   0  0  0  0  0  0  0  0  0  0  0  0
   58.8571   32.2487   43.5321 H   0  0  0  0  0  0  0  0  0  0  0  0
   56.6934   26.7482   47.1159 H   0  0  0  0  0  0  0  0  0  0  0  0
   55.6832   27.0158   45.6549 H   0  0  0  0  0  0  0  0  0  0  0  0
   56.9405   25.7329   45.6549 H   0  0  0  0  0  0  0  0  0  0  0  0
   59.4463   26.4905   45.8055 H   0  0  0  0  0  0  0  0  0  0  0  0
   60.9432   28.2673   44.9311 H   0  0  0  0  0  0  0  0  0  0  0  0
   60.0552   30.4339   44.1535 H   0  0  0  0  0  0  0  0  0  0  0  0
  1  2  1  0
  2  3  1  0
  3  4  1  0
  4  5  2  0
  5  6  1  0
  6  7  2  0
  7  8  1  0
  8  9  2  0
  9 10  1  0
 10 11  1  0
 11 12  1  0
 12 13  1  0
 13 14  2  0
 14 15  1  0
 15 16  2  0
 16 17  1  0
 17 18  1  0
 17 19  2  0
 19 20  1  0
 20 21  2  0
 21 22  1  0
  9  4  1  0
 22 13  1  0
 22 16  1  0
  1 23  1  0
  1 24  1  0
  1 25  1  0
  2 26  1  0
  2 27  1  0
  5 28  1  0
  6 29  1  0
  7 30  1  0
  8 31  1  0
 10 32  1  0
 10 33  1  0
 11 34  1  0
 12 35  1  0
 12 36  1  0
 18 37  1  0
 18 38  1  0
 18 39  1  0
 19 40  1  0
 20 41  1  0
 21 42  1  0
M  END
>  <smiles>  (5) 
CCOc1ccccc1CNCc1nnc2c(C)cccn12

>  <score_type>  (5) 
oracle

>  <origin>  (5) 
adg

>  <m_score__min__energy>  (5) 
-7.5499999999999998

>  <m_primary>  (5) 
energy

$$$$
5:0
     RDKit          3D

 46 49  0  0  0  0  0  0  0  0999 V2000
   56.4010   30.0200   42.8840 C   0  0  0  0  0  0  0  0  0  0  0  0
   55.4680   29.9960   44.1030 C   0  0  0  0  0  0  0  0  0  0  0  0
   55.8840   28.9330   44.9590 N   0  0  0  0  0  0  0  0  0  0  0  0
   57.1780   28.3610   44.6490 C   0  0  0  0  0  0  0  0  0  0  0  0
   58.2340   29.0360   45.4580 C   0  0  0  0  0  0  0  0  0  0  0  0
   57.8410   30.1770   46.2070 N   0  0  0  0  0  0  0  0  0  0  0  0
   58.7270   31.1610   46.7220 C   0  0  0  0  0  0  0  0  0  0  0  0
   58.7050   32.4180   46.1470 C   0  0  0  0  0  0  0  0  0  0  0  0
   57.8490   32.6440   45.1220 C   0  0  0  0  0  0  0  0  0  0  0  0
   57.8230   33.8820   44.5260 C   0  0  0  0  0  0  0  0  0  0  0  0
   58.6860   34.8280   45.0170 C   0  0  0  0  0  0  0  0  0  0  0  0
   59.5630   34.5850   46.0710 C   0  0  0  0  0  0  0  0  0  0  0  0
   59.5950   33.3260   46.6870 C   0  0  0  0  0  0  0  0  0  0  0  0
   60.4400   33.0820   47.6870 N   0  0  0  0  0  0  0  0  0  0  0  0
   61.2370   34.1750   48.1900 C   0  0  0  0  0  0  0  0  0  0  0  0
   60.4900   31.8230   48.2850 C   0  0  0  0  0  0  0  0  0  0  0  0
   59.6070   30.9560   47.7370 C   0  0  0  0  0  0  0  0  0  0  0  0
   59.7700   29.4020   48.5720 S   0  0  0  0  0  0  0  0  0  0  0  0
   61.0830   30.0430   49.6570 C   0  0  0  0  0  0  0  0  0  0  0  0
   61.7580   29.3460   50.6290 C   0  0  0  0  0  0  0  0  0  0  0  0
   62.7520   29.9810   51.3520 C   0  0  0  0  0  0  0  0  0  0  0  0
   62.9860   31.2810   51.0310 C   0  0  0  0  0  0  0  0  0  0  0  0
   62.2980   31.9810   50.0460 C   0  0  0  0  0  0  0  0  0  0  0  0
   61.2780   31.3620   49.2950 C   0  0  0  0  0  0  0  0  0  0  0  0
   57.4470   30.0469   43.2233 H   0  0  0  0  0  0  0  0  0  0  0  0
   56.2353   29.1173   42.2776 H   0  0  0  0  0  0  0  0  0  0  0  0
   56.1891   30.9130   42.2776 H   0  0  0  0  0  0  0  0  0  0  0  0
   55.5317   30.9538   44.6401 H   0  0  0  0  0  0  0  0  0  0  0  0
   54.4269   29.8422   43.7830 H   0  0  0  0  0  0  0  0  0  0  0  0
   55.1460   28.1690   44.8680 H   0  0  0  0  0  0  0  0  0  0  0  0
   57.1684   27.2865   44.8842 H   0  0  0  0  0  0  0  0  0  0  0  0
   57.3921   28.5037   43.5795 H   0  0  0  0  0  0  0  0  0  0  0  0
   58.6336   28.2954   46.1664 H   0  0  0  0  0  0  0  0  0  0  0  0
   58.9602   29.4129   44.7228 H   0  0  0  0  0  0  0  0  0  0  0  0
   56.8130   30.3520   46.4290 H   0  0  0  0  0  0  0  0  0  0  0  0
   57.1809   31.8442   44.7699 H   0  0  0  0  0  0  0  0  0  0  0  0
   57.1405   34.1042   43.6924 H   0  0  0  0  0  0  0  0  0  0  0  0
   58.6854   35.8268   44.5561 H   0  0  0  0  0  0  0  0  0  0  0  0
   60.2331   35.3838   46.4216 H   0  0  0  0  0  0  0  0  0  0  0  0
   61.2265   34.1606   49.2899 H   0  0  0  0  0  0  0  0  0  0  0  0
   62.2717   34.0695   47.8318 H   0  0  0  0  0  0  0  0  0  0  0  0
   60.8203   35.1279   47.8318 H   0  0  0  0  0  0  0  0  0  0  0  0
   61.5107   28.2933   50.8307 H   0  0  0  0  0  0  0  0  0  0  0  0
   63.3195   29.4644   52.1401 H   0  0  0  0  0  0  0  0  0  0  0  0
   63.7712   31.8143   51.5870 H   0  0  0  0  0  0  0  0  0  0  0  0
   62.5533   33.0329   49.8499 H   0  0  0  0  0  0  0  0  0  0  0  0
  1  2  1  0
  2  3  1  0
  3  4  1  0
  4  5  1  0
  5  6  1  0
  6  7  1  0
  7  8  2  0
  8  9  1  0
  9 10  2  0
 10 11  1  0
 11 12  2  0
 12 13  1  0
 13 14  2  0
 14 15  1  0
 14 16  1  0
 16 17  2  0
 17 18  1  0
 18 19  1  0
 19 20  2  0
 20 21  1  0
 21 22  2  0
 22 23  1  0
 23 24  2  0
 17  7  1  0
 24 19  1  0
 13  8  1  0
 24 16  1  0
  1 25  1  0
  1 26  1  0
  1 27  1  0
  2 28  1  0
  2 29  1  0
  3 30  1  0
  4 31  1  0
  4 32  1  0
  5 33  1  0
  5 34  1  0
  6 35  1  0
  9 36  1  0
 10 37  1  0
 11 38  1  0
 12 39  1  0
 15 40  1  0
 15 41  1  0
 15 42  1  0
 20 43  1  0
 21 44  1  0
 22 45  1  0
 23 46  1  0
M  CHG  1  14   1
M  END
>  <smiles>  (6) 
CCNCCNc1c2ccccc2[n+](C)c2c1sc1ccccc12

>  <score_type>  (6) 
oracle

>  <origin>  (6) 
adg

>  <m_score__min__energy>  (6) 
-6.2999999999999998

>  <m_primary>  (6) 
energy

$$$$
6:0
     RDKit          3D

 36 36  0  0  0  0  0  0  0  0999 V2000
   63.7000   33.3910   47.1310 C   0  0  0  0  0  0  0  0  0  0  0  0
   62.5550   33.7430   48.0250 C   0  0  0  0  0  0  0  0  0  0  0  0
   61.2300   33.8860   47.3080 C   0  0  0  0  0  0  0  0  0  0  0  0
   60.1920   34.5670   48.1240 C   0  0  0  0  0  0  0  0  0  0  0  0
   59.2480   35.2160   47.2040 N   0  0  0  0  0  0  0  0  0  0  0  0
   59.3270   34.5920   45.8940 C   0  0  0  0  0  0  0  0  0  0  0  0
   57.9860   34.1980   45.3240 C   0  0  0  0  0  0  0  0  0  0  0  0
   58.0140   32.7370   45.2730 N   0  0  0  0  0  0  0  0  0  0  0  0
   59.0720   32.1480   45.9050 C   0  0  0  0  0  0  0  0  0  0  0  0
   59.2260   30.7690   45.9190 C   0  0  0  0  0  0  0  0  0  0  0  0
   58.2820   30.0070   45.2810 C   0  0  0  0  0  0  0  0  0  0  0  0
   57.2300   30.6440   44.6580 C   0  0  0  0  0  0  0  0  0  0  0  0
   56.2080   29.8100   43.9680 C   0  0  0  0  0  0  0  0  0  0  0  0
   55.1920   29.4440   44.8800 O   0  0  0  0  0  0  0  0  0  0  0  0
   57.0810   32.0120   44.6430 C   0  0  0  0  0  0  0  0  0  0  0  0
   64.5738   33.1224   47.7428 H   0  0  0  0  0  0  0  0  0  0  0  0
   63.4205   32.5373   46.4961 H   0  0  0  0  0  0  0  0  0  0  0  0
   63.9483   34.2543   46.4961 H   0  0  0  0  0  0  0  0  0  0  0  0
   62.4535   32.9525   48.7832 H   0  0  0  0  0  0  0  0  0  0  0  0
   62.7856   34.7256   48.4624 H   0  0  0  0  0  0  0  0  0  0  0  0
   61.3910   34.4697   46.3896 H   0  0  0  0  0  0  0  0  0  0  0  0
   60.8633   32.8711   47.0945 H   0  0  0  0  0  0  0  0  0  0  0  0
   59.6618   33.8300   48.7450 H   0  0  0  0  0  0  0  0  0  0  0  0
   60.6544   35.3127   48.7874 H   0  0  0  0  0  0  0  0  0  0  0  0
   59.4950   36.2140   47.0570 H   0  0  0  0  0  0  0  0  0  0  0  0
   59.8037   35.3006   45.2007 H   0  0  0  0  0  0  0  0  0  0  0  0
   59.9077   33.6657   46.0153 H   0  0  0  0  0  0  0  0  0  0  0  0
   57.1710   34.5471   45.9751 H   0  0  0  0  0  0  0  0  0  0  0  0
   57.8095   34.6438   44.3340 H   0  0  0  0  0  0  0  0  0  0  0  0
   59.8164   32.7790   46.4127 H   0  0  0  0  0  0  0  0  0  0  0  0
   60.0815   30.3006   46.4277 H   0  0  0  0  0  0  0  0  0  0  0  0
   58.3622   28.9100   45.2664 H   0  0  0  0  0  0  0  0  0  0  0  0
   55.7661   30.3846   43.1406 H   0  0  0  0  0  0  0  0  0  0  0  0
   56.6869   28.9012   43.5746 H   0  0  0  0  0  0  0  0  0  0  0  0
   55.1450   30.0880   45.6190 H   0  0  0  0  0  0  0  0  0  0  0  0
   56.2307   32.4901   44.1346 H   0  0  0  0  0  0  0  0  0  0  0  0
  1  2  1  0
  2  3  1  0
  3  4  1  0
  4  5  1  0
  5  6  1  0
  6  7  1  0
  7  8  1  0
  8  9  2  0
  9 10  1  0
 10 11  2  0
 11 12  1  0
 12 13  1  0
 13 14  1  0
 12 15  2  0
 15  8  1  0
  1 16  1  0
  1 17  1  0
  1 18  1  0
  2 19  1  0
  2 20  1  0
  3 21  1  0
  3 22  1  0
  4 23  1  0
  4 24  1  0
  5 25  1  0
  6 26  1  0
  6 27  1  0
  7 28  1  0
  7 29  1  0
  9 30  1  0
 10 31  1  0
 11 32  1  0
 13 33  1  0
 13 34  1  0
 14 35  1  0
 15 36  1  0
M  CHG  1   8   1
M  END
>  <smiles>  (7) 
CCCCNCC[n+]1cccc(CO)c1

>  <score_type>  (7) 
oracle

>  <origin>  (7) 
adg

>  <m_score__min__energy>  (7) 
-4.5099999999999998

>  <m_primary>  (7) 
energy

$$$$
7:0
     RDKit          3D

 65 67  0  0  0  0  0  0  0  0999 V2000
   61.8660   33.5440   49.6560 C   0  0  0  0  0  0  0  0  0  0  0  0
   62.0160   32.0710   49.3810 C   0  0  0  0  0  0  0  0  0  0  0  0
   62.0690   31.7290   48.0130 N   0  0  0  0  0  0  0  0  0  0  0  0
   62.3590   32.7560   47.0830 C   0  0  0  0  0  0  0  0  0  0  0  0
   63.8470   33.0430   46.9950 C   0  0  0  0  0  0  0  0  0  0  0  0
   61.1970   30.6760   47.5720 C   0  0  0  0  0  0  0  0  0  0  0  0
   60.1240   30.5300   48.5790 C   0  0  0  0  0  0  0  0  0  0  0  0
   58.8490   31.1240   48.2720 N   0  0  0  0  0  0  0  0  0  0  0  0
   58.6180   31.4750   46.9030 C   0  0  0  0  0  0  0  0  0  0  0  0
   58.9130   32.7690   46.4750 C   0  0  0  0  0  0  0  0  0  0  0  0
   59.3890   33.6870   47.3880 C   0  0  0  0  0  0  0  0  0  0  0  0
   59.6890   34.9860   47.0310 C   0  0  0  0  0  0  0  0  0  0  0  0
   59.4930   35.3360   45.7180 C   0  0  0  0  0  0  0  0  0  0  0  0
   59.0150   34.4260   44.7860 C   0  0  0  0  0  0  0  0  0  0  0  0
   58.7090   33.1070   45.1400 C   0  0  0  0  0  0  0  0  0  0  0  0
   58.2330   32.2260   44.2370 N   0  0  0  0  0  0  0  0  0  0  0  0
   58.0870   32.6870   42.8790 C   0  0  0  0  0  0  0  0  0  0  0  0
   57.9530   30.9960   44.6680 C   0  0  0  0  0  0  0  0  0  0  0  0
   57.4310   30.0770   43.7780 C   0  0  0  0  0  0  0  0  0  0  0  0
   57.0940   28.7870   44.1820 C   0  0  0  0  0  0  0  0  0  0  0  0
   57.2610   28.3590   45.4780 C   0  0  0  0  0  0  0  0  0  0  0  0
   56.9280   27.0510   45.9260 N   0  0  0  0  0  0  0  0  0  0  0  0
   57.5220   25.8390   45.4190 C   0  0  0  0  0  0  0  0  0  0  0  0
   56.6190   24.6630   45.3090 C   0  0  0  0  0  0  0  0  0  0  0  0
   55.5150   24.8370   46.2430 N   0  0  0  0  0  0  0  0  0  0  0  0
   55.6610   23.9580   47.3910 C   0  0  0  0  0  0  0  0  0  0  0  0
   54.2420   24.5450   45.5920 C   0  0  0  0  0  0  0  0  0  0  0  0
   57.7880   29.2950   46.3640 C   0  0  0  0  0  0  0  0  0  0  0  0
   58.1260   30.5750   45.9780 C   0  0  0  0  0  0  0  0  0  0  0  0
   61.8487   33.7142   50.7426 H   0  0  0  0  0  0  0  0  0  0  0  0
   62.7134   34.0878   49.2131 H   0  0  0  0  0  0  0  0  0  0  0  0
   60.9264   33.9059   49.2131 H   0  0  0  0  0  0  0  0  0  0  0  0
   62.9462   31.7266   49.8566 H   0  0  0  0  0  0  0  0  0  0  0  0
   61.1166   31.5858   49.7879 H   0  0  0  0  0  0  0  0  0  0  0  0
   61.9978   32.4483   46.0906 H   0  0  0  0  0  0  0  0  0  0  0  0
   61.8566   33.6733   47.4237 H   0  0  0  0  0  0  0  0  0  0  0  0
   64.2655   33.1237   48.0091 H   0  0  0  0  0  0  0  0  0  0  0  0
   64.3470   32.2247   46.4561 H   0  0  0  0  0  0  0  0  0  0  0  0
   64.0068   33.9885   46.4561 H   0  0  0  0  0  0  0  0  0  0  0  0
   60.7617   30.9343   46.5954 H   0  0  0  0  0  0  0  0  0  0  0  0
   61.7545   29.7340   47.4635 H   0  0  0  0  0  0  0  0  0  0  0  0
   59.9591   29.4534   48.7333 H   0  0  0  0  0  0  0  0  0  0  0  0
   60.4868   31.0771   49.4616 H   0  0  0  0  0  0  0  0  0  0  0  0
   58.0940   31.3110   48.9830 H   0  0  0  0  0  0  0  0  0  0  0  0
   59.5339   33.3741   48.4326 H   0  0  0  0  0  0  0  0  0  0  0  0
   60.0689   35.7099   47.7670 H   0  0  0  0  0  0  0  0  0  0  0  0
   59.7205   36.3632   45.3969 H   0  0  0  0  0  0  0  0  0  0  0  0
   58.8732   34.7490   43.7441 H   0  0  0  0  0  0  0  0  0  0  0  0
   57.7549   33.7357   42.8815 H   0  0  0  0  0  0  0  0  0  0  0  0
   59.0536   32.6097   42.3596 H   0  0  0  0  0  0  0  0  0  0  0  0
   57.3411   32.0674   42.3596 H   0  0  0  0  0  0  0  0  0  0  0  0
   57.2784   30.3700   42.7288 H   0  0  0  0  0  0  0  0  0  0  0  0
   56.6808   28.0880   43.4399 H   0  0  0  0  0  0  0  0  0  0  0  0
   56.1890   26.9790   46.6830 H   0  0  0  0  0  0  0  0  0  0  0  0
   57.9180   26.0534   44.4154 H   0  0  0  0  0  0  0  0  0  0  0  0
   58.2876   25.5551   46.1560 H   0  0  0  0  0  0  0  0  0  0  0  0
   56.2287   24.5899   44.2832 H   0  0  0  0  0  0  0  0  0  0  0  0
   57.1708   23.7415   45.5463 H   0  0  0  0  0  0  0  0  0  0  0  0
   55.5636   24.5444   48.3165 H   0  0  0  0  0  0  0  0  0  0  0  0
   54.8790   23.1850   47.3627 H   0  0  0  0  0  0  0  0  0  0  0  0
   56.6510   23.4793   47.3627 H   0  0  0  0  0  0  0  0  0  0  0  0
   53.4712   24.3682   46.3566 H   0  0  0  0  0  0  0  0  0  0  0  0
   53.9468   25.3988   44.9643 H   0  0  0  0  0  0  0  0  0  0  0  0
   54.3484   23.6479   44.9643 H   0  0  0  0  0  0  0  0  0  0  0  0
   57.9407   29.0019   47.4132 H   0  0  0  0  0  0  0  0  0  0  0  0
  1  2  1  0
  2  3  1  0
  3  4  1  0
  4  5  1  0
  3  6  1  0
  6  7  1  0
  7  8  1  0
  8  9  1  0
  9 10  2  0
 10 11  1  0
 11 12  2  0
 12 13  1  0
 13 14  2  0
 14 15  1  0
 15 16  2  0
 16 17  1  0
 16 18  1  0
 18 19  2  0
 19 20  1  0
 20 21  2  0
 21 22  1  0
 22 23  1  0
 23 24  1  0
 24 25  1  0
 25 26  1  0
 25 27  1  0
 21 28  1  0
 28 29  2  0
 29  9  1  0
 15 10  1  0
 29 18  1  0
  1 30  1  0
  1 31  1  0
  1 32  1  0
  2 33  1  0
  2 34  1  0
  4 35  1  0
  4 36  1  0
  5 37  1  0
  5 38  1  0
  5 39  1  0
  6 40  1  0
  6 41  1  0
  7 42  1  0
  7 43  1  0
  8 44  1  0
 11 45  1  0
 12 46  1  0
 13 47  1  0
 14 48  1  0
 17 49  1  0
 17 50  1  0
 17 51  1  0
 19 52  1  0
 20 53  1  0
 22 54  1  0
 23 55  1  0
 23 56  1  0
 24 57  1  0
 24 58  1  0
 26 59  1  0
 26 60  1  0
 26 61  1  0
 27 62  1  0
 27 63  1  0
 27 64  1  0
 28 65  1  0
M  CHG  1  16   1
M  END
>  <smiles>  (8) 
CCN(CC)CCNc1c2ccccc2[n+](C)c2ccc(NCCN(C)C)cc12

>  <score_type>  (8) 
oracle

>  <origin>  (8) 
adg

>  <m_score__min__energy>  (8) 
-6.25

>  <m_primary>  (8) 
energy

$$$$
8:0
     RDKit          3D

 56 58  0  0  0  0  0  0  0  0999 V2000
   57.7440   31.7770   43.0870 C   0  0  0  0  0  0  0  0  0  0  0  0
   57.3770   31.6450   44.5460 C   0  0  0  0  0  0  0  0  0  0  0  0
   56.7560   30.3660   44.8560 N   0  0  0  0  0  0  0  0  0  0  0  0
   55.8550   30.0180   43.7440 C   0  0  0  0  0  0  0  0  0  0  0  0
   57.7430   29.3010   44.8770 C   0  0  0  0  0  0  0  0  0  0  0  0
   58.0710   28.8370   46.2550 C   0  0  0  0  0  0  0  0  0  0  0  0
   58.2720   29.8960   47.1110 O   0  0  0  0  0  0  0  0  0  0  0  0
   59.5260   29.9200   47.6820 C   0  0  0  0  0  0  0  0  0  0  0  0
   59.5740   29.7050   49.1580 C   0  0  0  0  0  0  0  0  0  0  0  0
   58.7740   30.8160   49.7970 C   0  0  0  0  0  0  0  0  0  0  0  0
   59.5920   31.9780   50.1420 N   0  0  0  0  0  0  0  0  0  0  0  0
   60.5260   32.5100   49.2070 C   0  0  0  0  0  0  0  0  0  0  0  0
   60.0640   33.1510   48.0630 C   0  0  0  0  0  0  0  0  0  0  0  0
   58.7070   33.2870   47.8600 C   0  0  0  0  0  0  0  0  0  0  0  0
   58.1780   33.9200   46.7500 C   0  0  0  0  0  0  0  0  0  0  0  0
   59.0760   34.4180   45.8350 C   0  0  0  0  0  0  0  0  0  0  0  0
   60.4420   34.2990   46.0080 C   0  0  0  0  0  0  0  0  0  0  0  0
   60.9580   33.6610   47.1300 C   0  0  0  0  0  0  0  0  0  0  0  0
   62.2900   33.5710   47.2700 N   0  0  0  0  0  0  0  0  0  0  0  0
   63.2600   34.0690   46.3520 C   0  0  0  0  0  0  0  0  0  0  0  0
   62.7590   32.9490   48.3860 C   0  0  0  0  0  0  0  0  0  0  0  0
   64.1300   32.8480   48.5960 C   0  0  0  0  0  0  0  0  0  0  0  0
   64.6720   32.2520   49.7150 C   0  0  0  0  0  0  0  0  0  0  0  0
   63.8060   31.7420   50.6540 C   0  0  0  0  0  0  0  0  0  0  0  0
   62.4300   31.8330   50.4610 C   0  0  0  0  0  0  0  0  0  0  0  0
   61.4380   31.1990   51.7600 Cl  0  0  0  0  0  0  0  0  0  0  0  0
   61.8910   32.4260   49.3440 C   0  0  0  0  0  0  0  0  0  0  0  0
   58.7759   32.1481   43.0006 H   0  0  0  0  0  0  0  0  0  0  0  0
   57.6657   30.7944   42.5989 H   0  0  0  0  0  0  0  0  0  0  0  0
   57.0577   32.4846   42.5989 H   0  0  0  0  0  0  0  0  0  0  0  0
   58.2910   31.7477   45.1494 H   0  0  0  0  0  0  0  0  0  0  0  0
   56.6459   32.4337   44.7771 H   0  0  0  0  0  0  0  0  0  0  0  0
   54.9003   29.6493   44.1473 H   0  0  0  0  0  0  0  0  0  0  0  0
   55.6723   30.9102   43.1271 H   0  0  0  0  0  0  0  0  0  0  0  0
   56.3195   29.2346   43.1271 H   0  0  0  0  0  0  0  0  0  0  0  0
   57.3502   28.4480   44.3042 H   0  0  0  0  0  0  0  0  0  0  0  0
   58.6679   29.7012   44.4361 H   0  0  0  0  0  0  0  0  0  0  0  0
   57.2389   28.2250   46.6333 H   0  0  0  0  0  0  0  0  0  0  0  0
   59.0003   28.2503   46.2088 H   0  0  0  0  0  0  0  0  0  0  0  0
   60.1279   29.1315   47.2067 H   0  0  0  0  0  0  0  0  0  0  0  0
   59.9091   30.9378   47.5167 H   0  0  0  0  0  0  0  0  0  0  0  0
   59.1335   28.7294   49.4114 H   0  0  0  0  0  0  0  0  0  0  0  0
   60.6125   29.7131   49.5204 H   0  0  0  0  0  0  0  0  0  0  0  0
   57.9905   31.1342   49.0935 H   0  0  0  0  0  0  0  0  0  0  0  0
   58.3482   30.4219   50.7315 H   0  0  0  0  0  0  0  0  0  0  0  0
   59.4710   32.3970   51.0800 H   0  0  0  0  0  0  0  0  0  0  0  0
   58.0172   32.8753   48.6114 H   0  0  0  0  0  0  0  0  0  0  0  0
   57.0921   34.0203   46.6060 H   0  0  0  0  0  0  0  0  0  0  0  0
   58.6950   34.9270   44.9373 H   0  0  0  0  0  0  0  0  0  0  0  0
   61.1260   34.7123   45.2521 H   0  0  0  0  0  0  0  0  0  0  0  0
   64.1037   34.5022   46.9092 H   0  0  0  0  0  0  0  0  0  0  0  0
   63.6226   33.2456   45.7192 H   0  0  0  0  0  0  0  0  0  0  0  0
   62.8022   34.8436   45.7192 H   0  0  0  0  0  0  0  0  0  0  0  0
   64.8109   33.2611   47.8372 H   0  0  0  0  0  0  0  0  0  0  0  0
   65.7614   32.1865   49.8523 H   0  0  0  0  0  0  0  0  0  0  0  0
   64.2017   31.2606   51.5605 H   0  0  0  0  0  0  0  0  0  0  0  0
  1  2  1  0
  2  3  1  0
  3  4  1  0
  3  5  1  0
  5  6  1  0
  6  7  1  0
  7  8  1  0
  8  9  1  0
  9 10  1  0
 10 11  1  0
 11 12  1  0
 12 13  2  0
 13 14  1  0
 14 15  2  0
 15 16  1  0
 16 17  2  0
 17 18  1  0
 18 19  2  0
 19 20  1  0
 19 21  1  0
 21 22  2  0
 22 23  1  0
 23 24  2  0
 24 25  1  0
 25 26  1  0
 25 27  2  0
 27 12  1  0
 18 13  1  0
 27 21  1  0
  1 28  1  0
  1 29  1  0
  1 30  1  0
  2 31  1  0
  2 32  1  0
  4 33  1  0
  4 34  1  0
  4 35  1  0
  5 36  1  0
  5 37  1  0
  6 38  1  0
  6 39  1  0
  8 40  1  0
  8 41  1  0
  9 42  1  0
  9 43  1  0
 10 44  1  0
 10 45  1  0
 11 46  1  0
 14 47  1  0
 15 48  1  0
 16 49  1  0
 17 50  1  0
 20 51  1  0
 20 52  1  0
 20 53  1  0
 22 54  1  0
 23 55  1  0
 24 56  1  0
M  CHG  1  19   1
M  END
>  <smiles>  (9) 
CCN(C)CCOCCCNc1c2ccccc2[n+](C)c2cccc(Cl)c12

>  <score_type>  (9) 
oracle

>  <origin>  (9) 
adg

>  <m_score__min__energy>  (9) 
-5.7699999999999996

>  <m_primary>  (9) 
energy

$$$$
9:0
     RDKit          3D

 48 49  0  0  0  0  0  0  0  0999 V2000
   56.1280   24.0750   47.2180 C   0  0  0  0  0  0  0  0  0  0  0  0
   55.4130   24.9960   46.3750 N   0  0  0  0  0  0  0  0  0  0  0  0
   54.6590   24.3920   45.3280 C   0  0  0  0  0  0  0  0  0  0  0  0
   56.1990   26.1450   45.9760 C   0  0  0  0  0  0  0  0  0  0  0  0
   57.5910   25.7670   45.5280 C   0  0  0  0  0  0  0  0  0  0  0  0
   58.5730   26.8660   45.9480 C   0  0  0  0  0  0  0  0  0  0  0  0
   58.1480   28.1250   45.2410 C   0  0  0  0  0  0  0  0  0  0  0  0
   57.9390   27.9160   43.7510 C   0  0  0  0  0  0  0  0  0  0  0  0
   56.9600   28.9580   43.2970 C   0  0  0  0  0  0  0  0  0  0  0  0
   57.0710   30.2120   44.0970 C   0  0  0  0  0  0  0  0  0  0  0  0
   56.1030   30.5090   44.8140 O   0  0  0  0  0  0  0  0  0  0  0  0
   58.2270   31.0080   44.0280 N   0  0  0  0  0  0  0  0  0  0  0  0
   58.4510   32.2140   44.7350 C   0  0  0  0  0  0  0  0  0  0  0  0
   58.4170   33.4650   44.1620 C   0  0  0  0  0  0  0  0  0  0  0  0
   58.6370   34.6370   44.8880 C   0  0  0  0  0  0  0  0  0  0  0  0
   58.9000   34.5910   46.2300 C   0  0  0  0  0  0  0  0  0  0  0  0
   58.9370   33.3370   46.8210 C   0  0  0  0  0  0  0  0  0  0  0  0
   59.2040   33.3290   48.1770 C   0  0  0  0  0  0  0  0  0  0  0  0
   59.2590   32.1340   48.8490 C   0  0  0  0  0  0  0  0  0  0  0  0
   59.0510   30.9560   48.1780 C   0  0  0  0  0  0  0  0  0  0  0  0
   58.7840   30.9940   46.8110 C   0  0  0  0  0  0  0  0  0  0  0  0
   58.7180   32.1700   46.0960 C   0  0  0  0  0  0  0  0  0  0  0  0
   55.9376   24.3203   48.2733 H   0  0  0  0  0  0  0  0  0  0  0  0
   55.7871   23.0495   47.0126 H   0  0  0  0  0  0  0  0  0  0  0  0
   57.2060   24.1511   47.0126 H   0  0  0  0  0  0  0  0  0  0  0  0
   53.8701   23.7600   45.7618 H   0  0  0  0  0  0  0  0  0  0  0  0
   54.2008   25.1758   44.7069 H   0  0  0  0  0  0  0  0  0  0  0  0
   55.3239   23.7738   44.7069 H   0  0  0  0  0  0  0  0  0  0  0  0
   55.6864   26.6515   45.1449 H   0  0  0  0  0  0  0  0  0  0  0  0
   56.2973   26.8029   46.8521 H   0  0  0  0  0  0  0  0  0  0  0  0
   57.8822   24.8152   45.9963 H   0  0  0  0  0  0  0  0  0  0  0  0
   57.6087   25.6549   44.4339 H   0  0  0  0  0  0  0  0  0  0  0  0
   58.5338   27.0123   47.0375 H   0  0  0  0  0  0  0  0  0  0  0  0
   59.6053   26.5944   45.6824 H   0  0  0  0  0  0  0  0  0  0  0  0
   57.2040   28.4760   45.6834 H   0  0  0  0  0  0  0  0  0  0  0  0
   58.9532   28.8643   45.3641 H   0  0  0  0  0  0  0  0  0  0  0  0
   58.8924   28.0340   43.2152 H   0  0  0  0  0  0  0  0  0  0  0  0
   57.5601   26.9040   43.5451 H   0  0  0  0  0  0  0  0  0  0  0  0
   57.1546   29.1922   42.2400 H   0  0  0  0  0  0  0  0  0  0  0  0
   55.9456   28.5552   43.4338 H   0  0  0  0  0  0  0  0  0  0  0  0
   58.9770   30.6380   43.3740 H   0  0  0  0  0  0  0  0  0  0  0  0
   58.2074   33.5448   43.0851 H   0  0  0  0  0  0  0  0  0  0  0  0
   58.5984   35.6093   44.3749 H   0  0  0  0  0  0  0  0  0  0  0  0
   59.0742   35.5070   46.8135 H   0  0  0  0  0  0  0  0  0  0  0  0
   59.3713   34.2744   48.7139 H   0  0  0  0  0  0  0  0  0  0  0  0
   59.4704   32.1207   49.9284 H   0  0  0  0  0  0  0  0  0  0  0  0
   59.0943   29.9950   48.7114 H   0  0  0  0  0  0  0  0  0  0  0  0
   58.6189   30.0449   46.2801 H   0  0  0  0  0  0  0  0  0  0  0  0
  1  2  1  0
  2  3  1  0
  2  4  1  0
  4  5  1  0
  5  6  1  0
  6  7  1  0
  7  8  1  0
  8  9  1  0
  9 10  1  0
 10 11  2  0
 10 12  1  0
 12 13  1  0
 13 14  2  0
 14 15  1  0
 15 16  2  0
 16 17  1  0
 17 18  2  0
 18 19  1  0
 19 20  2  0
 20 21  1  0
 21 22  2  0
 22 13  1  0
 22 17  1  0
  1 23  1  0
  1 24  1  0
  1 25  1  0
  3 26  1  0
  3 27  1  0
  3 28  1  0
  4 29  1  0
  4 30  1  0
  5 31  1  0
  5 32  1  0
  6 33  1  0
  6 34  1  0
  7 35  1  0
  7 36  1  0
  8 37  1  0
  8 38  1  0
  9 39  1  0
  9 40  1  0
 12 41  1  0
 14 42  1  0
 15 43  1  0
 16 44  1  0
 18 45  1  0
 19 46  1  0
 20 47  1  0
 21 48  1  0
M  END
>  <smiles>  (10) 
CN(C)CCCCCCC(=O)Nc1cccc2ccccc12

>  <score_type>  (10) 
oracle

>  <origin>  (10) 
adg

>  <m_score__min__energy>  (10) 
-7.6600000000000001

>  <m_primary>  (10) 
energy

$$$$
10:0
     RDKit          3D

 48 49  0  0  0  0  0  0  0  0999 V2000
   61.7570   30.8940   47.1330 C   0  0  0  0  0  0  0  0  0  0  0  0
   62.8680   31.8230   47.5140 C   0  0  0  0  0  0  0  0  0  0  0  0
   62.5030   33.1790   47.7340 N   0  0  0  0  0  0  0  0  0  0  0  0
   63.3880   34.1780   47.2560 C   0  0  0  0  0  0  0  0  0  0  0  0
   62.1310   33.3860   49.1020 C   0  0  0  0  0  0  0  0  0  0  0  0
   60.6420   33.2220   49.3340 C   0  0  0  0  0  0  0  0  0  0  0  0
   59.8560   34.0000   48.4080 N   0  0  0  0  0  0  0  0  0  0  0  0
   59.1940   33.3170   47.3560 C   0  0  0  0  0  0  0  0  0  0  0  0
   58.7920   32.0090   47.5060 C   0  0  0  0  0  0  0  0  0  0  0  0
   58.1590   31.2770   46.5280 C   0  0  0  0  0  0  0  0  0  0  0  0
   57.9070   31.8880   45.3080 C   0  0  0  0  0  0  0  0  0  0  0  0
   57.1100   30.9270   44.0900 S   0  0  0  0  0  0  0  0  0  0  0  0
   57.0890   31.7260   42.8230 O   0  0  0  0  0  0  0  0  0  0  0  0
   55.7110   30.6480   44.5270 O   0  0  0  0  0  0  0  0  0  0  0  0
   57.9610   29.4680   43.7540 N   0  0  0  0  0  0  0  0  0  0  0  0
   58.4280   28.6750   44.8230 C   0  0  0  0  0  0  0  0  0  0  0  0
   59.8200   28.6080   44.9760 C   0  0  0  0  0  0  0  0  0  0  0  0
   60.3460   27.8570   46.0030 C   0  0  0  0  0  0  0  0  0  0  0  0
   59.5460   27.1650   46.8880 C   0  0  0  0  0  0  0  0  0  0  0  0
   58.1670   27.2430   46.7210 C   0  0  0  0  0  0  0  0  0  0  0  0
   57.6120   27.9940   45.6930 C   0  0  0  0  0  0  0  0  0  0  0  0
   58.2960   33.1950   45.1220 C   0  0  0  0  0  0  0  0  0  0  0  0
   58.9390   33.9130   46.1390 C   0  0  0  0  0  0  0  0  0  0  0  0
   59.2880   35.2490   45.8320 N   0  0  0  0  0  0  0  0  0  0  0  0
   59.6410   36.1060   46.6560 O   0  0  0  0  0  0  0  0  0  0  0  0
   59.2360   35.6790   44.5050 O   0  0  0  0  0  0  0  0  0  0  0  0
   61.2826   30.4973   48.0427 H   0  0  0  0  0  0  0  0  0  0  0  0
   61.0100   31.4402   46.5382 H   0  0  0  0  0  0  0  0  0  0  0  0
   62.1623   30.0622   46.5382 H   0  0  0  0  0  0  0  0  0  0  0  0
   63.3209   31.4424   48.4414 H   0  0  0  0  0  0  0  0  0  0  0  0
   63.5496   31.8374   46.6507 H   0  0  0  0  0  0  0  0  0  0  0  0
   63.8488   34.6981   48.1087 H   0  0  0  0  0  0  0  0  0  0  0  0
   64.1732   33.7099   46.6442 H   0  0  0  0  0  0  0  0  0  0  0  0
   62.8287   34.9011   46.6442 H   0  0  0  0  0  0  0  0  0  0  0  0
   62.6671   32.6565   49.7268 H   0  0  0  0  0  0  0  0  0  0  0  0
   62.3967   34.4203   49.3660 H   0  0  0  0  0  0  0  0  0  0  0  0
   60.3801   32.1602   49.2156 H   0  0  0  0  0  0  0  0  0  0  0  0
   60.4177   33.5795   50.3498 H   0  0  0  0  0  0  0  0  0  0  0  0
   59.8230   35.0270   48.5680 H   0  0  0  0  0  0  0  0  0  0  0  0
   58.9896   31.5173   48.4700 H   0  0  0  0  0  0  0  0  0  0  0  0
   57.8603   30.2339   46.7087 H   0  0  0  0  0  0  0  0  0  0  0  0
   58.1550   29.1250   42.7790 H   0  0  0  0  0  0  0  0  0  0  0  0
   60.4832   29.1484   44.2845 H   0  0  0  0  0  0  0  0  0  0  0  0
   61.4385   27.8073   46.1214 H   0  0  0  0  0  0  0  0  0  0  0  0
   59.9852   26.5691   47.7017 H   0  0  0  0  0  0  0  0  0  0  0  0
   57.5061   26.7015   47.4138 H   0  0  0  0  0  0  0  0  0  0  0  0
   56.5194   28.0434   45.5756 H   0  0  0  0  0  0  0  0  0  0  0  0
   58.0985   33.6850   44.1572 H   0  0  0  0  0  0  0  0  0  0  0  0
  1  2  1  0
  2  3  1  0
  3  4  1  0
  3  5  1  0
  5  6  1  0
  6  7  1  0
  7  8  1  0
  8  9  2  0
  9 10  1  0
 10 11  2  0
 11 12  1  0
 12 13  2  0
 12 14  2  0
 12 15  1  0
 15 16  1  0
 16 17  2  0
 17 18  1  0
 18 19  2  0
 19 20  1  0
 20 21  2  0
 11 22  1  0
 22 23  2  0
 23 24  1  0
 24 25  2  0
 24 26  1  0
 23  8  1  0
 21 16  1  0
  1 27  1  0
  1 28  1  0
  1 29  1  0
  2 30  1  0
  2 31  1  0
  4 32  1  0
  4 33  1  0
  4 34  1  0
  5 35  1  0
  5 36  1  0
  6 37  1  0
  6 38  1  0
  7 39  1  0
  9 40  1  0
 10 41  1  0
 15 42  1  0
 17 43  1  0
 18 44  1  0
 19 45  1  0
 20 46  1  0
 21 47  1  0
 22 48  1  0
M  CHG  2  24   1  26  -1
M  END
>  <smiles>  (11) 
CCN(C)CCNc1ccc(S(=O)(=O)Nc2ccccc2)cc1[N+](=O)[O-]

>  <score_type>  (11) 
oracle

>  <origin>  (11) 
adg

>  <m_score__min__energy>  (11) 
-8.0199999999999996

>  <m_primary>  (11) 
energy

$$$$
11:0
     RDKit          3D

 75 78  0  0  0  0  0  0  0  0999 V2000
   57.5780   34.1950   45.2240 C   0  0  0  0  0  0  0  0  0  0  0  0
   58.9480   34.5420   45.7710 C   0  0  0  0  0  0  0  0  0  0  0  0
   58.8960   34.3820   47.2700 C   0  0  0  0  0  0  0  0  0  0  0  0
   59.9460   33.3770   47.7630 C   0  0  0  0  0  0  0  0  0  0  0  0
   59.4100   32.4890   48.7840 N   0  0  0  0  0  0  0  0  0  0  0  0
   59.6150   31.0790   48.7670 C   0  0  0  0  0  0  0  0  0  0  0  0
   59.0680   30.3900   47.7020 C   0  0  0  0  0  0  0  0  0  0  0  0
   58.3310   31.0750   46.7290 C   0  0  0  0  0  0  0  0  0  0  0  0
   57.7690   30.4360   45.6730 C   0  0  0  0  0  0  0  0  0  0  0  0
   57.0430   31.1280   44.7190 O   0  0  0  0  0  0  0  0  0  0  0  0
   57.5860   31.2490   43.4090 C   0  0  0  0  0  0  0  0  0  0  0  0
   57.9330   29.0730   45.5650 C   0  0  0  0  0  0  0  0  0  0  0  0
   57.3540   28.4400   44.4880 O   0  0  0  0  0  0  0  0  0  0  0  0
   57.9970   27.6060   43.5740 C   0  0  0  0  0  0  0  0  0  0  0  0
   58.6680   28.3910   46.5390 C   0  0  0  0  0  0  0  0  0  0  0  0
   59.2460   29.0040   47.6090 C   0  0  0  0  0  0  0  0  0  0  0  0
   59.9560   28.3340   48.5640 N   0  0  0  0  0  0  0  0  0  0  0  0
   60.1290   26.9150   48.4050 C   0  0  0  0  0  0  0  0  0  0  0  0
   60.4810   29.0360   49.6050 C   0  0  0  0  0  0  0  0  0  0  0  0
   61.1820   28.3660   50.5850 C   0  0  0  0  0  0  0  0  0  0  0  0
   61.7340   29.0230   51.6880 C   0  0  0  0  0  0  0  0  0  0  0  0
   61.5570   30.3870   51.7750 C   0  0  0  0  0  0  0  0  0  0  0  0
   60.8660   31.1050   50.8280 C   0  0  0  0  0  0  0  0  0  0  0  0
   60.6480   32.4520   50.8430 O   0  0  0  0  0  0  0  0  0  0  0  0
   61.6700   33.3970   50.8140 C   0  0  0  0  0  0  0  0  0  0  0  0
   63.0650   32.9030   50.8620 C   0  0  0  0  0  0  0  0  0  0  0  0
   63.5950   32.8890   49.4890 N   0  0  0  0  0  0  0  0  0  0  0  0
   65.0230   33.0580   49.4800 C   0  0  0  0  0  0  0  0  0  0  0  0
   63.2840   31.5980   48.9160 C   0  0  0  0  0  0  0  0  0  0  0  0
   62.9710   31.6320   47.4540 C   0  0  0  0  0  0  0  0  0  0  0  0
   63.6750   32.7490   46.7650 C   0  0  0  0  0  0  0  0  0  0  0  0
   63.4790   34.1010   47.3660 C   0  0  0  0  0  0  0  0  0  0  0  0
   62.9830   33.9730   48.7690 C   0  0  0  0  0  0  0  0  0  0  0  0
   60.3290   30.4000   49.7330 C   0  0  0  0  0  0  0  0  0  0  0  0
   56.8836   34.0191   46.0588 H   0  0  0  0  0  0  0  0  0  0  0  0
   57.2074   35.0276   44.6081 H   0  0  0  0  0  0  0  0  0  0  0  0
   57.6485   33.2863   44.6081 H   0  0  0  0  0  0  0  0  0  0  0  0
   59.7035   33.8638   45.3476 H   0  0  0  0  0  0  0  0  0  0  0  0
   59.2208   35.5732   45.5024 H   0  0  0  0  0  0  0  0  0  0  0  0
   59.0859   35.3578   47.7408 H   0  0  0  0  0  0  0  0  0  0  0  0
   57.8999   34.0038   47.5433 H   0  0  0  0  0  0  0  0  0  0  0  0
   60.2879   32.7726   46.9099 H   0  0  0  0  0  0  0  0  0  0  0  0
   60.7782   33.9434   48.2065 H   0  0  0  0  0  0  0  0  0  0  0  0
   58.8430   32.9430   49.5630 H   0  0  0  0  0  0  0  0  0  0  0  0
   58.2039   32.1635   46.8236 H   0  0  0  0  0  0  0  0  0  0  0  0
   58.6576   31.4878   43.4769 H   0  0  0  0  0  0  0  0  0  0  0  0
   57.4554   30.2997   42.8688 H   0  0  0  0  0  0  0  0  0  0  0  0
   57.0647   32.0530   42.8688 H   0  0  0  0  0  0  0  0  0  0  0  0
   58.5811   26.8483   44.1169 H   0  0  0  0  0  0  0  0  0  0  0  0
   57.2473   27.1075   42.9420 H   0  0  0  0  0  0  0  0  0  0  0  0
   58.6698   28.2043   42.9420 H   0  0  0  0  0  0  0  0  0  0  0  0
   58.7857   27.3022   46.4358 H   0  0  0  0  0  0  0  0  0  0  0  0
   60.1870   26.4395   49.3952 H   0  0  0  0  0  0  0  0  0  0  0  0
   59.2746   26.5015   47.8491 H   0  0  0  0  0  0  0  0  0  0  0  0
   61.0577   26.7189   47.8491 H   0  0  0  0  0  0  0  0  0  0  0  0
   61.3112   27.2773   50.4957 H   0  0  0  0  0  0  0  0  0  0  0  0
   62.2903   28.4708   52.4597 H   0  0  0  0  0  0  0  0  0  0  0  0
   61.9852   30.9219   52.6355 H   0  0  0  0  0  0  0  0  0  0  0  0
   61.5576   33.9742   49.8844 H   0  0  0  0  0  0  0  0  0  0  0  0
   61.5456   33.9701   51.7446 H   0  0  0  0  0  0  0  0  0  0  0  0
   63.6747   33.5694   51.4898 H   0  0  0  0  0  0  0  0  0  0  0  0
   63.0952   31.8908   51.2915 H   0  0  0  0  0  0  0  0  0  0  0  0
   65.3936   33.1019   50.5148 H   0  0  0  0  0  0  0  0  0  0  0  0
   65.4895   32.2088   48.9592 H   0  0  0  0  0  0  0  0  0  0  0  0
   65.2783   33.9926   48.9592 H   0  0  0  0  0  0  0  0  0  0  0  0
   64.1497   30.9364   49.0675 H   0  0  0  0  0  0  0  0  0  0  0  0
   62.3768   31.2387   49.4237 H   0  0  0  0  0  0  0  0  0  0  0  0
   63.2838   30.6800   47.0004 H   0  0  0  0  0  0  0  0  0  0  0  0
   61.8880   31.7869   47.3390 H   0  0  0  0  0  0  0  0  0  0  0  0
   64.7524   32.5272   46.7741 H   0  0  0  0  0  0  0  0  0  0  0  0
   63.2412   32.8019   45.7555 H   0  0  0  0  0  0  0  0  0  0  0  0
   64.4374   34.6410   47.3669 H   0  0  0  0  0  0  0  0  0  0  0  0
   62.7374   34.6548   46.7715 H   0  0  0  0  0  0  0  0  0  0  0  0
   63.1959   34.9113   49.3022 H   0  0  0  0  0  0  0  0  0  0  0  0
   61.9044   33.7634   48.7168 H   0  0  0  0  0  0  0  0  0  0  0  0
  1  2  1  0
  2  3  1  0
  3  4  1  0
  4  5  1  0
  5  6  1  0
  6  7  2  0
  7  8  1  0
  8  9  2  0
  9 10  1  0
 10 11  1  0
  9 12  1  0
 12 13  1  0
 13 14  1  0
 12 15  2  0
 15 16  1  0
 16 17  2  0
 17 18  1  0
 17 19  1  0
 19 20  2  0
 20 21  1  0
 21 22  2  0
 22 23  1  0
 23 24  1  0
 24 25  1  0
 25 26  1  0
 26 27  1  0
 27 28  1  0
 27 29  1  0
 29 30  1  0
 30 31  1  0
 31 32  1  0
 32 33  1  0
 23 34  2  0
 34  6  1  0
 16  7  1  0
 34 19  1  0
 33 27  1  0
  1 35  1  0
  1 36  1  0
  1 37  1  0
  2 38  1  0
  2 39  1  0
  3 40  1  0
  3 41  1  0
  4 42  1  0
  4 43  1  0
  5 44  1  0
  8 45  1  0
 11 46  1  0
 11 47  1  0
 11 48  1  0
 14 49  1  0
 14 50  1  0
 14 51  1  0
 15 52  1  0
 18 53  1  0
 18 54  1  0
 18 55  1  0
 20 56  1  0
 21 57  1  0
 22 58  1  0
 25 59  1  0
 25 60  1  0
 26 61  1  0
 26 62  1  0
 28 63  1  0
 28 64  1  0
 28 65  1  0
 29 66  1  0
 29 67  1  0
 30 68  1  0
 30 69  1  0
 31 70  1  0
 31 71  1  0
 32 72  1  0
 32 73  1  0
 33 74  1  0
 33 75  1  0
M  CHG  2  17   1  27   1
M  END
>  <smiles>  (12) 
CCCCNc1c2cc(OC)c(OC)cc2[n+](C)c2cccc(OCC[N+]3(C)CCCCC3)c12

>  <score_type>  (12) 
oracle

>  <origin>  (12) 
adg

>  <m_score__min__energy>  (12) 
-4.79

>  <m_primary>  (12) 
energy

$$$$
12:0
     RDKit          3D

 53 55  0  0  0  0  0  0  0  0999 V2000
   56.2520   29.7130   42.6720 C   0  0  0  0  0  0  0  0  0  0  0  0
   57.1150   30.9170   43.0130 C   0  0  0  0  0  0  0  0  0  0  0  0
   57.9570   30.5040   44.2110 C   0  0  0  0  0  0  0  0  0  0  0  0
   57.4630   31.2890   45.3300 N   0  0  0  0  0  0  0  0  0  0  0  0
   56.9850   32.6020   44.8700 C   0  0  0  0  0  0  0  0  0  0  0  0
   58.0090   33.5940   45.3110 C   0  0  0  0  0  0  0  0  0  0  0  0
   58.0950   33.7810   46.8070 C   0  0  0  0  0  0  0  0  0  0  0  0
   58.6990   32.6830   47.4850 N   0  0  0  0  0  0  0  0  0  0  0  0
   59.7480   32.7720   48.4380 C   0  0  0  0  0  0  0  0  0  0  0  0
   61.0650   33.0380   48.0940 C   0  0  0  0  0  0  0  0  0  0  0  0
   62.0270   33.1200   49.0520 C   0  0  0  0  0  0  0  0  0  0  0  0
   61.6610   32.9340   50.3550 N   0  0  0  0  0  0  0  0  0  0  0  0
   62.6210   33.0110   51.4390 C   0  0  0  0  0  0  0  0  0  0  0  0
   60.3840   32.6750   50.7010 C   0  0  0  0  0  0  0  0  0  0  0  0
   60.0210   32.4850   52.0280 C   0  0  0  0  0  0  0  0  0  0  0  0
   58.7120   32.2150   52.4030 C   0  0  0  0  0  0  0  0  0  0  0  0
   57.7140   32.1250   51.4550 C   0  0  0  0  0  0  0  0  0  0  0  0
   58.0720   32.3130   50.1360 C   0  0  0  0  0  0  0  0  0  0  0  0
   59.3740   32.5820   49.7690 C   0  0  0  0  0  0  0  0  0  0  0  0
   63.4600   33.3920   48.8190 C   0  0  0  0  0  0  0  0  0  0  0  0
   63.8000   33.3950   47.3750 C   0  0  0  0  0  0  0  0  0  0  0  0
   62.7350   33.8530   46.4400 C   0  0  0  0  0  0  0  0  0  0  0  0
   61.3990   33.2240   46.6640 C   0  0  0  0  0  0  0  0  0  0  0  0
   55.9083   29.2335   43.6004 H   0  0  0  0  0  0  0  0  0  0  0  0
   55.3816   30.0404   42.0844 H   0  0  0  0  0  0  0  0  0  0  0  0
   56.8416   28.9939   42.0844 H   0  0  0  0  0  0  0  0  0  0  0  0
   57.7622   31.1765   42.1623 H   0  0  0  0  0  0  0  0  0  0  0  0
   56.5013   31.8018   43.2378 H   0  0  0  0  0  0  0  0  0  0  0  0
   57.8351   29.4296   44.4131 H   0  0  0  0  0  0  0  0  0  0  0  0
   59.0282   30.6802   44.0337 H   0  0  0  0  0  0  0  0  0  0  0  0
   56.6730   30.7350   45.7300 H   0  0  0  0  0  0  0  0  0  0  0  0
   56.8916   32.6116   43.7740 H   0  0  0  0  0  0  0  0  0  0  0  0
   55.9938   32.8365   45.2854 H   0  0  0  0  0  0  0  0  0  0  0  0
   58.9918   33.2572   44.9496 H   0  0  0  0  0  0  0  0  0  0  0  0
   57.7062   34.5645   44.8909 H   0  0  0  0  0  0  0  0  0  0  0  0
   58.6882   34.6846   47.0110 H   0  0  0  0  0  0  0  0  0  0  0  0
   57.0641   33.8640   47.1816 H   0  0  0  0  0  0  0  0  0  0  0  0
   58.3490   31.7170   47.2720 H   0  0  0  0  0  0  0  0  0  0  0  0
   62.0909   32.9685   52.4019 H   0  0  0  0  0  0  0  0  0  0  0  0
   63.3220   32.1662   51.3687 H   0  0  0  0  0  0  0  0  0  0  0  0
   63.1784   33.9567   51.3687 H   0  0  0  0  0  0  0  0  0  0  0  0
   60.7953   32.5505   52.8066 H   0  0  0  0  0  0  0  0  0  0  0  0
   58.4683   32.0715   53.4660 H   0  0  0  0  0  0  0  0  0  0  0  0
   56.6731   31.9116   51.7397 H   0  0  0  0  0  0  0  0  0  0  0  0
   57.2987   32.2466   49.3565 H   0  0  0  0  0  0  0  0  0  0  0  0
   63.7079   34.3759   49.2438 H   0  0  0  0  0  0  0  0  0  0  0  0
   64.0396   32.5913   49.3017 H   0  0  0  0  0  0  0  0  0  0  0  0
   64.6700   34.0541   47.2384 H   0  0  0  0  0  0  0  0  0  0  0  0
   63.9787   32.3407   47.1170 H   0  0  0  0  0  0  0  0  0  0  0  0
   62.6249   34.9417   46.5521 H   0  0  0  0  0  0  0  0  0  0  0  0
   63.0556   33.5536   45.4312 H   0  0  0  0  0  0  0  0  0  0  0  0
   60.6312   33.8663   46.2080 H   0  0  0  0  0  0  0  0  0  0  0  0
   61.4322   32.2238   46.2073 H   0  0  0  0  0  0  0  0  0  0  0  0
  1  2  1  0
  2  3  1  0
  3  4  1  0
  4  5  1  0
  5  6  1  0
  6  7  1  0
  7  8  1  0
  8  9  1  0
  9 10  2  0
 10 11  1  0
 11 12  2  0
 12 13  1  0
 12 14  1  0
 14 15  2  0
 15 16  1  0
 16 17  2  0
 17 18  1  0
 18 19  2  0
 11 20  1  0
 20 21  1  0
 21 22  1  0
 22 23  1  0
 19  9  1  0
 23 10  1  0
 19 14  1  0
  1 24  1  0
  1 25  1  0
  1 26  1  0
  2 27  1  0
  2 28  1  0
  3 29  1  0
  3 30  1  0
  4 31  1  0
  5 32  1  0
  5 33  1  0
  6 34  1  0
  6 35  1  0
  7 36  1  0
  7 37  1  0
  8 38  1  0
 13 39  1  0
 13 40  1  0
 13 41  1  0
 15 42  1  0
 16 43  1  0
 17 44  1  0
 18 45  1  0
 20 46  1  0
 20 47  1  0
 21 48  1  0
 21 49  1  0
 22 50  1  0
 22 51  1  0
 23 52  1  0
 23 53  1  0
M  CHG  1  12   1
M  END
>  <smiles>  (13) 
CCCNCCCNc1c2c([n+](C)c3ccccc13)CCCC2

>  <score_type>  (13) 
oracle

>  <origin>  (13) 
adg

>  <m_score__min__energy>  (13) 
-6.1200000000000001

>  <m_primary>  (13) 
energy

$$$$
13:0
     RDKit          3D

 46 48  0  0  0  0  0  0  0  0999 V2000
   56.9910   31.1530   42.2760 C   0  0  0  0  0  0  0  0  0  0  0  0
   56.8290   30.9270   43.7820 C   0  0  0  0  0  0  0  0  0  0  0  0
   55.5440   30.0880   43.9030 C   0  0  0  0  0  0  0  0  0  0  0  0
   55.6920   29.3220   45.1030 N   0  0  0  0  0  0  0  0  0  0  0  0
   56.6280   28.2420   44.9320 C   0  0  0  0  0  0  0  0  0  0  0  0
   57.5240   28.1440   46.1160 C   0  0  0  0  0  0  0  0  0  0  0  0
   58.6190   29.2270   46.0670 C   0  0  0  0  0  0  0  0  0  0  0  0
   57.9990   30.4590   46.4490 N   0  0  0  0  0  0  0  0  0  0  0  0
   58.6690   31.3740   47.2830 C   0  0  0  0  0  0  0  0  0  0  0  0
   58.9170   32.6330   46.7990 C   0  0  0  0  0  0  0  0  0  0  0  0
   58.4980   32.9430   45.5210 C   0  0  0  0  0  0  0  0  0  0  0  0
   58.7540   34.2110   45.0470 C   0  0  0  0  0  0  0  0  0  0  0  0
   59.4040   35.1810   45.7790 C   0  0  0  0  0  0  0  0  0  0  0  0
   59.8250   34.8700   47.0620 C   0  0  0  0  0  0  0  0  0  0  0  0
   59.5680   33.6170   47.5240 C   0  0  0  0  0  0  0  0  0  0  0  0
   59.9590   33.2750   48.7600 N   0  0  0  0  0  0  0  0  0  0  0  0
   60.6530   34.2330   49.6120 C   0  0  0  0  0  0  0  0  0  0  0  0
   59.7240   32.0330   49.2640 C   0  0  0  0  0  0  0  0  0  0  0  0
   60.1380   31.3330   50.8680 S   0  0  0  0  0  0  0  0  0  0  0  0
   59.4150   29.7310   50.5040 C   0  0  0  0  0  0  0  0  0  0  0  0
   58.9250   29.8560   49.2100 C   0  0  0  0  0  0  0  0  0  0  0  0
   59.0870   31.0240   48.5920 C   0  0  0  0  0  0  0  0  0  0  0  0
   57.6240   32.0360   42.1037 H   0  0  0  0  0  0  0  0  0  0  0  0
   57.4627   30.2694   41.8213 H   0  0  0  0  0  0  0  0  0  0  0  0
   56.0027   31.3159   41.8213 H   0  0  0  0  0  0  0  0  0  0  0  0
   57.6919   30.3796   44.1892 H   0  0  0  0  0  0  0  0  0  0  0  0
   56.7705   31.8700   44.3453 H   0  0  0  0  0  0  0  0  0  0  0  0
   54.6634   30.7434   43.9727 H   0  0  0  0  0  0  0  0  0  0  0  0
   55.3973   29.4419   43.0249 H   0  0  0  0  0  0  0  0  0  0  0  0
   54.7940   28.9640   45.4660 H   0  0  0  0  0  0  0  0  0  0  0  0
   56.0756   27.2979   44.8156 H   0  0  0  0  0  0  0  0  0  0  0  0
   57.2373   28.4344   44.0366 H   0  0  0  0  0  0  0  0  0  0  0  0
   56.9277   28.2757   47.0309 H   0  0  0  0  0  0  0  0  0  0  0  0
   58.0064   27.1555   46.1112 H   0  0  0  0  0  0  0  0  0  0  0  0
   59.4297   28.9778   46.7675 H   0  0  0  0  0  0  0  0  0  0  0  0
   59.0567   29.3007   45.0605 H   0  0  0  0  0  0  0  0  0  0  0  0
   57.0240   30.7440   46.1340 H   0  0  0  0  0  0  0  0  0  0  0  0
   57.9757   32.2004   44.8999 H   0  0  0  0  0  0  0  0  0  0  0  0
   58.4216   34.4628   44.0291 H   0  0  0  0  0  0  0  0  0  0  0  0
   59.5845   36.1795   45.3544 H   0  0  0  0  0  0  0  0  0  0  0  0
   60.3485   35.6103   47.6847 H   0  0  0  0  0  0  0  0  0  0  0  0
   60.4720   33.9831   50.6678 H   0  0  0  0  0  0  0  0  0  0  0  0
   61.7327   34.1925   49.4055 H   0  0  0  0  0  0  0  0  0  0  0  0
   60.2780   35.2463   49.4055 H   0  0  0  0  0  0  0  0  0  0  0  0
   59.3700   28.8482   51.1587 H   0  0  0  0  0  0  0  0  0  0  0  0
   58.4189   29.0161   48.7116 H   0  0  0  0  0  0  0  0  0  0  0  0
  1  2  1  0
  2  3  1  0
  3  4  1  0
  4  5  1  0
  5  6  1  0
  6  7  1  0
  7  8  1  0
  8  9  1  0
  9 10  2  0
 10 11  1  0
 11 12  2  0
 12 13  1  0
 13 14  2  0
 14 15  1  0
 15 16  2  0
 16 17  1  0
 16 18  1  0
 18 19  1  0
 19 20  1  0
 20 21  2  0
 21 22  1  0
 22  9  1  0
 15 10  1  0
 22 18  2  0
  1 23  1  0
  1 24  1  0
  1 25  1  0
  2 26  1  0
  2 27  1  0
  3 28  1  0
  3 29  1  0
  4 30  1  0
  5 31  1  0
  5 32  1  0
  6 33  1  0
  6 34  1  0
  7 35  1  0
  7 36  1  0
  8 37  1  0
 11 38  1  0
 12 39  1  0
 13 40  1  0
 14 41  1  0
 17 42  1  0
 17 43  1  0
 17 44  1  0
 20 45  1  0
 21 46  1  0
M  CHG  1  16   1
M  END
>  <smiles>  (14) 
CCCNCCCNc1c2ccccc2[n+](C)c2sccc12

>  <score_type>  (14) 
oracle

>  <origin>  (14) 
adg

>  <m_score__min__energy>  (14) 
-5.6299999999999999

>  <m_primary>  (14) 
energy

$$$$
14:0
     RDKit          3D

 57 59  0  0  0  0  0  0  0  0999 V2000
   57.8020   30.2690   51.5850 C   0  0  0  0  0  0  0  0  0  0  0  0
   57.0280   31.5350   51.3690 C   0  0  0  0  0  0  0  0  0  0  0  0
   57.8060   32.6860   51.2290 O   0  0  0  0  0  0  0  0  0  0  0  0
   58.9030   33.0300   51.9850 C   0  0  0  0  0  0  0  0  0  0  0  0
   58.8380   33.6040   53.2370 C   0  0  0  0  0  0  0  0  0  0  0  0
   59.9600   33.9370   53.9730 C   0  0  0  0  0  0  0  0  0  0  0  0
   61.1940   33.6790   53.4160 C   0  0  0  0  0  0  0  0  0  0  0  0
   61.3170   33.1090   52.1710 C   0  0  0  0  0  0  0  0  0  0  0  0
   60.1780   32.7880   51.4610 C   0  0  0  0  0  0  0  0  0  0  0  0
   60.2490   32.1870   50.1510 N   0  0  0  0  0  0  0  0  0  0  0  0
   61.1220   31.0710   49.9510 C   0  0  0  0  0  0  0  0  0  0  0  0
   61.7980   30.6580   50.9430 O   0  0  0  0  0  0  0  0  0  0  0  0
   61.2590   30.3950   48.6440 C   0  0  0  0  0  0  0  0  0  0  0  0
   60.5930   31.1360   47.6370 O   0  0  0  0  0  0  0  0  0  0  0  0
   59.2280   31.0530   47.4550 C   0  0  0  0  0  0  0  0  0  0  0  0
   58.5120   30.9520   48.4830 O   0  0  0  0  0  0  0  0  0  0  0  0
   58.5980   31.0770   46.1410 C   0  0  0  0  0  0  0  0  0  0  0  0
   58.5950   29.9400   45.3570 C   0  0  0  0  0  0  0  0  0  0  0  0
   57.9820   30.0210   44.1200 C   0  0  0  0  0  0  0  0  0  0  0  0
   57.3890   31.1720   43.6570 C   0  0  0  0  0  0  0  0  0  0  0  0
   57.4030   32.3090   44.4650 C   0  0  0  0  0  0  0  0  0  0  0  0
   58.0140   32.2540   45.7160 C   0  0  0  0  0  0  0  0  0  0  0  0
   58.0410   33.6990   46.7630 S   0  0  0  0  0  0  0  0  0  0  0  0
   59.6470   34.5220   46.5620 C   0  0  0  0  0  0  0  0  0  0  0  0
   60.4250   34.4320   47.8350 C   0  0  0  0  0  0  0  0  0  0  0  0
   59.9010   34.6360   48.9650 O   0  0  0  0  0  0  0  0  0  0  0  0
   61.8080   34.1040   47.8010 N   0  0  0  0  0  0  0  0  0  0  0  0
   62.6400   33.9950   48.9880 C   0  0  0  0  0  0  0  0  0  0  0  0
   63.6680   32.9360   48.6620 C   0  0  0  0  0  0  0  0  0  0  0  0
   63.6570   32.7800   47.1460 C   0  0  0  0  0  0  0  0  0  0  0  0
   62.6680   33.8210   46.6830 C   0  0  0  0  0  0  0  0  0  0  0  0
   57.9133   30.0869   52.6641 H   0  0  0  0  0  0  0  0  0  0  0  0
   57.2639   29.4272   51.1247 H   0  0  0  0  0  0  0  0  0  0  0  0
   58.7965   30.3642   51.1247 H   0  0  0  0  0  0  0  0  0  0  0  0
   56.4273   31.4160   50.4552 H   0  0  0  0  0  0  0  0  0  0  0  0
   56.4212   31.6825   52.2746 H   0  0  0  0  0  0  0  0  0  0  0  0
   57.8474   33.8064   53.6704 H   0  0  0  0  0  0  0  0  0  0  0  0
   59.8708   34.3928   54.9701 H   0  0  0  0  0  0  0  0  0  0  0  0
   62.1022   33.9353   53.9812 H   0  0  0  0  0  0  0  0  0  0  0  0
   62.3119   32.9111   51.7456 H   0  0  0  0  0  0  0  0  0  0  0  0
   59.6730   32.5570   49.3560 H   0  0  0  0  0  0  0  0  0  0  0  0
   62.3256   30.3117   48.3882 H   0  0  0  0  0  0  0  0  0  0  0  0
   60.8087   29.3935   48.7093 H   0  0  0  0  0  0  0  0  0  0  0  0
   59.0621   29.0062   45.7031 H   0  0  0  0  0  0  0  0  0  0  0  0
   57.9682   29.1269   43.4794 H   0  0  0  0  0  0  0  0  0  0  0  0
   56.9117   31.1957   42.6662 H   0  0  0  0  0  0  0  0  0  0  0  0
   56.9353   33.2419   44.1172 H   0  0  0  0  0  0  0  0  0  0  0  0
   60.2102   34.0314   45.7544 H   0  0  0  0  0  0  0  0  0  0  0  0
   59.4837   35.5803   46.3102 H   0  0  0  0  0  0  0  0  0  0  0  0
   63.1316   34.9553   49.2029 H   0  0  0  0  0  0  0  0  0  0  0  0
   62.0499   33.7319   49.8783 H   0  0  0  0  0  0  0  0  0  0  0  0
   64.6638   33.2537   49.0048 H   0  0  0  0  0  0  0  0  0  0  0  0
   63.4344   31.9850   49.1631 H   0  0  0  0  0  0  0  0  0  0  0  0
   64.6548   32.9731   46.7252 H   0  0  0  0  0  0  0  0  0  0  0  0
   63.3852   31.7634   46.8254 H   0  0  0  0  0  0  0  0  0  0  0  0
   63.1970   34.7338   46.3716 H   0  0  0  0  0  0  0  0  0  0  0  0
   62.0884   33.4588   45.8211 H   0  0  0  0  0  0  0  0  0  0  0  0
  1  2  1  0
  2  3  1  0
  3  4  1  0
  4  5  2  0
  5  6  1  0
  6  7  2  0
  7  8  1  0
  8  9  2  0
  9 10  1  0
 10 11  1  0
 11 12  2  0
 11 13  1  0
 13 14  1  0
 14 15  1  0
 15 16  2  0
 15 17  1  0
 17 18  2  0
 18 19  1  0
 19 20  2  0
 20 21  1  0
 21 22  2  0
 22 23  1  0
 23 24  1  0
 24 25  1  0
 25 26  2  0
 25 27  1  0
 27 28  1  0
 28 29  1  0
 29 30  1  0
 30 31  1  0
  9  4  1  0
 22 17  1  0
 31 27  1  0
  1 32  1  0
  1 33  1  0
  1 34  1  0
  2 35  1  0
  2 36  1  0
  5 37  1  0
  6 38  1  0
  7 39  1  0
  8 40  1  0
 10 41  1  0
 13 42  1  0
 13 43  1  0
 18 44  1  0
 19 45  1  0
 20 46  1  0
 21 47  1  0
 24 48  1  0
 24 49  1  0
 28 50  1  0
 28 51  1  0
 29 52  1  0
 29 53  1  0
 30 54  1  0
 30 55  1  0
 31 56  1  0
 31 57  1  0
M  END
>  <smiles>  (15) 
CCOc1ccccc1NC(=O)COC(=O)c1ccccc1SCC(=O)N1CCCC1

>  <score_type>  (15) 
oracle

>  <origin>  (15) 
adg

>  <m_score__min__energy>  (15) 
-7.9500000000000002

>  <m_primary>  (15) 
energy

$$$$
16:0
     RDKit          3D

 48 51  0  0  1  0  0  0  0  0999 V2000
   56.6060   22.8130   43.3730 C   0  0  0  0  0  0  0  0  0  0  0  0
   56.8530   22.1260   44.6250 N   0  0  0  0  0  0  0  0  0  0  0  0
   56.7870   20.6550   44.6280 C   0  0  0  0  0  0  0  0  0  0  0  0
   57.1470   22.7920   45.8440 C   0  0  0  0  0  0  0  0  0  0  0  0
   57.3580   22.1210   46.9010 O   0  0  0  0  0  0  0  0  0  0  0  0
   57.2310   24.2390   45.9750 C   0  0  0  0  0  0  0  0  0  0  0  0
   56.0120   24.9220   45.8980 C   0  0  0  0  0  0  0  0  0  0  0  0
   56.0220   26.2910   46.0130 C   0  0  0  0  0  0  0  0  0  0  0  0
   57.2030   27.0200   46.2040 C   0  0  0  0  0  0  0  0  0  0  0  0
   57.0580   28.4120   46.2860 N   0  0  0  0  0  0  0  0  0  0  0  0
   57.1790   29.2410   45.3230 C   0  0  0  0  0  0  0  0  0  0  0  0
   57.5830   30.4800   45.5390 N   0  0  0  0  0  0  0  0  0  0  0  0
   57.7420   31.4150   44.5820 C   0  0  0  0  0  0  0  0  0  0  0  0
   58.1990   32.6830   45.0050 N   0  0  0  0  0  0  0  0  0  0  0  0
   59.1330   32.7980   45.8730 C   0  0  0  0  0  0  0  0  0  0  0  0
   60.2760   33.5790   45.8640 C   0  0  0  0  0  0  0  0  0  0  0  0
   60.8980   33.3120   47.0850 C   0  0  0  0  0  0  0  0  0  0  0  0
   62.1650   33.8800   47.5760 C   0  0  0  0  0  0  0  0  0  0  0  0
   63.2730   32.7980   47.7690 C   0  0  0  0  0  0  0  0  0  0  0  0
   63.4090   33.8890   46.7960 C   0  0  0  0  0  0  0  0  0  0  0  0
   60.1450   32.4120   47.7770 N   0  0  0  0  0  0  0  0  0  0  0  0
   59.0840   32.1020   47.0490 N   0  0  0  0  0  0  0  0  0  0  0  0
   57.4630   31.0490   43.2950 C   0  0  0  0  0  0  0  0  0  0  0  0
   57.6800   32.3370   41.9160 Br  0  0  0  0  0  0  0  0  0  0  0  0
   57.0330   29.7410   43.0370 C   0  0  0  0  0  0  0  0  0  0  0  0
   56.8970   28.8530   44.0700 N   0  0  0  0  0  0  0  0  0  0  0  0
   58.3710   26.3170   46.2750 C   0  0  0  0  0  0  0  0  0  0  0  0
   58.4090   24.9300   46.1630 C   0  0  0  0  0  0  0  0  0  0  0  0
   56.2404   23.8299   43.5787 H   0  0  0  0  0  0  0  0  0  0  0  0
   57.5402   22.8691   42.7950 H   0  0  0  0  0  0  0  0  0  0  0  0
   55.8499   22.2614   42.7950 H   0  0  0  0  0  0  0  0  0  0  0  0
   56.7707   20.2908   45.6658 H   0  0  0  0  0  0  0  0  0  0  0  0
   55.8733   20.3279   44.1102 H   0  0  0  0  0  0  0  0  0  0  0  0
   57.6678   20.2474   44.1102 H   0  0  0  0  0  0  0  0  0  0  0  0
   55.0687   24.3760   45.7490 H   0  0  0  0  0  0  0  0  0  0  0  0
   55.0676   26.8347   45.9529 H   0  0  0  0  0  0  0  0  0  0  0  0
   60.6184   34.2594   45.0704 H   0  0  0  0  0  0  0  0  0  0  0  0
   61.6465   34.6783   48.1273 H   0  0  0  0  0  0  0  0  0  0  0  0
   63.8867   32.7877   48.6818 H   0  0  0  0  0  0  0  0  0  0  0  0
   63.3187   31.6995   47.7356 H   0  0  0  0  0  0  0  0  0  0  0  0
   64.1510   34.6809   46.9759 H   0  0  0  0  0  0  0  0  0  0  0  0
   63.6199   33.9123   45.7167 H   0  0  0  0  0  0  0  0  0  0  0  0
   60.3690   32.0260   48.7300 H   0  0  0  0  0  0  0  0  0  0  0  0
   58.3510   31.4310   47.3490 H   0  0  0  0  0  0  0  0  0  0  0  0
   56.8053   29.4283   42.0073 H   0  0  0  0  0  0  0  0  0  0  0  0
   56.5710   27.8580   43.8870 H   0  0  0  0  0  0  0  0  0  0  0  0
   59.3131   26.8645   46.4257 H   0  0  0  0  0  0  0  0  0  0  0  0
   59.3667   24.3922   46.2237 H   0  0  0  0  0  0  0  0  0  0  0  0
  1  2  1  0
  2  3  1  0
  2  4  1  0
  4  5  2  0
  4  6  1  0
  6  7  2  0
  7  8  1  0
  8  9  2  0
  9 10  1  0
 10 11  2  0
 11 12  1  0
 12 13  2  0
 13 14  1  0
 14 15  2  0
 15 16  1  0
 16 17  2  0
 17 18  1  0
 18 19  1  0
 19 20  1  0
 17 21  1  0
 21 22  1  0
 13 23  1  0
 23 24  1  0
 23 25  2  0
 25 26  1  0
  9 27  1  0
 27 28  2  0
 28  6  1  0
 26 11  1  0
 22 15  1  0
 20 18  1  0
  1 29  1  0
  1 30  1  0
  1 31  1  0
  3 32  1  0
  3 33  1  0
  3 34  1  0
  7 35  1  0
  8 36  1  0
 16 37  1  0
 18 38  1  0
 19 39  1  0
 19 40  1  0
 20 41  1  0
 20 42  1  0
 21 43  1  0
 22 44  1  0
 25 45  1  0
 26 46  1  0
 27 47  1  0
 28 48  1  0
M  END
>  <smiles>  (16) 
CN(C)C(=O)c1ccc(N=c2nc(N=c3cc(C4CC4)[nH][nH]3)c(Br)c[nH]2)cc1

>  <score_type>  (16) 
oracle

>  <origin>  (16) 
adg

>  <m_score__min__energy>  (16) 
-9.3499999999999996

>  <m_primary>  (16) 
energy

$$$$
17:0
     RDKit          3D

 49 51  0  0  1  0  0  0  0  0999 V2000
   63.3390   33.8340   46.3940 C   0  0  0  0  0  0  0  0  0  0  0  0
   63.6850   33.2370   47.7250 C   0  0  0  0  0  0  0  0  0  0  0  0
   62.4660   32.7670   48.4930 C   0  0  0  0  0  0  0  0  0  0  0  0
   61.9720   33.7890   49.3030 N   0  0  0  0  0  0  0  0  0  0  0  0
   60.6410   34.2160   49.1480 C   0  0  0  0  0  0  0  0  0  0  0  0
   60.1830   33.9170   47.7540 C   0  0  2  0  0  0  0  0  0  0  0  0
   59.6460   35.1540   47.0770 C   0  0  0  0  0  0  0  0  0  0  0  0
   59.5540   34.8640   45.5970 C   0  0  0  0  0  0  0  0  0  0  0  0
   58.7540   33.6390   45.3800 C   0  0  0  0  0  0  0  0  0  0  0  0
   58.2110   33.4670   44.1030 C   0  0  0  0  0  0  0  0  0  0  0  0
   57.4520   32.3340   43.8420 C   0  0  0  0  0  0  0  0  0  0  0  0
   57.2350   31.3900   44.8200 C   0  0  0  0  0  0  0  0  0  0  0  0
   56.4880   30.2640   44.5800 O   0  0  0  0  0  0  0  0  0  0  0  0
   56.9510   29.0670   44.0090 C   0  0  0  0  0  0  0  0  0  0  0  0
   58.0430   28.5470   44.8800 C   0  0  0  0  0  0  0  0  0  0  0  0
   57.7470   27.8590   46.0370 C   0  0  0  0  0  0  0  0  0  0  0  0
   58.7470   27.3710   46.8550 C   0  0  0  0  0  0  0  0  0  0  0  0
   60.0620   27.5950   46.4740 C   0  0  0  0  0  0  0  0  0  0  0  0
   60.3680   28.2760   45.3290 C   0  0  0  0  0  0  0  0  0  0  0  0
   59.3700   28.7660   44.5100 C   0  0  0  0  0  0  0  0  0  0  0  0
   57.7670   31.5450   46.0930 C   0  0  0  0  0  0  0  0  0  0  0  0
   58.5220   32.6830   46.3390 C   0  0  0  0  0  0  0  0  0  0  0  0
   59.1100   32.8920   47.6790 C   0  0  0  0  0  0  0  0  0  0  0  0
   58.7020   32.2320   48.6580 O   0  0  0  0  0  0  0  0  0  0  0  0
   62.7927   34.7766   46.5458 H   0  0  0  0  0  0  0  0  0  0  0  0
   64.2623   34.0321   45.8298 H   0  0  0  0  0  0  0  0  0  0  0  0
   62.7081   33.1313   45.8298 H   0  0  0  0  0  0  0  0  0  0  0  0
   64.3508   32.3767   47.5618 H   0  0  0  0  0  0  0  0  0  0  0  0
   64.1710   34.0216   48.3234 H   0  0  0  0  0  0  0  0  0  0  0  0
   61.6857   32.4612   47.7806 H   0  0  0  0  0  0  0  0  0  0  0  0
   62.7539   31.9176   49.1299 H   0  0  0  0  0  0  0  0  0  0  0  0
   62.6010   34.3480   49.8820 H   0  0  0  0  0  0  0  0  0  0  0  0
   59.9992   33.6858   49.8670 H   0  0  0  0  0  0  0  0  0  0  0  0
   60.5783   35.2988   49.3316 H   0  0  0  0  0  0  0  0  0  0  0  0
   61.0827   33.5330   47.2509 H   0  0  0  0  0  0  0  0  0  0  0  0
   58.6491   35.3957   47.4742 H   0  0  0  0  0  0  0  0  0  0  0  0
   60.3086   36.0125   47.2611 H   0  0  0  0  0  0  0  0  0  0  0  0
   59.0718   35.7112   45.0873 H   0  0  0  0  0  0  0  0  0  0  0  0
   60.5653   34.7166   45.1902 H   0  0  0  0  0  0  0  0  0  0  0  0
   58.3825   34.2176   43.3174 H   0  0  0  0  0  0  0  0  0  0  0  0
   57.0188   32.1890   42.8414 H   0  0  0  0  0  0  0  0  0  0  0  0
   56.1319   28.3347   43.9564 H   0  0  0  0  0  0  0  0  0  0  0  0
   57.3208   29.2429   42.9881 H   0  0  0  0  0  0  0  0  0  0  0  0
   56.6950   27.6956   46.3139 H   0  0  0  0  0  0  0  0  0  0  0  0
   58.5086   26.8227   47.7783 H   0  0  0  0  0  0  0  0  0  0  0  0
   60.8771   27.2159   47.1079 H   0  0  0  0  0  0  0  0  0  0  0  0
   61.4218   28.4356   45.0567 H   0  0  0  0  0  0  0  0  0  0  0  0
   59.6153   29.3152   43.5890 H   0  0  0  0  0  0  0  0  0  0  0  0
   57.5963   30.7933   46.8778 H   0  0  0  0  0  0  0  0  0  0  0  0
  1  2  1  0
  2  3  1  0
  3  4  1  0
  4  5  1  0
  5  6  1  0
  6  7  1  0
  7  8  1  0
  8  9  1  0
  9 10  2  0
 10 11  1  0
 11 12  2  0
 12 13  1  0
 13 14  1  0
 14 15  1  0
 15 16  2  0
 16 17  1  0
 17 18  2  0
 18 19  1  0
 19 20  2  0
 12 21  1  0
 21 22  2  0
 22 23  1  0
 23 24  2  0
 23  6  1  0
 22  9  1  0
 20 15  1  0
  1 25  1  0
  1 26  1  0
  1 27  1  0
  2 28  1  0
  2 29  1  0
  3 30  1  0
  3 31  1  0
  4 32  1  0
  5 33  1  0
  5 34  1  0
  6 35  1  6
  7 36  1  0
  7 37  1  0
  8 38  1  0
  8 39  1  0
 10 40  1  0
 11 41  1  0
 14 42  1  0
 14 43  1  0
 16 44  1  0
 17 45  1  0
 18 46  1  0
 19 47  1  0
 20 48  1  0
 21 49  1  0
M  END
>  <smiles>  (17) 
CCCNCC1CCc2ccc(OCc3ccccc3)cc2C1=O

>  <score_type>  (17) 
oracle

>  <origin>  (17) 
adg

>  <m_score__min__energy>  (17) 
-8.9199999999999999

>  <m_primary>  (17) 
energy

$$$$
18:0
     RDKit          3D

 55 57  0  0  0  0  0  0  0  0999 V2000
   63.3890   33.8610   46.3650 C   0  0  0  0  0  0  0  0  0  0  0  0
   63.2900   32.7760   47.4290 C   0  0  0  0  0  0  0  0  0  0  0  0
   63.5530   33.3410   48.8020 C   0  0  0  0  0  0  0  0  0  0  0  0
   62.6580   32.8630   49.8100 N   0  0  0  0  0  0  0  0  0  0  0  0
   61.7580   33.9060   50.3000 C   0  0  0  0  0  0  0  0  0  0  0  0
   60.8990   33.4190   51.4240 C   0  0  0  0  0  0  0  0  0  0  0  0
   60.4400   31.9770   51.2730 C   0  0  0  0  0  0  0  0  0  0  0  0
   59.5570   31.8840   50.0890 C   0  0  0  0  0  0  0  0  0  0  0  0
   60.1770   31.7880   48.8020 N   0  0  0  0  0  0  0  0  0  0  0  0
   59.4850   31.8550   47.5620 C   0  0  0  0  0  0  0  0  0  0  0  0
   58.8290   30.7350   47.0840 C   0  0  0  0  0  0  0  0  0  0  0  0
   58.1320   30.7750   45.8670 C   0  0  0  0  0  0  0  0  0  0  0  0
   58.0760   31.9000   45.1220 N   0  0  0  0  0  0  0  0  0  0  0  0
   57.3480   31.8410   43.8710 C   0  0  0  0  0  0  0  0  0  0  0  0
   58.7060   32.9970   45.5730 C   0  0  0  0  0  0  0  0  0  0  0  0
   58.6560   34.1660   44.8440 C   0  0  0  0  0  0  0  0  0  0  0  0
   59.2880   35.3360   45.2810 C   0  0  0  0  0  0  0  0  0  0  0  0
   59.9700   35.3200   46.4590 C   0  0  0  0  0  0  0  0  0  0  0  0
   60.0160   34.1430   47.1860 C   0  0  0  0  0  0  0  0  0  0  0  0
   59.4100   32.9900   46.7850 C   0  0  0  0  0  0  0  0  0  0  0  0
   57.4600   29.5340   45.4770 C   0  0  0  0  0  0  0  0  0  0  0  0
   56.3580   29.6840   44.8510 O   0  0  0  0  0  0  0  0  0  0  0  0
   58.0200   28.1940   45.7880 C   0  0  0  0  0  0  0  0  0  0  0  0
   59.1490   28.3560   46.7920 C   0  0  0  0  0  0  0  0  0  0  0  0
   58.8120   29.4380   47.7920 C   0  0  0  0  0  0  0  0  0  0  0  0
   63.4787   34.8438   46.8508 H   0  0  0  0  0  0  0  0  0  0  0  0
   64.2743   33.6798   45.7378 H   0  0  0  0  0  0  0  0  0  0  0  0
   62.4855   33.8431   45.7378 H   0  0  0  0  0  0  0  0  0  0  0  0
   62.2800   32.3409   47.4063 H   0  0  0  0  0  0  0  0  0  0  0  0
   64.0459   32.0058   47.2160 H   0  0  0  0  0  0  0  0  0  0  0  0
   64.5788   33.0733   49.0953 H   0  0  0  0  0  0  0  0  0  0  0  0
   63.4019   34.4284   48.7325 H   0  0  0  0  0  0  0  0  0  0  0  0
   63.1810   32.3970   50.5920 H   0  0  0  0  0  0  0  0  0  0  0  0
   62.3589   34.7565   50.6544 H   0  0  0  0  0  0  0  0  0  0  0  0
   61.0986   34.2041   49.4715 H   0  0  0  0  0  0  0  0  0  0  0  0
   61.4725   33.5032   52.3589 H   0  0  0  0  0  0  0  0  0  0  0  0
   59.9928   34.0426   51.4247 H   0  0  0  0  0  0  0  0  0  0  0  0
   61.3134   31.3225   51.1362 H   0  0  0  0  0  0  0  0  0  0  0  0
   59.8948   31.6599   52.1742 H   0  0  0  0  0  0  0  0  0  0  0  0
   58.9277   30.9910   50.2179 H   0  0  0  0  0  0  0  0  0  0  0  0
   59.0191   32.8433   50.0675 H   0  0  0  0  0  0  0  0  0  0  0  0
   61.2340   31.6550   48.7010 H   0  0  0  0  0  0  0  0  0  0  0  0
   56.2710   31.7537   44.0773 H   0  0  0  0  0  0  0  0  0  0  0  0
   57.5375   32.7574   43.2929 H   0  0  0  0  0  0  0  0  0  0  0  0
   57.6826   30.9670   43.2929 H   0  0  0  0  0  0  0  0  0  0  0  0
   58.1041   34.1797   43.8925 H   0  0  0  0  0  0  0  0  0  0  0  0
   59.2343   36.2561   44.6805 H   0  0  0  0  0  0  0  0  0  0  0  0
   60.4751   36.2255   46.8263 H   0  0  0  0  0  0  0  0  0  0  0  0
   60.5701   34.1380   48.1362 H   0  0  0  0  0  0  0  0  0  0  0  0
   57.2336   27.5549   46.2159 H   0  0  0  0  0  0  0  0  0  0  0  0
   58.4018   27.7260   44.8687 H   0  0  0  0  0  0  0  0  0  0  0  0
   59.3006   27.4051   47.3238 H   0  0  0  0  0  0  0  0  0  0  0  0
   60.0666   28.6387   46.2553 H   0  0  0  0  0  0  0  0  0  0  0  0
   57.8131   29.2569   48.2156 H   0  0  0  0  0  0  0  0  0  0  0  0
   59.5440   29.4411   48.6131 H   0  0  0  0  0  0  0  0  0  0  0  0
  1  2  1  0
  2  3  1  0
  3  4  1  0
  4  5  1  0
  5  6  1  0
  6  7  1  0
  7  8  1  0
  8  9  1  0
  9 10  1  0
 10 11  2  0
 11 12  1  0
 12 13  2  0
 13 14  1  0
 13 15  1  0
 15 16  2  0
 16 17  1  0
 17 18  2  0
 18 19  1  0
 19 20  2  0
 12 21  1  0
 21 22  2  0
 21 23  1  0
 23 24  1  0
 24 25  1  0
 20 10  1  0
 25 11  1  0
 20 15  1  0
  1 26  1  0
  1 27  1  0
  1 28  1  0
  2 29  1  0
  2 30  1  0
  3 31  1  0
  3 32  1  0
  4 33  1  0
  5 34  1  0
  5 35  1  0
  6 36  1  0
  6 37  1  0
  7 38  1  0
  7 39  1  0
  8 40  1  0
  8 41  1  0
  9 42  1  0
 14 43  1  0
 14 44  1  0
 14 45  1  0
 16 46  1  0
 17 47  1  0
 18 48  1  0
 19 49  1  0
 23 50  1  0
 23 51  1  0
 24 52  1  0
 24 53  1  0
 25 54  1  0
 25 55  1  0
M  CHG  1  13   1
M  END
>  <smiles>  (18) 
CCCNCCCCNc1c2c([n+](C)c3ccccc13)C(=O)CCC2

>  <score_type>  (18) 
oracle

>  <origin>  (18) 
adg

>  <m_score__min__energy>  (18) 
-6.46

>  <m_primary>  (18) 
energy

$$$$
19:0
     RDKit          3D

 61 62  0  0  0  0  0  0  0  0999 V2000
   60.0510   29.8320   47.3890 C   0  0  0  0  0  0  0  0  0  0  0  0
   60.3290   29.1490   48.7030 C   0  0  0  0  0  0  0  0  0  0  0  0
   59.4080   29.4660   49.7040 O   0  0  0  0  0  0  0  0  0  0  0  0
   59.9320   28.9730   50.9200 C   0  0  0  0  0  0  0  0  0  0  0  0
   59.0570   29.3850   52.0870 C   0  0  0  0  0  0  0  0  0  0  0  0
   57.7770   29.6200   51.6050 O   0  0  0  0  0  0  0  0  0  0  0  0
   57.1360   30.5830   52.3100 C   0  0  0  0  0  0  0  0  0  0  0  0
   57.1350   31.9430   51.5320 C   0  0  0  0  0  0  0  0  0  0  0  0
   58.1750   32.0070   50.7290 O   0  0  0  0  0  0  0  0  0  0  0  0
   58.7760   32.4160   49.6500 C   0  0  0  0  0  0  0  0  0  0  0  0
   58.1560   32.7250   48.4890 C   0  0  0  0  0  0  0  0  0  0  0  0
   58.8170   33.1630   47.3520 C   0  0  0  0  0  0  0  0  0  0  0  0
   58.3770   33.4230   46.0800 N   0  0  0  0  0  0  0  0  0  0  0  0
   57.9140   33.6580   44.8040 C   0  0  0  0  0  0  0  0  0  0  0  0
   58.0900   32.4470   43.8580 C   0  0  0  0  0  0  0  0  0  0  0  0
   58.3340   31.1710   44.5950 C   0  0  0  0  0  0  0  0  0  0  0  0
   57.0300   30.6360   45.0240 N   0  0  0  0  0  0  0  0  0  0  0  0
   56.2340   30.3600   43.8220 C   0  0  0  0  0  0  0  0  0  0  0  0
   57.2880   29.2940   45.5910 C   0  0  0  0  0  0  0  0  0  0  0  0
   60.2540   33.2780   47.4760 C   0  0  0  0  0  0  0  0  0  0  0  0
   60.9720   33.7280   46.3660 C   0  0  0  0  0  0  0  0  0  0  0  0
   62.3700   33.8690   46.4250 C   0  0  0  0  0  0  0  0  0  0  0  0
   62.9110   33.5300   47.6470 C   0  0  0  0  0  0  0  0  0  0  0  0
   62.2630   33.0970   48.7280 C   0  0  0  0  0  0  0  0  0  0  0  0
   60.8680   32.9620   48.6580 C   0  0  0  0  0  0  0  0  0  0  0  0
   60.1370   32.5520   49.6750 N   0  0  0  0  0  0  0  0  0  0  0  0
   60.8170   32.2200   50.9110 C   0  0  0  0  0  0  0  0  0  0  0  0
   59.6424   30.8359   47.5768 H   0  0  0  0  0  0  0  0  0  0  0  0
   60.9857   29.9180   46.8155 H   0  0  0  0  0  0  0  0  0  0  0  0
   59.3220   29.2408   46.8155 H   0  0  0  0  0  0  0  0  0  0  0  0
   60.3060   28.0612   48.5412 H   0  0  0  0  0  0  0  0  0  0  0  0
   61.3130   29.5002   49.0472 H   0  0  0  0  0  0  0  0  0  0  0  0
   59.9790   27.8750   50.8740 H   0  0  0  0  0  0  0  0  0  0  0  0
   60.9382   29.3925   51.0672 H   0  0  0  0  0  0  0  0  0  0  0  0
   59.0312   28.5798   52.8360 H   0  0  0  0  0  0  0  0  0  0  0  0
   59.4578   30.2928   52.5617 H   0  0  0  0  0  0  0  0  0  0  0  0
   56.0967   30.2685   52.4856 H   0  0  0  0  0  0  0  0  0  0  0  0
   57.6623   30.7265   53.2652 H   0  0  0  0  0  0  0  0  0  0  0  0
   56.2122   32.0216   50.9385 H   0  0  0  0  0  0  0  0  0  0  0  0
   57.1878   32.7705   52.2549 H   0  0  0  0  0  0  0  0  0  0  0  0
   57.0617   32.6227   48.4439 H   0  0  0  0  0  0  0  0  0  0  0  0
   57.4450   32.4400   46.1770 H   0  0  0  0  0  0  0  0  0  0  0  0
   56.8435   33.9044   44.8606 H   0  0  0  0  0  0  0  0  0  0  0  0
   58.5077   34.4856   44.3886 H   0  0  0  0  0  0  0  0  0  0  0  0
   57.1769   32.3360   43.2547 H   0  0  0  0  0  0  0  0  0  0  0  0
   58.9715   32.6416   43.2294 H   0  0  0  0  0  0  0  0  0  0  0  0
   58.8348   30.4482   43.9341 H   0  0  0  0  0  0  0  0  0  0  0  0
   58.9787   31.3513   45.4678 H   0  0  0  0  0  0  0  0  0  0  0  0
   55.2328   30.0128   44.1170 H   0  0  0  0  0  0  0  0  0  0  0  0
   56.1421   31.2787   43.2241 H   0  0  0  0  0  0  0  0  0  0  0  0
   56.7306   29.5816   43.2241 H   0  0  0  0  0  0  0  0  0  0  0  0
   57.2769   29.3517   46.6894 H   0  0  0  0  0  0  0  0  0  0  0  0
   56.5075   28.5967   45.2526 H   0  0  0  0  0  0  0  0  0  0  0  0
   58.2714   28.9358   45.2526 H   0  0  0  0  0  0  0  0  0  0  0  0
   60.4387   33.9747   45.4361 H   0  0  0  0  0  0  0  0  0  0  0  0
   62.9755   34.2173   45.5753 H   0  0  0  0  0  0  0  0  0  0  0  0
   64.0026   33.6282   47.7404 H   0  0  0  0  0  0  0  0  0  0  0  0
   62.8078   32.8517   49.6516 H   0  0  0  0  0  0  0  0  0  0  0  0
   60.1942   32.5241   51.7652 H   0  0  0  0  0  0  0  0  0  0  0  0
   60.9924   31.1349   50.9530 H   0  0  0  0  0  0  0  0  0  0  0  0
   61.7805   32.7491   50.9530 H   0  0  0  0  0  0  0  0  0  0  0  0
  1  2  1  0
  2  3  1  0
  3  4  1  0
  4  5  1  0
  5  6  1  0
  6  7  1  0
  7  8  1  0
  8  9  1  0
  9 10  1  0
 10 11  2  0
 11 12  1  0
 12 13  1  0
 13 14  1  0
 14 15  1  0
 15 16  1  0
 16 17  1  0
 17 18  1  0
 17 19  1  0
 12 20  2  0
 20 21  1  0
 21 22  2  0
 22 23  1  0
 23 24  2  0
 24 25  1  0
 25 26  2  0
 26 27  1  0
 26 10  1  0
 25 20  1  0
  1 28  1  0
  1 29  1  0
  1 30  1  0
  2 31  1  0
  2 32  1  0
  4 33  1  0
  4 34  1  0
  5 35  1  0
  5 36  1  0
  7 37  1  0
  7 38  1  0
  8 39  1  0
  8 40  1  0
 11 41  1  0
 13 42  1  0
 14 43  1  0
 14 44  1  0
 15 45  1  0
 15 46  1  0
 16 47  1  0
 16 48  1  0
 18 49  1  0
 18 50  1  0
 18 51  1  0
 19 52  1  0
 19 53  1  0
 19 54  1  0
 21 55  1  0
 22 56  1  0
 23 57  1  0
 24 58  1  0
 27 59  1  0
 27 60  1  0
 27 61  1  0
M  CHG  1  26   1
M  END
>  <smiles>  (19) 
CCOCCOCCOc1cc(NCCCN(C)C)c2ccccc2[n+]1C

>  <score_type>  (19) 
oracle

>  <origin>  (19) 
adg

>  <m_score__min__energy>  (19) 
-4.9500000000000002

>  <m_primary>  (19) 
energy

$$$$
20:0
     RDKit          3D

 73 75  0  0  0  0  0  0  0  0999 V2000
   60.7400   27.8530   49.8550 C   0  0  0  0  0  0  0  0  0  0  0  0
   60.7820   29.3030   50.2800 C   0  0  0  0  0  0  0  0  0  0  0  0
   62.1170   29.6920   50.8710 C   0  0  0  0  0  0  0  0  0  0  0  0
   62.2400   31.1750   51.1070 C   0  0  0  0  0  0  0  0  0  0  0  0
   62.1640   32.0310   50.0250 N   0  0  0  0  0  0  0  0  0  0  0  0
   62.8610   31.8820   48.8440 C   0  0  0  0  0  0  0  0  0  0  0  0
   62.2990   31.7210   47.5130 C   0  0  0  0  0  0  0  0  0  0  0  0
   62.1030   33.0120   46.7470 C   0  0  0  0  0  0  0  0  0  0  0  0
   63.3800   33.8490   46.6800 C   0  0  0  0  0  0  0  0  0  0  0  0
   61.9260   33.4060   50.3720 C   0  0  0  0  0  0  0  0  0  0  0  0
   60.8630   33.4690   51.4350 C   0  0  0  0  0  0  0  0  0  0  0  0
   59.5360   33.6550   50.8990 N   0  0  0  0  0  0  0  0  0  0  0  0
   58.7020   32.4960   51.1740 C   0  0  0  0  0  0  0  0  0  0  0  0
   58.4250   31.6240   49.9950 C   0  0  0  0  0  0  0  0  0  0  0  0
   59.2470   31.8240   48.8470 N   0  0  0  0  0  0  0  0  0  0  0  0
   58.8940   31.7050   47.4960 C   0  0  0  0  0  0  0  0  0  0  0  0
   58.6800   32.8810   46.7930 C   0  0  0  0  0  0  0  0  0  0  0  0
   58.3350   32.8850   45.4490 C   0  0  0  0  0  0  0  0  0  0  0  0
   58.1930   31.7120   44.7680 N   0  0  0  0  0  0  0  0  0  0  0  0
   57.8170   31.7770   43.3930 C   0  0  0  0  0  0  0  0  0  0  0  0
   58.4000   30.5700   45.4570 C   0  0  0  0  0  0  0  0  0  0  0  0
   58.2620   29.3650   44.8060 C   0  0  0  0  0  0  0  0  0  0  0  0
   58.4580   28.1510   45.4720 C   0  0  0  0  0  0  0  0  0  0  0  0
   58.8010   28.1070   46.8160 C   0  0  0  0  0  0  0  0  0  0  0  0
   58.9330   29.3480   47.4350 C   0  0  0  0  0  0  0  0  0  0  0  0
   58.7440   30.5370   46.7910 C   0  0  0  0  0  0  0  0  0  0  0  0
   58.1490   34.2090   44.8140 C   0  0  0  0  0  0  0  0  0  0  0  0
   59.2670   35.1580   45.1750 C   0  0  0  0  0  0  0  0  0  0  0  0
   59.6310   35.1640   46.6290 C   0  0  0  0  0  0  0  0  0  0  0  0
   58.7980   34.2140   47.4470 C   0  0  0  0  0  0  0  0  0  0  0  0
   60.7214   27.2098   50.7472 H   0  0  0  0  0  0  0  0  0  0  0  0
   59.8363   27.6730   49.2543 H   0  0  0  0  0  0  0  0  0  0  0  0
   61.6318   27.6210   49.2543 H   0  0  0  0  0  0  0  0  0  0  0  0
   60.5876   29.9346   49.4006 H   0  0  0  0  0  0  0  0  0  0  0  0
   60.0168   29.4469   51.0570 H   0  0  0  0  0  0  0  0  0  0  0  0
   62.2412   29.1715   51.8321 H   0  0  0  0  0  0  0  0  0  0  0  0
   62.8956   29.4054   50.1487 H   0  0  0  0  0  0  0  0  0  0  0  0
   61.4354   31.4595   51.8011 H   0  0  0  0  0  0  0  0  0  0  0  0
   63.2696   31.3009   51.4732 H   0  0  0  0  0  0  0  0  0  0  0  0
   63.4993   32.7753   48.7765 H   0  0  0  0  0  0  0  0  0  0  0  0
   63.2525   30.8653   48.9958 H   0  0  0  0  0  0  0  0  0  0  0  0
   62.9752   31.0772   46.9314 H   0  0  0  0  0  0  0  0  0  0  0  0
   61.2977   31.2866   47.6498 H   0  0  0  0  0  0  0  0  0  0  0  0
   61.7850   32.7700   45.7222 H   0  0  0  0  0  0  0  0  0  0  0  0
   61.3414   33.6037   47.2760 H   0  0  0  0  0  0  0  0  0  0  0  0
   63.7244   34.0747   47.7000 H   0  0  0  0  0  0  0  0  0  0  0  0
   64.1597   33.2862   46.1459 H   0  0  0  0  0  0  0  0  0  0  0  0
   63.1750   34.7885   46.1459 H   0  0  0  0  0  0  0  0  0  0  0  0
   62.8548   33.8558   50.7528 H   0  0  0  0  0  0  0  0  0  0  0  0
   61.5933   33.9604   49.4821 H   0  0  0  0  0  0  0  0  0  0  0  0
   60.8816   32.5283   52.0048 H   0  0  0  0  0  0  0  0  0  0  0  0
   61.0852   34.3396   52.0695 H   0  0  0  0  0  0  0  0  0  0  0  0
   59.1020   34.4570   51.4210 H   0  0  0  0  0  0  0  0  0  0  0  0
   59.2063   31.8864   51.9383 H   0  0  0  0  0  0  0  0  0  0  0  0
   57.7281   32.8889   51.5012 H   0  0  0  0  0  0  0  0  0  0  0  0
   58.5483   30.5792   50.3161 H   0  0  0  0  0  0  0  0  0  0  0  0
   57.4066   31.8865   49.6724 H   0  0  0  0  0  0  0  0  0  0  0  0
   60.2610   32.1050   49.0300 H   0  0  0  0  0  0  0  0  0  0  0  0
   56.7357   31.9639   43.3170 H   0  0  0  0  0  0  0  0  0  0  0  0
   58.3657   32.5936   42.9010 H   0  0  0  0  0  0  0  0  0  0  0  0
   58.0597   30.8236   42.9010 H   0  0  0  0  0  0  0  0  0  0  0  0
   57.9919   29.3568   43.7397 H   0  0  0  0  0  0  0  0  0  0  0  0
   58.3374   27.2087   44.9174 H   0  0  0  0  0  0  0  0  0  0  0  0
   58.9574   27.1603   47.3539 H   0  0  0  0  0  0  0  0  0  0  0  0
   59.2043   29.3713   48.5008 H   0  0  0  0  0  0  0  0  0  0  0  0
   58.1271   34.0816   43.7216 H   0  0  0  0  0  0  0  0  0  0  0  0
   57.2028   34.6362   45.1775 H   0  0  0  0  0  0  0  0  0  0  0  0
   60.1594   34.8730   44.5984 H   0  0  0  0  0  0  0  0  0  0  0  0
   58.9074   36.1702   44.9380 H   0  0  0  0  0  0  0  0  0  0  0  0
   60.6883   34.8768   46.7270 H   0  0  0  0  0  0  0  0  0  0  0  0
   59.4443   36.1785   47.0111 H   0  0  0  0  0  0  0  0  0  0  0  0
   59.2678   34.0867   48.4334 H   0  0  0  0  0  0  0  0  0  0  0  0
   57.7881   34.6392   47.5431 H   0  0  0  0  0  0  0  0  0  0  0  0
  1  2  1  0
  2  3  1  0
  3  4  1  0
  4  5  1  0
  5  6  1  0
  6  7  1  0
  7  8  1  0
  8  9  1  0
  5 10  1  0
 10 11  1  0
 11 12  1  0
 12 13  1  0
 13 14  1  0
 14 15  1  0
 15 16  1  0
 16 17  2  0
 17 18  1  0
 18 19  2  0
 19 20  1  0
 19 21  1  0
 21 22  2  0
 22 23  1  0
 23 24  2  0
 24 25  1  0
 25 26  2  0
 18 27  1  0
 27 28  1  0
 28 29  1  0
 29 30  1  0
 26 16  1  0
 30 17  1  0
 26 21  1  0
  1 31  1  0
  1 32  1  0
  1 33  1  0
  2 34  1  0
  2 35  1  0
  3 36  1  0
  3 37  1  0
  4 38  1  0
  4 39  1  0
  6 40  1  0
  6 41  1  0
  7 42  1  0
  7 43  1  0
  8 44  1  0
  8 45  1  0
  9 46  1  0
  9 47  1  0
  9 48  1  0
 10 49  1  0
 10 50  1  0
 11 51  1  0
 11 52  1  0
 12 53  1  0
 13 54  1  0
 13 55  1  0
 14 56  1  0
 14 57  1  0
 15 58  1  0
 20 59  1  0
 20 60  1  0
 20 61  1  0
 22 62  1  0
 23 63  1  0
 24 64  1  0
 25 65  1  0
 27 66  1  0
 27 67  1  0
 28 68  1  0
 28 69  1  0
 29 70  1  0
 29 71  1  0
 30 72  1  0
 30 73  1  0
M  CHG  1  19   1
M  END
>  <smiles>  (20) 
CCCCN(CCCC)CCNCCNc1c2c([n+](C)c3ccccc13)CCCC2

>  <score_type>  (20) 
oracle

>  <origin>  (20) 
adg

>  <m_score__min__energy>  (20) 
-5.4900000000000002

>  <m_primary>  (20) 
energy

$$$$
21:0
     RDKit          3D

 38 41  0  0  0  0  0  0  0  0999 V2000
   67.5490   32.6950   51.4860 C   0  0  0  0  0  0  0  0  0  0  0  0
   66.2390   33.1050   51.0290 N   0  0  0  0  0  0  0  0  0  0  0  0
   65.6790   32.9370   49.8160 C   0  0  0  0  0  0  0  0  0  0  0  0
   64.4140   33.4880   49.8340 C   0  0  0  0  0  0  0  0  0  0  0  0
   63.4110   33.5680   48.7890 C   0  0  0  0  0  0  0  0  0  0  0  0
   63.7590   33.4040   47.4650 C   0  0  0  0  0  0  0  0  0  0  0  0
   62.8480   33.4690   46.4290 C   0  0  0  0  0  0  0  0  0  0  0  0
   61.5070   33.7150   46.7440 C   0  0  0  0  0  0  0  0  0  0  0  0
   60.6060   33.7810   45.7420 N   0  0  0  0  0  0  0  0  0  0  0  0
   59.2930   34.0190   46.0220 C   0  0  0  0  0  0  0  0  0  0  0  0
   58.3440   34.0910   44.9890 O   0  0  0  0  0  0  0  0  0  0  0  0
   57.8920   32.9520   44.3810 C   0  0  0  0  0  0  0  0  0  0  0  0
   57.1900   31.9860   45.1030 C   0  0  0  0  0  0  0  0  0  0  0  0
   56.7330   30.8280   44.4710 C   0  0  0  0  0  0  0  0  0  0  0  0
   56.9820   30.6510   43.1290 C   0  0  0  0  0  0  0  0  0  0  0  0
   57.6810   31.6120   42.4080 C   0  0  0  0  0  0  0  0  0  0  0  0
   58.1440   32.7720   43.0170 C   0  0  0  0  0  0  0  0  0  0  0  0
   58.9170   34.1870   47.3400 C   0  0  0  0  0  0  0  0  0  0  0  0
   59.8070   34.1260   48.3920 C   0  0  0  0  0  0  0  0  0  0  0  0
   61.1460   33.8810   48.0780 C   0  0  0  0  0  0  0  0  0  0  0  0
   62.0760   33.8120   49.1010 C   0  0  0  0  0  0  0  0  0  0  0  0
   64.2590   33.9870   51.1210 C   0  0  0  0  0  0  0  0  0  0  0  0
   65.3790   33.7430   51.8250 N   0  0  0  0  0  0  0  0  0  0  0  0
   67.5684   32.6889   52.5858 H   0  0  0  0  0  0  0  0  0  0  0  0
   67.7691   31.6850   51.1098 H   0  0  0  0  0  0  0  0  0  0  0  0
   68.3056   33.3993   51.1098 H   0  0  0  0  0  0  0  0  0  0  0  0
   66.1513   32.4428   48.9542 H   0  0  0  0  0  0  0  0  0  0  0  0
   64.8144   33.2119   47.2218 H   0  0  0  0  0  0  0  0  0  0  0  0
   63.1676   33.3313   45.3855 H   0  0  0  0  0  0  0  0  0  0  0  0
   56.9958   32.1376   46.1751 H   0  0  0  0  0  0  0  0  0  0  0  0
   56.1801   30.0656   45.0393 H   0  0  0  0  0  0  0  0  0  0  0  0
   56.6250   29.7418   42.6230 H   0  0  0  0  0  0  0  0  0  0  0  0
   57.8710   31.4514   41.3365 H   0  0  0  0  0  0  0  0  0  0  0  0
   58.6950   33.5299   42.4407 H   0  0  0  0  0  0  0  0  0  0  0  0
   57.8567   34.3787   47.5616 H   0  0  0  0  0  0  0  0  0  0  0  0
   59.4770   34.2642   49.4322 H   0  0  0  0  0  0  0  0  0  0  0  0
   61.7644   33.9482   50.1471 H   0  0  0  0  0  0  0  0  0  0  0  0
   63.3639   34.4995   51.5032 H   0  0  0  0  0  0  0  0  0  0  0  0
  1  2  1  0
  2  3  1  0
  3  4  2  0
  4  5  1  0
  5  6  2  0
  6  7  1  0
  7  8  2  0
  8  9  1  0
  9 10  2  0
 10 11  1  0
 11 12  1  0
 12 13  2  0
 13 14  1  0
 14 15  2  0
 15 16  1  0
 16 17  2  0
 10 18  1  0
 18 19  2  0
 19 20  1  0
 20 21  2  0
  4 22  1  0
 22 23  2  0
 23  2  1  0
 21  5  1  0
 20  8  1  0
 17 12  1  0
  1 24  1  0
  1 25  1  0
  1 26  1  0
  3 27  1  0
  6 28  1  0
  7 29  1  0
 13 30  1  0
 14 31  1  0
 15 32  1  0
 16 33  1  0
 17 34  1  0
 18 35  1  0
 19 36  1  0
 21 37  1  0
 22 38  1  0
M  END
>  <smiles>  (21) 
Cn1cc(-c2ccc3nc(Oc4ccccc4)ccc3c2)cn1

>  <score_type>  (21) 
oracle

>  <origin>  (21) 
adg

>  <m_score__min__energy>  (21) 
-7.8200000000000003

>  <m_primary>  (21) 
energy

$$$$
22:0
     RDKit          3D

 53 55  0  0  0  0  0  0  0  0999 V2000
   57.0590   32.3510   41.0170 C   0  0  0  0  0  0  0  0  0  0  0  0
   58.1940   32.3310   41.9910 C   0  0  0  0  0  0  0  0  0  0  0  0
   57.6680   32.0580   43.3110 N   0  0  0  0  0  0  0  0  0  0  0  0
   56.9810   30.9500   43.6690 C   0  0  0  0  0  0  0  0  0  0  0  0
   56.6410   29.8090   42.7710 C   0  0  0  0  0  0  0  0  0  0  0  0
   57.3980   28.6180   43.3020 C   0  0  0  0  0  0  0  0  0  0  0  0
   57.4570   27.6310   42.5430 O   0  0  0  0  0  0  0  0  0  0  0  0
   57.9880   28.6590   44.5810 N   0  0  0  0  0  0  0  0  0  0  0  0
   58.7180   27.6280   45.1990 C   0  0  0  0  0  0  0  0  0  0  0  0
   60.0410   27.8780   45.5110 C   0  0  0  0  0  0  0  0  0  0  0  0
   60.8130   26.9100   46.1170 C   0  0  0  0  0  0  0  0  0  0  0  0
   60.3330   25.6600   46.4450 C   0  0  0  0  0  0  0  0  0  0  0  0
   59.0130   25.4030   46.1370 C   0  0  0  0  0  0  0  0  0  0  0  0
   58.2340   26.3870   45.5220 C   0  0  0  0  0  0  0  0  0  0  0  0
   56.6570   31.0610   44.9900 N   0  0  0  0  0  0  0  0  0  0  0  0
   57.1400   32.2130   45.4160 N   0  0  0  0  0  0  0  0  0  0  0  0
   57.7630   32.8400   44.4020 C   0  0  0  0  0  0  0  0  0  0  0  0
   58.5610   34.4280   44.5290 S   0  0  0  0  0  0  0  0  0  0  0  0
   59.3640   34.6440   46.1150 C   0  0  0  0  0  0  0  0  0  0  0  0
   58.5130   34.2010   47.2910 C   0  0  0  0  0  0  0  0  0  0  0  0
   58.9260   32.9460   47.7850 O   0  0  0  0  0  0  0  0  0  0  0  0
   60.1840   32.4110   47.6020 C   0  0  0  0  0  0  0  0  0  0  0  0
   61.3460   33.0890   47.9340 C   0  0  0  0  0  0  0  0  0  0  0  0
   62.5760   32.5020   47.7280 C   0  0  0  0  0  0  0  0  0  0  0  0
   62.6340   31.2160   47.1790 C   0  0  0  0  0  0  0  0  0  0  0  0
   61.4610   30.5400   46.8470 C   0  0  0  0  0  0  0  0  0  0  0  0
   60.2270   31.1250   47.0520 C   0  0  0  0  0  0  0  0  0  0  0  0
   59.0770   30.4340   46.7140 O   0  0  0  0  0  0  0  0  0  0  0  0
   58.5150   29.6230   47.7340 C   0  0  0  0  0  0  0  0  0  0  0  0
   56.1055   32.3678   41.5653 H   0  0  0  0  0  0  0  0  0  0  0  0
   57.1342   33.2480   40.3847 H   0  0  0  0  0  0  0  0  0  0  0  0
   57.1026   31.4519   40.3847 H   0  0  0  0  0  0  0  0  0  0  0  0
   58.9105   31.5456   41.7084 H   0  0  0  0  0  0  0  0  0  0  0  0
   58.7089   33.3031   41.9865 H   0  0  0  0  0  0  0  0  0  0  0  0
   55.5586   29.6145   42.7942 H   0  0  0  0  0  0  0  0  0  0  0  0
   56.9128   30.0247   41.7272 H   0  0  0  0  0  0  0  0  0  0  0  0
   57.8500   29.5740   45.1110 H   0  0  0  0  0  0  0  0  0  0  0  0
   60.4816   28.8576   45.2738 H   0  0  0  0  0  0  0  0  0  0  0  0
   61.8618   27.1462   46.3499 H   0  0  0  0  0  0  0  0  0  0  0  0
   60.9707   24.9051   46.9282 H   0  0  0  0  0  0  0  0  0  0  0  0
   58.5735   24.4233   46.3756 H   0  0  0  0  0  0  0  0  0  0  0  0
   57.1849   26.1550   45.2865 H   0  0  0  0  0  0  0  0  0  0  0  0
   60.2937   34.0561   46.1172 H   0  0  0  0  0  0  0  0  0  0  0  0
   59.5504   35.7210   46.2387 H   0  0  0  0  0  0  0  0  0  0  0  0
   58.5982   34.9471   48.0948 H   0  0  0  0  0  0  0  0  0  0  0  0
   57.4715   34.1111   46.9485 H   0  0  0  0  0  0  0  0  0  0  0  0
   61.2866   34.0998   48.3637 H   0  0  0  0  0  0  0  0  0  0  0  0
   63.5000   33.0374   47.9917 H   0  0  0  0  0  0  0  0  0  0  0  0
   63.6093   30.7366   47.0088 H   0  0  0  0  0  0  0  0  0  0  0  0
   61.5190   29.5292   46.4169 H   0  0  0  0  0  0  0  0  0  0  0  0
   58.7944   30.0261   48.7186 H   0  0  0  0  0  0  0  0  0  0  0  0
   57.4193   29.6187   47.6370 H   0  0  0  0  0  0  0  0  0  0  0  0
   58.8957   28.5956   47.6370 H   0  0  0  0  0  0  0  0  0  0  0  0
  1  2  1  0
  2  3  1  0
  3  4  1  0
  4  5  1  0
  5  6  1  0
  6  7  2  0
  6  8  1  0
  8  9  1  0
  9 10  2  0
 10 11  1  0
 11 12  2  0
 12 13  1  0
 13 14  2  0
  4 15  2  0
 15 16  1  0
 16 17  2  0
 17 18  1  0
 18 19  1  0
 19 20  1  0
 20 21  1  0
 21 22  1  0
 22 23  2  0
 23 24  1  0
 24 25  2  0
 25 26  1  0
 26 27  2  0
 27 28  1  0
 28 29  1  0
 17  3  1  0
 27 22  1  0
 14  9  1  0
  1 30  1  0
  1 31  1  0
  1 32  1  0
  2 33  1  0
  2 34  1  0
  5 35  1  0
  5 36  1  0
  8 37  1  0
 10 38  1  0
 11 39  1  0
 12 40  1  0
 13 41  1  0
 14 42  1  0
 19 43  1  0
 19 44  1  0
 20 45  1  0
 20 46  1  0
 23 47  1  0
 24 48  1  0
 25 49  1  0
 26 50  1  0
 29 51  1  0
 29 52  1  0
 29 53  1  0
M  END
>  <smiles>  (22) 
CCn1c(CC(=O)Nc2ccccc2)nnc1SCCOc1ccccc1OC

>  <score_type>  (22) 
oracle

>  <origin>  (22) 
adg

>  <m_score__min__energy>  (22) 
-8.7799999999999994

>  <m_primary>  (22) 
energy

$$$$
23:0
     RDKit          3D

 66 68  0  0  0  0  0  0  0  0999 V2000
   60.6750   29.1760   49.2200 C   0  0  0  0  0  0  0  0  0  0  0  0
   59.4310   29.2560   48.4050 C   0  0  0  0  0  0  0  0  0  0  0  0
   59.4850   29.9870   47.2950 O   0  0  0  0  0  0  0  0  0  0  0  0
   60.4900   30.0030   46.3950 C   0  0  0  0  0  0  0  0  0  0  0  0
   60.4100   29.0840   45.2390 C   0  0  0  0  0  0  0  0  0  0  0  0
   59.2740   28.5810   44.8090 O   0  0  0  0  0  0  0  0  0  0  0  0
   58.2500   29.0150   44.1440 C   0  0  0  0  0  0  0  0  0  0  0  0
   57.0230   29.4700   44.8770 C   0  0  0  0  0  0  0  0  0  0  0  0
   57.3640   30.7600   45.4080 O   0  0  0  0  0  0  0  0  0  0  0  0
   57.0150   31.7380   44.4720 C   0  0  0  0  0  0  0  0  0  0  0  0
   58.2040   32.6980   44.4180 C   0  0  0  0  0  0  0  0  0  0  0  0
   57.8880   33.9330   45.1950 C   0  0  0  0  0  0  0  0  0  0  0  0
   58.0130   33.8360   46.6670 C   0  0  0  0  0  0  0  0  0  0  0  0
   58.7920   32.7750   47.2200 N   0  0  0  0  0  0  0  0  0  0  0  0
   59.8170   32.8960   48.1680 C   0  0  0  0  0  0  0  0  0  0  0  0
   59.4480   32.6420   49.5050 C   0  0  0  0  0  0  0  0  0  0  0  0
   60.3920   32.7320   50.5270 C   0  0  0  0  0  0  0  0  0  0  0  0
   61.6770   33.0600   50.3000 N   0  0  0  0  0  0  0  0  0  0  0  0
   62.6080   33.1570   51.3950 C   0  0  0  0  0  0  0  0  0  0  0  0
   62.0430   33.3050   49.0070 C   0  0  0  0  0  0  0  0  0  0  0  0
   63.3480   33.6340   48.7070 C   0  0  0  0  0  0  0  0  0  0  0  0
   63.7700   33.8840   47.3990 C   0  0  0  0  0  0  0  0  0  0  0  0
   62.8590   33.8020   46.3710 C   0  0  0  0  0  0  0  0  0  0  0  0
   61.5650   33.4720   46.7010 C   0  0  0  0  0  0  0  0  0  0  0  0
   61.1220   33.2220   47.9700 C   0  0  0  0  0  0  0  0  0  0  0  0
   59.8670   32.4170   51.8970 C   0  0  0  0  0  0  0  0  0  0  0  0
   59.1120   31.0930   51.6930 C   0  0  0  0  0  0  0  0  0  0  0  0
   57.8210   31.4450   50.9930 C   0  0  0  0  0  0  0  0  0  0  0  0
   58.0570   32.2930   49.7960 C   0  0  0  0  0  0  0  0  0  0  0  0
   60.4149   29.1927   50.2887 H   0  0  0  0  0  0  0  0  0  0  0  0
   61.2068   28.2418   48.9866 H   0  0  0  0  0  0  0  0  0  0  0  0
   61.3221   30.0344   48.9866 H   0  0  0  0  0  0  0  0  0  0  0  0
   59.1572   28.2309   48.1149 H   0  0  0  0  0  0  0  0  0  0  0  0
   58.6987   29.7654   49.0486 H   0  0  0  0  0  0  0  0  0  0  0  0
   60.5524   31.0256   45.9945 H   0  0  0  0  0  0  0  0  0  0  0  0
   61.3664   29.6530   46.9602 H   0  0  0  0  0  0  0  0  0  0  0  0
   60.8441   29.6278   44.3870 H   0  0  0  0  0  0  0  0  0  0  0  0
   60.9169   28.1892   45.6295 H   0  0  0  0  0  0  0  0  0  0  0  0
   58.5982   29.8693   43.5449 H   0  0  0  0  0  0  0  0  0  0  0  0
   57.9050   28.1248   43.5977 H   0  0  0  0  0  0  0  0  0  0  0  0
   56.1685   29.5488   44.1888 H   0  0  0  0  0  0  0  0  0  0  0  0
   56.7275   28.7633   45.6664 H   0  0  0  0  0  0  0  0  0  0  0  0
   56.8445   31.2820   43.4856 H   0  0  0  0  0  0  0  0  0  0  0  0
   56.0858   32.2561   44.7517 H   0  0  0  0  0  0  0  0  0  0  0  0
   59.0888   32.2092   44.8518 H   0  0  0  0  0  0  0  0  0  0  0  0
   58.4076   32.9678   43.3712 H   0  0  0  0  0  0  0  0  0  0  0  0
   58.5687   34.7265   44.8531 H   0  0  0  0  0  0  0  0  0  0  0  0
   56.8230   34.1325   45.0052 H   0  0  0  0  0  0  0  0  0  0  0  0
   58.4563   34.7798   47.0173 H   0  0  0  0  0  0  0  0  0  0  0  0
   56.9895   33.6223   47.0087 H   0  0  0  0  0  0  0  0  0  0  0  0
   58.5720   31.7930   46.8810 H   0  0  0  0  0  0  0  0  0  0  0  0
   62.0609   33.1000   52.3476 H   0  0  0  0  0  0  0  0  0  0  0  0
   63.3301   32.3292   51.3368 H   0  0  0  0  0  0  0  0  0  0  0  0
   63.1439   34.1158   51.3368 H   0  0  0  0  0  0  0  0  0  0  0  0
   64.0809   33.7018   49.5245 H   0  0  0  0  0  0  0  0  0  0  0  0
   64.8189   34.1435   47.1931 H   0  0  0  0  0  0  0  0  0  0  0  0
   63.1533   33.9925   45.3284 H   0  0  0  0  0  0  0  0  0  0  0  0
   60.8324   33.4042   45.8833 H   0  0  0  0  0  0  0  0  0  0  0  0
   60.6907   32.2938   52.6156 H   0  0  0  0  0  0  0  0  0  0  0  0
   59.2312   33.2153   52.3075 H   0  0  0  0  0  0  0  0  0  0  0  0
   59.7070   30.4069   51.0723 H   0  0  0  0  0  0  0  0  0  0  0  0
   58.9223   30.5890   52.6521 H   0  0  0  0  0  0  0  0  0  0  0  0
   57.3214   30.5167   50.6790 H   0  0  0  0  0  0  0  0  0  0  0  0
   57.1939   32.0125   51.6963 H   0  0  0  0  0  0  0  0  0  0  0  0
   57.6577   31.7564   48.9227 H   0  0  0  0  0  0  0  0  0  0  0  0
   57.5575   33.2485   50.0140 H   0  0  0  0  0  0  0  0  0  0  0  0
  1  2  1  0
  2  3  1  0
  3  4  1  0
  4  5  1  0
  5  6  1  0
  6  7  1  0
  7  8  1  0
  8  9  1  0
  9 10  1  0
 10 11  1  0
 11 12  1  0
 12 13  1  0
 13 14  1  0
 14 15  1  0
 15 16  2  0
 16 17  1  0
 17 18  2  0
 18 19  1  0
 18 20  1  0
 20 21  2  0
 21 22  1  0
 22 23  2  0
 23 24  1  0
 24 25  2  0
 17 26  1  0
 26 27  1  0
 27 28  1  0
 28 29  1  0
 25 15  1  0
 29 16  1  0
 25 20  1  0
  1 30  1  0
  1 31  1  0
  1 32  1  0
  2 33  1  0
  2 34  1  0
  4 35  1  0
  4 36  1  0
  5 37  1  0
  5 38  1  0
  7 39  1  0
  7 40  1  0
  8 41  1  0
  8 42  1  0
 10 43  1  0
 10 44  1  0
 11 45  1  0
 11 46  1  0
 12 47  1  0
 12 48  1  0
 13 49  1  0
 13 50  1  0
 14 51  1  0
 19 52  1  0
 19 53  1  0
 19 54  1  0
 21 55  1  0
 22 56  1  0
 23 57  1  0
 24 58  1  0
 26 59  1  0
 26 60  1  0
 27 61  1  0
 27 62  1  0
 28 63  1  0
 28 64  1  0
 29 65  1  0
 29 66  1  0
M  CHG  1  18   1
M  END
>  <smiles>  (23) 
CCOCCOCCOCCCCNc1c2c([n+](C)c3ccccc13)CCCC2

>  <score_type>  (23) 
oracle

>  <origin>  (23) 
adg

>  <m_score__min__energy>  (23) 
-5.1799999999999997

>  <m_primary>  (23) 
energy

$$$$
24:0
     RDKit          3D

 55 58  0  0  0  0  0  0  0  0999 V2000
   55.8290   24.0390   44.5740 C   0  0  0  0  0  0  0  0  0  0  0  0
   54.6530   24.4650   45.4070 C   0  0  0  0  0  0  0  0  0  0  0  0
   54.7970   25.8100   45.7250 O   0  0  0  0  0  0  0  0  0  0  0  0
   55.8270   25.9450   46.5860 N   0  0  0  0  0  0  0  0  0  0  0  0
   56.8650   26.8390   46.0950 C   0  0  0  0  0  0  0  0  0  0  0  0
   58.2300   26.2300   46.4400 C   0  0  0  0  0  0  0  0  0  0  0  0
   59.0140   27.1640   47.3300 C   0  0  0  0  0  0  0  0  0  0  0  0
   60.4200   27.2950   46.7470 C   0  0  0  0  0  0  0  0  0  0  0  0
   60.4740   28.1730   45.6240 N   0  0  0  0  0  0  0  0  0  0  0  0
   59.7270   29.3670   45.4680 C   0  0  0  0  0  0  0  0  0  0  0  0
   60.0060   30.5190   46.2240 C   0  0  0  0  0  0  0  0  0  0  0  0
   59.2730   31.6710   46.0700 C   0  0  0  0  0  0  0  0  0  0  0  0
   58.2790   31.6630   45.1650 N   0  0  0  0  0  0  0  0  0  0  0  0
   57.5500   32.8610   44.8090 C   0  0  0  0  0  0  0  0  0  0  0  0
   57.9970   30.5550   44.4330 C   0  0  0  0  0  0  0  0  0  0  0  0
   56.9500   30.5230   43.5210 C   0  0  0  0  0  0  0  0  0  0  0  0
   56.6740   29.3500   42.7970 C   0  0  0  0  0  0  0  0  0  0  0  0
   57.4090   28.2040   42.9520 C   0  0  0  0  0  0  0  0  0  0  0  0
   58.4440   28.2320   43.8540 C   0  0  0  0  0  0  0  0  0  0  0  0
   58.7080   29.3810   44.5600 C   0  0  0  0  0  0  0  0  0  0  0  0
   59.5990   32.8730   46.9040 C   0  0  0  0  0  0  0  0  0  0  0  0
   58.9620   34.0530   46.9880 C   0  0  0  0  0  0  0  0  0  0  0  0
   59.4360   34.9680   47.9320 C   0  0  0  0  0  0  0  0  0  0  0  0
   60.8150   34.1780   48.7400 S   0  0  0  0  0  0  0  0  0  0  0  0
   60.6490   32.6680   47.7420 C   0  0  0  0  0  0  0  0  0  0  0  0
   61.5450   31.5470   47.8930 C   0  0  0  0  0  0  0  0  0  0  0  0
   61.1370   30.3250   47.1720 C   0  0  0  0  0  0  0  0  0  0  0  0
   56.6564   23.7393   45.2339 H   0  0  0  0  0  0  0  0  0  0  0  0
   55.5398   23.1885   43.9392 H   0  0  0  0  0  0  0  0  0  0  0  0
   56.1516   24.8774   43.9392 H   0  0  0  0  0  0  0  0  0  0  0  0
   53.7232   24.3165   44.8383 H   0  0  0  0  0  0  0  0  0  0  0  0
   54.6083   23.8646   46.3276 H   0  0  0  0  0  0  0  0  0  0  0  0
   55.5290   26.2500   47.5360 H   0  0  0  0  0  0  0  0  0  0  0  0
   56.7732   26.9518   45.0047 H   0  0  0  0  0  0  0  0  0  0  0  0
   56.7635   27.8295   46.5625 H   0  0  0  0  0  0  0  0  0  0  0  0
   58.0786   25.2738   46.9623 H   0  0  0  0  0  0  0  0  0  0  0  0
   58.7934   26.0677   45.5093 H   0  0  0  0  0  0  0  0  0  0  0  0
   58.5274   28.1501   47.3584 H   0  0  0  0  0  0  0  0  0  0  0  0
   59.0589   26.7695   48.3559 H   0  0  0  0  0  0  0  0  0  0  0  0
   61.0897   27.6829   47.5287 H   0  0  0  0  0  0  0  0  0  0  0  0
   60.7294   26.2973   46.4021 H   0  0  0  0  0  0  0  0  0  0  0  0
   61.1230   27.9320   44.8290 H   0  0  0  0  0  0  0  0  0  0  0  0
   57.2326   33.3826   45.7240 H   0  0  0  0  0  0  0  0  0  0  0  0
   58.1988   33.5225   44.2162 H   0  0  0  0  0  0  0  0  0  0  0  0
   56.6643   32.5887   44.2162 H   0  0  0  0  0  0  0  0  0  0  0  0
   56.3334   31.4204   43.3643 H   0  0  0  0  0  0  0  0  0  0  0  0
   55.8389   29.3522   42.0811 H   0  0  0  0  0  0  0  0  0  0  0  0
   57.1786   27.2959   42.3756 H   0  0  0  0  0  0  0  0  0  0  0  0
   59.0614   27.3353   44.0113 H   0  0  0  0  0  0  0  0  0  0  0  0
   58.1040   34.2888   46.3413 H   0  0  0  0  0  0  0  0  0  0  0  0
   59.0383   35.9732   48.1355 H   0  0  0  0  0  0  0  0  0  0  0  0
   62.5355   31.8485   47.5215 H   0  0  0  0  0  0  0  0  0  0  0  0
   61.5414   31.2904   48.9627 H   0  0  0  0  0  0  0  0  0  0  0  0
   62.0031   29.9558   46.6033 H   0  0  0  0  0  0  0  0  0  0  0  0
   60.7890   29.6123   47.9342 H   0  0  0  0  0  0  0  0  0  0  0  0
  1  2  1  0
  2  3  1  0
  3  4  1  0
  4  5  1  0
  5  6  1  0
  6  7  1  0
  7  8  1  0
  8  9  1  0
  9 10  1  0
 10 11  2  0
 11 12  1  0
 12 13  2  0
 13 14  1  0
 13 15  1  0
 15 16  2  0
 16 17  1  0
 17 18  2  0
 18 19  1  0
 19 20  2  0
 12 21  1  0
 21 22  1  0
 22 23  2  0
 23 24  1  0
 24 25  1  0
 25 26  1  0
 26 27  1  0
 20 10  1  0
 25 21  2  0
 27 11  1  0
 20 15  1  0
  1 28  1  0
  1 29  1  0
  1 30  1  0
  2 31  1  0
  2 32  1  0
  4 33  1  0
  5 34  1  0
  5 35  1  0
  6 36  1  0
  6 37  1  0
  7 38  1  0
  7 39  1  0
  8 40  1  0
  8 41  1  0
  9 42  1  0
 14 43  1  0
 14 44  1  0
 14 45  1  0
 16 46  1  0
 17 47  1  0
 18 48  1  0
 19 49  1  0
 22 50  1  0
 23 51  1  0
 26 52  1  0
 26 53  1  0
 27 54  1  0
 27 55  1  0
M  CHG  1  13   1
M  END
>  <smiles>  (24) 
CCONCCCCNc1c2c([n+](C)c3ccccc13)-c1ccsc1CC2

>  <score_type>  (24) 
oracle

>  <origin>  (24) 
adg

>  <m_score__min__energy>  (24) 
-7.1600000000000001

>  <m_primary>  (24) 
energy

$$$$
