0:0
     RDKit          3D

 40 42  0  0  0  0  0  0  0  0999 V2000
   56.9880   27.5670   45.5790 C   0  0  0  0  0  0  0  0  0  0  0  0
   56.2030   28.6070   45.0040 O   0  0  0  0  0  0  0  0  0  0  0  0
   56.7230   29.7950   44.4690 C   0  0  0  0  0  0  0  0  0  0  0  0
   56.5770   30.0180   43.1000 C   0  0  0  0  0  0  0  0  0  0  0  0
   57.0790   31.1770   42.5160 C   0  0  0  0  0  0  0  0  0  0  0  0
   57.7330   32.1330   43.2960 C   0  0  0  0  0  0  0  0  0  0  0  0
   57.8970   31.9500   44.6910 C   0  0  0  0  0  0  0  0  0  0  0  0
   58.5820   32.9510   45.5120 N   0  0  0  0  0  0  0  0  0  0  0  0
   58.9800   34.2340   44.8880 C   0  0  0  0  0  0  0  0  0  0  0  0
   59.6580   35.2390   45.8320 C   0  0  0  0  0  0  0  0  0  0  0  0
   60.4630   34.6020   46.8840 N   0  0  0  0  0  0  0  0  0  0  0  0
   61.6550   33.8900   46.3730 C   0  0  0  0  0  0  0  0  0  0  0  0
   62.5630   33.5170   47.5020 C   0  0  0  0  0  0  0  0  0  0  0  0
   63.4550   32.4640   47.5090 C   0  0  0  0  0  0  0  0  0  0  0  0
   64.0810   32.5170   48.7350 C   0  0  0  0  0  0  0  0  0  0  0  0
   63.5350   33.5990   49.3970 C   0  0  0  0  0  0  0  0  0  0  0  0
   62.6340   34.1740   48.6360 O   0  0  0  0  0  0  0  0  0  0  0  0
   59.5960   33.7420   47.6970 C   0  0  0  0  0  0  0  0  0  0  0  0
   58.9810   32.5920   46.8900 C   0  0  0  0  0  0  0  0  0  0  0  0
   57.3830   30.7570   45.2590 C   0  0  0  0  0  0  0  0  0  0  0  0
   56.9378   27.6334   46.6758 H   0  0  0  0  0  0  0  0  0  0  0  0
   56.5994   26.5911   45.2526 H   0  0  0  0  0  0  0  0  0  0  0  0
   58.0331   27.6732   45.2526 H   0  0  0  0  0  0  0  0  0  0  0  0
   56.0612   29.2722   42.4773 H   0  0  0  0  0  0  0  0  0  0  0  0
   56.9601   31.3409   41.4348 H   0  0  0  0  0  0  0  0  0  0  0  0
   58.1271   33.0427   42.8195 H   0  0  0  0  0  0  0  0  0  0  0  0
   59.6797   34.0113   44.0690 H   0  0  0  0  0  0  0  0  0  0  0  0
   58.0478   34.7119   44.5524 H   0  0  0  0  0  0  0  0  0  0  0  0
   60.3154   35.8886   45.2354 H   0  0  0  0  0  0  0  0  0  0  0  0
   58.8580   35.8037   46.3331 H   0  0  0  0  0  0  0  0  0  0  0  0
   61.3351   32.9776   45.8485 H   0  0  0  0  0  0  0  0  0  0  0  0
   62.1976   34.5523   45.6823 H   0  0  0  0  0  0  0  0  0  0  0  0
   63.6296   31.7349   46.7040 H   0  0  0  0  0  0  0  0  0  0  0  0
   64.8584   31.8354   49.1106 H   0  0  0  0  0  0  0  0  0  0  0  0
   63.8133   33.9288   50.4088 H   0  0  0  0  0  0  0  0  0  0  0  0
   60.1918   33.3168   48.5181 H   0  0  0  0  0  0  0  0  0  0  0  0
   58.7701   34.3631   48.0739 H   0  0  0  0  0  0  0  0  0  0  0  0
   59.7203   31.7796   46.8324 H   0  0  0  0  0  0  0  0  0  0  0  0
   58.0595   32.3006   47.4153 H   0  0  0  0  0  0  0  0  0  0  0  0
   57.5018   30.5789   46.3380 H   0  0  0  0  0  0  0  0  0  0  0  0
  1  2  1  0
  2  3  1  0
  3  4  2  0
  4  5  1  0
  5  6  2  0
  6  7  1  0
  7  8  1  0
  8  9  1  0
  9 10  1  0
 10 11  1  0
 11 12  1  0
 12 13  1  0
 13 14  2  0
 14 15  1  0
 15 16  2  0
 16 17  1  0
 11 18  1  0
 18 19  1  0
  7 20  2  0
 20  3  1  0
 19  8  1  0
 17 13  1  0
  1 21  1  0
  1 22  1  0
  1 23  1  0
  4 24  1  0
  5 25  1  0
  6 26  1  0
  9 27  1  0
  9 28  1  0
 10 29  1  0
 10 30  1  0
 12 31  1  0
 12 32  1  0
 14 33  1  0
 15 34  1  0
 16 35  1  0
 18 36  1  0
 18 37  1  0
 19 38  1  0
 19 39  1  0
 20 40  1  0
M  END
>  <UniqueID>  (1) 
1

>  <SMILES>  (1) 
COc1cccc(N2CCN(Cc3ccco3)CC2)c1

>  <Energy>  (1) 
77.06410873859554

>  <Genealogy>  (1) 
COc1cccc(N2CCN(Cc3ccco3)CC2)c1 (3D coordinates assigned)
COc1cccc(N2CCN(Cc3ccco3)CC2)c1 (nonaromatic ring conformer: 77.06410873859554 kcal/mol)

>  <smiles>  (1) 
COc1cccc(N2CCN(Cc3ccco3)CC2)c1

>  <score_type>  (1) 
oracle

>  <origin>  (1) 
adg

>  <m_score__min__energy>  (1) 
-6.9800000000000004

>  <m_primary>  (1) 
energy

$$$$
1:0
     RDKit          3D

 35 37  0  0  0  0  0  0  0  0999 V2000
   56.7530   26.2570   43.3240 H   0  0  0  0  0  0  0  0  0  0  0  0
   57.7340   26.4570   43.4790 O   0  0  0  0  0  0  0  0  0  0  0  0
   58.1460   27.4400   44.3790 C   0  0  0  0  0  0  0  0  0  0  0  0
   59.3490   28.1250   44.1730 C   0  0  0  0  0  0  0  0  0  0  0  0
   59.9701   27.8884   43.2965 H   0  0  0  0  0  0  0  0  0  0  0  0
   59.7650   29.1070   45.0740 C   0  0  0  0  0  0  0  0  0  0  0  0
   60.7093   29.6438   44.9004 H   0  0  0  0  0  0  0  0  0  0  0  0
   58.9830   29.4140   46.2030 C   0  0  0  0  0  0  0  0  0  0  0  0
   59.3750   30.4540   47.1850 C   0  0  0  0  0  0  0  0  0  0  0  0
   60.3218   30.3213   47.7290 H   0  0  0  0  0  0  0  0  0  0  0  0
   58.6440   31.5460   47.4490 C   0  0  0  0  0  0  0  0  0  0  0  0
   57.9016   31.5108   48.2599 H   0  0  0  0  0  0  0  0  0  0  0  0
   58.8100   32.7970   46.6780 C   0  0  0  0  0  0  0  0  0  0  0  0
   59.4660   33.8630   47.3130 C   0  0  0  0  0  0  0  0  0  0  0  0
   59.7682   33.7656   48.3662 H   0  0  0  0  0  0  0  0  0  0  0  0
   59.7390   35.0440   46.6240 C   0  0  0  0  0  0  0  0  0  0  0  0
   60.2593   35.8691   47.1324 H   0  0  0  0  0  0  0  0  0  0  0  0
   59.3530   35.1800   45.2910 C   0  0  0  0  0  0  0  0  0  0  0  0
   59.5863   36.1049   44.7432 H   0  0  0  0  0  0  0  0  0  0  0  0
   58.6710   34.1440   44.6510 C   0  0  0  0  0  0  0  0  0  0  0  0
   58.3667   34.2611   43.6004 H   0  0  0  0  0  0  0  0  0  0  0  0
   58.3680   32.9510   45.3340 C   0  0  0  0  0  0  0  0  0  0  0  0
   57.5390   31.9360   44.6390 C   0  0  0  0  0  0  0  0  0  0  0  0
   56.6470   31.1260   45.2410 N   0  0  0  0  0  0  0  0  0  0  0  0
   56.1070   30.4270   44.2570 N   0  0  0  0  0  0  0  0  0  0  0  0
   56.6360   30.7980   43.1020 N   0  0  0  0  0  0  0  0  0  0  0  0
   57.5340   31.7470   43.3060 N   0  0  0  0  0  0  0  0  0  0  0  0
   57.7680   28.7340   46.3950 C   0  0  0  0  0  0  0  0  0  0  0  0
   57.1389   28.9801   47.2632 H   0  0  0  0  0  0  0  0  0  0  0  0
   57.3460   27.7410   45.4890 C   0  0  0  0  0  0  0  0  0  0  0  0
   56.1440   27.0350   45.6590 O   0  0  0  0  0  0  0  0  0  0  0  0
   56.0610   25.6570   46.0060 C   0  0  0  0  0  0  0  0  0  0  0  0
   56.0548   25.5544   47.1012 H   0  0  0  0  0  0  0  0  0  0  0  0
   55.1355   25.2299   45.5925 H   0  0  0  0  0  0  0  0  0  0  0  0
   56.9285   25.1219   45.5925 H   0  0  0  0  0  0  0  0  0  0  0  0
  1  2  1  0
  2  3  1  0
  3  4  2  0
  4  5  1  0
  4  6  1  0
  6  7  1  0
  6  8  2  0
  8  9  1  0
  9 10  1  0
  9 11  2  0
 11 12  1  0
 11 13  1  0
 13 14  2  0
 14 15  1  0
 14 16  1  0
 16 17  1  0
 16 18  2  0
 18 19  1  0
 18 20  1  0
 20 21  1  0
 20 22  2  0
 22 23  1  0
 23 24  1  0
 24 25  2  0
 25 26  1  0
 26 27  1  0
  8 28  1  0
 28 29  1  0
 28 30  2  0
 30 31  1  0
 31 32  1  0
 32 33  1  0
 32 34  1  0
 32 35  1  0
 30  3  1  0
 22 13  1  0
 27 23  2  0
M  CHG  1  26  -1
M  END
>  <UniqueID>  (2) 
2

>  <SMILES>  (2) 
COc1cc(/C=C/c2ccccc2-c2nn[n-]n2)ccc1O

>  <Energy>  (2) 
86.62455652972486

>  <Genealogy>  (2) 
COc1cc(C=Cc2ccccc2-c2nn[n-]n2)ccc1O (protonated)
COc1cc(/C=C/c2ccccc2-c2nn[n-]n2)ccc1O (cis-trans isomerization)
COc1cc(/C=C/c2ccccc2-c2nn[n-]n2)ccc1O (3D coordinates assigned)
COc1cc(/C=C/c2ccccc2-c2nn[n-]n2)ccc1O (optimized conformer: 86.62455652972486 kcal/mol)

>  <smiles>  (2) 
COc1cc(C=Cc2ccccc2-c2nn[nH]n2)ccc1O

>  <score_type>  (2) 
oracle

>  <origin>  (2) 
adg

>  <m_score__min__energy>  (2) 
-9.5500000000000007

>  <m_primary>  (2) 
energy

$$$$
2:0
     RDKit          3D

 45 47  0  0  0  0  0  0  0  0999 V2000
   56.2960   29.9300   43.6200 C   0  0  0  0  0  0  0  0  0  0  0  0
   56.7380   29.2760   44.9240 C   0  0  0  0  0  0  0  0  0  0  0  0
   55.8850   28.1390   45.2570 N   0  0  0  0  0  0  0  0  0  0  0  0
   56.2700   26.9510   45.9650 C   0  0  0  0  0  0  0  0  0  0  0  0
   55.3890   26.0840   46.2080 O   0  0  0  0  0  0  0  0  0  0  0  0
   57.6810   26.6920   46.4200 C   0  0  0  0  0  0  0  0  0  0  0  0
   58.6750   26.9810   45.2900 C   0  0  0  0  0  0  0  0  0  0  0  0
   60.0940   27.1640   45.8350 C   0  0  0  0  0  0  0  0  0  0  0  0
   60.1730   28.3890   46.6440 N   0  0  0  0  0  0  0  0  0  0  0  0
   60.1320   29.6840   46.0090 C   0  0  0  0  0  0  0  0  0  0  0  0
   59.9700   29.7720   44.7600 O   0  0  0  0  0  0  0  0  0  0  0  0
   60.3900   30.9390   46.8130 C   0  0  1  0  0  0  0  0  0  0  0  0
   59.4970   32.0660   46.3550 C   0  0  0  0  0  0  0  0  0  0  0  0
   58.1750   31.8050   45.9530 C   0  0  0  0  0  0  0  0  0  0  0  0
   57.3530   32.8470   45.5110 C   0  0  0  0  0  0  0  0  0  0  0  0
   57.8450   34.1540   45.4620 C   0  0  0  0  0  0  0  0  0  0  0  0
   59.1600   34.4210   45.8520 C   0  0  0  0  0  0  0  0  0  0  0  0
   59.9860   33.3830   46.2940 C   0  0  0  0  0  0  0  0  0  0  0  0
   60.1930   30.7280   48.2140 O   0  0  0  0  0  0  0  0  0  0  0  0
   60.3690   29.4880   48.8310 C   0  0  0  0  0  0  0  0  0  0  0  0
   60.5120   29.4080   50.2180 C   0  0  0  0  0  0  0  0  0  0  0  0
   60.6920   28.1650   50.8250 C   0  0  0  0  0  0  0  0  0  0  0  0
   60.7160   27.0140   50.0330 C   0  0  0  0  0  0  0  0  0  0  0  0
   60.5570   27.1120   48.6860 N   0  0  0  0  0  0  0  0  0  0  0  0
   60.3830   28.3140   48.0670 C   0  0  0  0  0  0  0  0  0  0  0  0
   55.6929   30.8224   43.8434 H   0  0  0  0  0  0  0  0  0  0  0  0
   57.1822   30.2227   43.0378 H   0  0  0  0  0  0  0  0  0  0  0  0
   55.6939   29.2169   43.0378 H   0  0  0  0  0  0  0  0  0  0  0  0
   57.7759   28.9275   44.8174 H   0  0  0  0  0  0  0  0  0  0  0  0
   56.6608   30.0191   45.7314 H   0  0  0  0  0  0  0  0  0  0  0  0
   57.9093   27.3424   47.2772 H   0  0  0  0  0  0  0  0  0  0  0  0
   57.7713   25.6346   46.7093 H   0  0  0  0  0  0  0  0  0  0  0  0
   58.6682   26.1392   44.5820 H   0  0  0  0  0  0  0  0  0  0  0  0
   58.3715   27.9117   44.7884 H   0  0  0  0  0  0  0  0  0  0  0  0
   60.3577   26.2981   46.4601 H   0  0  0  0  0  0  0  0  0  0  0  0
   60.7949   27.2453   44.9911 H   0  0  0  0  0  0  0  0  0  0  0  0
   61.4430   31.2085   46.6441 H   0  0  0  0  0  0  0  0  0  0  0  0
   57.7855   30.7768   45.9863 H   0  0  0  0  0  0  0  0  0  0  0  0
   56.3184   32.6374   45.2017 H   0  0  0  0  0  0  0  0  0  0  0  0
   57.1970   34.9729   45.1163 H   0  0  0  0  0  0  0  0  0  0  0  0
   59.5462   35.4502   45.8112 H   0  0  0  0  0  0  0  0  0  0  0  0
   61.0220   33.5974   46.5951 H   0  0  0  0  0  0  0  0  0  0  0  0
   60.4828   30.3219   50.8295 H   0  0  0  0  0  0  0  0  0  0  0  0
   60.8138   28.0916   51.9158 H   0  0  0  0  0  0  0  0  0  0  0  0
   60.8635   26.0286   50.4991 H   0  0  0  0  0  0  0  0  0  0  0  0
  1  2  1  0
  2  3  1  0
  3  4  1  0
  4  5  2  0
  4  6  1  0
  6  7  1  0
  7  8  1  0
  8  9  1  0
  9 10  1  0
 10 11  2  0
 10 12  1  0
 12 13  1  0
 13 14  2  0
 14 15  1  0
 15 16  2  0
 16 17  1  0
 17 18  2  0
 12 19  1  0
 19 20  1  0
 20 21  2  0
 21 22  1  0
 22 23  2  0
 23 24  1  0
 24 25  2  0
 25  9  1  0
 18 13  1  0
 25 20  1  0
  1 26  1  0
  1 27  1  0
  1 28  1  0
  2 29  1  0
  2 30  1  0
  6 31  1  0
  6 32  1  0
  7 33  1  0
  7 34  1  0
  8 35  1  0
  8 36  1  0
 12 37  1  1
 14 38  1  0
 15 39  1  0
 16 40  1  0
 17 41  1  0
 18 42  1  0
 21 43  1  0
 22 44  1  0
 23 45  1  0
M  CHG  1   3  -1
M  END
>  <UniqueID>  (3) 
3

>  <SMILES>  (3) 
CC[N-]C(=O)CCCN1C(=O)[C@@H](c2ccccc2)Oc2cccnc21

>  <Energy>  (3) 
42.26209604979092

>  <Genealogy>  (3) 
CC[N-]C(=O)CCCN1C(=O)C(c2ccccc2)Oc2cccnc21 (protonated)
CC[N-]C(=O)CCCN1C(=O)[C@@H](c2ccccc2)Oc2cccnc21 (chirality)
CC[N-]C(=O)CCCN1C(=O)[C@@H](c2ccccc2)Oc2cccnc21 (3D coordinates assigned)
CC[N-]C(=O)CCCN1C(=O)[C@@H](c2ccccc2)Oc2cccnc21 (nonaromatic ring conformer: 42.26209604979092 kcal/mol)

>  <smiles>  (3) 
CCNC(=O)CCCN1C(=O)C(c2ccccc2)Oc2cccnc21

>  <score_type>  (3) 
oracle

>  <origin>  (3) 
adg

>  <m_score__min__energy>  (3) 
-9.6099999999999994

>  <m_primary>  (3) 
energy

$$$$
3:0
     RDKit          3D

 31 33  0  0  0  0  0  0  0  0999 V2000
   59.7250   33.7630   48.2430 C   0  0  0  0  0  0  0  0  0  0  0  0
   60.1140   34.5960   47.1910 C   0  0  0  0  0  0  0  0  0  0  0  0
   59.3820   34.6090   46.0000 C   0  0  0  0  0  0  0  0  0  0  0  0
   58.2510   33.7860   45.8550 C   0  0  0  0  0  0  0  0  0  0  0  0
   57.4260   33.8360   44.5970 C   0  0  0  0  0  0  0  0  0  0  0  0
   58.1100   32.7190   43.3240 S   0  0  0  0  0  0  0  0  0  0  0  0
   57.5480   31.2240   44.1340 C   0  0  0  0  0  0  0  0  0  0  0  0
   56.2760   30.9980   44.5090 N   0  0  0  0  0  0  0  0  0  0  0  0
   56.2720   29.8090   45.0920 N   0  0  0  0  0  0  0  0  0  0  0  0
   57.5430   29.3590   45.0490 C   0  0  0  0  0  0  0  0  0  0  0  0
   57.9950   28.0730   45.6110 C   0  0  0  0  0  0  0  0  0  0  0  0
   57.0670   27.0830   45.9780 C   0  0  0  0  0  0  0  0  0  0  0  0
   57.5070   25.8700   46.5180 C   0  0  0  0  0  0  0  0  0  0  0  0
   58.8730   25.6360   46.6970 C   0  0  0  0  0  0  0  0  0  0  0  0
   59.8020   26.6170   46.3370 C   0  0  0  0  0  0  0  0  0  0  0  0
   59.3670   27.8300   45.7960 C   0  0  0  0  0  0  0  0  0  0  0  0
   58.3300   30.2240   44.4540 O   0  0  0  0  0  0  0  0  0  0  0  0
   57.8660   32.9530   46.9190 C   0  0  0  0  0  0  0  0  0  0  0  0
   58.6030   32.9410   48.1070 C   0  0  0  0  0  0  0  0  0  0  0  0
   60.3024   33.7541   49.1792 H   0  0  0  0  0  0  0  0  0  0  0  0
   60.9973   35.2424   47.3000 H   0  0  0  0  0  0  0  0  0  0  0  0
   59.6918   35.2653   45.1734 H   0  0  0  0  0  0  0  0  0  0  0  0
   56.3957   33.5289   44.8296 H   0  0  0  0  0  0  0  0  0  0  0  0
   57.4417   34.8645   44.2072 H   0  0  0  0  0  0  0  0  0  0  0  0
   55.9906   27.2629   45.8400 H   0  0  0  0  0  0  0  0  0  0  0  0
   56.7762   25.0986   46.8024 H   0  0  0  0  0  0  0  0  0  0  0  0
   59.2171   24.6810   47.1207 H   0  0  0  0  0  0  0  0  0  0  0  0
   60.8772   26.4337   46.4798 H   0  0  0  0  0  0  0  0  0  0  0  0
   60.1019   28.5982   45.5136 H   0  0  0  0  0  0  0  0  0  0  0  0
   56.9811   32.3076   46.8169 H   0  0  0  0  0  0  0  0  0  0  0  0
   58.2995   32.2840   48.9354 H   0  0  0  0  0  0  0  0  0  0  0  0
  1  2  2  0
  2  3  1  0
  3  4  2  0
  4  5  1  0
  5  6  1  0
  6  7  1  0
  7  8  2  0
  8  9  1  0
  9 10  2  0
 10 11  1  0
 11 12  2  0
 12 13  1  0
 13 14  2  0
 14 15  1  0
 15 16  2  0
 10 17  1  0
  4 18  1  0
 18 19  2  0
 19  1  1  0
 17  7  1  0
 16 11  1  0
  1 20  1  0
  2 21  1  0
  3 22  1  0
  5 23  1  0
  5 24  1  0
 12 25  1  0
 13 26  1  0
 14 27  1  0
 15 28  1  0
 16 29  1  0
 18 30  1  0
 19 31  1  0
M  END
>  <UniqueID>  (4) 
4

>  <SMILES>  (4) 
c1ccc(CSc2nnc(-c3ccccc3)o2)cc1

>  <Energy>  (4) 
63.178131677906435

>  <Genealogy>  (4) 
c1ccc(CSc2nnc(-c3ccccc3)o2)cc1 (3D coordinates assigned)
c1ccc(CSc2nnc(-c3ccccc3)o2)cc1 (optimized conformer: 63.178131677906435 kcal/mol)

>  <smiles>  (4) 
c1ccc(CSc2nnc(-c3ccccc3)o2)cc1

>  <score_type>  (4) 
oracle

>  <origin>  (4) 
adg

>  <m_score__min__energy>  (4) 
-7.5999999999999996

>  <m_primary>  (4) 
energy

$$$$
4:0
     RDKit          3D

 27 29  0  0  0  0  0  0  0  0999 V2000
   55.2150   29.7310   43.7680 C   0  0  0  0  0  0  0  0  0  0  0  0
   55.5200   29.0980   45.0070 O   0  0  0  0  0  0  0  0  0  0  0  0
   56.7090   28.3990   45.2740 C   0  0  0  0  0  0  0  0  0  0  0  0
   56.7020   27.0320   45.6220 C   0  0  0  0  0  0  0  0  0  0  0  0
   57.8990   26.3680   45.8980 C   0  0  0  0  0  0  0  0  0  0  0  0
   59.1120   27.0520   45.8260 C   0  0  0  0  0  0  0  0  0  0  0  0
   59.1340   28.4030   45.4790 C   0  0  0  0  0  0  0  0  0  0  0  0
   57.9380   29.0900   45.2060 C   0  0  0  0  0  0  0  0  0  0  0  0
   57.9720   30.4800   44.8310 N   0  0  0  0  0  0  0  0  0  0  0  0
   57.8010   30.9130   43.5870 N   0  0  0  0  0  0  0  0  0  0  0  0
   57.8990   32.2620   43.5820 C   0  0  0  0  0  0  0  0  0  0  0  0
   58.1340   32.6970   44.8720 C   0  0  0  0  0  0  0  0  0  0  0  0
   58.2860   33.9910   45.3570 C   0  0  0  0  0  0  0  0  0  0  0  0
   58.2440   35.0030   44.6110 O   0  0  0  0  0  0  0  0  0  0  0  0
   58.5310   34.1230   47.0270 S   0  0  0  0  0  0  0  0  0  0  0  0
   58.5270   32.5870   47.7650 C   0  0  0  0  0  0  0  0  0  0  0  0
   58.7350   32.4400   49.3770 S   0  0  0  0  0  0  0  0  0  0  0  0
   58.3470   31.4820   46.9910 N   0  0  0  0  0  0  0  0  0  0  0  0
   58.1750   31.5420   45.6360 C   0  0  0  0  0  0  0  0  0  0  0  0
   54.7449   30.7066   43.9607 H   0  0  0  0  0  0  0  0  0  0  0  0
   56.1414   29.8775   43.1933 H   0  0  0  0  0  0  0  0  0  0  0  0
   54.5232   29.0977   43.1933 H   0  0  0  0  0  0  0  0  0  0  0  0
   55.7485   26.4862   45.6762 H   0  0  0  0  0  0  0  0  0  0  0  0
   57.8850   25.3030   46.1728 H   0  0  0  0  0  0  0  0  0  0  0  0
   60.0531   26.5254   46.0432 H   0  0  0  0  0  0  0  0  0  0  0  0
   60.0948   28.9351   45.4185 H   0  0  0  0  0  0  0  0  0  0  0  0
   57.8067   32.9071   42.6958 H   0  0  0  0  0  0  0  0  0  0  0  0
  1  2  1  0
  2  3  1  0
  3  4  2  0
  4  5  1  0
  5  6  2  0
  6  7  1  0
  7  8  2  0
  8  9  1  0
  9 10  1  0
 10 11  2  0
 11 12  1  0
 12 13  1  0
 13 14  2  0
 13 15  1  0
 15 16  1  0
 16 17  2  0
 16 18  1  0
 18 19  1  0
  8  3  1  0
 19  9  1  0
 19 12  2  0
  1 20  1  0
  1 21  1  0
  1 22  1  0
  4 23  1  0
  5 24  1  0
  6 25  1  0
  7 26  1  0
 11 27  1  0
M  CHG  1  18  -1
M  END
>  <UniqueID>  (5) 
5

>  <SMILES>  (5) 
COc1ccccc1-n1ncc2c(=O)sc(=S)[n-]c21

>  <Energy>  (5) 
71.78812748445976

>  <Genealogy>  (5) 
COc1ccccc1-n1ncc2c(=O)sc(=S)[n-]c21 (protonated)
COc1ccccc1-n1ncc2c(=O)sc(=S)[n-]c21 (3D coordinates assigned)
COc1ccccc1-n1ncc2c(=O)sc(=S)[n-]c21 (optimized conformer: 71.78812748445976 kcal/mol)

>  <smiles>  (5) 
COc1ccccc1-n1ncc2c(=O)sc(=S)[nH]c21

>  <score_type>  (5) 
oracle

>  <origin>  (5) 
adg

>  <m_score__min__energy>  (5) 
-7.9100000000000001

>  <m_primary>  (5) 
energy

$$$$
5:0
     RDKit          3D

 33 35  0  0  0  0  0  0  0  0999 V2000
   58.1270   26.9790   42.6400 C   0  0  0  0  0  0  0  0  0  0  0  0
   57.8260   28.2210   43.4260 C   0  0  0  0  0  0  0  0  0  0  0  0
   56.8300   29.0990   42.9900 C   0  0  0  0  0  0  0  0  0  0  0  0
   56.5800   30.2640   43.7100 C   0  0  0  0  0  0  0  0  0  0  0  0
   57.3400   30.5690   44.8490 C   0  0  0  0  0  0  0  0  0  0  0  0
   57.0540   31.7040   45.6240 O   0  0  0  0  0  0  0  0  0  0  0  0
   57.9120   32.7970   45.8120 C   0  0  0  0  0  0  0  0  0  0  0  0
   58.4170   33.4580   44.6850 C   0  0  0  0  0  0  0  0  0  0  0  0
   59.2620   34.5620   44.8310 C   0  0  0  0  0  0  0  0  0  0  0  0
   59.5990   35.0210   46.1080 C   0  0  0  0  0  0  0  0  0  0  0  0
   59.0860   34.3800   47.2380 C   0  0  0  0  0  0  0  0  0  0  0  0
   58.2400   33.2750   47.0950 C   0  0  0  0  0  0  0  0  0  0  0  0
   58.3530   29.6720   45.2500 C   0  0  0  0  0  0  0  0  0  0  0  0
   59.1940   29.9450   46.4390 C   0  0  0  0  0  0  0  0  0  0  0  0
   60.3880   30.6630   46.4740 C   0  0  0  0  0  0  0  0  0  0  0  0
   60.9680   30.7190   47.7470 C   0  0  0  0  0  0  0  0  0  0  0  0
   60.2460   30.0420   48.7210 C   0  0  0  0  0  0  0  0  0  0  0  0
   58.8880   29.3720   47.9920 S   0  0  0  0  0  0  0  0  0  0  0  0
   58.5650   28.5300   44.5300 N   0  0  0  0  0  0  0  0  0  0  0  0
   58.3285   26.1474   43.3313 H   0  0  0  0  0  0  0  0  0  0  0  0
   57.2637   26.7279   42.0062 H   0  0  0  0  0  0  0  0  0  0  0  0
   59.0095   27.1510   42.0062 H   0  0  0  0  0  0  0  0  0  0  0  0
   56.2480   28.8713   42.0848 H   0  0  0  0  0  0  0  0  0  0  0  0
   55.7829   30.9485   43.3843 H   0  0  0  0  0  0  0  0  0  0  0  0
   58.1469   33.1060   43.6784 H   0  0  0  0  0  0  0  0  0  0  0  0
   59.6619   35.0698   43.9409 H   0  0  0  0  0  0  0  0  0  0  0  0
   60.2679   35.8867   46.2227 H   0  0  0  0  0  0  0  0  0  0  0  0
   59.3477   34.7447   48.2422 H   0  0  0  0  0  0  0  0  0  0  0  0
   57.8302   32.7785   47.9869 H   0  0  0  0  0  0  0  0  0  0  0  0
   60.8317   31.1395   45.5874 H   0  0  0  0  0  0  0  0  0  0  0  0
   61.9084   31.2500   47.9562 H   0  0  0  0  0  0  0  0  0  0  0  0
   60.5158   29.9588   49.7841 H   0  0  0  0  0  0  0  0  0  0  0  0
   59.3270   27.8750   44.8200 H   0  0  0  0  0  0  0  0  0  0  0  0
  1  2  1  0
  2  3  2  0
  3  4  1  0
  4  5  2  0
  5  6  1  0
  6  7  1  0
  7  8  2  0
  8  9  1  0
  9 10  2  0
 10 11  1  0
 11 12  2  0
  5 13  1  0
 13 14  1  0
 14 15  2  0
 15 16  1  0
 16 17  2  0
 17 18  1  0
 13 19  2  0
 19  2  1  0
 12  7  1  0
 18 14  1  0
  1 20  1  0
  1 21  1  0
  1 22  1  0
  3 23  1  0
  4 24  1  0
  8 25  1  0
  9 26  1  0
 10 27  1  0
 11 28  1  0
 12 29  1  0
 15 30  1  0
 16 31  1  0
 17 32  1  0
 19 33  1  0
M  CHG  1  19   1
M  END
>  <UniqueID>  (6) 
6

>  <SMILES>  (6) 
Cc1ccc(Oc2ccccc2)c(-c2cccs2)[nH+]1

>  <Energy>  (6) 
71.08205991378479

>  <Genealogy>  (6) 
Cc1ccc(Oc2ccccc2)c(-c2cccs2)[nH+]1 (protonated)
Cc1ccc(Oc2ccccc2)c(-c2cccs2)[nH+]1 (3D coordinates assigned)
Cc1ccc(Oc2ccccc2)c(-c2cccs2)[nH+]1 (optimized conformer: 71.08205991378479 kcal/mol)

>  <smiles>  (6) 
Cc1ccc(Oc2ccccc2)c(-c2cccs2)n1

>  <score_type>  (6) 
oracle

>  <origin>  (6) 
adg

>  <m_score__min__energy>  (6) 
-5.3600000000000003

>  <m_primary>  (6) 
energy

$$$$
6:0
     RDKit          3D

 50 52  0  0  0  0  0  0  0  0999 V2000
   58.9320   29.7560   49.5580 C   0  0  0  0  0  0  0  0  0  0  0  0
   58.6920   28.9860   48.4950 C   0  0  0  0  0  0  0  0  0  0  0  0
   59.8170   28.5110   47.6150 C   0  0  0  0  0  0  0  0  0  0  0  0
   59.8950   29.2980   46.3640 N   0  0  0  0  0  0  0  0  0  0  0  0
   59.9220   28.4200   45.1690 C   0  0  0  0  0  0  0  0  0  0  0  0
   58.5200   28.0020   44.6780 C   0  0  0  0  0  0  0  0  0  0  0  0
   57.7470   29.1100   43.9360 C   0  0  0  0  0  0  0  0  0  0  0  0
   56.6860   29.8060   44.8020 C   0  0  0  0  0  0  0  0  0  0  0  0
   56.6150   31.2090   44.5470 O   0  0  0  0  0  0  0  0  0  0  0  0
   57.4100   32.1940   45.1560 C   0  0  0  0  0  0  0  0  0  0  0  0
   57.8040   33.3040   44.3720 C   0  0  0  0  0  0  0  0  0  0  0  0
   58.5760   34.3410   44.9270 C   0  0  0  0  0  0  0  0  0  0  0  0
   58.9390   34.2320   46.2640 C   0  0  0  0  0  0  0  0  0  0  0  0
   58.5800   33.1670   47.0210 C   0  0  0  0  0  0  0  0  0  0  0  0
   57.8220   32.1170   46.5100 C   0  0  0  0  0  0  0  0  0  0  0  0
   59.0730   33.3260   48.3020 O   0  0  0  0  0  0  0  0  0  0  0  0
   59.7820   34.5720   48.3530 C   0  0  0  0  0  0  0  0  0  0  0  0
   59.6740   35.1160   47.0300 O   0  0  0  0  0  0  0  0  0  0  0  0
   60.9200   30.3820   46.3750 C   0  0  0  0  0  0  0  0  0  0  0  0
   61.3990   30.8730   47.7610 C   0  0  0  0  0  0  0  0  0  0  0  0
   62.3150   32.0610   47.6890 C   0  0  0  0  0  0  0  0  0  0  0  0
   63.3930   32.2540   48.5670 C   0  0  0  0  0  0  0  0  0  0  0  0
   64.1030   33.4220   48.3240 C   0  0  0  0  0  0  0  0  0  0  0  0
   63.3910   34.2010   47.0160 S   0  0  0  0  0  0  0  0  0  0  0  0
   62.1780   33.0720   46.7430 C   0  0  0  0  0  0  0  0  0  0  0  0
   58.0987   30.0948   50.1911 H   0  0  0  0  0  0  0  0  0  0  0  0
   59.9631   30.0520   49.8012 H   0  0  0  0  0  0  0  0  0  0  0  0
   57.6580   28.6944   48.2586 H   0  0  0  0  0  0  0  0  0  0  0  0
   60.7661   28.6131   48.1615 H   0  0  0  0  0  0  0  0  0  0  0  0
   59.6290   27.4599   47.3509 H   0  0  0  0  0  0  0  0  0  0  0  0
   60.4301   28.9569   44.3544 H   0  0  0  0  0  0  0  0  0  0  0  0
   60.4508   27.4994   45.4568 H   0  0  0  0  0  0  0  0  0  0  0  0
   58.6356   27.1473   43.9953 H   0  0  0  0  0  0  0  0  0  0  0  0
   57.9333   27.7583   45.5760 H   0  0  0  0  0  0  0  0  0  0  0  0
   58.4677   29.8672   43.5937 H   0  0  0  0  0  0  0  0  0  0  0  0
   57.2166   28.6291   43.1008 H   0  0  0  0  0  0  0  0  0  0  0  0
   55.7047   29.3573   44.5882 H   0  0  0  0  0  0  0  0  0  0  0  0
   56.9687   29.6690   45.8562 H   0  0  0  0  0  0  0  0  0  0  0  0
   57.5029   33.3568   43.3153 H   0  0  0  0  0  0  0  0  0  0  0  0
   58.8818   35.2083   44.3234 H   0  0  0  0  0  0  0  0  0  0  0  0
   57.5514   31.2548   47.1372 H   0  0  0  0  0  0  0  0  0  0  0  0
   59.3217   35.2488   49.0879 H   0  0  0  0  0  0  0  0  0  0  0  0
   60.8298   34.4385   48.6602 H   0  0  0  0  0  0  0  0  0  0  0  0
   61.8011   30.0127   45.8298 H   0  0  0  0  0  0  0  0  0  0  0  0
   60.4256   31.2510   45.9162 H   0  0  0  0  0  0  0  0  0  0  0  0
   60.5167   31.1486   48.3573 H   0  0  0  0  0  0  0  0  0  0  0  0
   61.9691   30.0505   48.2177 H   0  0  0  0  0  0  0  0  0  0  0  0
   63.6504   31.5479   49.3702 H   0  0  0  0  0  0  0  0  0  0  0  0
   64.9783   33.7757   48.8887 H   0  0  0  0  0  0  0  0  0  0  0  0
   61.4112   33.1228   45.9559 H   0  0  0  0  0  0  0  0  0  0  0  0
  1  2  2  0
  2  3  1  0
  3  4  1  0
  4  5  1  0
  5  6  1  0
  6  7  1  0
  7  8  1  0
  8  9  1  0
  9 10  1  0
 10 11  2  0
 11 12  1  0
 12 13  2  0
 13 14  1  0
 14 15  2  0
 14 16  1  0
 16 17  1  0
 17 18  1  0
  4 19  1  0
 19 20  1  0
 20 21  1  0
 21 22  1  0
 22 23  2  0
 23 24  1  0
 24 25  1  0
 15 10  1  0
 25 21  2  0
 18 13  1  0
  1 26  1  0
  1 27  1  0
  2 28  1  0
  3 29  1  0
  3 30  1  0
  5 31  1  0
  5 32  1  0
  6 33  1  0
  6 34  1  0
  7 35  1  0
  7 36  1  0
  8 37  1  0
  8 38  1  0
 11 39  1  0
 12 40  1  0
 15 41  1  0
 17 42  1  0
 17 43  1  0
 19 44  1  0
 19 45  1  0
 20 46  1  0
 20 47  1  0
 22 48  1  0
 23 49  1  0
 25 50  1  0
M  END
>  <UniqueID>  (7) 
7

>  <SMILES>  (7) 
C=CCN(CCCCOc1ccc2c(c1)OCO2)CCc1ccsc1

>  <Energy>  (7) 
101.32495257424108

>  <Genealogy>  (7) 
C=CCN(CCCCOc1ccc2c(c1)OCO2)CCc1ccsc1 (3D coordinates assigned)
C=CCN(CCCCOc1ccc2c(c1)OCO2)CCc1ccsc1 (nonaromatic ring conformer: 101.32495257424108 kcal/mol)

>  <smiles>  (7) 
C=CCN(CCCCOc1ccc2c(c1)OCO2)CCc1ccsc1

>  <score_type>  (7) 
oracle

>  <origin>  (7) 
adg

>  <m_score__min__energy>  (7) 
-6.5599999999999996

>  <m_primary>  (7) 
energy

$$$$
7:0
     RDKit          3D

 35 35  0  0  0  0  0  0  0  0999 V2000
   57.3880   33.4260   45.9620 C   0  0  0  0  0  0  0  0  0  0  0  0
   57.8530   32.7110   44.6980 C   0  0  0  0  0  0  0  0  0  0  0  0
   57.9600   31.2630   44.9350 N   0  0  0  0  0  0  0  0  0  0  0  0
   59.1670   30.7470   45.6000 C   0  0  0  0  0  0  0  0  0  0  0  0
   58.8540   30.3520   47.0390 C   0  0  0  0  0  0  0  0  0  0  0  0
   56.8300   30.4090   44.6390 C   0  0  0  0  0  0  0  0  0  0  0  0
   55.6840   30.9160   44.4940 O   0  0  0  0  0  0  0  0  0  0  0  0
   56.9710   28.9210   44.4940 C   0  0  0  0  0  0  0  0  0  0  0  0
   55.9190   28.2500   45.2430 N   0  0  0  0  0  0  0  0  0  0  0  0
   56.1440   27.0560   45.9930 C   0  0  0  0  0  0  0  0  0  0  0  0
   57.2500   26.8980   46.5750 O   0  0  0  0  0  0  0  0  0  0  0  0
   55.1420   26.0310   46.0330 N   0  0  0  0  0  0  0  0  0  0  0  0
   55.3270   24.6390   45.7360 C   0  0  0  0  0  0  0  0  0  0  0  0
   54.7240   23.6900   46.5720 C   0  0  0  0  0  0  0  0  0  0  0  0
   54.8950   22.3230   46.3300 C   0  0  0  0  0  0  0  0  0  0  0  0
   55.6840   21.8940   45.2570 C   0  0  0  0  0  0  0  0  0  0  0  0
   55.9210   20.0280   44.9290 Br  0  0  0  0  0  0  0  0  0  0  0  0
   56.3090   22.8360   44.4330 C   0  0  0  0  0  0  0  0  0  0  0  0
   56.1390   24.2030   44.6720 C   0  0  0  0  0  0  0  0  0  0  0  0
   57.7449   32.8772   46.8460 H   0  0  0  0  0  0  0  0  0  0  0  0
   57.7948   34.4479   45.9759 H   0  0  0  0  0  0  0  0  0  0  0  0
   56.2889   33.4686   45.9759 H   0  0  0  0  0  0  0  0  0  0  0  0
   57.1276   32.8932   43.8914 H   0  0  0  0  0  0  0  0  0  0  0  0
   58.8421   33.0990   44.4132 H   0  0  0  0  0  0  0  0  0  0  0  0
   59.5328   29.8652   45.0536 H   0  0  0  0  0  0  0  0  0  0  0  0
   59.9353   31.5342   45.6054 H   0  0  0  0  0  0  0  0  0  0  0  0
   59.3866   31.0242   47.7279 H   0  0  0  0  0  0  0  0  0  0  0  0
   57.7708   30.4312   47.2137 H   0  0  0  0  0  0  0  0  0  0  0  0
   59.1787   29.3156   47.2137 H   0  0  0  0  0  0  0  0  0  0  0  0
   56.8928   28.6488   43.4311 H   0  0  0  0  0  0  0  0  0  0  0  0
   57.9505   28.6095   44.8857 H   0  0  0  0  0  0  0  0  0  0  0  0
   54.1124   24.0220   47.4239 H   0  0  0  0  0  0  0  0  0  0  0  0
   54.4086   21.5843   46.9840 H   0  0  0  0  0  0  0  0  0  0  0  0
   56.9363   22.5001   43.5942 H   0  0  0  0  0  0  0  0  0  0  0  0
   56.6409   24.9394   44.0272 H   0  0  0  0  0  0  0  0  0  0  0  0
  1  2  1  0
  2  3  1  0
  3  4  1  0
  4  5  1  0
  3  6  1  0
  6  7  2  0
  6  8  1  0
  8  9  1  0
  9 10  1  0
 10 11  2  0
 10 12  1  0
 12 13  1  0
 13 14  2  0
 14 15  1  0
 15 16  2  0
 16 17  1  0
 16 18  1  0
 18 19  2  0
 19 13  1  0
  1 20  1  0
  1 21  1  0
  1 22  1  0
  2 23  1  0
  2 24  1  0
  4 25  1  0
  4 26  1  0
  5 27  1  0
  5 28  1  0
  5 29  1  0
  8 30  1  0
  8 31  1  0
 14 32  1  0
 15 33  1  0
 18 34  1  0
 19 35  1  0
M  CHG  2   9  -1  12  -1
M  END
>  <UniqueID>  (8) 
8

>  <SMILES>  (8) 
CCN(CC)C(=O)C[N-]C(=O)[N-]c1ccc(Br)cc1

>  <Energy>  (8) 
26.795860102395608

>  <Genealogy>  (8) 
CCN(CC)C(=O)C[N-]C(=O)[N-]c1ccc(Br)cc1 (protonated)
CCN(CC)C(=O)C[N-]C(=O)[N-]c1ccc(Br)cc1 (3D coordinates assigned)
CCN(CC)C(=O)C[N-]C(=O)[N-]c1ccc(Br)cc1 (optimized conformer: 26.795860102395608 kcal/mol)

>  <smiles>  (8) 
CCN(CC)C(=O)CNC(=O)Nc1ccc(Br)cc1

>  <score_type>  (8) 
oracle

>  <origin>  (8) 
adg

>  <m_score__min__energy>  (8) 
-10.699999999999999

>  <m_primary>  (8) 
energy

$$$$
8:0
     RDKit          3D

 44 48  0  0  0  0  0  0  0  0999 V2000
   60.2670   28.6720   45.7350 C   0  0  0  0  0  0  0  0  0  0  0  0
   59.6680   30.0470   45.8340 C   0  0  0  0  0  0  0  0  0  0  0  0
   60.4070   31.0660   46.3730 N   0  0  0  0  0  0  0  0  0  0  0  0
   59.9170   32.3450   46.4370 C   0  0  0  0  0  0  0  0  0  0  0  0
   60.6900   33.3810   46.9830 C   0  0  0  0  0  0  0  0  0  0  0  0
   60.1860   34.6850   47.0330 C   0  0  0  0  0  0  0  0  0  0  0  0
   58.9080   34.9660   46.5390 C   0  0  0  0  0  0  0  0  0  0  0  0
   58.1240   33.9470   45.9920 C   0  0  0  0  0  0  0  0  0  0  0  0
   58.6240   32.6360   45.9410 C   0  0  0  0  0  0  0  0  0  0  0  0
   57.8970   31.5710   45.4160 C   0  0  0  0  0  0  0  0  0  0  0  0
   56.6630   31.6260   44.8810 N   0  0  0  0  0  0  0  0  0  0  0  0
   56.3600   30.3870   44.5110 N   0  0  0  0  0  0  0  0  0  0  0  0
   57.4130   29.6020   44.8270 C   0  0  0  0  0  0  0  0  0  0  0  0
   57.4030   28.1470   44.6220 C   0  0  0  0  0  0  0  0  0  0  0  0
   57.0530   27.2940   45.6780 C   0  0  0  0  0  0  0  0  0  0  0  0
   57.0450   25.9090   45.4850 C   0  0  0  0  0  0  0  0  0  0  0  0
   57.3970   25.3690   44.2420 C   0  0  0  0  0  0  0  0  0  0  0  0
   57.3530   23.5960   43.9870 S   0  0  0  0  0  0  0  0  0  0  0  0
   56.0520   23.3590   45.2040 C   0  0  0  0  0  0  0  0  0  0  0  0
   56.3790   23.0950   46.5430 C   0  0  0  0  0  0  0  0  0  0  0  0
   57.6760   23.0270   46.9350 F   0  0  0  0  0  0  0  0  0  0  0  0
   55.3650   22.8980   47.4860 C   0  0  0  0  0  0  0  0  0  0  0  0
   54.0240   22.9690   47.0990 C   0  0  0  0  0  0  0  0  0  0  0  0
   53.6940   23.2420   45.7680 C   0  0  0  0  0  0  0  0  0  0  0  0
   54.7040   23.4390   44.8210 C   0  0  0  0  0  0  0  0  0  0  0  0
   54.3700   23.7070   43.5340 F   0  0  0  0  0  0  0  0  0  0  0  0
   57.7850   26.2190   43.1990 C   0  0  0  0  0  0  0  0  0  0  0  0
   57.7920   27.6030   43.3890 C   0  0  0  0  0  0  0  0  0  0  0  0
   58.4040   30.3290   45.3950 N   0  0  0  0  0  0  0  0  0  0  0  0
   60.4404   28.2740   46.7457 H   0  0  0  0  0  0  0  0  0  0  0  0
   59.5761   28.0092   45.1934 H   0  0  0  0  0  0  0  0  0  0  0  0
   61.2229   28.7266   45.1934 H   0  0  0  0  0  0  0  0  0  0  0  0
   61.3690   30.8680   46.7330 H   0  0  0  0  0  0  0  0  0  0  0  0
   61.6960   33.1670   47.3731 H   0  0  0  0  0  0  0  0  0  0  0  0
   60.7971   35.4925   47.4625 H   0  0  0  0  0  0  0  0  0  0  0  0
   58.5184   35.9938   46.5813 H   0  0  0  0  0  0  0  0  0  0  0  0
   57.1197   34.1708   45.6031 H   0  0  0  0  0  0  0  0  0  0  0  0
   56.7846   27.7142   46.6585 H   0  0  0  0  0  0  0  0  0  0  0  0
   56.7613   25.2417   46.3122 H   0  0  0  0  0  0  0  0  0  0  0  0
   55.6235   22.6868   48.5341 H   0  0  0  0  0  0  0  0  0  0  0  0
   53.2281   22.8101   47.8415 H   0  0  0  0  0  0  0  0  0  0  0  0
   52.6382   23.3019   45.4653 H   0  0  0  0  0  0  0  0  0  0  0  0
   58.0847   25.7963   42.2287 H   0  0  0  0  0  0  0  0  0  0  0  0
   58.1033   28.2677   42.5697 H   0  0  0  0  0  0  0  0  0  0  0  0
  1  2  1  0
  2  3  2  0
  3  4  1  0
  4  5  2  0
  5  6  1  0
  6  7  2  0
  7  8  1  0
  8  9  2  0
  9 10  1  0
 10 11  2  0
 11 12  1  0
 12 13  2  0
 13 14  1  0
 14 15  2  0
 15 16  1  0
 16 17  2  0
 17 18  1  0
 18 19  1  0
 19 20  2  0
 20 21  1  0
 20 22  1  0
 22 23  2  0
 23 24  1  0
 24 25  2  0
 25 26  1  0
 17 27  1  0
 27 28  2  0
 13 29  1  0
 29  2  1  0
  9  4  1  0
 29 10  1  0
 28 14  1  0
 25 19  1  0
  1 30  1  0
  1 31  1  0
  1 32  1  0
  3 33  1  0
  5 34  1  0
  6 35  1  0
  7 36  1  0
  8 37  1  0
 15 38  1  0
 16 39  1  0
 22 40  1  0
 23 41  1  0
 24 42  1  0
 27 43  1  0
 28 44  1  0
M  CHG  1   3   1
M  END
>  <UniqueID>  (9) 
9

>  <SMILES>  (9) 
Cc1[nH+]c2ccccc2c2nnc(-c3ccc(Sc4c(F)cccc4F)cc3)n12

>  <Energy>  (9) 
99.39964571220602

>  <Genealogy>  (9) 
Cc1[nH+]c2ccccc2c2nnc(-c3ccc(Sc4c(F)cccc4F)cc3)n12 (protonated)
Cc1[nH+]c2ccccc2c2nnc(-c3ccc(Sc4c(F)cccc4F)cc3)n12 (3D coordinates assigned)
Cc1[nH+]c2ccccc2c2nnc(-c3ccc(Sc4c(F)cccc4F)cc3)n12 (optimized conformer: 99.39964571220602 kcal/mol)

>  <smiles>  (9) 
Cc1nc2ccccc2c2nnc(-c3ccc(Sc4c(F)cccc4F)cc3)n12

>  <score_type>  (9) 
oracle

>  <origin>  (9) 
adg

>  <m_score__min__energy>  (9) 
-7.5999999999999996

>  <m_primary>  (9) 
energy

$$$$
9:0
     RDKit          3D

 32 35  0  0  0  0  0  0  0  0999 V2000
   56.2770   30.1770   42.2500 N   0  0  0  0  0  0  0  0  0  0  0  0
   56.8690   30.1490   43.3890 C   0  0  0  0  0  0  0  0  0  0  0  0
   56.8600   29.0440   44.1290 N   0  0  0  0  0  0  0  0  0  0  0  0
   57.4530   28.9250   45.3300 C   0  0  0  0  0  0  0  0  0  0  0  0
   57.3910   27.6970   46.0540 N   0  0  0  0  0  0  0  0  0  0  0  0
   58.3320   27.2810   46.9220 C   0  0  0  0  0  0  0  0  0  0  0  0
   57.9770   26.0570   47.4540 C   0  0  0  0  0  0  0  0  0  0  0  0
   56.7680   25.7460   46.8630 C   0  0  0  0  0  0  0  0  0  0  0  0
   56.4750   26.7710   46.0350 N   0  0  0  0  0  0  0  0  0  0  0  0
   58.0950   30.0070   45.8000 N   0  0  0  0  0  0  0  0  0  0  0  0
   58.1440   31.1640   45.1000 C   0  0  0  0  0  0  0  0  0  0  0  0
   57.5240   31.2700   43.8550 C   0  0  0  0  0  0  0  0  0  0  0  0
   57.7190   32.5430   43.3510 C   0  0  0  0  0  0  0  0  0  0  0  0
   58.4440   33.1810   44.2840 N   0  0  0  0  0  0  0  0  0  0  0  0
   58.6930   32.3760   45.3040 N   0  0  0  0  0  0  0  0  0  0  0  0
   59.4430   32.7730   46.4490 C   0  0  0  0  0  0  0  0  0  0  0  0
   58.9560   33.8340   47.1980 C   0  0  0  0  0  0  0  0  0  0  0  0
   59.6140   34.2950   48.3290 C   0  0  0  0  0  0  0  0  0  0  0  0
   60.7910   33.6570   48.7000 C   0  0  0  0  0  0  0  0  0  0  0  0
   61.2670   32.6020   47.9490 C   0  0  0  0  0  0  0  0  0  0  0  0
   60.6120   32.1410   46.8180 C   0  0  0  0  0  0  0  0  0  0  0  0
   55.8190   29.3030   41.8670 H   0  0  0  0  0  0  0  0  0  0  0  0
   56.3460   28.2070   43.7310 H   0  0  0  0  0  0  0  0  0  0  0  0
   59.2492   27.8348   47.1711 H   0  0  0  0  0  0  0  0  0  0  0  0
   58.5359   25.4593   48.1891 H   0  0  0  0  0  0  0  0  0  0  0  0
   56.1640   24.8426   47.0332 H   0  0  0  0  0  0  0  0  0  0  0  0
   57.3583   32.9458   42.3931 H   0  0  0  0  0  0  0  0  0  0  0  0
   58.0216   34.3238   46.8864 H   0  0  0  0  0  0  0  0  0  0  0  0
   59.2167   35.1383   48.9130 H   0  0  0  0  0  0  0  0  0  0  0  0
   61.3424   33.9923   49.5908 H   0  0  0  0  0  0  0  0  0  0  0  0
   62.2001   32.1090   48.2592 H   0  0  0  0  0  0  0  0  0  0  0  0
   61.0113   31.2988   46.2339 H   0  0  0  0  0  0  0  0  0  0  0  0
  1  2  2  3
  2  3  1  0
  3  4  1  0
  4  5  1  0
  5  6  1  0
  6  7  2  0
  7  8  1  0
  8  9  2  0
  4 10  2  0
 10 11  1  0
 11 12  2  0
 12 13  1  0
 13 14  2  0
 14 15  1  0
 15 16  1  0
 16 17  2  0
 17 18  1  0
 18 19  2  0
 19 20  1  0
 20 21  2  0
 12  2  1  0
 21 16  1  0
  9  5  1  0
 15 11  1  0
  1 22  1  0
  3 23  1  0
  6 24  1  0
  7 25  1  0
  8 26  1  0
 13 27  1  0
 17 28  1  0
 18 29  1  0
 19 30  1  0
 20 31  1  0
 21 32  1  0
M  END
>  <smiles>  (10) 
N=c1[nH]c(-n2cccn2)nc2c1cnn2-c1ccccc1

>  <score_type>  (10) 
oracle

>  <origin>  (10) 
adg

>  <m_score__min__energy>  (10) 
-7.0999999999999996

>  <m_primary>  (10) 
energy

$$$$
10:0
     RDKit          3D

 42 44  0  0  0  0  0  0  0  0999 V2000
   56.5010   24.5940   45.0180 C   0  0  0  0  0  0  0  0  0  0  0  0
   55.2950   25.2810   45.6480 C   0  0  0  0  0  0  0  0  0  0  0  0
   55.6030   26.6320   45.9830 O   0  0  0  0  0  0  0  0  0  0  0  0
   56.9020   27.0870   46.2370 C   0  0  0  0  0  0  0  0  0  0  0  0
   57.3840   27.0440   47.4020 O   0  0  0  0  0  0  0  0  0  0  0  0
   57.7350   27.6100   45.1110 C   0  0  0  0  0  0  0  0  0  0  0  0
   57.7030   29.1310   45.0870 C   0  0  0  0  0  0  0  0  0  0  0  0
   58.8250   29.9320   45.4660 C   0  0  0  0  0  0  0  0  0  0  0  0
   60.1190   29.3290   45.7610 N   0  0  0  0  0  0  0  0  0  0  0  0
   60.2580   28.9070   47.1450 C   0  0  0  0  0  0  0  0  0  0  0  0
   60.1230   29.8660   48.1720 C   0  0  0  0  0  0  0  0  0  0  0  0
   60.2250   29.5020   49.5160 C   0  0  0  0  0  0  0  0  0  0  0  0
   60.1150   30.4450   50.4840 F   0  0  0  0  0  0  0  0  0  0  0  0
   60.4340   28.1700   49.8640 C   0  0  0  0  0  0  0  0  0  0  0  0
   60.5200   27.1950   48.8690 C   0  0  0  0  0  0  0  0  0  0  0  0
   60.4180   27.5440   47.5170 C   0  0  0  0  0  0  0  0  0  0  0  0
   60.4530   26.2300   46.3510 Cl  0  0  0  0  0  0  0  0  0  0  0  0
   58.6310   31.3380   45.5860 C   0  0  0  0  0  0  0  0  0  0  0  0
   59.6090   32.2110   46.1110 C   0  0  0  0  0  0  0  0  0  0  0  0
   59.3820   33.5890   46.1640 C   0  0  0  0  0  0  0  0  0  0  0  0
   58.1730   34.1190   45.7140 C   0  0  0  0  0  0  0  0  0  0  0  0
   57.1770   33.2700   45.2350 C   0  0  0  0  0  0  0  0  0  0  0  0
   57.3890   31.8870   45.1870 C   0  0  0  0  0  0  0  0  0  0  0  0
   56.4050   31.1030   44.7790 O   0  0  0  0  0  0  0  0  0  0  0  0
   56.5010   29.7850   44.7350 C   0  0  0  0  0  0  0  0  0  0  0  0
   55.4900   29.1230   44.3760 O   0  0  0  0  0  0  0  0  0  0  0  0
   57.1636   24.2166   45.8108 H   0  0  0  0  0  0  0  0  0  0  0  0
   56.1603   23.7544   44.3943 H   0  0  0  0  0  0  0  0  0  0  0  0
   57.0494   25.3152   44.3943 H   0  0  0  0  0  0  0  0  0  0  0  0
   54.4581   25.2677   44.9342 H   0  0  0  0  0  0  0  0  0  0  0  0
   55.0211   24.7423   46.5671 H   0  0  0  0  0  0  0  0  0  0  0  0
   58.7735   27.2717   45.2414 H   0  0  0  0  0  0  0  0  0  0  0  0
   57.3291   27.2304   44.1617 H   0  0  0  0  0  0  0  0  0  0  0  0
   60.2420   28.5200   45.1100 H   0  0  0  0  0  0  0  0  0  0  0  0
   60.9220   29.9590   45.5640 H   0  0  0  0  0  0  0  0  0  0  0  0
   59.9343   30.9173   47.9091 H   0  0  0  0  0  0  0  0  0  0  0  0
   60.5313   27.8864   50.9224 H   0  0  0  0  0  0  0  0  0  0  0  0
   60.6694   26.1420   49.1498 H   0  0  0  0  0  0  0  0  0  0  0  0
   60.5601   31.8018   46.4824 H   0  0  0  0  0  0  0  0  0  0  0  0
   60.1594   34.2578   46.5619 H   0  0  0  0  0  0  0  0  0  0  0  0
   58.0058   35.2060   45.7371 H   0  0  0  0  0  0  0  0  0  0  0  0
   56.2191   33.6888   44.8928 H   0  0  0  0  0  0  0  0  0  0  0  0
  1  2  1  0
  2  3  1  0
  3  4  1  0
  4  5  2  0
  4  6  1  0
  6  7  1  0
  7  8  2  0
  8  9  1  0
  9 10  1  0
 10 11  2  0
 11 12  1  0
 12 13  1  0
 12 14  2  0
 14 15  1  0
 15 16  2  0
 16 17  1  0
  8 18  1  0
 18 19  2  0
 19 20  1  0
 20 21  2  0
 21 22  1  0
 22 23  2  0
 23 24  1  0
 24 25  1  0
 25 26  2  0
 25  7  1  0
 16 10  1  0
 23 18  1  0
  1 27  1  0
  1 28  1  0
  1 29  1  0
  2 30  1  0
  2 31  1  0
  6 32  1  0
  6 33  1  0
  9 34  1  0
  9 35  1  0
 11 36  1  0
 14 37  1  0
 15 38  1  0
 19 39  1  0
 20 40  1  0
 21 41  1  0
 22 42  1  0
M  CHG  1   9   1
M  END
>  <UniqueID>  (11) 
10

>  <SMILES>  (11) 
CCOC(=O)Cc1c([NH2+]c2cc(F)ccc2Cl)c2ccccc2oc1=O

>  <Energy>  (11) 
58.024488248388046

>  <Genealogy>  (11) 
CCOC(=O)Cc1c([NH2+]c2cc(F)ccc2Cl)c2ccccc2oc1=O (protonated)
CCOC(=O)Cc1c([NH2+]c2cc(F)ccc2Cl)c2ccccc2oc1=O (3D coordinates assigned)
CCOC(=O)Cc1c([NH2+]c2cc(F)ccc2Cl)c2ccccc2oc1=O (optimized conformer: 58.024488248388046 kcal/mol)

>  <smiles>  (11) 
CCOC(=O)Cc1c(Nc2cc(F)ccc2Cl)c2ccccc2oc1=O

>  <score_type>  (11) 
oracle

>  <origin>  (11) 
adg

>  <m_score__min__energy>  (11) 
-6.6100000000000003

>  <m_primary>  (11) 
energy

$$$$
11:0
     RDKit          3D

 38 39  0  0  0  0  0  0  0  0999 V2000
   54.1290   24.7830   45.6070 C   0  0  0  0  0  0  0  0  0  0  0  0
   54.8970   25.9100   45.9640 O   0  0  0  0  0  0  0  0  0  0  0  0
   56.2670   25.6860   45.6800 C   0  0  0  0  0  0  0  0  0  0  0  0
   57.1570   26.2450   46.7950 C   0  0  0  0  0  0  0  0  0  0  0  0
   58.0640   27.3170   46.2780 C   0  0  0  0  0  0  0  0  0  0  0  0
   57.6200   28.4550   45.7010 N   0  0  0  0  0  0  0  0  0  0  0  0
   58.6460   29.2380   45.2720 C   0  0  0  0  0  0  0  0  0  0  0  0
   58.4040   30.5440   44.5720 C   0  0  0  0  0  0  0  0  0  0  0  0
   57.0780   31.0970   44.9230 N   0  0  0  0  0  0  0  0  0  0  0  0
   56.0190   30.4600   44.1230 C   0  0  0  0  0  0  0  0  0  0  0  0
   57.0120   32.5780   44.8650 C   0  0  0  0  0  0  0  0  0  0  0  0
   58.0260   33.2800   45.7460 C   0  0  0  0  0  0  0  0  0  0  0  0
   58.1890   32.9060   47.0890 C   0  0  0  0  0  0  0  0  0  0  0  0
   59.1260   33.5620   47.8890 C   0  0  0  0  0  0  0  0  0  0  0  0
   59.8870   34.5960   47.3430 C   0  0  0  0  0  0  0  0  0  0  0  0
   59.7100   34.9600   46.0450 N   0  0  0  0  0  0  0  0  0  0  0  0
   58.8040   34.3360   45.2450 C   0  0  0  0  0  0  0  0  0  0  0  0
   59.9190   28.7110   45.4770 C   0  0  0  0  0  0  0  0  0  0  0  0
   59.7420   27.2240   46.2420 S   0  0  0  0  0  0  0  0  0  0  0  0
   53.7814   24.2728   46.5174 H   0  0  0  0  0  0  0  0  0  0  0  0
   53.2610   25.1042   45.0125 H   0  0  0  0  0  0  0  0  0  0  0  0
   54.7454   24.0926   45.0125 H   0  0  0  0  0  0  0  0  0  0  0  0
   56.4430   24.6041   45.5874 H   0  0  0  0  0  0  0  0  0  0  0  0
   56.5187   26.1990   44.7401 H   0  0  0  0  0  0  0  0  0  0  0  0
   56.5191   26.6657   47.5862 H   0  0  0  0  0  0  0  0  0  0  0  0
   57.7760   25.4259   47.1899 H   0  0  0  0  0  0  0  0  0  0  0  0
   59.1830   31.2613   44.8699 H   0  0  0  0  0  0  0  0  0  0  0  0
   58.4344   30.3700   43.4863 H   0  0  0  0  0  0  0  0  0  0  0  0
   55.2723   30.0108   44.7943 H   0  0  0  0  0  0  0  0  0  0  0  0
   55.5338   31.2162   43.4884 H   0  0  0  0  0  0  0  0  0  0  0  0
   56.4597   29.6770   43.4884 H   0  0  0  0  0  0  0  0  0  0  0  0
   57.1841   32.8905   43.8245 H   0  0  0  0  0  0  0  0  0  0  0  0
   56.0175   32.8649   45.2372 H   0  0  0  0  0  0  0  0  0  0  0  0
   57.5776   32.0950   47.5115 H   0  0  0  0  0  0  0  0  0  0  0  0
   59.2631   33.2666   48.9397 H   0  0  0  0  0  0  0  0  0  0  0  0
   60.6310   35.1173   47.9633 H   0  0  0  0  0  0  0  0  0  0  0  0
   58.6803   34.6601   44.2011 H   0  0  0  0  0  0  0  0  0  0  0  0
   60.8701   29.1832   45.1898 H   0  0  0  0  0  0  0  0  0  0  0  0
  1  2  1  0
  2  3  1  0
  3  4  1  0
  4  5  1  0
  5  6  2  0
  6  7  1  0
  7  8  1  0
  8  9  1  0
  9 10  1  0
  9 11  1  0
 11 12  1  0
 12 13  2  0
 13 14  1  0
 14 15  2  0
 15 16  1  0
 16 17  2  0
  7 18  2  0
 18 19  1  0
 19  5  1  0
 17 12  1  0
  1 20  1  0
  1 21  1  0
  1 22  1  0
  3 23  1  0
  3 24  1  0
  4 25  1  0
  4 26  1  0
  8 27  1  0
  8 28  1  0
 10 29  1  0
 10 30  1  0
 10 31  1  0
 11 32  1  0
 11 33  1  0
 13 34  1  0
 14 35  1  0
 15 36  1  0
 17 37  1  0
 18 38  1  0
M  END
>  <UniqueID>  (12) 
11

>  <SMILES>  (12) 
COCCc1nc(CN(C)Cc2cccnc2)cs1

>  <Energy>  (12) 
68.86813047565212

>  <Genealogy>  (12) 
COCCc1nc(CN(C)Cc2cccnc2)cs1 (3D coordinates assigned)
COCCc1nc(CN(C)Cc2cccnc2)cs1 (optimized conformer: 68.86813047565212 kcal/mol)

>  <smiles>  (12) 
COCCc1nc(CN(C)Cc2cccnc2)cs1

>  <score_type>  (12) 
oracle

>  <origin>  (12) 
adg

>  <m_score__min__energy>  (12) 
-7.04

>  <m_primary>  (12) 
energy

$$$$
12:0
     RDKit          3D

 37 39  0  0  1  0  0  0  0  0999 V2000
   58.5390   33.9910   47.0740 C   0  0  0  0  0  0  0  0  0  0  0  0
   57.6580   33.1860   46.1730 C   0  0  0  0  0  0  0  0  0  0  0  0
   57.4270   33.9410   44.8720 C   0  0  0  0  0  0  0  0  0  0  0  0
   58.2700   31.8900   45.9200 N   0  0  0  0  0  0  0  0  0  0  0  0
   59.4750   31.4330   46.3530 C   0  0  0  0  0  0  0  0  0  0  0  0
   59.6800   30.1800   45.9040 N   0  0  0  0  0  0  0  0  0  0  0  0
   58.5750   29.8730   45.1840 C   0  0  0  0  0  0  0  0  0  0  0  0
   58.1840   28.7480   44.4770 C   0  0  0  0  0  0  0  0  0  0  0  0
   58.9710   27.7450   44.4470 N   0  0  0  0  0  0  0  0  0  0  0  0
   59.0520   26.7320   45.4950 C   0  0  0  0  0  0  0  0  0  0  0  0
   57.7940   25.9430   45.3490 C   0  0  0  0  0  0  0  0  0  0  0  0
   57.7350   24.9650   44.3520 C   0  0  0  0  0  0  0  0  0  0  0  0
   56.5830   24.2080   44.1800 C   0  0  0  0  0  0  0  0  0  0  0  0
   55.4870   24.4320   45.0120 C   0  0  0  0  0  0  0  0  0  0  0  0
   55.5600   25.4040   45.9950 C   0  0  0  0  0  0  0  0  0  0  0  0
   56.6950   26.1680   46.1820 C   0  0  0  0  0  0  0  0  0  0  0  0
   57.0110   28.7340   43.8500 N   0  0  0  0  0  0  0  0  0  0  0  0
   56.1600   29.7860   43.8690 C   0  0  0  0  0  0  0  0  0  0  0  0
   56.5110   30.8870   44.5440 N   0  0  0  0  0  0  0  0  0  0  0  0
   57.6910   30.9320   45.1880 C   0  0  0  0  0  0  0  0  0  0  0  0
   58.2937   33.7669   48.1226 H   0  0  0  0  0  0  0  0  0  0  0  0
   59.5915   33.7361   46.8811 H   0  0  0  0  0  0  0  0  0  0  0  0
   58.3798   35.0622   46.8811 H   0  0  0  0  0  0  0  0  0  0  0  0
   56.6838   33.0225   46.6570 H   0  0  0  0  0  0  0  0  0  0  0  0
   57.1119   34.9707   45.0966 H   0  0  0  0  0  0  0  0  0  0  0  0
   58.3599   33.9618   44.2895 H   0  0  0  0  0  0  0  0  0  0  0  0
   56.6422   33.4362   44.2895 H   0  0  0  0  0  0  0  0  0  0  0  0
   60.1786   32.0026   46.9778 H   0  0  0  0  0  0  0  0  0  0  0  0
   59.9330   26.0900   45.3481 H   0  0  0  0  0  0  0  0  0  0  0  0
   59.1551   27.1738   46.4971 H   0  0  0  0  0  0  0  0  0  0  0  0
   58.6048   24.7940   43.7006 H   0  0  0  0  0  0  0  0  0  0  0  0
   56.5360   23.4391   43.3948 H   0  0  0  0  0  0  0  0  0  0  0  0
   54.5687   23.8393   44.8880 H   0  0  0  0  0  0  0  0  0  0  0  0
   54.6892   25.5725   46.6456 H   0  0  0  0  0  0  0  0  0  0  0  0
   56.7330   26.9360   46.9686 H   0  0  0  0  0  0  0  0  0  0  0  0
   56.7480   27.8700   43.3270 H   0  0  0  0  0  0  0  0  0  0  0  0
   55.1972   29.7371   43.3392 H   0  0  0  0  0  0  0  0  0  0  0  0
  1  2  1  0
  2  3  1  0
  2  4  1  0
  4  5  1  0
  5  6  2  0
  6  7  1  0
  7  8  1  0
  8  9  2  0
  9 10  1  0
 10 11  1  0
 11 12  2  0
 12 13  1  0
 13 14  2  0
 14 15  1  0
 15 16  2  0
  8 17  1  0
 17 18  1  0
 18 19  2  0
 19 20  1  0
 20  4  1  0
 20  7  2  0
 16 11  1  0
  1 21  1  0
  1 22  1  0
  1 23  1  0
  2 24  1  0
  3 25  1  0
  3 26  1  0
  3 27  1  0
  5 28  1  0
 10 29  1  0
 10 30  1  0
 12 31  1  0
 13 32  1  0
 14 33  1  0
 15 34  1  0
 16 35  1  0
 17 36  1  0
 18 37  1  0
M  END
>  <smiles>  (13) 
CC(C)n1cnc2c(=NCc3ccccc3)[nH]cnc21

>  <score_type>  (13) 
oracle

>  <origin>  (13) 
adg

>  <m_score__min__energy>  (13) 
-6.7199999999999998

>  <m_primary>  (13) 
energy

$$$$
13:0
     RDKit          3D

 44 46  0  0  0  0  0  0  0  0999 V2000
   58.7040   34.8270   44.8630 O   0  0  0  0  0  0  0  0  0  0  0  0
   58.4510   33.5490   45.6150 S   0  0  0  0  0  0  0  0  0  0  0  0
   57.4260   33.8330   46.6770 O   0  0  0  0  0  0  0  0  0  0  0  0
   57.8160   32.3350   44.5020 C   0  0  0  0  0  0  0  0  0  0  0  0
   57.2490   31.1520   44.9960 C   0  0  0  0  0  0  0  0  0  0  0  0
   56.7310   30.1990   44.1140 C   0  0  0  0  0  0  0  0  0  0  0  0
   56.7740   30.4240   42.7350 C   0  0  0  0  0  0  0  0  0  0  0  0
   56.2690   29.5010   41.8810 F   0  0  0  0  0  0  0  0  0  0  0  0
   57.3350   31.6040   42.2370 C   0  0  0  0  0  0  0  0  0  0  0  0
   57.8540   32.5590   43.1170 C   0  0  0  0  0  0  0  0  0  0  0  0
   59.9370   32.9970   46.3580 N   0  0  0  0  0  0  0  0  0  0  0  0
   59.6030   32.1090   47.5000 C   0  0  0  0  0  0  0  0  0  0  0  0
   59.6250   30.6430   47.1290 C   0  0  0  0  0  0  0  0  0  0  0  0
   60.3740   30.2020   46.0240 C   0  0  0  0  0  0  0  0  0  0  0  0
   60.3790   28.8490   45.6700 C   0  0  0  0  0  0  0  0  0  0  0  0
   59.6540   27.9240   46.4260 C   0  0  0  0  0  0  0  0  0  0  0  0
   58.9320   28.3490   47.5440 C   0  0  0  0  0  0  0  0  0  0  0  0
   58.9240   29.7010   47.9010 C   0  0  0  0  0  0  0  0  0  0  0  0
   60.7400   34.1780   46.7610 C   0  0  0  0  0  0  0  0  0  0  0  0
   61.9070   33.8190   47.6540 C   0  0  0  0  0  0  0  0  0  0  0  0
   63.0320   33.1590   47.1270 C   0  0  0  0  0  0  0  0  0  0  0  0
   64.0990   32.8110   47.9590 C   0  0  0  0  0  0  0  0  0  0  0  0
   64.0640   33.1360   49.3170 C   0  0  0  0  0  0  0  0  0  0  0  0
   62.9650   33.8200   49.8430 C   0  0  0  0  0  0  0  0  0  0  0  0
   61.8940   34.1680   49.0150 C   0  0  0  0  0  0  0  0  0  0  0  0
   57.2115   30.9730   46.0807 H   0  0  0  0  0  0  0  0  0  0  0  0
   56.2890   29.2709   44.5056 H   0  0  0  0  0  0  0  0  0  0  0  0
   57.3681   31.7813   41.1519 H   0  0  0  0  0  0  0  0  0  0  0  0
   58.2928   33.4875   42.7229 H   0  0  0  0  0  0  0  0  0  0  0  0
   60.4400   32.4570   45.6180 H   0  0  0  0  0  0  0  0  0  0  0  0
   60.3350   32.2792   48.3032 H   0  0  0  0  0  0  0  0  0  0  0  0
   58.5799   32.3538   47.8214 H   0  0  0  0  0  0  0  0  0  0  0  0
   60.9586   30.9242   45.4353 H   0  0  0  0  0  0  0  0  0  0  0  0
   60.9545   28.5124   44.7951 H   0  0  0  0  0  0  0  0  0  0  0  0
   59.6518   26.8616   46.1409 H   0  0  0  0  0  0  0  0  0  0  0  0
   58.3690   27.6191   48.1443 H   0  0  0  0  0  0  0  0  0  0  0  0
   58.3662   30.0288   48.7906 H   0  0  0  0  0  0  0  0  0  0  0  0
   61.1286   34.6644   45.8541 H   0  0  0  0  0  0  0  0  0  0  0  0
   60.0799   34.8466   47.3330 H   0  0  0  0  0  0  0  0  0  0  0  0
   63.0718   32.9158   46.0550 H   0  0  0  0  0  0  0  0  0  0  0  0
   64.9683   32.2800   47.5438 H   0  0  0  0  0  0  0  0  0  0  0  0
   64.9013   32.8536   49.9721 H   0  0  0  0  0  0  0  0  0  0  0  0
   62.9426   34.0850   50.9104 H   0  0  0  0  0  0  0  0  0  0  0  0
   61.0368   34.7178   49.4309 H   0  0  0  0  0  0  0  0  0  0  0  0
  1  2  2  0
  2  3  2  0
  2  4  1  0
  4  5  2  0
  5  6  1  0
  6  7  2  0
  7  8  1  0
  7  9  1  0
  9 10  2  0
  2 11  1  0
 11 12  1  0
 12 13  1  0
 13 14  2  0
 14 15  1  0
 15 16  2  0
 16 17  1  0
 17 18  2  0
 11 19  1  0
 19 20  1  0
 20 21  2  0
 21 22  1  0
 22 23  2  0
 23 24  1  0
 24 25  2  0
 10  4  1  0
 18 13  1  0
 25 20  1  0
  5 26  1  0
  6 27  1  0
  9 28  1  0
 10 29  1  0
 11 30  1  0
 12 31  1  0
 12 32  1  0
 14 33  1  0
 15 34  1  0
 16 35  1  0
 17 36  1  0
 18 37  1  0
 19 38  1  0
 19 39  1  0
 21 40  1  0
 22 41  1  0
 23 42  1  0
 24 43  1  0
 25 44  1  0
M  CHG  1  11   1
M  END
>  <UniqueID>  (14) 
12

>  <SMILES>  (14) 
O=S(=O)(c1ccc(F)cc1)[NH+](Cc1ccccc1)Cc1ccccc1

>  <Energy>  (14) 
45.42755066654486

>  <Genealogy>  (14) 
O=S(=O)(c1ccc(F)cc1)[NH+](Cc1ccccc1)Cc1ccccc1 (protonated)
O=S(=O)(c1ccc(F)cc1)[NH+](Cc1ccccc1)Cc1ccccc1 (3D coordinates assigned)
O=S(=O)(c1ccc(F)cc1)[NH+](Cc1ccccc1)Cc1ccccc1 (optimized conformer: 45.42755066654486 kcal/mol)

>  <smiles>  (14) 
O=S(=O)(c1ccc(F)cc1)N(Cc1ccccc1)Cc1ccccc1

>  <score_type>  (14) 
oracle

>  <origin>  (14) 
adg

>  <m_score__min__energy>  (14) 
-6.7000000000000002

>  <m_primary>  (14) 
energy

$$$$
14:0
     RDKit          3D

 27 27  0  0  0  0  0  0  0  0999 V2000
   61.5706   26.5466   47.3431 H   0  0  0  0  0  0  0  0  0  0  0  0
   60.7290   26.5610   46.6350 C   0  0  0  0  0  0  0  0  0  0  0  0
   60.7668   25.6621   46.0021 H   0  0  0  0  0  0  0  0  0  0  0  0
   60.7976   27.4581   46.0021 H   0  0  0  0  0  0  0  0  0  0  0  0
   59.5030   26.5820   47.3560 O   0  0  0  0  0  0  0  0  0  0  0  0
   58.2820   26.9150   46.7640 C   0  0  0  0  0  0  0  0  0  0  0  0
   58.0780   28.1510   46.2330 N   0  0  0  0  0  0  0  0  0  0  0  0
   56.0960   26.2940   46.1490 C   0  0  0  0  0  0  0  0  0  0  0  0
   55.1550   25.3970   46.1270 N   0  0  0  0  0  0  0  0  0  0  0  0
   55.1170   24.2430   45.2290 C   0  0  0  0  0  0  0  0  0  0  0  0
   55.0728   23.3211   45.8274 H   0  0  0  0  0  0  0  0  0  0  0  0
   54.2278   24.3239   44.5865 H   0  0  0  0  0  0  0  0  0  0  0  0
   56.3590   24.2070   44.3450 C   0  0  0  0  0  0  0  0  0  0  0  0
   57.2586   24.1809   44.9775 H   0  0  0  0  0  0  0  0  0  0  0  0
   56.3311   23.3093   43.7099 H   0  0  0  0  0  0  0  0  0  0  0  0
   56.3832   25.1048   43.7099 H   0  0  0  0  0  0  0  0  0  0  0  0
   55.8990   27.5310   45.6190 N   0  0  0  0  0  0  0  0  0  0  0  0
   56.8900   28.4620   45.6580 C   0  0  0  0  0  0  0  0  0  0  0  0
   56.7130   29.6530   45.1660 N   0  0  0  0  0  0  0  0  0  0  0  0
   55.7390   29.9940   44.1290 C   0  0  0  0  0  0  0  0  0  0  0  0
   55.4899   31.0627   44.2052 H   0  0  0  0  0  0  0  0  0  0  0  0
   54.8380   29.3802   44.2752 H   0  0  0  0  0  0  0  0  0  0  0  0
   56.3050   29.7100   42.7420 C   0  0  0  0  0  0  0  0  0  0  0  0
   57.2843   29.2186   42.8392 H   0  0  0  0  0  0  0  0  0  0  0  0
   55.6167   29.0505   42.1931 H   0  0  0  0  0  0  0  0  0  0  0  0
   56.4223   30.6560   42.1931 H   0  0  0  0  0  0  0  0  0  0  0  0
   57.2890   25.9930   46.7210 N   0  0  0  0  0  0  0  0  0  0  0  0
  1  2  1  0
  2  3  1  0
  2  4  1  0
  2  5  1  0
  5  6  1  0
  6  7  2  0
  7  8  1  0
  8  9  2  0
  9 10  1  0
 10 11  1  0
 10 12  1  0
 10 13  1  0
 13 14  1  0
 13 15  1  0
 13 16  1  0
  8 17  1  0
 17 18  1  0
 18 19  2  0
 19 20  1  0
 20 21  1  0
 20 22  1  0
 20 23  1  0
 23 24  1  0
 23 25  1  0
 23 26  1  0
 18 27  1  0
 27  6  1  0
M  CHG  2  17  -1  27  -1
M  END
>  <UniqueID>  (15) 
13

>  <SMILES>  (15) 
CC/N=c1/nc(OC)[n-]/c(=N/CC)[n-]1

>  <Energy>  (15) 
17.018257278835463

>  <Genealogy>  (15) 
CCN=c1nc(OC)[n-]c(=NCC)[n-]1 (protonated)
CC/N=c1/nc(OC)[n-]/c(=N/CC)[n-]1 (cis-trans isomerization)
CC/N=c1/nc(OC)[n-]/c(=N/CC)[n-]1 (3D coordinates assigned)
CC/N=c1/nc(OC)[n-]/c(=N/CC)[n-]1 (optimized conformer: 17.018257278835463 kcal/mol)

>  <smiles>  (15) 
CCN=c1nc(OC)[nH]c(=NCC)[nH]1

>  <score_type>  (15) 
oracle

>  <origin>  (15) 
adg

>  <m_score__min__energy>  (15) 
-8.2400000000000002

>  <m_primary>  (15) 
energy

$$$$
15:0
     RDKit          3D

 46 48  0  0  0  0  0  0  0  0999 V2000
   59.1450   30.5490   49.3930 C   0  0  0  0  0  0  0  0  0  0  0  0
   58.5490   29.6320   48.4830 O   0  0  0  0  0  0  0  0  0  0  0  0
   58.9890   29.4250   47.1670 C   0  0  0  0  0  0  0  0  0  0  0  0
   60.3490   29.4910   46.8090 C   0  0  0  0  0  0  0  0  0  0  0  0
   60.7350   29.3100   45.4800 C   0  0  0  0  0  0  0  0  0  0  0  0
   59.7750   29.0620   44.4970 C   0  0  0  0  0  0  0  0  0  0  0  0
   58.4140   28.9930   44.8360 C   0  0  0  0  0  0  0  0  0  0  0  0
   57.3800   28.7180   43.7690 C   0  0  0  0  0  0  0  0  0  0  0  0
   56.4290   29.8990   43.5060 C   0  0  0  0  0  0  0  0  0  0  0  0
   57.1110   31.1270   42.8720 C   0  0  0  0  0  0  0  0  0  0  0  0
   57.6260   32.0600   43.8860 N   0  0  0  0  0  0  0  0  0  0  0  0
   57.2020   31.9550   45.1830 C   0  0  0  0  0  0  0  0  0  0  0  0
   57.6920   32.8160   46.1650 C   0  0  0  0  0  0  0  0  0  0  0  0
   58.6190   33.8060   45.8290 C   0  0  0  0  0  0  0  0  0  0  0  0
   59.0520   34.5980   46.7720 N   0  0  0  0  0  0  0  0  0  0  0  0
   60.0300   34.3100   47.7840 C   0  0  0  0  0  0  0  0  0  0  0  0
   59.6330   34.2830   49.1270 C   0  0  0  0  0  0  0  0  0  0  0  0
   60.5520   33.9470   50.1270 C   0  0  0  0  0  0  0  0  0  0  0  0
   61.8660   33.6130   49.7880 C   0  0  0  0  0  0  0  0  0  0  0  0
   62.2620   33.6040   48.4460 C   0  0  0  0  0  0  0  0  0  0  0  0
   64.0470   33.1180   47.9750 Br  0  0  0  0  0  0  0  0  0  0  0  0
   61.3430   33.9390   47.4460 C   0  0  0  0  0  0  0  0  0  0  0  0
   59.0060   33.9350   44.4820 C   0  0  0  0  0  0  0  0  0  0  0  0
   58.4970   33.0530   43.5270 C   0  0  0  0  0  0  0  0  0  0  0  0
   58.0340   29.1510   46.1810 C   0  0  0  0  0  0  0  0  0  0  0  0
   58.9371   30.2291   50.4247 H   0  0  0  0  0  0  0  0  0  0  0  0
   60.2324   30.5740   49.2289 H   0  0  0  0  0  0  0  0  0  0  0  0
   58.7263   31.5529   49.2289 H   0  0  0  0  0  0  0  0  0  0  0  0
   61.1098   29.6858   47.5792 H   0  0  0  0  0  0  0  0  0  0  0  0
   61.7990   29.3629   45.2061 H   0  0  0  0  0  0  0  0  0  0  0  0
   60.0864   28.9199   43.4516 H   0  0  0  0  0  0  0  0  0  0  0  0
   57.9040   28.4794   42.8317 H   0  0  0  0  0  0  0  0  0  0  0  0
   56.7615   27.8831   44.1301 H   0  0  0  0  0  0  0  0  0  0  0  0
   55.6332   29.5573   42.8278 H   0  0  0  0  0  0  0  0  0  0  0  0
   56.0440   30.2203   44.4850 H   0  0  0  0  0  0  0  0  0  0  0  0
   57.9491   30.7841   42.2475 H   0  0  0  0  0  0  0  0  0  0  0  0
   56.3583   31.6603   42.2728 H   0  0  0  0  0  0  0  0  0  0  0  0
   56.4667   31.1831   45.4541 H   0  0  0  0  0  0  0  0  0  0  0  0
   57.3482   32.7155   47.2051 H   0  0  0  0  0  0  0  0  0  0  0  0
   58.5948   34.5269   49.3965 H   0  0  0  0  0  0  0  0  0  0  0  0
   60.2398   33.9457   51.1818 H   0  0  0  0  0  0  0  0  0  0  0  0
   62.5892   33.3571   50.5764 H   0  0  0  0  0  0  0  0  0  0  0  0
   61.6494   33.9120   46.3899 H   0  0  0  0  0  0  0  0  0  0  0  0
   59.7071   34.7280   44.1827 H   0  0  0  0  0  0  0  0  0  0  0  0
   58.7992   33.1572   42.4745 H   0  0  0  0  0  0  0  0  0  0  0  0
   56.9743   29.0582   46.4612 H   0  0  0  0  0  0  0  0  0  0  0  0
  1  2  1  0
  2  3  1  0
  3  4  2  0
  4  5  1  0
  5  6  2  0
  6  7  1  0
  7  8  1  0
  8  9  1  0
  9 10  1  0
 10 11  1  0
 11 12  1  0
 12 13  2  0
 13 14  1  0
 14 15  2  3
 15 16  1  0
 16 17  2  0
 17 18  1  0
 18 19  2  0
 19 20  1  0
 20 21  1  0
 20 22  2  0
 14 23  1  0
 23 24  2  0
  7 25  2  0
 25  3  1  0
 24 11  1  0
 22 16  1  0
  1 26  1  0
  1 27  1  0
  1 28  1  0
  4 29  1  0
  5 30  1  0
  6 31  1  0
  8 32  1  0
  8 33  1  0
  9 34  1  0
  9 35  1  0
 10 36  1  0
 10 37  1  0
 12 38  1  0
 13 39  1  0
 17 40  1  0
 18 41  1  0
 19 42  1  0
 22 43  1  0
 23 44  1  0
 24 45  1  0
 25 46  1  0
M  END
>  <UniqueID>  (16) 
14

>  <SMILES>  (16) 
COc1cccc(CCCn2ccc(=Nc3cccc(Br)c3)cc2)c1

>  <Energy>  (16) 
50.2389630373242

>  <Genealogy>  (16) 
COc1cccc(CCCn2ccc(=Nc3cccc(Br)c3)cc2)c1 (3D coordinates assigned)
COc1cccc(CCCn2ccc(=Nc3cccc(Br)c3)cc2)c1 (optimized conformer: 50.2389630373242 kcal/mol)

>  <smiles>  (16) 
COc1cccc(CCCn2ccc(=Nc3cccc(Br)c3)cc2)c1

>  <score_type>  (16) 
oracle

>  <origin>  (16) 
adg

>  <m_score__min__energy>  (16) 
-8.3699999999999992

>  <m_primary>  (16) 
energy

$$$$
16:0
     RDKit          3D

 43 45  0  0  0  0  0  0  0  0999 V2000
   56.8437   31.6988   42.7837 H   0  0  0  0  0  0  0  0  0  0  0  0
   57.0180   31.5390   43.8580 C   0  0  0  0  0  0  0  0  0  0  0  0
   56.3670   30.4300   44.4950 N   0  0  0  0  0  0  0  0  0  0  0  0
   56.7400   29.8900   45.5930 N   0  0  0  0  0  0  0  0  0  0  0  0
   58.0010   29.2390   45.8180 C   0  0  0  0  0  0  0  0  0  0  0  0
   58.5150   29.0490   47.1140 C   0  0  0  0  0  0  0  0  0  0  0  0
   57.9423   29.3946   47.9873 H   0  0  0  0  0  0  0  0  0  0  0  0
   59.7520   28.4220   47.2950 C   0  0  0  0  0  0  0  0  0  0  0  0
   60.1419   28.2594   48.3106 H   0  0  0  0  0  0  0  0  0  0  0  0
   60.4930   28.0020   46.1880 C   0  0  0  0  0  0  0  0  0  0  0  0
   61.4605   27.4989   46.3324 H   0  0  0  0  0  0  0  0  0  0  0  0
   60.0050   28.2210   44.8970 C   0  0  0  0  0  0  0  0  0  0  0  0
   60.5933   27.8993   44.0250 H   0  0  0  0  0  0  0  0  0  0  0  0
   58.7690   28.8490   44.7130 C   0  0  0  0  0  0  0  0  0  0  0  0
   58.3977   29.0378   43.6949 H   0  0  0  0  0  0  0  0  0  0  0  0
   57.8290   32.3920   44.5050 C   0  0  0  0  0  0  0  0  0  0  0  0
   58.9133   32.2147   44.4514 H   0  0  0  0  0  0  0  0  0  0  0  0
   57.3620   33.5340   45.2710 N   0  0  0  0  0  0  0  0  0  0  0  0
   56.3740   33.7590   45.0130 H   0  0  0  0  0  0  0  0  0  0  0  0
   57.3750   33.2240   46.7280 C   0  0  0  0  0  0  0  0  0  0  0  0
   56.4697   33.6542   47.1811 H   0  0  0  0  0  0  0  0  0  0  0  0
   57.4155   32.1286   46.8195 H   0  0  0  0  0  0  0  0  0  0  0  0
   58.6020   33.7790   47.4770 C   0  0  0  0  0  0  0  0  0  0  0  0
   58.3746   34.7899   47.8462 H   0  0  0  0  0  0  0  0  0  0  0  0
   58.8369   33.1127   48.3201 H   0  0  0  0  0  0  0  0  0  0  0  0
   59.7610   33.8410   46.5830 N   0  0  0  0  0  0  0  0  0  0  0  0
   60.9930   33.1680   46.9040 C   0  0  0  0  0  0  0  0  0  0  0  0
   60.9860   31.8230   47.3180 C   0  0  0  0  0  0  0  0  0  0  0  0
   60.0317   31.2836   47.4091 H   0  0  0  0  0  0  0  0  0  0  0  0
   62.1850   31.1690   47.6140 C   0  0  0  0  0  0  0  0  0  0  0  0
   62.1709   30.1195   47.9430 H   0  0  0  0  0  0  0  0  0  0  0  0
   63.4010   31.8450   47.4930 C   0  0  0  0  0  0  0  0  0  0  0  0
   64.3434   31.3287   47.7281 H   0  0  0  0  0  0  0  0  0  0  0  0
   63.4200   33.1780   47.0730 C   0  0  0  0  0  0  0  0  0  0  0  0
   64.3782   33.7094   46.9761 H   0  0  0  0  0  0  0  0  0  0  0  0
   62.2240   33.8370   46.7760 C   0  0  0  0  0  0  0  0  0  0  0  0
   62.2452   34.8843   46.4404 H   0  0  0  0  0  0  0  0  0  0  0  0
   59.6340   34.5980   45.3330 C   0  0  0  0  0  0  0  0  0  0  0  0
   60.0664   35.5998   45.4722 H   0  0  0  0  0  0  0  0  0  0  0  0
   60.1685   34.0583   44.5373 H   0  0  0  0  0  0  0  0  0  0  0  0
   58.1540   34.7380   44.9280 C   0  0  0  0  0  0  0  0  0  0  0  0
   57.7244   35.6051   45.4511 H   0  0  0  0  0  0  0  0  0  0  0  0
   58.1142   34.8678   43.8364 H   0  0  0  0  0  0  0  0  0  0  0  0
  1  2  1  0
  2  3  1  0
  3  4  2  0
  4  5  1  0
  5  6  2  0
  6  7  1  0
  6  8  1  0
  8  9  1  0
  8 10  2  0
 10 11  1  0
 10 12  1  0
 12 13  1  0
 12 14  2  0
 14 15  1  0
  2 16  2  0
 16 17  1  0
 16 18  1  0
 18 19  1  0
 18 20  1  0
 20 21  1  0
 20 22  1  0
 20 23  1  0
 23 24  1  0
 23 25  1  0
 23 26  1  0
 26 27  1  0
 27 28  2  0
 28 29  1  0
 28 30  1  0
 30 31  1  0
 30 32  2  0
 32 33  1  0
 32 34  1  0
 34 35  1  0
 34 36  2  0
 36 37  1  0
 26 38  1  0
 38 39  1  0
 38 40  1  0
 38 41  1  0
 41 42  1  0
 41 43  1  0
 14  5  1  0
 41 18  1  0
 36 27  1  0
M  CHG  1  18   1
M  END
>  <UniqueID>  (17) 
15

>  <SMILES>  (17) 
C(=C\[NH+]1CCN(c2ccccc2)CC1)\N=N/c1ccccc1

>  <Energy>  (17) 
71.24546389110522

>  <Genealogy>  (17) 
C(=C[NH+]1CCN(c2ccccc2)CC1)N=Nc1ccccc1 (protonated)
C(=C\[NH+]1CCN(c2ccccc2)CC1)\N=N/c1ccccc1 (cis-trans isomerization)
C(=C\[NH+]1CCN(c2ccccc2)CC1)\N=N/c1ccccc1 (3D coordinates assigned)
C(=C\[NH+]1CCN(c2ccccc2)CC1)\N=N/c1ccccc1 (nonaromatic ring conformer: 71.24546389110522 kcal/mol)

>  <smiles>  (17) 
C(=CN1CCN(c2ccccc2)CC1)N=Nc1ccccc1

>  <score_type>  (17) 
oracle

>  <origin>  (17) 
adg

>  <m_score__min__energy>  (17) 
-6.3300000000000001

>  <m_primary>  (17) 
energy

$$$$
17:0
     RDKit          3D

 50 52  0  0  0  0  0  0  0  0999 V2000
   57.0080   28.3350   44.9870 C   0  0  0  0  0  0  0  0  0  0  0  0
   57.1940   29.7250   44.4780 C   0  0  0  0  0  0  0  0  0  0  0  0
   57.0950   30.8260   45.2490 N   0  0  0  0  0  0  0  0  0  0  0  0
   57.2570   31.8550   44.4330 N   0  0  0  0  0  0  0  0  0  0  0  0
   57.2200   33.2510   44.8710 C   0  0  0  0  0  0  0  0  0  0  0  0
   58.5640   33.6610   45.4980 C   0  0  1  0  0  0  0  0  0  0  0  0
   59.1210   34.9350   44.8740 C   0  0  0  0  0  0  0  0  0  0  0  0
   59.9360   35.5470   45.9850 C   0  0  0  0  0  0  0  0  0  0  0  0
   59.2460   35.0920   47.2610 C   0  0  0  0  0  0  0  0  0  0  0  0
   58.3910   33.9340   46.9350 N   0  0  0  0  0  0  0  0  0  0  0  0
   58.7100   32.7490   47.7590 C   0  0  0  0  0  0  0  0  0  0  0  0
   60.0670   32.9070   48.3920 C   0  0  0  0  0  0  0  0  0  0  0  0
   60.1820   33.3770   49.7060 C   0  0  0  0  0  0  0  0  0  0  0  0
   61.4410   33.5390   50.2850 C   0  0  0  0  0  0  0  0  0  0  0  0
   62.5970   33.2330   49.5400 C   0  0  0  0  0  0  0  0  0  0  0  0
   63.9260   33.3860   50.0950 N   0  0  0  0  0  0  0  0  0  0  0  0
   65.0490   32.6940   49.4540 C   0  0  0  0  0  0  0  0  0  0  0  0
   64.1650   34.2160   51.2830 C   0  0  0  0  0  0  0  0  0  0  0  0
   62.4510   32.7820   48.2610 N   0  0  0  0  0  0  0  0  0  0  0  0
   61.2360   32.6150   47.6780 C   0  0  0  0  0  0  0  0  0  0  0  0
   57.4370   31.3760   43.1830 C   0  0  0  0  0  0  0  0  0  0  0  0
   57.6150   32.2080   41.9520 C   0  0  0  0  0  0  0  0  0  0  0  0
   57.3950   30.0330   43.1800 N   0  0  0  0  0  0  0  0  0  0  0  0
   57.0092   28.3441   46.0870 H   0  0  0  0  0  0  0  0  0  0  0  0
   56.0486   27.9371   44.6247 H   0  0  0  0  0  0  0  0  0  0  0  0
   57.8290   27.6989   44.6247 H   0  0  0  0  0  0  0  0  0  0  0  0
   57.0145   33.8960   44.0040 H   0  0  0  0  0  0  0  0  0  0  0  0
   56.4287   33.3633   45.6268 H   0  0  0  0  0  0  0  0  0  0  0  0
   59.2568   32.8249   45.3222 H   0  0  0  0  0  0  0  0  0  0  0  0
   59.7539   34.7024   44.0049 H   0  0  0  0  0  0  0  0  0  0  0  0
   58.3345   35.6073   44.5006 H   0  0  0  0  0  0  0  0  0  0  0  0
   60.9731   35.1817   45.9527 H   0  0  0  0  0  0  0  0  0  0  0  0
   59.9906   36.6429   45.9079 H   0  0  0  0  0  0  0  0  0  0  0  0
   59.9990   34.8003   48.0079 H   0  0  0  0  0  0  0  0  0  0  0  0
   58.6373   35.9089   47.6759 H   0  0  0  0  0  0  0  0  0  0  0  0
   57.9513   32.6399   48.5480 H   0  0  0  0  0  0  0  0  0  0  0  0
   58.7147   31.8557   47.1171 H   0  0  0  0  0  0  0  0  0  0  0  0
   59.2774   33.6191   50.2832 H   0  0  0  0  0  0  0  0  0  0  0  0
   61.5307   33.9041   51.3188 H   0  0  0  0  0  0  0  0  0  0  0  0
   65.7157   32.2832   50.2265 H   0  0  0  0  0  0  0  0  0  0  0  0
   64.6657   31.8753   48.8273 H   0  0  0  0  0  0  0  0  0  0  0  0
   65.6080   33.4045   48.8273 H   0  0  0  0  0  0  0  0  0  0  0  0
   63.9926   33.6171   52.1894 H   0  0  0  0  0  0  0  0  0  0  0  0
   65.2038   34.5777   51.2746 H   0  0  0  0  0  0  0  0  0  0  0  0
   63.4776   35.0748   51.2746 H   0  0  0  0  0  0  0  0  0  0  0  0
   61.1698   32.2496   46.6426 H   0  0  0  0  0  0  0  0  0  0  0  0
   57.8371   33.2461   42.2400 H   0  0  0  0  0  0  0  0  0  0  0  0
   58.4476   31.8068   41.3555 H   0  0  0  0  0  0  0  0  0  0  0  0
   56.6911   32.1826   41.3555 H   0  0  0  0  0  0  0  0  0  0  0  0
   57.4810   29.3820   42.3680 H   0  0  0  0  0  0  0  0  0  0  0  0
  1  2  1  0
  2  3  2  0
  3  4  1  0
  4  5  1  0
  5  6  1  0
  6  7  1  0
  7  8  1  0
  8  9  1  0
  9 10  1  0
 10 11  1  0
 11 12  1  0
 12 13  2  0
 13 14  1  0
 14 15  2  0
 15 16  1  0
 16 17  1  0
 16 18  1  0
 15 19  1  0
 19 20  2  0
  4 21  1  0
 21 22  1  0
 21 23  2  0
 23  2  1  0
 10  6  1  0
 20 12  1  0
  1 24  1  0
  1 25  1  0
  1 26  1  0
  5 27  1  0
  5 28  1  0
  6 29  1  1
  7 30  1  0
  7 31  1  0
  8 32  1  0
  8 33  1  0
  9 34  1  0
  9 35  1  0
 11 36  1  0
 11 37  1  0
 13 38  1  0
 14 39  1  0
 17 40  1  0
 17 41  1  0
 17 42  1  0
 18 43  1  0
 18 44  1  0
 18 45  1  0
 20 46  1  0
 22 47  1  0
 22 48  1  0
 22 49  1  0
 23 50  1  0
M  CHG  1  23   1
M  END
>  <UniqueID>  (18) 
16

>  <SMILES>  (18) 
Cc1nn(C[C@H]2CCCN2Cc2ccc(N(C)C)nc2)c(C)[nH+]1

>  <Energy>  (18) 
81.72452680435455

>  <Genealogy>  (18) 
Cc1nn(CC2CCCN2Cc2ccc(N(C)C)nc2)c(C)[nH+]1 (protonated)
Cc1nn(C[C@H]2CCCN2Cc2ccc(N(C)C)nc2)c(C)[nH+]1 (chirality)
Cc1nn(C[C@H]2CCCN2Cc2ccc(N(C)C)nc2)c(C)[nH+]1 (3D coordinates assigned)
Cc1nn(C[C@H]2CCCN2Cc2ccc(N(C)C)nc2)c(C)[nH+]1 (nonaromatic ring conformer: 81.72452680435455 kcal/mol)

>  <smiles>  (18) 
Cc1nc(C)n(CC2CCCN2Cc2ccc(N(C)C)nc2)n1

>  <score_type>  (18) 
oracle

>  <origin>  (18) 
adg

>  <m_score__min__energy>  (18) 
-6.3399999999999999

>  <m_primary>  (18) 
energy

$$$$
18:0
     RDKit          3D

 52 55  0  0  0  0  0  0  0  0999 V2000
   60.7860   28.4820   45.5980 O   0  0  0  0  0  0  0  0  0  0  0  0
   59.5940   28.6240   45.2080 C   0  0  0  0  0  0  0  0  0  0  0  0
   58.8480   27.4450   44.7180 C   0  0  0  0  0  0  0  0  0  0  0  0
   58.4870   27.3390   43.3640 C   0  0  0  0  0  0  0  0  0  0  0  0
   57.7730   26.2270   42.9090 C   0  0  0  0  0  0  0  0  0  0  0  0
   57.4030   25.2170   43.8010 C   0  0  0  0  0  0  0  0  0  0  0  0
   57.7420   25.3220   45.1530 C   0  0  0  0  0  0  0  0  0  0  0  0
   58.4570   26.4330   45.6130 C   0  0  0  0  0  0  0  0  0  0  0  0
   58.9880   29.9290   45.2500 N   0  0  0  0  0  0  0  0  0  0  0  0
   59.3510   30.8550   46.3330 C   0  0  0  0  0  0  0  0  0  0  0  0
   58.1440   31.7140   46.7350 C   0  0  0  0  0  0  0  0  0  0  0  0
   57.3470   32.2700   45.5170 C   0  0  0  0  0  0  0  0  0  0  0  0
   57.0330   33.7080   45.6500 N   0  0  0  0  0  0  0  0  0  0  0  0
   58.1320   34.6070   45.2540 C   0  0  0  0  0  0  0  0  0  0  0  0
   59.3230   34.4040   46.1520 C   0  0  0  0  0  0  0  0  0  0  0  0
   60.5150   33.8710   45.6390 C   0  0  0  0  0  0  0  0  0  0  0  0
   61.6090   33.6490   46.4800 C   0  0  0  0  0  0  0  0  0  0  0  0
   61.5280   33.9470   47.8530 C   0  0  0  0  0  0  0  0  0  0  0  0
   62.6900   33.7130   48.7470 C   0  0  0  0  0  0  0  0  0  0  0  0
   62.6420   34.0720   50.1020 C   0  0  0  0  0  0  0  0  0  0  0  0
   63.7500   33.8440   50.9140 C   0  0  0  0  0  0  0  0  0  0  0  0
   64.8630   33.2750   50.3850 N   0  0  0  0  0  0  0  0  0  0  0  0
   64.9200   32.9270   49.1000 N   0  0  0  0  0  0  0  0  0  0  0  0
   63.8700   33.1280   48.2610 C   0  0  0  0  0  0  0  0  0  0  0  0
   60.3250   34.4670   48.3640 C   0  0  0  0  0  0  0  0  0  0  0  0
   59.2310   34.6880   47.5220 C   0  0  0  0  0  0  0  0  0  0  0  0
   57.9970   31.9290   44.1580 C   0  0  0  0  0  0  0  0  0  0  0  0
   58.2630   30.4220   44.0670 C   0  0  0  0  0  0  0  0  0  0  0  0
   58.7678   28.1351   42.6588 H   0  0  0  0  0  0  0  0  0  0  0  0
   57.5016   26.1467   41.8460 H   0  0  0  0  0  0  0  0  0  0  0  0
   56.8456   24.3403   43.4396 H   0  0  0  0  0  0  0  0  0  0  0  0
   57.4461   24.5298   45.8564 H   0  0  0  0  0  0  0  0  0  0  0  0
   58.7145   26.5154   46.6793 H   0  0  0  0  0  0  0  0  0  0  0  0
   59.6898   30.2766   47.2051 H   0  0  0  0  0  0  0  0  0  0  0  0
   60.1558   31.5165   45.9798 H   0  0  0  0  0  0  0  0  0  0  0  0
   57.4655   31.0987   47.3441 H   0  0  0  0  0  0  0  0  0  0  0  0
   58.5325   32.5797   47.2914 H   0  0  0  0  0  0  0  0  0  0  0  0
   56.3829   31.7404   45.5279 H   0  0  0  0  0  0  0  0  0  0  0  0
   56.7750   33.8910   46.6490 H   0  0  0  0  0  0  0  0  0  0  0  0
   58.4204   34.3914   44.2146 H   0  0  0  0  0  0  0  0  0  0  0  0
   57.7910   35.6491   45.3423 H   0  0  0  0  0  0  0  0  0  0  0  0
   60.5890   33.6265   44.5691 H   0  0  0  0  0  0  0  0  0  0  0  0
   62.5412   33.2379   46.0652 H   0  0  0  0  0  0  0  0  0  0  0  0
   61.7343   34.5310   50.5208 H   0  0  0  0  0  0  0  0  0  0  0  0
   63.7235   34.1233   51.9776 H   0  0  0  0  0  0  0  0  0  0  0  0
   63.9445   32.8331   47.2039 H   0  0  0  0  0  0  0  0  0  0  0  0
   60.2443   34.7018   49.4356 H   0  0  0  0  0  0  0  0  0  0  0  0
   58.2933   35.0867   47.9364 H   0  0  0  0  0  0  0  0  0  0  0  0
   57.3197   32.2290   43.3448 H   0  0  0  0  0  0  0  0  0  0  0  0
   58.9506   32.4699   44.0682 H   0  0  0  0  0  0  0  0  0  0  0  0
   57.3013   29.8933   43.9913 H   0  0  0  0  0  0  0  0  0  0  0  0
   58.8843   30.2345   43.1788 H   0  0  0  0  0  0  0  0  0  0  0  0
  1  2  2  0
  2  3  1  0
  3  4  2  0
  4  5  1  0
  5  6  2  0
  6  7  1  0
  7  8  2  0
  2  9  1  0
  9 10  1  0
 10 11  1  0
 11 12  1  0
 12 13  1  0
 13 14  1  0
 14 15  1  0
 15 16  2  0
 16 17  1  0
 17 18  2  0
 18 19  1  0
 19 20  2  0
 20 21  1  0
 21 22  2  0
 22 23  1  0
 23 24  2  0
 18 25  1  0
 25 26  2  0
 12 27  1  0
 27 28  1  0
  8  3  1  0
 28  9  1  0
 26 15  1  0
 24 19  1  0
  4 29  1  0
  5 30  1  0
  6 31  1  0
  7 32  1  0
  8 33  1  0
 10 34  1  0
 10 35  1  0
 11 36  1  0
 11 37  1  0
 12 38  1  0
 13 39  1  0
 14 40  1  0
 14 41  1  0
 16 42  1  0
 17 43  1  0
 20 44  1  0
 21 45  1  0
 24 46  1  0
 25 47  1  0
 26 48  1  0
 27 49  1  0
 27 50  1  0
 28 51  1  0
 28 52  1  0
M  END
>  <UniqueID>  (19) 
17

>  <SMILES>  (19) 
O=C(c1ccccc1)N1CCC(NCc2ccc(-c3ccnnc3)cc2)CC1

>  <Energy>  (19) 
72.53595820250477

>  <Genealogy>  (19) 
O=C(c1ccccc1)N1CCC(NCc2ccc(-c3ccnnc3)cc2)CC1 (3D coordinates assigned)
O=C(c1ccccc1)N1CCC(NCc2ccc(-c3ccnnc3)cc2)CC1 (nonaromatic ring conformer: 72.53595820250477 kcal/mol)

>  <smiles>  (19) 
O=C(c1ccccc1)N1CCC(NCc2ccc(-c3ccnnc3)cc2)CC1

>  <score_type>  (19) 
oracle

>  <origin>  (19) 
adg

>  <m_score__min__energy>  (19) 
-9.4800000000000004

>  <m_primary>  (19) 
energy

$$$$
19:0
     RDKit          3D

 34 35  0  0  0  0  0  0  0  0999 V2000
   57.2408   31.8040   42.9489 H   0  0  0  0  0  0  0  0  0  0  0  0
   57.2710   31.5930   44.0280 C   0  0  0  0  0  0  0  0  0  0  0  0
   57.0610   32.6220   44.8650 C   0  0  0  0  0  0  0  0  0  0  0  0
   56.0271   32.9801   44.9782 H   0  0  0  0  0  0  0  0  0  0  0  0
   58.1120   33.3130   45.6480 C   0  0  0  0  0  0  0  0  0  0  0  0
   58.6190   34.5560   45.2250 C   0  0  0  0  0  0  0  0  0  0  0  0
   58.2196   35.0278   44.3151 H   0  0  0  0  0  0  0  0  0  0  0  0
   59.6250   35.1940   45.9520 C   0  0  0  0  0  0  0  0  0  0  0  0
   60.0041   36.1729   45.6235 H   0  0  0  0  0  0  0  0  0  0  0  0
   60.1500   34.5910   47.0950 C   0  0  0  0  0  0  0  0  0  0  0  0
   60.9399   35.0974   47.6691 H   0  0  0  0  0  0  0  0  0  0  0  0
   59.6750   33.3460   47.5120 C   0  0  0  0  0  0  0  0  0  0  0  0
   60.0982   32.8723   48.4101 H   0  0  0  0  0  0  0  0  0  0  0  0
   58.6560   32.6920   46.7890 C   0  0  0  0  0  0  0  0  0  0  0  0
   58.1590   31.4370   47.1820 O   0  0  0  0  0  0  0  0  0  0  0  0
   58.8980   30.4690   47.9190 C   0  0  0  0  0  0  0  0  0  0  0  0
   58.7625   30.6465   48.9961 H   0  0  0  0  0  0  0  0  0  0  0  0
   58.5374   29.4613   47.6652 H   0  0  0  0  0  0  0  0  0  0  0  0
   59.9652   30.5513   47.6652 H   0  0  0  0  0  0  0  0  0  0  0  0
   57.5400   30.1970   44.4420 C   0  0  0  0  0  0  0  0  0  0  0  0
   58.8650   29.7480   44.5050 C   0  0  0  0  0  0  0  0  0  0  0  0
   59.6863   30.4268   44.2317 H   0  0  0  0  0  0  0  0  0  0  0  0
   59.1490   28.4430   44.9130 C   0  0  0  0  0  0  0  0  0  0  0  0
   60.1915   28.0936   44.9470 H   0  0  0  0  0  0  0  0  0  0  0  0
   58.1130   27.5800   45.2780 C   0  0  0  0  0  0  0  0  0  0  0  0
   58.3413   26.5494   45.5875 H   0  0  0  0  0  0  0  0  0  0  0  0
   56.7780   28.0250   45.2510 C   0  0  0  0  0  0  0  0  0  0  0  0
   55.7040   27.2040   45.6230 O   0  0  0  0  0  0  0  0  0  0  0  0
   55.8270   25.8310   45.9800 C   0  0  0  0  0  0  0  0  0  0  0  0
   55.8355   25.7364   47.0759 H   0  0  0  0  0  0  0  0  0  0  0  0
   54.9757   25.2678   45.5699 H   0  0  0  0  0  0  0  0  0  0  0  0
   56.7648   25.4281   45.5699 H   0  0  0  0  0  0  0  0  0  0  0  0
   56.5030   29.3360   44.8430 C   0  0  0  0  0  0  0  0  0  0  0  0
   55.4638   29.6965   44.8361 H   0  0  0  0  0  0  0  0  0  0  0  0
  1  2  1  0
  2  3  2  0
  3  4  1  0
  3  5  1  0
  5  6  2  0
  6  7  1  0
  6  8  1  0
  8  9  1  0
  8 10  2  0
 10 11  1  0
 10 12  1  0
 12 13  1  0
 12 14  2  0
 14 15  1  0
 15 16  1  0
 16 17  1  0
 16 18  1  0
 16 19  1  0
  2 20  1  0
 20 21  2  0
 21 22  1  0
 21 23  1  0
 23 24  1  0
 23 25  2  0
 25 26  1  0
 25 27  1  0
 27 28  1  0
 28 29  1  0
 29 30  1  0
 29 31  1  0
 29 32  1  0
 27 33  2  0
 33 34  1  0
 14  5  1  0
 33 20  1  0
M  END
>  <UniqueID>  (20) 
18

>  <SMILES>  (20) 
COc1cccc(/C=C\c2ccccc2OC)c1

>  <Energy>  (20) 
43.0663156665554

>  <Genealogy>  (20) 
COc1cccc(/C=C\c2ccccc2OC)c1 (cis-trans isomerization)
COc1cccc(/C=C\c2ccccc2OC)c1 (3D coordinates assigned)
COc1cccc(/C=C\c2ccccc2OC)c1 (optimized conformer: 43.0663156665554 kcal/mol)

>  <smiles>  (20) 
COc1cccc(C=Cc2ccccc2OC)c1

>  <score_type>  (20) 
oracle

>  <origin>  (20) 
adg

>  <m_score__min__energy>  (20) 
-7.04

>  <m_primary>  (20) 
energy

$$$$
20:0
     RDKit          3D

 53 55  0  0  0  0  0  0  0  0999 V2000
   58.3930   21.9060   44.1040 C   0  0  0  0  0  0  0  0  0  0  0  0
   57.1850   21.9200   43.1700 C   0  0  0  0  0  0  0  0  0  0  0  0
   56.4690   23.2720   43.2110 C   0  0  0  0  0  0  0  0  0  0  0  0
   55.3920   23.2570   44.1500 O   0  0  0  0  0  0  0  0  0  0  0  0
   55.6000   23.1110   45.5250 C   0  0  0  0  0  0  0  0  0  0  0  0
   55.5000   21.8220   46.0830 C   0  0  0  0  0  0  0  0  0  0  0  0
   55.1440   20.7550   45.2420 O   0  0  0  0  0  0  0  0  0  0  0  0
   55.8540   19.5250   45.1510 C   0  0  0  0  0  0  0  0  0  0  0  0
   55.7490   21.6370   47.4540 C   0  0  0  0  0  0  0  0  0  0  0  0
   56.0700   22.7240   48.2630 C   0  0  0  0  0  0  0  0  0  0  0  0
   56.1280   24.0070   47.7240 C   0  0  0  0  0  0  0  0  0  0  0  0
   55.8810   24.2300   46.3540 C   0  0  0  0  0  0  0  0  0  0  0  0
   55.8660   25.6320   45.8470 C   0  0  0  0  0  0  0  0  0  0  0  0
   54.8440   26.3490   46.0270 O   0  0  0  0  0  0  0  0  0  0  0  0
   56.9990   26.1890   45.1710 N   0  0  0  0  0  0  0  0  0  0  0  0
   57.6310   27.4240   45.5260 C   0  0  0  0  0  0  0  0  0  0  0  0
   58.9450   27.5890   45.9290 C   0  0  0  0  0  0  0  0  0  0  0  0
   59.9450   26.4940   46.1490 C   0  0  0  0  0  0  0  0  0  0  0  0
   59.2040   28.9180   46.0320 N   0  0  0  0  0  0  0  0  0  0  0  0
   60.5260   29.5140   46.2500 C   0  0  0  0  0  0  0  0  0  0  0  0
   58.1120   29.5920   45.6740 N   0  0  0  0  0  0  0  0  0  0  0  0
   58.0170   31.0180   45.5270 C   0  0  0  0  0  0  0  0  0  0  0  0
   57.8140   31.5880   44.2600 C   0  0  0  0  0  0  0  0  0  0  0  0
   57.7130   32.9770   44.1220 C   0  0  0  0  0  0  0  0  0  0  0  0
   57.8240   33.8030   45.2470 C   0  0  0  0  0  0  0  0  0  0  0  0
   58.0420   33.2410   46.5100 C   0  0  0  0  0  0  0  0  0  0  0  0
   58.1440   31.8520   46.6490 C   0  0  0  0  0  0  0  0  0  0  0  0
   57.1480   28.7060   45.3530 C   0  0  0  0  0  0  0  0  0  0  0  0
   56.0140   29.0180   44.9020 O   0  0  0  0  0  0  0  0  0  0  0  0
   58.0488   21.9100   45.1487 H   0  0  0  0  0  0  0  0  0  0  0  0
   58.9898   21.0009   43.9180 H   0  0  0  0  0  0  0  0  0  0  0  0
   59.0106   22.7970   43.9180 H   0  0  0  0  0  0  0  0  0  0  0  0
   57.5241   21.7247   42.1420 H   0  0  0  0  0  0  0  0  0  0  0  0
   56.4803   21.1427   43.5004 H   0  0  0  0  0  0  0  0  0  0  0  0
   57.1889   24.0508   43.5029 H   0  0  0  0  0  0  0  0  0  0  0  0
   56.0579   23.4794   42.2120 H   0  0  0  0  0  0  0  0  0  0  0  0
   56.0701   19.1507   46.1625 H   0  0  0  0  0  0  0  0  0  0  0  0
   55.2425   18.7878   44.6101 H   0  0  0  0  0  0  0  0  0  0  0  0
   56.7982   19.6858   44.6101 H   0  0  0  0  0  0  0  0  0  0  0  0
   55.6900   20.6288   47.8899 H   0  0  0  0  0  0  0  0  0  0  0  0
   56.2786   22.5688   49.3318 H   0  0  0  0  0  0  0  0  0  0  0  0
   56.3700   24.8587   48.3767 H   0  0  0  0  0  0  0  0  0  0  0  0
   60.0870   26.3386   47.2287 H   0  0  0  0  0  0  0  0  0  0  0  0
   59.5777   25.5643   45.6899 H   0  0  0  0  0  0  0  0  0  0  0  0
   60.9041   26.7757   45.6899 H   0  0  0  0  0  0  0  0  0  0  0  0
   60.7160   29.5997   47.3301 H   0  0  0  0  0  0  0  0  0  0  0  0
   61.2960   28.8759   45.7917 H   0  0  0  0  0  0  0  0  0  0  0  0
   60.5577   30.5135   45.7917 H   0  0  0  0  0  0  0  0  0  0  0  0
   57.7342   30.9413   43.3738 H   0  0  0  0  0  0  0  0  0  0  0  0
   57.5463   33.4201   43.1291 H   0  0  0  0  0  0  0  0  0  0  0  0
   57.7398   34.8944   45.1381 H   0  0  0  0  0  0  0  0  0  0  0  0
   58.1331   33.8906   47.3930 H   0  0  0  0  0  0  0  0  0  0  0  0
   58.3243   31.4123   47.6410 H   0  0  0  0  0  0  0  0  0  0  0  0
  1  2  1  0
  2  3  1  0
  3  4  1  0
  4  5  1  0
  5  6  2  0
  6  7  1  0
  7  8  1  0
  6  9  1  0
  9 10  2  0
 10 11  1  0
 11 12  2  0
 12 13  1  0
 13 14  2  0
 13 15  1  0
 15 16  1  0
 16 17  2  0
 17 18  1  0
 17 19  1  0
 19 20  1  0
 19 21  1  0
 21 22  1  0
 22 23  2  0
 23 24  1  0
 24 25  2  0
 25 26  1  0
 26 27  2  0
 21 28  1  0
 28 29  2  0
 12  5  1  0
 28 16  1  0
 27 22  1  0
  1 30  1  0
  1 31  1  0
  1 32  1  0
  2 33  1  0
  2 34  1  0
  3 35  1  0
  3 36  1  0
  8 37  1  0
  8 38  1  0
  8 39  1  0
  9 40  1  0
 10 41  1  0
 11 42  1  0
 18 43  1  0
 18 44  1  0
 18 45  1  0
 20 46  1  0
 20 47  1  0
 20 48  1  0
 23 49  1  0
 24 50  1  0
 25 51  1  0
 26 52  1  0
 27 53  1  0
M  CHG  1  15  -1
M  END
>  <UniqueID>  (21) 
19

>  <SMILES>  (21) 
CCCOc1c(OC)cccc1C(=O)[N-]c1c(C)n(C)n(-c2ccccc2)c1=O

>  <Energy>  (21) 
103.76266242805822

>  <Genealogy>  (21) 
CCCOc1c(OC)cccc1C(=O)[N-]c1c(C)n(C)n(-c2ccccc2)c1=O (protonated)
CCCOc1c(OC)cccc1C(=O)[N-]c1c(C)n(C)n(-c2ccccc2)c1=O (3D coordinates assigned)
CCCOc1c(OC)cccc1C(=O)[N-]c1c(C)n(C)n(-c2ccccc2)c1=O (optimized conformer: 103.76266242805822 kcal/mol)

>  <smiles>  (21) 
CCCOc1c(OC)cccc1C(=O)Nc1c(C)n(C)n(-c2ccccc2)c1=O

>  <score_type>  (21) 
oracle

>  <origin>  (21) 
adg

>  <m_score__min__energy>  (21) 
-9.8699999999999992

>  <m_primary>  (21) 
energy

$$$$
21:0
     RDKit          3D

 51 54  0  0  0  0  0  0  0  0999 V2000
   55.6150   30.0770   43.7000 C   0  0  0  0  0  0  0  0  0  0  0  0
   56.2920   29.7770   44.9150 O   0  0  0  0  0  0  0  0  0  0  0  0
   57.3980   28.9180   45.0120 C   0  0  0  0  0  0  0  0  0  0  0  0
   57.4440   27.7280   44.3390 N   0  0  0  0  0  0  0  0  0  0  0  0
   58.5320   26.9170   44.4190 C   0  0  0  0  0  0  0  0  0  0  0  0
   59.6220   27.3000   45.1970 C   0  0  0  0  0  0  0  0  0  0  0  0
   59.5800   28.4760   45.8720 N   0  0  0  0  0  0  0  0  0  0  0  0
   58.4950   29.2930   45.8070 C   0  0  0  0  0  0  0  0  0  0  0  0
   58.4980   30.5610   46.5630 C   0  0  0  0  0  0  0  0  0  0  0  0
   58.7470   30.6990   47.9260 C   0  0  0  0  0  0  0  0  0  0  0  0
   59.0950   29.5980   48.8850 C   0  0  0  0  0  0  0  0  0  0  0  0
   58.6420   32.0610   48.2270 C   0  0  0  0  0  0  0  0  0  0  0  0
   58.8120   32.6810   49.5620 C   0  0  0  0  0  0  0  0  0  0  0  0
   57.9930   32.4210   50.4850 O   0  0  0  0  0  0  0  0  0  0  0  0
   59.8810   33.5990   49.8040 N   0  0  0  0  0  0  0  0  0  0  0  0
   61.1760   33.5450   49.1290 C   0  0  0  0  0  0  0  0  0  0  0  0
   61.6440   32.0880   48.9920 C   0  0  0  0  0  0  0  0  0  0  0  0
   63.0400   31.9960   48.3390 C   0  0  0  0  0  0  0  0  0  0  0  0
   63.3410   33.1450   47.3500 C   0  0  0  0  0  0  0  0  0  0  0  0
   64.1930   32.6850   46.3610 F   0  0  0  0  0  0  0  0  0  0  0  0
   63.9750   34.1810   48.0180 F   0  0  0  0  0  0  0  0  0  0  0  0
   62.0570   33.6770   46.7010 C   0  0  0  0  0  0  0  0  0  0  0  0
   61.0570   34.2210   47.7430 C   0  0  0  0  0  0  0  0  0  0  0  0
   58.3330   32.6880   47.0220 C   0  0  0  0  0  0  0  0  0  0  0  0
   58.1380   34.0490   46.7500 C   0  0  0  0  0  0  0  0  0  0  0  0
   57.8180   34.4210   45.4360 C   0  0  0  0  0  0  0  0  0  0  0  0
   57.6980   33.4470   44.4330 C   0  0  0  0  0  0  0  0  0  0  0  0
   57.9140   32.1010   44.7500 C   0  0  0  0  0  0  0  0  0  0  0  0
   58.2420   31.7750   46.0310 N   0  0  0  0  0  0  0  0  0  0  0  0
   54.6309   30.5131   43.9266 H   0  0  0  0  0  0  0  0  0  0  0  0
   56.2092   30.7961   43.1170 H   0  0  0  0  0  0  0  0  0  0  0  0
   55.4815   29.1538   43.1170 H   0  0  0  0  0  0  0  0  0  0  0  0
   56.6450   27.4180   43.7430 H   0  0  0  0  0  0  0  0  0  0  0  0
   58.5515   25.9629   43.8720 H   0  0  0  0  0  0  0  0  0  0  0  0
   60.5099   26.6540   45.2636 H   0  0  0  0  0  0  0  0  0  0  0  0
   58.9803   29.9608   49.9171 H   0  0  0  0  0  0  0  0  0  0  0  0
   58.4235   28.7425   48.7204 H   0  0  0  0  0  0  0  0  0  0  0  0
   60.1362   29.2838   48.7204 H   0  0  0  0  0  0  0  0  0  0  0  0
   61.9261   34.0852   49.7252 H   0  0  0  0  0  0  0  0  0  0  0  0
   61.6874   31.6319   49.9921 H   0  0  0  0  0  0  0  0  0  0  0  0
   60.9281   31.5569   48.3475 H   0  0  0  0  0  0  0  0  0  0  0  0
   63.7980   32.0163   49.1359 H   0  0  0  0  0  0  0  0  0  0  0  0
   63.0632   31.0604   47.7610 H   0  0  0  0  0  0  0  0  0  0  0  0
   62.3213   34.4884   46.0069 H   0  0  0  0  0  0  0  0  0  0  0  0
   61.5738   32.8404   46.1751 H   0  0  0  0  0  0  0  0  0  0  0  0
   61.2354   35.2995   47.8659 H   0  0  0  0  0  0  0  0  0  0  0  0
   60.0473   34.0038   47.3644 H   0  0  0  0  0  0  0  0  0  0  0  0
   58.2332   34.8039   47.5444 H   0  0  0  0  0  0  0  0  0  0  0  0
   57.6603   35.4816   45.1905 H   0  0  0  0  0  0  0  0  0  0  0  0
   57.4361   33.7392   43.4053 H   0  0  0  0  0  0  0  0  0  0  0  0
   57.8207   31.3216   43.9795 H   0  0  0  0  0  0  0  0  0  0  0  0
  1  2  1  0
  2  3  1  0
  3  4  2  0
  4  5  1  0
  5  6  2  0
  6  7  1  0
  7  8  2  0
  8  9  1  0
  9 10  2  0
 10 11  1  0
 10 12  1  0
 12 13  1  0
 13 14  2  0
 13 15  1  0
 15 16  1  0
 16 17  1  0
 17 18  1  0
 18 19  1  0
 19 20  1  0
 19 21  1  0
 19 22  1  0
 22 23  1  0
 12 24  2  0
 24 25  1  0
 25 26  2  0
 26 27  1  0
 27 28  2  0
 28 29  1  0
  8  3  1  0
 29  9  1  0
 23 16  1  0
 29 24  1  0
  1 30  1  0
  1 31  1  0
  1 32  1  0
  4 33  1  0
  5 34  1  0
  6 35  1  0
 11 36  1  0
 11 37  1  0
 11 38  1  0
 16 39  1  0
 17 40  1  0
 17 41  1  0
 18 42  1  0
 18 43  1  0
 22 44  1  0
 22 45  1  0
 23 46  1  0
 23 47  1  0
 25 48  1  0
 26 49  1  0
 27 50  1  0
 28 51  1  0
M  CHG  2   4   1  15  -1
M  END
>  <UniqueID>  (22) 
20

>  <SMILES>  (22) 
COc1[nH+]ccnc1-c1c(C)c(C(=O)[N-]C2CCC(F)(F)CC2)c2ccccn12

>  <Energy>  (22) 
94.76929752391393

>  <Genealogy>  (22) 
COc1[nH+]ccnc1-c1c(C)c(C(=O)[N-]C2CCC(F)(F)CC2)c2ccccn12 (protonated)
COc1[nH+]ccnc1-c1c(C)c(C(=O)[N-]C2CCC(F)(F)CC2)c2ccccn12 (3D coordinates assigned)
COc1[nH+]ccnc1-c1c(C)c(C(=O)[N-]C2CCC(F)(F)CC2)c2ccccn12 (nonaromatic ring conformer: 94.76929752391393 kcal/mol)

>  <smiles>  (22) 
COc1nccnc1-c1c(C)c(C(=O)NC2CCC(F)(F)CC2)c2ccccn12

>  <score_type>  (22) 
oracle

>  <origin>  (22) 
adg

>  <m_score__min__energy>  (22) 
-7.9800000000000004

>  <m_primary>  (22) 
energy

$$$$
22:0
     RDKit          3D

 42 44  0  0  1  0  0  0  0  0999 V2000
   58.5620   32.4250   49.1280 C   0  0  0  0  0  0  0  0  0  0  0  0
   59.0260   33.5630   48.4030 O   0  0  0  0  0  0  0  0  0  0  0  0
   58.5580   33.7650   47.1180 C   0  0  0  0  0  0  0  0  0  0  0  0
   57.2550   33.4430   46.7660 C   0  0  0  0  0  0  0  0  0  0  0  0
   56.8430   33.6660   45.4690 C   0  0  0  0  0  0  0  0  0  0  0  0
   57.6760   34.1970   44.5050 C   0  0  0  0  0  0  0  0  0  0  0  0
   58.9670   34.5120   44.8680 C   0  0  0  0  0  0  0  0  0  0  0  0
   59.4190   34.3010   46.1630 C   0  0  0  0  0  0  0  0  0  0  0  0
   61.8870   30.4270   47.8730 N   0  0  0  0  0  0  0  0  0  0  0  0
   62.2980   31.5900   47.4390 C   0  0  0  0  0  0  0  0  0  0  0  0
   62.9800   34.0960   46.5270 C   0  0  0  0  0  0  0  0  0  0  0  0
   63.9230   33.1180   46.7650 C   0  0  0  0  0  0  0  0  0  0  0  0
   63.5770   31.8790   47.2170 N   0  0  0  0  0  0  0  0  0  0  0  0
   61.6620   33.7560   46.7700 C   0  0  0  0  0  0  0  0  0  0  0  0
   60.7450   34.6150   46.5710 N   0  0  0  0  0  0  0  0  0  0  0  0
   60.6030   29.9170   47.4570 C   0  0  0  0  0  0  0  0  0  0  0  0
   59.7940   29.1980   48.3130 C   0  0  0  0  0  0  0  0  0  0  0  0
   58.5840   28.7520   47.8280 C   0  0  0  0  0  0  0  0  0  0  0  0
   58.1690   29.0050   46.5180 C   0  0  0  0  0  0  0  0  0  0  0  0
   59.0130   29.7300   45.6960 C   0  0  0  0  0  0  0  0  0  0  0  0
   58.6950   30.0480   44.3460 N   0  0  0  0  0  0  0  0  0  0  0  0
   57.4150   30.5230   43.9410 C   0  0  0  0  0  0  0  0  0  0  0  0
   56.4590   30.7040   44.7360 O   0  0  0  0  0  0  0  0  0  0  0  0
   60.2490   30.2010   46.1510 C   0  0  0  0  0  0  0  0  0  0  0  0
   61.3440   32.5210   47.2190 N   0  0  0  0  0  0  0  0  0  0  0  0
   58.6417   32.6205   50.2075 H   0  0  0  0  0  0  0  0  0  0  0  0
   57.5116   32.2277   48.8677 H   0  0  0  0  0  0  0  0  0  0  0  0
   59.1750   31.5495   48.8677 H   0  0  0  0  0  0  0  0  0  0  0  0
   56.5633   33.0176   47.5080 H   0  0  0  0  0  0  0  0  0  0  0  0
   55.8096   33.4106   45.1917 H   0  0  0  0  0  0  0  0  0  0  0  0
   57.3197   34.3636   43.4777 H   0  0  0  0  0  0  0  0  0  0  0  0
   59.6509   34.9378   44.1190 H   0  0  0  0  0  0  0  0  0  0  0  0
   63.2619   35.0949   46.1627 H   0  0  0  0  0  0  0  0  0  0  0  0
   64.9844   33.3440   46.5850 H   0  0  0  0  0  0  0  0  0  0  0  0
   64.3020   31.1410   47.3950 H   0  0  0  0  0  0  0  0  0  0  0  0
   60.1045   28.9881   49.3472 H   0  0  0  0  0  0  0  0  0  0  0  0
   57.9230   28.1779   48.4939 H   0  0  0  0  0  0  0  0  0  0  0  0
   57.1991   28.6382   46.1509 H   0  0  0  0  0  0  0  0  0  0  0  0
   59.4680   29.9120   43.6380 H   0  0  0  0  0  0  0  0  0  0  0  0
   57.2547   30.7432   42.8753 H   0  0  0  0  0  0  0  0  0  0  0  0
   60.9160   30.7772   45.4928 H   0  0  0  0  0  0  0  0  0  0  0  0
   60.3300   32.3140   47.3890 H   0  0  0  0  0  0  0  0  0  0  0  0
  1  2  1  0
  2  3  1  0
  3  4  2  0
  4  5  1  0
  5  6  2  0
  6  7  1  0
  7  8  2  0
  8  9  1  0
  9 10  2  0
 10 11  1  0
 11 12  2  0
 12 13  1  0
 13 14  1  0
 14 15  2  0
 15 16  1  0
 16 17  2  0
 17 18  1  0
 18 19  2  0
 19 20  1  0
 20 21  1  0
 21 22  1  0
 22 23  2  0
 20 24  2  0
 14 25  1  0
  8  3  1  0
 25 10  1  0
 24 16  1  0
  1 26  1  0
  1 27  1  0
  1 28  1  0
  4 29  1  0
  5 30  1  0
  6 31  1  0
  7 32  1  0
 11 33  1  0
 12 34  1  0
 13 35  1  0
 17 36  1  0
 18 37  1  0
 19 38  1  0
 21 39  1  0
 22 40  1  0
 24 41  1  0
 25 42  1  0
M  END
>  <smiles>  (23) 
COc1ccccc1N=c1cc[nH]c(=Nc2cccc(NC=O)c2)[nH]1

>  <score_type>  (23) 
oracle

>  <origin>  (23) 
adg

>  <m_score__min__energy>  (23) 
-8.4100000000000001

>  <m_primary>  (23) 
energy

$$$$
23:0
     RDKit          3D

 24 25  0  0  0  0  0  0  0  0999 V2000
   57.0581   32.7838   43.5176 H   0  0  0  0  0  0  0  0  0  0  0  0
   57.3630   32.4370   44.5160 C   0  0  0  0  0  0  0  0  0  0  0  0
   57.0380   31.2240   44.8620 N   0  0  0  0  0  0  0  0  0  0  0  0
   57.9280   30.1530   45.2050 C   0  0  0  0  0  0  0  0  0  0  0  0
   58.0090   29.7520   46.5020 N   0  0  0  0  0  0  0  0  0  0  0  0
   58.8130   28.7220   46.8700 C   0  0  0  0  0  0  0  0  0  0  0  0
   58.8668   28.4159   47.9252 H   0  0  0  0  0  0  0  0  0  0  0  0
   59.5730   28.0500   45.9070 C   0  0  0  0  0  0  0  0  0  0  0  0
   60.4360   26.8840   46.2850 C   0  0  0  0  0  0  0  0  0  0  0  0
   60.4915   26.8090   47.3810 H   0  0  0  0  0  0  0  0  0  0  0  0
   60.0030   25.9594   45.8757 H   0  0  0  0  0  0  0  0  0  0  0  0
   61.4468   27.0280   45.8757 H   0  0  0  0  0  0  0  0  0  0  0  0
   59.4390   28.4430   44.5730 C   0  0  0  0  0  0  0  0  0  0  0  0
   59.9977   27.9143   43.7867 H   0  0  0  0  0  0  0  0  0  0  0  0
   58.6200   29.4770   44.2440 N   0  0  0  0  0  0  0  0  0  0  0  0
   58.5120   29.7320   43.2370 H   0  0  0  0  0  0  0  0  0  0  0  0
   58.1120   33.3780   45.3710 C   0  0  0  0  0  0  0  0  0  0  0  0
   58.1170   33.3230   47.0510 S   0  0  0  0  0  0  0  0  0  0  0  0
   59.2330   34.5590   47.2800 C   0  0  0  0  0  0  0  0  0  0  0  0
   59.5842   34.9393   48.2506 H   0  0  0  0  0  0  0  0  0  0  0  0
   59.6350   35.0170   46.0320 C   0  0  0  0  0  0  0  0  0  0  0  0
   60.3661   35.8275   45.8954 H   0  0  0  0  0  0  0  0  0  0  0  0
   59.0230   34.3510   44.9650 C   0  0  0  0  0  0  0  0  0  0  0  0
   59.2395   34.5734   43.9097 H   0  0  0  0  0  0  0  0  0  0  0  0
  1  2  1  0
  2  3  2  0
  3  4  1  0
  4  5  2  0
  5  6  1  0
  6  7  1  0
  6  8  2  0
  8  9  1  0
  9 10  1  0
  9 11  1  0
  9 12  1  0
  8 13  1  0
 13 14  1  0
 13 15  2  0
 15 16  1  0
  2 17  1  0
 17 18  1  0
 18 19  1  0
 19 20  1  0
 19 21  2  0
 21 22  1  0
 21 23  1  0
 23 24  1  0
 15  4  1  0
 23 17  2  0
M  CHG  1  15   1
M  END
>  <UniqueID>  (24) 
21

>  <SMILES>  (24) 
Cc1cnc(/N=C\c2cccs2)[nH+]c1

>  <Energy>  (24) 
58.991262524271605

>  <Genealogy>  (24) 
Cc1cnc(N=Cc2cccs2)[nH+]c1 (protonated)
Cc1cnc(/N=C\c2cccs2)[nH+]c1 (cis-trans isomerization)
Cc1cnc(/N=C\c2cccs2)[nH+]c1 (3D coordinates assigned)
Cc1cnc(/N=C\c2cccs2)[nH+]c1 (optimized conformer: 58.991262524271605 kcal/mol)

>  <smiles>  (24) 
Cc1cnc(N=Cc2cccs2)nc1

>  <score_type>  (24) 
oracle

>  <origin>  (24) 
adg

>  <m_score__min__energy>  (24) 
-4.4699999999999998

>  <m_primary>  (24) 
energy

$$$$
24:0
     RDKit          3D

 25 26  0  0  0  0  0  0  0  0999 V2000
   58.5656   30.8274   42.9052 H   0  0  0  0  0  0  0  0  0  0  0  0
   57.7990   31.2890   43.5450 C   0  0  0  0  0  0  0  0  0  0  0  0
   56.8500   30.4120   44.2590 C   0  0  0  0  0  0  0  0  0  0  0  0
   55.6930   30.8490   44.4920 O   0  0  0  0  0  0  0  0  0  0  0  0
   57.2000   29.0610   44.7400 C   0  0  0  0  0  0  0  0  0  0  0  0
   56.3260   28.2390   45.2750 O   0  0  0  0  0  0  0  0  0  0  0  0
   56.9500   27.1360   45.6190 C   0  0  0  0  0  0  0  0  0  0  0  0
   56.2910   25.9710   46.2760 C   0  0  0  0  0  0  0  0  0  0  0  0
   56.3539   26.0823   47.3685 H   0  0  0  0  0  0  0  0  0  0  0  0
   55.2347   25.9278   45.9721 H   0  0  0  0  0  0  0  0  0  0  0  0
   56.7982   25.0434   45.9721 H   0  0  0  0  0  0  0  0  0  0  0  0
   58.2930   27.2330   45.3140 C   0  0  0  0  0  0  0  0  0  0  0  0
   59.0700   26.4739   45.4873 H   0  0  0  0  0  0  0  0  0  0  0  0
   58.4580   28.4790   44.7470 C   0  0  0  0  0  0  0  0  0  0  0  0
   59.3950   28.9203   44.3765 H   0  0  0  0  0  0  0  0  0  0  0  0
   57.7640   32.6240   43.6450 C   0  0  0  0  0  0  0  0  0  0  0  0
   57.3220   33.1996   42.8184 H   0  0  0  0  0  0  0  0  0  0  0  0
   58.2900   33.3600   44.8110 C   0  0  0  0  0  0  0  0  0  0  0  0
   57.7930   33.0830   46.3930 S   0  0  0  0  0  0  0  0  0  0  0  0
   58.7720   34.2450   47.1090 C   0  0  0  0  0  0  0  0  0  0  0  0
   58.8241   34.4703   48.1844 H   0  0  0  0  0  0  0  0  0  0  0  0
   59.5040   34.8720   46.1100 C   0  0  0  0  0  0  0  0  0  0  0  0
   60.2255   35.6782   46.3090 H   0  0  0  0  0  0  0  0  0  0  0  0
   59.2380   34.3820   44.8240 C   0  0  0  0  0  0  0  0  0  0  0  0
   59.7278   34.7652   43.9167 H   0  0  0  0  0  0  0  0  0  0  0  0
  1  2  1  0
  2  3  1  0
  3  4  2  0
  3  5  1  0
  5  6  1  0
  6  7  1  0
  7  8  1  0
  8  9  1  0
  8 10  1  0
  8 11  1  0
  7 12  2  0
 12 13  1  0
 12 14  1  0
 14 15  1  0
  2 16  2  0
 16 17  1  0
 16 18  1  0
 18 19  1  0
 19 20  1  0
 20 21  1  0
 20 22  2  0
 22 23  1  0
 22 24  1  0
 24 25  1  0
 14  5  2  0
 24 18  2  0
M  END
>  <UniqueID>  (25) 
22

>  <SMILES>  (25) 
Cc1ccc(C(=O)/C=C/c2cccs2)o1

>  <Energy>  (25) 
78.14514303800121

>  <Genealogy>  (25) 
Cc1ccc(C(=O)/C=C/c2cccs2)o1 (cis-trans isomerization)
Cc1ccc(C(=O)/C=C/c2cccs2)o1 (3D coordinates assigned)
Cc1ccc(C(=O)/C=C/c2cccs2)o1 (optimized conformer: 78.14514303800121 kcal/mol)

>  <smiles>  (25) 
Cc1ccc(C(=O)C=Cc2cccs2)o1

>  <score_type>  (25) 
oracle

>  <origin>  (25) 
adg

>  <m_score__min__energy>  (25) 
-6.5800000000000001

>  <m_primary>  (25) 
energy

$$$$
25:0
     RDKit          3D

 40 42  0  0  0  0  0  0  0  0999 V2000
   57.9020   31.6760   43.4430 C   0  0  0  0  0  0  0  0  0  0  0  0
   58.0310   31.1620   44.7310 O   0  0  0  0  0  0  0  0  0  0  0  0
   58.1030   29.8330   45.0720 C   0  0  0  0  0  0  0  0  0  0  0  0
   59.2710   29.1600   45.3600 C   0  0  0  0  0  0  0  0  0  0  0  0
   59.3110   27.8310   45.6990 C   0  0  0  0  0  0  0  0  0  0  0  0
   60.4830   27.1580   45.9880 C   0  0  0  0  0  0  0  0  0  0  0  0
   60.4990   25.8520   46.3180 N   0  0  0  0  0  0  0  0  0  0  0  0
   59.3460   25.1650   46.3750 C   0  0  0  0  0  0  0  0  0  0  0  0
   58.1400   25.7850   46.0970 C   0  0  0  0  0  0  0  0  0  0  0  0
   56.8780   25.0370   46.1580 C   0  0  0  0  0  0  0  0  0  0  0  0
   56.8530   23.8740   45.2180 C   0  0  0  0  0  0  0  0  0  0  0  0
   56.5730   24.0190   43.8750 C   0  0  0  0  0  0  0  0  0  0  0  0
   56.5550   22.9470   43.0350 N   0  0  0  0  0  0  0  0  0  0  0  0
   56.8140   21.6990   43.5100 C   0  0  0  0  0  0  0  0  0  0  0  0
   56.7860   20.7220   42.6890 N   0  0  0  0  0  0  0  0  0  0  0  0
   57.0880   21.5500   44.8290 N   0  0  0  0  0  0  0  0  0  0  0  0
   57.1100   22.6000   45.6700 C   0  0  0  0  0  0  0  0  0  0  0  0
   57.3780   22.3830   46.9090 N   0  0  0  0  0  0  0  0  0  0  0  0
   58.1300   27.1380   45.7550 C   0  0  0  0  0  0  0  0  0  0  0  0
   56.9430   27.7980   45.4690 C   0  0  0  0  0  0  0  0  0  0  0  0
   56.8990   29.1310   45.1280 C   0  0  0  0  0  0  0  0  0  0  0  0
   55.7040   29.7730   44.8460 O   0  0  0  0  0  0  0  0  0  0  0  0
   55.2300   29.7320   43.5160 C   0  0  0  0  0  0  0  0  0  0  0  0
   57.6346   32.7416   43.4985 H   0  0  0  0  0  0  0  0  0  0  0  0
   58.8559   31.5648   42.9066 H   0  0  0  0  0  0  0  0  0  0  0  0
   57.1136   31.1276   42.9066 H   0  0  0  0  0  0  0  0  0  0  0  0
   60.2188   29.7164   45.3158 H   0  0  0  0  0  0  0  0  0  0  0  0
   61.4351   27.7074   45.9472 H   0  0  0  0  0  0  0  0  0  0  0  0
   59.3604   24.0988   46.6454 H   0  0  0  0  0  0  0  0  0  0  0  0
   56.7386   24.6643   47.1835 H   0  0  0  0  0  0  0  0  0  0  0  0
   56.0699   25.7221   45.8621 H   0  0  0  0  0  0  0  0  0  0  0  0
   56.3599   25.0210   43.4743 H   0  0  0  0  0  0  0  0  0  0  0  0
   56.3390   23.0660   42.0020 H   0  0  0  0  0  0  0  0  0  0  0  0
   57.0080   19.7460   43.0330 H   0  0  0  0  0  0  0  0  0  0  0  0
   57.2800   20.5660   45.1390 H   0  0  0  0  0  0  0  0  0  0  0  0
   56.6490   22.1500   47.6190 H   0  0  0  0  0  0  0  0  0  0  0  0
   56.0001   27.2336   45.5167 H   0  0  0  0  0  0  0  0  0  0  0  0
   54.1341   29.6372   43.5201 H   0  0  0  0  0  0  0  0  0  0  0  0
   55.5160   30.6582   42.9961 H   0  0  0  0  0  0  0  0  0  0  0  0
   55.6708   28.8686   42.9961 H   0  0  0  0  0  0  0  0  0  0  0  0
  1  2  1  0
  2  3  1  0
  3  4  2  0
  4  5  1  0
  5  6  2  0
  6  7  1  0
  7  8  2  0
  8  9  1  0
  9 10  1  0
 10 11  1  0
 11 12  2  0
 12 13  1  0
 13 14  1  0
 14 15  2  3
 14 16  1  0
 16 17  1  0
 17 18  2  3
  9 19  2  0
 19 20  1  0
 20 21  2  0
 21 22  1  0
 22 23  1  0
 21  3  1  0
 19  5  1  0
 17 11  1  0
  1 24  1  0
  1 25  1  0
  1 26  1  0
  4 27  1  0
  6 28  1  0
  8 29  1  0
 10 30  1  0
 10 31  1  0
 12 32  1  0
 13 33  1  0
 15 34  1  0
 16 35  1  0
 18 36  1  0
 20 37  1  0
 23 38  1  0
 23 39  1  0
 23 40  1  0
M  END
>  <smiles>  (26) 
COc1cc2cncc(Cc3c[nH]c(=N)[nH]c3=N)c2cc1OC

>  <score_type>  (26) 
oracle

>  <origin>  (26) 
adg

>  <m_score__min__energy>  (26) 
-7.04

>  <m_primary>  (26) 
energy

$$$$
26:0
     RDKit          3D

 68 72  0  0  0  0  0  0  0  0999 V2000
   56.6850   29.9270   43.1080 C   0  0  0  0  0  0  0  0  0  0  0  0
   57.6080   29.8670   44.1900 O   0  0  0  0  0  0  0  0  0  0  0  0
   58.0480   30.9790   44.9270 C   0  0  0  0  0  0  0  0  0  0  0  0
   58.1670   32.2590   44.3300 C   0  0  0  0  0  0  0  0  0  0  0  0
   58.5970   33.3120   45.1270 C   0  0  0  0  0  0  0  0  0  0  0  0
   58.7810   34.6520   44.8590 C   0  0  0  0  0  0  0  0  0  0  0  0
   59.1720   35.2650   46.0020 N   0  0  0  0  0  0  0  0  0  0  0  0
   59.2510   34.3470   46.9610 N   0  0  0  0  0  0  0  0  0  0  0  0
   59.5620   34.6550   48.3550 C   0  0  0  0  0  0  0  0  0  0  0  0
   61.0500   34.3640   48.6340 C   0  0  0  0  0  0  0  0  0  0  0  0
   61.5010   33.0140   48.2310 N   0  0  0  0  0  0  0  0  0  0  0  0
   61.6280   32.0600   49.3450 C   0  0  0  0  0  0  0  0  0  0  0  0
   61.8600   30.6410   48.7820 C   0  0  0  0  0  0  0  0  0  0  0  0
   62.1790   30.6470   47.3990 O   0  0  0  0  0  0  0  0  0  0  0  0
   63.2080   31.5830   47.1430 C   0  0  0  0  0  0  0  0  0  0  0  0
   62.7100   33.0220   47.3850 C   0  0  0  0  0  0  0  0  0  0  0  0
   58.8960   33.1540   46.4460 C   0  0  0  0  0  0  0  0  0  0  0  0
   58.7960   31.9160   47.0780 C   0  0  0  0  0  0  0  0  0  0  0  0
   58.3710   30.8090   46.3070 C   0  0  0  0  0  0  0  0  0  0  0  0
   58.2820   29.4500   46.9680 C   0  0  0  0  0  0  0  0  0  0  0  0
   59.6070   28.8300   47.1590 N   0  0  0  0  0  0  0  0  0  0  0  0
   60.1230   28.1800   45.9440 C   0  0  0  0  0  0  0  0  0  0  0  0
   59.2920   26.9800   45.5620 C   0  0  0  0  0  0  0  0  0  0  0  0
   58.5430   26.9850   44.3750 C   0  0  0  0  0  0  0  0  0  0  0  0
   57.7720   25.8740   44.0220 C   0  0  0  0  0  0  0  0  0  0  0  0
   57.7500   24.7370   44.8420 C   0  0  0  0  0  0  0  0  0  0  0  0
   56.9440   23.5590   44.4640 C   0  0  0  0  0  0  0  0  0  0  0  0
   57.3800   22.3370   43.9780 C   0  0  0  0  0  0  0  0  0  0  0  0
   58.7950   21.8690   43.8510 C   0  0  0  0  0  0  0  0  0  0  0  0
   56.3160   21.5290   43.7950 N   0  0  0  0  0  0  0  0  0  0  0  0
   55.2550   22.2080   44.1230 O   0  0  0  0  0  0  0  0  0  0  0  0
   55.5690   23.4180   44.5240 C   0  0  0  0  0  0  0  0  0  0  0  0
   54.5730   24.4320   44.9840 C   0  0  0  0  0  0  0  0  0  0  0  0
   58.5320   24.7160   46.0070 C   0  0  0  0  0  0  0  0  0  0  0  0
   59.3000   25.8280   46.3640 C   0  0  0  0  0  0  0  0  0  0  0  0
   55.6606   29.9936   43.5032 H   0  0  0  0  0  0  0  0  0  0  0  0
   56.8988   30.8131   42.4923 H   0  0  0  0  0  0  0  0  0  0  0  0
   56.7823   29.0206   42.4923 H   0  0  0  0  0  0  0  0  0  0  0  0
   57.9261   32.4137   43.2679 H   0  0  0  0  0  0  0  0  0  0  0  0
   58.6352   35.1398   43.8839 H   0  0  0  0  0  0  0  0  0  0  0  0
   59.3549   35.7177   48.5493 H   0  0  0  0  0  0  0  0  0  0  0  0
   58.9399   34.0302   49.0128 H   0  0  0  0  0  0  0  0  0  0  0  0
   61.6525   35.1042   48.0871 H   0  0  0  0  0  0  0  0  0  0  0  0
   61.1792   34.4224   49.7248 H   0  0  0  0  0  0  0  0  0  0  0  0
   62.4801   32.3472   49.9786 H   0  0  0  0  0  0  0  0  0  0  0  0
   60.7059   32.0709   49.9446 H   0  0  0  0  0  0  0  0  0  0  0  0
   62.6903   30.1750   49.3329 H   0  0  0  0  0  0  0  0  0  0  0  0
   60.9237   30.0770   48.9051 H   0  0  0  0  0  0  0  0  0  0  0  0
   64.0571   31.3777   47.8116 H   0  0  0  0  0  0  0  0  0  0  0  0
   63.5177   31.4886   46.0917 H   0  0  0  0  0  0  0  0  0  0  0  0
   63.5001   33.5989   47.8879 H   0  0  0  0  0  0  0  0  0  0  0  0
   62.4639   33.4814   46.4163 H   0  0  0  0  0  0  0  0  0  0  0  0
   59.0403   31.8031   48.1446 H   0  0  0  0  0  0  0  0  0  0  0  0
   57.8012   29.5658   47.9505 H   0  0  0  0  0  0  0  0  0  0  0  0
   57.6964   28.7934   46.3077 H   0  0  0  0  0  0  0  0  0  0  0  0
   60.2890   29.5660   47.4570 H   0  0  0  0  0  0  0  0  0  0  0  0
   60.1058   28.9045   45.1165 H   0  0  0  0  0  0  0  0  0  0  0  0
   61.1492   27.8387   46.1451 H   0  0  0  0  0  0  0  0  0  0  0  0
   58.5629   27.8679   43.7192 H   0  0  0  0  0  0  0  0  0  0  0  0
   57.1791   25.8918   43.0956 H   0  0  0  0  0  0  0  0  0  0  0  0
   59.2255   21.7266   44.8532 H   0  0  0  0  0  0  0  0  0  0  0  0
   58.8180   20.9154   43.3032 H   0  0  0  0  0  0  0  0  0  0  0  0
   59.3821   22.6208   43.3032 H   0  0  0  0  0  0  0  0  0  0  0  0
   54.5523   24.4531   46.0836 H   0  0  0  0  0  0  0  0  0  0  0  0
   54.8574   25.4242   44.6036 H   0  0  0  0  0  0  0  0  0  0  0  0
   53.5759   24.1654   44.6036 H   0  0  0  0  0  0  0  0  0  0  0  0
   58.5407   23.8188   46.6433 H   0  0  0  0  0  0  0  0  0  0  0  0
   59.9130   25.8002   47.2769 H   0  0  0  0  0  0  0  0  0  0  0  0
  1  2  1  0
  2  3  1  0
  3  4  2  0
  4  5  1  0
  5  6  1  0
  6  7  2  0
  7  8  1  0
  8  9  1  0
  9 10  1  0
 10 11  1  0
 11 12  1  0
 12 13  1  0
 13 14  1  0
 14 15  1  0
 15 16  1  0
  8 17  1  0
 17 18  1  0
 18 19  2  0
 19 20  1  0
 20 21  1  0
 21 22  1  0
 22 23  1  0
 23 24  2  0
 24 25  1  0
 25 26  2  0
 26 27  1  0
 27 28  1  0
 28 29  1  0
 28 30  2  0
 30 31  1  0
 31 32  1  0
 32 33  1  0
 26 34  1  0
 34 35  2  0
 19  3  1  0
 35 23  1  0
 17  5  2  0
 32 27  2  0
 16 11  1  0
  1 36  1  0
  1 37  1  0
  1 38  1  0
  4 39  1  0
  6 40  1  0
  9 41  1  0
  9 42  1  0
 10 43  1  0
 10 44  1  0
 12 45  1  0
 12 46  1  0
 13 47  1  0
 13 48  1  0
 15 49  1  0
 15 50  1  0
 16 51  1  0
 16 52  1  0
 18 53  1  0
 20 54  1  0
 20 55  1  0
 21 56  1  0
 22 57  1  0
 22 58  1  0
 24 59  1  0
 25 60  1  0
 29 61  1  0
 29 62  1  0
 29 63  1  0
 33 64  1  0
 33 65  1  0
 33 66  1  0
 34 67  1  0
 35 68  1  0
M  END
>  <UniqueID>  (27) 
23

>  <SMILES>  (27) 
COc1cc2cnn(CCN3CCOCC3)c2cc1CNCc1ccc(-c2c(C)noc2C)cc1

>  <Energy>  (27) 
154.57162942177624

>  <Genealogy>  (27) 
COc1cc2cnn(CCN3CCOCC3)c2cc1CNCc1ccc(-c2c(C)noc2C)cc1 (3D coordinates assigned)
COc1cc2cnn(CCN3CCOCC3)c2cc1CNCc1ccc(-c2c(C)noc2C)cc1 (nonaromatic ring conformer: 154.57162942177624 kcal/mol)

>  <smiles>  (27) 
COc1cc2cnn(CCN3CCOCC3)c2cc1CNCc1ccc(-c2c(C)noc2C)cc1

>  <score_type>  (27) 
oracle

>  <origin>  (27) 
adg

>  <m_score__min__energy>  (27) 
-9.1400000000000006

>  <m_primary>  (27) 
energy

$$$$
27:0
     RDKit          3D

 50 52  0  0  0  0  0  0  0  0999 V2000
   63.2280   32.4580   47.9730 C   0  0  0  0  0  0  0  0  0  0  0  0
   62.1760   32.1330   49.0290 C   0  0  0  0  0  0  0  0  0  0  0  0
   60.8550   32.5820   48.5870 N   0  0  0  0  0  0  0  0  0  0  0  0
   60.6020   33.7100   47.9010 C   0  0  0  0  0  0  0  0  0  0  0  0
   59.2420   33.7980   47.7100 C   0  0  0  0  0  0  0  0  0  0  0  0
   58.6350   32.7370   48.2770 N   0  0  0  0  0  0  0  0  0  0  0  0
   59.6460   32.0180   48.8100 C   0  0  0  0  0  0  0  0  0  0  0  0
   59.4080   30.7230   49.5420 C   0  0  0  0  0  0  0  0  0  0  0  0
   60.3110   29.6560   49.0800 N   0  0  0  0  0  0  0  0  0  0  0  0
   61.0760   28.8770   50.0620 C   0  0  0  0  0  0  0  0  0  0  0  0
   60.4830   29.4120   47.6630 C   0  0  0  0  0  0  0  0  0  0  0  0
   61.2420   30.1530   46.9820 O   0  0  0  0  0  0  0  0  0  0  0  0
   59.7710   28.3220   46.9680 C   0  0  0  0  0  0  0  0  0  0  0  0
   60.4370   27.1220   46.6870 C   0  0  0  0  0  0  0  0  0  0  0  0
   59.7650   26.0810   46.0450 C   0  0  0  0  0  0  0  0  0  0  0  0
   58.4200   26.2230   45.6930 C   0  0  0  0  0  0  0  0  0  0  0  0
   57.7290   27.4120   45.9870 C   0  0  0  0  0  0  0  0  0  0  0  0
   56.3000   27.5650   45.6210 C   0  0  0  0  0  0  0  0  0  0  0  0
   55.4620   26.6930   45.9760 O   0  0  0  0  0  0  0  0  0  0  0  0
   55.8670   28.7010   44.8650 N   0  0  0  0  0  0  0  0  0  0  0  0
   56.5490   29.1830   43.6700 C   0  0  0  0  0  0  0  0  0  0  0  0
   57.1450   30.5410   43.9230 C   0  0  0  0  0  0  0  0  0  0  0  0
   57.3940   31.4280   42.8660 C   0  0  0  0  0  0  0  0  0  0  0  0
   57.9190   32.6960   43.1300 C   0  0  0  0  0  0  0  0  0  0  0  0
   58.1860   33.0660   44.4480 C   0  0  0  0  0  0  0  0  0  0  0  0
   57.9380   32.1950   45.4640 N   0  0  0  0  0  0  0  0  0  0  0  0
   57.4270   30.9560   45.2340 C   0  0  0  0  0  0  0  0  0  0  0  0
   58.4140   28.4570   46.6330 C   0  0  0  0  0  0  0  0  0  0  0  0
   64.1667   32.7480   48.4677 H   0  0  0  0  0  0  0  0  0  0  0  0
   63.4030   31.5720   47.3450 H   0  0  0  0  0  0  0  0  0  0  0  0
   62.8728   33.2883   47.3450 H   0  0  0  0  0  0  0  0  0  0  0  0
   62.1527   31.0459   49.1950 H   0  0  0  0  0  0  0  0  0  0  0  0
   62.4356   32.6521   49.9634 H   0  0  0  0  0  0  0  0  0  0  0  0
   61.3514   34.4361   47.5530 H   0  0  0  0  0  0  0  0  0  0  0  0
   58.7285   34.6109   47.1757 H   0  0  0  0  0  0  0  0  0  0  0  0
   59.5725   30.8871   50.6172 H   0  0  0  0  0  0  0  0  0  0  0  0
   58.3743   30.4042   49.3425 H   0  0  0  0  0  0  0  0  0  0  0  0
   60.7811   29.1773   51.0783 H   0  0  0  0  0  0  0  0  0  0  0  0
   60.8692   27.8058   49.9217 H   0  0  0  0  0  0  0  0  0  0  0  0
   62.1508   29.0644   49.9217 H   0  0  0  0  0  0  0  0  0  0  0  0
   61.4921   27.0000   46.9731 H   0  0  0  0  0  0  0  0  0  0  0  0
   60.2958   25.1454   45.8152 H   0  0  0  0  0  0  0  0  0  0  0  0
   57.8986   25.3997   45.1828 H   0  0  0  0  0  0  0  0  0  0  0  0
   57.3502   28.4792   43.4003 H   0  0  0  0  0  0  0  0  0  0  0  0
   55.8220   29.2580   42.8479 H   0  0  0  0  0  0  0  0  0  0  0  0
   57.1765   31.1263   41.8308 H   0  0  0  0  0  0  0  0  0  0  0  0
   58.1199   33.3960   42.3056 H   0  0  0  0  0  0  0  0  0  0  0  0
   58.5973   34.0625   44.6665 H   0  0  0  0  0  0  0  0  0  0  0  0
   57.2341   30.2770   46.0777 H   0  0  0  0  0  0  0  0  0  0  0  0
   57.8820   29.3881   46.8779 H   0  0  0  0  0  0  0  0  0  0  0  0
  1  2  1  0
  2  3  1  0
  3  4  1  0
  4  5  2  0
  5  6  1  0
  6  7  2  0
  7  8  1  0
  8  9  1  0
  9 10  1  0
  9 11  1  0
 11 12  2  0
 11 13  1  0
 13 14  2  0
 14 15  1  0
 15 16  2  0
 16 17  1  0
 17 18  1  0
 18 19  2  0
 18 20  1  0
 20 21  1  0
 21 22  1  0
 22 23  2  0
 23 24  1  0
 24 25  2  0
 25 26  1  0
 26 27  2  0
 17 28  2  0
  7  3  1  0
 28 13  1  0
 27 22  1  0
  1 29  1  0
  1 30  1  0
  1 31  1  0
  2 32  1  0
  2 33  1  0
  4 34  1  0
  5 35  1  0
  8 36  1  0
  8 37  1  0
 10 38  1  0
 10 39  1  0
 10 40  1  0
 14 41  1  0
 15 42  1  0
 16 43  1  0
 21 44  1  0
 21 45  1  0
 23 46  1  0
 24 47  1  0
 25 48  1  0
 27 49  1  0
 28 50  1  0
M  CHG  1  20  -1
M  END
>  <UniqueID>  (28) 
24

>  <SMILES>  (28) 
CCn1ccnc1CN(C)C(=O)c1cccc(C(=O)[N-]Cc2cccnc2)c1

>  <Energy>  (28) 
80.51063520621133

>  <Genealogy>  (28) 
CCn1ccnc1CN(C)C(=O)c1cccc(C(=O)[N-]Cc2cccnc2)c1 (protonated)
CCn1ccnc1CN(C)C(=O)c1cccc(C(=O)[N-]Cc2cccnc2)c1 (3D coordinates assigned)
CCn1ccnc1CN(C)C(=O)c1cccc(C(=O)[N-]Cc2cccnc2)c1 (optimized conformer: 80.51063520621133 kcal/mol)

>  <smiles>  (28) 
CCn1ccnc1CN(C)C(=O)c1cccc(C(=O)NCc2cccnc2)c1

>  <score_type>  (28) 
oracle

>  <origin>  (28) 
adg

>  <m_score__min__energy>  (28) 
-9.9299999999999997

>  <m_primary>  (28) 
energy

$$$$
28:0
     RDKit          3D

 38 40  0  0  0  0  0  0  0  0999 V2000
   58.9070   28.1970   48.5870 O   0  0  0  0  0  0  0  0  0  0  0  0
   59.2510   29.0890   47.7640 C   0  0  0  0  0  0  0  0  0  0  0  0
   60.1910   30.0470   48.1570 C   0  0  0  0  0  0  0  0  0  0  0  0
   60.5830   31.0450   47.2630 C   0  0  0  0  0  0  0  0  0  0  0  0
   61.5730   32.0630   47.6590 C   0  0  0  0  0  0  0  0  0  0  0  0
   62.9410   31.8900   47.6490 C   0  0  0  0  0  0  0  0  0  0  0  0
   63.4450   33.0840   48.1260 C   0  0  0  0  0  0  0  0  0  0  0  0
   62.4300   33.9180   48.4240 N   0  0  0  0  0  0  0  0  0  0  0  0
   61.2960   33.2960   48.1390 N   0  0  0  0  0  0  0  0  0  0  0  0
   59.9780   33.8710   48.4190 C   0  0  0  0  0  0  0  0  0  0  0  0
   59.1390   33.9510   47.1690 C   0  0  0  0  0  0  0  0  0  0  0  0
   59.6200   34.6150   46.0270 C   0  0  0  0  0  0  0  0  0  0  0  0
   58.8310   34.7020   44.8760 C   0  0  0  0  0  0  0  0  0  0  0  0
   57.5520   34.1420   44.8600 C   0  0  0  0  0  0  0  0  0  0  0  0
   57.0560   33.4990   45.9970 C   0  0  0  0  0  0  0  0  0  0  0  0
   57.8420   33.4110   47.1510 C   0  0  0  0  0  0  0  0  0  0  0  0
   59.9930   31.0960   45.9970 C   0  0  0  0  0  0  0  0  0  0  0  0
   59.0570   30.1260   45.6340 C   0  0  0  0  0  0  0  0  0  0  0  0
   58.7090   29.1280   46.5030 N   0  0  0  0  0  0  0  0  0  0  0  0
   57.7010   28.1400   46.0830 C   0  0  0  0  0  0  0  0  0  0  0  0
   56.8750   28.6820   44.9200 C   0  0  0  0  0  0  0  0  0  0  0  0
   55.5290   28.6170   45.2340 F   0  0  0  0  0  0  0  0  0  0  0  0
   60.6208   30.0142   49.1690 H   0  0  0  0  0  0  0  0  0  0  0  0
   63.5047   31.0002   47.3320 H   0  0  0  0  0  0  0  0  0  0  0  0
   64.5132   33.3184   48.2446 H   0  0  0  0  0  0  0  0  0  0  0  0
   59.4614   33.2404   49.1576 H   0  0  0  0  0  0  0  0  0  0  0  0
   60.1192   34.8900   48.8084 H   0  0  0  0  0  0  0  0  0  0  0  0
   60.6221   35.0684   46.0391 H   0  0  0  0  0  0  0  0  0  0  0  0
   59.2184   35.2123   43.9818 H   0  0  0  0  0  0  0  0  0  0  0  0
   56.9347   34.2071   43.9519 H   0  0  0  0  0  0  0  0  0  0  0  0
   56.0468   33.0616   45.9848 H   0  0  0  0  0  0  0  0  0  0  0  0
   57.4426   32.9166   48.0488 H   0  0  0  0  0  0  0  0  0  0  0  0
   60.2644   31.8951   45.2914 H   0  0  0  0  0  0  0  0  0  0  0  0
   58.5935   30.1644   44.6371 H   0  0  0  0  0  0  0  0  0  0  0  0
   58.2085   27.2165   45.7674 H   0  0  0  0  0  0  0  0  0  0  0  0
   57.0305   27.9331   46.9301 H   0  0  0  0  0  0  0  0  0  0  0  0
   57.1557   29.7282   44.7284 H   0  0  0  0  0  0  0  0  0  0  0  0
   57.0693   28.0771   44.0220 H   0  0  0  0  0  0  0  0  0  0  0  0
  1  2  2  0
  2  3  1  0
  3  4  2  0
  4  5  1  0
  5  6  2  0
  6  7  1  0
  7  8  2  0
  8  9  1  0
  9 10  1  0
 10 11  1  0
 11 12  2  0
 12 13  1  0
 13 14  2  0
 14 15  1  0
 15 16  2  0
  4 17  1  0
 17 18  2  0
 18 19  1  0
 19 20  1  0
 20 21  1  0
 21 22  1  0
 19  2  1  0
  9  5  1  0
 16 11  1  0
  3 23  1  0
  6 24  1  0
  7 25  1  0
 10 26  1  0
 10 27  1  0
 12 28  1  0
 13 29  1  0
 14 30  1  0
 15 31  1  0
 16 32  1  0
 17 33  1  0
 18 34  1  0
 20 35  1  0
 20 36  1  0
 21 37  1  0
 21 38  1  0
M  END
>  <UniqueID>  (29) 
25

>  <SMILES>  (29) 
O=c1cc(-c2ccnn2Cc2ccccc2)ccn1CCF

>  <Energy>  (29) 
74.29203346343432

>  <Genealogy>  (29) 
O=c1cc(-c2ccnn2Cc2ccccc2)ccn1CCF (3D coordinates assigned)
O=c1cc(-c2ccnn2Cc2ccccc2)ccn1CCF (optimized conformer: 74.29203346343432 kcal/mol)

>  <smiles>  (29) 
O=c1cc(-c2ccnn2Cc2ccccc2)ccn1CCF

>  <score_type>  (29) 
oracle

>  <origin>  (29) 
adg

>  <m_score__min__energy>  (29) 
-7.3300000000000001

>  <m_primary>  (29) 
energy

$$$$
29:0
     RDKit          3D

 33 35  0  0  0  0  0  0  0  0999 V2000
   62.4460   34.1720   49.0460 C   0  0  0  0  0  0  0  0  0  0  0  0
   61.1120   34.5930   48.7800 O   0  0  0  0  0  0  0  0  0  0  0  0
   60.3770   34.2310   47.6400 C   0  0  0  0  0  0  0  0  0  0  0  0
   59.9700   35.2440   46.7710 C   0  0  0  0  0  0  0  0  0  0  0  0
   59.1760   34.9470   45.6650 C   0  0  0  0  0  0  0  0  0  0  0  0
   58.8180   33.6200   45.3860 C   0  0  0  0  0  0  0  0  0  0  0  0
   57.9130   33.3560   44.3570 C   0  0  0  0  0  0  0  0  0  0  0  0
   57.4370   32.0670   44.1550 C   0  0  0  0  0  0  0  0  0  0  0  0
   57.9400   30.9890   44.9040 C   0  0  0  0  0  0  0  0  0  0  0  0
   57.4350   29.6810   44.7270 C   0  0  0  0  0  0  0  0  0  0  0  0
   56.2580   29.4210   43.9410 N   0  0  0  0  0  0  0  0  0  0  0  0
   55.1450   29.3200   44.4980 O   0  0  0  0  0  0  0  0  0  0  0  0
   56.3080   29.5270   42.5710 O   0  0  0  0  0  0  0  0  0  0  0  0
   58.0680   28.6190   45.3690 C   0  0  0  0  0  0  0  0  0  0  0  0
   59.2170   28.8440   46.1140 C   0  0  0  0  0  0  0  0  0  0  0  0
   59.7260   30.1020   46.2720 N   0  0  0  0  0  0  0  0  0  0  0  0
   61.1100   30.1700   46.7720 C   0  0  0  0  0  0  0  0  0  0  0  0
   59.0180   31.2040   45.8150 C   0  0  0  0  0  0  0  0  0  0  0  0
   59.3310   32.5560   46.1750 C   0  0  0  0  0  0  0  0  0  0  0  0
   60.0310   32.8970   47.3550 C   0  0  0  0  0  0  0  0  0  0  0  0
   62.6048   34.1219   50.1333 H   0  0  0  0  0  0  0  0  0  0  0  0
   62.6116   33.1779   48.6051 H   0  0  0  0  0  0  0  0  0  0  0  0
   63.1522   34.8909   48.6051 H   0  0  0  0  0  0  0  0  0  0  0  0
   60.2777   36.2830   46.9601 H   0  0  0  0  0  0  0  0  0  0  0  0
   58.8283   35.7574   45.0075 H   0  0  0  0  0  0  0  0  0  0  0  0
   57.5749   34.1730   43.7026 H   0  0  0  0  0  0  0  0  0  0  0  0
   56.6573   31.8875   43.4001 H   0  0  0  0  0  0  0  0  0  0  0  0
   57.6571   27.6021   45.2854 H   0  0  0  0  0  0  0  0  0  0  0  0
   59.7282   27.9924   46.5868 H   0  0  0  0  0  0  0  0  0  0  0  0
   61.1029   30.1697   47.8720 H   0  0  0  0  0  0  0  0  0  0  0  0
   61.6744   29.2985   46.4087 H   0  0  0  0  0  0  0  0  0  0  0  0
   61.5862   31.0926   46.4087 H   0  0  0  0  0  0  0  0  0  0  0  0
   60.3107   32.1041   48.0643 H   0  0  0  0  0  0  0  0  0  0  0  0
  1  2  1  0
  2  3  1  0
  3  4  2  0
  4  5  1  0
  5  6  2  0
  6  7  1  0
  7  8  2  0
  8  9  1  0
  9 10  2  0
 10 11  1  0
 11 12  2  0
 11 13  1  0
 10 14  1  0
 14 15  2  0
 15 16  1  0
 16 17  1  0
 16 18  2  0
 18 19  1  0
 19 20  2  0
 20  3  1  0
 19  6  1  0
 18  9  1  0
  1 21  1  0
  1 22  1  0
  1 23  1  0
  4 24  1  0
  5 25  1  0
  7 26  1  0
  8 27  1  0
 14 28  1  0
 15 29  1  0
 17 30  1  0
 17 31  1  0
 17 32  1  0
 20 33  1  0
M  CHG  3  11   1  13  -1  16   1
M  END
>  <UniqueID>  (30) 
26

>  <SMILES>  (30) 
COc1ccc2ccc3c([N+](=O)[O-])cc[n+](C)c3c2c1

>  <Energy>  (30) 
67.42788812230378

>  <Genealogy>  (30) 
COc1ccc2ccc3c([N+](=O)[O-])cc[n+](C)c3c2c1 (3D coordinates assigned)
COc1ccc2ccc3c([N+](=O)[O-])cc[n+](C)c3c2c1 (optimized conformer: 67.42788812230378 kcal/mol)

>  <smiles>  (30) 
COc1ccc2ccc3c([N+](=O)[O-])cc[n+](C)c3c2c1

>  <score_type>  (30) 
oracle

>  <origin>  (30) 
adg

>  <m_score__min__energy>  (30) 
-6.04

>  <m_primary>  (30) 
energy

$$$$
30:0
     RDKit          3D

 32 34  0  0  0  0  0  0  0  0999 V2000
   60.1963   35.6890   47.0982 H   0  0  0  0  0  0  0  0  0  0  0  0
   59.5120   34.9470   46.6610 C   0  0  0  0  0  0  0  0  0  0  0  0
   59.2690   34.9460   45.2850 C   0  0  0  0  0  0  0  0  0  0  0  0
   59.7702   35.6815   44.6386 H   0  0  0  0  0  0  0  0  0  0  0  0
   58.3900   34.0120   44.7280 C   0  0  0  0  0  0  0  0  0  0  0  0
   58.2123   34.0053   43.6425 H   0  0  0  0  0  0  0  0  0  0  0  0
   57.7310   33.0790   45.5540 C   0  0  0  0  0  0  0  0  0  0  0  0
   56.8450   32.0790   45.0240 N   0  0  0  0  0  0  0  0  0  0  0  0
   57.1060   30.8120   44.8750 C   0  0  0  0  0  0  0  0  0  0  0  0
   57.4080   29.9760   45.9050 N   0  0  0  0  0  0  0  0  0  0  0  0
   57.6610   28.8110   45.2790 C   0  0  0  0  0  0  0  0  0  0  0  0
   58.0400   27.6030   45.8590 C   0  0  0  0  0  0  0  0  0  0  0  0
   58.1451   27.5038   46.9495 H   0  0  0  0  0  0  0  0  0  0  0  0
   58.2840   26.5130   45.0020 C   0  0  0  0  0  0  0  0  0  0  0  0
   58.5817   25.5419   45.4244 H   0  0  0  0  0  0  0  0  0  0  0  0
   58.1490   26.6580   43.6030 C   0  0  0  0  0  0  0  0  0  0  0  0
   58.3439   25.7995   42.9434 H   0  0  0  0  0  0  0  0  0  0  0  0
   57.7670   27.8930   43.0480 C   0  0  0  0  0  0  0  0  0  0  0  0
   57.6635   28.0212   41.9604 H   0  0  0  0  0  0  0  0  0  0  0  0
   57.5240   28.9500   43.9270 C   0  0  0  0  0  0  0  0  0  0  0  0
   57.1630   30.2160   43.6550 N   0  0  0  0  0  0  0  0  0  0  0  0
   56.9860   30.8420   42.3430 C   0  0  0  0  0  0  0  0  0  0  0  0
   55.9555   31.2167   42.2558 H   0  0  0  0  0  0  0  0  0  0  0  0
   57.1827   30.0944   41.5605 H   0  0  0  0  0  0  0  0  0  0  0  0
   57.9590   32.0030   42.1750 C   0  0  0  0  0  0  0  0  0  0  0  0
   58.2665   32.3699   43.1654 H   0  0  0  0  0  0  0  0  0  0  0  0
   58.8447   31.6616   41.6192 H   0  0  0  0  0  0  0  0  0  0  0  0
   57.4680   32.8154   41.6192 H   0  0  0  0  0  0  0  0  0  0  0  0
   58.0070   33.0700   46.9290 C   0  0  0  0  0  0  0  0  0  0  0  0
   57.5285   32.3213   47.5774 H   0  0  0  0  0  0  0  0  0  0  0  0
   58.8860   34.0060   47.4810 C   0  0  0  0  0  0  0  0  0  0  0  0
   59.0849   34.0014   48.5629 H   0  0  0  0  0  0  0  0  0  0  0  0
  1  2  1  0
  2  3  2  0
  3  4  1  0
  3  5  1  0
  5  6  1  0
  5  7  2  0
  7  8  1  0
  8  9  2  0
  9 10  1  0
 10 11  1  0
 11 12  2  0
 12 13  1  0
 12 14  1  0
 14 15  1  0
 14 16  2  0
 16 17  1  0
 16 18  1  0
 18 19  1  0
 18 20  2  0
 20 21  1  0
 21 22  1  0
 22 23  1  0
 22 24  1  0
 22 25  1  0
 25 26  1  0
 25 27  1  0
 25 28  1  0
  7 29  1  0
 29 30  1  0
 29 31  2  0
 31 32  1  0
 31  2  1  0
 21  9  1  0
 20 11  1  0
M  CHG  1  10  -1
M  END
>  <UniqueID>  (31) 
27

>  <SMILES>  (31) 
CCn1/c(=N/c2ccccc2)[n-]c2ccccc21

>  <Energy>  (31) 
74.86115362142785

>  <Genealogy>  (31) 
CCn1c(=Nc2ccccc2)[n-]c2ccccc21 (protonated)
CCn1/c(=N/c2ccccc2)[n-]c2ccccc21 (cis-trans isomerization)
CCn1/c(=N/c2ccccc2)[n-]c2ccccc21 (3D coordinates assigned)
CCn1/c(=N/c2ccccc2)[n-]c2ccccc21 (optimized conformer: 74.86115362142785 kcal/mol)

>  <smiles>  (31) 
CCn1c(=Nc2ccccc2)[nH]c2ccccc21

>  <score_type>  (31) 
oracle

>  <origin>  (31) 
adg

>  <m_score__min__energy>  (31) 
-8.3599999999999994

>  <m_primary>  (31) 
energy

$$$$
31:0
     RDKit          3D

 27 28  0  0  0  0  0  0  0  0999 V2000
   58.4780   30.0310   45.5350 C   0  0  0  0  0  0  0  0  0  0  0  0
   57.1010   30.4910   45.2470 N   0  0  0  0  0  0  0  0  0  0  0  0
   56.4750   29.5980   44.2560 C   0  0  0  0  0  0  0  0  0  0  0  0
   56.6710   30.2130   42.8680 C   0  0  0  0  0  0  0  0  0  0  0  0
   57.2930   31.5760   43.1110 C   0  0  0  0  0  0  0  0  0  0  0  0
   57.0600   31.8180   44.6000 C   0  0  2  0  0  0  0  0  0  0  0  0
   57.9300   32.8730   45.2790 C   0  0  0  0  0  0  0  0  0  0  0  0
   58.4420   33.9260   44.4960 C   0  0  0  0  0  0  0  0  0  0  0  0
   59.2690   34.8990   45.0610 C   0  0  0  0  0  0  0  0  0  0  0  0
   59.6160   34.8240   46.4110 C   0  0  0  0  0  0  0  0  0  0  0  0
   59.1440   33.7700   47.1960 C   0  0  0  0  0  0  0  0  0  0  0  0
   59.6440   33.6560   49.0360 Br  0  0  0  0  0  0  0  0  0  0  0  0
   58.3150   32.7920   46.6350 C   0  0  0  0  0  0  0  0  0  0  0  0
   58.6277   29.9810   46.6236 H   0  0  0  0  0  0  0  0  0  0  0  0
   58.6303   29.0332   45.0977 H   0  0  0  0  0  0  0  0  0  0  0  0
   59.1994   30.7369   45.0977 H   0  0  0  0  0  0  0  0  0  0  0  0
   56.9506   28.6069   44.2948 H   0  0  0  0  0  0  0  0  0  0  0  0
   55.4028   29.4818   44.4725 H   0  0  0  0  0  0  0  0  0  0  0  0
   57.3422   29.5870   42.2617 H   0  0  0  0  0  0  0  0  0  0  0  0
   55.7211   30.2906   42.3188 H   0  0  0  0  0  0  0  0  0  0  0  0
   58.3681   31.5639   42.8788 H   0  0  0  0  0  0  0  0  0  0  0  0
   56.8579   32.3629   42.4774 H   0  0  0  0  0  0  0  0  0  0  0  0
   56.0774   32.2974   44.7214 H   0  0  0  0  0  0  0  0  0  0  0  0
   58.1875   33.9825   43.4273 H   0  0  0  0  0  0  0  0  0  0  0  0
   59.6474   35.7255   44.4416 H   0  0  0  0  0  0  0  0  0  0  0  0
   60.2614   35.5953   46.8565 H   0  0  0  0  0  0  0  0  0  0  0  0
   57.9610   31.9548   47.2545 H   0  0  0  0  0  0  0  0  0  0  0  0
  1  2  1  0
  2  3  1  0
  3  4  1  0
  4  5  1  0
  5  6  1  0
  6  7  1  0
  7  8  2  0
  8  9  1  0
  9 10  2  0
 10 11  1  0
 11 12  1  0
 11 13  2  0
  6  2  1  0
 13  7  1  0
  1 14  1  0
  1 15  1  0
  1 16  1  0
  3 17  1  0
  3 18  1  0
  4 19  1  0
  4 20  1  0
  5 21  1  0
  5 22  1  0
  6 23  1  6
  8 24  1  0
  9 25  1  0
 10 26  1  0
 13 27  1  0
M  END
>  <UniqueID>  (32) 
28

>  <SMILES>  (32) 
CN1CCC[C@@H]1c1cccc(Br)c1

>  <Energy>  (32) 
36.33277161599647

>  <Genealogy>  (32) 
CN1CCC[C@@H]1c1cccc(Br)c1 (chirality)
CN1CCC[C@@H]1c1cccc(Br)c1 (3D coordinates assigned)
CN1CCC[C@@H]1c1cccc(Br)c1 (nonaromatic ring conformer: 36.33277161599647 kcal/mol)

>  <smiles>  (32) 
CN1CCCC1c1cccc(Br)c1

>  <score_type>  (32) 
oracle

>  <origin>  (32) 
adg

>  <m_score__min__energy>  (32) 
-6.8899999999999997

>  <m_primary>  (32) 
energy

$$$$
32:0
     RDKit          3D

 56 58  0  0  0  0  0  0  0  0999 V2000
   60.4080   30.5110   50.6550 C   0  0  0  0  0  0  0  0  0  0  0  0
   60.6210   30.3270   49.1800 C   0  0  0  0  0  0  0  0  0  0  0  0
   59.8650   29.4010   48.5320 N   0  0  0  0  0  0  0  0  0  0  0  0
   59.9680   29.1940   47.1930 C   0  0  0  0  0  0  0  0  0  0  0  0
   59.1160   28.1630   46.5490 C   0  0  0  0  0  0  0  0  0  0  0  0
   59.6440   26.8870   46.2770 C   0  0  0  0  0  0  0  0  0  0  0  0
   58.8510   25.9050   45.6760 C   0  0  0  0  0  0  0  0  0  0  0  0
   57.5230   26.1810   45.3460 C   0  0  0  0  0  0  0  0  0  0  0  0
   56.9830   27.4390   45.6220 C   0  0  0  0  0  0  0  0  0  0  0  0
   57.7710   28.4250   46.2230 C   0  0  0  0  0  0  0  0  0  0  0  0
   60.8580   29.9320   46.4700 N   0  0  0  0  0  0  0  0  0  0  0  0
   61.6300   30.8750   47.0670 C   0  0  0  0  0  0  0  0  0  0  0  0
   61.5400   31.1080   48.4460 C   0  0  0  0  0  0  0  0  0  0  0  0
   62.4370   32.1530   49.0920 C   0  0  0  0  0  0  0  0  0  0  0  0
   61.7240   33.3390   49.6430 N   0  0  0  0  0  0  0  0  0  0  0  0
   62.2080   33.8740   50.9290 C   0  0  0  0  0  0  0  0  0  0  0  0
   61.3930   34.3830   48.6470 C   0  0  0  0  0  0  0  0  0  0  0  0
   60.2410   34.0060   47.7430 C   0  0  0  0  0  0  0  0  0  0  0  0
   59.1050   33.3650   48.2680 C   0  0  0  0  0  0  0  0  0  0  0  0
   58.0620   32.9720   47.4260 C   0  0  0  0  0  0  0  0  0  0  0  0
   58.1290   33.2290   46.0500 C   0  0  0  0  0  0  0  0  0  0  0  0
   57.0350   32.7370   45.1380 C   0  0  0  0  0  0  0  0  0  0  0  0
   57.4840   31.5470   44.3860 N   0  0  0  0  0  0  0  0  0  0  0  0
   58.0600   31.9320   43.0850 C   0  0  0  0  0  0  0  0  0  0  0  0
   56.3540   30.6300   44.1720 C   0  0  0  0  0  0  0  0  0  0  0  0
   59.2430   33.9030   45.5280 C   0  0  0  0  0  0  0  0  0  0  0  0
   60.2870   34.2970   46.3700 C   0  0  0  0  0  0  0  0  0  0  0  0
   61.1269   29.8900   51.2096 H   0  0  0  0  0  0  0  0  0  0  0  0
   60.5577   31.5686   50.9180 H   0  0  0  0  0  0  0  0  0  0  0  0
   59.3834   30.2092   50.9180 H   0  0  0  0  0  0  0  0  0  0  0  0
   60.6881   26.6608   46.5392 H   0  0  0  0  0  0  0  0  0  0  0  0
   59.2745   24.9125   45.4626 H   0  0  0  0  0  0  0  0  0  0  0  0
   56.9024   25.4082   44.8689 H   0  0  0  0  0  0  0  0  0  0  0  0
   55.9352   27.6545   45.3659 H   0  0  0  0  0  0  0  0  0  0  0  0
   57.3378   29.4119   46.4427 H   0  0  0  0  0  0  0  0  0  0  0  0
   60.9850   29.7690   45.4470 H   0  0  0  0  0  0  0  0  0  0  0  0
   62.3348   31.4635   46.4613 H   0  0  0  0  0  0  0  0  0  0  0  0
   62.9847   31.6710   49.9152 H   0  0  0  0  0  0  0  0  0  0  0  0
   63.0931   32.5313   48.2942 H   0  0  0  0  0  0  0  0  0  0  0  0
   61.7216   33.3363   51.7562 H   0  0  0  0  0  0  0  0  0  0  0  0
   63.2978   33.7399   50.9951 H   0  0  0  0  0  0  0  0  0  0  0  0
   61.9657   34.9450   50.9951 H   0  0  0  0  0  0  0  0  0  0  0  0
   61.1276   35.3056   49.1839 H   0  0  0  0  0  0  0  0  0  0  0  0
   62.2783   34.5145   48.0076 H   0  0  0  0  0  0  0  0  0  0  0  0
   59.0372   33.1718   49.3488 H   0  0  0  0  0  0  0  0  0  0  0  0
   57.1841   32.4584   47.8449 H   0  0  0  0  0  0  0  0  0  0  0  0
   56.1531   32.4731   45.7402 H   0  0  0  0  0  0  0  0  0  0  0  0
   56.7819   33.5344   44.4238 H   0  0  0  0  0  0  0  0  0  0  0  0
   58.9643   32.5364   43.2488 H   0  0  0  0  0  0  0  0  0  0  0  0
   58.3219   31.0267   42.5176 H   0  0  0  0  0  0  0  0  0  0  0  0
   57.3237   32.5201   42.5176 H   0  0  0  0  0  0  0  0  0  0  0  0
   55.9552   30.3063   45.1447 H   0  0  0  0  0  0  0  0  0  0  0  0
   55.5649   31.1464   43.6056 H   0  0  0  0  0  0  0  0  0  0  0  0
   56.6968   29.7515   43.6056 H   0  0  0  0  0  0  0  0  0  0  0  0
   59.2953   34.1225   44.4514 H   0  0  0  0  0  0  0  0  0  0  0  0
   61.1498   34.8383   45.9545 H   0  0  0  0  0  0  0  0  0  0  0  0
  1  2  1  0
  2  3  2  0
  3  4  1  0
  4  5  1  0
  5  6  2  0
  6  7  1  0
  7  8  2  0
  8  9  1  0
  9 10  2  0
  4 11  2  0
 11 12  1  0
 12 13  2  0
 13 14  1  0
 14 15  1  0
 15 16  1  0
 15 17  1  0
 17 18  1  0
 18 19  2  0
 19 20  1  0
 20 21  2  0
 21 22  1  0
 22 23  1  0
 23 24  1  0
 23 25  1  0
 21 26  1  0
 26 27  2  0
 13  2  1  0
 27 18  1  0
 10  5  1  0
  1 28  1  0
  1 29  1  0
  1 30  1  0
  6 31  1  0
  7 32  1  0
  8 33  1  0
  9 34  1  0
 10 35  1  0
 11 36  1  0
 12 37  1  0
 14 38  1  0
 14 39  1  0
 16 40  1  0
 16 41  1  0
 16 42  1  0
 17 43  1  0
 17 44  1  0
 19 45  1  0
 20 46  1  0
 22 47  1  0
 22 48  1  0
 24 49  1  0
 24 50  1  0
 24 51  1  0
 25 52  1  0
 25 53  1  0
 25 54  1  0
 26 55  1  0
 27 56  1  0
M  CHG  1  11   1
M  END
>  <UniqueID>  (33) 
29

>  <SMILES>  (33) 
Cc1nc(-c2ccccc2)[nH+]cc1CN(C)Cc1ccc(CN(C)C)cc1

>  <Energy>  (33) 
70.0955186742207

>  <Genealogy>  (33) 
Cc1nc(-c2ccccc2)[nH+]cc1CN(C)Cc1ccc(CN(C)C)cc1 (protonated)
Cc1nc(-c2ccccc2)[nH+]cc1CN(C)Cc1ccc(CN(C)C)cc1 (3D coordinates assigned)
Cc1nc(-c2ccccc2)[nH+]cc1CN(C)Cc1ccc(CN(C)C)cc1 (optimized conformer: 70.0955186742207 kcal/mol)

>  <smiles>  (33) 
Cc1nc(-c2ccccc2)ncc1CN(C)Cc1ccc(CN(C)C)cc1

>  <score_type>  (33) 
oracle

>  <origin>  (33) 
adg

>  <m_score__min__energy>  (33) 
-6.4199999999999999

>  <m_primary>  (33) 
energy

$$$$
33:0
     RDKit          3D

 40 43  0  0  0  0  0  0  0  0999 V2000
   56.1400   27.6700   45.6120 O   0  0  0  0  0  0  0  0  0  0  0  0
   56.2550   28.8530   45.1960 C   0  0  0  0  0  0  0  0  0  0  0  0
   55.2050   29.6240   44.8690 N   0  0  0  0  0  0  0  0  0  0  0  0
   55.7090   30.7820   44.4820 N   0  0  0  0  0  0  0  0  0  0  0  0
   57.0480   30.6740   44.5840 C   0  0  0  0  0  0  0  0  0  0  0  0
   57.9980   31.7900   44.2540 C   0  0  0  0  0  0  0  0  0  0  0  0
   57.4880   33.1030   44.7270 N   0  0  1  0  0  0  0  0  0  0  0  0
   57.0160   33.0590   46.1440 C   0  0  0  0  0  0  0  0  0  0  0  0
   57.9350   33.7870   47.1450 C   0  0  0  0  0  0  0  0  0  0  0  0
   59.4120   33.5470   46.8050 C   0  0  2  0  0  0  0  0  0  0  0  0
   60.2540   34.2310   47.7370 O   0  0  0  0  0  0  0  0  0  0  0  0
   61.5720   33.8750   48.0680 C   0  0  0  0  0  0  0  0  0  0  0  0
   62.4990   33.3720   47.1110 C   0  0  0  0  0  0  0  0  0  0  0  0
   63.8100   33.0340   47.4960 C   0  0  0  0  0  0  0  0  0  0  0  0
   64.1620   33.2110   48.8300 C   0  0  0  0  0  0  0  0  0  0  0  0
   63.2860   33.6940   49.7460 C   0  0  0  0  0  0  0  0  0  0  0  0
   61.9820   34.0400   49.4070 C   0  0  0  0  0  0  0  0  0  0  0  0
   63.9030   33.7650   50.9790 O   0  0  0  0  0  0  0  0  0  0  0  0
   65.2510   33.2970   50.8290 C   0  0  0  0  0  0  0  0  0  0  0  0
   65.3740   32.9550   49.4410 O   0  0  0  0  0  0  0  0  0  0  0  0
   59.7310   34.0460   45.3800 C   0  0  0  0  0  0  0  0  0  0  0  0
   58.4790   34.1780   44.4880 C   0  0  0  0  0  0  0  0  0  0  0  0
   57.4410   29.4670   45.0360 N   0  0  0  0  0  0  0  0  0  0  0  0
   58.9659   31.5887   44.7363 H   0  0  0  0  0  0  0  0  0  0  0  0
   58.1052   31.8373   43.1603 H   0  0  0  0  0  0  0  0  0  0  0  0
   56.6610   33.3460   44.1280 H   0  0  0  0  0  0  0  0  0  0  0  0
   56.9418   32.0048   46.4492 H   0  0  0  0  0  0  0  0  0  0  0  0
   56.0486   33.5821   46.1687 H   0  0  0  0  0  0  0  0  0  0  0  0
   57.7329   33.4112   48.1589 H   0  0  0  0  0  0  0  0  0  0  0  0
   57.7318   34.8666   47.0885 H   0  0  0  0  0  0  0  0  0  0  0  0
   59.6007   32.4648   46.8617 H   0  0  0  0  0  0  0  0  0  0  0  0
   62.1882   33.2467   46.0633 H   0  0  0  0  0  0  0  0  0  0  0  0
   64.5330   32.6424   46.7653 H   0  0  0  0  0  0  0  0  0  0  0  0
   61.2879   34.4326   50.1647 H   0  0  0  0  0  0  0  0  0  0  0  0
   65.9668   34.0881   51.0970 H   0  0  0  0  0  0  0  0  0  0  0  0
   65.4663   32.4412   51.4857 H   0  0  0  0  0  0  0  0  0  0  0  0
   60.4237   33.3342   44.9072 H   0  0  0  0  0  0  0  0  0  0  0  0
   60.1715   35.0494   45.4759 H   0  0  0  0  0  0  0  0  0  0  0  0
   58.7925   34.1391   43.4343 H   0  0  0  0  0  0  0  0  0  0  0  0
   57.9958   35.1348   44.7349 H   0  0  0  0  0  0  0  0  0  0  0  0
  1  2  2  0
  2  3  1  0
  3  4  1  0
  4  5  2  0
  5  6  1  0
  6  7  1  0
  7  8  1  0
  8  9  1  0
  9 10  1  0
 10 11  1  0
 11 12  1  0
 12 13  2  0
 13 14  1  0
 14 15  2  0
 15 16  1  0
 16 17  2  0
 16 18  1  0
 18 19  1  0
 19 20  1  0
 10 21  1  0
 21 22  1  0
  5 23  1  0
 23  2  1  0
 22  7  1  0
 17 12  1  0
 20 15  1  0
  6 24  1  0
  6 25  1  0
  7 26  1  6
  8 27  1  0
  8 28  1  0
  9 29  1  0
  9 30  1  0
 10 31  1  6
 13 32  1  0
 14 33  1  0
 17 34  1  0
 19 35  1  0
 19 36  1  0
 21 37  1  0
 21 38  1  0
 22 39  1  0
 22 40  1  0
M  CHG  3   3  -1   7   1  23  -1
M  END
>  <UniqueID>  (34) 
30

>  <SMILES>  (34) 
O=c1[n-]nc(C[NH+]2CCC(Oc3ccc4c(c3)OCO4)CC2)[n-]1

>  <Energy>  (34) 
113.3030369996407

>  <Genealogy>  (34) 
O=c1[n-]nc(C[NH+]2CCC(Oc3ccc4c(c3)OCO4)CC2)[n-]1 (protonated)
O=c1[n-]nc(C[NH+]2CCC(Oc3ccc4c(c3)OCO4)CC2)[n-]1 (3D coordinates assigned)
O=c1[n-]nc(C[NH+]2CCC(Oc3ccc4c(c3)OCO4)CC2)[n-]1 (nonaromatic ring conformer: 113.3030369996407 kcal/mol)

>  <smiles>  (34) 
O=c1[nH]nc(CN2CCC(Oc3ccc4c(c3)OCO4)CC2)[nH]1

>  <score_type>  (34) 
oracle

>  <origin>  (34) 
adg

>  <m_score__min__energy>  (34) 
-10.08

>  <m_primary>  (34) 
energy

$$$$
34:0
     RDKit          3D

 28 30  0  0  1  0  0  0  0  0999 V2000
   60.0130   34.1890   48.9100 Br  0  0  0  0  0  0  0  0  0  0  0  0
   59.2730   34.0090   47.1500 C   0  0  0  0  0  0  0  0  0  0  0  0
   59.5620   34.9370   46.1760 C   0  0  0  0  0  0  0  0  0  0  0  0
   59.0630   34.8630   44.8970 C   0  0  0  0  0  0  0  0  0  0  0  0
   58.2290   33.8080   44.5630 C   0  0  0  0  0  0  0  0  0  0  0  0
   57.9010   32.8270   45.5320 C   0  0  0  0  0  0  0  0  0  0  0  0
   57.0030   31.8630   45.2320 N   0  0  0  0  0  0  0  0  0  0  0  0
   57.0510   30.8390   44.5540 C   0  0  0  0  0  0  0  0  0  0  0  0
   56.2930   30.7620   43.4370 N   0  0  0  0  0  0  0  0  0  0  0  0
   56.2590   29.7070   42.6170 C   0  0  0  0  0  0  0  0  0  0  0  0
   57.0300   28.6560   42.9280 N   0  0  0  0  0  0  0  0  0  0  0  0
   57.7990   28.6920   44.0310 C   0  0  0  0  0  0  0  0  0  0  0  0
   58.5620   27.5920   44.2970 C   0  0  0  0  0  0  0  0  0  0  0  0
   59.3500   27.6140   45.4180 C   0  0  0  0  0  0  0  0  0  0  0  0
   59.4350   28.6540   46.2950 C   0  0  0  0  0  0  0  0  0  0  0  0
   58.6390   29.7780   46.0010 C   0  0  0  0  0  0  0  0  0  0  0  0
   57.8450   29.7810   44.8920 C   0  0  0  0  0  0  0  0  0  0  0  0
   58.4440   32.9540   46.8340 C   0  0  0  0  0  0  0  0  0  0  0  0
   60.2234   35.7776   46.4327 H   0  0  0  0  0  0  0  0  0  0  0  0
   59.3216   35.6289   44.1510 H   0  0  0  0  0  0  0  0  0  0  0  0
   57.8209   33.7317   43.5443 H   0  0  0  0  0  0  0  0  0  0  0  0
   55.6750   31.5720   43.1630 H   0  0  0  0  0  0  0  0  0  0  0  0
   55.6219   29.7017   41.7203 H   0  0  0  0  0  0  0  0  0  0  0  0
   58.5450   26.7155   43.6326 H   0  0  0  0  0  0  0  0  0  0  0  0
   59.9612   26.7234   45.6262 H   0  0  0  0  0  0  0  0  0  0  0  0
   60.0869   28.6175   47.1802 H   0  0  0  0  0  0  0  0  0  0  0  0
   58.6576   30.6539   46.6661 H   0  0  0  0  0  0  0  0  0  0  0  0
   58.2018   32.2033   47.6006 H   0  0  0  0  0  0  0  0  0  0  0  0
  1  2  1  0
  2  3  2  0
  3  4  1  0
  4  5  2  0
  5  6  1  0
  6  7  1  0
  7  8  2  0
  8  9  1  0
  9 10  1  0
 10 11  2  0
 11 12  1  0
 12 13  2  0
 13 14  1  0
 14 15  2  0
 15 16  1  0
 16 17  2  0
  6 18  2  0
 18  2  1  0
 17  8  1  0
 17 12  1  0
  3 19  1  0
  4 20  1  0
  5 21  1  0
  9 22  1  0
 10 23  1  0
 13 24  1  0
 14 25  1  0
 15 26  1  0
 16 27  1  0
 18 28  1  0
M  END
>  <smiles>  (35) 
Brc1cccc(N=c2[nH]cnc3ccccc23)c1

>  <score_type>  (35) 
oracle

>  <origin>  (35) 
adg

>  <m_score__min__energy>  (35) 
-7.5800000000000001

>  <m_primary>  (35) 
energy

$$$$
35:0
     RDKit          3D

 26 28  0  0  0  0  0  0  0  0999 V2000
   55.5320   28.5960   45.2230 O   0  0  0  0  0  0  0  0  0  0  0  0
   56.4530   29.5810   44.8820 C   0  0  0  0  0  0  0  0  0  0  0  0
   57.3930   30.0000   45.8310 C   0  0  0  0  0  0  0  0  0  0  0  0
   58.3350   30.9970   45.5160 C   0  0  0  0  0  0  0  0  0  0  0  0
   59.3280   31.4350   46.5310 C   0  0  0  0  0  0  0  0  0  0  0  0
   59.3630   32.6770   47.1810 C   0  0  0  0  0  0  0  0  0  0  0  0
   60.4230   32.7850   48.0880 C   0  0  0  0  0  0  0  0  0  0  0  0
   60.7160   33.8970   48.8830 C   0  0  0  0  0  0  0  0  0  0  0  0
   61.8230   33.8380   49.7470 C   0  0  0  0  0  0  0  0  0  0  0  0
   62.6210   32.6770   49.8070 C   0  0  0  0  0  0  0  0  0  0  0  0
   62.3170   31.5670   49.0050 C   0  0  0  0  0  0  0  0  0  0  0  0
   61.2150   31.6510   48.1570 C   0  0  0  0  0  0  0  0  0  0  0  0
   60.6200   30.4920   47.1030 S   0  0  0  0  0  0  0  0  0  0  0  0
   58.3190   31.5590   44.2260 C   0  0  0  0  0  0  0  0  0  0  0  0
   57.3820   31.1410   43.2760 C   0  0  0  0  0  0  0  0  0  0  0  0
   57.3950   31.8650   41.6750 Cl  0  0  0  0  0  0  0  0  0  0  0  0
   56.4440   30.1510   43.6000 C   0  0  0  0  0  0  0  0  0  0  0  0
   55.5130   29.7440   42.6420 O   0  0  0  0  0  0  0  0  0  0  0  0
   57.3954   29.5455   46.8327 H   0  0  0  0  0  0  0  0  0  0  0  0
   58.6348   33.4807   46.9974 H   0  0  0  0  0  0  0  0  0  0  0  0
   60.0918   34.8013   48.8333 H   0  0  0  0  0  0  0  0  0  0  0  0
   62.0685   34.7031   50.3805 H   0  0  0  0  0  0  0  0  0  0  0  0
   63.4858   32.6416   50.4858 H   0  0  0  0  0  0  0  0  0  0  0  0
   62.9317   30.6556   49.0446 H   0  0  0  0  0  0  0  0  0  0  0  0
   59.0518   32.3358   43.9620 H   0  0  0  0  0  0  0  0  0  0  0  0
   55.1350   28.8050   42.6240 H   0  0  0  0  0  0  0  0  0  0  0  0
  1  2  1  0
  2  3  2  0
  3  4  1  0
  4  5  1  0
  5  6  2  0
  6  7  1  0
  7  8  2  0
  8  9  1  0
  9 10  2  0
 10 11  1  0
 11 12  2  0
 12 13  1  0
  4 14  2  0
 14 15  1  0
 15 16  1  0
 15 17  2  0
 17 18  1  0
 17  2  1  0
 13  5  1  0
 12  7  1  0
  3 19  1  0
  6 20  1  0
  8 21  1  0
  9 22  1  0
 10 23  1  0
 11 24  1  0
 14 25  1  0
 18 26  1  0
M  CHG  1   1  -1
M  END
>  <UniqueID>  (36) 
31

>  <SMILES>  (36) 
[O-]c1cc(-c2cc3ccccc3s2)cc(Cl)c1O

>  <Energy>  (36) 
62.72476255824507

>  <Genealogy>  (36) 
[O-]c1cc(-c2cc3ccccc3s2)cc(Cl)c1O (protonated)
[O-]c1cc(-c2cc3ccccc3s2)cc(Cl)c1O (3D coordinates assigned)
[O-]c1cc(-c2cc3ccccc3s2)cc(Cl)c1O (optimized conformer: 62.72476255824507 kcal/mol)

>  <smiles>  (36) 
Oc1cc(-c2cc3ccccc3s2)cc(Cl)c1O

>  <score_type>  (36) 
oracle

>  <origin>  (36) 
adg

>  <m_score__min__energy>  (36) 
-10.220000000000001

>  <m_primary>  (36) 
energy

$$$$
36:0
     RDKit          3D

 38 40  0  0  0  0  0  0  0  0999 V2000
   59.1080   29.6020   48.2390 C   0  0  0  0  0  0  0  0  0  0  0  0
   59.2910   30.9790   47.6860 C   0  0  0  0  0  0  0  0  0  0  0  0
   60.4270   31.7270   48.0130 C   0  0  0  0  0  0  0  0  0  0  0  0
   60.5840   33.0200   47.4920 C   0  0  0  0  0  0  0  0  0  0  0  0
   61.8090   33.8220   47.8460 C   0  0  0  0  0  0  0  0  0  0  0  0
   59.5860   33.5470   46.6440 C   0  0  0  0  0  0  0  0  0  0  0  0
   59.7140   34.8770   46.0910 C   0  0  0  0  0  0  0  0  0  0  0  0
   59.8170   35.9400   45.6470 N   0  0  0  0  0  0  0  0  0  0  0  0
   58.4600   32.7580   46.3410 C   0  0  0  0  0  0  0  0  0  0  0  0
   57.1470   33.3570   45.2690 S   0  0  0  0  0  0  0  0  0  0  0  0
   58.1230   33.1180   43.7470 C   0  0  0  0  0  0  0  0  0  0  0  0
   57.7030   31.8460   43.0770 C   0  0  0  0  0  0  0  0  0  0  0  0
   57.7970   31.7610   41.8240 O   0  0  0  0  0  0  0  0  0  0  0  0
   57.1510   30.7150   43.8580 C   0  0  0  0  0  0  0  0  0  0  0  0
   55.8070   30.4940   44.1610 C   0  0  0  0  0  0  0  0  0  0  0  0
   55.6610   29.3630   44.8850 N   0  0  0  0  0  0  0  0  0  0  0  0
   56.8970   28.8600   45.0440 C   0  0  0  0  0  0  0  0  0  0  0  0
   57.2470   27.6960   45.7260 C   0  0  0  0  0  0  0  0  0  0  0  0
   58.6070   27.3470   45.7780 C   0  0  0  0  0  0  0  0  0  0  0  0
   59.5770   28.1600   45.1520 C   0  0  0  0  0  0  0  0  0  0  0  0
   59.1960   29.3290   44.4700 C   0  0  0  0  0  0  0  0  0  0  0  0
   57.8360   29.6540   44.4320 C   0  0  0  0  0  0  0  0  0  0  0  0
   58.3450   31.5100   46.8680 N   0  0  0  0  0  0  0  0  0  0  0  0
   59.1137   29.6445   49.3382 H   0  0  0  0  0  0  0  0  0  0  0  0
   58.1475   29.1925   47.8928 H   0  0  0  0  0  0  0  0  0  0  0  0
   59.9282   28.9559   47.8928 H   0  0  0  0  0  0  0  0  0  0  0  0
   61.1948   31.3026   48.6766 H   0  0  0  0  0  0  0  0  0  0  0  0
   61.9033   33.8837   48.9402 H   0  0  0  0  0  0  0  0  0  0  0  0
   62.7011   33.3325   47.4281 H   0  0  0  0  0  0  0  0  0  0  0  0
   61.7172   34.8354   47.4281 H   0  0  0  0  0  0  0  0  0  0  0  0
   57.9524   33.9646   43.0657 H   0  0  0  0  0  0  0  0  0  0  0  0
   59.1914   33.0614   44.0026 H   0  0  0  0  0  0  0  0  0  0  0  0
   54.9800   31.1505   43.8527 H   0  0  0  0  0  0  0  0  0  0  0  0
   54.7660   28.9620   45.2430 H   0  0  0  0  0  0  0  0  0  0  0  0
   56.4821   27.0699   46.2086 H   0  0  0  0  0  0  0  0  0  0  0  0
   58.9178   26.4354   46.3093 H   0  0  0  0  0  0  0  0  0  0  0  0
   60.6389   27.8766   45.1982 H   0  0  0  0  0  0  0  0  0  0  0  0
   59.9451   29.9690   43.9809 H   0  0  0  0  0  0  0  0  0  0  0  0
  1  2  1  0
  2  3  2  0
  3  4  1  0
  4  5  1  0
  4  6  2  0
  6  7  1  0
  7  8  3  0
  6  9  1  0
  9 10  1  0
 10 11  1  0
 11 12  1  0
 12 13  2  0
 12 14  1  0
 14 15  2  0
 15 16  1  0
 16 17  1  0
 17 18  2  0
 18 19  1  0
 19 20  2  0
 20 21  1  0
 21 22  2  0
  9 23  2  0
 23  2  1  0
 22 14  1  0
 22 17  1  0
  1 24  1  0
  1 25  1  0
  1 26  1  0
  3 27  1  0
  5 28  1  0
  5 29  1  0
  5 30  1  0
 11 31  1  0
 11 32  1  0
 15 33  1  0
 16 34  1  0
 18 35  1  0
 19 36  1  0
 20 37  1  0
 21 38  1  0
M  END
>  <UniqueID>  (37) 
32

>  <SMILES>  (37) 
Cc1cc(C)c(C#N)c(SCC(=O)c2c[nH]c3ccccc23)n1

>  <Energy>  (37) 
69.08506211417156

>  <Genealogy>  (37) 
Cc1cc(C)c(C#N)c(SCC(=O)c2c[nH]c3ccccc23)n1 (3D coordinates assigned)
Cc1cc(C)c(C#N)c(SCC(=O)c2c[nH]c3ccccc23)n1 (optimized conformer: 69.08506211417156 kcal/mol)

>  <smiles>  (37) 
Cc1cc(C)c(C#N)c(SCC(=O)c2c[nH]c3ccccc23)n1

>  <score_type>  (37) 
oracle

>  <origin>  (37) 
adg

>  <m_score__min__energy>  (37) 
-8.5999999999999996

>  <m_primary>  (37) 
energy

$$$$
37:0
     RDKit          3D

 72 77  0  0  0  0  0  0  0  0999 V2000
   57.1040   28.6620   45.2730 C   0  0  0  0  0  0  0  0  0  0  0  0
   56.4650   29.8510   44.8230 O   0  0  0  0  0  0  0  0  0  0  0  0
   57.0040   30.7390   43.8770 C   0  0  0  0  0  0  0  0  0  0  0  0
   56.6770   30.6540   42.5080 C   0  0  0  0  0  0  0  0  0  0  0  0
   57.2010   31.5760   41.5980 C   0  0  0  0  0  0  0  0  0  0  0  0
   58.0530   32.5890   42.0390 C   0  0  0  0  0  0  0  0  0  0  0  0
   58.3940   32.6780   43.3900 C   0  0  0  0  0  0  0  0  0  0  0  0
   57.8810   31.7550   44.3160 C   0  0  0  0  0  0  0  0  0  0  0  0
   58.2660   31.8470   45.7000 N   0  0  0  0  0  0  0  0  0  0  0  0
   59.5530   31.2840   46.1310 C   0  0  0  0  0  0  0  0  0  0  0  0
   59.9170   31.7380   47.5520 C   0  0  0  0  0  0  0  0  0  0  0  0
   59.6720   33.1820   47.7050 N   0  0  0  0  0  0  0  0  0  0  0  0
   60.6230   34.1030   48.3000 C   0  0  0  0  0  0  0  0  0  0  0  0
   60.4080   35.3420   48.2020 O   0  0  0  0  0  0  0  0  0  0  0  0
   61.8750   33.6820   49.0510 C   0  0  0  0  0  0  0  0  0  0  0  0
   61.6420   32.4720   49.9820 C   0  0  0  0  0  0  0  0  0  0  0  0
   62.9100   32.1860   50.8060 C   0  0  0  0  0  0  0  0  0  0  0  0
   64.1240   32.2680   49.9800 N   0  0  0  0  0  0  0  0  0  0  0  0
   65.4110   32.3200   50.6240 C   0  0  0  0  0  0  0  0  0  0  0  0
   66.2500   31.2360   50.6110 N   0  0  0  0  0  0  0  0  0  0  0  0
   67.4670   31.2650   51.2480 C   0  0  0  0  0  0  0  0  0  0  0  0
   67.8690   32.3790   51.9290 N   0  0  0  0  0  0  0  0  0  0  0  0
   67.0350   33.4450   51.9530 C   0  0  0  0  0  0  0  0  0  0  0  0
   65.8340   33.4450   51.3300 C   0  0  0  0  0  0  0  0  0  0  0  0
   65.1930   34.6090   51.5470 N   0  0  0  0  0  0  0  0  0  0  0  0
   66.0770   35.3020   52.3150 C   0  0  0  0  0  0  0  0  0  0  0  0
   67.2170   34.6080   52.5980 N   0  0  0  0  0  0  0  0  0  0  0  0
   68.4130   35.0170   53.3490 C   0  0  0  0  0  0  0  0  0  0  0  0
   68.1780   36.1850   54.3340 C   0  0  0  0  0  0  0  0  0  0  0  0
   68.0830   37.5610   53.6520 C   0  0  0  0  0  0  0  0  0  0  0  0
   66.9520   37.6360   52.6060 C   0  0  0  0  0  0  0  0  0  0  0  0
   65.7820   36.6680   52.8460 C   0  0  0  0  0  0  0  0  0  0  0  0
   64.0080   32.3520   48.5170 C   0  0  0  0  0  0  0  0  0  0  0  0
   63.1120   33.5350   48.1230 C   0  0  0  0  0  0  0  0  0  0  0  0
   58.3720   33.7290   47.2670 C   0  0  0  0  0  0  0  0  0  0  0  0
   57.4780   32.6570   46.6340 C   0  0  0  0  0  0  0  0  0  0  0  0
   57.1134   28.6445   46.3728 H   0  0  0  0  0  0  0  0  0  0  0  0
   56.5552   27.7860   44.8970 H   0  0  0  0  0  0  0  0  0  0  0  0
   58.1374   28.6363   44.8970 H   0  0  0  0  0  0  0  0  0  0  0  0
   56.0057   29.8575   42.1544 H   0  0  0  0  0  0  0  0  0  0  0  0
   56.9412   31.5029   40.5316 H   0  0  0  0  0  0  0  0  0  0  0  0
   58.4566   33.3185   41.3214 H   0  0  0  0  0  0  0  0  0  0  0  0
   59.0691   33.4765   43.7315 H   0  0  0  0  0  0  0  0  0  0  0  0
   59.4874   30.1861   46.1121 H   0  0  0  0  0  0  0  0  0  0  0  0
   60.3340   31.6409   45.4435 H   0  0  0  0  0  0  0  0  0  0  0  0
   59.3017   31.1865   48.2781 H   0  0  0  0  0  0  0  0  0  0  0  0
   60.9832   31.5348   47.7308 H   0  0  0  0  0  0  0  0  0  0  0  0
   62.1220   34.5136   49.7274 H   0  0  0  0  0  0  0  0  0  0  0  0
   60.8074   32.6930   50.6637 H   0  0  0  0  0  0  0  0  0  0  0  0
   61.4031   31.5889   49.3712 H   0  0  0  0  0  0  0  0  0  0  0  0
   62.9811   32.9237   51.6189 H   0  0  0  0  0  0  0  0  0  0  0  0
   62.8358   31.1644   51.2070 H   0  0  0  0  0  0  0  0  0  0  0  0
   65.9780   30.3690   50.0970 H   0  0  0  0  0  0  0  0  0  0  0  0
   68.1236   30.3833   51.2093 H   0  0  0  0  0  0  0  0  0  0  0  0
   68.7727   34.1500   53.9225 H   0  0  0  0  0  0  0  0  0  0  0  0
   69.1437   35.3727   52.6077 H   0  0  0  0  0  0  0  0  0  0  0  0
   67.2378   35.9997   54.8741 H   0  0  0  0  0  0  0  0  0  0  0  0
   69.0487   36.2189   55.0053 H   0  0  0  0  0  0  0  0  0  0  0  0
   67.8986   38.3231   54.4235 H   0  0  0  0  0  0  0  0  0  0  0  0
   69.0325   37.7339   53.1243 H   0  0  0  0  0  0  0  0  0  0  0  0
   66.5530   38.6611   52.6073 H   0  0  0  0  0  0  0  0  0  0  0  0
   67.4011   37.3443   51.6451 H   0  0  0  0  0  0  0  0  0  0  0  0
   65.5940   36.5972   53.9275 H   0  0  0  0  0  0  0  0  0  0  0  0
   64.8999   37.0584   52.3174 H   0  0  0  0  0  0  0  0  0  0  0  0
   65.0080   32.4925   48.0807 H   0  0  0  0  0  0  0  0  0  0  0  0
   63.5604   31.4212   48.1385 H   0  0  0  0  0  0  0  0  0  0  0  0
   63.7052   34.4597   48.1774 H   0  0  0  0  0  0  0  0  0  0  0  0
   62.7435   33.3490   47.1034 H   0  0  0  0  0  0  0  0  0  0  0  0
   57.8536   34.1528   48.1397 H   0  0  0  0  0  0  0  0  0  0  0  0
   58.5680   34.4986   46.5059 H   0  0  0  0  0  0  0  0  0  0  0  0
   57.0676   32.0100   47.4233 H   0  0  0  0  0  0  0  0  0  0  0  0
   56.6544   33.1430   46.0905 H   0  0  0  0  0  0  0  0  0  0  0  0
  1  2  1  0
  2  3  1  0
  3  4  2  0
  4  5  1  0
  5  6  2  0
  6  7  1  0
  7  8  2  0
  8  9  1  0
  9 10  1  0
 10 11  1  0
 11 12  1  0
 12 13  1  0
 13 14  2  0
 13 15  1  0
 15 16  1  0
 16 17  1  0
 17 18  1  0
 18 19  1  0
 19 20  2  0
 20 21  1  0
 21 22  2  0
 22 23  1  0
 23 24  2  0
 24 25  1  0
 25 26  2  0
 26 27  1  0
 27 28  1  0
 28 29  1  0
 29 30  1  0
 30 31  1  0
 31 32  1  0
 18 33  1  0
 33 34  1  0
 12 35  1  0
 35 36  1  0
  8  3  1  0
 36  9  1  0
 34 15  1  0
 24 19  1  0
 32 26  1  0
 27 23  1  0
  1 37  1  0
  1 38  1  0
  1 39  1  0
  4 40  1  0
  5 41  1  0
  6 42  1  0
  7 43  1  0
 10 44  1  0
 10 45  1  0
 11 46  1  0
 11 47  1  0
 15 48  1  0
 16 49  1  0
 16 50  1  0
 17 51  1  0
 17 52  1  0
 20 53  1  0
 21 54  1  0
 28 55  1  0
 28 56  1  0
 29 57  1  0
 29 58  1  0
 30 59  1  0
 30 60  1  0
 31 61  1  0
 31 62  1  0
 32 63  1  0
 32 64  1  0
 33 65  1  0
 33 66  1  0
 34 67  1  0
 34 68  1  0
 35 69  1  0
 35 70  1  0
 36 71  1  0
 36 72  1  0
M  CHG  1  20   1
M  END
>  <UniqueID>  (38) 
33

>  <SMILES>  (38) 
COc1ccccc1N1CCN(C(=O)C2CCN(c3[nH+]cnc4c3nc3n4CCCCC3)CC2)CC1

>  <Energy>  (38) 
136.26553879752768

>  <Genealogy>  (38) 
COc1ccccc1N1CCN(C(=O)C2CCN(c3[nH+]cnc4c3nc3n4CCCCC3)CC2)CC1 (protonated)
COc1ccccc1N1CCN(C(=O)C2CCN(c3[nH+]cnc4c3nc3n4CCCCC3)CC2)CC1 (3D coordinates assigned)
COc1ccccc1N1CCN(C(=O)C2CCN(c3[nH+]cnc4c3nc3n4CCCCC3)CC2)CC1 (nonaromatic ring conformer: 136.26553879752768 kcal/mol)

>  <smiles>  (38) 
COc1ccccc1N1CCN(C(=O)C2CCN(c3ncnc4c3nc3n4CCCCC3)CC2)CC1

>  <score_type>  (38) 
oracle

>  <origin>  (38) 
adg

>  <m_score__min__energy>  (38) 
-5.6900000000000004

>  <m_primary>  (38) 
energy

$$$$
38:0
     RDKit          3D

 41 45  0  0  0  0  0  0  0  0999 V2000
   55.3770   29.7100   43.3800 C   0  0  0  0  0  0  0  0  0  0  0  0
   56.5800   30.2180   44.1180 C   0  0  0  0  0  0  0  0  0  0  0  0
   56.5470   31.4650   44.5790 O   0  0  0  0  0  0  0  0  0  0  0  0
   57.5480   32.0180   45.2500 C   0  0  0  0  0  0  0  0  0  0  0  0
   57.4280   33.3480   45.6980 C   0  0  0  0  0  0  0  0  0  0  0  0
   58.4950   33.8930   46.4030 C   0  0  0  0  0  0  0  0  0  0  0  0
   58.6110   35.0980   46.9060 O   0  0  0  0  0  0  0  0  0  0  0  0
   59.7690   35.2310   47.4970 N   0  0  0  0  0  0  0  0  0  0  0  0
   60.4350   34.0580   47.3630 C   0  0  0  0  0  0  0  0  0  0  0  0
   61.7680   33.7840   47.9450 C   0  0  0  0  0  0  0  0  0  0  0  0
   62.8680   33.7040   47.0750 C   0  0  0  0  0  0  0  0  0  0  0  0
   64.1390   33.3950   47.5580 C   0  0  0  0  0  0  0  0  0  0  0  0
   64.3370   33.1570   48.9160 C   0  0  0  0  0  0  0  0  0  0  0  0
   63.2620   33.2380   49.8110 C   0  0  0  0  0  0  0  0  0  0  0  0
   63.4720   33.0110   51.1810 C   0  0  0  0  0  0  0  0  0  0  0  0
   62.4120   33.1130   52.0820 C   0  0  0  0  0  0  0  0  0  0  0  0
   61.1380   33.4520   51.6280 C   0  0  0  0  0  0  0  0  0  0  0  0
   60.9100   33.6790   50.2690 C   0  0  0  0  0  0  0  0  0  0  0  0
   61.9620   33.5610   49.3340 C   0  0  0  0  0  0  0  0  0  0  0  0
   59.6280   33.1820   46.6670 C   0  0  0  0  0  0  0  0  0  0  0  0
   59.7970   31.8670   46.2370 C   0  0  0  0  0  0  0  0  0  0  0  0
   58.7340   31.2710   45.5150 C   0  0  0  0  0  0  0  0  0  0  0  0
   58.8060   29.9520   45.0410 C   0  0  0  0  0  0  0  0  0  0  0  0
   59.8350   29.2550   45.2650 O   0  0  0  0  0  0  0  0  0  0  0  0
   57.7250   29.4110   44.3180 C   0  0  0  0  0  0  0  0  0  0  0  0
   57.7660   27.9880   43.8130 C   0  0  0  0  0  0  0  0  0  0  0  0
   54.6129   29.3873   44.1025 H   0  0  0  0  0  0  0  0  0  0  0  0
   54.9686   30.5125   42.7482 H   0  0  0  0  0  0  0  0  0  0  0  0
   55.6673   28.8577   42.7482 H   0  0  0  0  0  0  0  0  0  0  0  0
   56.5203   33.9358   45.4967 H   0  0  0  0  0  0  0  0  0  0  0  0
   62.7250   33.8873   45.9999 H   0  0  0  0  0  0  0  0  0  0  0  0
   64.9897   33.3389   46.8629 H   0  0  0  0  0  0  0  0  0  0  0  0
   65.3412   32.9045   49.2873 H   0  0  0  0  0  0  0  0  0  0  0  0
   64.4770   32.7516   51.5452 H   0  0  0  0  0  0  0  0  0  0  0  0
   62.5815   32.9257   53.1526 H   0  0  0  0  0  0  0  0  0  0  0  0
   60.3079   33.5411   52.3442 H   0  0  0  0  0  0  0  0  0  0  0  0
   59.9020   33.9522   49.9237 H   0  0  0  0  0  0  0  0  0  0  0  0
   60.7224   31.3121   46.4506 H   0  0  0  0  0  0  0  0  0  0  0  0
   57.7859   27.2960   44.6678 H   0  0  0  0  0  0  0  0  0  0  0  0
   56.8732   27.7900   43.2017 H   0  0  0  0  0  0  0  0  0  0  0  0
   58.6687   27.8417   43.2017 H   0  0  0  0  0  0  0  0  0  0  0  0
  1  2  1  0
  2  3  1  0
  3  4  1  0
  4  5  2  0
  5  6  1  0
  6  7  1  0
  7  8  1  0
  8  9  2  0
  9 10  1  0
 10 11  2  0
 11 12  1  0
 12 13  2  0
 13 14  1  0
 14 15  2  0
 15 16  1  0
 16 17  2  0
 17 18  1  0
 18 19  2  0
  9 20  1  0
 20 21  1  0
 21 22  2  0
 22 23  1  0
 23 24  2  0
 23 25  1  0
 25 26  1  0
 25  2  2  0
 22  4  1  0
 20  6  2  0
 19 10  1  0
 19 14  1  0
  1 27  1  0
  1 28  1  0
  1 29  1  0
  5 30  1  0
 11 31  1  0
 12 32  1  0
 13 33  1  0
 15 34  1  0
 16 35  1  0
 17 36  1  0
 18 37  1  0
 21 38  1  0
 26 39  1  0
 26 40  1  0
 26 41  1  0
M  END
>  <UniqueID>  (39) 
34

>  <SMILES>  (39) 
Cc1oc2cc3onc(-c4cccc5ccccc45)c3cc2c(=O)c1C

>  <Energy>  (39) 
103.47203002333447

>  <Genealogy>  (39) 
Cc1oc2cc3onc(-c4cccc5ccccc45)c3cc2c(=O)c1C (3D coordinates assigned)
Cc1oc2cc3onc(-c4cccc5ccccc45)c3cc2c(=O)c1C (optimized conformer: 103.47203002333447 kcal/mol)

>  <smiles>  (39) 
Cc1oc2cc3onc(-c4cccc5ccccc45)c3cc2c(=O)c1C

>  <score_type>  (39) 
oracle

>  <origin>  (39) 
adg

>  <m_score__min__energy>  (39) 
-9.1699999999999999

>  <m_primary>  (39) 
energy

$$$$
39:0
     RDKit          3D

 49 52  0  0  0  0  0  0  0  0999 V2000
   60.0750   33.8000   51.0030 C   0  0  0  0  0  0  0  0  0  0  0  0
   61.1320   33.5940   49.9630 C   0  0  0  0  0  0  0  0  0  0  0  0
   62.3310   33.0380   50.2200 N   0  0  0  0  0  0  0  0  0  0  0  0
   63.0560   33.0620   49.1120 N   0  0  0  0  0  0  0  0  0  0  0  0
   64.4070   32.5180   49.0080 C   0  0  0  0  0  0  0  0  0  0  0  0
   62.3500   33.6670   48.1320 C   0  0  0  0  0  0  0  0  0  0  0  0
   62.8320   33.8450   46.7210 C   0  0  0  0  0  0  0  0  0  0  0  0
   61.1010   34.0110   48.6380 C   0  0  0  0  0  0  0  0  0  0  0  0
   59.9340   34.5920   47.8910 C   0  0  0  0  0  0  0  0  0  0  0  0
   59.0780   33.5250   47.3530 N   0  0  0  0  0  0  0  0  0  0  0  0
   58.4320   32.5730   48.2600 C   0  0  0  0  0  0  0  0  0  0  0  0
   59.2720   31.3460   48.4160 C   0  0  0  0  0  0  0  0  0  0  0  0
   58.9030   30.1910   49.0760 C   0  0  0  0  0  0  0  0  0  0  0  0
   59.9930   29.3510   48.9900 C   0  0  0  0  0  0  0  0  0  0  0  0
   60.9580   30.0470   48.2870 C   0  0  0  0  0  0  0  0  0  0  0  0
   60.4990   31.2330   47.9600 O   0  0  0  0  0  0  0  0  0  0  0  0
   59.1710   33.1970   45.9590 C   0  0  0  0  0  0  0  0  0  0  0  0
   59.9970   33.8120   45.2320 O   0  0  0  0  0  0  0  0  0  0  0  0
   58.2810   32.1920   45.3500 C   0  0  0  0  0  0  0  0  0  0  0  0
   56.9660   32.4040   44.9460 C   0  0  0  0  0  0  0  0  0  0  0  0
   56.4320   31.2750   44.5190 O   0  0  0  0  0  0  0  0  0  0  0  0
   57.3440   30.3380   44.6200 C   0  0  0  0  0  0  0  0  0  0  0  0
   57.2140   28.9920   44.2840 C   0  0  0  0  0  0  0  0  0  0  0  0
   58.3340   28.1590   44.4630 C   0  0  0  0  0  0  0  0  0  0  0  0
   59.5480   28.6890   44.9510 C   0  0  0  0  0  0  0  0  0  0  0  0
   59.6500   30.0540   45.2750 C   0  0  0  0  0  0  0  0  0  0  0  0
   58.5140   30.8510   45.1180 C   0  0  0  0  0  0  0  0  0  0  0  0
   60.5233   33.7126   52.0037 H   0  0  0  0  0  0  0  0  0  0  0  0
   59.6344   34.8009   50.8847 H   0  0  0  0  0  0  0  0  0  0  0  0
   59.2907   33.0378   50.8847 H   0  0  0  0  0  0  0  0  0  0  0  0
   62.6480   32.6440   51.1340 H   0  0  0  0  0  0  0  0  0  0  0  0
   64.8148   32.3538   50.0163 H   0  0  0  0  0  0  0  0  0  0  0  0
   64.3765   31.5620   48.4647 H   0  0  0  0  0  0  0  0  0  0  0  0
   65.0475   33.2283   48.4647 H   0  0  0  0  0  0  0  0  0  0  0  0
   63.8638   34.2261   46.7313 H   0  0  0  0  0  0  0  0  0  0  0  0
   62.8038   32.8771   46.1990 H   0  0  0  0  0  0  0  0  0  0  0  0
   62.1815   34.5622   46.1990 H   0  0  0  0  0  0  0  0  0  0  0  0
   59.3430   35.2185   48.5753 H   0  0  0  0  0  0  0  0  0  0  0  0
   60.3150   35.1955   47.0539 H   0  0  0  0  0  0  0  0  0  0  0  0
   58.2955   33.0458   49.2438 H   0  0  0  0  0  0  0  0  0  0  0  0
   57.4572   32.2857   47.8389 H   0  0  0  0  0  0  0  0  0  0  0  0
   57.9409   29.9842   49.5675 H   0  0  0  0  0  0  0  0  0  0  0  0
   60.0774   28.3331   49.3983 H   0  0  0  0  0  0  0  0  0  0  0  0
   61.9593   29.6652   48.0389 H   0  0  0  0  0  0  0  0  0  0  0  0
   56.4465   33.3731   44.9780 H   0  0  0  0  0  0  0  0  0  0  0  0
   56.2668   28.5935   43.8916 H   0  0  0  0  0  0  0  0  0  0  0  0
   58.2631   27.0883   44.2212 H   0  0  0  0  0  0  0  0  0  0  0  0
   60.4197   28.0304   45.0787 H   0  0  0  0  0  0  0  0  0  0  0  0
   60.5956   30.4806   45.6408 H   0  0  0  0  0  0  0  0  0  0  0  0
  1  2  1  0
  2  3  2  0
  3  4  1  0
  4  5  1  0
  4  6  1  0
  6  7  1  0
  6  8  2  0
  8  9  1  0
  9 10  1  0
 10 11  1  0
 11 12  1  0
 12 13  2  0
 13 14  1  0
 14 15  2  0
 15 16  1  0
 10 17  1  0
 17 18  2  0
 17 19  1  0
 19 20  2  0
 20 21  1  0
 21 22  1  0
 22 23  2  0
 23 24  1  0
 24 25  2  0
 25 26  1  0
 26 27  2  0
  8  2  1  0
 16 12  1  0
 27 19  1  0
 27 22  1  0
  1 28  1  0
  1 29  1  0
  1 30  1  0
  3 31  1  0
  5 32  1  0
  5 33  1  0
  5 34  1  0
  7 35  1  0
  7 36  1  0
  7 37  1  0
  9 38  1  0
  9 39  1  0
 11 40  1  0
 11 41  1  0
 13 42  1  0
 14 43  1  0
 15 44  1  0
 20 45  1  0
 23 46  1  0
 24 47  1  0
 25 48  1  0
 26 49  1  0
M  CHG  1   3   1
M  END
>  <UniqueID>  (40) 
35

>  <SMILES>  (40) 
Cc1[nH+]n(C)c(C)c1CN(Cc1ccco1)C(=O)c1coc2ccccc12

>  <Energy>  (40) 
139.61217025803475

>  <Genealogy>  (40) 
Cc1[nH+]n(C)c(C)c1CN(Cc1ccco1)C(=O)c1coc2ccccc12 (protonated)
Cc1[nH+]n(C)c(C)c1CN(Cc1ccco1)C(=O)c1coc2ccccc12 (3D coordinates assigned)
Cc1[nH+]n(C)c(C)c1CN(Cc1ccco1)C(=O)c1coc2ccccc12 (optimized conformer: 139.61217025803475 kcal/mol)

>  <smiles>  (40) 
Cc1nn(C)c(C)c1CN(Cc1ccco1)C(=O)c1coc2ccccc12

>  <score_type>  (40) 
oracle

>  <origin>  (40) 
adg

>  <m_score__min__energy>  (40) 
-6.6200000000000001

>  <m_primary>  (40) 
energy

$$$$
40:0
     RDKit          3D

 65 68  0  0  0  0  0  0  0  0999 V2000
   57.0280   30.9930   43.4890 C   0  0  0  0  0  0  0  0  0  0  0  0
   57.6120   30.1870   44.5610 N   0  0  0  0  0  0  0  0  0  0  0  0
   58.7900   30.6870   45.2680 C   0  0  0  0  0  0  0  0  0  0  0  0
   59.0160   29.9170   46.5410 C   0  0  0  0  0  0  0  0  0  0  0  0
   58.8990   30.5650   47.7840 C   0  0  0  0  0  0  0  0  0  0  0  0
   59.2180   29.8940   48.9780 C   0  0  0  0  0  0  0  0  0  0  0  0
   59.0620   30.5520   50.2970 C   0  0  0  0  0  0  0  0  0  0  0  0
   57.9020   30.8170   50.7210 O   0  0  0  0  0  0  0  0  0  0  0  0
   60.2060   30.9310   51.0800 N   0  0  0  0  0  0  0  0  0  0  0  0
   60.0840   31.7460   52.2870 C   0  0  0  0  0  0  0  0  0  0  0  0
   61.1470   32.8420   52.2840 C   0  0  0  0  0  0  0  0  0  0  0  0
   61.9550   32.7470   51.0740 N   0  0  0  0  0  0  0  0  0  0  0  0
   62.1470   33.8130   50.1350 C   0  0  0  0  0  0  0  0  0  0  0  0
   62.9620   34.7300   50.4190 O   0  0  0  0  0  0  0  0  0  0  0  0
   61.4580   33.8460   48.8280 C   0  0  0  0  0  0  0  0  0  0  0  0
   62.2100   33.9340   47.6470 C   0  0  0  0  0  0  0  0  0  0  0  0
   61.5770   33.9650   46.4030 C   0  0  0  0  0  0  0  0  0  0  0  0
   60.1790   33.9140   46.3210 C   0  0  0  0  0  0  0  0  0  0  0  0
   59.5320   33.9340   45.0750 C   0  0  0  0  0  0  0  0  0  0  0  0
   58.1360   33.8840   45.0080 C   0  0  0  0  0  0  0  0  0  0  0  0
   57.3790   33.8180   46.1790 C   0  0  0  0  0  0  0  0  0  0  0  0
   58.0100   33.8020   47.4260 C   0  0  0  0  0  0  0  0  0  0  0  0
   59.4110   33.8480   47.5080 C   0  0  0  0  0  0  0  0  0  0  0  0
   60.0560   33.8310   48.7540 C   0  0  0  0  0  0  0  0  0  0  0  0
   59.7110   28.5800   48.9070 C   0  0  0  0  0  0  0  0  0  0  0  0
   59.8240   27.9310   47.6770 C   0  0  0  0  0  0  0  0  0  0  0  0
   59.4390   28.5760   46.4960 C   0  0  0  0  0  0  0  0  0  0  0  0
   59.4750   27.8500   45.2570 N   0  0  0  0  0  0  0  0  0  0  0  0
   58.3050   27.7220   44.3780 C   0  0  1  0  0  0  0  0  0  0  0  0
   57.6500   26.3280   44.5020 C   0  0  0  0  0  0  0  0  0  0  0  0
   57.6990   25.7340   45.9230 C   0  0  0  0  0  0  0  0  0  0  0  0
   56.3370   25.2720   46.4780 C   0  0  0  0  0  0  0  0  0  0  0  0
   55.2670   26.2380   46.2310 N   0  0  0  0  0  0  0  0  0  0  0  0
   57.2810   28.7930   44.6500 C   0  0  0  0  0  0  0  0  0  0  0  0
   56.1400   28.4520   45.0650 O   0  0  0  0  0  0  0  0  0  0  0  0
   56.4357   31.8105   43.9260 H   0  0  0  0  0  0  0  0  0  0  0  0
   57.8319   31.4143   42.8675 H   0  0  0  0  0  0  0  0  0  0  0  0
   56.3773   30.3603   42.8675 H   0  0  0  0  0  0  0  0  0  0  0  0
   59.6723   30.5793   44.6199 H   0  0  0  0  0  0  0  0  0  0  0  0
   58.6271   31.7452   45.5202 H   0  0  0  0  0  0  0  0  0  0  0  0
   58.5540   31.6088   47.8225 H   0  0  0  0  0  0  0  0  0  0  0  0
   61.1670   30.7670   50.7100 H   0  0  0  0  0  0  0  0  0  0  0  0
   59.0855   32.2065   52.3167 H   0  0  0  0  0  0  0  0  0  0  0  0
   60.2254   31.1070   53.1711 H   0  0  0  0  0  0  0  0  0  0  0  0
   60.6564   33.8259   52.3185 H   0  0  0  0  0  0  0  0  0  0  0  0
   61.7963   32.7189   53.1634 H   0  0  0  0  0  0  0  0  0  0  0  0
   63.3077   33.9790   47.7016 H   0  0  0  0  0  0  0  0  0  0  0  0
   62.1778   34.0297   45.4839 H   0  0  0  0  0  0  0  0  0  0  0  0
   60.1243   33.9891   44.1497 H   0  0  0  0  0  0  0  0  0  0  0  0
   57.6331   33.8967   44.0298 H   0  0  0  0  0  0  0  0  0  0  0  0
   56.2813   33.7784   46.1201 H   0  0  0  0  0  0  0  0  0  0  0  0
   57.4078   33.7533   48.3452 H   0  0  0  0  0  0  0  0  0  0  0  0
   59.4598   33.8058   49.6781 H   0  0  0  0  0  0  0  0  0  0  0  0
   60.0102   28.0589   49.8284 H   0  0  0  0  0  0  0  0  0  0  0  0
   60.2185   26.9050   47.6352 H   0  0  0  0  0  0  0  0  0  0  0  0
   60.2490   27.1610   45.1190 H   0  0  0  0  0  0  0  0  0  0  0  0
   58.6729   27.8467   43.3489 H   0  0  0  0  0  0  0  0  0  0  0  0
   56.5959   26.4135   44.1995 H   0  0  0  0  0  0  0  0  0  0  0  0
   58.2241   25.6490   43.8544 H   0  0  0  0  0  0  0  0  0  0  0  0
   58.3746   24.8660   45.9079 H   0  0  0  0  0  0  0  0  0  0  0  0
   58.0449   26.5419   46.5845 H   0  0  0  0  0  0  0  0  0  0  0  0
   56.0675   24.3190   45.9993 H   0  0  0  0  0  0  0  0  0  0  0  0
   56.4423   25.1660   47.5678 H   0  0  0  0  0  0  0  0  0  0  0  0
   55.1820   26.4000   45.2010 H   0  0  0  0  0  0  0  0  0  0  0  0
   55.5060   27.1480   46.6900 H   0  0  0  0  0  0  0  0  0  0  0  0
  1  2  1  0
  2  3  1  0
  3  4  1  0
  4  5  2  0
  5  6  1  0
  6  7  1  0
  7  8  2  0
  7  9  1  0
  9 10  1  0
 10 11  1  0
 11 12  1  0
 12 13  1  0
 13 14  2  0
 13 15  1  0
 15 16  2  0
 16 17  1  0
 17 18  2  0
 18 19  1  0
 19 20  2  0
 20 21  1  0
 21 22  2  0
 22 23  1  0
 23 24  2  0
  6 25  2  0
 25 26  1  0
 26 27  2  0
 27 28  1  0
 28 29  1  0
 29 30  1  0
 30 31  1  0
 31 32  1  0
 32 33  1  0
 29 34  1  0
 34 35  2  0
 34  2  1  0
 27  4  1  0
 24 15  1  0
 23 18  1  0
  1 36  1  0
  1 37  1  0
  1 38  1  0
  3 39  1  0
  3 40  1  0
  5 41  1  0
  9 42  1  0
 10 43  1  0
 10 44  1  0
 11 45  1  0
 11 46  1  0
 16 47  1  0
 17 48  1  0
 19 49  1  0
 20 50  1  0
 21 51  1  0
 22 52  1  0
 24 53  1  0
 25 54  1  0
 26 55  1  0
 28 56  1  0
 29 57  1  6
 30 58  1  0
 30 59  1  0
 31 60  1  0
 31 61  1  0
 32 62  1  0
 32 63  1  0
 33 64  1  0
 33 65  1  0
M  CHG  1  12  -1
M  END
>  <UniqueID>  (41) 
36

>  <SMILES>  (41) 
CN1Cc2cc(C(=O)NCC[N-]C(=O)c3ccc4ccccc4c3)ccc2N[C@@H](CCCN)C1=O

>  <Energy>  (41) 
78.59111920157365

>  <Genealogy>  (41) 
CN1Cc2cc(C(=O)NCC[N-]C(=O)c3ccc4ccccc4c3)ccc2NC(CCCN)C1=O (protonated)
CN1Cc2cc(C(=O)NCC[N-]C(=O)c3ccc4ccccc4c3)ccc2N[C@@H](CCCN)C1=O (chirality)
CN1Cc2cc(C(=O)NCC[N-]C(=O)c3ccc4ccccc4c3)ccc2N[C@@H](CCCN)C1=O (3D coordinates assigned)
CN1Cc2cc(C(=O)NCC[N-]C(=O)c3ccc4ccccc4c3)ccc2N[C@@H](CCCN)C1=O (nonaromatic ring conformer: 78.59111920157365 kcal/mol)

>  <smiles>  (41) 
CN1Cc2cc(C(=O)NCCNC(=O)c3ccc4ccccc4c3)ccc2NC(CCCN)C1=O

>  <score_type>  (41) 
oracle

>  <origin>  (41) 
adg

>  <m_score__min__energy>  (41) 
-8.7300000000000004

>  <m_primary>  (41) 
energy

$$$$
41:0
     RDKit          3D

 22 23  0  0  0  0  0  0  0  0999 V2000
   55.5130   24.0080   43.9160 N   0  0  0  0  0  0  0  0  0  0  0  0
   56.4300   22.9320   43.7190 C   0  0  0  0  0  0  0  0  0  0  0  0
   56.0550   21.8940   43.1130 O   0  0  0  0  0  0  0  0  0  0  0  0
   57.8420   23.0450   44.2040 C   0  0  0  0  0  0  0  0  0  0  0  0
   57.8830   23.2550   46.0160 S   0  0  0  0  0  0  0  0  0  0  0  0
   57.0440   24.8370   45.9950 C   0  0  0  0  0  0  0  0  0  0  0  0
   55.8630   25.0730   46.5960 N   0  0  0  0  0  0  0  0  0  0  0  0
   55.5750   26.3430   46.3580 N   0  0  0  0  0  0  0  0  0  0  0  0
   56.5930   26.8270   45.6200 C   0  0  0  0  0  0  0  0  0  0  0  0
   56.6700   28.2070   45.1350 C   0  0  0  0  0  0  0  0  0  0  0  0
   57.8300   28.8940   44.8410 C   0  0  0  0  0  0  0  0  0  0  0  0
   57.4220   30.1440   44.4240 C   0  0  0  0  0  0  0  0  0  0  0  0
   56.0420   30.1390   44.4900 C   0  0  0  0  0  0  0  0  0  0  0  0
   55.6240   28.9700   44.9180 O   0  0  0  0  0  0  0  0  0  0  0  0
   57.5000   25.9080   45.3950 O   0  0  0  0  0  0  0  0  0  0  0  0
   55.8120   24.8800   44.4050 H   0  0  0  0  0  0  0  0  0  0  0  0
   54.5310   23.9340   43.5670 H   0  0  0  0  0  0  0  0  0  0  0  0
   58.3915   22.1314   43.9333 H   0  0  0  0  0  0  0  0  0  0  0  0
   58.3094   23.9230   43.7343 H   0  0  0  0  0  0  0  0  0  0  0  0
   58.8624   28.5231   44.9221 H   0  0  0  0  0  0  0  0  0  0  0  0
   58.0655   30.9766   44.1036 H   0  0  0  0  0  0  0  0  0  0  0  0
   55.3920   30.9857   44.2244 H   0  0  0  0  0  0  0  0  0  0  0  0
  1  2  1  0
  2  3  2  0
  2  4  1  0
  4  5  1  0
  5  6  1  0
  6  7  2  0
  7  8  1  0
  8  9  2  0
  9 10  1  0
 10 11  2  0
 11 12  1  0
 12 13  2  0
 13 14  1  0
  9 15  1  0
 15  6  1  0
 14 10  1  0
  1 16  1  0
  1 17  1  0
  4 18  1  0
  4 19  1  0
 11 20  1  0
 12 21  1  0
 13 22  1  0
M  END
>  <UniqueID>  (42) 
37

>  <SMILES>  (42) 
NC(=O)CSc1nnc(-c2ccco2)o1

>  <Energy>  (42) 
75.55227380218929

>  <Genealogy>  (42) 
NC(=O)CSc1nnc(-c2ccco2)o1 (3D coordinates assigned)
NC(=O)CSc1nnc(-c2ccco2)o1 (optimized conformer: 75.55227380218929 kcal/mol)

>  <smiles>  (42) 
NC(=O)CSc1nnc(-c2ccco2)o1

>  <score_type>  (42) 
oracle

>  <origin>  (42) 
adg

>  <m_score__min__energy>  (42) 
-6.3499999999999996

>  <m_primary>  (42) 
energy

$$$$
42:0
     RDKit          3D

 60 63  0  0  0  0  0  0  0  0999 V2000
   64.1690   33.4290   48.1050 C   0  0  0  0  0  0  0  0  0  0  0  0
   62.7950   33.5900   48.7020 C   0  0  0  0  0  0  0  0  0  0  0  0
   62.6710   33.6820   50.1000 C   0  0  0  0  0  0  0  0  0  0  0  0
   61.4180   33.8230   50.6930 C   0  0  0  0  0  0  0  0  0  0  0  0
   60.2720   33.8680   49.9040 C   0  0  0  0  0  0  0  0  0  0  0  0
   60.3660   33.7860   48.5090 C   0  0  0  0  0  0  0  0  0  0  0  0
   59.1540   33.7890   47.7370 N   0  0  0  0  0  0  0  0  0  0  0  0
   58.2000   32.6820   47.8580 C   0  0  0  0  0  0  0  0  0  0  0  0
   57.9600   32.0090   46.4880 C   0  0  0  0  0  0  0  0  0  0  0  0
   58.3660   32.8650   45.3430 N   0  0  0  0  0  0  0  0  0  0  0  0
   57.7490   32.4030   44.0820 C   0  0  0  0  0  0  0  0  0  0  0  0
   57.2100   31.0120   44.2270 C   0  0  0  0  0  0  0  0  0  0  0  0
   55.9910   30.8410   44.4980 O   0  0  0  0  0  0  0  0  0  0  0  0
   58.0900   29.8920   44.0490 N   0  0  0  0  0  0  0  0  0  0  0  0
   58.2540   28.7840   44.9450 C   0  0  0  0  0  0  0  0  0  0  0  0
   59.3330   28.7020   45.8430 C   0  0  0  0  0  0  0  0  0  0  0  0
   59.4710   27.5890   46.6760 C   0  0  0  0  0  0  0  0  0  0  0  0
   58.5490   26.5440   46.6110 C   0  0  0  0  0  0  0  0  0  0  0  0
   57.4730   26.6010   45.7090 C   0  0  0  0  0  0  0  0  0  0  0  0
   56.5110   25.4780   45.5990 C   0  0  0  0  0  0  0  0  0  0  0  0
   55.3810   25.5870   46.1520 O   0  0  0  0  0  0  0  0  0  0  0  0
   56.8280   24.2340   44.8560 C   0  0  0  0  0  0  0  0  0  0  0  0
   56.0140   23.8300   43.7820 C   0  0  0  0  0  0  0  0  0  0  0  0
   56.2980   22.6530   43.0830 C   0  0  0  0  0  0  0  0  0  0  0  0
   57.3900   21.8620   43.4550 C   0  0  0  0  0  0  0  0  0  0  0  0
   58.1930   22.2440   44.5330 C   0  0  0  0  0  0  0  0  0  0  0  0
   57.9160   23.4220   45.2340 C   0  0  0  0  0  0  0  0  0  0  0  0
   57.3470   27.7190   44.8670 C   0  0  0  0  0  0  0  0  0  0  0  0
   58.0370   34.2800   45.5960 C   0  0  0  0  0  0  0  0  0  0  0  0
   58.9510   34.8110   46.7030 C   0  0  0  0  0  0  0  0  0  0  0  0
   61.6350   33.6810   47.8890 C   0  0  0  0  0  0  0  0  0  0  0  0
   61.7420   33.6270   46.3830 C   0  0  0  0  0  0  0  0  0  0  0  0
   64.9115   33.3420   48.9119 H   0  0  0  0  0  0  0  0  0  0  0  0
   64.1948   32.5217   47.4836 H   0  0  0  0  0  0  0  0  0  0  0  0
   64.4038   34.3058   47.4836 H   0  0  0  0  0  0  0  0  0  0  0  0
   63.5712   33.6423   50.7309 H   0  0  0  0  0  0  0  0  0  0  0  0
   61.3342   33.8989   51.7872 H   0  0  0  0  0  0  0  0  0  0  0  0
   59.2853   33.9687   50.3797 H   0  0  0  0  0  0  0  0  0  0  0  0
   58.6008   31.9363   48.5603 H   0  0  0  0  0  0  0  0  0  0  0  0
   57.2433   33.0811   48.2260 H   0  0  0  0  0  0  0  0  0  0  0  0
   58.5390   31.0745   46.4500 H   0  0  0  0  0  0  0  0  0  0  0  0
   56.8793   31.8257   46.3956 H   0  0  0  0  0  0  0  0  0  0  0  0
   56.9259   33.0818   43.8142 H   0  0  0  0  0  0  0  0  0  0  0  0
   58.5178   32.4012   43.2953 H   0  0  0  0  0  0  0  0  0  0  0  0
   60.0706   29.5167   45.8897 H   0  0  0  0  0  0  0  0  0  0  0  0
   60.3097   27.5364   47.3858 H   0  0  0  0  0  0  0  0  0  0  0  0
   58.6650   25.6706   47.2695 H   0  0  0  0  0  0  0  0  0  0  0  0
   55.1490   24.4438   43.4905 H   0  0  0  0  0  0  0  0  0  0  0  0
   55.6616   22.3485   42.2390 H   0  0  0  0  0  0  0  0  0  0  0  0
   57.6165   20.9400   42.8994 H   0  0  0  0  0  0  0  0  0  0  0  0
   59.0456   21.6162   44.8311 H   0  0  0  0  0  0  0  0  0  0  0  0
   58.5498   23.7159   46.0837 H   0  0  0  0  0  0  0  0  0  0  0  0
   56.5252   27.7585   44.1369 H   0  0  0  0  0  0  0  0  0  0  0  0
   58.1914   34.8650   44.6773 H   0  0  0  0  0  0  0  0  0  0  0  0
   56.9854   34.3685   45.9064 H   0  0  0  0  0  0  0  0  0  0  0  0
   59.9239   35.0848   46.2688 H   0  0  0  0  0  0  0  0  0  0  0  0
   58.4788   35.6922   47.1618 H   0  0  0  0  0  0  0  0  0  0  0  0
   62.6909   33.1481   46.0998 H   0  0  0  0  0  0  0  0  0  0  0  0
   60.9018   33.0450   45.9763 H   0  0  0  0  0  0  0  0  0  0  0  0
   61.7112   34.6486   45.9763 H   0  0  0  0  0  0  0  0  0  0  0  0
  1  2  1  0
  2  3  2  0
  3  4  1  0
  4  5  2  0
  5  6  1  0
  6  7  1  0
  7  8  1  0
  8  9  1  0
  9 10  1  0
 10 11  1  0
 11 12  1  0
 12 13  2  0
 12 14  1  0
 14 15  1  0
 15 16  2  0
 16 17  1  0
 17 18  2  0
 18 19  1  0
 19 20  1  0
 20 21  2  0
 20 22  1  0
 22 23  2  0
 23 24  1  0
 24 25  2  0
 25 26  1  0
 26 27  2  0
 19 28  2  0
 10 29  1  0
 29 30  1  0
  6 31  2  0
 31 32  1  0
 31  2  1  0
 30  7  1  0
 28 15  1  0
 27 22  1  0
  1 33  1  0
  1 34  1  0
  1 35  1  0
  3 36  1  0
  4 37  1  0
  5 38  1  0
  8 39  1  0
  8 40  1  0
  9 41  1  0
  9 42  1  0
 11 43  1  0
 11 44  1  0
 16 45  1  0
 17 46  1  0
 18 47  1  0
 23 48  1  0
 24 49  1  0
 25 50  1  0
 26 51  1  0
 27 52  1  0
 28 53  1  0
 29 54  1  0
 29 55  1  0
 30 56  1  0
 30 57  1  0
 32 58  1  0
 32 59  1  0
 32 60  1  0
M  CHG  1  14  -1
M  END
>  <UniqueID>  (43) 
38

>  <SMILES>  (43) 
Cc1cccc(N2CCN(CC(=O)[N-]c3cccc(C(=O)c4ccccc4)c3)CC2)c1C

>  <Energy>  (43) 
85.75273005954328

>  <Genealogy>  (43) 
Cc1cccc(N2CCN(CC(=O)[N-]c3cccc(C(=O)c4ccccc4)c3)CC2)c1C (protonated)
Cc1cccc(N2CCN(CC(=O)[N-]c3cccc(C(=O)c4ccccc4)c3)CC2)c1C (3D coordinates assigned)
Cc1cccc(N2CCN(CC(=O)[N-]c3cccc(C(=O)c4ccccc4)c3)CC2)c1C (nonaromatic ring conformer: 85.75273005954328 kcal/mol)

>  <smiles>  (43) 
Cc1cccc(N2CCN(CC(=O)Nc3cccc(C(=O)c4ccccc4)c3)CC2)c1C

>  <score_type>  (43) 
oracle

>  <origin>  (43) 
adg

>  <m_score__min__energy>  (43) 
-12.18

>  <m_primary>  (43) 
energy

$$$$
43:0
     RDKit          3D

 50 53  0  0  0  0  0  0  0  0999 V2000
   64.6980   32.6160   49.6570 C   0  0  0  0  0  0  0  0  0  0  0  0
   63.5500   33.5960   49.9420 C   0  0  0  0  0  0  0  0  0  0  0  0
   62.8030   34.0050   48.7320 N   0  0  0  0  0  0  0  0  0  0  0  0
   63.0000   33.0780   47.5920 C   0  0  0  0  0  0  0  0  0  0  0  0
   63.3940   33.8620   46.3460 C   0  0  0  0  0  0  0  0  0  0  0  0
   61.3780   34.2850   49.0170 C   0  0  0  0  0  0  0  0  0  0  0  0
   60.4880   33.4120   48.1730 C   0  0  0  0  0  0  0  0  0  0  0  0
   60.2510   32.0830   48.5480 C   0  0  0  0  0  0  0  0  0  0  0  0
   59.3990   31.2770   47.7890 C   0  0  0  0  0  0  0  0  0  0  0  0
   58.7710   31.7830   46.6370 C   0  0  0  0  0  0  0  0  0  0  0  0
   57.8600   30.9120   45.8490 C   0  0  0  0  0  0  0  0  0  0  0  0
   57.7640   29.5300   46.0930 C   0  0  0  0  0  0  0  0  0  0  0  0
   56.8880   28.7420   45.3270 C   0  0  0  0  0  0  0  0  0  0  0  0
   56.7750   27.2870   45.5710 C   0  0  0  0  0  0  0  0  0  0  0  0
   55.6030   26.6840   45.9100 N   0  0  0  0  0  0  0  0  0  0  0  0
   55.9570   25.3960   46.0280 C   0  0  0  0  0  0  0  0  0  0  0  0
   55.1440   24.3140   46.3580 C   0  0  0  0  0  0  0  0  0  0  0  0
   55.7440   23.0410   46.4150 C   0  0  0  0  0  0  0  0  0  0  0  0
   57.1230   22.8880   46.1430 C   0  0  0  0  0  0  0  0  0  0  0  0
   57.9120   24.0070   45.8140 C   0  0  0  0  0  0  0  0  0  0  0  0
   57.2840   25.2490   45.7660 C   0  0  0  0  0  0  0  0  0  0  0  0
   57.8320   26.4360   45.4740 N   0  0  0  0  0  0  0  0  0  0  0  0
   56.1160   29.3590   44.3300 C   0  0  0  0  0  0  0  0  0  0  0  0
   56.2270   30.7340   44.1250 C   0  0  0  0  0  0  0  0  0  0  0  0
   57.0820   31.4700   44.8790 N   0  0  0  0  0  0  0  0  0  0  0  0
   59.0000   33.1240   46.2740 C   0  0  0  0  0  0  0  0  0  0  0  0
   59.8530   33.9290   47.0340 C   0  0  0  0  0  0  0  0  0  0  0  0
   65.1184   32.2571   50.6081 H   0  0  0  0  0  0  0  0  0  0  0  0
   64.3157   31.7614   49.0794 H   0  0  0  0  0  0  0  0  0  0  0  0
   65.4820   33.1276   49.0794 H   0  0  0  0  0  0  0  0  0  0  0  0
   62.8471   33.1146   50.6379 H   0  0  0  0  0  0  0  0  0  0  0  0
   64.0014   34.5060   50.3641 H   0  0  0  0  0  0  0  0  0  0  0  0
   63.7970   32.3611   47.8387 H   0  0  0  0  0  0  0  0  0  0  0  0
   62.0610   32.5389   47.3980 H   0  0  0  0  0  0  0  0  0  0  0  0
   63.8696   34.8083   46.6433 H   0  0  0  0  0  0  0  0  0  0  0  0
   64.1009   33.2685   45.7476 H   0  0  0  0  0  0  0  0  0  0  0  0
   62.4959   34.0751   45.7476 H   0  0  0  0  0  0  0  0  0  0  0  0
   61.1761   34.0868   50.0800 H   0  0  0  0  0  0  0  0  0  0  0  0
   61.1691   35.3387   48.7804 H   0  0  0  0  0  0  0  0  0  0  0  0
   60.7382   31.6722   49.4446 H   0  0  0  0  0  0  0  0  0  0  0  0
   59.2176   30.2363   48.0955 H   0  0  0  0  0  0  0  0  0  0  0  0
   58.3739   29.0666   46.8825 H   0  0  0  0  0  0  0  0  0  0  0  0
   54.0724   24.4489   46.5665 H   0  0  0  0  0  0  0  0  0  0  0  0
   55.1364   22.1610   46.6726 H   0  0  0  0  0  0  0  0  0  0  0  0
   57.5820   21.8894   46.1886 H   0  0  0  0  0  0  0  0  0  0  0  0
   58.9865   23.9037   45.6024 H   0  0  0  0  0  0  0  0  0  0  0  0
   55.4277   28.7615   43.7142 H   0  0  0  0  0  0  0  0  0  0  0  0
   55.6195   31.2235   43.3496 H   0  0  0  0  0  0  0  0  0  0  0  0
   58.5037   33.5413   45.3854 H   0  0  0  0  0  0  0  0  0  0  0  0
   60.0274   34.9738   46.7374 H   0  0  0  0  0  0  0  0  0  0  0  0
  1  2  1  0
  2  3  1  0
  3  4  1  0
  4  5  1  0
  3  6  1  0
  6  7  1  0
  7  8  2  0
  8  9  1  0
  9 10  2  0
 10 11  1  0
 11 12  2  0
 12 13  1  0
 13 14  1  0
 14 15  2  0
 15 16  1  0
 16 17  2  0
 17 18  1  0
 18 19  2  0
 19 20  1  0
 20 21  2  0
 21 22  1  0
 13 23  2  0
 23 24  1  0
 24 25  2  0
 10 26  1  0
 26 27  2  0
 27  7  1  0
 25 11  1  0
 22 14  1  0
 21 16  1  0
  1 28  1  0
  1 29  1  0
  1 30  1  0
  2 31  1  0
  2 32  1  0
  4 33  1  0
  4 34  1  0
  5 35  1  0
  5 36  1  0
  5 37  1  0
  6 38  1  0
  6 39  1  0
  8 40  1  0
  9 41  1  0
 12 42  1  0
 17 43  1  0
 18 44  1  0
 19 45  1  0
 20 46  1  0
 23 47  1  0
 24 48  1  0
 26 49  1  0
 27 50  1  0
M  CHG  1  22  -1
M  END
>  <UniqueID>  (44) 
39

>  <SMILES>  (44) 
CCN(CC)Cc1ccc(-c2cc(-c3nc4ccccc4[n-]3)ccn2)cc1

>  <Energy>  (44) 
94.55254026172182

>  <Genealogy>  (44) 
CCN(CC)Cc1ccc(-c2cc(-c3nc4ccccc4[n-]3)ccn2)cc1 (protonated)
CCN(CC)Cc1ccc(-c2cc(-c3nc4ccccc4[n-]3)ccn2)cc1 (3D coordinates assigned)
CCN(CC)Cc1ccc(-c2cc(-c3nc4ccccc4[n-]3)ccn2)cc1 (optimized conformer: 94.55254026172182 kcal/mol)

>  <smiles>  (44) 
CCN(CC)Cc1ccc(-c2cc(-c3nc4ccccc4[nH]3)ccn2)cc1

>  <score_type>  (44) 
oracle

>  <origin>  (44) 
adg

>  <m_score__min__energy>  (44) 
-9.7699999999999996

>  <m_primary>  (44) 
energy

$$$$
44:0
     RDKit          3D

 50 53  0  0  0  0  0  0  0  0999 V2000
   58.9080   34.6240   44.4920 C   0  0  0  0  0  0  0  0  0  0  0  0
   58.1900   33.3070   44.3600 C   0  0  0  0  0  0  0  0  0  0  0  0
   58.3030   32.5840   43.1610 C   0  0  0  0  0  0  0  0  0  0  0  0
   57.6780   31.3460   43.0210 C   0  0  0  0  0  0  0  0  0  0  0  0
   56.9490   30.8260   44.0870 C   0  0  0  0  0  0  0  0  0  0  0  0
   56.8460   31.5270   45.2440 N   0  0  0  0  0  0  0  0  0  0  0  0
   57.4310   32.7460   45.4200 C   0  0  0  0  0  0  0  0  0  0  0  0
   57.2390   33.4440   46.7540 C   0  0  0  0  0  0  0  0  0  0  0  0
   58.4420   33.3990   47.6160 N   0  0  0  0  0  0  0  0  0  0  0  0
   59.2630   34.6370   47.5810 C   0  0  0  0  0  0  0  0  0  0  0  0
   60.6760   34.4080   47.0260 C   0  0  0  0  0  0  0  0  0  0  0  0
   61.3330   33.3160   47.7540 N   0  0  0  0  0  0  0  0  0  0  0  0
   62.7720   33.2290   47.7520 C   0  0  0  0  0  0  0  0  0  0  0  0
   63.4210   33.7220   46.7900 O   0  0  0  0  0  0  0  0  0  0  0  0
   63.5080   32.5660   48.8490 C   0  0  0  0  0  0  0  0  0  0  0  0
   62.9580   31.4510   49.5260 C   0  0  0  0  0  0  0  0  0  0  0  0
   63.6580   30.8330   50.5740 C   0  0  0  0  0  0  0  0  0  0  0  0
   64.8960   31.3640   50.9250 C   0  0  0  0  0  0  0  0  0  0  0  0
   65.7100   30.9150   51.8990 N   0  0  0  0  0  0  0  0  0  0  0  0
   66.7790   31.7440   51.8690 C   0  0  0  0  0  0  0  0  0  0  0  0
   66.5860   32.6860   50.8680 C   0  0  0  0  0  0  0  0  0  0  0  0
   67.5220   33.7890   50.4890 C   0  0  0  0  0  0  0  0  0  0  0  0
   65.3980   32.4340   50.2860 N   0  0  0  0  0  0  0  0  0  0  0  0
   64.7590   33.0640   49.2660 C   0  0  0  0  0  0  0  0  0  0  0  0
   60.5220   32.1970   48.2540 C   0  0  0  0  0  0  0  0  0  0  0  0
   59.1910   32.1290   47.5010 C   0  0  0  0  0  0  0  0  0  0  0  0
   59.0393   34.8649   45.5572 H   0  0  0  0  0  0  0  0  0  0  0  0
   59.8932   34.5547   44.0076 H   0  0  0  0  0  0  0  0  0  0  0  0
   58.3160   35.4145   44.0076 H   0  0  0  0  0  0  0  0  0  0  0  0
   58.8887   32.9976   42.3268 H   0  0  0  0  0  0  0  0  0  0  0  0
   57.7599   30.7857   42.0780 H   0  0  0  0  0  0  0  0  0  0  0  0
   56.4566   29.8470   43.9912 H   0  0  0  0  0  0  0  0  0  0  0  0
   56.9848   34.4972   46.5638 H   0  0  0  0  0  0  0  0  0  0  0  0
   56.4358   32.9140   47.2869 H   0  0  0  0  0  0  0  0  0  0  0  0
   58.7534   35.3770   46.9464 H   0  0  0  0  0  0  0  0  0  0  0  0
   59.3711   34.9879   48.6179 H   0  0  0  0  0  0  0  0  0  0  0  0
   60.6100   34.1464   45.9596 H   0  0  0  0  0  0  0  0  0  0  0  0
   61.2650   35.3287   47.1498 H   0  0  0  0  0  0  0  0  0  0  0  0
   61.9721   31.0650   49.2277 H   0  0  0  0  0  0  0  0  0  0  0  0
   63.2431   29.9601   51.0993 H   0  0  0  0  0  0  0  0  0  0  0  0
   65.5560   30.1060   52.5410 H   0  0  0  0  0  0  0  0  0  0  0  0
   67.6566   31.6817   52.5293 H   0  0  0  0  0  0  0  0  0  0  0  0
   67.9216   34.2598   51.3993 H   0  0  0  0  0  0  0  0  0  0  0  0
   68.3513   33.3781   49.8945 H   0  0  0  0  0  0  0  0  0  0  0  0
   66.9817   34.5404   49.8945 H   0  0  0  0  0  0  0  0  0  0  0  0
   65.2071   33.9417   48.7773 H   0  0  0  0  0  0  0  0  0  0  0  0
   61.0715   31.2557   48.1058 H   0  0  0  0  0  0  0  0  0  0  0  0
   60.3206   32.3506   49.3244 H   0  0  0  0  0  0  0  0  0  0  0  0
   59.3906   31.9259   46.4385 H   0  0  0  0  0  0  0  0  0  0  0  0
   58.5828   31.3264   47.9436 H   0  0  0  0  0  0  0  0  0  0  0  0
  1  2  1  0
  2  3  2  0
  3  4  1  0
  4  5  2  0
  5  6  1  0
  6  7  2  0
  7  8  1  0
  8  9  1  0
  9 10  1  0
 10 11  1  0
 11 12  1  0
 12 13  1  0
 13 14  2  0
 13 15  1  0
 15 16  1  0
 16 17  2  0
 17 18  1  0
 18 19  2  0
 19 20  1  0
 20 21  2  0
 21 22  1  0
 21 23  1  0
 23 24  1  0
 12 25  1  0
 25 26  1  0
  7  2  1  0
 26  9  1  0
 24 15  2  0
 23 18  1  0
  1 27  1  0
  1 28  1  0
  1 29  1  0
  3 30  1  0
  4 31  1  0
  5 32  1  0
  8 33  1  0
  8 34  1  0
 10 35  1  0
 10 36  1  0
 11 37  1  0
 11 38  1  0
 16 39  1  0
 17 40  1  0
 19 41  1  0
 20 42  1  0
 22 43  1  0
 22 44  1  0
 22 45  1  0
 24 46  1  0
 25 47  1  0
 25 48  1  0
 26 49  1  0
 26 50  1  0
M  CHG  1  19   1
M  END
>  <UniqueID>  (45) 
40

>  <SMILES>  (45) 
Cc1cccnc1CN1CCN(C(=O)c2ccc3[nH+]cc(C)n3c2)CC1

>  <Energy>  (45) 
103.369171386807

>  <Genealogy>  (45) 
Cc1cccnc1CN1CCN(C(=O)c2ccc3[nH+]cc(C)n3c2)CC1 (protonated)
Cc1cccnc1CN1CCN(C(=O)c2ccc3[nH+]cc(C)n3c2)CC1 (3D coordinates assigned)
Cc1cccnc1CN1CCN(C(=O)c2ccc3[nH+]cc(C)n3c2)CC1 (nonaromatic ring conformer: 103.369171386807 kcal/mol)

>  <smiles>  (45) 
Cc1cccnc1CN1CCN(C(=O)c2ccc3ncc(C)n3c2)CC1

>  <score_type>  (45) 
oracle

>  <origin>  (45) 
adg

>  <m_score__min__energy>  (45) 
-7.4000000000000004

>  <m_primary>  (45) 
energy

$$$$
45:0
     RDKit          3D

 40 43  0  0  0  0  0  0  0  0999 V2000
   58.3290   33.8060   44.5000 C   0  0  0  0  0  0  0  0  0  0  0  0
   58.7560   33.6130   45.9320 C   0  0  0  0  0  0  0  0  0  0  0  0
   59.2940   34.7120   46.6250 C   0  0  0  0  0  0  0  0  0  0  0  0
   59.6670   34.5940   47.9650 C   0  0  0  0  0  0  0  0  0  0  0  0
   59.5090   33.3780   48.6310 C   0  0  0  0  0  0  0  0  0  0  0  0
   58.9960   32.2710   47.9530 C   0  0  0  0  0  0  0  0  0  0  0  0
   58.6370   32.3650   46.5970 C   0  0  0  0  0  0  0  0  0  0  0  0
   58.1300   31.1540   45.9230 C   0  0  0  0  0  0  0  0  0  0  0  0
   57.0690   31.2320   45.2440 O   0  0  0  0  0  0  0  0  0  0  0  0
   58.8300   29.9040   46.0450 N   0  0  0  0  0  0  0  0  0  0  0  0
   58.4070   28.6800   45.4230 C   0  0  0  0  0  0  0  0  0  0  0  0
   58.8750   28.3670   44.1380 C   0  0  0  0  0  0  0  0  0  0  0  0
   58.5070   27.1680   43.5210 C   0  0  0  0  0  0  0  0  0  0  0  0
   57.6730   26.2600   44.1850 C   0  0  0  0  0  0  0  0  0  0  0  0
   57.1870   26.5760   45.4660 C   0  0  0  0  0  0  0  0  0  0  0  0
   57.5730   27.7660   46.0910 C   0  0  0  0  0  0  0  0  0  0  0  0
   55.9650   25.5160   46.2440 S   0  0  0  0  0  0  0  0  0  0  0  0
   56.7940   23.9870   45.7970 C   0  0  0  0  0  0  0  0  0  0  0  0
   56.8330   22.9240   46.7070 C   0  0  0  0  0  0  0  0  0  0  0  0
   57.3400   21.6840   46.3110 C   0  0  0  0  0  0  0  0  0  0  0  0
   57.8050   21.5020   45.0050 C   0  0  0  0  0  0  0  0  0  0  0  0
   57.7890   22.5670   44.0990 C   0  0  0  0  0  0  0  0  0  0  0  0
   57.2990   23.8210   44.4960 C   0  0  0  0  0  0  0  0  0  0  0  0
   57.4400   24.9570   43.6260 N   0  0  0  0  0  0  0  0  0  0  0  0
   57.3269   34.2589   44.4741 H   0  0  0  0  0  0  0  0  0  0  0  0
   59.0441   34.4684   43.9902 H   0  0  0  0  0  0  0  0  0  0  0  0
   58.3043   32.8316   43.9902 H   0  0  0  0  0  0  0  0  0  0  0  0
   59.4221   35.6736   46.1064 H   0  0  0  0  0  0  0  0  0  0  0  0
   60.0861   35.4609   48.4967 H   0  0  0  0  0  0  0  0  0  0  0  0
   59.7890   33.2917   49.6913 H   0  0  0  0  0  0  0  0  0  0  0  0
   58.8714   31.3161   48.4847 H   0  0  0  0  0  0  0  0  0  0  0  0
   59.7410   29.8950   46.5560 H   0  0  0  0  0  0  0  0  0  0  0  0
   59.5368   29.0707   43.6119 H   0  0  0  0  0  0  0  0  0  0  0  0
   58.8739   26.9368   42.5101 H   0  0  0  0  0  0  0  0  0  0  0  0
   57.2226   27.9880   47.1098 H   0  0  0  0  0  0  0  0  0  0  0  0
   56.4645   23.0651   47.7338 H   0  0  0  0  0  0  0  0  0  0  0  0
   57.3734   20.8499   47.0274 H   0  0  0  0  0  0  0  0  0  0  0  0
   58.1843   20.5188   44.6895 H   0  0  0  0  0  0  0  0  0  0  0  0
   58.1609   22.4219   43.0740 H   0  0  0  0  0  0  0  0  0  0  0  0
   57.6710   24.7930   42.6210 H   0  0  0  0  0  0  0  0  0  0  0  0
  1  2  1  0
  2  3  2  0
  3  4  1  0
  4  5  2  0
  5  6  1  0
  6  7  2  0
  7  8  1  0
  8  9  2  0
  8 10  1  0
 10 11  1  0
 11 12  2  0
 12 13  1  0
 13 14  2  0
 14 15  1  0
 15 16  2  0
 15 17  1  0
 17 18  1  0
 18 19  2  0
 19 20  1  0
 20 21  2  0
 21 22  1  0
 22 23  2  0
 23 24  1  0
  7  2  1  0
 16 11  1  0
 23 18  1  0
 24 14  1  0
  1 25  1  0
  1 26  1  0
  1 27  1  0
  3 28  1  0
  4 29  1  0
  5 30  1  0
  6 31  1  0
 10 32  1  0
 12 33  1  0
 13 34  1  0
 16 35  1  0
 19 36  1  0
 20 37  1  0
 21 38  1  0
 22 39  1  0
 24 40  1  0
M  END
>  <UniqueID>  (46) 
41

>  <SMILES>  (46) 
Cc1ccccc1C(=O)Nc1ccc2c(c1)Sc1ccccc1N2

>  <Energy>  (46) 
68.86150678268429

>  <Genealogy>  (46) 
Cc1ccccc1C(=O)Nc1ccc2c(c1)Sc1ccccc1N2 (3D coordinates assigned)
Cc1ccccc1C(=O)Nc1ccc2c(c1)Sc1ccccc1N2 (nonaromatic ring conformer: 68.86150678268429 kcal/mol)

>  <smiles>  (46) 
Cc1ccccc1C(=O)Nc1ccc2c(c1)Sc1ccccc1N2

>  <score_type>  (46) 
oracle

>  <origin>  (46) 
adg

>  <m_score__min__energy>  (46) 
-7.9199999999999999

>  <m_primary>  (46) 
energy

$$$$
46:0
     RDKit          3D

 46 50  0  0  0  0  0  0  0  0999 V2000
   65.1570   33.4093   48.5575 H   0  0  0  0  0  0  0  0  0  0  0  0
   64.0750   33.4890   48.3760 C   0  0  0  0  0  0  0  0  0  0  0  0
   63.4980   33.1290   47.1990 N   0  0  0  0  0  0  0  0  0  0  0  0
   62.2000   33.3830   47.4210 C   0  0  0  0  0  0  0  0  0  0  0  0
   61.1360   33.2110   46.5400 C   0  0  0  0  0  0  0  0  0  0  0  0
   61.2979   32.8267   45.5221 H   0  0  0  0  0  0  0  0  0  0  0  0
   59.8380   33.5470   46.9970 C   0  0  0  0  0  0  0  0  0  0  0  0
   58.6830   33.4350   46.1460 N   0  0  0  0  0  0  0  0  0  0  0  0
   58.1530   32.3340   45.6970 C   0  0  0  0  0  0  0  0  0  0  0  0
   58.6550   31.1150   46.0330 N   0  0  0  0  0  0  0  0  0  0  0  0
   58.0950   29.9530   45.5930 C   0  0  0  0  0  0  0  0  0  0  0  0
   58.7000   28.6550   45.9920 C   0  0  0  0  0  0  0  0  0  0  0  0
   60.0860   28.4560   45.8700 C   0  0  0  0  0  0  0  0  0  0  0  0
   60.7208   29.2623   45.4738 H   0  0  0  0  0  0  0  0  0  0  0  0
   60.6470   27.2750   46.2380 N   0  0  0  0  0  0  0  0  0  0  0  0
   59.9080   26.2530   46.7420 C   0  0  0  0  0  0  0  0  0  0  0  0
   60.3967   25.3090   47.0250 H   0  0  0  0  0  0  0  0  0  0  0  0
   58.5220   26.4000   46.9020 C   0  0  0  0  0  0  0  0  0  0  0  0
   57.6960   25.3580   47.4370 N   0  0  0  0  0  0  0  0  0  0  0  0
   56.2760   24.7190   46.6750 S   0  0  0  0  0  0  0  0  0  0  0  0
   55.4460   24.0010   47.7020 O   0  0  0  0  0  0  0  0  0  0  0  0
   55.4680   25.8320   46.0690 O   0  0  0  0  0  0  0  0  0  0  0  0
   56.7660   23.6020   45.3970 C   0  0  0  0  0  0  0  0  0  0  0  0
   58.0900   23.1330   45.3550 C   0  0  0  0  0  0  0  0  0  0  0  0
   58.8111   23.4621   46.1177 H   0  0  0  0  0  0  0  0  0  0  0  0
   58.4960   22.2510   44.3500 C   0  0  0  0  0  0  0  0  0  0  0  0
   59.5340   21.8878   44.3245 H   0  0  0  0  0  0  0  0  0  0  0  0
   57.5860   21.8300   43.3780 C   0  0  0  0  0  0  0  0  0  0  0  0
   57.9079   21.1374   42.5864 H   0  0  0  0  0  0  0  0  0  0  0  0
   56.2680   22.2880   43.4110 C   0  0  0  0  0  0  0  0  0  0  0  0
   55.5533   21.9524   42.6451 H   0  0  0  0  0  0  0  0  0  0  0  0
   55.8500   23.1720   44.4130 C   0  0  0  0  0  0  0  0  0  0  0  0
   54.1740   23.7120   44.4030 Cl  0  0  0  0  0  0  0  0  0  0  0  0
   57.9250   27.6070   46.5240 C   0  0  0  0  0  0  0  0  0  0  0  0
   56.8395   27.7387   46.6435 H   0  0  0  0  0  0  0  0  0  0  0  0
   56.9650   30.0300   44.7590 C   0  0  0  0  0  0  0  0  0  0  0  0
   56.4969   29.1119   44.3743 H   0  0  0  0  0  0  0  0  0  0  0  0
   56.4560   31.2460   44.4320 N   0  0  0  0  0  0  0  0  0  0  0  0
   57.0160   32.3970   44.8870 C   0  0  0  0  0  0  0  0  0  0  0  0
   56.5782   33.3702   44.6201 H   0  0  0  0  0  0  0  0  0  0  0  0
   59.6720   34.0850   48.2960 C   0  0  0  0  0  0  0  0  0  0  0  0
   58.6692   34.3815   48.6374 H   0  0  0  0  0  0  0  0  0  0  0  0
   60.7750   34.2450   49.1560 C   0  0  0  0  0  0  0  0  0  0  0  0
   60.6511   34.6484   50.1718 H   0  0  0  0  0  0  0  0  0  0  0  0
   62.0270   33.8750   48.6760 C   0  0  0  0  0  0  0  0  0  0  0  0
   63.2060   33.9550   49.3090 N   0  0  0  0  0  0  0  0  0  0  0  0
  1  2  1  0
  2  3  2  0
  3  4  1  0
  4  5  2  0
  5  6  1  0
  5  7  1  0
  7  8  1  0
  8  9  2  0
  9 10  1  0
 10 11  1  0
 11 12  1  0
 12 13  2  0
 13 14  1  0
 13 15  1  0
 15 16  2  0
 16 17  1  0
 16 18  1  0
 18 19  1  0
 19 20  1  0
 20 21  2  0
 20 22  2  0
 20 23  1  0
 23 24  2  0
 24 25  1  0
 24 26  1  0
 26 27  1  0
 26 28  2  0
 28 29  1  0
 28 30  1  0
 30 31  1  0
 30 32  2  0
 32 33  1  0
 18 34  2  0
 34 35  1  0
 11 36  2  0
 36 37  1  0
 36 38  1  0
 38 39  2  0
 39 40  1  0
  7 41  2  0
 41 42  1  0
 41 43  1  0
 43 44  1  0
 43 45  2  0
 45 46  1  0
 46  2  1  0
 45  4  1  0
 39  9  1  0
 34 12  1  0
 32 23  1  0
M  CHG  3  10  -1  19  -1  46  -1
M  END
>  <UniqueID>  (47) 
42

>  <SMILES>  (47) 
O=S(=O)([N-]c1cncc(-c2cnc/c(=N/c3ccc4[n-]cnc4c3)[n-]2)c1)c1ccccc1Cl

>  <Energy>  (47) 
105.68784319822267

>  <Genealogy>  (47) 
O=S(=O)([N-]c1cncc(-c2cncc(=Nc3ccc4[n-]cnc4c3)[n-]2)c1)c1ccccc1Cl (protonated)
O=S(=O)([N-]c1cncc(-c2cnc/c(=N/c3ccc4[n-]cnc4c3)[n-]2)c1)c1ccccc1Cl (cis-trans isomerization)
O=S(=O)([N-]c1cncc(-c2cnc/c(=N/c3ccc4[n-]cnc4c3)[n-]2)c1)c1ccccc1Cl (3D coordinates assigned)
O=S(=O)([N-]c1cncc(-c2cnc/c(=N/c3ccc4[n-]cnc4c3)[n-]2)c1)c1ccccc1Cl (optimized conformer: 105.68784319822267 kcal/mol)

>  <smiles>  (47) 
O=S(=O)(Nc1cncc(-c2cncc(=Nc3ccc4[nH]cnc4c3)[nH]2)c1)c1ccccc1Cl

>  <score_type>  (47) 
oracle

>  <origin>  (47) 
adg

>  <m_score__min__energy>  (47) 
-13.84

>  <m_primary>  (47) 
energy

$$$$
47:0
     RDKit          3D

 55 57  0  0  0  0  0  0  0  0999 V2000
   57.3780   33.3150   52.3440 C   0  0  0  0  0  0  0  0  0  0  0  0
   57.6690   31.9330   51.8450 C   0  0  0  0  0  0  0  0  0  0  0  0
   56.8790   30.7810   51.9520 C   0  0  0  0  0  0  0  0  0  0  0  0
   55.5710   30.6470   52.6170 C   0  0  0  0  0  0  0  0  0  0  0  0
   55.5350   30.2460   53.8110 O   0  0  0  0  0  0  0  0  0  0  0  0
   54.3560   31.0100   51.9500 N   0  0  0  0  0  0  0  0  0  0  0  0
   53.0480   30.6730   52.5150 C   0  0  0  0  0  0  0  0  0  0  0  0
   51.9230   30.8230   51.4710 C   0  0  0  0  0  0  0  0  0  0  0  0
   52.2090   29.9380   50.2510 C   0  0  0  0  0  0  0  0  0  0  0  0
   51.7610   32.2860   51.0310 C   0  0  0  0  0  0  0  0  0  0  0  0
   57.4670   29.7690   51.3370 O   0  0  0  0  0  0  0  0  0  0  0  0
   58.6080   30.1990   50.8560 C   0  0  0  0  0  0  0  0  0  0  0  0
   59.5560   29.4700   50.1450 C   0  0  0  0  0  0  0  0  0  0  0  0
   60.7200   30.1360   49.7220 C   0  0  0  0  0  0  0  0  0  0  0  0
   60.9080   31.5100   50.0150 C   0  0  0  0  0  0  0  0  0  0  0  0
   62.3750   32.3420   49.5080 S   0  0  0  0  0  0  0  0  0  0  0  0
   63.5590   31.5330   49.9590 O   0  0  0  0  0  0  0  0  0  0  0  0
   62.4480   33.7010   50.1510 O   0  0  0  0  0  0  0  0  0  0  0  0
   62.3990   32.5060   47.7690 N   0  0  0  0  0  0  0  0  0  0  0  0
   61.6620   31.3770   47.1620 C   0  0  0  0  0  0  0  0  0  0  0  0
   60.3960   31.8030   46.3970 C   0  0  0  0  0  0  0  0  0  0  0  0
   59.2370   32.2640   47.2960 C   0  0  0  0  0  0  0  0  0  0  0  0
   59.2790   33.7550   47.7010 C   0  0  0  0  0  0  0  0  0  0  0  0
   60.6380   34.2280   48.2510 C   0  0  0  0  0  0  0  0  0  0  0  0
   61.8510   33.8220   47.3770 C   0  0  0  0  0  0  0  0  0  0  0  0
   59.9280   32.2180   50.7410 C   0  0  0  0  0  0  0  0  0  0  0  0
   58.7870   31.5260   51.1460 C   0  0  0  0  0  0  0  0  0  0  0  0
   57.3780   33.3152   53.4440 H   0  0  0  0  0  0  0  0  0  0  0  0
   58.1500   34.0074   51.9772 H   0  0  0  0  0  0  0  0  0  0  0  0
   56.3923   33.6373   51.9772 H   0  0  0  0  0  0  0  0  0  0  0  0
   54.4120   31.5850   51.0800 H   0  0  0  0  0  0  0  0  0  0  0  0
   53.0697   29.6319   52.8693 H   0  0  0  0  0  0  0  0  0  0  0  0
   52.8425   31.3659   53.3442 H   0  0  0  0  0  0  0  0  0  0  0  0
   50.9822   30.5002   51.9407 H   0  0  0  0  0  0  0  0  0  0  0  0
   52.5310   28.9417   50.5882 H   0  0  0  0  0  0  0  0  0  0  0  0
   51.2959   29.8427   49.6450 H   0  0  0  0  0  0  0  0  0  0  0  0
   53.0052   30.3951   49.6450 H   0  0  0  0  0  0  0  0  0  0  0  0
   51.6896   32.9304   51.9196 H   0  0  0  0  0  0  0  0  0  0  0  0
   52.6314   32.5864   50.4292 H   0  0  0  0  0  0  0  0  0  0  0  0
   50.8460   32.3887   50.4292 H   0  0  0  0  0  0  0  0  0  0  0  0
   59.3997   28.4046   49.9205 H   0  0  0  0  0  0  0  0  0  0  0  0
   61.4898   29.5870   49.1599 H   0  0  0  0  0  0  0  0  0  0  0  0
   62.3341   30.8608   46.4607 H   0  0  0  0  0  0  0  0  0  0  0  0
   61.3351   30.7266   47.9867 H   0  0  0  0  0  0  0  0  0  0  0  0
   60.6622   32.6329   45.7259 H   0  0  0  0  0  0  0  0  0  0  0  0
   60.0404   30.9130   45.8572 H   0  0  0  0  0  0  0  0  0  0  0  0
   58.2948   32.0827   46.7581 H   0  0  0  0  0  0  0  0  0  0  0  0
   59.3240   31.6888   48.2296 H   0  0  0  0  0  0  0  0  0  0  0  0
   59.0379   34.3592   46.8139 H   0  0  0  0  0  0  0  0  0  0  0  0
   58.5506   33.8791   48.5159 H   0  0  0  0  0  0  0  0  0  0  0  0
   60.6176   35.3253   48.3249 H   0  0  0  0  0  0  0  0  0  0  0  0
   60.7726   33.7384   49.2268 H   0  0  0  0  0  0  0  0  0  0  0  0
   61.5314   33.7749   46.3255 H   0  0  0  0  0  0  0  0  0  0  0  0
   62.6400   34.5751   47.5191 H   0  0  0  0  0  0  0  0  0  0  0  0
   60.0596   33.2835   50.9805 H   0  0  0  0  0  0  0  0  0  0  0  0
  1  2  1  0
  2  3  2  0
  3  4  1  0
  4  5  2  0
  4  6  1  0
  6  7  1  0
  7  8  1  0
  8  9  1  0
  8 10  1  0
  3 11  1  0
 11 12  1  0
 12 13  2  0
 13 14  1  0
 14 15  2  0
 15 16  1  0
 16 17  2  0
 16 18  2  0
 16 19  1  0
 19 20  1  0
 20 21  1  0
 21 22  1  0
 22 23  1  0
 23 24  1  0
 24 25  1  0
 15 26  1  0
 26 27  2  0
 27  2  1  0
 27 12  1  0
 25 19  1  0
  1 28  1  0
  1 29  1  0
  1 30  1  0
  6 31  1  0
  7 32  1  0
  7 33  1  0
  8 34  1  0
  9 35  1  0
  9 36  1  0
  9 37  1  0
 10 38  1  0
 10 39  1  0
 10 40  1  0
 13 41  1  0
 14 42  1  0
 20 43  1  0
 20 44  1  0
 21 45  1  0
 21 46  1  0
 22 47  1  0
 22 48  1  0
 23 49  1  0
 23 50  1  0
 24 51  1  0
 24 52  1  0
 25 53  1  0
 25 54  1  0
 26 55  1  0
M  END
>  <UniqueID>  (48) 
43

>  <SMILES>  (48) 
Cc1c(C(=O)NCC(C)C)oc2ccc(S(=O)(=O)N3CCCCCC3)cc12

>  <Energy>  (48) 
89.99400434974743

>  <Genealogy>  (48) 
Cc1c(C(=O)NCC(C)C)oc2ccc(S(=O)(=O)N3CCCCCC3)cc12 (3D coordinates assigned)
Cc1c(C(=O)NCC(C)C)oc2ccc(S(=O)(=O)N3CCCCCC3)cc12 (nonaromatic ring conformer: 89.99400434974743 kcal/mol)

>  <smiles>  (48) 
Cc1c(C(=O)NCC(C)C)oc2ccc(S(=O)(=O)N3CCCCCC3)cc12

>  <score_type>  (48) 
oracle

>  <origin>  (48) 
adg

>  <m_score__min__energy>  (48) 
-7.4000000000000004

>  <m_primary>  (48) 
energy

$$$$
