0:0
     RDKit          3D

 66 68  0  0  0  0  0  0  0  0999 V2000
   57.2480   31.0900   51.3650 C   0  0  0  0  0  0  0  0  0  0  0  0
   58.6260   30.5560   51.4130 C   0  0  0  0  0  0  0  0  0  0  0  0
   59.6580   31.3580   50.8060 N   0  0  0  0  0  0  0  0  0  0  0  0
   60.1130   32.4320   51.6060 C   0  0  0  0  0  0  0  0  0  0  0  0
   59.2110   33.6260   51.6930 C   0  0  0  0  0  0  0  0  0  0  0  0
   60.6620   30.5690   50.1450 C   0  0  0  0  0  0  0  0  0  0  0  0
   60.3300   30.3230   48.6920 C   0  0  0  0  0  0  0  0  0  0  0  0
   59.0410   30.9160   48.3350 N   0  0  0  0  0  0  0  0  0  0  0  0
   58.7850   31.2800   46.9950 C   0  0  0  0  0  0  0  0  0  0  0  0
   58.3330   30.2150   46.1880 C   0  0  0  0  0  0  0  0  0  0  0  0
   58.2250   28.9340   46.7430 C   0  0  0  0  0  0  0  0  0  0  0  0
   57.7940   27.8470   46.0150 C   0  0  0  0  0  0  0  0  0  0  0  0
   57.4650   28.0470   44.7060 C   0  0  0  0  0  0  0  0  0  0  0  0
   57.5660   29.3080   44.1400 C   0  0  0  0  0  0  0  0  0  0  0  0
   57.9970   30.3960   44.8690 C   0  0  0  0  0  0  0  0  0  0  0  0
   58.1020   31.6130   44.3400 N   0  0  0  0  0  0  0  0  0  0  0  0
   57.7620   31.9010   42.9700 C   0  0  0  0  0  0  0  0  0  0  0  0
   58.5360   32.6560   45.0950 C   0  0  0  0  0  0  0  0  0  0  0  0
   58.6010   33.8950   44.4800 C   0  0  0  0  0  0  0  0  0  0  0  0
   59.0240   34.9580   45.2420 C   0  0  0  0  0  0  0  0  0  0  0  0
   59.3660   34.8010   46.5510 C   0  0  0  0  0  0  0  0  0  0  0  0
   59.3160   33.5620   47.2150 C   0  0  0  0  0  0  0  0  0  0  0  0
   59.8050   33.4760   48.5280 N   0  0  0  0  0  0  0  0  0  0  0  0
   61.0200   34.2680   48.8520 C   0  0  0  0  0  0  0  0  0  0  0  0
   62.1580   33.3020   48.7350 C   0  0  0  0  0  0  0  0  0  0  0  0
   62.4290   32.8230   47.3170 C   0  0  0  0  0  0  0  0  0  0  0  0
   63.3650   31.6130   47.4760 C   0  0  0  0  0  0  0  0  0  0  0  0
   63.2900   33.8950   46.6510 C   0  0  0  0  0  0  0  0  0  0  0  0
   58.8880   32.5130   46.4360 C   0  0  0  0  0  0  0  0  0  0  0  0
   56.8749   31.2346   52.3896 H   0  0  0  0  0  0  0  0  0  0  0  0
   57.2465   32.0538   50.8348 H   0  0  0  0  0  0  0  0  0  0  0  0
   56.5974   30.3789   50.8348 H   0  0  0  0  0  0  0  0  0  0  0  0
   58.8920   30.4178   52.4714 H   0  0  0  0  0  0  0  0  0  0  0  0
   58.5956   29.6307   50.8190 H   0  0  0  0  0  0  0  0  0  0  0  0
   60.2617   32.0497   52.6266 H   0  0  0  0  0  0  0  0  0  0  0  0
   61.0299   32.7930   51.1171 H   0  0  0  0  0  0  0  0  0  0  0  0
   59.0266   33.8700   52.7496 H   0  0  0  0  0  0  0  0  0  0  0  0
   59.6888   34.4835   51.1966 H   0  0  0  0  0  0  0  0  0  0  0  0
   58.2556   33.4007   51.1966 H   0  0  0  0  0  0  0  0  0  0  0  0
   61.6242   31.0989   50.2036 H   0  0  0  0  0  0  0  0  0  0  0  0
   60.7107   29.5930   50.6500 H   0  0  0  0  0  0  0  0  0  0  0  0
   61.1158   30.7684   48.0642 H   0  0  0  0  0  0  0  0  0  0  0  0
   60.2707   29.2369   48.5278 H   0  0  0  0  0  0  0  0  0  0  0  0
   58.2980   31.1210   49.0650 H   0  0  0  0  0  0  0  0  0  0  0  0
   58.4944   28.7904   47.7998 H   0  0  0  0  0  0  0  0  0  0  0  0
   57.7175   26.8502   46.4739 H   0  0  0  0  0  0  0  0  0  0  0  0
   57.1169   27.2009   44.0953 H   0  0  0  0  0  0  0  0  0  0  0  0
   57.2955   29.4443   43.0825 H   0  0  0  0  0  0  0  0  0  0  0  0
   56.9229   32.6117   42.9421 H   0  0  0  0  0  0  0  0  0  0  0  0
   58.6322   32.3409   42.4609 H   0  0  0  0  0  0  0  0  0  0  0  0
   57.4712   30.9702   42.4609 H   0  0  0  0  0  0  0  0  0  0  0  0
   58.3249   34.0235   43.4230 H   0  0  0  0  0  0  0  0  0  0  0  0
   59.0876   35.9565   44.7849 H   0  0  0  0  0  0  0  0  0  0  0  0
   59.6970   35.6851   47.1157 H   0  0  0  0  0  0  0  0  0  0  0  0
   59.4860   32.9250   49.3240 H   0  0  0  0  0  0  0  0  0  0  0  0
   61.1422   35.0968   48.1392 H   0  0  0  0  0  0  0  0  0  0  0  0
   60.9632   34.7186   49.8539 H   0  0  0  0  0  0  0  0  0  0  0  0
   63.0670   33.7932   49.1124 H   0  0  0  0  0  0  0  0  0  0  0  0
   61.8782   32.4133   49.3197 H   0  0  0  0  0  0  0  0  0  0  0  0
   61.5051   32.6093   46.7596 H   0  0  0  0  0  0  0  0  0  0  0  0
   63.5225   31.4093   48.5454 H   0  0  0  0  0  0  0  0  0  0  0  0
   62.9105   30.7326   46.9981 H   0  0  0  0  0  0  0  0  0  0  0  0
   64.3314   31.8317   46.9981 H   0  0  0  0  0  0  0  0  0  0  0  0
   63.7797   34.5048   47.4245 H   0  0  0  0  0  0  0  0  0  0  0  0
   64.0553   33.4136   46.0245 H   0  0  0  0  0  0  0  0  0  0  0  0
   62.6548   34.5385   46.0245 H   0  0  0  0  0  0  0  0  0  0  0  0
  1  2  1  0
  2  3  1  0
  3  4  1  0
  4  5  1  0
  3  6  1  0
  6  7  1  0
  7  8  1  0
  8  9  1  0
  9 10  2  0
 10 11  1  0
 11 12  2  0
 12 13  1  0
 13 14  2  0
 14 15  1  0
 15 16  2  0
 16 17  1  0
 16 18  1  0
 18 19  2  0
 19 20  1  0
 20 21  2  0
 21 22  1  0
 22 23  1  0
 23 24  1  0
 24 25  1  0
 25 26  1  0
 26 27  1  0
 26 28  1  0
 22 29  2  0
 29  9  1  0
 15 10  1  0
 29 18  1  0
  1 30  1  0
  1 31  1  0
  1 32  1  0
  2 33  1  0
  2 34  1  0
  4 35  1  0
  4 36  1  0
  5 37  1  0
  5 38  1  0
  5 39  1  0
  6 40  1  0
  6 41  1  0
  7 42  1  0
  7 43  1  0
  8 44  1  0
 11 45  1  0
 12 46  1  0
 13 47  1  0
 14 48  1  0
 17 49  1  0
 17 50  1  0
 17 51  1  0
 19 52  1  0
 20 53  1  0
 21 54  1  0
 23 55  1  0
 24 56  1  0
 24 57  1  0
 25 58  1  0
 25 59  1  0
 26 60  1  0
 27 61  1  0
 27 62  1  0
 27 63  1  0
 28 64  1  0
 28 65  1  0
 28 66  1  0
M  CHG  1  16   1
M  END
>  <smiles>  (1) 
CCN(CC)CCNc1c2ccccc2[n+](C)c2cccc(NCCC(C)C)c12

>  <score_type>  (1) 
oracle

>  <origin>  (1) 
adg

>  <m_score__min__energy>  (1) 
-5.6399999999999997

>  <m_primary>  (1) 
energy

$$$$
1:0
     RDKit          3D

 60 62  0  0  0  0  0  0  0  0999 V2000
   58.4990   25.4490   46.7540 C   0  0  0  0  0  0  0  0  0  0  0  0
   59.6890   26.2420   46.5600 N   0  0  0  0  0  0  0  0  0  0  0  0
   60.2320   26.7360   47.8000 C   0  0  0  0  0  0  0  0  0  0  0  0
   59.9100   28.1930   48.0350 C   0  0  0  0  0  0  0  0  0  0  0  0
   60.4040   28.9680   46.9080 N   0  0  0  0  0  0  0  0  0  0  0  0
   60.5080   30.3630   47.0070 C   0  0  0  0  0  0  0  0  0  0  0  0
   59.4080   31.1990   46.8960 C   0  0  0  0  0  0  0  0  0  0  0  0
   59.5620   32.5660   47.0070 C   0  0  0  0  0  0  0  0  0  0  0  0
   58.4650   33.3700   46.8940 O   0  0  0  0  0  0  0  0  0  0  0  0
   58.3450   34.5140   46.0840 C   0  0  0  0  0  0  0  0  0  0  0  0
   57.0240   34.2890   45.2980 C   0  0  0  0  0  0  0  0  0  0  0  0
   57.1200   32.9550   44.7910 N   0  0  0  0  0  0  0  0  0  0  0  0
   58.0660   32.6970   43.7690 C   0  0  0  0  0  0  0  0  0  0  0  0
   57.4860   31.8730   42.6610 C   0  0  0  0  0  0  0  0  0  0  0  0
   57.5480   30.4860   42.9680 N   0  0  0  0  0  0  0  0  0  0  0  0
   58.2930   30.2320   44.1580 C   0  0  0  0  0  0  0  0  0  0  0  0
   57.3980   29.4700   45.1200 C   0  0  0  0  0  0  0  0  0  0  0  0
   56.1700   30.0910   45.2400 O   0  0  0  0  0  0  0  0  0  0  0  0
   55.4480   30.1180   44.0600 C   0  0  0  0  0  0  0  0  0  0  0  0
   56.3070   29.7840   42.8530 C   0  0  0  0  0  0  0  0  0  0  0  0
   60.7860   33.1630   47.2280 C   0  0  0  0  0  0  0  0  0  0  0  0
   61.8770   32.3070   47.3360 C   0  0  0  0  0  0  0  0  0  0  0  0
   63.2340   32.9110   47.5770 C   0  0  0  0  0  0  0  0  0  0  0  0
   64.0340   32.0040   48.2230 F   0  0  0  0  0  0  0  0  0  0  0  0
   63.0340   34.0060   48.3880 F   0  0  0  0  0  0  0  0  0  0  0  0
   63.7850   33.3540   46.3930 F   0  0  0  0  0  0  0  0  0  0  0  0
   61.7480   30.9300   47.2290 C   0  0  0  0  0  0  0  0  0  0  0  0
   60.7590   28.2030   45.7160 C   0  0  0  0  0  0  0  0  0  0  0  0
   59.5850   27.2320   45.5350 C   0  0  0  0  0  0  0  0  0  0  0  0
   58.3127   25.3248   47.8310 H   0  0  0  0  0  0  0  0  0  0  0  0
   57.6406   25.9563   46.2895 H   0  0  0  0  0  0  0  0  0  0  0  0
   58.6367   24.4615   46.2895 H   0  0  0  0  0  0  0  0  0  0  0  0
   59.8141   26.1447   48.6281 H   0  0  0  0  0  0  0  0  0  0  0  0
   61.3266   26.6410   47.7460 H   0  0  0  0  0  0  0  0  0  0  0  0
   58.8212   28.3217   48.1237 H   0  0  0  0  0  0  0  0  0  0  0  0
   60.3878   28.5370   48.9642 H   0  0  0  0  0  0  0  0  0  0  0  0
   58.4099   30.7719   46.7190 H   0  0  0  0  0  0  0  0  0  0  0  0
   58.2822   35.4231   46.7001 H   0  0  0  0  0  0  0  0  0  0  0  0
   59.2112   34.6526   45.4204 H   0  0  0  0  0  0  0  0  0  0  0  0
   56.1551   34.3878   45.9652 H   0  0  0  0  0  0  0  0  0  0  0  0
   56.8889   35.0285   44.4949 H   0  0  0  0  0  0  0  0  0  0  0  0
   57.1170   32.2300   45.5460 H   0  0  0  0  0  0  0  0  0  0  0  0
   58.4115   33.6557   43.3549 H   0  0  0  0  0  0  0  0  0  0  0  0
   58.8987   32.1313   44.2124 H   0  0  0  0  0  0  0  0  0  0  0  0
   56.4350   32.1612   42.5113 H   0  0  0  0  0  0  0  0  0  0  0  0
   58.0708   32.0550   41.7473 H   0  0  0  0  0  0  0  0  0  0  0  0
   59.1825   29.6303   43.9200 H   0  0  0  0  0  0  0  0  0  0  0  0
   58.6221   31.1786   44.6115 H   0  0  0  0  0  0  0  0  0  0  0  0
   57.2502   28.4474   44.7427 H   0  0  0  0  0  0  0  0  0  0  0  0
   57.8804   29.4460   46.1083 H   0  0  0  0  0  0  0  0  0  0  0  0
   54.6316   29.3839   44.1276 H   0  0  0  0  0  0  0  0  0  0  0  0
   55.0595   31.1383   43.9256 H   0  0  0  0  0  0  0  0  0  0  0  0
   56.4956   28.7008   42.8206 H   0  0  0  0  0  0  0  0  0  0  0  0
   55.7900   30.0833   41.9293 H   0  0  0  0  0  0  0  0  0  0  0  0
   60.8931   34.2544   47.3139 H   0  0  0  0  0  0  0  0  0  0  0  0
   62.6360   30.2874   47.3212 H   0  0  0  0  0  0  0  0  0  0  0  0
   60.8580   28.8640   44.8423 H   0  0  0  0  0  0  0  0  0  0  0  0
   61.7246   27.6858   45.8168 H   0  0  0  0  0  0  0  0  0  0  0  0
   58.6317   27.7726   45.6294 H   0  0  0  0  0  0  0  0  0  0  0  0
   59.6160   26.7656   44.5392 H   0  0  0  0  0  0  0  0  0  0  0  0
  1  2  1  0
  2  3  1  0
  3  4  1  0
  4  5  1  0
  5  6  1  0
  6  7  2  0
  7  8  1  0
  8  9  1  0
  9 10  1  0
 10 11  1  0
 11 12  1  0
 12 13  1  0
 13 14  1  0
 14 15  1  0
 15 16  1  0
 16 17  1  0
 17 18  1  0
 18 19  1  0
 19 20  1  0
  8 21  2  0
 21 22  1  0
 22 23  1  0
 23 24  1  0
 23 25  1  0
 23 26  1  0
 22 27  2  0
  5 28  1  0
 28 29  1  0
 29  2  1  0
 27  6  1  0
 20 15  1  0
  1 30  1  0
  1 31  1  0
  1 32  1  0
  3 33  1  0
  3 34  1  0
  4 35  1  0
  4 36  1  0
  7 37  1  0
 10 38  1  0
 10 39  1  0
 11 40  1  0
 11 41  1  0
 12 42  1  0
 13 43  1  0
 13 44  1  0
 14 45  1  0
 14 46  1  0
 16 47  1  0
 16 48  1  0
 17 49  1  0
 17 50  1  0
 19 51  1  0
 19 52  1  0
 20 53  1  0
 20 54  1  0
 21 55  1  0
 27 56  1  0
 28 57  1  0
 28 58  1  0
 29 59  1  0
 29 60  1  0
M  END
>  <smiles>  (2) 
CN1CCN(c2cc(OCCNCCN3CCOCC3)cc(C(F)(F)F)c2)CC1

>  <score_type>  (2) 
oracle

>  <origin>  (2) 
adg

>  <m_score__min__energy>  (2) 
-6.6299999999999999

>  <m_primary>  (2) 
energy

$$$$
2:0
     RDKit          3D

 57 59  0  0  0  0  0  0  0  0999 V2000
   64.6830   33.4130   50.5670 C   0  0  0  0  0  0  0  0  0  0  0  0
   64.6540   32.4780   49.3730 C   0  0  0  0  0  0  0  0  0  0  0  0
   63.4330   32.6130   48.5940 N   0  0  0  0  0  0  0  0  0  0  0  0
   62.8640   33.8890   48.9480 C   0  0  0  0  0  0  0  0  0  0  0  0
   63.7000   32.6210   47.1680 C   0  0  0  0  0  0  0  0  0  0  0  0
   63.1710   33.8540   46.4810 C   0  0  0  0  0  0  0  0  0  0  0  0
   62.5860   31.5030   48.9360 C   0  0  0  0  0  0  0  0  0  0  0  0
   61.8790   30.8990   47.7140 C   0  0  0  0  0  0  0  0  0  0  0  0
   60.4810   31.2120   47.7090 N   0  0  0  0  0  0  0  0  0  0  0  0
   59.6160   31.1180   46.6090 C   0  0  0  0  0  0  0  0  0  0  0  0
   59.3870   29.8580   46.0720 C   0  0  0  0  0  0  0  0  0  0  0  0
   60.0140   28.7550   46.6560 C   0  0  0  0  0  0  0  0  0  0  0  0
   59.8300   27.4790   46.1680 C   0  0  0  0  0  0  0  0  0  0  0  0
   59.0050   27.3290   45.0810 C   0  0  0  0  0  0  0  0  0  0  0  0
   58.3750   28.4360   44.4970 C   0  0  0  0  0  0  0  0  0  0  0  0
   58.5540   29.7150   44.9810 C   0  0  0  0  0  0  0  0  0  0  0  0
   57.9300   30.7520   44.3860 N   0  0  0  0  0  0  0  0  0  0  0  0
   57.0430   30.6100   43.2580 C   0  0  0  0  0  0  0  0  0  0  0  0
   58.1440   31.9900   44.9000 C   0  0  0  0  0  0  0  0  0  0  0  0
   57.5520   33.1210   44.3650 C   0  0  0  0  0  0  0  0  0  0  0  0
   57.7630   34.3920   44.8850 C   0  0  0  0  0  0  0  0  0  0  0  0
   58.5780   34.5630   45.9620 C   0  0  0  0  0  0  0  0  0  0  0  0
   59.1900   33.4640   46.5280 C   0  0  0  0  0  0  0  0  0  0  0  0
   60.0020   33.6370   47.6060 O   0  0  0  0  0  0  0  0  0  0  0  0
   59.6560   34.5730   48.6060 C   0  0  0  0  0  0  0  0  0  0  0  0
   58.9800   32.1820   46.0050 C   0  0  0  0  0  0  0  0  0  0  0  0
   64.6647   32.8230   51.4952 H   0  0  0  0  0  0  0  0  0  0  0  0
   65.6004   34.0192   50.5358 H   0  0  0  0  0  0  0  0  0  0  0  0
   63.8049   34.0749   50.5358 H   0  0  0  0  0  0  0  0  0  0  0  0
   65.5135   32.7051   48.7252 H   0  0  0  0  0  0  0  0  0  0  0  0
   64.6978   31.4466   49.7529 H   0  0  0  0  0  0  0  0  0  0  0  0
   62.8230   33.9810   50.0434 H   0  0  0  0  0  0  0  0  0  0  0  0
   63.4877   34.6957   48.5354 H   0  0  0  0  0  0  0  0  0  0  0  0
   61.8471   33.9642   48.5354 H   0  0  0  0  0  0  0  0  0  0  0  0
   64.7881   32.5725   47.0140 H   0  0  0  0  0  0  0  0  0  0  0  0
   63.1865   31.7522   46.7303 H   0  0  0  0  0  0  0  0  0  0  0  0
   62.8560   34.5883   47.2370 H   0  0  0  0  0  0  0  0  0  0  0  0
   63.9609   34.2909   45.8523 H   0  0  0  0  0  0  0  0  0  0  0  0
   62.3101   33.5826   45.8523 H   0  0  0  0  0  0  0  0  0  0  0  0
   63.2015   30.7229   49.4078 H   0  0  0  0  0  0  0  0  0  0  0  0
   61.8087   31.8761   49.6190 H   0  0  0  0  0  0  0  0  0  0  0  0
   62.3389   31.3019   46.7995 H   0  0  0  0  0  0  0  0  0  0  0  0
   61.9879   29.8053   47.7576 H   0  0  0  0  0  0  0  0  0  0  0  0
   60.0510   31.5460   48.6220 H   0  0  0  0  0  0  0  0  0  0  0  0
   60.6699   28.9081   47.5257 H   0  0  0  0  0  0  0  0  0  0  0  0
   60.3256   26.6135   46.6321 H   0  0  0  0  0  0  0  0  0  0  0  0
   58.8362   26.3258   44.6626 H   0  0  0  0  0  0  0  0  0  0  0  0
   57.7190   28.2805   43.6278 H   0  0  0  0  0  0  0  0  0  0  0  0
   56.0164   30.4456   43.6172 H   0  0  0  0  0  0  0  0  0  0  0  0
   57.0760   31.5249   42.6481 H   0  0  0  0  0  0  0  0  0  0  0  0
   57.3600   29.7512   42.6481 H   0  0  0  0  0  0  0  0  0  0  0  0
   56.8889   33.0092   43.4945 H   0  0  0  0  0  0  0  0  0  0  0  0
   57.2706   35.2618   44.4256 H   0  0  0  0  0  0  0  0  0  0  0  0
   58.7468   35.5677   46.3768 H   0  0  0  0  0  0  0  0  0  0  0  0
   59.8207   34.1274   49.5981 H   0  0  0  0  0  0  0  0  0  0  0  0
   60.2814   35.4716   48.4993 H   0  0  0  0  0  0  0  0  0  0  0  0
   58.5965   34.8488   48.4993 H   0  0  0  0  0  0  0  0  0  0  0  0
  1  2  1  0
  2  3  1  0
  3  4  1  0
  3  5  1  0
  5  6  1  0
  3  7  1  0
  7  8  1  0
  8  9  1  0
  9 10  1  0
 10 11  2  0
 11 12  1  0
 12 13  2  0
 13 14  1  0
 14 15  2  0
 15 16  1  0
 16 17  2  0
 17 18  1  0
 17 19  1  0
 19 20  2  0
 20 21  1  0
 21 22  2  0
 22 23  1  0
 23 24  1  0
 24 25  1  0
 23 26  2  0
 26 10  1  0
 16 11  1  0
 26 19  1  0
  1 27  1  0
  1 28  1  0
  1 29  1  0
  2 30  1  0
  2 31  1  0
  4 32  1  0
  4 33  1  0
  4 34  1  0
  5 35  1  0
  5 36  1  0
  6 37  1  0
  6 38  1  0
  6 39  1  0
  7 40  1  0
  7 41  1  0
  8 42  1  0
  8 43  1  0
  9 44  1  0
 12 45  1  0
 13 46  1  0
 14 47  1  0
 15 48  1  0
 18 49  1  0
 18 50  1  0
 18 51  1  0
 20 52  1  0
 21 53  1  0
 22 54  1  0
 25 55  1  0
 25 56  1  0
 25 57  1  0
M  CHG  2   3   1  17   1
M  END
>  <smiles>  (3) 
CC[N+](C)(CC)CCNc1c2ccccc2[n+](C)c2cccc(OC)c12

>  <score_type>  (3) 
oracle

>  <origin>  (3) 
adg

>  <m_score__min__energy>  (3) 
-4.3499999999999996

>  <m_primary>  (3) 
energy

$$$$
3:0
     RDKit          2D

 75 79  0  0  0  0  0  0  0  0999 V2000
    8.2500   -3.8971    0.0000 C   0  0  0  0  0  0  0  0  0  0  0  0
    6.7500   -3.8971    0.0000 C   0  0  0  0  0  0  0  0  0  0  0  0
    5.2500   -3.8971    0.0000 N   0  0  0  0  0  0  0  0  0  0  0  0
    4.5000   -5.1962    0.0000 C   0  0  0  0  0  0  0  0  0  0  0  0
    3.7500   -6.4952    0.0000 C   0  0  0  0  0  0  0  0  0  0  0  0
    4.5000   -2.5981    0.0000 C   0  0  0  0  0  0  0  0  0  0  0  0
    3.7500   -1.2990    0.0000 C   0  0  0  0  0  0  0  0  0  0  0  0
    3.0000    0.0000    0.0000 N   0  0  0  0  0  0  0  0  0  0  0  0
    1.5000    0.0000    0.0000 C   0  0  0  0  0  0  0  0  0  0  0  0
    0.7500   -1.2990    0.0000 C   0  0  0  0  0  0  0  0  0  0  0  0
   -0.7500   -1.2990    0.0000 C   0  0  0  0  0  0  0  0  0  0  0  0
   -1.5000    0.0000    0.0000 N   0  0  0  0  0  0  0  0  0  0  0  0
   -3.0000    0.0000    0.0000 C   0  0  0  0  0  0  0  0  0  0  0  0
   -0.7500    1.2990    0.0000 C   0  0  0  0  0  0  0  0  0  0  0  0
   -1.5000    2.5981    0.0000 C   0  0  0  0  0  0  0  0  0  0  0  0
   -0.7500    3.8971    0.0000 C   0  0  0  0  0  0  0  0  0  0  0  0
    0.7500    3.8971    0.0000 C   0  0  0  0  0  0  0  0  0  0  0  0
    1.5000    2.5981    0.0000 C   0  0  0  0  0  0  0  0  0  0  0  0
    0.7500    1.2990    0.0000 C   0  0  0  0  0  0  0  0  0  0  0  0
   -1.6852   -2.4718    0.0000 C   0  0  0  0  0  0  0  0  0  0  0  0
   -2.7926   -3.4890    0.0000 C   0  0  0  0  0  0  0  0  0  0  0  0
   -2.5691   -4.9722    0.0000 C   0  0  0  0  0  0  0  0  0  0  0  0
   -1.1727   -5.5202    0.0000 C   0  0  0  0  0  0  0  0  0  0  0  0
   -0.0000   -4.5850    0.0000 N   0  0  0  0  0  0  0  0  0  0  0  0
   -1.3515   -3.9342    0.0000 C   0  0  0  0  0  0  0  0  0  0  0  0
   -2.5242   -4.8694    0.0000 C   0  0  0  0  0  0  0  0  0  0  0  0
   -3.6969   -5.8046    0.0000 N   0  0  0  0  0  0  0  0  0  0  0  0
   -5.0933   -5.2566    0.0000 C   0  0  0  0  0  0  0  0  0  0  0  0
   -6.2660   -6.1919    0.0000 C   0  0  0  0  0  0  0  0  0  0  0  0
   -6.0424   -7.6751    0.0000 C   0  0  0  0  0  0  0  0  0  0  0  0
   -4.6461   -8.2231    0.0000 C   0  0  0  0  0  0  0  0  0  0  0  0
   -3.4734   -7.2879    0.0000 C   0  0  0  0  0  0  0  0  0  0  0  0
    1.3515   -3.9342    0.0000 C   0  0  0  0  0  0  0  0  0  0  0  0
    1.6852   -2.4718    0.0000 C   0  0  0  0  0  0  0  0  0  0  0  0
    9.7500   -3.8971    0.0000 H   0  0  0  0  0  0  0  0  0  0  0  0
    8.2500   -2.3971    0.0000 H   0  0  0  0  0  0  0  0  0  0  0  0
    8.2500   -5.3971    0.0000 H   0  0  0  0  0  0  0  0  0  0  0  0
    6.7500   -2.3971    0.0000 H   0  0  0  0  0  0  0  0  0  0  0  0
    6.7500   -5.3971    0.0000 H   0  0  0  0  0  0  0  0  0  0  0  0
    3.3021   -4.2934    0.0000 H   0  0  0  0  0  0  0  0  0  0  0  0
    5.7990   -5.9462    0.0000 H   0  0  0  0  0  0  0  0  0  0  0  0
    3.0000   -7.7942    0.0000 H   0  0  0  0  0  0  0  0  0  0  0  0
    5.0490   -7.2452    0.0000 H   0  0  0  0  0  0  0  0  0  0  0  0
    2.3692   -5.9091    0.0000 H   0  0  0  0  0  0  0  0  0  0  0  0
    5.7990   -1.8481    0.0000 H   0  0  0  0  0  0  0  0  0  0  0  0
    3.4210   -3.6401    0.0000 H   0  0  0  0  0  0  0  0  0  0  0  0
    2.3692   -1.8851    0.0000 H   0  0  0  0  0  0  0  0  0  0  0  0
    5.0490   -0.5490    0.0000 H   0  0  0  0  0  0  0  0  0  0  0  0
    3.7500    1.2990    0.0000 H   0  0  0  0  0  0  0  0  0  0  0  0
   -4.5000    0.0000    0.0000 H   0  0  0  0  0  0  0  0  0  0  0  0
   -3.0000    1.5000    0.0000 H   0  0  0  0  0  0  0  0  0  0  0  0
   -3.0000   -1.5000    0.0000 H   0  0  0  0  0  0  0  0  0  0  0  0
   -3.0000    2.5981    0.0000 H   0  0  0  0  0  0  0  0  0  0  0  0
   -1.5000    5.1962    0.0000 H   0  0  0  0  0  0  0  0  0  0  0  0
    1.5000    5.1962    0.0000 H   0  0  0  0  0  0  0  0  0  0  0  0
    3.0000    2.5981    0.0000 H   0  0  0  0  0  0  0  0  0  0  0  0
   -4.1889   -2.9410    0.0000 H   0  0  0  0  0  0  0  0  0  0  0  0
   -3.4807   -6.1634    0.0000 H   0  0  0  0  0  0  0  0  0  0  0  0
   -0.9492   -7.0035    0.0000 H   0  0  0  0  0  0  0  0  0  0  0  0
   -3.5954   -3.8194    0.0000 H   0  0  0  0  0  0  0  0  0  0  0  0
   -1.7389   -6.1474    0.0000 H   0  0  0  0  0  0  0  0  0  0  0  0
   -6.2179   -4.2641    0.0000 H   0  0  0  0  0  0  0  0  0  0  0  0
   -4.4730   -3.8909    0.0000 H   0  0  0  0  0  0  0  0  0  0  0  0
   -7.6879   -6.6696    0.0000 H   0  0  0  0  0  0  0  0  0  0  0  0
   -6.9834   -4.8745    0.0000 H   0  0  0  0  0  0  0  0  0  0  0  0
   -6.3397   -9.1454    0.0000 H   0  0  0  0  0  0  0  0  0  0  0  0
   -7.5420   -7.6377    0.0000 H   0  0  0  0  0  0  0  0  0  0  0  0
   -3.5215   -9.2157    0.0000 H   0  0  0  0  0  0  0  0  0  0  0  0
   -5.4283   -9.5031    0.0000 H   0  0  0  0  0  0  0  0  0  0  0  0
   -2.0039   -6.9870    0.0000 H   0  0  0  0  0  0  0  0  0  0  0  0
   -2.7560   -8.6052    0.0000 H   0  0  0  0  0  0  0  0  0  0  0  0
    1.5045   -5.4264    0.0000 H   0  0  0  0  0  0  0  0  0  0  0  0
    2.8403   -4.1170    0.0000 H   0  0  0  0  0  0  0  0  0  0  0  0
    3.0367   -3.1226    0.0000 H   0  0  0  0  0  0  0  0  0  0  0  0
    2.4705   -1.1938    0.0000 H   0  0  0  0  0  0  0  0  0  0  0  0
  1  2  1  0
  2  3  1  0
  3  4  1  0
  4  5  1  0
  3  6  1  0
  6  7  1  0
  7  8  1  0
  8  9  1  0
  9 10  2  0
 10 11  1  0
 11 12  2  0
 12 13  1  0
 12 14  1  0
 14 15  2  0
 15 16  1  0
 16 17  2  0
 17 18  1  0
 18 19  2  0
 11 20  1  0
 20 21  2  0
 21 22  1  0
 22 23  2  0
 23 24  1  0
 24 25  2  0
 25 26  1  0
 26 27  1  0
 27 28  1  0
 28 29  1  0
 29 30  1  0
 30 31  1  0
 31 32  1  0
 24 33  1  0
 33 34  1  0
 19  9  1  0
 25 20  1  0
 32 27  1  0
 34 10  1  0
 19 14  1  0
  1 35  1  0
  1 36  1  0
  1 37  1  0
  2 38  1  0
  2 39  1  0
  4 40  1  0
  4 41  1  0
  5 42  1  0
  5 43  1  0
  5 44  1  0
  6 45  1  0
  6 46  1  0
  7 47  1  0
  7 48  1  0
  8 49  1  0
 13 50  1  0
 13 51  1  0
 13 52  1  0
 15 53  1  0
 16 54  1  0
 17 55  1  0
 18 56  1  0
 21 57  1  0
 22 58  1  0
 23 59  1  0
 26 60  1  0
 26 61  1  0
 28 62  1  0
 28 63  1  0
 29 64  1  0
 29 65  1  0
 30 66  1  0
 30 67  1  0
 31 68  1  0
 31 69  1  0
 32 70  1  0
 32 71  1  0
 33 72  1  0
 33 73  1  0
 34 74  1  0
 34 75  1  0
M  CHG  2  12   1  24   1
M  END
>  <smiles>  (4) 
CCN(CC)CCNc1c2c([n+](C)c3ccccc13)-c1ccc[n+](c1CN1CCCCC1)CC2

>  <m_score__min__energy>  (4) 
nan

>  <m_primary>  (4) 
energy

$$$$
4:0
     RDKit          3D

 29 29  0  0  0  0  0  0  0  0999 V2000
   63.1820   33.3520   47.1270 C   0  0  0  0  0  0  0  0  0  0  0  0
   62.0170   33.8360   46.7200 C   0  0  0  0  0  0  0  0  0  0  0  0
   60.7230   33.6040   47.4050 C   0  0  0  0  0  0  0  0  0  0  0  0
   59.5730   33.4850   46.4820 C   0  0  0  0  0  0  0  0  0  0  0  0
   59.1620   34.5940   45.7710 C   0  0  0  0  0  0  0  0  0  0  0  0
   59.8310   35.7680   45.9370 F   0  0  0  0  0  0  0  0  0  0  0  0
   58.1060   34.5760   44.8970 C   0  0  0  0  0  0  0  0  0  0  0  0
   57.4060   33.3970   44.7070 C   0  0  0  0  0  0  0  0  0  0  0  0
   57.7820   32.2550   45.4000 C   0  0  0  0  0  0  0  0  0  0  0  0
   57.1230   31.0730   45.2460 O   0  0  0  0  0  0  0  0  0  0  0  0
   57.3560   30.1130   44.2630 C   0  0  0  0  0  0  0  0  0  0  0  0
   56.2690   30.0700   43.2300 C   0  0  0  0  0  0  0  0  0  0  0  0
   58.8670   32.3110   46.2850 C   0  0  0  0  0  0  0  0  0  0  0  0
   59.3070   31.1110   47.0520 C   0  0  0  0  0  0  0  0  0  0  0  0
   64.0978   33.5725   46.5590 H   0  0  0  0  0  0  0  0  0  0  0  0
   63.2329   32.7299   48.0327 H   0  0  0  0  0  0  0  0  0  0  0  0
   62.0099   34.4534   45.8096 H   0  0  0  0  0  0  0  0  0  0  0  0
   60.7998   32.6729   47.9856 H   0  0  0  0  0  0  0  0  0  0  0  0
   60.5346   34.4816   48.0408 H   0  0  0  0  0  0  0  0  0  0  0  0
   57.8183   35.4878   44.3531 H   0  0  0  0  0  0  0  0  0  0  0  0
   56.5556   33.3655   44.0099 H   0  0  0  0  0  0  0  0  0  0  0  0
   58.3082   30.3444   43.7632 H   0  0  0  0  0  0  0  0  0  0  0  0
   57.3855   29.1306   44.7569 H   0  0  0  0  0  0  0  0  0  0  0  0
   55.2898   30.0313   43.7296 H   0  0  0  0  0  0  0  0  0  0  0  0
   56.3246   30.9710   42.6015 H   0  0  0  0  0  0  0  0  0  0  0  0
   56.3956   29.1762   42.6015 H   0  0  0  0  0  0  0  0  0  0  0  0
   59.2315   31.3168   48.1299 H   0  0  0  0  0  0  0  0  0  0  0  0
   58.6638   30.2561   46.7960 H   0  0  0  0  0  0  0  0  0  0  0  0
   60.3503   30.8745   46.7960 H   0  0  0  0  0  0  0  0  0  0  0  0
  1  2  2  0
  2  3  1  0
  3  4  1  0
  4  5  2  0
  5  6  1  0
  5  7  1  0
  7  8  2  0
  8  9  1  0
  9 10  1  0
 10 11  1  0
 11 12  1  0
  9 13  2  0
 13 14  1  0
 13  4  1  0
  1 15  1  0
  1 16  1  0
  2 17  1  0
  3 18  1  0
  3 19  1  0
  7 20  1  0
  8 21  1  0
 11 22  1  0
 11 23  1  0
 12 24  1  0
 12 25  1  0
 12 26  1  0
 14 27  1  0
 14 28  1  0
 14 29  1  0
M  END
>  <smiles>  (5) 
C=CCc1c(F)ccc(OCC)c1C

>  <score_type>  (5) 
oracle

>  <origin>  (5) 
adg

>  <m_score__min__energy>  (5) 
-5.5099999999999998

>  <m_primary>  (5) 
energy

$$$$
5:0
     RDKit          3D

 39 41  0  0  0  0  0  0  0  0999 V2000
   58.5620   27.0510   45.1460 C   0  0  0  0  0  0  0  0  0  0  0  0
   58.7040   28.2710   44.1600 C   0  0  0  0  0  0  0  0  0  0  0  0
   57.3630   28.4320   43.8230 N   0  0  0  0  0  0  0  0  0  0  0  0
   56.9280   30.0420   43.9280 S   0  0  0  0  0  0  0  0  0  0  0  0
   55.5830   29.7060   44.8690 O   0  0  0  0  0  0  0  0  0  0  0  0
   56.2620   30.5170   42.6310 O   0  0  0  0  0  0  0  0  0  0  0  0
   57.6790   31.3080   44.6330 C   0  0  0  0  0  0  0  0  0  0  0  0
   57.5900   32.5380   44.1270 C   0  0  0  0  0  0  0  0  0  0  0  0
   58.3680   33.5670   44.5880 C   0  0  0  0  0  0  0  0  0  0  0  0
   59.2700   33.3270   45.5750 C   0  0  0  0  0  0  0  0  0  0  0  0
   59.4060   32.1350   46.1550 C   0  0  0  0  0  0  0  0  0  0  0  0
   58.5590   31.0690   45.6710 C   0  0  0  0  0  0  0  0  0  0  0  0
   58.8430   30.0330   46.4900 N   0  0  0  0  0  0  0  0  0  0  0  0
   59.7280   30.3290   47.3120 C   0  0  0  0  0  0  0  0  0  0  0  0
   60.4520   29.3140   48.1680 C   0  0  0  0  0  0  0  0  0  0  0  0
   60.0890   31.5570   47.2250 N   0  0  0  0  0  0  0  0  0  0  0  0
   60.8550   32.5260   47.9920 C   0  0  0  0  0  0  0  0  0  0  0  0
   60.3370   33.2560   48.9210 C   0  0  0  0  0  0  0  0  0  0  0  0
   61.0170   34.1790   49.6800 C   0  0  0  0  0  0  0  0  0  0  0  0
   62.3870   34.2960   49.3330 C   0  0  0  0  0  0  0  0  0  0  0  0
   62.9600   33.5030   48.3160 C   0  0  0  0  0  0  0  0  0  0  0  0
   62.1140   32.5940   47.6190 C   0  0  0  0  0  0  0  0  0  0  0  0
   58.6040   27.4119   46.1843 H   0  0  0  0  0  0  0  0  0  0  0  0
   57.5993   26.5484   44.9712 H   0  0  0  0  0  0  0  0  0  0  0  0
   59.3835   26.3407   44.9712 H   0  0  0  0  0  0  0  0  0  0  0  0
   59.1138   29.1608   44.6603 H   0  0  0  0  0  0  0  0  0  0  0  0
   59.3907   28.1197   43.3141 H   0  0  0  0  0  0  0  0  0  0  0  0
   56.6100   27.8160   44.2220 H   0  0  0  0  0  0  0  0  0  0  0  0
   56.8719   32.7322   43.3167 H   0  0  0  0  0  0  0  0  0  0  0  0
   58.2635   34.5765   44.1636 H   0  0  0  0  0  0  0  0  0  0  0  0
   59.9159   34.1521   45.9098 H   0  0  0  0  0  0  0  0  0  0  0  0
   60.2867   29.5458   49.2305 H   0  0  0  0  0  0  0  0  0  0  0  0
   60.0668   28.3074   47.9481 H   0  0  0  0  0  0  0  0  0  0  0  0
   61.5292   29.3505   47.9481 H   0  0  0  0  0  0  0  0  0  0  0  0
   59.2630   33.1296   49.1225 H   0  0  0  0  0  0  0  0  0  0  0  0
   60.5443   34.7693   50.4788 H   0  0  0  0  0  0  0  0  0  0  0  0
   63.0172   35.0212   49.8686 H   0  0  0  0  0  0  0  0  0  0  0  0
   64.0288   33.5846   48.0689 H   0  0  0  0  0  0  0  0  0  0  0  0
   62.4998   31.9713   46.7983 H   0  0  0  0  0  0  0  0  0  0  0  0
  1  2  1  0
  2  3  1  0
  3  4  1  0
  4  5  2  0
  4  6  2  0
  4  7  1  0
  7  8  2  0
  8  9  1  0
  9 10  2  0
 10 11  1  0
 11 12  2  0
 12 13  1  0
 13 14  2  0
 14 15  1  0
 14 16  1  0
 16 17  1  0
 17 18  2  0
 18 19  1  0
 19 20  2  0
 20 21  1  0
 21 22  2  0
 12  7  1  0
 22 17  1  0
 16 11  1  0
  1 23  1  0
  1 24  1  0
  1 25  1  0
  2 26  1  0
  2 27  1  0
  3 28  1  0
  8 29  1  0
  9 30  1  0
 10 31  1  0
 15 32  1  0
 15 33  1  0
 15 34  1  0
 18 35  1  0
 19 36  1  0
 20 37  1  0
 21 38  1  0
 22 39  1  0
M  END
>  <smiles>  (6) 
CCNS(=O)(=O)c1cccc2c1nc(C)n2-c1ccccc1

>  <score_type>  (6) 
oracle

>  <origin>  (6) 
adg

>  <m_score__min__energy>  (6) 
-8.2799999999999994

>  <m_primary>  (6) 
energy

$$$$
6:0
     RDKit          3D

 75 77  0  0  0  0  0  0  0  0999 V2000
   63.3910   33.8460   50.4020 C   0  0  0  0  0  0  0  0  0  0  0  0
   62.6290   33.8170   49.1270 C   0  0  0  0  0  0  0  0  0  0  0  0
   62.6610   32.6100   48.3760 N   0  0  0  0  0  0  0  0  0  0  0  0
   63.5140   32.6090   47.2120 C   0  0  0  0  0  0  0  0  0  0  0  0
   63.3970   33.8610   46.3770 C   0  0  0  0  0  0  0  0  0  0  0  0
   62.5210   31.4030   49.0400 C   0  0  0  0  0  0  0  0  0  0  0  0
   61.2250   30.5630   48.6980 C   0  0  0  0  0  0  0  0  0  0  0  0
   60.7110   31.0550   47.4510 N   0  0  0  0  0  0  0  0  0  0  0  0
   59.4640   30.8340   46.7610 C   0  0  0  0  0  0  0  0  0  0  0  0
   59.3070   29.6540   46.1180 C   0  0  0  0  0  0  0  0  0  0  0  0
   59.7500   28.4100   46.6500 C   0  0  0  0  0  0  0  0  0  0  0  0
   59.5010   27.2260   45.9120 C   0  0  0  0  0  0  0  0  0  0  0  0
   58.8620   27.5120   44.7780 C   0  0  0  0  0  0  0  0  0  0  0  0
   58.3550   28.5520   44.1430 C   0  0  0  0  0  0  0  0  0  0  0  0
   58.5900   29.7470   44.9280 C   0  0  0  0  0  0  0  0  0  0  0  0
   58.0340   30.8080   44.4120 N   0  0  0  0  0  0  0  0  0  0  0  0
   57.1680   30.8500   43.2620 C   0  0  0  0  0  0  0  0  0  0  0  0
   58.1770   31.9790   45.1200 C   0  0  0  0  0  0  0  0  0  0  0  0
   57.5720   33.0260   44.6120 C   0  0  0  0  0  0  0  0  0  0  0  0
   57.8250   34.1570   45.4540 C   0  0  0  0  0  0  0  0  0  0  0  0
   58.4830   34.2780   46.5290 C   0  0  0  0  0  0  0  0  0  0  0  0
   59.2340   32.8520   47.2410 C   0  0  0  0  0  0  0  0  0  0  0  0
   59.6330   33.6190   48.2350 N   0  0  0  0  0  0  0  0  0  0  0  0
   59.0340   32.9670   49.5760 C   0  0  0  0  0  0  0  0  0  0  0  0
   59.6850   33.8440   50.6700 C   0  0  0  0  0  0  0  0  0  0  0  0
   60.1380   33.0550   51.8300 C   0  0  0  0  0  0  0  0  0  0  0  0
   59.2860   33.3140   52.9980 N   0  0  0  0  0  0  0  0  0  0  0  0
   58.5340   34.5530   52.7260 C   0  0  0  0  0  0  0  0  0  0  0  0
   60.1940   33.6130   54.0940 C   0  0  0  0  0  0  0  0  0  0  0  0
   58.3860   32.2510   53.2650 C   0  0  0  0  0  0  0  0  0  0  0  0
   57.1490   32.2530   52.3660 C   0  0  0  0  0  0  0  0  0  0  0  0
   58.8470   32.1100   46.2760 C   0  0  0  0  0  0  0  0  0  0  0  0
   62.6897   33.8193   51.2490 H   0  0  0  0  0  0  0  0  0  0  0  0
   64.0579   32.9726   50.4505 H   0  0  0  0  0  0  0  0  0  0  0  0
   63.9896   34.7676   50.4505 H   0  0  0  0  0  0  0  0  0  0  0  0
   61.5766   34.0298   49.3660 H   0  0  0  0  0  0  0  0  0  0  0  0
   63.1226   34.5620   48.4857 H   0  0  0  0  0  0  0  0  0  0  0  0
   64.5575   32.5095   47.5455 H   0  0  0  0  0  0  0  0  0  0  0  0
   63.1955   31.7677   46.5789 H   0  0  0  0  0  0  0  0  0  0  0  0
   63.3152   34.7363   47.0381 H   0  0  0  0  0  0  0  0  0  0  0  0
   64.2895   33.9631   45.7422 H   0  0  0  0  0  0  0  0  0  0  0  0
   62.5010   33.7960   45.7422 H   0  0  0  0  0  0  0  0  0  0  0  0
   63.3965   30.7829   48.7969 H   0  0  0  0  0  0  0  0  0  0  0  0
   62.4307   31.6622   50.1052 H   0  0  0  0  0  0  0  0  0  0  0  0
   61.4814   29.4974   48.6047 H   0  0  0  0  0  0  0  0  0  0  0  0
   60.4740   30.6658   49.4952 H   0  0  0  0  0  0  0  0  0  0  0  0
   61.4580   31.5480   46.9410 H   0  0  0  0  0  0  0  0  0  0  0  0
   60.2755   28.3686   47.6155 H   0  0  0  0  0  0  0  0  0  0  0  0
   59.7936   26.2145   46.2301 H   0  0  0  0  0  0  0  0  0  0  0  0
   58.7098   26.5965   44.1876 H   0  0  0  0  0  0  0  0  0  0  0  0
   57.8370   28.5172   43.1732 H   0  0  0  0  0  0  0  0  0  0  0  0
   56.1204   30.9008   43.5936 H   0  0  0  0  0  0  0  0  0  0  0  0
   57.4046   31.7377   42.6571 H   0  0  0  0  0  0  0  0  0  0  0  0
   57.3176   29.9435   42.6571 H   0  0  0  0  0  0  0  0  0  0  0  0
   56.9698   33.0343   43.6915 H   0  0  0  0  0  0  0  0  0  0  0  0
   57.3631   35.0913   45.1023 H   0  0  0  0  0  0  0  0  0  0  0  0
   58.5845   35.2609   47.0123 H   0  0  0  0  0  0  0  0  0  0  0  0
   60.1130   34.4180   48.5220 H   0  0  0  0  0  0  0  0  0  0  0  0
   57.9369   33.0418   49.6026 H   0  0  0  0  0  0  0  0  0  0  0  0
   59.2441   31.8925   49.6820 H   0  0  0  0  0  0  0  0  0  0  0  0
   60.5522   34.3634   50.2362 H   0  0  0  0  0  0  0  0  0  0  0  0
   58.9244   34.5548   51.0254 H   0  0  0  0  0  0  0  0  0  0  0  0
   60.0917   31.9850   51.5793 H   0  0  0  0  0  0  0  0  0  0  0  0
   61.1706   33.3452   52.0739 H   0  0  0  0  0  0  0  0  0  0  0  0
   58.2478   35.0246   53.6777 H   0  0  0  0  0  0  0  0  0  0  0  0
   59.1644   35.2453   52.1487 H   0  0  0  0  0  0  0  0  0  0  0  0
   57.6289   34.3133   52.1487 H   0  0  0  0  0  0  0  0  0  0  0  0
   59.6806   33.4439   55.0520 H   0  0  0  0  0  0  0  0  0  0  0  0
   61.0750   32.9575   54.0295 H   0  0  0  0  0  0  0  0  0  0  0  0
   60.5132   34.6637   54.0295 H   0  0  0  0  0  0  0  0  0  0  0  0
   58.9191   31.2998   53.1201 H   0  0  0  0  0  0  0  0  0  0  0  0
   58.0327   32.3806   54.2986 H   0  0  0  0  0  0  0  0  0  0  0  0
   56.2427   32.2545   52.9894 H   0  0  0  0  0  0  0  0  0  0  0  0
   57.1587   33.1511   51.7310 H   0  0  0  0  0  0  0  0  0  0  0  0
   57.1558   31.3548   51.7310 H   0  0  0  0  0  0  0  0  0  0  0  0
  1  2  1  0
  2  3  1  0
  3  4  1  0
  4  5  1  0
  3  6  1  0
  6  7  1  0
  7  8  1  0
  8  9  1  0
  9 10  2  0
 10 11  1  0
 11 12  2  0
 12 13  1  0
 13 14  2  0
 14 15  1  0
 15 16  2  0
 16 17  1  0
 16 18  1  0
 18 19  2  0
 19 20  1  0
 20 21  2  0
 21 22  1  0
 22 23  1  0
 23 24  1  0
 24 25  1  0
 25 26  1  0
 26 27  1  0
 27 28  1  0
 27 29  1  0
 27 30  1  0
 30 31  1  0
 22 32  2  0
 32  9  1  0
 15 10  1  0
 32 18  1  0
  1 33  1  0
  1 34  1  0
  1 35  1  0
  2 36  1  0
  2 37  1  0
  4 38  1  0
  4 39  1  0
  5 40  1  0
  5 41  1  0
  5 42  1  0
  6 43  1  0
  6 44  1  0
  7 45  1  0
  7 46  1  0
  8 47  1  0
 11 48  1  0
 12 49  1  0
 13 50  1  0
 14 51  1  0
 17 52  1  0
 17 53  1  0
 17 54  1  0
 19 55  1  0
 20 56  1  0
 21 57  1  0
 23 58  1  0
 24 59  1  0
 24 60  1  0
 25 61  1  0
 25 62  1  0
 26 63  1  0
 26 64  1  0
 28 65  1  0
 28 66  1  0
 28 67  1  0
 29 68  1  0
 29 69  1  0
 29 70  1  0
 30 71  1  0
 30 72  1  0
 31 73  1  0
 31 74  1  0
 31 75  1  0
M  CHG  2  16   1  27   1
M  END
>  <smiles>  (7) 
CCN(CC)CCNc1c2ccccc2[n+](C)c2cccc(NCCC[N+](C)(C)CC)c12

>  <score_type>  (7) 
oracle

>  <origin>  (7) 
adg

>  <m_score__min__energy>  (7) 
-4.46

>  <m_primary>  (7) 
energy

$$$$
7:0
     RDKit          3D

 76 79  0  0  0  0  0  0  0  0999 V2000
   56.8930   31.1970   51.6480 C   0  0  0  0  0  0  0  0  0  0  0  0
   57.9750   30.2550   51.2410 C   0  0  0  0  0  0  0  0  0  0  0  0
   59.2250   30.9220   50.8780 N   0  0  0  0  0  0  0  0  0  0  0  0
   59.8990   31.3900   52.0770 C   0  0  0  0  0  0  0  0  0  0  0  0
   60.0610   30.0480   50.0910 C   0  0  0  0  0  0  0  0  0  0  0  0
   59.8110   30.0320   48.6280 C   0  0  0  0  0  0  0  0  0  0  0  0
   58.6430   30.8750   48.2730 N   0  0  0  0  0  0  0  0  0  0  0  0
   58.5810   31.4270   46.9750 C   0  0  0  0  0  0  0  0  0  0  0  0
   58.1590   30.5250   45.9810 C   0  0  0  0  0  0  0  0  0  0  0  0
   57.8870   29.2060   46.3230 C   0  0  0  0  0  0  0  0  0  0  0  0
   57.4740   28.2510   45.4220 C   0  0  0  0  0  0  0  0  0  0  0  0
   57.3250   28.6410   44.1140 C   0  0  0  0  0  0  0  0  0  0  0  0
   57.5930   29.9600   43.7510 C   0  0  0  0  0  0  0  0  0  0  0  0
   58.0050   30.8940   44.6710 C   0  0  0  0  0  0  0  0  0  0  0  0
   58.2640   32.1610   44.3160 N   0  0  0  0  0  0  0  0  0  0  0  0
   58.1300   32.6460   42.9760 C   0  0  0  0  0  0  0  0  0  0  0  0
   58.6700   33.0360   45.2570 C   0  0  0  0  0  0  0  0  0  0  0  0
   58.9190   34.3290   44.8590 C   0  0  0  0  0  0  0  0  0  0  0  0
   59.3300   35.2790   45.7590 C   0  0  0  0  0  0  0  0  0  0  0  0
   59.4900   34.9020   47.0840 C   0  0  0  0  0  0  0  0  0  0  0  0
   59.2540   33.6140   47.5420 C   0  0  0  0  0  0  0  0  0  0  0  0
   59.5580   33.3370   48.8870 N   0  0  0  0  0  0  0  0  0  0  0  0
   60.5330   34.1960   49.5930 C   0  0  0  0  0  0  0  0  0  0  0  0
   61.6140   33.4040   50.2670 C   0  0  0  0  0  0  0  0  0  0  0  0
   62.9160   34.0090   49.8490 C   0  0  0  0  0  0  0  0  0  0  0  0
   63.7080   33.2930   48.9250 N   0  0  0  0  0  0  0  0  0  0  0  0
   65.0680   33.0570   49.4060 C   0  0  0  0  0  0  0  0  0  0  0  0
   65.1580   31.9570   50.4090 C   0  0  0  0  0  0  0  0  0  0  0  0
   63.7650   33.8780   47.6310 C   0  0  0  0  0  0  0  0  0  0  0  0
   62.7350   33.1980   46.7460 C   0  0  0  0  0  0  0  0  0  0  0  0
   62.2240   32.0320   47.5440 C   0  0  0  0  0  0  0  0  0  0  0  0
   63.1180   31.9550   48.7480 C   0  0  0  0  0  0  0  0  0  0  0  0
   58.8400   32.7010   46.5990 C   0  0  0  0  0  0  0  0  0  0  0  0
   56.8404   31.2428   52.7458 H   0  0  0  0  0  0  0  0  0  0  0  0
   57.1100   32.1989   51.2492 H   0  0  0  0  0  0  0  0  0  0  0  0
   55.9305   30.8442   51.2492 H   0  0  0  0  0  0  0  0  0  0  0  0
   58.1758   29.5724   52.0799 H   0  0  0  0  0  0  0  0  0  0  0  0
   57.6206   29.7236   50.3454 H   0  0  0  0  0  0  0  0  0  0  0  0
   59.3661   31.0200   52.9653 H   0  0  0  0  0  0  0  0  0  0  0  0
   60.9329   31.0144   52.0867 H   0  0  0  0  0  0  0  0  0  0  0  0
   59.9083   32.4899   52.0867 H   0  0  0  0  0  0  0  0  0  0  0  0
   61.1058   30.3543   50.2481 H   0  0  0  0  0  0  0  0  0  0  0  0
   59.8258   29.0308   50.4374 H   0  0  0  0  0  0  0  0  0  0  0  0
   60.7012   30.4153   48.1079 H   0  0  0  0  0  0  0  0  0  0  0  0
   59.5985   28.9968   48.3227 H   0  0  0  0  0  0  0  0  0  0  0  0
   57.9000   31.0800   49.0100 H   0  0  0  0  0  0  0  0  0  0  0  0
   58.0088   28.9078   47.3748 H   0  0  0  0  0  0  0  0  0  0  0  0
   57.2714   27.2168   45.7372 H   0  0  0  0  0  0  0  0  0  0  0  0
   56.9955   27.9156   43.3556 H   0  0  0  0  0  0  0  0  0  0  0  0
   57.4714   30.2612   42.7001 H   0  0  0  0  0  0  0  0  0  0  0  0
   57.8371   33.7061   42.9973 H   0  0  0  0  0  0  0  0  0  0  0  0
   59.0907   32.5415   42.4504 H   0  0  0  0  0  0  0  0  0  0  0  0
   57.3592   32.0631   42.4504 H   0  0  0  0  0  0  0  0  0  0  0  0
   58.7864   34.6054   43.8026 H   0  0  0  0  0  0  0  0  0  0  0  0
   59.5275   36.3125   45.4383 H   0  0  0  0  0  0  0  0  0  0  0  0
   59.8204   35.6618   47.8075 H   0  0  0  0  0  0  0  0  0  0  0  0
   59.2200   32.5790   49.4910 H   0  0  0  0  0  0  0  0  0  0  0  0
   60.9968   34.8764   48.8636 H   0  0  0  0  0  0  0  0  0  0  0  0
   59.9883   34.7490   50.3725 H   0  0  0  0  0  0  0  0  0  0  0  0
   61.5020   33.4635   51.3597 H   0  0  0  0  0  0  0  0  0  0  0  0
   61.5621   32.3427   49.9825 H   0  0  0  0  0  0  0  0  0  0  0  0
   62.6937   34.9886   49.4008 H   0  0  0  0  0  0  0  0  0  0  0  0
   63.5181   34.0338   50.7692 H   0  0  0  0  0  0  0  0  0  0  0  0
   65.7022   32.7973   48.5456 H   0  0  0  0  0  0  0  0  0  0  0  0
   65.4013   33.9793   49.9042 H   0  0  0  0  0  0  0  0  0  0  0  0
   65.1232   32.3817   51.4231 H   0  0  0  0  0  0  0  0  0  0  0  0
   64.3134   31.2657   50.2719 H   0  0  0  0  0  0  0  0  0  0  0  0
   66.1037   31.4122   50.2719 H   0  0  0  0  0  0  0  0  0  0  0  0
   63.5423   34.9530   47.7002 H   0  0  0  0  0  0  0  0  0  0  0  0
   64.7707   33.7492   47.2044 H   0  0  0  0  0  0  0  0  0  0  0  0
   61.9141   33.8910   46.5099 H   0  0  0  0  0  0  0  0  0  0  0  0
   63.1699   32.8766   45.7881 H   0  0  0  0  0  0  0  0  0  0  0  0
   61.1807   32.2011   47.8488 H   0  0  0  0  0  0  0  0  0  0  0  0
   62.2378   31.0987   46.9620 H   0  0  0  0  0  0  0  0  0  0  0  0
   62.5328   31.6783   49.6374 H   0  0  0  0  0  0  0  0  0  0  0  0
   63.8998   31.1933   48.6116 H   0  0  0  0  0  0  0  0  0  0  0  0
  1  2  1  0
  2  3  1  0
  3  4  1  0
  3  5  1  0
  5  6  1  0
  6  7  1  0
  7  8  1  0
  8  9  2  0
  9 10  1  0
 10 11  2  0
 11 12  1  0
 12 13  2  0
 13 14  1  0
 14 15  2  0
 15 16  1  0
 15 17  1  0
 17 18  2  0
 18 19  1  0
 19 20  2  0
 20 21  1  0
 21 22  1  0
 22 23  1  0
 23 24  1  0
 24 25  1  0
 25 26  1  0
 26 27  1  0
 27 28  1  0
 26 29  1  0
 29 30  1  0
 30 31  1  0
 31 32  1  0
 21 33  2  0
 33  8  1  0
 14  9  1  0
 33 17  1  0
 32 26  1  0
  1 34  1  0
  1 35  1  0
  1 36  1  0
  2 37  1  0
  2 38  1  0
  4 39  1  0
  4 40  1  0
  4 41  1  0
  5 42  1  0
  5 43  1  0
  6 44  1  0
  6 45  1  0
  7 46  1  0
 10 47  1  0
 11 48  1  0
 12 49  1  0
 13 50  1  0
 16 51  1  0
 16 52  1  0
 16 53  1  0
 18 54  1  0
 19 55  1  0
 20 56  1  0
 22 57  1  0
 23 58  1  0
 23 59  1  0
 24 60  1  0
 24 61  1  0
 25 62  1  0
 25 63  1  0
 27 64  1  0
 27 65  1  0
 28 66  1  0
 28 67  1  0
 28 68  1  0
 29 69  1  0
 29 70  1  0
 30 71  1  0
 30 72  1  0
 31 73  1  0
 31 74  1  0
 32 75  1  0
 32 76  1  0
M  CHG  2  15   1  26   1
M  END
>  <smiles>  (8) 
CCN(C)CCNc1c2ccccc2[n+](C)c2cccc(NCCC[N+]3(CC)CCCC3)c12

>  <score_type>  (8) 
oracle

>  <origin>  (8) 
adg

>  <m_score__min__energy>  (8) 
-4.9900000000000002

>  <m_primary>  (8) 
energy

$$$$
9:0
     RDKit          3D

 44 46  0  0  0  0  0  0  0  0999 V2000
   58.8510   34.1920   45.6540 C   0  0  0  0  0  0  0  0  0  0  0  0
   58.4420   33.0180   46.5570 C   0  0  0  0  0  0  0  0  0  0  0  0
   57.3480   32.3820   45.9050 N   0  0  0  0  0  0  0  0  0  0  0  0
   57.3870   32.3200   44.4850 C   0  0  0  0  0  0  0  0  0  0  0  0
   56.8240   31.0440   43.8850 C   0  0  0  0  0  0  0  0  0  0  0  0
   56.5710   30.0840   44.8270 O   0  0  0  0  0  0  0  0  0  0  0  0
   57.2370   28.9030   44.5320 C   0  0  0  0  0  0  0  0  0  0  0  0
   57.1760   27.8540   45.6020 C   0  0  0  0  0  0  0  0  0  0  0  0
   58.5470   27.5290   46.0980 C   0  0  0  0  0  0  0  0  0  0  0  0
   59.3420   28.6520   46.5110 N   0  0  0  0  0  0  0  0  0  0  0  0
   60.3840   29.0880   45.7820 C   0  0  0  0  0  0  0  0  0  0  0  0
   61.1770   30.0950   46.0850 N   0  0  0  0  0  0  0  0  0  0  0  0
   60.9950   30.8300   47.2440 C   0  0  0  0  0  0  0  0  0  0  0  0
   59.9050   30.3510   47.9760 C   0  0  0  0  0  0  0  0  0  0  0  0
   59.8540   31.4750   49.4690 S   0  0  0  0  0  0  0  0  0  0  0  0
   61.3490   32.4720   48.8960 C   0  0  0  0  0  0  0  0  0  0  0  0
   61.9140   33.4910   49.4960 C   0  0  0  0  0  0  0  0  0  0  0  0
   63.0270   34.1030   48.9020 C   0  0  0  0  0  0  0  0  0  0  0  0
   63.4270   33.5530   47.7110 C   0  0  0  0  0  0  0  0  0  0  0  0
   62.8200   32.4850   47.1000 C   0  0  0  0  0  0  0  0  0  0  0  0
   61.6910   31.8580   47.6950 C   0  0  0  0  0  0  0  0  0  0  0  0
   59.1050   29.3260   47.6590 C   0  0  0  0  0  0  0  0  0  0  0  0
   58.1590   29.0220   48.4330 O   0  0  0  0  0  0  0  0  0  0  0  0
   59.1491   35.0477   46.2776 H   0  0  0  0  0  0  0  0  0  0  0  0
   59.6965   33.8889   45.0190 H   0  0  0  0  0  0  0  0  0  0  0  0
   58.0002   34.4799   45.0190 H   0  0  0  0  0  0  0  0  0  0  0  0
   59.2797   32.3144   46.6715 H   0  0  0  0  0  0  0  0  0  0  0  0
   58.1647   33.3628   47.5641 H   0  0  0  0  0  0  0  0  0  0  0  0
   57.0230   31.5380   46.3800 H   0  0  0  0  0  0  0  0  0  0  0  0
   56.8080   33.1678   44.0900 H   0  0  0  0  0  0  0  0  0  0  0  0
   58.4501   32.3500   44.2040 H   0  0  0  0  0  0  0  0  0  0  0  0
   55.8843   31.2840   43.3660 H   0  0  0  0  0  0  0  0  0  0  0  0
   57.5789   30.6406   43.1941 H   0  0  0  0  0  0  0  0  0  0  0  0
   56.7953   28.4822   43.6166 H   0  0  0  0  0  0  0  0  0  0  0  0
   58.2989   29.1689   44.4238 H   0  0  0  0  0  0  0  0  0  0  0  0
   56.5675   28.2265   46.4392 H   0  0  0  0  0  0  0  0  0  0  0  0
   56.7260   26.9430   45.1805 H   0  0  0  0  0  0  0  0  0  0  0  0
   58.4434   26.8530   46.9596 H   0  0  0  0  0  0  0  0  0  0  0  0
   59.0776   27.0838   45.2434 H   0  0  0  0  0  0  0  0  0  0  0  0
   60.5941   28.5533   44.8440 H   0  0  0  0  0  0  0  0  0  0  0  0
   61.5199   33.8616   50.4538 H   0  0  0  0  0  0  0  0  0  0  0  0
   63.5417   34.9616   49.3580 H   0  0  0  0  0  0  0  0  0  0  0  0
   64.2976   34.0006   47.2093 H   0  0  0  0  0  0  0  0  0  0  0  0
   63.2100   32.1107   46.1420 H   0  0  0  0  0  0  0  0  0  0  0  0
  1  2  1  0
  2  3  1  0
  3  4  1  0
  4  5  1  0
  5  6  1  0
  6  7  1  0
  7  8  1  0
  8  9  1  0
  9 10  1  0
 10 11  1  0
 11 12  2  0
 12 13  1  0
 13 14  2  0
 14 15  1  0
 15 16  1  0
 16 17  2  0
 17 18  1  0
 18 19  2  0
 19 20  1  0
 20 21  2  0
 14 22  1  0
 22 23  2  0
 22 10  1  0
 21 13  1  0
 21 16  1  0
  1 24  1  0
  1 25  1  0
  1 26  1  0
  2 27  1  0
  2 28  1  0
  3 29  1  0
  4 30  1  0
  4 31  1  0
  5 32  1  0
  5 33  1  0
  7 34  1  0
  7 35  1  0
  8 36  1  0
  8 37  1  0
  9 38  1  0
  9 39  1  0
 11 40  1  0
 17 41  1  0
 18 42  1  0
 19 43  1  0
 20 44  1  0
M  END
>  <smiles>  (9) 
CCNCCOCCCn1cnc2c(sc3ccccc32)c1=O

>  <score_type>  (9) 
oracle

>  <origin>  (9) 
adg

>  <m_score__min__energy>  (9) 
-7.6299999999999999

>  <m_primary>  (9) 
energy

$$$$
10:0
     RDKit          3D

 27 28  0  0  0  0  0  0  0  0999 V2000
   57.0110   34.2200   45.0540 C   0  0  0  0  0  0  0  0  0  0  0  0
   58.3380   34.0950   45.6250 N   0  0  0  0  0  0  0  0  0  0  0  0
   59.2590   35.0360   45.6880 N   0  0  0  0  0  0  0  0  0  0  0  0
   60.3760   34.5400   46.2960 C   0  0  0  0  0  0  0  0  0  0  0  0
   60.1070   33.2270   46.6150 C   0  0  0  0  0  0  0  0  0  0  0  0
   61.3190   32.0350   47.4880 Br  0  0  0  0  0  0  0  0  0  0  0  0
   58.8200   32.9700   46.1840 C   0  0  0  0  0  0  0  0  0  0  0  0
   58.1430   31.6420   46.3460 C   0  0  0  0  0  0  0  0  0  0  0  0
   57.2910   31.3190   45.2710 N   0  0  0  0  0  0  0  0  0  0  0  0
   57.8430   30.6870   44.1360 C   0  0  0  0  0  0  0  0  0  0  0  0
   57.0220   31.0050   42.8780 C   0  0  0  0  0  0  0  0  0  0  0  0
   56.0250   29.9890   43.4150 C   0  0  0  0  0  0  0  0  0  0  0  0
   57.2490   29.2750   44.0050 C   0  0  0  0  0  0  0  0  0  0  0  0
   56.2689   34.2899   45.8629 H   0  0  0  0  0  0  0  0  0  0  0  0
   56.9630   35.1266   44.4330 H   0  0  0  0  0  0  0  0  0  0  0  0
   56.7945   33.3383   44.4330 H   0  0  0  0  0  0  0  0  0  0  0  0
   61.3114   35.0842   46.4934 H   0  0  0  0  0  0  0  0  0  0  0  0
   58.9156   30.8631   46.4262 H   0  0  0  0  0  0  0  0  0  0  0  0
   57.5202   31.7005   47.2508 H   0  0  0  0  0  0  0  0  0  0  0  0
   56.3200   31.5930   45.2840 H   0  0  0  0  0  0  0  0  0  0  0  0
   58.9184   30.9030   44.2183 H   0  0  0  0  0  0  0  0  0  0  0  0
   56.6472   32.0372   42.8147 H   0  0  0  0  0  0  0  0  0  0  0  0
   57.4421   30.9472   41.8630 H   0  0  0  0  0  0  0  0  0  0  0  0
   55.3128   30.3817   44.1557 H   0  0  0  0  0  0  0  0  0  0  0  0
   55.2915   29.4792   42.7731 H   0  0  0  0  0  0  0  0  0  0  0  0
   57.0721   28.7515   44.9561 H   0  0  0  0  0  0  0  0  0  0  0  0
   57.7677   28.4517   43.4921 H   0  0  0  0  0  0  0  0  0  0  0  0
  1  2  1  0
  2  3  1  0
  3  4  2  0
  4  5  1  0
  5  6  1  0
  5  7  2  0
  7  8  1  0
  8  9  1  0
  9 10  1  0
 10 11  1  0
 11 12  1  0
 12 13  1  0
  7  2  1  0
 13 10  1  0
  1 14  1  0
  1 15  1  0
  1 16  1  0
  4 17  1  0
  8 18  1  0
  8 19  1  0
  9 20  1  0
 10 21  1  0
 11 22  1  0
 11 23  1  0
 12 24  1  0
 12 25  1  0
 13 26  1  0
 13 27  1  0
M  END
>  <smiles>  (10) 
Cn1ncc(Br)c1CNC1CCC1

>  <score_type>  (10) 
oracle

>  <origin>  (10) 
adg

>  <m_score__min__energy>  (10) 
-5.5300000000000002

>  <m_primary>  (10) 
energy

$$$$
11:0
     RDKit          3D

 48 51  0  0  0  0  0  0  0  0999 V2000
   58.8940   34.5890   53.2130 Br  0  0  0  0  0  0  0  0  0  0  0  0
   59.0350   33.5170   51.6270 C   0  0  0  0  0  0  0  0  0  0  0  0
   59.5820   33.9760   50.5040 N   0  0  0  0  0  0  0  0  0  0  0  0
   59.7220   33.2970   49.3520 C   0  0  0  0  0  0  0  0  0  0  0  0
   60.3240   34.0030   48.2030 C   0  0  0  0  0  0  0  0  0  0  0  0
   59.4080   34.0120   47.0130 C   0  0  0  0  0  0  0  0  0  0  0  0
   58.0510   33.8200   47.1170 C   0  0  0  0  0  0  0  0  0  0  0  0
   57.2780   33.8470   45.9720 C   0  0  0  0  0  0  0  0  0  0  0  0
   57.8630   34.0650   44.7210 C   0  0  0  0  0  0  0  0  0  0  0  0
   59.2340   34.2580   44.6250 C   0  0  0  0  0  0  0  0  0  0  0  0
   60.0070   34.2290   45.7910 C   0  0  0  0  0  0  0  0  0  0  0  0
   59.2680   32.0110   49.2990 C   0  0  0  0  0  0  0  0  0  0  0  0
   59.3530   31.1350   48.2080 N   0  0  0  0  0  0  0  0  0  0  0  0
   60.5140   30.7670   47.4670 C   0  0  0  0  0  0  0  0  0  0  0  0
   60.3380   29.7540   46.3770 C   0  0  0  0  0  0  0  0  0  0  0  0
   59.0180   29.3560   46.2920 O   0  0  0  0  0  0  0  0  0  0  0  0
   58.1230   29.7110   45.3470 C   0  0  0  0  0  0  0  0  0  0  0  0
   58.5460   30.6670   44.4140 C   0  0  0  0  0  0  0  0  0  0  0  0
   57.7420   31.1260   43.4000 C   0  0  0  0  0  0  0  0  0  0  0  0
   56.4580   30.6570   43.2530 C   0  0  0  0  0  0  0  0  0  0  0  0
   56.0150   29.7190   44.1530 C   0  0  0  0  0  0  0  0  0  0  0  0
   56.8390   29.2580   45.1830 C   0  0  0  0  0  0  0  0  0  0  0  0
   58.6840   31.4960   50.4630 C   0  0  0  0  0  0  0  0  0  0  0  0
   58.1870   30.1930   50.4980 C   0  0  0  0  0  0  0  0  0  0  0  0
   57.6240   29.6960   51.6130 N   0  0  0  0  0  0  0  0  0  0  0  0
   57.5120   30.4320   52.7450 C   0  0  0  0  0  0  0  0  0  0  0  0
   57.9880   31.7430   52.7780 C   0  0  0  0  0  0  0  0  0  0  0  0
   58.5600   32.2210   51.6190 C   0  0  0  0  0  0  0  0  0  0  0  0
   60.5382   35.0415   48.4955 H   0  0  0  0  0  0  0  0  0  0  0  0
   61.2463   33.4739   47.9211 H   0  0  0  0  0  0  0  0  0  0  0  0
   57.5864   33.6471   48.0990 H   0  0  0  0  0  0  0  0  0  0  0  0
   56.1910   33.6954   46.0455 H   0  0  0  0  0  0  0  0  0  0  0  0
   57.2385   34.0835   43.8156 H   0  0  0  0  0  0  0  0  0  0  0  0
   59.7060   34.4312   43.6466 H   0  0  0  0  0  0  0  0  0  0  0  0
   61.0950   34.3797   45.7321 H   0  0  0  0  0  0  0  0  0  0  0  0
   58.4350   30.6870   47.8990 H   0  0  0  0  0  0  0  0  0  0  0  0
   60.9166   31.6815   47.0070 H   0  0  0  0  0  0  0  0  0  0  0  0
   61.1764   30.2829   48.1997 H   0  0  0  0  0  0  0  0  0  0  0  0
   60.6443   30.1977   45.4182 H   0  0  0  0  0  0  0  0  0  0  0  0
   60.9594   28.8755   46.6054 H   0  0  0  0  0  0  0  0  0  0  0  0
   59.5671   31.0674   44.4976 H   0  0  0  0  0  0  0  0  0  0  0  0
   58.1298   31.8779   42.6969 H   0  0  0  0  0  0  0  0  0  0  0  0
   55.8084   31.0203   42.4430 H   0  0  0  0  0  0  0  0  0  0  0  0
   54.9927   29.3234   44.0613 H   0  0  0  0  0  0  0  0  0  0  0  0
   56.4453   28.5079   45.8846 H   0  0  0  0  0  0  0  0  0  0  0  0
   58.2569   29.5625   49.5994 H   0  0  0  0  0  0  0  0  0  0  0  0
   57.0448   29.9950   53.6399 H   0  0  0  0  0  0  0  0  0  0  0  0
   57.9107   32.3635   53.6830 H   0  0  0  0  0  0  0  0  0  0  0  0
  1  2  1  0
  2  3  2  0
  3  4  1  0
  4  5  1  0
  5  6  1  0
  6  7  2  0
  7  8  1  0
  8  9  2  0
  9 10  1  0
 10 11  2  0
  4 12  2  0
 12 13  1  0
 13 14  1  0
 14 15  1  0
 15 16  1  0
 16 17  1  0
 17 18  2  0
 18 19  1  0
 19 20  2  0
 20 21  1  0
 21 22  2  0
 12 23  1  0
 23 24  2  0
 24 25  1  0
 25 26  2  0
 26 27  1  0
 27 28  2  0
 28  2  1  0
 11  6  1  0
 22 17  1  0
 28 23  1  0
  5 29  1  0
  5 30  1  0
  7 31  1  0
  8 32  1  0
  9 33  1  0
 10 34  1  0
 11 35  1  0
 13 36  1  0
 14 37  1  0
 14 38  1  0
 15 39  1  0
 15 40  1  0
 18 41  1  0
 19 42  1  0
 20 43  1  0
 21 44  1  0
 22 45  1  0
 24 46  1  0
 26 47  1  0
 27 48  1  0
M  END
>  <smiles>  (11) 
Brc1nc(Cc2ccccc2)c(NCCOc2ccccc2)c2cnccc12

>  <score_type>  (11) 
oracle

>  <origin>  (11) 
adg

>  <m_score__min__energy>  (11) 
-8.1799999999999997

>  <m_primary>  (11) 
energy

$$$$
12:0
     RDKit          3D

 60 62  0  0  0  0  0  0  0  0999 V2000
   54.9880   23.6920   44.4600 C   0  0  0  0  0  0  0  0  0  0  0  0
   54.7290   24.6240   45.6250 C   0  0  0  0  0  0  0  0  0  0  0  0
   55.8870   25.2180   46.1850 N   0  0  0  0  0  0  0  0  0  0  0  0
   56.3210   24.4890   47.3910 C   0  0  0  0  0  0  0  0  0  0  0  0
   57.7030   24.8510   47.8230 C   0  0  0  0  0  0  0  0  0  0  0  0
   57.0250   25.3890   45.3790 C   0  0  0  0  0  0  0  0  0  0  0  0
   57.6540   26.7200   45.2510 C   0  0  0  0  0  0  0  0  0  0  0  0
   57.1050   27.7570   46.0440 N   0  0  0  0  0  0  0  0  0  0  0  0
   57.7070   29.0620   45.9340 C   0  0  0  0  0  0  0  0  0  0  0  0
   57.4810   29.8460   44.8290 C   0  0  0  0  0  0  0  0  0  0  0  0
   56.6810   29.3180   43.8420 C   0  0  0  0  0  0  0  0  0  0  0  0
   56.4760   30.0880   42.7230 C   0  0  0  0  0  0  0  0  0  0  0  0
   57.0360   31.3310   42.5770 C   0  0  0  0  0  0  0  0  0  0  0  0
   57.8290   31.8150   43.5960 C   0  0  0  0  0  0  0  0  0  0  0  0
   58.0760   31.0830   44.7620 C   0  0  0  0  0  0  0  0  0  0  0  0
   58.8770   31.5870   45.7240 N   0  0  0  0  0  0  0  0  0  0  0  0
   59.3120   32.9390   45.5690 C   0  0  0  0  0  0  0  0  0  0  0  0
   59.1150   30.8390   46.8070 C   0  0  0  0  0  0  0  0  0  0  0  0
   59.9340   31.2880   47.7770 C   0  0  0  0  0  0  0  0  0  0  0  0
   60.7140   32.4580   47.8460 N   0  0  0  0  0  0  0  0  0  0  0  0
   60.3050   33.7370   48.4050 C   0  0  0  0  0  0  0  0  0  0  0  0
   61.9930   32.4550   47.1380 C   0  0  0  0  0  0  0  0  0  0  0  0
   63.0330   33.3990   47.5780 C   0  0  0  0  0  0  0  0  0  0  0  0
   60.1470   30.4270   48.8860 C   0  0  0  0  0  0  0  0  0  0  0  0
   59.5710   29.1970   48.9950 C   0  0  0  0  0  0  0  0  0  0  0  0
   58.7480   28.7490   48.0030 C   0  0  0  0  0  0  0  0  0  0  0  0
   58.5290   29.5720   46.9180 C   0  0  0  0  0  0  0  0  0  0  0  0
   55.2644   22.6976   44.8404 H   0  0  0  0  0  0  0  0  0  0  0  0
   54.0785   23.6102   43.8466 H   0  0  0  0  0  0  0  0  0  0  0  0
   55.8092   24.0912   43.8466 H   0  0  0  0  0  0  0  0  0  0  0  0
   54.0665   25.4300   45.2765 H   0  0  0  0  0  0  0  0  0  0  0  0
   54.2848   24.0068   46.4198 H   0  0  0  0  0  0  0  0  0  0  0  0
   55.6250   24.7209   48.2107 H   0  0  0  0  0  0  0  0  0  0  0  0
   56.3222   23.4167   47.1458 H   0  0  0  0  0  0  0  0  0  0  0  0
   57.7521   24.8639   48.9218 H   0  0  0  0  0  0  0  0  0  0  0  0
   58.4153   24.1091   47.4328 H   0  0  0  0  0  0  0  0  0  0  0  0
   57.9601   25.8468   47.4328 H   0  0  0  0  0  0  0  0  0  0  0  0
   57.7965   24.7112   45.7732 H   0  0  0  0  0  0  0  0  0  0  0  0
   56.6449   25.1937   44.3654 H   0  0  0  0  0  0  0  0  0  0  0  0
   58.7145   26.6162   45.5241 H   0  0  0  0  0  0  0  0  0  0  0  0
   57.4784   27.0261   44.2091 H   0  0  0  0  0  0  0  0  0  0  0  0
   56.2990   27.7130   46.6960 H   0  0  0  0  0  0  0  0  0  0  0  0
   56.2252   28.3222   43.9445 H   0  0  0  0  0  0  0  0  0  0  0  0
   55.8406   29.6937   41.9162 H   0  0  0  0  0  0  0  0  0  0  0  0
   56.8572   31.9270   41.6699 H   0  0  0  0  0  0  0  0  0  0  0  0
   58.2830   32.8111   43.4882 H   0  0  0  0  0  0  0  0  0  0  0  0
   59.4581   33.3931   46.5602 H   0  0  0  0  0  0  0  0  0  0  0  0
   60.2614   32.9573   45.0137 H   0  0  0  0  0  0  0  0  0  0  0  0
   58.5514   33.5075   45.0137 H   0  0  0  0  0  0  0  0  0  0  0  0
   60.3233   33.6798   49.5034 H   0  0  0  0  0  0  0  0  0  0  0  0
   60.9967   34.5228   48.0672 H   0  0  0  0  0  0  0  0  0  0  0  0
   59.2857   33.9757   48.0672 H   0  0  0  0  0  0  0  0  0  0  0  0
   62.4129   31.4422   47.2271 H   0  0  0  0  0  0  0  0  0  0  0  0
   61.7412   32.7822   46.1184 H   0  0  0  0  0  0  0  0  0  0  0  0
   63.0625   33.4258   48.6773 H   0  0  0  0  0  0  0  0  0  0  0  0
   64.0105   33.0733   47.1928 H   0  0  0  0  0  0  0  0  0  0  0  0
   62.8032   34.4034   47.1928 H   0  0  0  0  0  0  0  0  0  0  0  0
   60.8084   30.7693   49.6955 H   0  0  0  0  0  0  0  0  0  0  0  0
   59.7681   28.5694   49.8766 H   0  0  0  0  0  0  0  0  0  0  0  0
   58.2725   27.7591   48.0668 H   0  0  0  0  0  0  0  0  0  0  0  0
  1  2  1  0
  2  3  1  0
  3  4  1  0
  4  5  1  0
  3  6  1  0
  6  7  1  0
  7  8  1  0
  8  9  1  0
  9 10  2  0
 10 11  1  0
 11 12  2  0
 12 13  1  0
 13 14  2  0
 14 15  1  0
 15 16  2  0
 16 17  1  0
 16 18  1  0
 18 19  2  0
 19 20  1  0
 20 21  1  0
 20 22  1  0
 22 23  1  0
 19 24  1  0
 24 25  2  0
 25 26  1  0
 26 27  2  0
 27  9  1  0
 15 10  1  0
 27 18  1  0
  1 28  1  0
  1 29  1  0
  1 30  1  0
  2 31  1  0
  2 32  1  0
  4 33  1  0
  4 34  1  0
  5 35  1  0
  5 36  1  0
  5 37  1  0
  6 38  1  0
  6 39  1  0
  7 40  1  0
  7 41  1  0
  8 42  1  0
 11 43  1  0
 12 44  1  0
 13 45  1  0
 14 46  1  0
 17 47  1  0
 17 48  1  0
 17 49  1  0
 21 50  1  0
 21 51  1  0
 21 52  1  0
 22 53  1  0
 22 54  1  0
 23 55  1  0
 23 56  1  0
 23 57  1  0
 24 58  1  0
 25 59  1  0
 26 60  1  0
M  CHG  1  16   1
M  END
>  <smiles>  (12) 
CCN(CC)CCNc1c2ccccc2[n+](C)c2c(N(C)CC)cccc12

>  <score_type>  (12) 
oracle

>  <origin>  (12) 
adg

>  <m_score__min__energy>  (12) 
-5.75

>  <m_primary>  (12) 
energy

$$$$
13:0
     RDKit          3D

 54 56  0  0  0  0  0  0  0  0999 V2000
   60.8430   28.9030   45.1560 C   0  0  0  0  0  0  0  0  0  0  0  0
   59.5130   29.5950   45.1120 C   0  0  0  0  0  0  0  0  0  0  0  0
   58.7780   29.5580   46.3350 N   0  0  0  0  0  0  0  0  0  0  0  0
   58.3020   28.2400   46.7210 C   0  0  0  0  0  0  0  0  0  0  0  0
   57.1260   27.9500   45.8130 C   0  0  0  0  0  0  0  0  0  0  0  0
   56.5530   29.1260   45.4010 O   0  0  0  0  0  0  0  0  0  0  0  0
   56.4030   29.3290   44.0570 C   0  0  0  0  0  0  0  0  0  0  0  0
   56.3200   30.8450   43.8330 C   0  0  0  0  0  0  0  0  0  0  0  0
   57.0070   31.5560   44.8440 N   0  0  0  0  0  0  0  0  0  0  0  0
   57.9730   32.5210   44.4400 C   0  0  0  0  0  0  0  0  0  0  0  0
   57.5670   33.9270   44.7560 C   0  0  0  0  0  0  0  0  0  0  0  0
   58.1680   34.5280   45.9660 C   0  0  0  0  0  0  0  0  0  0  0  0
   59.1360   33.7630   46.6900 N   0  0  0  0  0  0  0  0  0  0  0  0
   58.9030   32.5650   47.4010 C   0  0  0  0  0  0  0  0  0  0  0  0
   57.7670   32.0890   47.4710 O   0  0  0  0  0  0  0  0  0  0  0  0
   60.0350   31.8880   48.0590 C   0  0  0  0  0  0  0  0  0  0  0  0
   59.8420   30.6940   48.7660 C   0  0  0  0  0  0  0  0  0  0  0  0
   60.9220   30.0530   49.3810 C   0  0  0  0  0  0  0  0  0  0  0  0
   62.1960   30.5760   49.3090 C   0  0  0  0  0  0  0  0  0  0  0  0
   62.3960   31.7500   48.6140 C   0  0  0  0  0  0  0  0  0  0  0  0
   63.6830   32.2400   48.5570 C   0  0  0  0  0  0  0  0  0  0  0  0
   63.8850   33.4150   47.8570 C   0  0  0  0  0  0  0  0  0  0  0  0
   62.8590   34.0790   47.2370 C   0  0  0  0  0  0  0  0  0  0  0  0
   61.5860   33.5440   47.3250 C   0  0  0  0  0  0  0  0  0  0  0  0
   61.3210   32.3770   48.0100 C   0  0  0  0  0  0  0  0  0  0  0  0
   60.4960   34.2460   46.6610 C   0  0  0  0  0  0  0  0  0  0  0  0
   60.7650   35.3260   46.0330 O   0  0  0  0  0  0  0  0  0  0  0  0
   61.1411   28.7479   46.2034 H   0  0  0  0  0  0  0  0  0  0  0  0
   60.7671   27.9301   44.6484 H   0  0  0  0  0  0  0  0  0  0  0  0
   61.5962   29.5236   44.6484 H   0  0  0  0  0  0  0  0  0  0  0  0
   59.6842   30.6489   44.8475 H   0  0  0  0  0  0  0  0  0  0  0  0
   58.9070   29.0541   44.3702 H   0  0  0  0  0  0  0  0  0  0  0  0
   57.9780   30.2340   46.3500 H   0  0  0  0  0  0  0  0  0  0  0  0
   59.0926   27.4888   46.5771 H   0  0  0  0  0  0  0  0  0  0  0  0
   58.0150   28.2056   47.7823 H   0  0  0  0  0  0  0  0  0  0  0  0
   57.4737   27.3864   44.9347 H   0  0  0  0  0  0  0  0  0  0  0  0
   56.3807   27.3576   46.3639 H   0  0  0  0  0  0  0  0  0  0  0  0
   57.2657   28.9147   43.5148 H   0  0  0  0  0  0  0  0  0  0  0  0
   55.4961   28.8294   43.6857 H   0  0  0  0  0  0  0  0  0  0  0  0
   56.7679   31.0874   42.8580 H   0  0  0  0  0  0  0  0  0  0  0  0
   55.2609   31.1409   43.8614 H   0  0  0  0  0  0  0  0  0  0  0  0
   57.3310   30.9640   45.6480 H   0  0  0  0  0  0  0  0  0  0  0  0
   58.9200   32.3057   44.9565 H   0  0  0  0  0  0  0  0  0  0  0  0
   58.0735   32.4466   43.3471 H   0  0  0  0  0  0  0  0  0  0  0  0
   57.8432   34.5563   43.8971 H   0  0  0  0  0  0  0  0  0  0  0  0
   56.4867   33.8811   44.9579 H   0  0  0  0  0  0  0  0  0  0  0  0
   58.6563   35.4641   45.6573 H   0  0  0  0  0  0  0  0  0  0  0  0
   57.3256   34.6344   46.6653 H   0  0  0  0  0  0  0  0  0  0  0  0
   58.8346   30.2580   48.8378 H   0  0  0  0  0  0  0  0  0  0  0  0
   60.7525   29.1158   49.9315 H   0  0  0  0  0  0  0  0  0  0  0  0
   63.0386   30.0651   49.7979 H   0  0  0  0  0  0  0  0  0  0  0  0
   64.5163   31.7170   49.0489 H   0  0  0  0  0  0  0  0  0  0  0  0
   64.9018   33.8302   47.7958 H   0  0  0  0  0  0  0  0  0  0  0  0
   63.0425   35.0122   46.6843 H   0  0  0  0  0  0  0  0  0  0  0  0
  1  2  1  0
  2  3  1  0
  3  4  1  0
  4  5  1  0
  5  6  1  0
  6  7  1  0
  7  8  1  0
  8  9  1  0
  9 10  1  0
 10 11  1  0
 11 12  1  0
 12 13  1  0
 13 14  1  0
 14 15  2  0
 14 16  1  0
 16 17  1  0
 17 18  2  0
 18 19  1  0
 19 20  2  0
 20 21  1  0
 21 22  2  0
 22 23  1  0
 23 24  2  0
 24 25  1  0
 24 26  1  0
 26 27  2  0
 26 13  1  0
 25 16  2  0
 25 20  1  0
  1 28  1  0
  1 29  1  0
  1 30  1  0
  2 31  1  0
  2 32  1  0
  3 33  1  0
  4 34  1  0
  4 35  1  0
  5 36  1  0
  5 37  1  0
  7 38  1  0
  7 39  1  0
  8 40  1  0
  8 41  1  0
  9 42  1  0
 10 43  1  0
 10 44  1  0
 11 45  1  0
 11 46  1  0
 12 47  1  0
 12 48  1  0
 17 49  1  0
 18 50  1  0
 19 51  1  0
 21 52  1  0
 22 53  1  0
 23 54  1  0
M  END
>  <smiles>  (13) 
CCNCCOCCNCCCN1C(=O)c2cccc3cccc(c23)C1=O

>  <score_type>  (13) 
oracle

>  <origin>  (13) 
adg

>  <m_score__min__energy>  (13) 
-6.1799999999999997

>  <m_primary>  (13) 
energy

$$$$
