0:0
     RDKit          3D

 47 48  0  0  0  0  0  0  0  0999 V2000
   60.1360   28.6640   44.6950 C   0  0  0  0  0  0  0  0  0  0  0  0
   59.2890   27.8580   45.6920 C   0  0  0  0  0  0  0  0  0  0  0  0
   57.8250   28.0710   45.5630 N   0  0  0  0  0  0  0  0  0  0  0  0
   57.0590   26.8100   45.6810 C   0  0  0  0  0  0  0  0  0  0  0  0
   57.6870   25.7240   44.8130 C   0  0  0  0  0  0  0  0  0  0  0  0
   57.4490   28.8330   44.3500 C   0  0  0  0  0  0  0  0  0  0  0  0
   56.3330   29.7990   44.6520 C   0  0  0  0  0  0  0  0  0  0  0  0
   55.1750   29.3480   44.8550 O   0  0  0  0  0  0  0  0  0  0  0  0
   56.5710   31.2010   44.8350 N   0  0  0  0  0  0  0  0  0  0  0  0
   57.7250   31.7880   45.4500 C   0  0  0  0  0  0  0  0  0  0  0  0
   58.5030   31.0750   46.3760 C   0  0  0  0  0  0  0  0  0  0  0  0
   59.6350   31.6640   46.9460 C   0  0  0  0  0  0  0  0  0  0  0  0
   60.0200   32.9660   46.5810 C   0  0  0  0  0  0  0  0  0  0  0  0
   61.1760   33.5830   47.1830 N   0  0  0  0  0  0  0  0  0  0  0  0
   61.1520   33.9390   48.6100 C   0  0  0  0  0  0  0  0  0  0  0  0
   62.5650   34.2210   49.1440 C   0  0  0  0  0  0  0  0  0  0  0  0
   63.5550   33.1800   48.6090 C   0  0  0  0  0  0  0  0  0  0  0  0
   63.6020   33.1410   47.0650 C   0  0  0  0  0  0  0  0  0  0  0  0
   62.3960   33.8220   46.4000 C   0  0  0  0  0  0  0  0  0  0  0  0
   59.2500   33.6660   45.6360 C   0  0  0  0  0  0  0  0  0  0  0  0
   58.1200   33.0740   45.0660 C   0  0  0  0  0  0  0  0  0  0  0  0
   60.8256   29.3202   45.2462 H   0  0  0  0  0  0  0  0  0  0  0  0
   60.7135   27.9738   44.0625 H   0  0  0  0  0  0  0  0  0  0  0  0
   59.4752   29.2750   44.0625 H   0  0  0  0  0  0  0  0  0  0  0  0
   59.4967   26.7892   45.5352 H   0  0  0  0  0  0  0  0  0  0  0  0
   59.5703   28.2055   46.6971 H   0  0  0  0  0  0  0  0  0  0  0  0
   57.0610   26.4814   46.7308 H   0  0  0  0  0  0  0  0  0  0  0  0
   56.0273   26.9858   45.3423 H   0  0  0  0  0  0  0  0  0  0  0  0
   58.1333   24.9521   45.4572 H   0  0  0  0  0  0  0  0  0  0  0  0
   56.9127   25.2688   44.1779 H   0  0  0  0  0  0  0  0  0  0  0  0
   58.4678   26.1680   44.1779 H   0  0  0  0  0  0  0  0  0  0  0  0
   58.3243   29.3937   43.9901 H   0  0  0  0  0  0  0  0  0  0  0  0
   57.1058   28.1258   43.5806 H   0  0  0  0  0  0  0  0  0  0  0  0
   58.2205   30.0489   46.6539 H   0  0  0  0  0  0  0  0  0  0  0  0
   60.2284   31.1054   47.6848 H   0  0  0  0  0  0  0  0  0  0  0  0
   60.5333   34.8386   48.7436 H   0  0  0  0  0  0  0  0  0  0  0  0
   60.7344   33.0897   49.1706 H   0  0  0  0  0  0  0  0  0  0  0  0
   62.8819   35.2232   48.8196 H   0  0  0  0  0  0  0  0  0  0  0  0
   62.5490   34.1673   50.2426 H   0  0  0  0  0  0  0  0  0  0  0  0
   64.5594   33.4232   48.9857 H   0  0  0  0  0  0  0  0  0  0  0  0
   63.2188   32.1920   48.9565 H   0  0  0  0  0  0  0  0  0  0  0  0
   64.5179   33.6506   46.7311 H   0  0  0  0  0  0  0  0  0  0  0  0
   63.5824   32.0825   46.7664 H   0  0  0  0  0  0  0  0  0  0  0  0
   62.5802   34.9047   46.3376 H   0  0  0  0  0  0  0  0  0  0  0  0
   62.2607   33.4026   45.3922 H   0  0  0  0  0  0  0  0  0  0  0  0
   59.5389   34.6863   45.3434 H   0  0  0  0  0  0  0  0  0  0  0  0
   57.5376   33.6223   44.3109 H   0  0  0  0  0  0  0  0  0  0  0  0
  1  2  1  0
  2  3  1  0
  3  4  1  0
  4  5  1  0
  3  6  1  0
  6  7  1  0
  7  8  2  0
  7  9  1  0
  9 10  1  0
 10 11  2  0
 11 12  1  0
 12 13  2  0
 13 14  1  0
 14 15  1  0
 15 16  1  0
 16 17  1  0
 17 18  1  0
 18 19  1  0
 13 20  1  0
 20 21  2  0
 21 10  1  0
 19 14  1  0
  1 22  1  0
  1 23  1  0
  1 24  1  0
  2 25  1  0
  2 26  1  0
  4 27  1  0
  4 28  1  0
  5 29  1  0
  5 30  1  0
  5 31  1  0
  6 32  1  0
  6 33  1  0
 11 34  1  0
 12 35  1  0
 15 36  1  0
 15 37  1  0
 16 38  1  0
 16 39  1  0
 17 40  1  0
 17 41  1  0
 18 42  1  0
 18 43  1  0
 19 44  1  0
 19 45  1  0
 20 46  1  0
 21 47  1  0
M  CHG  1   9  -1
M  END
>  <UniqueID>  (1) 
1

>  <SMILES>  (1) 
CCN(CC)CC(=O)[N-]c1ccc(N2CCCCC2)cc1

>  <Energy>  (1) 
55.356013511675926

>  <Genealogy>  (1) 
CCN(CC)CC(=O)[N-]c1ccc(N2CCCCC2)cc1 (protonated)
CCN(CC)CC(=O)[N-]c1ccc(N2CCCCC2)cc1 (3D coordinates assigned)
CCN(CC)CC(=O)[N-]c1ccc(N2CCCCC2)cc1 (nonaromatic ring conformer: 55.356013511675926 kcal/mol)

>  <smiles>  (1) 
CCN(CC)CC(=O)Nc1ccc(N2CCCCC2)cc1

>  <score_type>  (1) 
oracle

>  <origin>  (1) 
adg

>  <m_score__min__energy>  (1) 
-9.0800000000000001

>  <m_primary>  (1) 
energy

$$$$
1:0
     RDKit          3D

 45 47  0  0  0  0  0  0  0  0999 V2000
   57.7666   30.4293   44.4359 H   0  0  0  0  0  0  0  0  0  0  0  0
   61.2920   31.9580   47.4960 C   0  0  0  0  0  0  0  0  0  0  0  0
   61.0230   30.9220   48.2430 N   0  0  0  0  0  0  0  0  0  0  0  0
   59.2400   32.1710   46.0350 C   0  0  0  0  0  0  0  0  0  0  0  0
   58.3120   32.9900   45.3630 C   0  0  0  0  0  0  0  0  0  0  0  0
   57.5684   32.5349   44.6922 H   0  0  0  0  0  0  0  0  0  0  0  0
   58.3280   34.3740   45.5410 C   0  0  0  0  0  0  0  0  0  0  0  0
   57.5806   35.0018   45.0337 H   0  0  0  0  0  0  0  0  0  0  0  0
   59.2900   34.9620   46.3610 C   0  0  0  0  0  0  0  0  0  0  0  0
   59.2956   36.0523   46.5066 H   0  0  0  0  0  0  0  0  0  0  0  0
   60.2470   34.1680   46.9980 C   0  0  0  0  0  0  0  0  0  0  0  0
   61.0177   34.6400   47.6251 H   0  0  0  0  0  0  0  0  0  0  0  0
   60.2330   32.7710   46.8440 C   0  0  0  0  0  0  0  0  0  0  0  0
   58.3360   30.0010   45.2740 C   0  0  0  0  0  0  0  0  0  0  0  0
   59.2510   30.7450   45.8320 N   0  0  0  0  0  0  0  0  0  0  0  0
   59.8430   30.7300   48.9870 N   0  0  0  0  0  0  0  0  0  0  0  0
   59.3390   31.5850   49.8890 C   0  0  0  0  0  0  0  0  0  0  0  0
   59.7072   32.6080   50.0559 H   0  0  0  0  0  0  0  0  0  0  0  0
   58.3200   31.0180   50.5620 N   0  0  0  0  0  0  0  0  0  0  0  0
   58.1920   29.7770   50.1090 N   0  0  0  0  0  0  0  0  0  0  0  0
   59.1330   29.6010   49.1610 C   0  0  0  0  0  0  0  0  0  0  0  0
   59.2976   28.6651   48.6069 H   0  0  0  0  0  0  0  0  0  0  0  0
   62.7250   32.3780   47.3720 C   0  0  0  0  0  0  0  0  0  0  0  0
   63.1580   32.5049   48.3752 H   0  0  0  0  0  0  0  0  0  0  0  0
   63.2871   31.6068   46.8249 H   0  0  0  0  0  0  0  0  0  0  0  0
   62.7819   33.3306   46.8249 H   0  0  0  0  0  0  0  0  0  0  0  0
   58.0130   28.6180   45.6940 C   0  0  0  0  0  0  0  0  0  0  0  0
   59.0360   27.7550   46.1070 C   0  0  0  0  0  0  0  0  0  0  0  0
   60.0753   28.1141   46.1365 H   0  0  0  0  0  0  0  0  0  0  0  0
   58.7460   26.4470   46.4800 C   0  0  0  0  0  0  0  0  0  0  0  0
   59.5539   25.7810   46.8171 H   0  0  0  0  0  0  0  0  0  0  0  0
   57.4360   25.9780   46.4280 C   0  0  0  0  0  0  0  0  0  0  0  0
   57.2159   24.9438   46.7313 H   0  0  0  0  0  0  0  0  0  0  0  0
   56.3890   26.8140   45.9910 C   0  0  0  0  0  0  0  0  0  0  0  0
   55.0700   26.3400   45.9280 O   0  0  0  0  0  0  0  0  0  0  0  0
   54.6970   24.9990   45.6230 C   0  0  0  0  0  0  0  0  0  0  0  0
   54.5415   24.4401   46.5576 H   0  0  0  0  0  0  0  0  0  0  0  0
   53.7655   25.0015   45.0380 H   0  0  0  0  0  0  0  0  0  0  0  0
   55.4961   24.5202   45.0380 H   0  0  0  0  0  0  0  0  0  0  0  0
   56.6830   28.1530   45.6110 C   0  0  0  0  0  0  0  0  0  0  0  0
   55.7080   29.0650   45.1590 O   0  0  0  0  0  0  0  0  0  0  0  0
   55.6790   29.7220   43.8970 C   0  0  0  0  0  0  0  0  0  0  0  0
   55.6310   30.8101   44.0511 H   0  0  0  0  0  0  0  0  0  0  0  0
   56.5891   29.4715   43.3322 H   0  0  0  0  0  0  0  0  0  0  0  0
   54.7945   29.3923   43.3322 H   0  0  0  0  0  0  0  0  0  0  0  0
  1  2  1  0
  2  3  2  0
  3  4  1  0
  4  5  2  0
  5  6  1  0
  5  7  1  0
  7  8  1  0
  7  9  2  0
  9 10  1  0
  9 11  1  0
 11 12  1  0
 11 13  2  0
 13 14  1  0
 14 15  2  0
 15 16  1  0
 16 17  1  0
 17 18  1  0
 17 19  2  0
 19 20  1  0
 20 21  2  0
 21 22  1  0
 14 23  1  0
 23 24  1  0
 23 25  1  0
 23 26  1  0
  2 27  1  0
 27 28  2  0
 28 29  1  0
 28 30  1  0
 30 31  1  0
 30 32  2  0
 32 33  1  0
 32 34  1  0
 34 35  1  0
 35 36  1  0
 36 37  1  0
 36 38  1  0
 36 39  1  0
 34 40  2  0
 40 41  1  0
 41 42  1  0
 42 43  1  0
 42 44  1  0
 42 45  1  0
 13  4  1  0
 21 16  1  0
 40 27  1  0
M  END
>  <UniqueID>  (2) 
2

>  <SMILES>  (2) 
COc1cccc(/C=N\c2ccccc2/C(C)=N\n2cnnc2)c1OC

>  <Energy>  (2) 
106.54569841481612

>  <Genealogy>  (2) 
COc1cccc(/C=N\c2ccccc2/C(C)=N\n2cnnc2)c1OC (cis-trans isomerization)
COc1cccc(/C=N\c2ccccc2/C(C)=N\n2cnnc2)c1OC (3D coordinates assigned)
COc1cccc(/C=N\c2ccccc2/C(C)=N\n2cnnc2)c1OC (optimized conformer: 106.54569841481612 kcal/mol)

>  <smiles>  (2) 
COc1cccc(C=Nc2ccccc2C(C)=Nn2cnnc2)c1OC

>  <score_type>  (2) 
oracle

>  <origin>  (2) 
adg

>  <m_score__min__energy>  (2) 
-9.0299999999999994

>  <m_primary>  (2) 
energy

$$$$
2:0
     RDKit          3D

 46 48  0  0  1  0  0  0  0  0999 V2000
   63.5280   33.5190   48.6410 C   0  0  0  0  0  0  0  0  0  0  0  0
   63.3570   33.2280   47.1780 C   0  0  0  0  0  0  0  0  0  0  0  0
   61.9150   32.9530   46.8160 C   0  0  0  0  0  0  0  0  0  0  0  0
   61.2000   32.4770   48.0530 C   0  0  0  0  0  0  0  0  0  0  0  0
   61.0050   30.9880   48.0610 C   0  0  0  0  0  0  0  0  0  0  0  0
   61.4950   30.4210   46.7950 C   0  0  0  0  0  0  0  0  0  0  0  0
   60.9520   29.4460   46.1210 C   0  0  0  0  0  0  0  0  0  0  0  0
   59.5660   29.2820   45.7670 C   0  0  0  0  0  0  0  0  0  0  0  0
   58.9570   30.3490   45.1960 N   0  0  0  0  0  0  0  0  0  0  0  0
   57.6620   30.3560   44.8720 C   0  0  0  0  0  0  0  0  0  0  0  0
   56.8600   29.2600   45.1020 C   0  0  0  0  0  0  0  0  0  0  0  0
   55.6360   29.5930   44.6640 N   0  0  0  0  0  0  0  0  0  0  0  0
   55.7060   30.8450   44.1890 N   0  0  0  0  0  0  0  0  0  0  0  0
   56.9310   31.3240   44.3070 N   0  0  0  0  0  0  0  0  0  0  0  0
   57.4090   32.6340   43.9110 C   0  0  0  0  0  0  0  0  0  0  0  0
   57.9590   33.3360   45.1020 C   0  0  0  0  0  0  0  0  0  0  0  0
   57.5380   33.0690   46.3730 C   0  0  0  0  0  0  0  0  0  0  0  0
   58.1370   33.8010   47.3980 C   0  0  0  0  0  0  0  0  0  0  0  0
   59.1020   34.7450   47.1760 C   0  0  0  0  0  0  0  0  0  0  0  0
   59.5260   35.0130   45.8840 C   0  0  0  0  0  0  0  0  0  0  0  0
   58.9440   34.2980   44.8520 C   0  0  0  0  0  0  0  0  0  0  0  0
   57.4660   28.1700   45.6830 C   0  0  0  0  0  0  0  0  0  0  0  0
   56.7620   27.1300   45.9160 N   0  0  0  0  0  0  0  0  0  0  0  0
   58.7950   28.2170   45.9950 N   0  0  0  0  0  0  0  0  0  0  0  0
   63.0578   32.7188   49.2314 H   0  0  0  0  0  0  0  0  0  0  0  0
   64.6001   33.5707   48.8817 H   0  0  0  0  0  0  0  0  0  0  0  0
   63.0514   34.4807   48.8817 H   0  0  0  0  0  0  0  0  0  0  0  0
   63.7080   34.0960   46.6006 H   0  0  0  0  0  0  0  0  0  0  0  0
   63.9426   32.3273   46.9418 H   0  0  0  0  0  0  0  0  0  0  0  0
   61.4425   33.8742   46.4444 H   0  0  0  0  0  0  0  0  0  0  0  0
   61.8612   32.1869   46.0284 H   0  0  0  0  0  0  0  0  0  0  0  0
   61.7923   32.7610   48.9353 H   0  0  0  0  0  0  0  0  0  0  0  0
   60.2055   32.9468   48.0687 H   0  0  0  0  0  0  0  0  0  0  0  0
   61.5653   30.5496   48.9000 H   0  0  0  0  0  0  0  0  0  0  0  0
   59.9350   30.7596   48.1745 H   0  0  0  0  0  0  0  0  0  0  0  0
   62.4104   30.8636   46.3754 H   0  0  0  0  0  0  0  0  0  0  0  0
   61.6350   28.6532   45.7819 H   0  0  0  0  0  0  0  0  0  0  0  0
   58.1979   32.5237   43.1524 H   0  0  0  0  0  0  0  0  0  0  0  0
   56.5778   33.2183   43.4894 H   0  0  0  0  0  0  0  0  0  0  0  0
   56.7648   32.3141   46.5784 H   0  0  0  0  0  0  0  0  0  0  0  0
   57.8186   33.6104   48.4335 H   0  0  0  0  0  0  0  0  0  0  0  0
   59.5416   35.2916   48.0233 H   0  0  0  0  0  0  0  0  0  0  0  0
   60.2997   35.7692   45.6854 H   0  0  0  0  0  0  0  0  0  0  0  0
   59.2614   34.4893   43.8163 H   0  0  0  0  0  0  0  0  0  0  0  0
   56.2050   26.7230   45.1360 H   0  0  0  0  0  0  0  0  0  0  0  0
   59.1460   27.3770   46.4680 H   0  0  0  0  0  0  0  0  0  0  0  0
  1  2  1  0
  2  3  1  0
  3  4  1  0
  4  5  1  0
  5  6  1  0
  6  7  2  0
  7  8  1  0
  8  9  2  0
  9 10  1  0
 10 11  2  0
 11 12  1  0
 12 13  2  0
 13 14  1  0
 14 15  1  0
 15 16  1  0
 16 17  2  0
 17 18  1  0
 18 19  2  0
 19 20  1  0
 20 21  2  0
 11 22  1  0
 22 23  2  3
 22 24  1  0
 24  8  1  0
 14 10  1  0
 21 16  1  0
  1 25  1  0
  1 26  1  0
  1 27  1  0
  2 28  1  0
  2 29  1  0
  3 30  1  0
  3 31  1  0
  4 32  1  0
  4 33  1  0
  5 34  1  0
  5 35  1  0
  6 36  1  0
  7 37  1  0
 15 38  1  0
 15 39  1  0
 17 40  1  0
 18 41  1  0
 19 42  1  0
 20 43  1  0
 21 44  1  0
 23 45  1  0
 24 46  1  0
M  END
>  <smiles>  (3) 
CCCCCC=Cc1nc2c(nnn2Cc2ccccc2)c(=N)[nH]1

>  <score_type>  (3) 
oracle

>  <origin>  (3) 
adg

>  <m_score__min__energy>  (3) 
-7.8600000000000003

>  <m_primary>  (3) 
energy

$$$$
3:0
     RDKit          3D

 48 50  0  0  0  0  0  0  0  0999 V2000
   61.1774   34.2744   47.7933 H   0  0  0  0  0  0  0  0  0  0  0  0
   60.8080   33.2390   47.7560 C   0  0  0  0  0  0  0  0  0  0  0  0
   61.6040   32.2330   47.2040 C   0  0  0  0  0  0  0  0  0  0  0  0
   62.6039   32.4754   46.8150 H   0  0  0  0  0  0  0  0  0  0  0  0
   61.1320   30.9180   47.1450 C   0  0  0  0  0  0  0  0  0  0  0  0
   61.7685   30.1254   46.7247 H   0  0  0  0  0  0  0  0  0  0  0  0
   59.8440   30.6050   47.6220 C   0  0  0  0  0  0  0  0  0  0  0  0
   56.0640   30.0070   44.4460 N   0  0  0  0  0  0  0  0  0  0  0  0
   56.6750   29.2120   45.2730 C   0  0  0  0  0  0  0  0  0  0  0  0
   57.9300   27.5220   46.9840 N   0  0  0  0  0  0  0  0  0  0  0  0
   56.8990   27.0650   46.2240 C   0  0  0  0  0  0  0  0  0  0  0  0
   56.4720   25.6910   46.3190 N   0  0  0  0  0  0  0  0  0  0  0  0
   55.2380   25.2720   45.6340 C   0  0  0  0  0  0  0  0  0  0  0  0
   54.3738   25.7044   46.1595 H   0  0  0  0  0  0  0  0  0  0  0  0
   55.2844   25.6278   44.5942 H   0  0  0  0  0  0  0  0  0  0  0  0
   55.0940   23.7460   45.6120 C   0  0  0  0  0  0  0  0  0  0  0  0
   54.1033   23.4863   45.2106 H   0  0  0  0  0  0  0  0  0  0  0  0
   55.8936   23.3331   44.9794 H   0  0  0  0  0  0  0  0  0  0  0  0
   55.2350   23.1470   47.0180 C   0  0  0  0  0  0  0  0  0  0  0  0
   54.2954   23.3178   47.5639 H   0  0  0  0  0  0  0  0  0  0  0  0
   55.4584   22.0775   46.8904 H   0  0  0  0  0  0  0  0  0  0  0  0
   56.3940   23.7550   47.8400 C   0  0  0  0  0  0  0  0  0  0  0  0
   55.9662   24.3244   48.6783 H   0  0  0  0  0  0  0  0  0  0  0  0
   57.0225   22.9202   48.1836 H   0  0  0  0  0  0  0  0  0  0  0  0
   57.2910   24.6920   47.0230 C   0  0  0  0  0  0  0  0  0  0  0  0
   57.9907   25.2061   47.6984 H   0  0  0  0  0  0  0  0  0  0  0  0
   57.8504   24.1001   46.2836 H   0  0  0  0  0  0  0  0  0  0  0  0
   56.2760   27.9200   45.3690 N   0  0  0  0  0  0  0  0  0  0  0  0
   58.3330   28.8170   46.9020 C   0  0  0  0  0  0  0  0  0  0  0  0
   59.3320   29.2610   47.6080 N   0  0  0  0  0  0  0  0  0  0  0  0
   56.6570   31.1910   43.8230 C   0  0  0  0  0  0  0  0  0  0  0  0
   55.9261   31.6327   43.1297 H   0  0  0  0  0  0  0  0  0  0  0  0
   57.5672   30.8783   43.2902 H   0  0  0  0  0  0  0  0  0  0  0  0
   57.0530   32.2470   44.8690 C   0  0  0  0  0  0  0  0  0  0  0  0
   57.2246   31.7380   45.8289 H   0  0  0  0  0  0  0  0  0  0  0  0
   56.2286   32.9734   44.9213 H   0  0  0  0  0  0  0  0  0  0  0  0
   58.3230   33.0330   44.5020 C   0  0  0  0  0  0  0  0  0  0  0  0
   58.3136   33.2273   43.4193 H   0  0  0  0  0  0  0  0  0  0  0  0
   59.1857   32.4208   44.8037 H   0  0  0  0  0  0  0  0  0  0  0  0
   58.4350   34.3700   45.2350 C   0  0  0  0  0  0  0  0  0  0  0  0
   58.4204   34.1952   46.3209 H   0  0  0  0  0  0  0  0  0  0  0  0
   59.3776   34.8634   44.9557 H   0  0  0  0  0  0  0  0  0  0  0  0
   57.5876   35.0134   44.9557 H   0  0  0  0  0  0  0  0  0  0  0  0
   57.7090   29.6550   46.0370 N   0  0  0  0  0  0  0  0  0  0  0  0
   59.0670   31.6160   48.2040 C   0  0  0  0  0  0  0  0  0  0  0  0
   58.0772   31.3743   48.6186 H   0  0  0  0  0  0  0  0  0  0  0  0
   59.5420   32.9300   48.2610 C   0  0  0  0  0  0  0  0  0  0  0  0
   58.9188   33.7210   48.7036 H   0  0  0  0  0  0  0  0  0  0  0  0
  1  2  1  0
  2  3  2  0
  3  4  1  0
  3  5  1  0
  5  6  1  0
  5  7  2  0
  7  8  1  0
  8  9  2  0
  9 10  1  0
 10 11  2  0
 11 12  1  0
 12 13  1  0
 13 14  1  0
 13 15  1  0
 13 16  1  0
 16 17  1  0
 16 18  1  0
 16 19  1  0
 19 20  1  0
 19 21  1  0
 19 22  1  0
 22 23  1  0
 22 24  1  0
 22 25  1  0
 25 26  1  0
 25 27  1  0
 11 28  1  0
 28 29  1  0
 29 30  2  0
 30 31  1  0
 31 32  1  0
 31 33  1  0
 31 34  1  0
 34 35  1  0
 34 36  1  0
 34 37  1  0
 37 38  1  0
 37 39  1  0
 37 40  1  0
 40 41  1  0
 40 42  1  0
 40 43  1  0
 29 44  1  0
  7 45  1  0
 45 46  1  0
 45 47  2  0
 47 48  1  0
 47  2  1  0
 44  9  1  0
 25 12  1  0
M  CHG  2  28  -1  44  -1
M  END
>  <UniqueID>  (4) 
3

>  <SMILES>  (4) 
CCCC/N=c1/[n-]c(N2CCCCC2)n/c(=N\c2ccccc2)[n-]1

>  <Energy>  (4) 
50.82033380699186

>  <Genealogy>  (4) 
CCCCN=c1[n-]c(N2CCCCC2)nc(=Nc2ccccc2)[n-]1 (protonated)
CCCC/N=c1/[n-]c(N2CCCCC2)n/c(=N\c2ccccc2)[n-]1 (cis-trans isomerization)
CCCC/N=c1/[n-]c(N2CCCCC2)n/c(=N\c2ccccc2)[n-]1 (3D coordinates assigned)
CCCC/N=c1/[n-]c(N2CCCCC2)n/c(=N\c2ccccc2)[n-]1 (nonaromatic ring conformer: 50.82033380699186 kcal/mol)

>  <smiles>  (4) 
CCCCN=c1[nH]c(N2CCCCC2)nc(=Nc2ccccc2)[nH]1

>  <score_type>  (4) 
oracle

>  <origin>  (4) 
adg

>  <m_score__min__energy>  (4) 
-10.02

>  <m_primary>  (4) 
energy

$$$$
4:0
     RDKit          3D

 40 42  0  0  0  0  0  0  0  0999 V2000
   55.5800   29.3120   45.2230 O   0  0  0  0  0  0  0  0  0  0  0  0
   56.8390   29.3550   45.1990 C   0  0  0  0  0  0  0  0  0  0  0  0
   57.4810   30.5440   44.7140 N   0  0  0  0  0  0  0  0  0  0  0  0
   56.9790   31.9120   44.8590 C   0  0  0  0  0  0  0  0  0  0  0  0
   57.8740   32.7330   45.7530 C   0  0  0  0  0  0  0  0  0  0  0  0
   58.4110   33.9490   45.2990 C   0  0  0  0  0  0  0  0  0  0  0  0
   59.2580   34.6960   46.1240 C   0  0  0  0  0  0  0  0  0  0  0  0
   59.5640   34.2420   47.4090 C   0  0  0  0  0  0  0  0  0  0  0  0
   60.3900   34.9660   48.2050 F   0  0  0  0  0  0  0  0  0  0  0  0
   59.0220   33.0410   47.8740 C   0  0  0  0  0  0  0  0  0  0  0  0
   58.1760   32.2900   47.0530 C   0  0  0  0  0  0  0  0  0  0  0  0
   57.6050   28.1650   45.6080 C   0  0  0  0  0  0  0  0  0  0  0  0
   58.5780   28.2750   46.6090 C   0  0  0  0  0  0  0  0  0  0  0  0
   59.2660   27.1430   47.0450 C   0  0  0  0  0  0  0  0  0  0  0  0
   58.9940   25.8940   46.4810 C   0  0  0  0  0  0  0  0  0  0  0  0
   58.0380   25.7620   45.4550 C   0  0  0  0  0  0  0  0  0  0  0  0
   57.7600   24.4700   44.8680 N   0  0  0  0  0  0  0  0  0  0  0  0
   57.0250   24.2740   43.6200 C   0  0  0  0  0  0  0  0  0  0  0  0
   56.7930   22.7610   43.4110 C   0  0  0  0  0  0  0  0  0  0  0  0
   57.9000   21.9630   44.1020 C   0  0  0  0  0  0  0  0  0  0  0  0
   58.3970   22.9820   45.4470 S   0  0  0  0  0  0  0  0  0  0  0  0
   57.7360   22.5690   46.7310 O   0  0  0  0  0  0  0  0  0  0  0  0
   59.8940   23.0280   45.5830 O   0  0  0  0  0  0  0  0  0  0  0  0
   57.3590   26.9170   45.0160 C   0  0  0  0  0  0  0  0  0  0  0  0
   56.9338   32.3841   43.8665 H   0  0  0  0  0  0  0  0  0  0  0  0
   55.9791   31.8680   45.3153 H   0  0  0  0  0  0  0  0  0  0  0  0
   58.1645   34.3149   44.2913 H   0  0  0  0  0  0  0  0  0  0  0  0
   59.6839   35.6427   45.7603 H   0  0  0  0  0  0  0  0  0  0  0  0
   59.2614   32.6861   48.8873 H   0  0  0  0  0  0  0  0  0  0  0  0
   57.7449   31.3489   47.4252 H   0  0  0  0  0  0  0  0  0  0  0  0
   58.8002   29.2568   47.0526 H   0  0  0  0  0  0  0  0  0  0  0  0
   60.0254   27.2338   47.8356 H   0  0  0  0  0  0  0  0  0  0  0  0
   59.5318   25.0049   46.8418 H   0  0  0  0  0  0  0  0  0  0  0  0
   56.0564   24.7922   43.6762 H   0  0  0  0  0  0  0  0  0  0  0  0
   57.6025   24.6833   42.7780 H   0  0  0  0  0  0  0  0  0  0  0  0
   55.8194   22.4791   43.8383 H   0  0  0  0  0  0  0  0  0  0  0  0
   56.8054   22.5386   42.3338 H   0  0  0  0  0  0  0  0  0  0  0  0
   57.5160   20.9983   44.4653 H   0  0  0  0  0  0  0  0  0  0  0  0
   58.7333   21.7268   43.4239 H   0  0  0  0  0  0  0  0  0  0  0  0
   56.6269   26.8387   44.1988 H   0  0  0  0  0  0  0  0  0  0  0  0
  1  2  2  0
  2  3  1  0
  3  4  1  0
  4  5  1  0
  5  6  2  0
  6  7  1  0
  7  8  2  0
  8  9  1  0
  8 10  1  0
 10 11  2  0
  2 12  1  0
 12 13  2  0
 13 14  1  0
 14 15  2  0
 15 16  1  0
 16 17  1  0
 17 18  1  0
 18 19  1  0
 19 20  1  0
 20 21  1  0
 21 22  2  0
 21 23  2  0
 16 24  2  0
 11  5  1  0
 24 12  1  0
 21 17  1  0
  4 25  1  0
  4 26  1  0
  6 27  1  0
  7 28  1  0
 10 29  1  0
 11 30  1  0
 13 31  1  0
 14 32  1  0
 15 33  1  0
 18 34  1  0
 18 35  1  0
 19 36  1  0
 19 37  1  0
 20 38  1  0
 20 39  1  0
 24 40  1  0
M  CHG  1   3  -1
M  END
>  <UniqueID>  (5) 
4

>  <SMILES>  (5) 
O=C([N-]Cc1ccc(F)cc1)c1cccc(N2CCCS2(=O)=O)c1

>  <Energy>  (5) 
49.5500050949868

>  <Genealogy>  (5) 
O=C([N-]Cc1ccc(F)cc1)c1cccc(N2CCCS2(=O)=O)c1 (protonated)
O=C([N-]Cc1ccc(F)cc1)c1cccc(N2CCCS2(=O)=O)c1 (3D coordinates assigned)
O=C([N-]Cc1ccc(F)cc1)c1cccc(N2CCCS2(=O)=O)c1 (nonaromatic ring conformer: 49.5500050949868 kcal/mol)

>  <smiles>  (5) 
O=C(NCc1ccc(F)cc1)c1cccc(N2CCCS2(=O)=O)c1

>  <score_type>  (5) 
oracle

>  <origin>  (5) 
adg

>  <m_score__min__energy>  (5) 
-10.220000000000001

>  <m_primary>  (5) 
energy

$$$$
5:0
     RDKit          3D

 44 45  0  0  0  0  0  0  0  0999 V2000
   57.0050   34.5990   44.8580 C   0  0  0  0  0  0  0  0  0  0  0  0
   57.8870   33.3570   44.7530 C   0  0  0  0  0  0  0  0  0  0  0  0
   57.3030   32.2130   45.4870 N   0  0  0  0  0  0  0  0  0  0  0  0
   58.1540   31.8110   46.6290 C   0  0  0  0  0  0  0  0  0  0  0  0
   59.1200   32.9380   46.9780 C   0  0  0  0  0  0  0  0  0  0  0  0
   57.0100   30.8430   44.4260 S   0  0  0  0  0  0  0  0  0  0  0  0
   57.3760   31.2130   43.0150 O   0  0  0  0  0  0  0  0  0  0  0  0
   55.5470   30.4940   44.4320 O   0  0  0  0  0  0  0  0  0  0  0  0
   57.9280   29.4120   44.9110 C   0  0  0  0  0  0  0  0  0  0  0  0
   59.3260   29.4630   44.9790 C   0  0  0  0  0  0  0  0  0  0  0  0
   60.0530   28.3260   45.3370 C   0  0  0  0  0  0  0  0  0  0  0  0
   59.3900   27.1360   45.6420 C   0  0  0  0  0  0  0  0  0  0  0  0
   57.9890   27.0760   45.6110 C   0  0  0  0  0  0  0  0  0  0  0  0
   57.3300   25.8330   45.9100 N   0  0  0  0  0  0  0  0  0  0  0  0
   55.9070   25.6720   45.9950 C   0  0  0  0  0  0  0  0  0  0  0  0
   55.1480   26.6790   45.9860 O   0  0  0  0  0  0  0  0  0  0  0  0
   55.3600   24.3510   46.0810 N   0  0  0  0  0  0  0  0  0  0  0  0
   55.7740   23.2020   45.3270 C   0  0  0  0  0  0  0  0  0  0  0  0
   56.2150   23.3860   44.0090 C   0  0  0  0  0  0  0  0  0  0  0  0
   56.6460   22.2960   43.2470 C   0  0  0  0  0  0  0  0  0  0  0  0
   56.6550   21.0140   43.8020 C   0  0  0  0  0  0  0  0  0  0  0  0
   56.2420   20.8230   45.1240 C   0  0  0  0  0  0  0  0  0  0  0  0
   55.8090   21.9110   45.8880 C   0  0  0  0  0  0  0  0  0  0  0  0
   57.2630   28.2180   45.2280 C   0  0  0  0  0  0  0  0  0  0  0  0
   56.8345   34.8391   45.9179 H   0  0  0  0  0  0  0  0  0  0  0  0
   57.5048   35.4463   44.3659 H   0  0  0  0  0  0  0  0  0  0  0  0
   56.0403   34.4063   44.3659 H   0  0  0  0  0  0  0  0  0  0  0  0
   57.9948   33.0839   43.6929 H   0  0  0  0  0  0  0  0  0  0  0  0
   58.8651   33.5899   45.1991 H   0  0  0  0  0  0  0  0  0  0  0  0
   57.5175   31.5934   47.4994 H   0  0  0  0  0  0  0  0  0  0  0  0
   58.7281   30.9137   46.3548 H   0  0  0  0  0  0  0  0  0  0  0  0
   59.1978   33.0288   48.0715 H   0  0  0  0  0  0  0  0  0  0  0  0
   60.1115   32.7146   46.5571 H   0  0  0  0  0  0  0  0  0  0  0  0
   58.7476   33.8836   46.5571 H   0  0  0  0  0  0  0  0  0  0  0  0
   59.8525   30.4012   44.7498 H   0  0  0  0  0  0  0  0  0  0  0  0
   61.1514   28.3681   45.3788 H   0  0  0  0  0  0  0  0  0  0  0  0
   59.9698   26.2399   45.9083 H   0  0  0  0  0  0  0  0  0  0  0  0
   57.9210   25.0110   46.1690 H   0  0  0  0  0  0  0  0  0  0  0  0
   56.2220   24.3952   43.5713 H   0  0  0  0  0  0  0  0  0  0  0  0
   56.9783   22.4480   42.2095 H   0  0  0  0  0  0  0  0  0  0  0  0
   56.9867   20.1556   43.1994 H   0  0  0  0  0  0  0  0  0  0  0  0
   56.2578   19.8149   45.5639 H   0  0  0  0  0  0  0  0  0  0  0  0
   55.4946   21.7579   46.9309 H   0  0  0  0  0  0  0  0  0  0  0  0
   56.1651   28.1747   45.1766 H   0  0  0  0  0  0  0  0  0  0  0  0
  1  2  1  0
  2  3  1  0
  3  4  1  0
  4  5  1  0
  3  6  1  0
  6  7  2  0
  6  8  2  0
  6  9  1  0
  9 10  2  0
 10 11  1  0
 11 12  2  0
 12 13  1  0
 13 14  1  0
 14 15  1  0
 15 16  2  0
 15 17  1  0
 17 18  1  0
 18 19  2  0
 19 20  1  0
 20 21  2  0
 21 22  1  0
 22 23  2  0
 13 24  2  0
 24  9  1  0
 23 18  1  0
  1 25  1  0
  1 26  1  0
  1 27  1  0
  2 28  1  0
  2 29  1  0
  4 30  1  0
  4 31  1  0
  5 32  1  0
  5 33  1  0
  5 34  1  0
 10 35  1  0
 11 36  1  0
 12 37  1  0
 14 38  1  0
 19 39  1  0
 20 40  1  0
 21 41  1  0
 22 42  1  0
 23 43  1  0
 24 44  1  0
M  CHG  1  17  -1
M  END
>  <UniqueID>  (6) 
5

>  <SMILES>  (6) 
CCN(CC)S(=O)(=O)c1cccc(NC(=O)[N-]c2ccccc2)c1

>  <Energy>  (6) 
49.045217605288016

>  <Genealogy>  (6) 
CCN(CC)S(=O)(=O)c1cccc(NC(=O)[N-]c2ccccc2)c1 (protonated)
CCN(CC)S(=O)(=O)c1cccc(NC(=O)[N-]c2ccccc2)c1 (3D coordinates assigned)
CCN(CC)S(=O)(=O)c1cccc(NC(=O)[N-]c2ccccc2)c1 (optimized conformer: 49.045217605288016 kcal/mol)

>  <smiles>  (6) 
CCN(CC)S(=O)(=O)c1cccc(NC(=O)Nc2ccccc2)c1

>  <score_type>  (6) 
oracle

>  <origin>  (6) 
adg

>  <m_score__min__energy>  (6) 
-10.32

>  <m_primary>  (6) 
energy

$$$$
6:0
     RDKit          3D

 31 33  0  0  0  0  0  0  0  0999 V2000
   54.7690   30.0540   43.7390 O   0  0  0  0  0  0  0  0  0  0  0  0
   55.8300   29.4540   44.0600 C   0  0  0  0  0  0  0  0  0  0  0  0
   57.0600   29.6290   43.2240 C   0  0  0  0  0  0  0  0  0  0  0  0
   57.0960   31.2720   42.4260 S   0  0  0  0  0  0  0  0  0  0  0  0
   57.6950   32.1300   43.8800 C   0  0  0  0  0  0  0  0  0  0  0  0
   57.4560   31.7020   45.1480 N   0  0  0  0  0  0  0  0  0  0  0  0
   58.0670   32.6520   45.8760 C   0  0  0  0  0  0  0  0  0  0  0  0
   58.1500   32.7480   47.2630 C   0  0  0  0  0  0  0  0  0  0  0  0
   58.8430   33.8500   47.8010 C   0  0  0  0  0  0  0  0  0  0  0  0
   59.4280   34.8150   46.9470 C   0  0  0  0  0  0  0  0  0  0  0  0
   59.3240   34.6850   45.5480 C   0  0  0  0  0  0  0  0  0  0  0  0
   58.6320   33.5820   45.0570 C   0  0  0  0  0  0  0  0  0  0  0  0
   58.3990   33.2470   43.8190 O   0  0  0  0  0  0  0  0  0  0  0  0
   55.8840   28.6520   45.2460 N   0  0  0  0  0  0  0  0  0  0  0  0
   56.9400   27.7460   45.6010 C   0  0  0  0  0  0  0  0  0  0  0  0
   58.2870   28.1580   45.6470 C   0  0  0  0  0  0  0  0  0  0  0  0
   59.2850   27.2580   46.0330 C   0  0  0  0  0  0  0  0  0  0  0  0
   58.9490   25.9490   46.3880 C   0  0  0  0  0  0  0  0  0  0  0  0
   57.6140   25.5400   46.3660 C   0  0  0  0  0  0  0  0  0  0  0  0
   56.6110   26.4370   45.9820 C   0  0  0  0  0  0  0  0  0  0  0  0
   55.3160   26.0300   45.9740 F   0  0  0  0  0  0  0  0  0  0  0  0
   57.9470   29.5235   43.8660 H   0  0  0  0  0  0  0  0  0  0  0  0
   57.0548   28.8616   42.4359 H   0  0  0  0  0  0  0  0  0  0  0  0
   57.6908   31.9903   47.9150 H   0  0  0  0  0  0  0  0  0  0  0  0
   58.9300   33.9612   48.8919 H   0  0  0  0  0  0  0  0  0  0  0  0
   59.9670   35.6715   47.3780 H   0  0  0  0  0  0  0  0  0  0  0  0
   59.7723   35.4264   44.8703 H   0  0  0  0  0  0  0  0  0  0  0  0
   58.5540   29.1908   45.3784 H   0  0  0  0  0  0  0  0  0  0  0  0
   60.3362   27.5809   46.0572 H   0  0  0  0  0  0  0  0  0  0  0  0
   59.7363   25.2405   46.6849 H   0  0  0  0  0  0  0  0  0  0  0  0
   57.3504   24.5108   46.6511 H   0  0  0  0  0  0  0  0  0  0  0  0
  1  2  2  0
  2  3  1  0
  3  4  1  0
  4  5  1  0
  5  6  2  0
  6  7  1  0
  7  8  2  0
  8  9  1  0
  9 10  2  0
 10 11  1  0
 11 12  2  0
 12 13  1  0
  2 14  1  0
 14 15  1  0
 15 16  2  0
 16 17  1  0
 17 18  2  0
 18 19  1  0
 19 20  2  0
 20 21  1  0
 13  5  1  0
 20 15  1  0
 12  7  1  0
  3 22  1  0
  3 23  1  0
  8 24  1  0
  9 25  1  0
 10 26  1  0
 11 27  1  0
 16 28  1  0
 17 29  1  0
 18 30  1  0
 19 31  1  0
M  CHG  1  14  -1
M  END
>  <UniqueID>  (7) 
6

>  <SMILES>  (7) 
O=C(CSc1nc2ccccc2o1)[N-]c1ccccc1F

>  <Energy>  (7) 
69.06560576231246

>  <Genealogy>  (7) 
O=C(CSc1nc2ccccc2o1)[N-]c1ccccc1F (protonated)
O=C(CSc1nc2ccccc2o1)[N-]c1ccccc1F (3D coordinates assigned)
O=C(CSc1nc2ccccc2o1)[N-]c1ccccc1F (optimized conformer: 69.06560576231246 kcal/mol)

>  <smiles>  (7) 
O=C(CSc1nc2ccccc2o1)Nc1ccccc1F

>  <score_type>  (7) 
oracle

>  <origin>  (7) 
adg

>  <m_score__min__energy>  (7) 
-10.050000000000001

>  <m_primary>  (7) 
energy

$$$$
7:0
     RDKit          3D

 45 47  0  0  0  0  0  0  0  0999 V2000
   59.2670   34.9120   44.9160 C   0  0  0  0  0  0  0  0  0  0  0  0
   58.0100   34.2140   45.4430 C   0  0  0  0  0  0  0  0  0  0  0  0
   58.3420   32.9080   46.0680 N   0  0  0  0  0  0  0  0  0  0  0  0
   58.9910   32.8780   47.2960 C   0  0  0  0  0  0  0  0  0  0  0  0
   59.2790   34.1670   48.0580 C   0  0  0  0  0  0  0  0  0  0  0  0
   59.4670   31.6450   47.8220 C   0  0  0  0  0  0  0  0  0  0  0  0
   60.2710   31.5820   49.1170 C   0  0  0  0  0  0  0  0  0  0  0  0
   61.7210   31.7260   48.8570 N   0  0  0  0  0  0  0  0  0  0  0  0
   62.0110   31.7810   47.4010 C   0  0  0  0  0  0  0  0  0  0  0  0
   63.3950   32.3750   47.1190 C   0  0  0  0  0  0  0  0  0  0  0  0
   63.4800   33.8290   47.6130 C   0  0  0  0  0  0  0  0  0  0  0  0
   62.5310   34.1100   48.7900 C   0  0  0  0  0  0  0  0  0  0  0  0
   62.3110   32.8490   49.6360 C   0  0  0  0  0  0  0  0  0  0  0  0
   59.1780   30.4540   47.1410 C   0  0  0  0  0  0  0  0  0  0  0  0
   59.5850   29.3510   47.6020 O   0  0  0  0  0  0  0  0  0  0  0  0
   58.4340   30.4810   45.9580 C   0  0  0  0  0  0  0  0  0  0  0  0
   58.1140   29.2770   45.2940 C   0  0  0  0  0  0  0  0  0  0  0  0
   57.3710   29.2920   44.1170 C   0  0  0  0  0  0  0  0  0  0  0  0
   56.9370   30.4990   43.5860 C   0  0  0  0  0  0  0  0  0  0  0  0
   57.2460   31.7000   44.2250 C   0  0  0  0  0  0  0  0  0  0  0  0
   58.0110   31.7250   45.4240 C   0  0  0  0  0  0  0  0  0  0  0  0
   59.8800   35.2524   45.7636 H   0  0  0  0  0  0  0  0  0  0  0  0
   59.8480   34.2073   44.3029 H   0  0  0  0  0  0  0  0  0  0  0  0
   58.9759   35.7777   44.3029 H   0  0  0  0  0  0  0  0  0  0  0  0
   57.5295   34.8590   46.1935 H   0  0  0  0  0  0  0  0  0  0  0  0
   57.3319   34.0322   44.5961 H   0  0  0  0  0  0  0  0  0  0  0  0
   59.2352   33.9712   49.1395 H   0  0  0  0  0  0  0  0  0  0  0  0
   60.2813   34.5340   47.7921 H   0  0  0  0  0  0  0  0  0  0  0  0
   58.5282   34.9257   47.7921 H   0  0  0  0  0  0  0  0  0  0  0  0
   59.9437   32.3948   49.7819 H   0  0  0  0  0  0  0  0  0  0  0  0
   60.0979   30.6022   49.5860 H   0  0  0  0  0  0  0  0  0  0  0  0
   61.9710   30.7610   46.9911 H   0  0  0  0  0  0  0  0  0  0  0  0
   61.2581   32.4274   46.9264 H   0  0  0  0  0  0  0  0  0  0  0  0
   64.1571   31.7738   47.6365 H   0  0  0  0  0  0  0  0  0  0  0  0
   63.5678   32.3625   46.0327 H   0  0  0  0  0  0  0  0  0  0  0  0
   64.5118   34.0315   47.9362 H   0  0  0  0  0  0  0  0  0  0  0  0
   63.1802   34.4820   46.7801 H   0  0  0  0  0  0  0  0  0  0  0  0
   62.9676   34.8960   49.4237 H   0  0  0  0  0  0  0  0  0  0  0  0
   61.5602   34.4334   48.3863 H   0  0  0  0  0  0  0  0  0  0  0  0
   63.2808   32.5242   50.0410 H   0  0  0  0  0  0  0  0  0  0  0  0
   61.6001   33.1066   50.4349 H   0  0  0  0  0  0  0  0  0  0  0  0
   58.4551   28.3178   45.7107 H   0  0  0  0  0  0  0  0  0  0  0  0
   57.1278   28.3478   43.6078 H   0  0  0  0  0  0  0  0  0  0  0  0
   56.3471   30.5085   42.6576 H   0  0  0  0  0  0  0  0  0  0  0  0
   56.8908   32.6471   43.7928 H   0  0  0  0  0  0  0  0  0  0  0  0
  1  2  1  0
  2  3  1  0
  3  4  1  0
  4  5  1  0
  4  6  2  0
  6  7  1  0
  7  8  1  0
  8  9  1  0
  9 10  1  0
 10 11  1  0
 11 12  1  0
 12 13  1  0
  6 14  1  0
 14 15  2  0
 14 16  1  0
 16 17  2  0
 17 18  1  0
 18 19  2  0
 19 20  1  0
 20 21  2  0
 21  3  1  0
 13  8  1  0
 21 16  1  0
  1 22  1  0
  1 23  1  0
  1 24  1  0
  2 25  1  0
  2 26  1  0
  5 27  1  0
  5 28  1  0
  5 29  1  0
  7 30  1  0
  7 31  1  0
  9 32  1  0
  9 33  1  0
 10 34  1  0
 10 35  1  0
 11 36  1  0
 11 37  1  0
 12 38  1  0
 12 39  1  0
 13 40  1  0
 13 41  1  0
 17 42  1  0
 18 43  1  0
 19 44  1  0
 20 45  1  0
M  END
>  <UniqueID>  (8) 
7

>  <SMILES>  (8) 
CCn1c(C)c(CN2CCCCC2)c(=O)c2ccccc21

>  <Energy>  (8) 
70.17118670726906

>  <Genealogy>  (8) 
CCn1c(C)c(CN2CCCCC2)c(=O)c2ccccc21 (3D coordinates assigned)
CCn1c(C)c(CN2CCCCC2)c(=O)c2ccccc21 (nonaromatic ring conformer: 70.17118670726906 kcal/mol)

>  <smiles>  (8) 
CCn1c(C)c(CN2CCCCC2)c(=O)c2ccccc21

>  <score_type>  (8) 
oracle

>  <origin>  (8) 
adg

>  <m_score__min__energy>  (8) 
-7.4299999999999997

>  <m_primary>  (8) 
energy

$$$$
8:0
     RDKit          3D

 58 61  0  0  0  0  0  0  0  0999 V2000
   56.5240   22.9540   48.2190 C   0  0  0  0  0  0  0  0  0  0  0  0
   57.4050   22.7850   47.1150 O   0  0  0  0  0  0  0  0  0  0  0  0
   57.1950   23.2720   45.8140 C   0  0  0  0  0  0  0  0  0  0  0  0
   56.4880   22.4400   44.9340 C   0  0  0  0  0  0  0  0  0  0  0  0
   56.2620   22.8220   43.6110 C   0  0  0  0  0  0  0  0  0  0  0  0
   56.7290   24.0530   43.1500 C   0  0  0  0  0  0  0  0  0  0  0  0
   57.4180   24.9040   44.0150 C   0  0  0  0  0  0  0  0  0  0  0  0
   57.6500   24.5330   45.3490 C   0  0  0  0  0  0  0  0  0  0  0  0
   58.2620   25.4910   46.2210 N   0  0  0  0  0  0  0  0  0  0  0  0
   57.4210   26.5100   46.8550 C   0  0  0  0  0  0  0  0  0  0  0  0
   58.2880   27.6640   47.3700 C   0  0  0  0  0  0  0  0  0  0  0  0
   59.2010   28.1630   46.3100 N   0  0  0  0  0  0  0  0  0  0  0  0
   58.5610   28.9700   45.2250 C   0  0  1  0  0  0  0  0  0  0  0  0
   57.7990   28.1150   44.1810 C   0  0  0  0  0  0  0  0  0  0  0  0
   57.0530   28.9830   43.1650 C   0  0  0  0  0  0  0  0  0  0  0  0
   56.1480   30.0070   43.8610 C   0  0  0  0  0  0  0  0  0  0  0  0
   56.8700   30.8140   44.8660 N   0  0  0  0  0  0  0  0  0  0  0  0
   57.7670   31.8330   44.2790 C   0  0  0  0  0  0  0  0  0  0  0  0
   58.4120   32.6500   45.3680 C   0  0  0  0  0  0  0  0  0  0  0  0
   59.5600   32.1620   46.0120 C   0  0  0  0  0  0  0  0  0  0  0  0
   60.1470   32.8840   47.0560 C   0  0  0  0  0  0  0  0  0  0  0  0
   59.5930   34.0980   47.4640 C   0  0  0  0  0  0  0  0  0  0  0  0
   58.4540   34.5960   46.8290 C   0  0  0  0  0  0  0  0  0  0  0  0
   57.8620   33.8790   45.7830 C   0  0  0  0  0  0  0  0  0  0  0  0
   56.7480   34.3770   45.1860 F   0  0  0  0  0  0  0  0  0  0  0  0
   57.5470   29.9590   45.8630 C   0  0  0  0  0  0  0  0  0  0  0  0
   60.0800   27.0850   45.7580 C   0  0  0  0  0  0  0  0  0  0  0  0
   59.7170   25.6600   46.2140 C   0  0  0  0  0  0  0  0  0  0  0  0
   57.0874   22.8459   49.1576 H   0  0  0  0  0  0  0  0  0  0  0  0
   56.0709   23.9554   48.1766 H   0  0  0  0  0  0  0  0  0  0  0  0
   55.7325   22.1913   48.1766 H   0  0  0  0  0  0  0  0  0  0  0  0
   56.1061   21.4724   45.2917 H   0  0  0  0  0  0  0  0  0  0  0  0
   55.7152   22.1520   42.9312 H   0  0  0  0  0  0  0  0  0  0  0  0
   56.5543   24.3524   42.1060 H   0  0  0  0  0  0  0  0  0  0  0  0
   57.7828   25.8747   43.6482 H   0  0  0  0  0  0  0  0  0  0  0  0
   56.7009   26.8966   46.1188 H   0  0  0  0  0  0  0  0  0  0  0  0
   56.8846   26.0574   47.7020 H   0  0  0  0  0  0  0  0  0  0  0  0
   57.6342   28.4860   47.6969 H   0  0  0  0  0  0  0  0  0  0  0  0
   58.8963   27.2957   48.2093 H   0  0  0  0  0  0  0  0  0  0  0  0
   59.3767   29.4874   44.6988 H   0  0  0  0  0  0  0  0  0  0  0  0
   58.5213   27.4818   43.6449 H   0  0  0  0  0  0  0  0  0  0  0  0
   57.0570   27.5051   44.7171 H   0  0  0  0  0  0  0  0  0  0  0  0
   57.7868   29.5177   42.5440 H   0  0  0  0  0  0  0  0  0  0  0  0
   56.4222   28.3274   42.5468 H   0  0  0  0  0  0  0  0  0  0  0  0
   55.7310   30.6831   43.1001 H   0  0  0  0  0  0  0  0  0  0  0  0
   55.3580   29.4502   44.3863 H   0  0  0  0  0  0  0  0  0  0  0  0
   58.5490   31.3320   43.6895 H   0  0  0  0  0  0  0  0  0  0  0  0
   57.1773   32.4996   43.6326 H   0  0  0  0  0  0  0  0  0  0  0  0
   60.0006   31.2057   45.6935 H   0  0  0  0  0  0  0  0  0  0  0  0
   61.0461   32.4946   47.5559 H   0  0  0  0  0  0  0  0  0  0  0  0
   60.0544   34.6633   48.2871 H   0  0  0  0  0  0  0  0  0  0  0  0
   58.0207   35.5543   47.1515 H   0  0  0  0  0  0  0  0  0  0  0  0
   58.0860   30.6055   46.5712 H   0  0  0  0  0  0  0  0  0  0  0  0
   56.7721   29.3593   46.3629 H   0  0  0  0  0  0  0  0  0  0  0  0
   60.0162   27.1198   44.6604 H   0  0  0  0  0  0  0  0  0  0  0  0
   61.0920   27.2843   46.1402 H   0  0  0  0  0  0  0  0  0  0  0  0
   60.1649   24.9312   45.5225 H   0  0  0  0  0  0  0  0  0  0  0  0
   60.1041   25.4969   47.2306 H   0  0  0  0  0  0  0  0  0  0  0  0
  1  2  1  0
  2  3  1  0
  3  4  2  0
  4  5  1  0
  5  6  2  0
  6  7  1  0
  7  8  2  0
  8  9  1  0
  9 10  1  0
 10 11  1  0
 11 12  1  0
 12 13  1  0
 13 14  1  0
 14 15  1  0
 15 16  1  0
 16 17  1  0
 17 18  1  0
 18 19  1  0
 19 20  2  0
 20 21  1  0
 21 22  2  0
 22 23  1  0
 23 24  2  0
 24 25  1  0
 17 26  1  0
 12 27  1  0
 27 28  1  0
  8  3  1  0
 28  9  1  0
 26 13  1  0
 24 19  1  0
  1 29  1  0
  1 30  1  0
  1 31  1  0
  4 32  1  0
  5 33  1  0
  6 34  1  0
  7 35  1  0
 10 36  1  0
 10 37  1  0
 11 38  1  0
 11 39  1  0
 13 40  1  6
 14 41  1  0
 14 42  1  0
 15 43  1  0
 15 44  1  0
 16 45  1  0
 16 46  1  0
 18 47  1  0
 18 48  1  0
 20 49  1  0
 21 50  1  0
 22 51  1  0
 23 52  1  0
 26 53  1  0
 26 54  1  0
 27 55  1  0
 27 56  1  0
 28 57  1  0
 28 58  1  0
M  END
>  <UniqueID>  (9) 
8

>  <SMILES>  (9) 
COc1ccccc1N1CCN([C@H]2CCCN(Cc3ccccc3F)C2)CC1

>  <Energy>  (9) 
85.72060033795445

>  <Genealogy>  (9) 
COc1ccccc1N1CCN([C@H]2CCCN(Cc3ccccc3F)C2)CC1 (chirality)
COc1ccccc1N1CCN([C@H]2CCCN(Cc3ccccc3F)C2)CC1 (3D coordinates assigned)
COc1ccccc1N1CCN([C@H]2CCCN(Cc3ccccc3F)C2)CC1 (nonaromatic ring conformer: 85.72060033795445 kcal/mol)

>  <smiles>  (9) 
COc1ccccc1N1CCN(C2CCCN(Cc3ccccc3F)C2)CC1

>  <score_type>  (9) 
oracle

>  <origin>  (9) 
adg

>  <m_score__min__energy>  (9) 
-8.7599999999999998

>  <m_primary>  (9) 
energy

$$$$
9:0
     RDKit          3D

 59 62  0  0  1  0  0  0  0  0999 V2000
   57.8190   26.4280   43.0020 C   0  0  0  0  0  0  0  0  0  0  0  0
   57.4160   26.0090   44.3070 N   0  0  0  0  0  0  0  0  0  0  0  0
   57.6060   24.6100   44.5900 C   0  0  0  0  0  0  0  0  0  0  0  0
   58.1320   24.3580   45.9810 C   0  0  0  0  0  0  0  0  0  0  0  0
   57.7640   25.3760   46.9140 N   0  0  0  0  0  0  0  0  0  0  0  0
   58.4120   26.4390   47.1320 C   0  0  0  0  0  0  0  0  0  0  0  0
   59.2100   26.5220   48.1960 N   0  0  0  0  0  0  0  0  0  0  0  0
   59.9190   27.6650   48.4410 C   0  0  0  0  0  0  0  0  0  0  0  0
   60.7980   27.6200   49.6340 C   0  0  0  0  0  0  0  0  0  0  0  0
   59.8240   28.7640   47.5930 C   0  0  0  0  0  0  0  0  0  0  0  0
   60.6180   29.9970   47.8680 C   0  0  0  0  0  0  0  0  0  0  0  0
   61.6110   30.5720   47.9730 N   0  0  0  0  0  0  0  0  0  0  0  0
   61.9790   31.7330   48.3700 C   0  0  0  0  0  0  0  0  0  0  0  0
   63.2600   32.3120   48.4450 C   0  0  0  0  0  0  0  0  0  0  0  0
   63.3330   33.5970   48.9230 C   0  0  0  0  0  0  0  0  0  0  0  0
   62.2810   34.3600   49.3280 C   0  0  0  0  0  0  0  0  0  0  0  0
   61.0130   33.7840   49.2520 C   0  0  0  0  0  0  0  0  0  0  0  0
   60.9510   32.4770   48.7650 C   0  0  0  0  0  0  0  0  0  0  0  0
   59.4720   31.4220   48.5340 S   0  0  0  0  0  0  0  0  0  0  0  0
   58.9980   28.6340   46.5300 C   0  0  0  0  0  0  0  0  0  0  0  0
   58.6940   29.5900   45.7870 N   0  0  0  0  0  0  0  0  0  0  0  0
   58.1740   29.5270   44.4820 C   0  0  2  0  0  0  0  0  0  0  0  0
   58.3160   30.7940   43.6840 C   0  0  0  0  0  0  0  0  0  0  0  0
   57.0430   31.5880   43.7100 C   0  0  2  0  0  0  0  0  0  0  0  0
   57.0330   32.5100   44.8730 C   0  0  0  0  0  0  0  0  0  0  0  0
   57.4970   31.9820   46.0630 O   0  0  0  0  0  0  0  0  0  0  0  0
   56.0350   30.4660   43.7540 C   0  0  1  0  0  0  0  0  0  0  0  0
   56.0090   29.8760   42.5070 O   0  0  0  0  0  0  0  0  0  0  0  0
   56.6490   29.6540   44.8390 C   0  0  1  0  0  0  0  0  0  0  0  0
   56.0360   28.4440   44.9840 O   0  0  0  0  0  0  0  0  0  0  0  0
   58.3020   27.4750   46.3060 N   0  0  0  0  0  0  0  0  0  0  0  0
   58.5791   27.2183   43.0891 H   0  0  0  0  0  0  0  0  0  0  0  0
   58.2414   25.5715   42.4561 H   0  0  0  0  0  0  0  0  0  0  0  0
   56.9468   26.8168   42.4561 H   0  0  0  0  0  0  0  0  0  0  0  0
   56.5370   26.4150   44.6410 H   0  0  0  0  0  0  0  0  0  0  0  0
   56.6396   24.0958   44.4818 H   0  0  0  0  0  0  0  0  0  0  0  0
   58.3548   24.2287   43.8801 H   0  0  0  0  0  0  0  0  0  0  0  0
   57.7332   23.3966   46.3369 H   0  0  0  0  0  0  0  0  0  0  0  0
   59.2303   24.3519   45.9195 H   0  0  0  0  0  0  0  0  0  0  0  0
   59.2890   25.7110   48.8420 H   0  0  0  0  0  0  0  0  0  0  0  0
   60.1819   27.6515   50.5448 H   0  0  0  0  0  0  0  0  0  0  0  0
   61.3862   26.6906   49.6212 H   0  0  0  0  0  0  0  0  0  0  0  0
   61.4780   28.4845   49.6212 H   0  0  0  0  0  0  0  0  0  0  0  0
   64.1601   31.7608   48.1352 H   0  0  0  0  0  0  0  0  0  0  0  0
   64.3329   34.0514   48.9843 H   0  0  0  0  0  0  0  0  0  0  0  0
   62.4246   35.3856   49.6989 H   0  0  0  0  0  0  0  0  0  0  0  0
   60.1094   34.3307   49.5596 H   0  0  0  0  0  0  0  0  0  0  0  0
   58.6166   28.6808   43.9360 H   0  0  0  0  0  0  0  0  0  0  0  0
   59.1277   31.4005   44.1123 H   0  0  0  0  0  0  0  0  0  0  0  0
   58.5440   30.5291   42.6410 H   0  0  0  0  0  0  0  0  0  0  0  0
   56.8599   32.2753   42.8709 H   0  0  0  0  0  0  0  0  0  0  0  0
   57.6606   33.3776   44.6213 H   0  0  0  0  0  0  0  0  0  0  0  0
   55.9758   32.7584   45.0484 H   0  0  0  0  0  0  0  0  0  0  0  0
   58.4350   31.7230   45.9470 H   0  0  0  0  0  0  0  0  0  0  0  0
   54.9783   30.6947   43.9567 H   0  0  0  0  0  0  0  0  0  0  0  0
   55.4980   29.0220   42.6190 H   0  0  0  0  0  0  0  0  0  0  0  0
   56.5241   30.1400   45.8179 H   0  0  0  0  0  0  0  0  0  0  0  0
   56.2720   27.8550   44.2240 H   0  0  0  0  0  0  0  0  0  0  0  0
   57.6660   27.3680   45.4840 H   0  0  0  0  0  0  0  0  0  0  0  0
  1  2  1  0
  2  3  1  0
  3  4  1  0
  4  5  1  0
  5  6  2  0
  6  7  1  0
  7  8  1  0
  8  9  1  0
  8 10  2  0
 10 11  1  0
 11 12  2  0
 12 13  1  0
 13 14  2  0
 14 15  1  0
 15 16  2  0
 16 17  1  0
 17 18  2  0
 18 19  1  0
 10 20  1  0
 20 21  2  0
 21 22  1  0
 22 23  1  0
 23 24  1  0
 24 25  1  0
 25 26  1  0
 24 27  1  0
 27 28  1  0
 27 29  1  0
 29 30  1  0
 20 31  1  0
 31  6  1  0
 19 11  1  0
 29 22  1  0
 18 13  1  0
  1 32  1  0
  1 33  1  0
  1 34  1  0
  2 35  1  0
  3 36  1  0
  3 37  1  0
  4 38  1  0
  4 39  1  0
  7 40  1  0
  9 41  1  0
  9 42  1  0
  9 43  1  0
 14 44  1  0
 15 45  1  0
 16 46  1  0
 17 47  1  0
 22 48  1  6
 23 49  1  0
 23 50  1  0
 24 51  1  6
 25 52  1  0
 25 53  1  0
 26 54  1  0
 27 55  1  1
 28 56  1  0
 29 57  1  1
 30 58  1  0
 31 59  1  0
M  END
>  <smiles>  (10) 
CNCCN=c1[nH]c(C)c(-c2nc3ccccc3s2)c(=NC2CC(CO)C(O)C2O)[nH]1

>  <score_type>  (10) 
oracle

>  <origin>  (10) 
adg

>  <m_score__min__energy>  (10) 
-7.2199999999999998

>  <m_primary>  (10) 
energy

$$$$
10:0
     RDKit          3D

 39 41  0  0  0  0  0  0  0  0999 V2000
   64.9950   32.8340   47.4860 H   0  0  0  0  0  0  0  0  0  0  0  0
   64.4340   33.4630   48.1030 N   0  0  0  0  0  0  0  0  0  0  0  0
   63.1610   33.6110   47.9270 C   0  0  0  0  0  0  0  0  0  0  0  0
   62.0390   33.8070   49.1700 S   0  0  0  0  0  0  0  0  0  0  0  0
   60.7500   33.8960   48.0900 C   0  0  0  0  0  0  0  0  0  0  0  0
   61.2380   33.8070   46.7910 C   0  0  0  0  0  0  0  0  0  0  0  0
   62.5830   33.6260   46.7070 N   0  0  0  0  0  0  0  0  0  0  0  0
   63.1040   33.5130   45.8080 H   0  0  0  0  0  0  0  0  0  0  0  0
   60.3310   33.8090   45.5950 C   0  0  0  0  0  0  0  0  0  0  0  0
   60.1669   32.7713   45.2691 H   0  0  0  0  0  0  0  0  0  0  0  0
   60.8103   34.3981   44.7993 H   0  0  0  0  0  0  0  0  0  0  0  0
   58.9610   34.4570   45.9220 C   0  0  1  0  0  0  0  0  0  0  0  0
   59.1008   35.5414   46.0427 H   0  0  0  0  0  0  0  0  0  0  0  0
   58.0070   34.2200   44.8190 N   0  0  0  0  0  0  0  0  0  0  0  0
   57.0590   33.9790   45.1960 H   0  0  0  0  0  0  0  0  0  0  0  0
   58.4350   33.1440   43.9090 C   0  0  0  0  0  0  0  0  0  0  0  0
   58.1371   33.4075   42.8834 H   0  0  0  0  0  0  0  0  0  0  0  0
   59.5270   33.0430   43.9941 H   0  0  0  0  0  0  0  0  0  0  0  0
   57.8150   31.8130   44.2700 C   0  0  0  0  0  0  0  0  0  0  0  0
   58.1570   31.1700   45.4710 C   0  0  0  0  0  0  0  0  0  0  0  0
   58.8925   31.6296   46.1476 H   0  0  0  0  0  0  0  0  0  0  0  0
   57.5670   29.9480   45.8110 C   0  0  0  0  0  0  0  0  0  0  0  0
   57.8399   29.4514   46.7538 H   0  0  0  0  0  0  0  0  0  0  0  0
   56.6250   29.3510   44.9510 C   0  0  0  0  0  0  0  0  0  0  0  0
   56.0060   28.1270   45.2470 O   0  0  0  0  0  0  0  0  0  0  0  0
   56.7040   26.9430   45.6200 C   0  0  0  0  0  0  0  0  0  0  0  0
   56.7458   26.8722   46.7169 H   0  0  0  0  0  0  0  0  0  0  0  0
   56.1790   26.0650   45.2156 H   0  0  0  0  0  0  0  0  0  0  0  0
   57.7264   26.9773   45.2156 H   0  0  0  0  0  0  0  0  0  0  0  0
   56.2890   29.9930   43.7550 C   0  0  0  0  0  0  0  0  0  0  0  0
   55.5564   29.5323   43.0760 H   0  0  0  0  0  0  0  0  0  0  0  0
   56.8760   31.2150   43.4150 C   0  0  0  0  0  0  0  0  0  0  0  0
   56.6007   31.7107   42.4724 H   0  0  0  0  0  0  0  0  0  0  0  0
   58.4010   33.8660   47.2390 C   0  0  0  0  0  0  0  0  0  0  0  0
   58.3106   32.7751   47.1309 H   0  0  0  0  0  0  0  0  0  0  0  0
   57.4196   34.3239   47.4321 H   0  0  0  0  0  0  0  0  0  0  0  0
   59.3200   34.1750   48.4330 C   0  0  0  0  0  0  0  0  0  0  0  0
   59.0250   33.5474   49.2869 H   0  0  0  0  0  0  0  0  0  0  0  0
   59.2202   35.2404   48.6879 H   0  0  0  0  0  0  0  0  0  0  0  0
  1  2  1  0
  2  3  2  0
  3  4  1  0
  4  5  1  0
  5  6  2  0
  6  7  1  0
  7  8  1  0
  6  9  1  0
  9 10  1  0
  9 11  1  0
  9 12  1  0
 12 13  1  1
 12 14  1  0
 14 15  1  0
 14 16  1  0
 16 17  1  0
 16 18  1  0
 16 19  1  0
 19 20  2  0
 20 21  1  0
 20 22  1  0
 22 23  1  0
 22 24  2  0
 24 25  1  0
 25 26  1  0
 26 27  1  0
 26 28  1  0
 26 29  1  0
 24 30  1  0
 30 31  1  0
 30 32  2  0
 32 33  1  0
 12 34  1  0
 34 35  1  0
 34 36  1  0
 34 37  1  0
 37 38  1  0
 37 39  1  0
  7  3  1  0
 32 19  1  0
 37  5  1  0
M  END
>  <UniqueID>  (11) 
9

>  <SMILES>  (11) 
[H]/N=c1/[nH]c2c(s1)CC[C@H](NCc1ccc(OC)cc1)C2

>  <Energy>  (11) 
70.53297610778128

>  <Genealogy>  (11) 
COc1ccc(CN[C@H]2CCc3sc(=N)[nH]c3C2)cc1 (chirality)
[H]/N=c1/[nH]c2c(s1)CC[C@H](NCc1ccc(OC)cc1)C2 (cis-trans isomerization)
[H]/N=c1/[nH]c2c(s1)CC[C@H](NCc1ccc(OC)cc1)C2 (3D coordinates assigned)
[H]/N=c1/[nH]c2c(s1)CC[C@H](NCc1ccc(OC)cc1)C2 (nonaromatic ring conformer: 70.53297610778128 kcal/mol)

>  <smiles>  (11) 
COc1ccc(CNC2CCc3sc(=N)[nH]c3C2)cc1

>  <score_type>  (11) 
oracle

>  <origin>  (11) 
adg

>  <m_score__min__energy>  (11) 
-7.5800000000000001

>  <m_primary>  (11) 
energy

$$$$
11:0
     RDKit          3D

 46 46  0  0  0  0  0  0  0  0999 V2000
   59.5750   29.5940   47.2520 C   0  0  0  0  0  0  0  0  0  0  0  0
   60.5650   30.6210   46.7010 C   0  0  0  0  0  0  0  0  0  0  0  0
   61.7110   30.9450   47.6840 C   0  0  0  0  0  0  0  0  0  0  0  0
   61.5420   32.2180   48.4370 N   0  0  0  0  0  0  0  0  0  0  0  0
   62.8640   32.8110   48.7740 C   0  0  0  0  0  0  0  0  0  0  0  0
   63.7470   33.0680   47.5260 C   0  0  0  0  0  0  0  0  0  0  0  0
   62.9990   33.8360   46.4370 C   0  0  0  0  0  0  0  0  0  0  0  0
   60.6920   32.0890   49.6520 C   0  0  0  0  0  0  0  0  0  0  0  0
   59.2970   32.7370   49.5340 C   0  0  0  0  0  0  0  0  0  0  0  0
   59.3620   33.9110   48.7230 O   0  0  0  0  0  0  0  0  0  0  0  0
   59.0720   33.9710   47.3500 C   0  0  0  0  0  0  0  0  0  0  0  0
   59.5850   34.9750   46.5050 C   0  0  0  0  0  0  0  0  0  0  0  0
   59.2670   34.9790   45.1440 C   0  0  0  0  0  0  0  0  0  0  0  0
   58.4340   33.9920   44.6130 C   0  0  0  0  0  0  0  0  0  0  0  0
   57.9020   32.9950   45.4460 C   0  0  0  0  0  0  0  0  0  0  0  0
   57.0300   31.9120   44.8700 C   0  0  0  0  0  0  0  0  0  0  0  0
   57.5900   31.4180   43.5400 C   0  0  0  0  0  0  0  0  0  0  0  0
   58.2340   32.9870   46.8100 C   0  0  0  0  0  0  0  0  0  0  0  0
   59.5970   29.6168   48.3515 H   0  0  0  0  0  0  0  0  0  0  0  0
   58.5613   29.8366   46.9004 H   0  0  0  0  0  0  0  0  0  0  0  0
   59.8546   28.5899   46.9004 H   0  0  0  0  0  0  0  0  0  0  0  0
   61.0016   30.2235   45.7729 H   0  0  0  0  0  0  0  0  0  0  0  0
   60.0080   31.5535   46.5275 H   0  0  0  0  0  0  0  0  0  0  0  0
   61.7812   30.1230   48.4116 H   0  0  0  0  0  0  0  0  0  0  0  0
   62.6196   31.0620   47.0750 H   0  0  0  0  0  0  0  0  0  0  0  0
   61.0500   32.9020   47.8150 H   0  0  0  0  0  0  0  0  0  0  0  0
   62.6978   33.7685   49.2893 H   0  0  0  0  0  0  0  0  0  0  0  0
   63.3961   32.0894   49.4113 H   0  0  0  0  0  0  0  0  0  0  0  0
   64.6281   33.6523   47.8298 H   0  0  0  0  0  0  0  0  0  0  0  0
   64.0374   32.0914   47.1113 H   0  0  0  0  0  0  0  0  0  0  0  0
   62.3039   34.5497   46.9033 H   0  0  0  0  0  0  0  0  0  0  0  0
   63.7208   34.3822   45.8119 H   0  0  0  0  0  0  0  0  0  0  0  0
   62.4339   33.1289   45.8119 H   0  0  0  0  0  0  0  0  0  0  0  0
   60.5557   31.0180   49.8628 H   0  0  0  0  0  0  0  0  0  0  0  0
   61.2166   32.6249   50.4567 H   0  0  0  0  0  0  0  0  0  0  0  0
   58.6007   32.0185   49.0769 H   0  0  0  0  0  0  0  0  0  0  0  0
   58.9460   33.0155   50.5386 H   0  0  0  0  0  0  0  0  0  0  0  0
   60.2379   35.7582   46.9178 H   0  0  0  0  0  0  0  0  0  0  0  0
   59.6745   35.7628   44.4885 H   0  0  0  0  0  0  0  0  0  0  0  0
   58.1941   33.9957   43.5395 H   0  0  0  0  0  0  0  0  0  0  0  0
   56.9847   31.0708   45.5773 H   0  0  0  0  0  0  0  0  0  0  0  0
   56.0237   32.3222   44.6991 H   0  0  0  0  0  0  0  0  0  0  0  0
   58.4028   30.7010   43.7280 H   0  0  0  0  0  0  0  0  0  0  0  0
   56.7914   30.9248   42.9664 H   0  0  0  0  0  0  0  0  0  0  0  0
   57.9797   32.2719   42.9664 H   0  0  0  0  0  0  0  0  0  0  0  0
   57.8312   32.1984   47.4626 H   0  0  0  0  0  0  0  0  0  0  0  0
  1  2  1  0
  2  3  1  0
  3  4  1  0
  4  5  1  0
  5  6  1  0
  6  7  1  0
  4  8  1  0
  8  9  1  0
  9 10  1  0
 10 11  1  0
 11 12  2  0
 12 13  1  0
 13 14  2  0
 14 15  1  0
 15 16  1  0
 16 17  1  0
 15 18  2  0
 18 11  1  0
  1 19  1  0
  1 20  1  0
  1 21  1  0
  2 22  1  0
  2 23  1  0
  3 24  1  0
  3 25  1  0
  4 26  1  0
  5 27  1  0
  5 28  1  0
  6 29  1  0
  6 30  1  0
  7 31  1  0
  7 32  1  0
  7 33  1  0
  8 34  1  0
  8 35  1  0
  9 36  1  0
  9 37  1  0
 12 38  1  0
 13 39  1  0
 14 40  1  0
 16 41  1  0
 16 42  1  0
 17 43  1  0
 17 44  1  0
 17 45  1  0
 18 46  1  0
M  CHG  1   4   1
M  END
>  <UniqueID>  (12) 
10

>  <SMILES>  (12) 
CCC[NH+](CCC)CCOc1cccc(CC)c1

>  <Energy>  (12) 
41.52871349763786

>  <Genealogy>  (12) 
CCC[NH+](CCC)CCOc1cccc(CC)c1 (protonated)
CCC[NH+](CCC)CCOc1cccc(CC)c1 (3D coordinates assigned)
CCC[NH+](CCC)CCOc1cccc(CC)c1 (optimized conformer: 41.52871349763786 kcal/mol)

>  <smiles>  (12) 
CCCN(CCC)CCOc1cccc(CC)c1

>  <score_type>  (12) 
oracle

>  <origin>  (12) 
adg

>  <m_score__min__energy>  (12) 
-3.6600000000000001

>  <m_primary>  (12) 
energy

$$$$
12:0
     RDKit          3D

 54 57  0  0  0  0  0  0  0  0999 V2000
   59.1280   33.8400   51.4240 C   0  0  0  0  0  0  0  0  0  0  0  0
   60.0250   33.8370   50.2190 C   0  0  0  0  0  0  0  0  0  0  0  0
   59.6480   34.5440   49.0740 C   0  0  0  0  0  0  0  0  0  0  0  0
   60.4430   34.5080   47.9160 C   0  0  0  0  0  0  0  0  0  0  0  0
   59.9960   35.2690   46.6790 C   0  0  0  0  0  0  0  0  0  0  0  0
   58.6590   34.9390   46.2920 O   0  0  0  0  0  0  0  0  0  0  0  0
   58.2410   33.6800   45.8290 C   0  0  0  0  0  0  0  0  0  0  0  0
   57.8510   33.5620   44.4910 C   0  0  0  0  0  0  0  0  0  0  0  0
   57.4250   32.3330   43.9800 C   0  0  0  0  0  0  0  0  0  0  0  0
   57.3870   31.2000   44.8050 C   0  0  0  0  0  0  0  0  0  0  0  0
   56.8800   29.6400   44.1540 S   0  0  0  0  0  0  0  0  0  0  0  0
   55.6370   29.1860   44.8670 O   0  0  0  0  0  0  0  0  0  0  0  0
   56.5480   29.7960   42.6950 O   0  0  0  0  0  0  0  0  0  0  0  0
   58.1270   28.4290   44.3450 N   0  0  0  0  0  0  0  0  0  0  0  0
   59.4140   29.0690   44.7010 C   0  0  0  0  0  0  0  0  0  0  0  0
   60.4020   28.0540   45.2820 C   0  0  0  0  0  0  0  0  0  0  0  0
   59.8610   27.4280   46.5800 C   0  0  0  0  0  0  0  0  0  0  0  0
   58.3230   27.4710   46.6690 C   0  0  2  0  0  0  0  0  0  0  0  0
   57.8730   26.4280   47.4930 O   0  0  0  0  0  0  0  0  0  0  0  0
   57.6990   27.3470   45.2660 C   0  0  0  0  0  0  0  0  0  0  0  0
   57.7680   31.3150   46.1480 C   0  0  0  0  0  0  0  0  0  0  0  0
   58.1950   32.5430   46.6590 C   0  0  0  0  0  0  0  0  0  0  0  0
   61.6740   33.8020   47.9610 C   0  0  0  0  0  0  0  0  0  0  0  0
   62.5870   33.7940   46.8830 C   0  0  0  0  0  0  0  0  0  0  0  0
   63.7750   33.0640   46.9630 C   0  0  0  0  0  0  0  0  0  0  0  0
   64.0790   32.3380   48.1120 C   0  0  0  0  0  0  0  0  0  0  0  0
   63.2030   32.3480   49.1980 C   0  0  0  0  0  0  0  0  0  0  0  0
   62.0060   33.0810   49.1390 C   0  0  0  0  0  0  0  0  0  0  0  0
   61.1730   33.1060   50.2180 N   0  0  0  0  0  0  0  0  0  0  0  0
   59.7410   33.8380   52.3374 H   0  0  0  0  0  0  0  0  0  0  0  0
   58.4961   34.7403   51.4085 H   0  0  0  0  0  0  0  0  0  0  0  0
   58.4901   32.9440   51.4085 H   0  0  0  0  0  0  0  0  0  0  0  0
   58.7199   35.1344   49.0794 H   0  0  0  0  0  0  0  0  0  0  0  0
   60.0473   36.3475   46.8894 H   0  0  0  0  0  0  0  0  0  0  0  0
   60.6646   34.9887   45.8517 H   0  0  0  0  0  0  0  0  0  0  0  0
   57.8799   34.4445   43.8350 H   0  0  0  0  0  0  0  0  0  0  0  0
   57.1183   32.2543   42.9265 H   0  0  0  0  0  0  0  0  0  0  0  0
   59.8523   29.5179   43.7974 H   0  0  0  0  0  0  0  0  0  0  0  0
   59.2188   29.8371   45.4638 H   0  0  0  0  0  0  0  0  0  0  0  0
   60.5727   27.2568   44.5436 H   0  0  0  0  0  0  0  0  0  0  0  0
   61.3416   28.5770   45.5137 H   0  0  0  0  0  0  0  0  0  0  0  0
   60.1863   26.3782   46.6259 H   0  0  0  0  0  0  0  0  0  0  0  0
   60.2576   28.0157   47.4210 H   0  0  0  0  0  0  0  0  0  0  0  0
   58.0149   28.4348   47.1005 H   0  0  0  0  0  0  0  0  0  0  0  0
   57.8960   25.6000   46.9450 H   0  0  0  0  0  0  0  0  0  0  0  0
   57.9967   26.3802   44.8338 H   0  0  0  0  0  0  0  0  0  0  0  0
   56.6080   27.4254   45.3823 H   0  0  0  0  0  0  0  0  0  0  0  0
   57.7307   30.4330   46.8043 H   0  0  0  0  0  0  0  0  0  0  0  0
   58.4965   32.6223   47.7139 H   0  0  0  0  0  0  0  0  0  0  0  0
   62.3602   34.3679   45.9724 H   0  0  0  0  0  0  0  0  0  0  0  0
   64.4743   33.0625   46.1139 H   0  0  0  0  0  0  0  0  0  0  0  0
   65.0110   31.7559   48.1634 H   0  0  0  0  0  0  0  0  0  0  0  0
   63.4511   31.7785   50.1058 H   0  0  0  0  0  0  0  0  0  0  0  0
   61.4280   32.5630   51.0760 H   0  0  0  0  0  0  0  0  0  0  0  0
  1  2  1  0
  2  3  2  0
  3  4  1  0
  4  5  1  0
  5  6  1  0
  6  7  1  0
  7  8  2  0
  8  9  1  0
  9 10  2  0
 10 11  1  0
 11 12  2  0
 11 13  2  0
 11 14  1  0
 14 15  1  0
 15 16  1  0
 16 17  1  0
 17 18  1  0
 18 19  1  0
 18 20  1  0
 10 21  1  0
 21 22  2  0
  4 23  2  0
 23 24  1  0
 24 25  2  0
 25 26  1  0
 26 27  2  0
 27 28  1  0
 28 29  2  0
 29  2  1  0
 22  7  1  0
 28 23  1  0
 20 14  1  0
  1 30  1  0
  1 31  1  0
  1 32  1  0
  3 33  1  0
  5 34  1  0
  5 35  1  0
  8 36  1  0
  9 37  1  0
 15 38  1  0
 15 39  1  0
 16 40  1  0
 16 41  1  0
 17 42  1  0
 17 43  1  0
 18 44  1  1
 19 45  1  0
 20 46  1  0
 20 47  1  0
 21 48  1  0
 22 49  1  0
 24 50  1  0
 25 51  1  0
 26 52  1  0
 27 53  1  0
 29 54  1  0
M  CHG  1  29   1
M  END
>  <UniqueID>  (13) 
11

>  <SMILES>  (13) 
Cc1cc(COc2ccc(S(=O)(=O)N3CCC[C@H](O)C3)cc2)c2ccccc2[nH+]1

>  <Energy>  (13) 
68.02387129057115

>  <Genealogy>  (13) 
Cc1cc(COc2ccc(S(=O)(=O)N3CCCC(O)C3)cc2)c2ccccc2[nH+]1 (protonated)
Cc1cc(COc2ccc(S(=O)(=O)N3CCC[C@H](O)C3)cc2)c2ccccc2[nH+]1 (chirality)
Cc1cc(COc2ccc(S(=O)(=O)N3CCC[C@H](O)C3)cc2)c2ccccc2[nH+]1 (3D coordinates assigned)
Cc1cc(COc2ccc(S(=O)(=O)N3CCC[C@H](O)C3)cc2)c2ccccc2[nH+]1 (nonaromatic ring conformer: 68.02387129057115 kcal/mol)

>  <smiles>  (13) 
Cc1cc(COc2ccc(S(=O)(=O)N3CCCC(O)C3)cc2)c2ccccc2n1

>  <score_type>  (13) 
oracle

>  <origin>  (13) 
adg

>  <m_score__min__energy>  (13) 
-8.3000000000000007

>  <m_primary>  (13) 
energy

$$$$
13:0
     RDKit          3D

 60 62  0  0  0  0  0  0  0  0999 V2000
   58.1320   27.8380   44.1160 C   0  0  0  0  0  0  0  0  0  0  0  0
   57.5580   28.5150   45.3560 C   0  0  0  0  0  0  0  0  0  0  0  0
   58.1050   29.8620   45.5050 N   0  0  0  0  0  0  0  0  0  0  0  0
   57.3960   31.0350   45.0720 C   0  0  0  0  0  0  0  0  0  0  0  0
   56.2770   30.9150   44.5000 O   0  0  0  0  0  0  0  0  0  0  0  0
   57.9690   32.3800   45.2900 C   0  0  0  0  0  0  0  0  0  0  0  0
   57.4860   33.5010   44.5990 C   0  0  0  0  0  0  0  0  0  0  0  0
   58.0330   34.7210   44.8380 N   0  0  0  0  0  0  0  0  0  0  0  0
   59.0460   34.8820   45.7280 C   0  0  0  0  0  0  0  0  0  0  0  0
   59.5470   33.7660   46.4190 C   0  0  0  0  0  0  0  0  0  0  0  0
   60.6480   33.8780   47.4090 C   0  0  0  0  0  0  0  0  0  0  0  0
   61.9840   33.8170   46.9790 C   0  0  0  0  0  0  0  0  0  0  0  0
   63.0330   33.9240   47.8960 C   0  0  0  0  0  0  0  0  0  0  0  0
   62.7750   34.1000   49.2590 C   0  0  0  0  0  0  0  0  0  0  0  0
   63.8700   34.1950   50.1340 O   0  0  0  0  0  0  0  0  0  0  0  0
   64.4610   33.1050   50.8430 C   0  0  0  0  0  0  0  0  0  0  0  0
   64.2670   31.7950   50.0750 C   0  0  0  0  0  0  0  0  0  0  0  0
   62.9560   31.0980   50.4940 C   0  0  0  0  0  0  0  0  0  0  0  0
   61.8560   31.2380   49.5140 N   0  0  0  0  0  0  0  0  0  0  0  0
   60.5480   30.7110   49.9680 C   0  0  0  0  0  0  0  0  0  0  0  0
   60.1900   29.3920   49.2660 C   0  0  0  0  0  0  0  0  0  0  0  0
   60.1300   29.5380   47.7880 N   0  0  0  0  0  0  0  0  0  0  0  0
   60.4010   28.2540   47.1020 C   0  0  0  0  0  0  0  0  0  0  0  0
   59.8340   27.0700   47.8840 C   0  0  0  0  0  0  0  0  0  0  0  0
   61.0000   30.6240   47.2650 C   0  0  0  0  0  0  0  0  0  0  0  0
   62.2410   30.8440   48.1410 C   0  0  0  0  0  0  0  0  0  0  0  0
   61.4380   34.1820   49.6960 C   0  0  0  0  0  0  0  0  0  0  0  0
   60.3880   34.0730   48.7790 C   0  0  0  0  0  0  0  0  0  0  0  0
   58.9830   32.5500   46.1810 N   0  0  0  0  0  0  0  0  0  0  0  0
   58.8154   27.0320   44.4215 H   0  0  0  0  0  0  0  0  0  0  0  0
   57.3123   27.4160   43.5160 H   0  0  0  0  0  0  0  0  0  0  0  0
   58.6824   28.5777   43.5160 H   0  0  0  0  0  0  0  0  0  0  0  0
   56.4639   28.5774   45.2603 H   0  0  0  0  0  0  0  0  0  0  0  0
   57.8287   27.9218   46.2419 H   0  0  0  0  0  0  0  0  0  0  0  0
   59.0700   29.9560   45.8950 H   0  0  0  0  0  0  0  0  0  0  0  0
   56.6703   33.3929   43.8690 H   0  0  0  0  0  0  0  0  0  0  0  0
   59.4718   35.8803   45.9069 H   0  0  0  0  0  0  0  0  0  0  0  0
   62.2065   33.6837   45.9100 H   0  0  0  0  0  0  0  0  0  0  0  0
   64.0730   33.8692   47.5418 H   0  0  0  0  0  0  0  0  0  0  0  0
   65.5373   33.2954   50.9671 H   0  0  0  0  0  0  0  0  0  0  0  0
   63.9749   33.0156   51.8257 H   0  0  0  0  0  0  0  0  0  0  0  0
   64.2307   32.0118   48.9972 H   0  0  0  0  0  0  0  0  0  0  0  0
   65.1090   31.1256   50.3051 H   0  0  0  0  0  0  0  0  0  0  0  0
   63.1630   30.0262   50.6299 H   0  0  0  0  0  0  0  0  0  0  0  0
   62.6193   31.5870   51.4200 H   0  0  0  0  0  0  0  0  0  0  0  0
   60.5916   30.5365   51.0532 H   0  0  0  0  0  0  0  0  0  0  0  0
   59.7750   31.4525   49.7178 H   0  0  0  0  0  0  0  0  0  0  0  0
   60.9524   28.6396   49.5165 H   0  0  0  0  0  0  0  0  0  0  0  0
   59.1929   29.0850   49.6147 H   0  0  0  0  0  0  0  0  0  0  0  0
   59.9387   28.2775   46.1041 H   0  0  0  0  0  0  0  0  0  0  0  0
   61.4910   28.1269   47.0261 H   0  0  0  0  0  0  0  0  0  0  0  0
   59.9272   27.2646   48.9626 H   0  0  0  0  0  0  0  0  0  0  0  0
   58.7733   26.9345   47.6262 H   0  0  0  0  0  0  0  0  0  0  0  0
   60.3934   26.1586   47.6262 H   0  0  0  0  0  0  0  0  0  0  0  0
   61.3262   30.3584   46.2486 H   0  0  0  0  0  0  0  0  0  0  0  0
   60.4155   31.5558   47.2666 H   0  0  0  0  0  0  0  0  0  0  0  0
   62.8215   29.9106   48.1838 H   0  0  0  0  0  0  0  0  0  0  0  0
   62.8434   31.6518   47.6999 H   0  0  0  0  0  0  0  0  0  0  0  0
   61.2192   34.3325   50.7635 H   0  0  0  0  0  0  0  0  0  0  0  0
   59.3482   34.1403   49.1315 H   0  0  0  0  0  0  0  0  0  0  0  0
  1  2  1  0
  2  3  1  0
  3  4  1  0
  4  5  2  0
  4  6  1  0
  6  7  2  0
  7  8  1  0
  8  9  2  0
  9 10  1  0
 10 11  1  0
 11 12  2  0
 12 13  1  0
 13 14  2  0
 14 15  1  0
 15 16  1  0
 16 17  1  0
 17 18  1  0
 18 19  1  0
 19 20  1  0
 20 21  1  0
 21 22  1  0
 22 23  1  0
 23 24  1  0
 22 25  1  0
 25 26  1  0
 14 27  1  0
 27 28  2  0
 10 29  2  0
 29  6  1  0
 28 11  1  0
 26 19  1  0
  1 30  1  0
  1 31  1  0
  1 32  1  0
  2 33  1  0
  2 34  1  0
  3 35  1  0
  7 36  1  0
  9 37  1  0
 12 38  1  0
 13 39  1  0
 16 40  1  0
 16 41  1  0
 17 42  1  0
 17 43  1  0
 18 44  1  0
 18 45  1  0
 20 46  1  0
 20 47  1  0
 21 48  1  0
 21 49  1  0
 23 50  1  0
 23 51  1  0
 24 52  1  0
 24 53  1  0
 24 54  1  0
 25 55  1  0
 25 56  1  0
 26 57  1  0
 26 58  1  0
 27 59  1  0
 28 60  1  0
M  END
>  <UniqueID>  (14) 
12

>  <SMILES>  (14) 
CCNC(=O)c1cncc(-c2ccc(OCCCN3CCN(CC)CC3)cc2)n1

>  <Energy>  (14) 
72.37361971608455

>  <Genealogy>  (14) 
CCNC(=O)c1cncc(-c2ccc(OCCCN3CCN(CC)CC3)cc2)n1 (3D coordinates assigned)
CCNC(=O)c1cncc(-c2ccc(OCCCN3CCN(CC)CC3)cc2)n1 (nonaromatic ring conformer: 72.37361971608455 kcal/mol)

>  <smiles>  (14) 
CCNC(=O)c1cncc(-c2ccc(OCCCN3CCN(CC)CC3)cc2)n1

>  <score_type>  (14) 
oracle

>  <origin>  (14) 
adg

>  <m_score__min__energy>  (14) 
-7.5899999999999999

>  <m_primary>  (14) 
energy

$$$$
14:0
     RDKit          3D

 60 63  0  0  0  0  0  0  0  0999 V2000
   57.0099   29.2448   52.3156 H   0  0  0  0  0  0  0  0  0  0  0  0
   56.9780   30.2540   52.7520 C   0  0  0  0  0  0  0  0  0  0  0  0
   57.8910   31.1510   52.3240 C   0  0  0  0  0  0  0  0  0  0  0  0
   58.3890   32.2140   53.2390 C   0  0  0  0  0  0  0  0  0  0  0  0
   58.8630   31.8880   54.5220 C   0  0  0  0  0  0  0  0  0  0  0  0
   58.8570   30.8400   54.8562 H   0  0  0  0  0  0  0  0  0  0  0  0
   59.3290   32.8590   55.3530 N   0  0  0  0  0  0  0  0  0  0  0  0
   59.3610   34.1640   54.9790 C   0  0  0  0  0  0  0  0  0  0  0  0
   59.7409   34.9258   55.6757 H   0  0  0  0  0  0  0  0  0  0  0  0
   58.9130   34.5400   53.7130 C   0  0  0  0  0  0  0  0  0  0  0  0
   58.9405   35.5956   53.4050 H   0  0  0  0  0  0  0  0  0  0  0  0
   58.4290   33.5630   52.8400 C   0  0  0  0  0  0  0  0  0  0  0  0
   58.0780   33.8489   51.8375 H   0  0  0  0  0  0  0  0  0  0  0  0
   58.4060   31.1220   50.9380 C   0  0  0  0  0  0  0  0  0  0  0  0
   58.3090   32.2550   50.1180 C   0  0  0  0  0  0  0  0  0  0  0  0
   57.8553   33.1776   50.5091 H   0  0  0  0  0  0  0  0  0  0  0  0
   58.7870   32.2160   48.8050 C   0  0  0  0  0  0  0  0  0  0  0  0
   58.7039   33.1079   48.1666 H   0  0  0  0  0  0  0  0  0  0  0  0
   59.3720   31.0470   48.2960 C   0  0  0  0  0  0  0  0  0  0  0  0
   59.8430   31.0260   46.9370 N   0  0  0  0  0  0  0  0  0  0  0  0
   60.6920   30.4590   46.7160 H   0  0  0  0  0  0  0  0  0  0  0  0
   59.1600   31.6670   45.8460 C   0  0  0  0  0  0  0  0  0  0  0  0
   59.2660   33.0590   45.6870 C   0  0  0  0  0  0  0  0  0  0  0  0
   59.9031   33.6378   46.3719 H   0  0  0  0  0  0  0  0  0  0  0  0
   58.5720   33.7150   44.6700 C   0  0  0  0  0  0  0  0  0  0  0  0
   58.6713   34.8043   44.5539 H   0  0  0  0  0  0  0  0  0  0  0  0
   57.7530   32.9960   43.8000 C   0  0  0  0  0  0  0  0  0  0  0  0
   57.2063   33.5207   43.0026 H   0  0  0  0  0  0  0  0  0  0  0  0
   57.6240   31.6070   43.9380 C   0  0  0  0  0  0  0  0  0  0  0  0
   56.8000   30.8860   43.0590 C   0  0  0  0  0  0  0  0  0  0  0  0
   56.2485   31.4135   42.2668 H   0  0  0  0  0  0  0  0  0  0  0  0
   56.6790   29.5020   43.1880 C   0  0  0  0  0  0  0  0  0  0  0  0
   56.0274   28.9426   42.5006 H   0  0  0  0  0  0  0  0  0  0  0  0
   57.3810   28.8250   44.1850 C   0  0  0  0  0  0  0  0  0  0  0  0
   57.2870   27.7328   44.2757 H   0  0  0  0  0  0  0  0  0  0  0  0
   58.2040   29.5290   45.0700 C   0  0  0  0  0  0  0  0  0  0  0  0
   58.7558   28.9865   45.8518 H   0  0  0  0  0  0  0  0  0  0  0  0
   58.3310   30.9280   44.9670 C   0  0  0  0  0  0  0  0  0  0  0  0
   59.4400   29.9030   49.1120 C   0  0  0  0  0  0  0  0  0  0  0  0
   59.8738   28.9731   48.7156 H   0  0  0  0  0  0  0  0  0  0  0  0
   58.9590   29.9420   50.4240 C   0  0  0  0  0  0  0  0  0  0  0  0
   59.0150   29.0428   51.0551 H   0  0  0  0  0  0  0  0  0  0  0  0
   55.9160   30.5370   53.7870 C   0  0  0  0  0  0  0  0  0  0  0  0
   55.8304   31.6257   53.9187 H   0  0  0  0  0  0  0  0  0  0  0  0
   56.2159   30.0437   54.7233 H   0  0  0  0  0  0  0  0  0  0  0  0
   54.5460   29.9790   53.3770 C   0  0  0  0  0  0  0  0  0  0  0  0
   53.8139   30.2653   54.1465 H   0  0  0  0  0  0  0  0  0  0  0  0
   54.6667   28.8897   53.2831 H   0  0  0  0  0  0  0  0  0  0  0  0
   54.0340   30.4830   52.0140 C   0  0  0  0  0  0  0  0  0  0  0  0
   54.4931   29.8719   51.2229 H   0  0  0  0  0  0  0  0  0  0  0  0
   54.3120   31.5446   51.9384 H   0  0  0  0  0  0  0  0  0  0  0  0
   52.4990   30.4060   51.8610 C   0  0  0  0  0  0  0  0  0  0  0  0
   52.0375   31.1201   52.5589 H   0  0  0  0  0  0  0  0  0  0  0  0
   52.1900   29.3734   52.0807 H   0  0  0  0  0  0  0  0  0  0  0  0
   52.0390   30.7410   50.4360 C   0  0  0  0  0  0  0  0  0  0  0  0
   51.4536   29.8994   50.0374 H   0  0  0  0  0  0  0  0  0  0  0  0
   52.9250   30.9176   49.8085 H   0  0  0  0  0  0  0  0  0  0  0  0
   51.1920   31.9740   50.4350 C   0  0  0  0  0  0  0  0  0  0  0  0
   50.6620   32.3770   49.3670 O   0  0  0  0  0  0  0  0  0  0  0  0
   51.0280   32.7060   51.6050 O   0  0  0  0  0  0  0  0  0  0  0  0
  1  2  1  0
  2  3  2  0
  3  4  1  0
  4  5  2  0
  5  6  1  0
  5  7  1  0
  7  8  2  0
  8  9  1  0
  8 10  1  0
 10 11  1  0
 10 12  2  0
 12 13  1  0
  3 14  1  0
 14 15  2  0
 15 16  1  0
 15 17  1  0
 17 18  1  0
 17 19  2  0
 19 20  1  0
 20 21  1  0
 20 22  1  0
 22 23  2  0
 23 24  1  0
 23 25  1  0
 25 26  1  0
 25 27  2  0
 27 28  1  0
 27 29  1  0
 29 30  2  0
 30 31  1  0
 30 32  1  0
 32 33  1  0
 32 34  2  0
 34 35  1  0
 34 36  1  0
 36 37  1  0
 36 38  2  0
 19 39  1  0
 39 40  1  0
 39 41  2  0
 41 42  1  0
  2 43  1  0
 43 44  1  0
 43 45  1  0
 43 46  1  0
 46 47  1  0
 46 48  1  0
 46 49  1  0
 49 50  1  0
 49 51  1  0
 49 52  1  0
 52 53  1  0
 52 54  1  0
 52 55  1  0
 55 56  1  0
 55 57  1  0
 55 58  1  0
 58 59  2  0
 58 60  1  0
 12  4  1  0
 41 14  1  0
 38 22  1  0
 38 29  1  0
M  CHG  1  60  -1
M  END
>  <UniqueID>  (15) 
13

>  <SMILES>  (15) 
O=C([O-])CCCCC/C=C(\c1ccc(Nc2cccc3ccccc23)cc1)c1cccnc1

>  <Energy>  (15) 
81.57522099613334

>  <Genealogy>  (15) 
O=C([O-])CCCCCC=C(c1ccc(Nc2cccc3ccccc23)cc1)c1cccnc1 (protonated)
O=C([O-])CCCCC/C=C(\c1ccc(Nc2cccc3ccccc23)cc1)c1cccnc1 (cis-trans isomerization)
O=C([O-])CCCCC/C=C(\c1ccc(Nc2cccc3ccccc23)cc1)c1cccnc1 (3D coordinates assigned)
O=C([O-])CCCCC/C=C(\c1ccc(Nc2cccc3ccccc23)cc1)c1cccnc1 (optimized conformer: 81.57522099613334 kcal/mol)

>  <smiles>  (15) 
O=C(O)CCCCCC=C(c1ccc(Nc2cccc3ccccc23)cc1)c1cccnc1

>  <score_type>  (15) 
oracle

>  <origin>  (15) 
adg

>  <m_score__min__energy>  (15) 
-13.029999999999999

>  <m_primary>  (15) 
energy

$$$$
15:0
     RDKit          3D

 50 52  0  0  0  0  0  0  0  0999 V2000
   60.1560   26.9000   46.3560 C   0  0  0  0  0  0  0  0  0  0  0  0
   59.0740   27.8620   45.9380 C   0  0  0  0  0  0  0  0  0  0  0  0
   57.8060   27.3540   45.6110 C   0  0  0  0  0  0  0  0  0  0  0  0
   56.7790   28.2080   45.2180 C   0  0  0  0  0  0  0  0  0  0  0  0
   56.9970   29.5820   45.1550 C   0  0  0  0  0  0  0  0  0  0  0  0
   58.2520   30.1200   45.4720 C   0  0  0  0  0  0  0  0  0  0  0  0
   58.4270   31.5440   45.4350 N   0  0  0  0  0  0  0  0  0  0  0  0
   58.1470   32.4040   44.2890 C   0  0  0  0  0  0  0  0  0  0  0  0
   58.3850   33.8550   44.7840 C   0  0  0  0  0  0  0  0  0  0  0  0
   58.6540   33.7430   46.2130 N   0  0  0  0  0  0  0  0  0  0  0  0
   58.9700   34.8560   47.1060 C   0  0  0  0  0  0  0  0  0  0  0  0
   59.7870   34.3490   48.3130 C   0  0  0  0  0  0  0  0  0  0  0  0
   61.0880   33.7220   47.9650 N   0  0  0  0  0  0  0  0  0  0  0  0
   62.1240   33.9300   49.0000 C   0  0  0  0  0  0  0  0  0  0  0  0
   63.3450   33.0190   48.7580 C   0  0  0  0  0  0  0  0  0  0  0  0
   63.5630   32.7050   47.2670 C   0  0  0  0  0  0  0  0  0  0  0  0
   63.0590   33.8450   46.3800 C   0  0  0  0  0  0  0  0  0  0  0  0
   61.5580   34.1270   46.6130 C   0  0  0  0  0  0  0  0  0  0  0  0
   58.6830   32.3730   46.5490 C   0  0  0  0  0  0  0  0  0  0  0  0
   58.8950   31.9400   47.7140 O   0  0  0  0  0  0  0  0  0  0  0  0
   59.3180   29.2570   45.8300 C   0  0  0  0  0  0  0  0  0  0  0  0
   60.6930   29.8200   46.1160 C   0  0  0  0  0  0  0  0  0  0  0  0
   60.2043   26.8571   47.4541 H   0  0  0  0  0  0  0  0  0  0  0  0
   59.9300   25.8991   45.9595 H   0  0  0  0  0  0  0  0  0  0  0  0
   61.1235   27.2416   45.9595 H   0  0  0  0  0  0  0  0  0  0  0  0
   57.6225   26.2708   45.6659 H   0  0  0  0  0  0  0  0  0  0  0  0
   55.7930   27.7964   44.9566 H   0  0  0  0  0  0  0  0  0  0  0  0
   56.1773   30.2509   44.8539 H   0  0  0  0  0  0  0  0  0  0  0  0
   58.8258   32.1667   43.4566 H   0  0  0  0  0  0  0  0  0  0  0  0
   57.1206   32.2649   43.9186 H   0  0  0  0  0  0  0  0  0  0  0  0
   59.2461   34.3013   44.2651 H   0  0  0  0  0  0  0  0  0  0  0  0
   57.5178   34.5010   44.5826 H   0  0  0  0  0  0  0  0  0  0  0  0
   59.5578   35.6071   46.5580 H   0  0  0  0  0  0  0  0  0  0  0  0
   58.0335   35.3060   47.4674 H   0  0  0  0  0  0  0  0  0  0  0  0
   59.9856   35.2044   48.9755 H   0  0  0  0  0  0  0  0  0  0  0  0
   59.1818   33.5632   48.7887 H   0  0  0  0  0  0  0  0  0  0  0  0
   60.8960   32.6910   47.9250 H   0  0  0  0  0  0  0  0  0  0  0  0
   62.4496   34.9804   48.9757 H   0  0  0  0  0  0  0  0  0  0  0  0
   61.6920   33.6804   49.9804 H   0  0  0  0  0  0  0  0  0  0  0  0
   64.2425   33.5221   49.1470 H   0  0  0  0  0  0  0  0  0  0  0  0
   63.1576   32.0664   49.2751 H   0  0  0  0  0  0  0  0  0  0  0  0
   64.6378   32.5577   47.0851 H   0  0  0  0  0  0  0  0  0  0  0  0
   62.9980   31.7948   47.0174 H   0  0  0  0  0  0  0  0  0  0  0  0
   63.6327   34.7553   46.6085 H   0  0  0  0  0  0  0  0  0  0  0  0
   63.1939   33.5484   45.3294 H   0  0  0  0  0  0  0  0  0  0  0  0
   61.3820   35.2059   46.4905 H   0  0  0  0  0  0  0  0  0  0  0  0
   60.9959   33.5303   45.8795 H   0  0  0  0  0  0  0  0  0  0  0  0
   60.8448   29.8822   47.2037 H   0  0  0  0  0  0  0  0  0  0  0  0
   61.4572   29.1624   45.6761 H   0  0  0  0  0  0  0  0  0  0  0  0
   60.7766   30.8247   45.6761 H   0  0  0  0  0  0  0  0  0  0  0  0
  1  2  1  0
  2  3  2  0
  3  4  1  0
  4  5  2  0
  5  6  1  0
  6  7  1  0
  7  8  1  0
  8  9  1  0
  9 10  1  0
 10 11  1  0
 11 12  1  0
 12 13  1  0
 13 14  1  0
 14 15  1  0
 15 16  1  0
 16 17  1  0
 17 18  1  0
 10 19  1  0
 19 20  2  0
  6 21  2  0
 21 22  1  0
 21  2  1  0
 19  7  1  0
 18 13  1  0
  1 23  1  0
  1 24  1  0
  1 25  1  0
  3 26  1  0
  4 27  1  0
  5 28  1  0
  8 29  1  0
  8 30  1  0
  9 31  1  0
  9 32  1  0
 11 33  1  0
 11 34  1  0
 12 35  1  0
 12 36  1  0
 13 37  1  0
 14 38  1  0
 14 39  1  0
 15 40  1  0
 15 41  1  0
 16 42  1  0
 16 43  1  0
 17 44  1  0
 17 45  1  0
 18 46  1  0
 18 47  1  0
 22 48  1  0
 22 49  1  0
 22 50  1  0
M  CHG  1  13   1
M  END
>  <UniqueID>  (16) 
14

>  <SMILES>  (16) 
Cc1cccc(N2CCN(CC[NH+]3CCCCC3)C2=O)c1C

>  <Energy>  (16) 
76.26160114322941

>  <Genealogy>  (16) 
Cc1cccc(N2CCN(CC[NH+]3CCCCC3)C2=O)c1C (protonated)
Cc1cccc(N2CCN(CC[NH+]3CCCCC3)C2=O)c1C (3D coordinates assigned)
Cc1cccc(N2CCN(CC[NH+]3CCCCC3)C2=O)c1C (nonaromatic ring conformer: 76.26160114322941 kcal/mol)

>  <smiles>  (16) 
Cc1cccc(N2CCN(CCN3CCCCC3)C2=O)c1C

>  <score_type>  (16) 
oracle

>  <origin>  (16) 
adg

>  <m_score__min__energy>  (16) 
-5.7800000000000002

>  <m_primary>  (16) 
energy

$$$$
16:0
     RDKit          3D

 47 49  0  0  0  0  0  0  0  0999 V2000
   56.1070   29.7170   42.7730 C   0  0  0  0  0  0  0  0  0  0  0  0
   56.0300   30.1250   44.1360 O   0  0  0  0  0  0  0  0  0  0  0  0
   57.1060   30.6460   44.8710 C   0  0  0  0  0  0  0  0  0  0  0  0
   57.2930   32.0310   44.8780 C   0  0  0  0  0  0  0  0  0  0  0  0
   58.3330   32.6040   45.6090 C   0  0  0  0  0  0  0  0  0  0  0  0
   59.2100   31.7960   46.3370 C   0  0  0  0  0  0  0  0  0  0  0  0
   60.2010   32.3720   47.0660 N   0  0  0  0  0  0  0  0  0  0  0  0
   61.0820   31.6460   47.8080 C   0  0  0  0  0  0  0  0  0  0  0  0
   62.1300   32.3550   48.5850 C   0  0  0  0  0  0  0  0  0  0  0  0
   61.7630   33.3640   49.4970 C   0  0  0  0  0  0  0  0  0  0  0  0
   62.7380   34.0460   50.2310 C   0  0  0  0  0  0  0  0  0  0  0  0
   64.0880   33.7370   50.0590 C   0  0  0  0  0  0  0  0  0  0  0  0
   64.4680   32.7500   49.1480 C   0  0  0  0  0  0  0  0  0  0  0  0
   63.4980   32.0630   48.4120 C   0  0  0  0  0  0  0  0  0  0  0  0
   60.9660   30.2470   47.8300 C   0  0  0  0  0  0  0  0  0  0  0  0
   59.9690   29.6080   47.0770 C   0  0  0  0  0  0  0  0  0  0  0  0
   59.9180   28.1320   47.0930 C   0  0  0  0  0  0  0  0  0  0  0  0
   60.9810   27.4750   46.9330 O   0  0  0  0  0  0  0  0  0  0  0  0
   58.6650   27.4580   47.3050 N   0  0  0  0  0  0  0  0  0  0  0  0
   58.4720   26.0050   47.2120 C   0  0  2  0  0  0  0  0  0  0  0  0
   59.3050   25.4190   46.0670 C   0  0  0  0  0  0  0  0  0  0  0  0
   56.9810   25.6270   47.0760 C   0  0  0  0  0  0  0  0  0  0  0  0
   56.3720   26.1060   45.7550 C   0  0  0  0  0  0  0  0  0  0  0  0
   57.2020   27.0320   45.1500 F   0  0  0  0  0  0  0  0  0  0  0  0
   55.1450   26.6960   46.0020 F   0  0  0  0  0  0  0  0  0  0  0  0
   59.0610   30.3900   46.3250 C   0  0  0  0  0  0  0  0  0  0  0  0
   57.9900   29.8250   45.6000 C   0  0  0  0  0  0  0  0  0  0  0  0
   56.3108   28.6371   42.7245 H   0  0  0  0  0  0  0  0  0  0  0  0
   55.1523   29.9329   42.2711 H   0  0  0  0  0  0  0  0  0  0  0  0
   56.9174   30.2660   42.2711 H   0  0  0  0  0  0  0  0  0  0  0  0
   56.6131   32.6753   44.3012 H   0  0  0  0  0  0  0  0  0  0  0  0
   58.4634   33.6962   45.6125 H   0  0  0  0  0  0  0  0  0  0  0  0
   60.7012   33.6172   49.6326 H   0  0  0  0  0  0  0  0  0  0  0  0
   62.4405   34.8277   50.9455 H   0  0  0  0  0  0  0  0  0  0  0  0
   64.8529   34.2714   50.6415 H   0  0  0  0  0  0  0  0  0  0  0  0
   65.5330   32.5122   49.0089 H   0  0  0  0  0  0  0  0  0  0  0  0
   63.8046   31.2892   47.6929 H   0  0  0  0  0  0  0  0  0  0  0  0
   61.6594   29.6494   48.4399 H   0  0  0  0  0  0  0  0  0  0  0  0
   57.8140   28.0440   47.4710 H   0  0  0  0  0  0  0  0  0  0  0  0
   58.8268   25.5628   48.1546 H   0  0  0  0  0  0  0  0  0  0  0  0
   60.1381   24.8329   46.4823 H   0  0  0  0  0  0  0  0  0  0  0  0
   58.6707   24.7671   45.4484 H   0  0  0  0  0  0  0  0  0  0  0  0
   59.7042   26.2363   45.4484 H   0  0  0  0  0  0  0  0  0  0  0  0
   56.8883   24.5323   47.1306 H   0  0  0  0  0  0  0  0  0  0  0  0
   56.4354   26.1207   47.8937 H   0  0  0  0  0  0  0  0  0  0  0  0
   56.2492   25.2402   45.0877 H   0  0  0  0  0  0  0  0  0  0  0  0
   57.8439   28.7348   45.6039 H   0  0  0  0  0  0  0  0  0  0  0  0
  1  2  1  0
  2  3  1  0
  3  4  2  0
  4  5  1  0
  5  6  2  0
  6  7  1  0
  7  8  2  0
  8  9  1  0
  9 10  2  0
 10 11  1  0
 11 12  2  0
 12 13  1  0
 13 14  2  0
  8 15  1  0
 15 16  2  0
 16 17  1  0
 17 18  2  0
 17 19  1  0
 19 20  1  0
 20 21  1  0
 20 22  1  0
 22 23  1  0
 23 24  1  0
 23 25  1  0
 16 26  1  0
 26 27  2  0
 27  3  1  0
 26  6  1  0
 14  9  1  0
  1 28  1  0
  1 29  1  0
  1 30  1  0
  4 31  1  0
  5 32  1  0
 10 33  1  0
 11 34  1  0
 12 35  1  0
 13 36  1  0
 14 37  1  0
 15 38  1  0
 19 39  1  0
 20 40  1  1
 21 41  1  0
 21 42  1  0
 21 43  1  0
 22 44  1  0
 22 45  1  0
 23 46  1  0
 27 47  1  0
M  END
>  <UniqueID>  (17) 
15

>  <SMILES>  (17) 
COc1ccc2nc(-c3ccccc3)cc(C(=O)N[C@H](C)CC(F)F)c2c1

>  <Energy>  (17) 
55.60056768743323

>  <Genealogy>  (17) 
COc1ccc2nc(-c3ccccc3)cc(C(=O)N[C@H](C)CC(F)F)c2c1 (chirality)
COc1ccc2nc(-c3ccccc3)cc(C(=O)N[C@H](C)CC(F)F)c2c1 (3D coordinates assigned)
COc1ccc2nc(-c3ccccc3)cc(C(=O)N[C@H](C)CC(F)F)c2c1 (optimized conformer: 55.60056768743323 kcal/mol)

>  <smiles>  (17) 
COc1ccc2nc(-c3ccccc3)cc(C(=O)NC(C)CC(F)F)c2c1

>  <score_type>  (17) 
oracle

>  <origin>  (17) 
adg

>  <m_score__min__energy>  (17) 
-7.29

>  <m_primary>  (17) 
energy

$$$$
17:0
     RDKit          3D

 50 51  0  0  0  0  0  0  0  0999 V2000
   56.1354   28.7968   42.8884 H   0  0  0  0  0  0  0  0  0  0  0  0
   56.6090   29.6710   43.3590 C   0  0  0  0  0  0  0  0  0  0  0  0
   56.8010   30.8470   42.6210 C   0  0  0  0  0  0  0  0  0  0  0  0
   56.4598   30.9013   41.5767 H   0  0  0  0  0  0  0  0  0  0  0  0
   57.4250   31.9510   43.2090 C   0  0  0  0  0  0  0  0  0  0  0  0
   57.5828   32.8705   42.6262 H   0  0  0  0  0  0  0  0  0  0  0  0
   57.8500   31.8830   44.5460 C   0  0  0  0  0  0  0  0  0  0  0  0
   58.6820   33.2780   45.3060 S   0  0  0  0  0  0  0  0  0  0  0  0
   58.1190   32.8510   46.9880 C   0  0  0  0  0  0  0  0  0  0  0  0
   57.1833   32.2772   46.9152 H   0  0  0  0  0  0  0  0  0  0  0  0
   57.9667   33.7871   47.5453 H   0  0  0  0  0  0  0  0  0  0  0  0
   59.1360   32.0300   47.7250 C   0  0  0  0  0  0  0  0  0  0  0  0
   58.8140   30.8840   48.1360 O   0  0  0  0  0  0  0  0  0  0  0  0
   60.4960   32.4720   47.8450 N   0  0  0  0  0  0  0  0  0  0  0  0
   61.5400   31.5540   48.2230 C   0  0  0  0  0  0  0  0  0  0  0  0
   61.3330   30.6290   49.1270 N   0  0  0  0  0  0  0  0  0  0  0  0
   60.5200   29.9860   48.9930 H   0  0  0  0  0  0  0  0  0  0  0  0
   62.1050   30.4550   50.3310 C   0  0  0  0  0  0  0  0  0  0  0  0
   62.8600   31.3700   50.7570 O   0  0  0  0  0  0  0  0  0  0  0  0
   61.9400   29.2130   51.1710 C   0  0  0  0  0  0  0  0  0  0  0  0
   61.9648   29.5101   52.2298 H   0  0  0  0  0  0  0  0  0  0  0  0
   62.7619   28.5378   50.8906 H   0  0  0  0  0  0  0  0  0  0  0  0
   60.6810   28.4620   50.9310 N   0  0  0  0  0  0  0  0  0  0  0  0
   60.6430   27.7100   49.6650 C   0  0  0  0  0  0  0  0  0  0  0  0
   60.5886   26.6326   49.8800 H   0  0  0  0  0  0  0  0  0  0  0  0
   59.7590   28.0132   49.0848 H   0  0  0  0  0  0  0  0  0  0  0  0
   61.5530   27.9226   49.0848 H   0  0  0  0  0  0  0  0  0  0  0  0
   59.4960   29.3210   51.0760 C   0  0  0  0  0  0  0  0  0  0  0  0
   59.2834   29.4751   52.1442 H   0  0  0  0  0  0  0  0  0  0  0  0
   59.6863   30.2923   50.5961 H   0  0  0  0  0  0  0  0  0  0  0  0
   58.6320   28.8380   50.5961 H   0  0  0  0  0  0  0  0  0  0  0  0
   62.8820   31.5980   47.5200 C   0  0  0  0  0  0  0  0  0  0  0  0
   63.3497   30.6069   47.6147 H   0  0  0  0  0  0  0  0  0  0  0  0
   62.6748   31.8847   46.4784 H   0  0  0  0  0  0  0  0  0  0  0  0
   63.8670   32.6450   48.0670 C   0  0  0  0  0  0  0  0  0  0  0  0
   64.0660   32.4165   49.1244 H   0  0  0  0  0  0  0  0  0  0  0  0
   64.7753   32.5879   47.4491 H   0  0  0  0  0  0  0  0  0  0  0  0
   63.3450   34.0900   47.9710 C   0  0  0  0  0  0  0  0  0  0  0  0
   64.0664   34.7562   48.4668 H   0  0  0  0  0  0  0  0  0  0  0  0
   63.2314   34.3266   46.9028 H   0  0  0  0  0  0  0  0  0  0  0  0
   61.9710   34.2810   48.6300 C   0  0  0  0  0  0  0  0  0  0  0  0
   61.9230   33.6535   49.5322 H   0  0  0  0  0  0  0  0  0  0  0  0
   61.8635   35.3488   48.8714 H   0  0  0  0  0  0  0  0  0  0  0  0
   60.8140   33.8970   47.7040 C   0  0  0  0  0  0  0  0  0  0  0  0
   59.9275   34.4935   47.9654 H   0  0  0  0  0  0  0  0  0  0  0  0
   61.1099   34.0947   46.6632 H   0  0  0  0  0  0  0  0  0  0  0  0
   57.6390   30.7140   45.2880 C   0  0  0  0  0  0  0  0  0  0  0  0
   57.9608   30.6654   46.3387 H   0  0  0  0  0  0  0  0  0  0  0  0
   57.0210   29.6100   44.6970 C   0  0  0  0  0  0  0  0  0  0  0  0
   56.8576   28.6927   45.2816 H   0  0  0  0  0  0  0  0  0  0  0  0
  1  2  1  0
  2  3  2  0
  3  4  1  0
  3  5  1  0
  5  6  1  0
  5  7  2  0
  7  8  1  0
  8  9  1  0
  9 10  1  0
  9 11  1  0
  9 12  1  0
 12 13  2  0
 12 14  1  0
 14 15  1  0
 15 16  2  0
 16 17  1  0
 16 18  1  0
 18 19  2  0
 18 20  1  0
 20 21  1  0
 20 22  1  0
 20 23  1  0
 23 24  1  0
 24 25  1  0
 24 26  1  0
 24 27  1  0
 23 28  1  0
 28 29  1  0
 28 30  1  0
 28 31  1  0
 15 32  1  0
 32 33  1  0
 32 34  1  0
 32 35  1  0
 35 36  1  0
 35 37  1  0
 35 38  1  0
 38 39  1  0
 38 40  1  0
 38 41  1  0
 41 42  1  0
 41 43  1  0
 41 44  1  0
 44 45  1  0
 44 46  1  0
  7 47  1  0
 47 48  1  0
 47 49  2  0
 49 50  1  0
 49  2  1  0
 44 14  1  0
M  CHG  1  16   1
M  END
>  <UniqueID>  (18) 
16

>  <SMILES>  (18) 
CN(C)CC(=O)/[NH+]=C1/CCCCCN1C(=O)CSc1ccccc1

>  <Energy>  (18) 
58.941884641097374

>  <Genealogy>  (18) 
CN(C)CC(=O)[NH+]=C1CCCCCN1C(=O)CSc1ccccc1 (protonated)
CN(C)CC(=O)/[NH+]=C1/CCCCCN1C(=O)CSc1ccccc1 (cis-trans isomerization)
CN(C)CC(=O)/[NH+]=C1/CCCCCN1C(=O)CSc1ccccc1 (3D coordinates assigned)
CN(C)CC(=O)/[NH+]=C1/CCCCCN1C(=O)CSc1ccccc1 (nonaromatic ring conformer: 58.941884641097374 kcal/mol)

>  <smiles>  (18) 
CN(C)CC(=O)N=C1CCCCCN1C(=O)CSc1ccccc1

>  <score_type>  (18) 
oracle

>  <origin>  (18) 
adg

>  <m_score__min__energy>  (18) 
-3.8199999999999998

>  <m_primary>  (18) 
energy

$$$$
18:0
     RDKit          3D

 78 82  0  0  0  0  0  0  0  0999 V2000
   56.2810   22.7850   42.8920 C   0  0  0  0  0  0  0  0  0  0  0  0
   56.7200   22.7000   44.3500 C   0  0  0  0  0  0  0  0  0  0  0  0
   56.5140   23.9830   45.0280 N   0  0  0  0  0  0  0  0  0  0  0  0
   57.4470   24.9540   45.1210 C   0  0  0  0  0  0  0  0  0  0  0  0
   56.8920   26.0760   45.7110 C   0  0  0  0  0  0  0  0  0  0  0  0
   57.5550   27.3340   45.9550 N   0  0  0  0  0  0  0  0  0  0  0  0
   58.1270   27.5850   47.2860 C   0  0  0  0  0  0  0  0  0  0  0  0
   58.6780   29.0020   47.3920 C   0  0  0  0  0  0  0  0  0  0  0  0
   59.5050   29.2610   46.2020 N   0  0  0  0  0  0  0  0  0  0  0  0
   60.4580   30.3950   46.3350 C   0  0  1  0  0  0  0  0  0  0  0  0
   59.7750   31.7760   46.5000 C   0  0  0  0  0  0  0  0  0  0  0  0
   60.8170   32.9200   46.5460 C   0  0  0  0  0  0  0  0  0  0  0  0
   62.1370   32.4860   47.0690 N   0  0  1  0  0  0  0  0  0  0  0  0
   62.9840   33.6180   47.4420 C   0  0  0  0  0  0  0  0  0  0  0  0
   63.3870   34.3380   46.5350 O   0  0  0  0  0  0  0  0  0  0  0  0
   63.3910   34.0390   48.8710 C   0  0  0  0  0  0  0  0  0  0  0  0
   62.2350   34.4430   49.8170 C   0  0  0  0  0  0  0  0  0  0  0  0
   61.8440   33.3340   50.7870 C   0  0  0  0  0  0  0  0  0  0  0  0
   63.0440   32.8930   51.5020 N   0  0  0  0  0  0  0  0  0  0  0  0
   63.2560   33.2590   52.8890 C   0  0  0  0  0  0  0  0  0  0  0  0
   64.5530   32.9960   53.5930 C   0  0  0  0  0  0  0  0  0  0  0  0
   62.3300   33.8160   53.5420 O   0  0  0  0  0  0  0  0  0  0  0  0
   64.0860   32.2640   50.6800 C   0  0  0  0  0  0  0  0  0  0  0  0
   64.5250   33.2020   49.5390 C   0  0  0  0  0  0  0  0  0  0  0  0
   62.0160   31.4360   48.0960 C   0  0  0  0  0  0  0  0  0  0  0  0
   61.4650   30.1290   47.4850 C   0  0  0  0  0  0  0  0  0  0  0  0
   58.6820   29.3620   44.9750 C   0  0  0  0  0  0  0  0  0  0  0  0
   57.4510   28.4250   44.9690 C   0  0  0  0  0  0  0  0  0  0  0  0
   55.5660   25.7860   45.9770 C   0  0  0  0  0  0  0  0  0  0  0  0
   55.3670   24.4820   45.5550 C   0  0  0  0  0  0  0  0  0  0  0  0
   54.0740   23.7700   45.6430 C   0  0  0  0  0  0  0  0  0  0  0  0
   53.8490   22.8030   46.6360 C   0  0  0  0  0  0  0  0  0  0  0  0
   52.6150   22.1520   46.7220 C   0  0  0  0  0  0  0  0  0  0  0  0
   51.5900   22.4710   45.8280 C   0  0  0  0  0  0  0  0  0  0  0  0
   50.3930   21.8390   45.9130 F   0  0  0  0  0  0  0  0  0  0  0  0
   51.7980   23.4460   44.8480 C   0  0  0  0  0  0  0  0  0  0  0  0
   53.0310   24.0980   44.7590 C   0  0  0  0  0  0  0  0  0  0  0  0
   55.2020   22.9939   42.8455 H   0  0  0  0  0  0  0  0  0  0  0  0
   56.8329   23.5930   42.3894 H   0  0  0  0  0  0  0  0  0  0  0  0
   56.4914   21.8294   42.3894 H   0  0  0  0  0  0  0  0  0  0  0  0
   56.1311   21.9233   44.8599 H   0  0  0  0  0  0  0  0  0  0  0  0
   57.7907   22.4500   44.3833 H   0  0  0  0  0  0  0  0  0  0  0  0
   58.4891   24.8668   44.7799 H   0  0  0  0  0  0  0  0  0  0  0  0
   57.3428   27.4474   48.0451 H   0  0  0  0  0  0  0  0  0  0  0  0
   58.9533   26.8774   47.4486 H   0  0  0  0  0  0  0  0  0  0  0  0
   57.8480   29.7227   47.4334 H   0  0  0  0  0  0  0  0  0  0  0  0
   59.2808   29.1093   48.3059 H   0  0  0  0  0  0  0  0  0  0  0  0
   61.0024   30.4487   45.3807 H   0  0  0  0  0  0  0  0  0  0  0  0
   59.1976   31.7800   47.4363 H   0  0  0  0  0  0  0  0  0  0  0  0
   59.1167   31.9421   45.6345 H   0  0  0  0  0  0  0  0  0  0  0  0
   60.4298   33.7201   47.1939 H   0  0  0  0  0  0  0  0  0  0  0  0
   60.9712   33.2644   45.5128 H   0  0  0  0  0  0  0  0  0  0  0  0
   62.6320   32.0280   46.2640 H   0  0  0  0  0  0  0  0  0  0  0  0
   63.8879   34.9997   48.6707 H   0  0  0  0  0  0  0  0  0  0  0  0
   62.5488   35.3226   50.3983 H   0  0  0  0  0  0  0  0  0  0  0  0
   61.3566   34.6570   49.1904 H   0  0  0  0  0  0  0  0  0  0  0  0
   61.1034   33.7146   51.5058 H   0  0  0  0  0  0  0  0  0  0  0  0
   61.4044   32.4901   50.2351 H   0  0  0  0  0  0  0  0  0  0  0  0
   64.3929   33.0285   54.6808 H   0  0  0  0  0  0  0  0  0  0  0  0
   64.9304   32.0030   53.3074 H   0  0  0  0  0  0  0  0  0  0  0  0
   65.2874   33.7635   53.3074 H   0  0  0  0  0  0  0  0  0  0  0  0
   64.9557   32.0354   51.3135 H   0  0  0  0  0  0  0  0  0  0  0  0
   63.6787   31.3415   50.2405 H   0  0  0  0  0  0  0  0  0  0  0  0
   65.2669   33.9044   49.9467 H   0  0  0  0  0  0  0  0  0  0  0  0
   64.9161   32.5456   48.7477 H   0  0  0  0  0  0  0  0  0  0  0  0
   61.3318   31.7811   48.8852 H   0  0  0  0  0  0  0  0  0  0  0  0
   63.0138   31.2357   48.5134 H   0  0  0  0  0  0  0  0  0  0  0  0
   60.9568   29.5561   48.2747 H   0  0  0  0  0  0  0  0  0  0  0  0
   62.3142   29.5695   47.0658 H   0  0  0  0  0  0  0  0  0  0  0  0
   58.3286   30.3993   44.8790 H   0  0  0  0  0  0  0  0  0  0  0  0
   59.3218   29.0553   44.1344 H   0  0  0  0  0  0  0  0  0  0  0  0
   56.5553   29.0209   45.1983 H   0  0  0  0  0  0  0  0  0  0  0  0
   57.3922   27.9640   43.9720 H   0  0  0  0  0  0  0  0  0  0  0  0
   54.8207   26.4553   46.4315 H   0  0  0  0  0  0  0  0  0  0  0  0
   54.6484   22.5564   47.3503 H   0  0  0  0  0  0  0  0  0  0  0  0
   52.4507   21.3870   47.4952 H   0  0  0  0  0  0  0  0  0  0  0  0
   50.9902   23.7003   44.1460 H   0  0  0  0  0  0  0  0  0  0  0  0
   53.1863   24.8721   43.9931 H   0  0  0  0  0  0  0  0  0  0  0  0
  1  2  1  0
  2  3  1  0
  3  4  1  0
  4  5  2  0
  5  6  1  0
  6  7  1  0
  7  8  1  0
  8  9  1  0
  9 10  1  0
 10 11  1  0
 11 12  1  0
 12 13  1  0
 13 14  1  0
 14 15  2  0
 14 16  1  0
 16 17  1  0
 17 18  1  0
 18 19  1  0
 19 20  1  0
 20 21  1  0
 20 22  2  0
 19 23  1  0
 23 24  1  0
 13 25  1  0
 25 26  1  0
  9 27  1  0
 27 28  1  0
  5 29  1  0
 29 30  2  0
 30 31  1  0
 31 32  2  0
 32 33  1  0
 33 34  2  0
 34 35  1  0
 34 36  1  0
 36 37  2  0
 30  3  1  0
 37 31  1  0
 28  6  1  0
 26 10  1  0
 24 16  1  0
  1 38  1  0
  1 39  1  0
  1 40  1  0
  2 41  1  0
  2 42  1  0
  4 43  1  0
  7 44  1  0
  7 45  1  0
  8 46  1  0
  8 47  1  0
 10 48  1  6
 11 49  1  0
 11 50  1  0
 12 51  1  0
 12 52  1  0
 13 53  1  6
 16 54  1  0
 17 55  1  0
 17 56  1  0
 18 57  1  0
 18 58  1  0
 21 59  1  0
 21 60  1  0
 21 61  1  0
 23 62  1  0
 23 63  1  0
 24 64  1  0
 24 65  1  0
 25 66  1  0
 25 67  1  0
 26 68  1  0
 26 69  1  0
 27 70  1  0
 27 71  1  0
 28 72  1  0
 28 73  1  0
 29 74  1  0
 32 75  1  0
 33 76  1  0
 36 77  1  0
 37 78  1  0
M  CHG  1  13   1
M  END
>  <UniqueID>  (19) 
17

>  <SMILES>  (19) 
CCn1cc(N2CCN(C3CC[NH+](C(=O)C4CCN(C(C)=O)CC4)CC3)CC2)cc1-c1ccc(F)cc1

>  <Energy>  (19) 
146.19657270434897

>  <Genealogy>  (19) 
CCn1cc(N2CCN(C3CC[NH+](C(=O)C4CCN(C(C)=O)CC4)CC3)CC2)cc1-c1ccc(F)cc1 (protonated)
CCn1cc(N2CCN(C3CC[NH+](C(=O)C4CCN(C(C)=O)CC4)CC3)CC2)cc1-c1ccc(F)cc1 (3D coordinates assigned)
CCn1cc(N2CCN(C3CC[NH+](C(=O)C4CCN(C(C)=O)CC4)CC3)CC2)cc1-c1ccc(F)cc1 (nonaromatic ring conformer: 146.19657270434897 kcal/mol)

>  <smiles>  (19) 
CCn1cc(N2CCN(C3CCN(C(=O)C4CCN(C(C)=O)CC4)CC3)CC2)cc1-c1ccc(F)cc1

>  <score_type>  (19) 
oracle

>  <origin>  (19) 
adg

>  <m_score__min__energy>  (19) 
-6.9299999999999997

>  <m_primary>  (19) 
energy

$$$$
19:0
     RDKit          3D

 64 69  0  0  0  0  0  0  0  0999 V2000
   60.9249   31.3486   55.2550 H   0  0  0  0  0  0  0  0  0  0  0  0
   61.4140   31.9110   54.4460 C   0  0  0  0  0  0  0  0  0  0  0  0
   60.6850   32.3490   53.3910 N   0  0  0  0  0  0  0  0  0  0  0  0
   61.2600   33.0420   52.3730 C   0  0  0  0  0  0  0  0  0  0  0  0
   60.3960   33.4940   51.2310 C   0  0  0  0  0  0  0  0  0  0  0  0
   59.4862   33.9700   51.6256 H   0  0  0  0  0  0  0  0  0  0  0  0
   60.9508   34.2174   50.6154 H   0  0  0  0  0  0  0  0  0  0  0  0
   60.1181   32.6257   50.6154 H   0  0  0  0  0  0  0  0  0  0  0  0
   62.6430   33.3190   52.4120 C   0  0  0  0  0  0  0  0  0  0  0  0
   63.3000   34.0710   51.3200 C   0  0  0  0  0  0  0  0  0  0  0  0
   64.0060   35.0730   51.6180 O   0  0  0  0  0  0  0  0  0  0  0  0
   63.1670   33.6710   49.9390 N   0  0  0  0  0  0  0  0  0  0  0  0
   62.4950   34.5750   48.9700 C   0  0  0  0  0  0  0  0  0  0  0  0
   63.2445   35.2715   48.5660 H   0  0  0  0  0  0  0  0  0  0  0  0
   61.6933   35.0952   49.5148 H   0  0  0  0  0  0  0  0  0  0  0  0
   61.8290   33.8250   47.7820 C   0  0  0  0  0  0  0  0  0  0  0  0
   62.0398   34.3701   46.8501 H   0  0  0  0  0  0  0  0  0  0  0  0
   60.7455   33.7747   47.9652 H   0  0  0  0  0  0  0  0  0  0  0  0
   62.3440   32.4570   47.6630 N   0  0  0  0  0  0  0  0  0  0  0  0
   61.5140   31.4030   48.1870 C   0  0  0  0  0  0  0  0  0  0  0  0
   60.3450   31.0680   47.5820 N   0  0  0  0  0  0  0  0  0  0  0  0
   59.5320   30.1150   48.1120 C   0  0  0  0  0  0  0  0  0  0  0  0
   58.4240   29.8160   47.5020 N   0  0  0  0  0  0  0  0  0  0  0  0
   58.1770   28.6060   46.7670 C   0  0  0  0  0  0  0  0  0  0  0  0
   58.8800   27.4520   47.1230 C   0  0  0  0  0  0  0  0  0  0  0  0
   59.5943   27.4856   47.9589 H   0  0  0  0  0  0  0  0  0  0  0  0
   58.6850   26.2580   46.4290 C   0  0  0  0  0  0  0  0  0  0  0  0
   59.2369   25.3554   46.7302 H   0  0  0  0  0  0  0  0  0  0  0  0
   57.7890   26.1990   45.3480 C   0  0  0  0  0  0  0  0  0  0  0  0
   57.5610   24.9340   44.6030 C   0  0  0  0  0  0  0  0  0  0  0  0
   58.0830   23.7440   44.9750 N   0  0  0  0  0  0  0  0  0  0  0  0
   57.6100   22.9210   44.0150 C   0  0  0  0  0  0  0  0  0  0  0  0
   57.8740   21.4550   43.9710 C   0  0  0  0  0  0  0  0  0  0  0  0
   57.9444   21.0642   44.9968 H   0  0  0  0  0  0  0  0  0  0  0  0
   57.0523   20.9502   43.4419 H   0  0  0  0  0  0  0  0  0  0  0  0
   58.8202   21.2685   43.4419 H   0  0  0  0  0  0  0  0  0  0  0  0
   56.8620   23.5610   43.1510 O   0  0  0  0  0  0  0  0  0  0  0  0
   56.8150   24.8130   43.4860 N   0  0  0  0  0  0  0  0  0  0  0  0
   56.2850   25.5460   42.9660 H   0  0  0  0  0  0  0  0  0  0  0  0
   57.1080   27.3680   44.9680 C   0  0  0  0  0  0  0  0  0  0  0  0
   56.4077   27.3359   44.1203 H   0  0  0  0  0  0  0  0  0  0  0  0
   57.3090   28.5810   45.6570 C   0  0  0  0  0  0  0  0  0  0  0  0
   56.6880   29.7740   45.2520 O   0  0  0  0  0  0  0  0  0  0  0  0
   57.3020   30.7820   44.4560 C   0  0  0  0  0  0  0  0  0  0  0  0
   57.7618   31.5369   45.1108 H   0  0  0  0  0  0  0  0  0  0  0  0
   58.0764   30.3268   43.8211 H   0  0  0  0  0  0  0  0  0  0  0  0
   56.5423   31.2612   43.8211 H   0  0  0  0  0  0  0  0  0  0  0  0
   59.8990   29.4770   49.2610 N   0  0  0  0  0  0  0  0  0  0  0  0
   61.0520   29.7890   49.9080 C   0  0  0  0  0  0  0  0  0  0  0  0
   61.3256   29.2644   50.8353 H   0  0  0  0  0  0  0  0  0  0  0  0
   61.8870   30.7790   49.3890 C   0  0  0  0  0  0  0  0  0  0  0  0
   63.1260   31.2390   50.0640 C   0  0  0  0  0  0  0  0  0  0  0  0
   63.5380   30.6840   51.1190 O   0  0  0  0  0  0  0  0  0  0  0  0
   63.8540   32.4360   49.4890 C   0  0  1  0  0  0  0  0  0  0  0  0
   64.9035   32.4684   49.8168 H   0  0  0  0  0  0  0  0  0  0  0  0
   63.7670   32.3240   47.9650 C   0  0  0  0  0  0  0  0  0  0  0  0
   64.3424   33.1285   47.4836 H   0  0  0  0  0  0  0  0  0  0  0  0
   64.1841   31.3765   47.5933 H   0  0  0  0  0  0  0  0  0  0  0  0
   63.3790   32.8590   53.5260 C   0  0  0  0  0  0  0  0  0  0  0  0
   64.8530   33.1110   53.6670 C   0  0  0  0  0  0  0  0  0  0  0  0
   65.1169   33.1561   54.7339 H   0  0  0  0  0  0  0  0  0  0  0  0
   65.4122   32.2954   53.1852 H   0  0  0  0  0  0  0  0  0  0  0  0
   65.1095   34.0660   53.1852 H   0  0  0  0  0  0  0  0  0  0  0  0
   62.7440   32.1640   54.5070 N   0  0  0  0  0  0  0  0  0  0  0  0
  1  2  1  0
  2  3  2  0
  3  4  1  0
  4  5  1  0
  5  6  1  0
  5  7  1  0
  5  8  1  0
  4  9  2  0
  9 10  1  0
 10 11  2  0
 10 12  1  0
 12 13  1  0
 13 14  1  0
 13 15  1  0
 13 16  1  0
 16 17  1  0
 16 18  1  0
 16 19  1  0
 19 20  1  0
 20 21  2  0
 21 22  1  0
 22 23  2  0
 23 24  1  0
 24 25  2  0
 25 26  1  0
 25 27  1  0
 27 28  1  0
 27 29  2  0
 29 30  1  0
 30 31  1  0
 31 32  2  0
 32 33  1  0
 33 34  1  0
 33 35  1  0
 33 36  1  0
 32 37  1  0
 37 38  1  0
 38 39  1  0
 29 40  1  0
 40 41  1  0
 40 42  2  0
 42 43  1  0
 43 44  1  0
 44 45  1  0
 44 46  1  0
 44 47  1  0
 22 48  1  0
 48 49  1  0
 49 50  1  0
 49 51  2  0
 51 52  1  0
 52 53  2  0
 52 54  1  0
 54 55  1  6
 54 56  1  0
 56 57  1  0
 56 58  1  0
  9 59  1  0
 59 60  1  0
 60 61  1  0
 60 62  1  0
 60 63  1  0
 59 64  2  0
 64  2  1  0
 54 12  1  0
 56 19  1  0
 51 20  1  0
 42 24  1  0
 38 30  2  0
M  CHG  2  38   1  48  -1
M  END
>  <UniqueID>  (20) 
18

>  <SMILES>  (20) 
COc1cc(-c2nc(C)o[nH+]2)ccc1/N=c1/nc2c(c[n-]1)C(=O)[C@H]1CN2CCN1C(=O)c1c(C)ncnc1C

>  <Energy>  (20) 
139.3449390275197

>  <Genealogy>  (20) 
COc1cc(-c2nc(C)o[nH+]2)ccc1N=c1nc2c(c[n-]1)C(=O)C1CN2CCN1C(=O)c1c(C)ncnc1C (protonated)
COc1cc(-c2nc(C)o[nH+]2)ccc1N=c1nc2c(c[n-]1)C(=O)[C@H]1CN2CCN1C(=O)c1c(C)ncnc1C (chirality)
COc1cc(-c2nc(C)o[nH+]2)ccc1/N=c1/nc2c(c[n-]1)C(=O)[C@H]1CN2CCN1C(=O)c1c(C)ncnc1C (cis-trans isomerization)
COc1cc(-c2nc(C)o[nH+]2)ccc1/N=c1/nc2c(c[n-]1)C(=O)[C@H]1CN2CCN1C(=O)c1c(C)ncnc1C (3D coordinates assigned)
COc1cc(-c2nc(C)o[nH+]2)ccc1/N=c1/nc2c(c[n-]1)C(=O)[C@H]1CN2CCN1C(=O)c1c(C)ncnc1C (nonaromatic ring conformer: 139.3449390275197 kcal/mol)

>  <smiles>  (20) 
COc1cc(-c2noc(C)n2)ccc1N=c1nc2c(c[nH]1)C(=O)C1CN2CCN1C(=O)c1c(C)ncnc1C

>  <score_type>  (20) 
oracle

>  <origin>  (20) 
adg

>  <m_score__min__energy>  (20) 
-8.7699999999999996

>  <m_primary>  (20) 
energy

$$$$
20:0
     RDKit          3D

 39 41  0  0  0  0  0  0  0  0999 V2000
   57.3210   26.2490   45.7070 C   0  0  0  0  0  0  0  0  0  0  0  0
   57.4520   27.0610   46.8700 O   0  0  0  0  0  0  0  0  0  0  0  0
   58.5040   27.9620   47.1020 C   0  0  0  0  0  0  0  0  0  0  0  0
   59.3780   27.8110   48.1940 C   0  0  0  0  0  0  0  0  0  0  0  0
   60.3740   28.7580   48.4420 C   0  0  0  0  0  0  0  0  0  0  0  0
   60.5160   29.8840   47.6140 C   0  0  0  0  0  0  0  0  0  0  0  0
   61.5390   30.8610   47.8950 N   0  0  0  0  0  0  0  0  0  0  0  0
   61.9130   31.9000   47.1180 C   0  0  0  0  0  0  0  0  0  0  0  0
   62.9130   32.5850   47.7720 C   0  0  0  0  0  0  0  0  0  0  0  0
   63.6840   33.7580   47.2630 C   0  0  0  0  0  0  0  0  0  0  0  0
   63.1230   31.8960   48.9470 C   0  0  0  0  0  0  0  0  0  0  0  0
   62.2690   30.8560   49.0040 N   0  0  0  0  0  0  0  0  0  0  0  0
   59.6510   30.0250   46.5120 C   0  0  0  0  0  0  0  0  0  0  0  0
   58.6730   29.0610   46.2360 C   0  0  0  0  0  0  0  0  0  0  0  0
   57.8220   29.2630   45.0990 N   0  0  0  0  0  0  0  0  0  0  0  0
   57.0190   30.4260   44.8600 C   0  0  0  0  0  0  0  0  0  0  0  0
   55.8130   30.2940   44.5150 O   0  0  0  0  0  0  0  0  0  0  0  0
   57.5910   31.7850   45.0120 C   0  0  0  0  0  0  0  0  0  0  0  0
   57.7110   32.3230   46.3070 C   0  0  0  0  0  0  0  0  0  0  0  0
   58.2630   33.5910   46.5060 C   0  0  0  0  0  0  0  0  0  0  0  0
   58.6970   34.3430   45.4160 C   0  0  0  0  0  0  0  0  0  0  0  0
   58.5740   33.8340   44.1230 C   0  0  0  0  0  0  0  0  0  0  0  0
   58.0220   32.5640   43.9070 C   0  0  0  0  0  0  0  0  0  0  0  0
   57.8310   32.0390   42.2360 Cl  0  0  0  0  0  0  0  0  0  0  0  0
   57.1524   25.2041   46.0065 H   0  0  0  0  0  0  0  0  0  0  0  0
   56.4680   26.6010   45.1082 H   0  0  0  0  0  0  0  0  0  0  0  0
   58.2414   26.3149   45.1082 H   0  0  0  0  0  0  0  0  0  0  0  0
   59.2760   26.9399   48.8579 H   0  0  0  0  0  0  0  0  0  0  0  0
   61.0548   28.6207   49.2950 H   0  0  0  0  0  0  0  0  0  0  0  0
   61.4923   32.1549   46.1341 H   0  0  0  0  0  0  0  0  0  0  0  0
   64.0675   34.3415   48.1130 H   0  0  0  0  0  0  0  0  0  0  0  0
   64.5268   33.4050   46.6505 H   0  0  0  0  0  0  0  0  0  0  0  0
   63.0257   34.3917   46.6505 H   0  0  0  0  0  0  0  0  0  0  0  0
   63.8678   32.1538   49.7143 H   0  0  0  0  0  0  0  0  0  0  0  0
   59.7446   30.9048   45.8584 H   0  0  0  0  0  0  0  0  0  0  0  0
   57.3662   31.7383   47.1726 H   0  0  0  0  0  0  0  0  0  0  0  0
   58.3551   33.9963   47.5245 H   0  0  0  0  0  0  0  0  0  0  0  0
   59.1368   35.3386   45.5753 H   0  0  0  0  0  0  0  0  0  0  0  0
   58.9131   34.4344   43.2659 H   0  0  0  0  0  0  0  0  0  0  0  0
  1  2  1  0
  2  3  1  0
  3  4  2  0
  4  5  1  0
  5  6  2  0
  6  7  1  0
  7  8  1  0
  8  9  2  0
  9 10  1  0
  9 11  1  0
 11 12  2  0
  6 13  1  0
 13 14  2  0
 14 15  1  0
 15 16  1  0
 16 17  2  0
 16 18  1  0
 18 19  2  0
 19 20  1  0
 20 21  2  0
 21 22  1  0
 22 23  2  0
 23 24  1  0
 14  3  1  0
 23 18  1  0
 12  7  1  0
  1 25  1  0
  1 26  1  0
  1 27  1  0
  4 28  1  0
  5 29  1  0
  8 30  1  0
 10 31  1  0
 10 32  1  0
 10 33  1  0
 11 34  1  0
 13 35  1  0
 19 36  1  0
 20 37  1  0
 21 38  1  0
 22 39  1  0
M  CHG  1  15  -1
M  END
>  <UniqueID>  (21) 
19

>  <SMILES>  (21) 
COc1ccc(-n2cc(C)cn2)cc1[N-]C(=O)c1ccccc1Cl

>  <Energy>  (21) 
82.7158051529435

>  <Genealogy>  (21) 
COc1ccc(-n2cc(C)cn2)cc1[N-]C(=O)c1ccccc1Cl (protonated)
COc1ccc(-n2cc(C)cn2)cc1[N-]C(=O)c1ccccc1Cl (3D coordinates assigned)
COc1ccc(-n2cc(C)cn2)cc1[N-]C(=O)c1ccccc1Cl (optimized conformer: 82.7158051529435 kcal/mol)

>  <smiles>  (21) 
COc1ccc(-n2cc(C)cn2)cc1NC(=O)c1ccccc1Cl

>  <score_type>  (21) 
oracle

>  <origin>  (21) 
adg

>  <m_score__min__energy>  (21) 
-9.2300000000000004

>  <m_primary>  (21) 
energy

$$$$
21:0
     RDKit          3D

 45 46  0  0  0  0  0  0  0  0999 V2000
   65.0100   31.9030   50.1120 C   0  0  0  0  0  0  0  0  0  0  0  0
   64.9340   33.4100   49.9270 C   0  0  0  0  0  0  0  0  0  0  0  0
   63.7510   33.7320   49.2270 O   0  0  0  0  0  0  0  0  0  0  0  0
   63.7770   33.1760   47.9240 C   0  0  0  0  0  0  0  0  0  0  0  0
   62.3860   32.6730   47.5150 C   0  0  0  0  0  0  0  0  0  0  0  0
   61.3830   32.9640   48.5540 N   0  0  0  0  0  0  0  0  0  0  0  0
   60.5780   34.1530   48.2260 C   0  0  0  0  0  0  0  0  0  0  0  0
   59.7850   33.9670   46.9540 C   0  0  0  0  0  0  0  0  0  0  0  0
   59.6550   35.0270   46.0460 C   0  0  0  0  0  0  0  0  0  0  0  0
   58.9010   34.8660   44.8820 C   0  0  0  0  0  0  0  0  0  0  0  0
   58.2670   33.6510   44.6170 C   0  0  0  0  0  0  0  0  0  0  0  0
   58.3790   32.5760   45.5180 C   0  0  0  0  0  0  0  0  0  0  0  0
   57.7200   31.3180   45.2490 N   0  0  0  0  0  0  0  0  0  0  0  0
   56.9510   31.1240   44.0130 C   0  0  0  0  0  0  0  0  0  0  0  0
   55.8260   30.1060   44.2480 C   0  0  0  0  0  0  0  0  0  0  0  0
   56.3030   28.8160   44.7860 N   0  0  0  0  0  0  0  0  0  0  0  0
   57.6120   28.8670   45.4630 C   0  0  0  0  0  0  0  0  0  0  0  0
   57.8410   30.1970   46.1900 C   0  0  0  0  0  0  0  0  0  0  0  0
   59.1440   32.7460   46.6880 C   0  0  0  0  0  0  0  0  0  0  0  0
   65.0220   31.6656   51.1860 H   0  0  0  0  0  0  0  0  0  0  0  0
   64.1345   31.4313   49.6419 H   0  0  0  0  0  0  0  0  0  0  0  0
   65.9285   31.5217   49.6419 H   0  0  0  0  0  0  0  0  0  0  0  0
   64.9248   33.9016   50.9110 H   0  0  0  0  0  0  0  0  0  0  0  0
   65.8078   33.7571   49.3560 H   0  0  0  0  0  0  0  0  0  0  0  0
   64.1057   33.9460   47.2105 H   0  0  0  0  0  0  0  0  0  0  0  0
   64.4738   32.3249   47.9191 H   0  0  0  0  0  0  0  0  0  0  0  0
   62.0868   33.1687   46.5797 H   0  0  0  0  0  0  0  0  0  0  0  0
   62.4379   31.5826   47.3792 H   0  0  0  0  0  0  0  0  0  0  0  0
   60.7550   32.1360   48.6860 H   0  0  0  0  0  0  0  0  0  0  0  0
   61.8730   33.1520   49.4600 H   0  0  0  0  0  0  0  0  0  0  0  0
   59.8805   34.3489   49.0537 H   0  0  0  0  0  0  0  0  0  0  0  0
   61.2661   34.9981   48.0766 H   0  0  0  0  0  0  0  0  0  0  0  0
   60.1485   35.9885   46.2511 H   0  0  0  0  0  0  0  0  0  0  0  0
   58.8062   35.6999   44.1710 H   0  0  0  0  0  0  0  0  0  0  0  0
   57.6755   33.5330   43.6971 H   0  0  0  0  0  0  0  0  0  0  0  0
   56.5140   32.0842   43.7015 H   0  0  0  0  0  0  0  0  0  0  0  0
   57.6211   30.7461   43.2267 H   0  0  0  0  0  0  0  0  0  0  0  0
   55.1092   30.5376   44.9621 H   0  0  0  0  0  0  0  0  0  0  0  0
   55.3667   29.8992   43.2701 H   0  0  0  0  0  0  0  0  0  0  0  0
   56.3750   28.1300   43.9990 H   0  0  0  0  0  0  0  0  0  0  0  0
   57.6623   28.0495   46.1973 H   0  0  0  0  0  0  0  0  0  0  0  0
   58.3921   28.7658   44.6941 H   0  0  0  0  0  0  0  0  0  0  0  0
   57.0910   30.3092   46.9868 H   0  0  0  0  0  0  0  0  0  0  0  0
   58.8524   30.1996   46.6225 H   0  0  0  0  0  0  0  0  0  0  0  0
   59.2405   31.9139   47.4009 H   0  0  0  0  0  0  0  0  0  0  0  0
  1  2  1  0
  2  3  1  0
  3  4  1  0
  4  5  1  0
  5  6  1  0
  6  7  1  0
  7  8  1  0
  8  9  2  0
  9 10  1  0
 10 11  2  0
 11 12  1  0
 12 13  1  0
 13 14  1  0
 14 15  1  0
 15 16  1  0
 16 17  1  0
 17 18  1  0
 12 19  2  0
 19  8  1  0
 18 13  1  0
  1 20  1  0
  1 21  1  0
  1 22  1  0
  2 23  1  0
  2 24  1  0
  4 25  1  0
  4 26  1  0
  5 27  1  0
  5 28  1  0
  6 29  1  0
  6 30  1  0
  7 31  1  0
  7 32  1  0
  9 33  1  0
 10 34  1  0
 11 35  1  0
 14 36  1  0
 14 37  1  0
 15 38  1  0
 15 39  1  0
 16 40  1  0
 17 41  1  0
 17 42  1  0
 18 43  1  0
 18 44  1  0
 19 45  1  0
M  CHG  1   6   1
M  END
>  <UniqueID>  (22) 
20

>  <SMILES>  (22) 
CCOCC[NH2+]Cc1cccc(N2CCNCC2)c1

>  <Energy>  (22) 
47.87557362482208

>  <Genealogy>  (22) 
CCOCC[NH2+]Cc1cccc(N2CCNCC2)c1 (protonated)
CCOCC[NH2+]Cc1cccc(N2CCNCC2)c1 (3D coordinates assigned)
CCOCC[NH2+]Cc1cccc(N2CCNCC2)c1 (nonaromatic ring conformer: 47.87557362482208 kcal/mol)

>  <smiles>  (22) 
CCOCCNCc1cccc(N2CCNCC2)c1

>  <score_type>  (22) 
oracle

>  <origin>  (22) 
adg

>  <m_score__min__energy>  (22) 
-5.2000000000000002

>  <m_primary>  (22) 
energy

$$$$
22:0
     RDKit          3D

 39 42  0  0  0  0  0  0  0  0999 V2000
   55.9603   21.8156   43.0874 H   0  0  0  0  0  0  0  0  0  0  0  0
   55.9410   22.7310   43.6970 C   0  0  0  0  0  0  0  0  0  0  0  0
   54.8310   23.0140   44.4970 C   0  0  0  0  0  0  0  0  0  0  0  0
   53.9810   22.3163   44.5245 H   0  0  0  0  0  0  0  0  0  0  0  0
   54.8000   24.1840   45.2630 C   0  0  0  0  0  0  0  0  0  0  0  0
   53.9312   24.3950   45.9038 H   0  0  0  0  0  0  0  0  0  0  0  0
   55.8690   25.0890   45.2190 C   0  0  0  0  0  0  0  0  0  0  0  0
   55.8130   26.2630   46.0490 N   0  0  0  0  0  0  0  0  0  0  0  0
   56.6450   27.2650   46.0410 C   0  0  0  0  0  0  0  0  0  0  0  0
   56.3130   28.4580   45.4490 N   0  0  0  0  0  0  0  0  0  0  0  0
   57.1600   29.5290   45.4590 C   0  0  0  0  0  0  0  0  0  0  0  0
   56.7790   30.7150   44.8190 O   0  0  0  0  0  0  0  0  0  0  0  0
   57.4250   31.9510   44.9660 C   0  0  0  0  0  0  0  0  0  0  0  0
   58.1360   32.5510   43.9080 C   0  0  0  0  0  0  0  0  0  0  0  0
   58.1876   32.0515   42.9293 H   0  0  0  0  0  0  0  0  0  0  0  0
   58.7760   33.7790   44.0980 C   0  0  0  0  0  0  0  0  0  0  0  0
   59.3214   34.2485   43.2661 H   0  0  0  0  0  0  0  0  0  0  0  0
   58.7240   34.4110   45.3430 C   0  0  0  0  0  0  0  0  0  0  0  0
   59.2243   35.3796   45.4897 H   0  0  0  0  0  0  0  0  0  0  0  0
   58.0360   33.8120   46.4020 C   0  0  0  0  0  0  0  0  0  0  0  0
   57.9986   34.3076   47.3833 H   0  0  0  0  0  0  0  0  0  0  0  0
   57.3950   32.5830   46.2150 C   0  0  0  0  0  0  0  0  0  0  0  0
   56.8641   32.1101   47.0543 H   0  0  0  0  0  0  0  0  0  0  0  0
   58.3960   29.3670   46.0850 C   0  0  0  0  0  0  0  0  0  0  0  0
   59.5090   30.1790   46.1980 C   0  0  0  0  0  0  0  0  0  0  0  0
   59.6264   31.2066   45.8236 H   0  0  0  0  0  0  0  0  0  0  0  0
   60.4510   29.4170   46.8880 C   0  0  0  0  0  0  0  0  0  0  0  0
   61.4639   29.7576   47.1488 H   0  0  0  0  0  0  0  0  0  0  0  0
   59.9440   28.1990   47.1920 N   0  0  0  0  0  0  0  0  0  0  0  0
   60.6600   27.0880   47.8080 C   0  0  0  0  0  0  0  0  0  0  0  0
   60.6027   27.1769   48.9029 H   0  0  0  0  0  0  0  0  0  0  0  0
   60.2038   26.1380   47.4929 H   0  0  0  0  0  0  0  0  0  0  0  0
   61.7136   27.1111   47.4929 H   0  0  0  0  0  0  0  0  0  0  0  0
   58.7030   28.1800   46.6780 C   0  0  0  0  0  0  0  0  0  0  0  0
   57.8500   27.1260   46.6670 N   0  0  0  0  0  0  0  0  0  0  0  0
   56.9980   24.7820   44.4350 C   0  0  0  0  0  0  0  0  0  0  0  0
   57.8600   25.4653   44.4232 H   0  0  0  0  0  0  0  0  0  0  0  0
   57.0260   23.6100   43.6710 C   0  0  0  0  0  0  0  0  0  0  0  0
   57.9038   23.3807   43.0491 H   0  0  0  0  0  0  0  0  0  0  0  0
  1  2  1  0
  2  3  2  0
  3  4  1  0
  3  5  1  0
  5  6  1  0
  5  7  2  0
  7  8  1  0
  8  9  2  0
  9 10  1  0
 10 11  2  0
 11 12  1  0
 12 13  1  0
 13 14  2  0
 14 15  1  0
 14 16  1  0
 16 17  1  0
 16 18  2  0
 18 19  1  0
 18 20  1  0
 20 21  1  0
 20 22  2  0
 22 23  1  0
 11 24  1  0
 24 25  1  0
 25 26  1  0
 25 27  2  0
 27 28  1  0
 27 29  1  0
 29 30  1  0
 30 31  1  0
 30 32  1  0
 30 33  1  0
 29 34  1  0
 34 35  1  0
  7 36  1  0
 36 37  1  0
 36 38  2  0
 38 39  1  0
 38  2  1  0
 35  9  1  0
 22 13  1  0
 34 24  2  0
M  CHG  1  35  -1
M  END
>  <UniqueID>  (23) 
21

>  <SMILES>  (23) 
Cn1ccc2c(Oc3ccccc3)n/c(=N\c3ccccc3)[n-]c21

>  <Energy>  (23) 
92.49148844986352

>  <Genealogy>  (23) 
Cn1ccc2c(Oc3ccccc3)nc(=Nc3ccccc3)[n-]c21 (protonated)
Cn1ccc2c(Oc3ccccc3)n/c(=N\c3ccccc3)[n-]c21 (cis-trans isomerization)
Cn1ccc2c(Oc3ccccc3)n/c(=N\c3ccccc3)[n-]c21 (3D coordinates assigned)
Cn1ccc2c(Oc3ccccc3)n/c(=N\c3ccccc3)[n-]c21 (optimized conformer: 92.49148844986352 kcal/mol)

>  <smiles>  (23) 
Cn1ccc2c(Oc3ccccc3)nc(=Nc3ccccc3)[nH]c21

>  <score_type>  (23) 
oracle

>  <origin>  (23) 
adg

>  <m_score__min__energy>  (23) 
-9.3599999999999994

>  <m_primary>  (23) 
energy

$$$$
23:0
     RDKit          3D

 39 42  0  0  1  0  0  0  0  0999 V2000
   56.1570   24.9810   45.5900 C   0  0  0  0  0  0  0  0  0  0  0  0
   55.9340   26.3050   46.0280 O   0  0  0  0  0  0  0  0  0  0  0  0
   57.0040   27.1230   46.3440 C   0  0  0  0  0  0  0  0  0  0  0  0
   58.0180   26.6520   47.1160 C   0  0  0  0  0  0  0  0  0  0  0  0
   59.1260   27.3840   47.4880 C   0  0  0  0  0  0  0  0  0  0  0  0
   59.1950   28.6650   47.0430 C   0  0  0  0  0  0  0  0  0  0  0  0
   60.2800   29.4120   47.3840 N   0  0  0  0  0  0  0  0  0  0  0  0
   60.4010   30.6800   46.9680 C   0  0  0  0  0  0  0  0  0  0  0  0
   61.5800   31.4540   47.3530 C   0  0  0  0  0  0  0  0  0  0  0  0
   62.6460   31.2160   48.1010 C   0  0  0  0  0  0  0  0  0  0  0  0
   63.5860   32.1600   48.2680 C   0  0  0  0  0  0  0  0  0  0  0  0
   63.3960   33.3700   47.6340 C   0  0  0  0  0  0  0  0  0  0  0  0
   61.7950   33.1740   46.7440 S   0  0  0  0  0  0  0  0  0  0  0  0
   59.4130   31.1740   46.2080 N   0  0  0  0  0  0  0  0  0  0  0  0
   58.3230   30.4700   45.8470 C   0  0  0  0  0  0  0  0  0  0  0  0
   57.4410   31.0170   45.1820 N   0  0  0  0  0  0  0  0  0  0  0  0
   57.0250   32.3270   45.0130 C   0  0  0  0  0  0  0  0  0  0  0  0
   57.9410   33.4170   45.4620 C   0  0  0  0  0  0  0  0  0  0  0  0
   57.9140   33.9760   46.7530 C   0  0  0  0  0  0  0  0  0  0  0  0
   58.8880   34.9570   46.8360 C   0  0  0  0  0  0  0  0  0  0  0  0
   59.4790   34.9630   45.5890 C   0  0  0  0  0  0  0  0  0  0  0  0
   58.8880   34.0580   44.8560 O   0  0  0  0  0  0  0  0  0  0  0  0
   58.1750   29.1680   46.2570 C   0  0  0  0  0  0  0  0  0  0  0  0
   57.0810   28.4540   45.8830 C   0  0  0  0  0  0  0  0  0  0  0  0
   56.2683   24.3201   46.4622 H   0  0  0  0  0  0  0  0  0  0  0  0
   55.3025   24.6467   44.9833 H   0  0  0  0  0  0  0  0  0  0  0  0
   57.0739   24.9450   44.9833 H   0  0  0  0  0  0  0  0  0  0  0  0
   57.9503   25.6126   47.4696 H   0  0  0  0  0  0  0  0  0  0  0  0
   59.9176   26.9500   48.1164 H   0  0  0  0  0  0  0  0  0  0  0  0
   62.7625   30.2373   48.5895 H   0  0  0  0  0  0  0  0  0  0  0  0
   64.4755   31.9750   48.8881 H   0  0  0  0  0  0  0  0  0  0  0  0
   64.0521   34.2526   47.6550 H   0  0  0  0  0  0  0  0  0  0  0  0
   59.5340   32.1730   45.8960 H   0  0  0  0  0  0  0  0  0  0  0  0
   56.8415   32.4758   43.9387 H   0  0  0  0  0  0  0  0  0  0  0  0
   56.1446   32.4219   45.6656 H   0  0  0  0  0  0  0  0  0  0  0  0
   57.2311   33.6819   47.5636 H   0  0  0  0  0  0  0  0  0  0  0  0
   59.1350   35.5894   47.7015 H   0  0  0  0  0  0  0  0  0  0  0  0
   60.3040   35.6161   45.2683 H   0  0  0  0  0  0  0  0  0  0  0  0
   56.2940   28.8924   45.2517 H   0  0  0  0  0  0  0  0  0  0  0  0
  1  2  1  0
  2  3  1  0
  3  4  2  0
  4  5  1  0
  5  6  2  0
  6  7  1  0
  7  8  2  0
  8  9  1  0
  9 10  2  0
 10 11  1  0
 11 12  2  0
 12 13  1  0
  8 14  1  0
 14 15  1  0
 15 16  2  0
 16 17  1  0
 17 18  1  0
 18 19  2  0
 19 20  1  0
 20 21  2  0
 21 22  1  0
 15 23  1  0
 23 24  2  0
 24  3  1  0
 23  6  1  0
 13  9  1  0
 22 18  1  0
  1 25  1  0
  1 26  1  0
  1 27  1  0
  4 28  1  0
  5 29  1  0
 10 30  1  0
 11 31  1  0
 12 32  1  0
 14 33  1  0
 17 34  1  0
 17 35  1  0
 19 36  1  0
 20 37  1  0
 21 38  1  0
 24 39  1  0
M  END
>  <smiles>  (24) 
COc1ccc2nc(-c3cccs3)[nH]c(=NCc3ccco3)c2c1

>  <score_type>  (24) 
oracle

>  <origin>  (24) 
adg

>  <m_score__min__energy>  (24) 
-7.0499999999999998

>  <m_primary>  (24) 
energy

$$$$
24:0
     RDKit          3D

 48 51  0  0  0  0  0  0  0  0999 V2000
   58.8250   31.5230   54.4320 C   0  0  0  0  0  0  0  0  0  0  0  0
   59.3020   30.6950   53.3770 O   0  0  0  0  0  0  0  0  0  0  0  0
   59.2220   31.0210   52.0150 C   0  0  0  0  0  0  0  0  0  0  0  0
   58.6180   32.2320   51.6550 C   0  0  0  0  0  0  0  0  0  0  0  0
   58.5180   32.6040   50.3130 C   0  0  0  0  0  0  0  0  0  0  0  0
   59.0460   31.7780   49.3080 C   0  0  0  0  0  0  0  0  0  0  0  0
   58.9140   32.1450   47.8850 C   0  0  0  0  0  0  0  0  0  0  0  0
   58.2600   31.2720   47.0700 N   0  0  0  0  0  0  0  0  0  0  0  0
   58.0420   31.5220   45.7550 C   0  0  0  0  0  0  0  0  0  0  0  0
   57.3630   30.5880   44.9640 C   0  0  0  0  0  0  0  0  0  0  0  0
   57.1310   30.8540   43.6100 C   0  0  0  0  0  0  0  0  0  0  0  0
   56.2800   29.6820   42.6200 Cl  0  0  0  0  0  0  0  0  0  0  0  0
   57.5740   32.0550   43.0450 C   0  0  0  0  0  0  0  0  0  0  0  0
   58.2530   32.9930   43.8300 C   0  0  0  0  0  0  0  0  0  0  0  0
   58.4900   32.7310   45.1880 C   0  0  0  0  0  0  0  0  0  0  0  0
   59.1750   33.6440   45.9960 C   0  0  0  0  0  0  0  0  0  0  0  0
   59.4270   33.3560   47.3480 C   0  0  0  0  0  0  0  0  0  0  0  0
   60.2490   34.3480   48.1640 C   0  0  0  0  0  0  0  0  0  0  0  0
   61.6910   34.0140   48.2810 N   0  0  0  0  0  0  0  0  0  0  0  0
   61.9990   33.1830   49.4630 C   0  0  0  0  0  0  0  0  0  0  0  0
   63.4960   32.8000   49.5000 C   0  0  0  0  0  0  0  0  0  0  0  0
   64.2360   33.4900   48.5090 O   0  0  0  0  0  0  0  0  0  0  0  0
   63.7640   33.1370   47.2210 C   0  0  0  0  0  0  0  0  0  0  0  0
   62.2460   33.3900   47.0630 C   0  0  0  0  0  0  0  0  0  0  0  0
   59.6210   30.5490   49.6620 C   0  0  0  0  0  0  0  0  0  0  0  0
   59.7220   30.1760   51.0050 C   0  0  0  0  0  0  0  0  0  0  0  0
   59.0858   31.0702   55.4000 H   0  0  0  0  0  0  0  0  0  0  0  0
   59.2885   32.5176   54.3557 H   0  0  0  0  0  0  0  0  0  0  0  0
   57.7320   31.6210   54.3557 H   0  0  0  0  0  0  0  0  0  0  0  0
   58.2190   32.8958   52.4361 H   0  0  0  0  0  0  0  0  0  0  0  0
   58.0234   33.5484   50.0419 H   0  0  0  0  0  0  0  0  0  0  0  0
   57.0116   29.6444   45.4070 H   0  0  0  0  0  0  0  0  0  0  0  0
   57.3879   32.2621   41.9808 H   0  0  0  0  0  0  0  0  0  0  0  0
   58.6010   33.9358   43.3828 H   0  0  0  0  0  0  0  0  0  0  0  0
   59.5200   34.5972   45.5689 H   0  0  0  0  0  0  0  0  0  0  0  0
   60.1641   35.3360   47.6879 H   0  0  0  0  0  0  0  0  0  0  0  0
   59.8412   34.3219   49.1853 H   0  0  0  0  0  0  0  0  0  0  0  0
   62.1820   34.9330   48.4100 H   0  0  0  0  0  0  0  0  0  0  0  0
   61.7501   33.7476   50.3737 H   0  0  0  0  0  0  0  0  0  0  0  0
   61.4038   32.2597   49.4053 H   0  0  0  0  0  0  0  0  0  0  0  0
   63.9043   33.0515   50.4900 H   0  0  0  0  0  0  0  0  0  0  0  0
   63.5798   31.7211   49.3026 H   0  0  0  0  0  0  0  0  0  0  0  0
   64.3023   33.7347   46.4707 H   0  0  0  0  0  0  0  0  0  0  0  0
   63.9425   32.0608   47.0802 H   0  0  0  0  0  0  0  0  0  0  0  0
   62.0788   34.0592   46.2062 H   0  0  0  0  0  0  0  0  0  0  0  0
   61.7422   32.4261   46.8986 H   0  0  0  0  0  0  0  0  0  0  0  0
   59.9949   29.8743   48.8777 H   0  0  0  0  0  0  0  0  0  0  0  0
   60.1935   29.2194   51.2743 H   0  0  0  0  0  0  0  0  0  0  0  0
  1  2  1  0
  2  3  1  0
  3  4  2  0
  4  5  1  0
  5  6  2  0
  6  7  1  0
  7  8  2  0
  8  9  1  0
  9 10  2  0
 10 11  1  0
 11 12  1  0
 11 13  2  0
 13 14  1  0
 14 15  2  0
 15 16  1  0
 16 17  2  0
 17 18  1  0
 18 19  1  0
 19 20  1  0
 20 21  1  0
 21 22  1  0
 22 23  1  0
 23 24  1  0
  6 25  1  0
 25 26  2  0
 26  3  1  0
 17  7  1  0
 24 19  1  0
 15  9  1  0
  1 27  1  0
  1 28  1  0
  1 29  1  0
  4 30  1  0
  5 31  1  0
 10 32  1  0
 13 33  1  0
 14 34  1  0
 16 35  1  0
 18 36  1  0
 18 37  1  0
 19 38  1  0
 20 39  1  0
 20 40  1  0
 21 41  1  0
 21 42  1  0
 23 43  1  0
 23 44  1  0
 24 45  1  0
 24 46  1  0
 25 47  1  0
 26 48  1  0
M  CHG  1  19   1
M  END
>  <UniqueID>  (25) 
22

>  <SMILES>  (25) 
COc1ccc(-c2nc3cc(Cl)ccc3cc2C[NH+]2CCOCC2)cc1

>  <Energy>  (25) 
74.29761532783928

>  <Genealogy>  (25) 
COc1ccc(-c2nc3cc(Cl)ccc3cc2C[NH+]2CCOCC2)cc1 (protonated)
COc1ccc(-c2nc3cc(Cl)ccc3cc2C[NH+]2CCOCC2)cc1 (3D coordinates assigned)
COc1ccc(-c2nc3cc(Cl)ccc3cc2C[NH+]2CCOCC2)cc1 (nonaromatic ring conformer: 74.29761532783928 kcal/mol)

>  <smiles>  (25) 
COc1ccc(-c2nc3cc(Cl)ccc3cc2CN2CCOCC2)cc1

>  <score_type>  (25) 
oracle

>  <origin>  (25) 
adg

>  <m_score__min__energy>  (25) 
-5.8099999999999996

>  <m_primary>  (25) 
energy

$$$$
25:0
     RDKit          3D

 46 48  0  0  0  0  0  0  0  0999 V2000
   63.6110   33.3840   47.0840 C   0  0  0  0  0  0  0  0  0  0  0  0
   62.6460   32.8140   48.1150 C   0  0  0  0  0  0  0  0  0  0  0  0
   61.8460   31.6280   47.5640 C   0  0  0  0  0  0  0  0  0  0  0  0
   60.4110   31.9260   47.4720 N   0  0  0  0  0  0  0  0  0  0  0  0
   59.3690   31.1920   47.9530 C   0  0  0  0  0  0  0  0  0  0  0  0
   59.5550   29.6880   48.9250 S   0  0  0  0  0  0  0  0  0  0  0  0
   60.3800   28.7020   47.6260 C   0  0  0  0  0  0  0  0  0  0  0  0
   59.7710   28.9230   46.2770 C   0  0  0  0  0  0  0  0  0  0  0  0
   60.4820   28.7450   45.2510 O   0  0  0  0  0  0  0  0  0  0  0  0
   58.4110   29.3780   46.1670 N   0  0  0  0  0  0  0  0  0  0  0  0
   57.8040   29.8750   44.9570 C   0  0  0  0  0  0  0  0  0  0  0  0
   58.4160   30.8860   44.1920 C   0  0  0  0  0  0  0  0  0  0  0  0
   57.8280   31.3350   43.0070 C   0  0  0  0  0  0  0  0  0  0  0  0
   56.6300   30.7760   42.5660 C   0  0  0  0  0  0  0  0  0  0  0  0
   56.0190   29.7610   43.3020 C   0  0  0  0  0  0  0  0  0  0  0  0
   56.5990   29.2980   44.4990 C   0  0  0  0  0  0  0  0  0  0  0  0
   56.0060   28.2780   45.2620 O   0  0  0  0  0  0  0  0  0  0  0  0
   56.6590   27.0750   45.6500 C   0  0  0  0  0  0  0  0  0  0  0  0
   58.1550   31.6400   47.5370 N   0  0  0  0  0  0  0  0  0  0  0  0
   58.4670   32.7120   46.7870 C   0  0  0  0  0  0  0  0  0  0  0  0
   57.5890   33.5390   46.0910 C   0  0  0  0  0  0  0  0  0  0  0  0
   58.1430   34.5700   45.3080 C   0  0  0  0  0  0  0  0  0  0  0  0
   59.5440   34.7340   45.2310 C   0  0  0  0  0  0  0  0  0  0  0  0
   60.4030   33.8760   45.9410 C   0  0  0  0  0  0  0  0  0  0  0  0
   59.8200   32.8810   46.7310 C   0  0  0  0  0  0  0  0  0  0  0  0
   64.4479   33.8783   47.5990 H   0  0  0  0  0  0  0  0  0  0  0  0
   63.9979   32.5694   46.4541 H   0  0  0  0  0  0  0  0  0  0  0  0
   63.0843   34.1160   46.4541 H   0  0  0  0  0  0  0  0  0  0  0  0
   63.2207   32.4778   48.9906 H   0  0  0  0  0  0  0  0  0  0  0  0
   61.9328   33.6067   48.3853 H   0  0  0  0  0  0  0  0  0  0  0  0
   62.2224   31.3817   46.5602 H   0  0  0  0  0  0  0  0  0  0  0  0
   61.9732   30.7823   48.2559 H   0  0  0  0  0  0  0  0  0  0  0  0
   61.4419   28.9861   47.5862 H   0  0  0  0  0  0  0  0  0  0  0  0
   60.2596   27.6388   47.8811 H   0  0  0  0  0  0  0  0  0  0  0  0
   57.8780   29.4920   47.0590 H   0  0  0  0  0  0  0  0  0  0  0  0
   59.3656   31.3263   44.5303 H   0  0  0  0  0  0  0  0  0  0  0  0
   58.3112   32.1308   42.4212 H   0  0  0  0  0  0  0  0  0  0  0  0
   56.1656   31.1358   41.6360 H   0  0  0  0  0  0  0  0  0  0  0  0
   55.0772   29.3188   42.9449 H   0  0  0  0  0  0  0  0  0  0  0  0
   56.6924   27.0135   46.7478 H   0  0  0  0  0  0  0  0  0  0  0  0
   56.1054   26.2122   45.2511 H   0  0  0  0  0  0  0  0  0  0  0  0
   57.6841   27.0691   45.2511 H   0  0  0  0  0  0  0  0  0  0  0  0
   56.5005   33.3920   46.1508 H   0  0  0  0  0  0  0  0  0  0  0  0
   57.4812   35.2514   44.7533 H   0  0  0  0  0  0  0  0  0  0  0  0
   59.9662   35.5387   44.6112 H   0  0  0  0  0  0  0  0  0  0  0  0
   61.4958   33.9842   45.8769 H   0  0  0  0  0  0  0  0  0  0  0  0
  1  2  1  0
  2  3  1  0
  3  4  1  0
  4  5  1  0
  5  6  1  0
  6  7  1  0
  7  8  1  0
  8  9  2  0
  8 10  1  0
 10 11  1  0
 11 12  2  0
 12 13  1  0
 13 14  2  0
 14 15  1  0
 15 16  2  0
 16 17  1  0
 17 18  1  0
  5 19  2  0
 19 20  1  0
 20 21  2  0
 21 22  1  0
 22 23  2  0
 23 24  1  0
 24 25  2  0
 25  4  1  0
 16 11  1  0
 25 20  1  0
  1 26  1  0
  1 27  1  0
  1 28  1  0
  2 29  1  0
  2 30  1  0
  3 31  1  0
  3 32  1  0
  7 33  1  0
  7 34  1  0
 10 35  1  0
 12 36  1  0
 13 37  1  0
 14 38  1  0
 15 39  1  0
 18 40  1  0
 18 41  1  0
 18 42  1  0
 21 43  1  0
 22 44  1  0
 23 45  1  0
 24 46  1  0
M  END
>  <UniqueID>  (26) 
23

>  <SMILES>  (26) 
CCCn1c(SCC(=O)Nc2ccccc2OC)nc2ccccc21

>  <Energy>  (26) 
81.78596653316126

>  <Genealogy>  (26) 
CCCn1c(SCC(=O)Nc2ccccc2OC)nc2ccccc21 (3D coordinates assigned)
CCCn1c(SCC(=O)Nc2ccccc2OC)nc2ccccc21 (optimized conformer: 81.78596653316126 kcal/mol)

>  <smiles>  (26) 
CCCn1c(SCC(=O)Nc2ccccc2OC)nc2ccccc21

>  <score_type>  (26) 
oracle

>  <origin>  (26) 
adg

>  <m_score__min__energy>  (26) 
-7.5099999999999998

>  <m_primary>  (26) 
energy

$$$$
26:0
     RDKit          3D

 61 63  0  0  0  0  0  0  0  0999 V2000
   59.1930   35.0560   54.2400 C   0  0  0  0  0  0  0  0  0  0  0  0
   59.3520   33.9360   53.2550 C   0  0  0  0  0  0  0  0  0  0  0  0
   60.6300   33.4660   52.9160 C   0  0  0  0  0  0  0  0  0  0  0  0
   60.7780   32.4480   51.9690 C   0  0  0  0  0  0  0  0  0  0  0  0
   59.6560   31.9040   51.3270 C   0  0  0  0  0  0  0  0  0  0  0  0
   59.8360   30.8430   50.3720 N   0  0  0  0  0  0  0  0  0  0  0  0
   61.0300   30.0580   50.2540 C   0  0  0  0  0  0  0  0  0  0  0  0
   61.8910   30.0660   51.1740 O   0  0  0  0  0  0  0  0  0  0  0  0
   61.1860   29.1940   49.1210 N   0  0  0  0  0  0  0  0  0  0  0  0
   60.2810   29.0680   48.0140 C   0  0  0  0  0  0  0  0  0  0  0  0
   58.9990   28.5610   48.2490 C   0  0  0  0  0  0  0  0  0  0  0  0
   58.0760   28.4530   47.2040 C   0  0  0  0  0  0  0  0  0  0  0  0
   58.4240   28.8500   45.9070 C   0  0  0  0  0  0  0  0  0  0  0  0
   57.4370   28.7530   44.8700 N   0  0  0  0  0  0  0  0  0  0  0  0
   56.3390   29.6490   44.6500 C   0  0  0  0  0  0  0  0  0  0  0  0
   55.1540   29.2630   44.8280 O   0  0  0  0  0  0  0  0  0  0  0  0
   56.5720   30.9920   44.2130 N   0  0  0  0  0  0  0  0  0  0  0  0
   57.3520   31.9810   44.8990 C   0  0  0  0  0  0  0  0  0  0  0  0
   57.6560   33.1770   44.2380 C   0  0  0  0  0  0  0  0  0  0  0  0
   58.3940   34.1750   44.8810 C   0  0  0  0  0  0  0  0  0  0  0  0
   58.8040   34.0040   46.2120 C   0  0  0  0  0  0  0  0  0  0  0  0
   59.5730   35.0540   46.9090 C   0  0  0  0  0  0  0  0  0  0  0  0
   59.9720   36.0540   46.2540 O   0  0  0  0  0  0  0  0  0  0  0  0
   59.9080   34.9650   48.3010 N   0  0  0  0  0  0  0  0  0  0  0  0
   60.6440   33.8730   48.9370 C   0  0  0  0  0  0  0  0  0  0  0  0
   62.1250   33.9100   48.5420 C   0  0  0  0  0  0  0  0  0  0  0  0
   62.3570   33.1040   47.3250 N   0  0  0  0  0  0  0  0  0  0  0  0
   62.9880   31.8220   47.6750 C   0  0  0  0  0  0  0  0  0  0  0  0
   63.2190   33.8250   46.3710 C   0  0  0  0  0  0  0  0  0  0  0  0
   58.5000   32.8060   46.8760 C   0  0  0  0  0  0  0  0  0  0  0  0
   57.7670   31.8070   46.2300 C   0  0  0  0  0  0  0  0  0  0  0  0
   59.6960   29.4010   45.6760 C   0  0  0  0  0  0  0  0  0  0  0  0
   60.6180   29.5090   46.7220 C   0  0  0  0  0  0  0  0  0  0  0  0
   58.3750   32.3730   51.6730 C   0  0  0  0  0  0  0  0  0  0  0  0
   58.2270   33.3890   52.6210 C   0  0  0  0  0  0  0  0  0  0  0  0
   59.2499   34.6555   55.2629 H   0  0  0  0  0  0  0  0  0  0  0  0
   59.9955   35.7932   54.0897 H   0  0  0  0  0  0  0  0  0  0  0  0
   58.2170   35.5407   54.0897 H   0  0  0  0  0  0  0  0  0  0  0  0
   61.5188   33.9001   53.3971 H   0  0  0  0  0  0  0  0  0  0  0  0
   61.7823   32.0709   51.7256 H   0  0  0  0  0  0  0  0  0  0  0  0
   59.0240   30.5770   49.7690 H   0  0  0  0  0  0  0  0  0  0  0  0
   58.7145   28.2448   49.2634 H   0  0  0  0  0  0  0  0  0  0  0  0
   57.0704   28.0537   47.4021 H   0  0  0  0  0  0  0  0  0  0  0  0
   57.3116   33.3326   43.2050 H   0  0  0  0  0  0  0  0  0  0  0  0
   58.6543   35.0977   44.3416 H   0  0  0  0  0  0  0  0  0  0  0  0
   60.5599   33.9700   50.0295 H   0  0  0  0  0  0  0  0  0  0  0  0
   60.2143   32.9172   48.6025 H   0  0  0  0  0  0  0  0  0  0  0  0
   62.4220   34.9513   48.3485 H   0  0  0  0  0  0  0  0  0  0  0  0
   62.7230   33.4915   49.3649 H   0  0  0  0  0  0  0  0  0  0  0  0
   63.0363   31.7238   48.7695 H   0  0  0  0  0  0  0  0  0  0  0  0
   62.3939   30.9952   47.2586 H   0  0  0  0  0  0  0  0  0  0  0  0
   64.0056   31.7884   47.2586 H   0  0  0  0  0  0  0  0  0  0  0  0
   63.9482   34.4350   46.9243 H   0  0  0  0  0  0  0  0  0  0  0  0
   63.7522   33.1001   45.7384 H   0  0  0  0  0  0  0  0  0  0  0  0
   62.5998   34.4780   45.7384 H   0  0  0  0  0  0  0  0  0  0  0  0
   58.8405   32.6523   47.9106 H   0  0  0  0  0  0  0  0  0  0  0  0
   57.5138   30.8803   46.7659 H   0  0  0  0  0  0  0  0  0  0  0  0
   59.9675   29.7488   44.6684 H   0  0  0  0  0  0  0  0  0  0  0  0
   61.6118   29.9411   46.5331 H   0  0  0  0  0  0  0  0  0  0  0  0
   57.4854   31.9374   51.1946 H   0  0  0  0  0  0  0  0  0  0  0  0
   57.2228   33.7617   52.8713 H   0  0  0  0  0  0  0  0  0  0  0  0
  1  2  1  0
  2  3  2  0
  3  4  1  0
  4  5  2  0
  5  6  1  0
  6  7  1  0
  7  8  2  0
  7  9  1  0
  9 10  1  0
 10 11  2  0
 11 12  1  0
 12 13  2  0
 13 14  1  0
 14 15  1  0
 15 16  2  0
 15 17  1  0
 17 18  1  0
 18 19  2  0
 19 20  1  0
 20 21  2  0
 21 22  1  0
 22 23  2  0
 22 24  1  0
 24 25  1  0
 25 26  1  0
 26 27  1  0
 27 28  1  0
 27 29  1  0
 21 30  1  0
 30 31  2  0
 13 32  1  0
 32 33  2  0
  5 34  1  0
 34 35  2  0
 35  2  1  0
 33 10  1  0
 31 18  1  0
  1 36  1  0
  1 37  1  0
  1 38  1  0
  3 39  1  0
  4 40  1  0
  6 41  1  0
 11 42  1  0
 12 43  1  0
 19 44  1  0
 20 45  1  0
 25 46  1  0
 25 47  1  0
 26 48  1  0
 26 49  1  0
 28 50  1  0
 28 51  1  0
 28 52  1  0
 29 53  1  0
 29 54  1  0
 29 55  1  0
 30 56  1  0
 31 57  1  0
 32 58  1  0
 33 59  1  0
 34 60  1  0
 35 61  1  0
M  CHG  4   9  -1  14  -1  17  -1  24  -1
M  END
>  <UniqueID>  (27) 
24

>  <SMILES>  (27) 
Cc1ccc(NC(=O)[N-]c2ccc([N-]C(=O)[N-]c3ccc(C(=O)[N-]CCN(C)C)cc3)cc2)cc1

>  <Energy>  (27) 
77.98457703487423

>  <Genealogy>  (27) 
Cc1ccc(NC(=O)[N-]c2ccc([N-]C(=O)[N-]c3ccc(C(=O)[N-]CCN(C)C)cc3)cc2)cc1 (protonated)
Cc1ccc(NC(=O)[N-]c2ccc([N-]C(=O)[N-]c3ccc(C(=O)[N-]CCN(C)C)cc3)cc2)cc1 (3D coordinates assigned)
Cc1ccc(NC(=O)[N-]c2ccc([N-]C(=O)[N-]c3ccc(C(=O)[N-]CCN(C)C)cc3)cc2)cc1 (optimized conformer: 77.98457703487423 kcal/mol)

>  <smiles>  (27) 
Cc1ccc(NC(=O)Nc2ccc(NC(=O)Nc3ccc(C(=O)NCCN(C)C)cc3)cc2)cc1

>  <score_type>  (27) 
oracle

>  <origin>  (27) 
adg

>  <m_score__min__energy>  (27) 
-14.69

>  <m_primary>  (27) 
energy

$$$$
27:0
     RDKit          3D

 27 29  0  0  0  0  0  0  0  0999 V2000
   58.3587   31.0729   43.4568 H   0  0  0  0  0  0  0  0  0  0  0  0
   58.0850   31.0540   44.5220 C   0  0  0  0  0  0  0  0  0  0  0  0
   57.5240   29.9330   45.0080 C   0  0  0  0  0  0  0  0  0  0  0  0
   56.1690   29.4200   44.7400 C   0  0  0  0  0  0  0  0  0  0  0  0
   55.2870   29.9830   44.0390 O   0  0  0  0  0  0  0  0  0  0  0  0
   55.9960   28.1250   45.2960 N   0  0  0  0  0  0  0  0  0  0  0  0
   55.1500   27.5150   45.2330 H   0  0  0  0  0  0  0  0  0  0  0  0
   57.2420   27.8170   45.9030 C   0  0  0  0  0  0  0  0  0  0  0  0
   57.5360   26.6370   46.5800 C   0  0  0  0  0  0  0  0  0  0  0  0
   56.7882   25.8345   46.6616 H   0  0  0  0  0  0  0  0  0  0  0  0
   58.8050   26.4940   47.1550 C   0  0  0  0  0  0  0  0  0  0  0  0
   59.0657   25.5642   47.6818 H   0  0  0  0  0  0  0  0  0  0  0  0
   59.7470   27.5330   47.0620 C   0  0  0  0  0  0  0  0  0  0  0  0
   60.7357   27.4120   47.5288 H   0  0  0  0  0  0  0  0  0  0  0  0
   59.4430   28.7260   46.3800 C   0  0  0  0  0  0  0  0  0  0  0  0
   60.7630   30.1120   46.4040 Br  0  0  0  0  0  0  0  0  0  0  0  0
   58.1730   28.8430   45.7750 C   0  0  0  0  0  0  0  0  0  0  0  0
   58.3570   32.2610   45.3270 C   0  0  0  0  0  0  0  0  0  0  0  0
   58.7810   33.4590   44.7280 C   0  0  0  0  0  0  0  0  0  0  0  0
   58.9590   33.4969   43.6432 H   0  0  0  0  0  0  0  0  0  0  0  0
   58.9720   34.5720   45.4860 N   0  0  0  0  0  0  0  0  0  0  0  0
   58.7470   34.5710   46.8260 C   0  0  0  0  0  0  0  0  0  0  0  0
   58.9211   35.4847   47.4133 H   0  0  0  0  0  0  0  0  0  0  0  0
   58.2950   33.4110   47.4580 C   0  0  0  0  0  0  0  0  0  0  0  0
   58.1039   33.4070   48.5413 H   0  0  0  0  0  0  0  0  0  0  0  0
   58.0880   32.2560   46.7010 C   0  0  0  0  0  0  0  0  0  0  0  0
   57.7134   31.3417   47.1845 H   0  0  0  0  0  0  0  0  0  0  0  0
  1  2  1  0
  2  3  2  0
  3  4  1  0
  4  5  2  0
  4  6  1  0
  6  7  1  0
  6  8  1  0
  8  9  2  0
  9 10  1  0
  9 11  1  0
 11 12  1  0
 11 13  2  0
 13 14  1  0
 13 15  1  0
 15 16  1  0
 15 17  2  0
  2 18  1  0
 18 19  2  0
 19 20  1  0
 19 21  1  0
 21 22  2  0
 22 23  1  0
 22 24  1  0
 24 25  1  0
 24 26  2  0
 26 27  1  0
 17  3  1  0
 26 18  1  0
 17  8  1  0
M  END
>  <UniqueID>  (28) 
25

>  <SMILES>  (28) 
O=C1Nc2cccc(Br)c2/C1=C/c1cccnc1

>  <Energy>  (28) 
71.34359424337053

>  <Genealogy>  (28) 
O=C1Nc2cccc(Br)c2/C1=C/c1cccnc1 (cis-trans isomerization)
O=C1Nc2cccc(Br)c2/C1=C/c1cccnc1 (3D coordinates assigned)
O=C1Nc2cccc(Br)c2/C1=C/c1cccnc1 (nonaromatic ring conformer: 71.34359424337053 kcal/mol)

>  <smiles>  (28) 
O=C1Nc2cccc(Br)c2C1=Cc1cccnc1

>  <score_type>  (28) 
oracle

>  <origin>  (28) 
adg

>  <m_score__min__energy>  (28) 
-7.5499999999999998

>  <m_primary>  (28) 
energy

$$$$
28:0
     RDKit          3D

 32 33  0  0  1  0  0  0  0  0999 V2000
   58.8980   34.9670   44.8780 C   0  0  0  0  0  0  0  0  0  0  0  0
   58.9400   34.2900   46.1600 N   0  0  0  0  0  0  0  0  0  0  0  0
   59.7000   33.2860   46.4050 C   0  0  0  0  0  0  0  0  0  0  0  0
   60.9230   33.4680   46.9410 N   0  0  0  0  0  0  0  0  0  0  0  0
   61.6980   32.4090   47.1880 C   0  0  0  0  0  0  0  0  0  0  0  0
   63.0420   32.6230   47.7770 C   0  0  0  0  0  0  0  0  0  0  0  0
   61.2450   31.1540   46.8980 N   0  0  0  0  0  0  0  0  0  0  0  0
   60.0310   30.9540   46.3660 C   0  0  0  0  0  0  0  0  0  0  0  0
   59.5570   29.6920   46.0650 C   0  0  0  0  0  0  0  0  0  0  0  0
   58.2890   29.4920   45.5090 C   0  0  0  0  0  0  0  0  0  0  0  0
   57.7900   28.2550   45.2010 O   0  0  0  0  0  0  0  0  0  0  0  0
   58.1540   27.4510   44.1240 C   0  0  0  0  0  0  0  0  0  0  0  0
   57.4660   30.5890   45.2440 C   0  0  0  0  0  0  0  0  0  0  0  0
   56.2140   30.3980   44.6960 O   0  0  0  0  0  0  0  0  0  0  0  0
   56.1150   30.0770   43.3300 C   0  0  0  0  0  0  0  0  0  0  0  0
   57.9440   31.8670   45.5480 C   0  0  0  0  0  0  0  0  0  0  0  0
   59.2120   32.0330   46.1000 C   0  0  0  0  0  0  0  0  0  0  0  0
   58.8306   36.0531   45.0389 H   0  0  0  0  0  0  0  0  0  0  0  0
   59.8122   34.7363   44.3114 H   0  0  0  0  0  0  0  0  0  0  0  0
   58.0193   34.6251   44.3114 H   0  0  0  0  0  0  0  0  0  0  0  0
   61.2300   34.4370   47.1460 H   0  0  0  0  0  0  0  0  0  0  0  0
   62.9675   32.6111   48.8744 H   0  0  0  0  0  0  0  0  0  0  0  0
   63.7189   31.8213   47.4467 H   0  0  0  0  0  0  0  0  0  0  0  0
   63.4365   33.5953   47.4467 H   0  0  0  0  0  0  0  0  0  0  0  0
   60.1949   28.8192   46.2683 H   0  0  0  0  0  0  0  0  0  0  0  0
   58.5807   26.5085   44.4977 H   0  0  0  0  0  0  0  0  0  0  0  0
   57.2662   27.2342   43.5117 H   0  0  0  0  0  0  0  0  0  0  0  0
   58.9026   27.9751   43.5117 H   0  0  0  0  0  0  0  0  0  0  0  0
   55.7924   29.0310   43.2216 H   0  0  0  0  0  0  0  0  0  0  0  0
   55.3793   30.7392   42.8501 H   0  0  0  0  0  0  0  0  0  0  0  0
   57.0959   30.2098   42.8501 H   0  0  0  0  0  0  0  0  0  0  0  0
   57.3147   32.7472   45.3500 H   0  0  0  0  0  0  0  0  0  0  0  0
  1  2  1  0
  2  3  2  0
  3  4  1  0
  4  5  1  0
  5  6  1  0
  5  7  2  0
  7  8  1  0
  8  9  2  0
  9 10  1  0
 10 11  1  0
 11 12  1  0
 10 13  2  0
 13 14  1  0
 14 15  1  0
 13 16  1  0
 16 17  2  0
 17  3  1  0
 17  8  1  0
  1 18  1  0
  1 19  1  0
  1 20  1  0
  4 21  1  0
  6 22  1  0
  6 23  1  0
  6 24  1  0
  9 25  1  0
 12 26  1  0
 12 27  1  0
 12 28  1  0
 15 29  1  0
 15 30  1  0
 15 31  1  0
 16 32  1  0
M  END
>  <smiles>  (29) 
CN=c1[nH]c(C)nc2cc(OC)c(OC)cc12

>  <score_type>  (29) 
oracle

>  <origin>  (29) 
adg

>  <m_score__min__energy>  (29) 
-5

>  <m_primary>  (29) 
energy

$$$$
29:0
     RDKit          3D

 32 34  0  0  0  0  0  0  0  0999 V2000
   56.2770   30.0680   43.3730 C   0  0  0  0  0  0  0  0  0  0  0  0
   56.3350   30.9380   44.4990 O   0  0  0  0  0  0  0  0  0  0  0  0
   57.5180   31.2860   45.1680 C   0  0  0  0  0  0  0  0  0  0  0  0
   57.8230   32.6130   45.5250 C   0  0  0  0  0  0  0  0  0  0  0  0
   59.0150   32.9080   46.1910 C   0  0  0  0  0  0  0  0  0  0  0  0
   59.9260   31.8870   46.5160 C   0  0  0  0  0  0  0  0  0  0  0  0
   61.1930   32.2010   47.2240 C   0  0  0  0  0  0  0  0  0  0  0  0
   62.0450   33.2130   46.7460 C   0  0  0  0  0  0  0  0  0  0  0  0
   63.2390   33.5130   47.4070 C   0  0  0  0  0  0  0  0  0  0  0  0
   63.6020   32.8040   48.5610 C   0  0  0  0  0  0  0  0  0  0  0  0
   64.7940   33.0930   49.2350 C   0  0  0  0  0  0  0  0  0  0  0  0
   65.1240   32.3680   50.3830 C   0  0  0  0  0  0  0  0  0  0  0  0
   64.2960   31.3910   50.8420 N   0  0  0  0  0  0  0  0  0  0  0  0
   63.1300   31.0880   50.2070 C   0  0  0  0  0  0  0  0  0  0  0  0
   62.7550   31.7860   49.0510 C   0  0  0  0  0  0  0  0  0  0  0  0
   61.5580   31.4900   48.3820 C   0  0  0  0  0  0  0  0  0  0  0  0
   59.6160   30.5630   46.1580 C   0  0  0  0  0  0  0  0  0  0  0  0
   58.4230   30.2690   45.4900 C   0  0  0  0  0  0  0  0  0  0  0  0
   56.2075   29.0258   43.7181 H   0  0  0  0  0  0  0  0  0  0  0  0
   55.3932   30.3128   42.7656 H   0  0  0  0  0  0  0  0  0  0  0  0
   57.1855   30.1933   42.7656 H   0  0  0  0  0  0  0  0  0  0  0  0
   57.1193   33.4217   45.2783 H   0  0  0  0  0  0  0  0  0  0  0  0
   59.2433   33.9489   46.4639 H   0  0  0  0  0  0  0  0  0  0  0  0
   61.7682   33.7746   45.8416 H   0  0  0  0  0  0  0  0  0  0  0  0
   63.8954   34.3069   47.0213 H   0  0  0  0  0  0  0  0  0  0  0  0
   65.4642   33.8828   48.8648 H   0  0  0  0  0  0  0  0  0  0  0  0
   66.0590   32.5886   50.9189 H   0  0  0  0  0  0  0  0  0  0  0  0
   64.5600   30.8620   51.7030 H   0  0  0  0  0  0  0  0  0  0  0  0
   62.4806   30.2931   50.6026 H   0  0  0  0  0  0  0  0  0  0  0  0
   60.9000   30.6963   48.7655 H   0  0  0  0  0  0  0  0  0  0  0  0
   60.3172   29.7523   46.4052 H   0  0  0  0  0  0  0  0  0  0  0  0
   58.1942   29.2287   45.2153 H   0  0  0  0  0  0  0  0  0  0  0  0
  1  2  1  0
  2  3  1  0
  3  4  2  0
  4  5  1  0
  5  6  2  0
  6  7  1  0
  7  8  2  0
  8  9  1  0
  9 10  2  0
 10 11  1  0
 11 12  2  0
 12 13  1  0
 13 14  2  0
 14 15  1  0
 15 16  2  0
  6 17  1  0
 17 18  2  0
 18  3  1  0
 16  7  1  0
 15 10  1  0
  1 19  1  0
  1 20  1  0
  1 21  1  0
  4 22  1  0
  5 23  1  0
  8 24  1  0
  9 25  1  0
 11 26  1  0
 12 27  1  0
 13 28  1  0
 14 29  1  0
 16 30  1  0
 17 31  1  0
 18 32  1  0
M  CHG  1  13   1
M  END
>  <UniqueID>  (30) 
26

>  <SMILES>  (30) 
COc1ccc(-c2ccc3cc[nH+]cc3c2)cc1

>  <Energy>  (30) 
42.353235387900575

>  <Genealogy>  (30) 
COc1ccc(-c2ccc3cc[nH+]cc3c2)cc1 (protonated)
COc1ccc(-c2ccc3cc[nH+]cc3c2)cc1 (3D coordinates assigned)
COc1ccc(-c2ccc3cc[nH+]cc3c2)cc1 (optimized conformer: 42.353235387900575 kcal/mol)

>  <smiles>  (30) 
COc1ccc(-c2ccc3ccncc3c2)cc1

>  <score_type>  (30) 
oracle

>  <origin>  (30) 
adg

>  <m_score__min__energy>  (30) 
-5.21

>  <m_primary>  (30) 
energy

$$$$
30:0
     RDKit          3D

 25 26  0  0  0  0  0  0  0  0999 V2000
   59.6450   34.9540   46.3920 C   0  0  0  0  0  0  0  0  0  0  0  0
   58.8390   33.7670   46.9130 C   0  0  0  0  0  0  0  0  0  0  0  0
   58.2350   33.0220   45.8090 N   0  0  0  0  0  0  0  0  0  0  0  0
   57.8710   33.5920   44.5050 C   0  0  0  0  0  0  0  0  0  0  0  0
   57.7690   32.3800   43.5330 C   0  0  0  0  0  0  0  0  0  0  0  0
   58.0180   31.2410   44.3960 N   0  0  0  0  0  0  0  0  0  0  0  0
   58.6460   30.1130   44.1190 N   0  0  0  0  0  0  0  0  0  0  0  0
   59.2890   29.7260   45.2440 C   0  0  0  0  0  0  0  0  0  0  0  0
   60.2740   28.6070   45.2950 C   0  0  0  0  0  0  0  0  0  0  0  0
   59.1230   30.6950   46.2350 C   0  0  0  0  0  0  0  0  0  0  0  0
   58.2980   31.6210   45.6240 C   0  0  0  0  0  0  0  0  0  0  0  0
   60.0375   35.5320   47.2417 H   0  0  0  0  0  0  0  0  0  0  0  0
   60.4822   34.5882   45.7794 H   0  0  0  0  0  0  0  0  0  0  0  0
   58.9961   35.5972   45.7794 H   0  0  0  0  0  0  0  0  0  0  0  0
   59.5061   33.0981   47.4766 H   0  0  0  0  0  0  0  0  0  0  0  0
   58.0361   34.1452   47.5628 H   0  0  0  0  0  0  0  0  0  0  0  0
   56.9052   34.1144   44.5703 H   0  0  0  0  0  0  0  0  0  0  0  0
   58.6121   34.3286   44.1612 H   0  0  0  0  0  0  0  0  0  0  0  0
   56.7682   32.3206   43.0803 H   0  0  0  0  0  0  0  0  0  0  0  0
   58.4717   32.4435   42.6891 H   0  0  0  0  0  0  0  0  0  0  0  0
   58.7540   29.7060   43.1640 H   0  0  0  0  0  0  0  0  0  0  0  0
   60.4927   28.3586   46.3440 H   0  0  0  0  0  0  0  0  0  0  0  0
   59.8537   27.7252   44.7893 H   0  0  0  0  0  0  0  0  0  0  0  0
   61.2020   28.9121   44.7893 H   0  0  0  0  0  0  0  0  0  0  0  0
   59.5444   30.7165   47.2509 H   0  0  0  0  0  0  0  0  0  0  0  0
  1  2  1  0
  2  3  1  0
  3  4  1  0
  4  5  1  0
  5  6  1  0
  6  7  1  0
  7  8  2  0
  8  9  1  0
  8 10  1  0
 10 11  2  0
 11  3  1  0
 11  6  1  0
  1 12  1  0
  1 13  1  0
  1 14  1  0
  2 15  1  0
  2 16  1  0
  4 17  1  0
  4 18  1  0
  5 19  1  0
  5 20  1  0
  7 21  1  0
  9 22  1  0
  9 23  1  0
  9 24  1  0
 10 25  1  0
M  CHG  1   7   1
M  END
>  <UniqueID>  (31) 
27

>  <SMILES>  (31) 
CCN1CCn2[nH+]c(C)cc21

>  <Energy>  (31) 
78.98171253515758

>  <Genealogy>  (31) 
CCN1CCn2[nH+]c(C)cc21 (protonated)
CCN1CCn2[nH+]c(C)cc21 (3D coordinates assigned)
CCN1CCn2[nH+]c(C)cc21 (nonaromatic ring conformer: 78.98171253515758 kcal/mol)

>  <smiles>  (31) 
CCN1CCn2nc(C)cc21

>  <score_type>  (31) 
oracle

>  <origin>  (31) 
adg

>  <m_score__min__energy>  (31) 
-3.2599999999999998

>  <m_primary>  (31) 
energy

$$$$
31:0
     RDKit          3D

 46 48  0  0  0  0  0  0  0  0999 V2000
   60.9900   33.9240   48.3630 C   0  0  0  0  0  0  0  0  0  0  0  0
   59.7990   33.6560   47.5680 N   0  0  0  0  0  0  0  0  0  0  0  0
   59.7500   32.9010   46.4570 C   0  0  0  0  0  0  0  0  0  0  0  0
   58.4630   32.9540   45.9620 C   0  0  0  0  0  0  0  0  0  0  0  0
   57.9550   32.2750   44.7520 C   0  0  0  0  0  0  0  0  0  0  0  0
   57.1180   31.2110   44.8910 N   0  0  0  0  0  0  0  0  0  0  0  0
   56.6190   30.5530   43.8120 C   0  0  0  0  0  0  0  0  0  0  0  0
   55.7290   29.3650   44.0090 C   0  0  0  0  0  0  0  0  0  0  0  0
   56.0180   28.7440   45.3060 N   0  0  0  0  0  0  0  0  0  0  0  0
   57.1400   27.7900   45.2240 C   0  0  0  0  0  0  0  0  0  0  0  0
   56.6940   26.3660   45.6590 C   0  0  1  0  0  0  0  0  0  0  0  0
   55.2980   26.3500   45.8530 O   0  0  0  0  0  0  0  0  0  0  0  0
   57.0320   25.3400   44.5270 C   0  0  0  0  0  0  0  0  0  0  0  0
   56.6730   23.9540   44.8610 N   0  0  0  0  0  0  0  0  0  0  0  0
   57.1960   23.4440   46.1490 C   0  0  0  0  0  0  0  0  0  0  0  0
   56.4190   23.8840   47.4200 C   0  0  0  0  0  0  0  0  0  0  0  0
   56.6430   25.2080   47.8800 O   0  0  0  0  0  0  0  0  0  0  0  0
   57.4040   26.0200   47.0060 C   0  0  0  0  0  0  0  0  0  0  0  0
   56.9850   30.9630   42.5270 C   0  0  0  0  0  0  0  0  0  0  0  0
   57.8430   32.0540   42.3960 C   0  0  0  0  0  0  0  0  0  0  0  0
   58.3100   32.6920   43.5020 N   0  0  0  0  0  0  0  0  0  0  0  0
   57.7780   33.7860   46.8330 C   0  0  0  0  0  0  0  0  0  0  0  0
   58.6180   34.2070   47.7990 N   0  0  0  0  0  0  0  0  0  0  0  0
   60.7376   33.8672   49.4321 H   0  0  0  0  0  0  0  0  0  0  0  0
   61.7630   33.1773   48.1286 H   0  0  0  0  0  0  0  0  0  0  0  0
   61.3687   34.9298   48.1286 H   0  0  0  0  0  0  0  0  0  0  0  0
   60.5885   32.3395   46.0193 H   0  0  0  0  0  0  0  0  0  0  0  0
   54.6775   29.6870   43.9833 H   0  0  0  0  0  0  0  0  0  0  0  0
   55.9101   28.6354   43.2060 H   0  0  0  0  0  0  0  0  0  0  0  0
   55.1610   28.2200   45.6070 H   0  0  0  0  0  0  0  0  0  0  0  0
   57.5043   27.7516   44.1868 H   0  0  0  0  0  0  0  0  0  0  0  0
   57.9381   28.1290   45.9008 H   0  0  0  0  0  0  0  0  0  0  0  0
   55.1210   26.3170   46.8300 H   0  0  0  0  0  0  0  0  0  0  0  0
   56.4843   25.6316   43.6187 H   0  0  0  0  0  0  0  0  0  0  0  0
   58.1225   25.3649   44.3848 H   0  0  0  0  0  0  0  0  0  0  0  0
   56.9390   23.3160   44.0740 H   0  0  0  0  0  0  0  0  0  0  0  0
   57.1794   22.3449   46.1077 H   0  0  0  0  0  0  0  0  0  0  0  0
   58.2029   23.8747   46.2523 H   0  0  0  0  0  0  0  0  0  0  0  0
   55.3449   23.7835   47.2050 H   0  0  0  0  0  0  0  0  0  0  0  0
   56.7906   23.2326   48.2248 H   0  0  0  0  0  0  0  0  0  0  0  0
   57.6333   26.9623   47.5252 H   0  0  0  0  0  0  0  0  0  0  0  0
   58.3029   25.4418   46.7458 H   0  0  0  0  0  0  0  0  0  0  0  0
   56.6047   30.4368   41.6391 H   0  0  0  0  0  0  0  0  0  0  0  0
   58.1428   32.3994   41.3956 H   0  0  0  0  0  0  0  0  0  0  0  0
   58.9510   33.5060   43.3690 H   0  0  0  0  0  0  0  0  0  0  0  0
   56.7159   34.0597   46.7491 H   0  0  0  0  0  0  0  0  0  0  0  0
  1  2  1  0
  2  3  1  0
  3  4  2  0
  4  5  1  0
  5  6  2  0
  6  7  1  0
  7  8  1  0
  8  9  1  0
  9 10  1  0
 10 11  1  0
 11 12  1  1
 11 13  1  0
 13 14  1  0
 14 15  1  0
 15 16  1  0
 16 17  1  0
 17 18  1  0
  7 19  2  0
 19 20  1  0
 20 21  2  0
  4 22  1  0
 22 23  2  0
 23  2  1  0
 21  5  1  0
 18 11  1  0
  1 24  1  0
  1 25  1  0
  1 26  1  0
  3 27  1  0
  8 28  1  0
  8 29  1  0
  9 30  1  0
 10 31  1  0
 10 32  1  0
 12 33  1  0
 13 34  1  0
 13 35  1  0
 14 36  1  0
 15 37  1  0
 15 38  1  0
 16 39  1  0
 16 40  1  0
 18 41  1  0
 18 42  1  0
 19 43  1  0
 20 44  1  0
 21 45  1  0
 22 46  1  0
M  CHG  1  21   1
M  END
>  <UniqueID>  (32) 
28

>  <SMILES>  (32) 
Cn1cc(-c2nc(CNC[C@@]3(O)CNCCOC3)cc[nH+]2)cn1

>  <Energy>  (32) 
99.74824806972208

>  <Genealogy>  (32) 
Cn1cc(-c2nc(CNCC3(O)CNCCOC3)cc[nH+]2)cn1 (protonated)
Cn1cc(-c2nc(CNC[C@@]3(O)CNCCOC3)cc[nH+]2)cn1 (chirality)
Cn1cc(-c2nc(CNC[C@@]3(O)CNCCOC3)cc[nH+]2)cn1 (3D coordinates assigned)
Cn1cc(-c2nc(CNC[C@@]3(O)CNCCOC3)cc[nH+]2)cn1 (nonaromatic ring conformer: 99.74824806972208 kcal/mol)

>  <smiles>  (32) 
Cn1cc(-c2nccc(CNCC3(O)CNCCOC3)n2)cn1

>  <score_type>  (32) 
oracle

>  <origin>  (32) 
adg

>  <m_score__min__energy>  (32) 
-4.4500000000000002

>  <m_primary>  (32) 
energy

$$$$
32:0
     RDKit          3D

 56 59  0  0  0  0  0  0  0  0999 V2000
   59.7240   33.8280   50.4770 C   0  0  0  0  0  0  0  0  0  0  0  0
   59.9040   34.2910   49.1440 O   0  0  0  0  0  0  0  0  0  0  0  0
   59.4680   33.6090   47.9980 C   0  0  0  0  0  0  0  0  0  0  0  0
   58.1840   33.8130   47.4510 C   0  0  0  0  0  0  0  0  0  0  0  0
   57.7930   33.1300   46.2970 C   0  0  0  0  0  0  0  0  0  0  0  0
   58.6730   32.2430   45.6750 C   0  0  0  0  0  0  0  0  0  0  0  0
   59.9440   32.0300   46.2100 C   0  0  0  0  0  0  0  0  0  0  0  0
   60.3460   32.7030   47.3730 C   0  0  0  0  0  0  0  0  0  0  0  0
   61.6430   32.4440   47.9320 N   0  0  0  0  0  0  0  0  0  0  0  0
   61.9590   31.6140   48.9490 C   0  0  0  0  0  0  0  0  0  0  0  0
   60.7750   30.6410   49.8820 S   0  0  0  0  0  0  0  0  0  0  0  0
   60.7680   29.2770   48.6740 C   0  0  0  0  0  0  0  0  0  0  0  0
   59.4710   29.2860   47.9180 C   0  0  0  0  0  0  0  0  0  0  0  0
   58.5850   30.1120   48.2710 O   0  0  0  0  0  0  0  0  0  0  0  0
   59.2040   28.3740   46.8290 N   0  0  0  0  0  0  0  0  0  0  0  0
   60.0840   27.2280   46.5370 C   0  0  0  0  0  0  0  0  0  0  0  0
   59.2570   25.9940   46.1470 C   0  0  0  0  0  0  0  0  0  0  0  0
   58.1630   26.3330   45.2240 N   0  0  0  0  0  0  0  0  0  0  0  0
   57.1850   25.3340   44.8820 C   0  0  0  0  0  0  0  0  0  0  0  0
   57.3620   24.5240   43.7450 C   0  0  0  0  0  0  0  0  0  0  0  0
   56.4050   23.5620   43.4080 C   0  0  0  0  0  0  0  0  0  0  0  0
   55.2630   23.4030   44.1990 C   0  0  0  0  0  0  0  0  0  0  0  0
   55.0770   24.2040   45.3280 C   0  0  0  0  0  0  0  0  0  0  0  0
   56.0320   25.1680   45.6690 C   0  0  0  0  0  0  0  0  0  0  0  0
   58.0270   27.7130   44.7410 C   0  0  0  0  0  0  0  0  0  0  0  0
   58.0760   28.6750   45.9300 C   0  0  0  0  0  0  0  0  0  0  0  0
   63.2920   31.5510   49.1470 N   0  0  0  0  0  0  0  0  0  0  0  0
   63.8350   32.3530   48.2440 N   0  0  0  0  0  0  0  0  0  0  0  0
   62.8440   32.8940   47.5120 C   0  0  0  0  0  0  0  0  0  0  0  0
   63.0680   33.8200   46.3580 C   0  0  0  0  0  0  0  0  0  0  0  0
   60.0297   34.6144   51.1827 H   0  0  0  0  0  0  0  0  0  0  0  0
   58.6644   33.5812   50.6395 H   0  0  0  0  0  0  0  0  0  0  0  0
   60.3386   32.9303   50.6395 H   0  0  0  0  0  0  0  0  0  0  0  0
   57.4874   34.5131   47.9354 H   0  0  0  0  0  0  0  0  0  0  0  0
   56.7891   33.2916   45.8774 H   0  0  0  0  0  0  0  0  0  0  0  0
   58.3644   31.7116   44.7626 H   0  0  0  0  0  0  0  0  0  0  0  0
   60.6347   31.3302   45.7168 H   0  0  0  0  0  0  0  0  0  0  0  0
   61.6036   29.4058   47.9704 H   0  0  0  0  0  0  0  0  0  0  0  0
   60.8784   28.3184   49.2021 H   0  0  0  0  0  0  0  0  0  0  0  0
   60.7549   27.4905   45.7057 H   0  0  0  0  0  0  0  0  0  0  0  0
   60.6680   26.9918   47.4388 H   0  0  0  0  0  0  0  0  0  0  0  0
   59.9186   25.2625   45.6601 H   0  0  0  0  0  0  0  0  0  0  0  0
   58.8120   25.5797   47.0637 H   0  0  0  0  0  0  0  0  0  0  0  0
   58.2575   24.6483   43.1184 H   0  0  0  0  0  0  0  0  0  0  0  0
   56.5506   22.9297   42.5198 H   0  0  0  0  0  0  0  0  0  0  0  0
   54.5105   22.6465   43.9319 H   0  0  0  0  0  0  0  0  0  0  0  0
   54.1786   24.0768   45.9498 H   0  0  0  0  0  0  0  0  0  0  0  0
   55.8799   25.7990   46.5571 H   0  0  0  0  0  0  0  0  0  0  0  0
   58.8508   27.9425   44.0491 H   0  0  0  0  0  0  0  0  0  0  0  0
   57.0666   27.8257   44.2166 H   0  0  0  0  0  0  0  0  0  0  0  0
   58.1852   29.7025   45.5528 H   0  0  0  0  0  0  0  0  0  0  0  0
   57.1428   28.5616   46.5012 H   0  0  0  0  0  0  0  0  0  0  0  0
   64.8600   32.5150   48.1340 H   0  0  0  0  0  0  0  0  0  0  0  0
   63.3109   34.8242   46.7355 H   0  0  0  0  0  0  0  0  0  0  0  0
   63.9018   33.4471   45.7451 H   0  0  0  0  0  0  0  0  0  0  0  0
   62.1559   33.8694   45.7451 H   0  0  0  0  0  0  0  0  0  0  0  0
  1  2  1  0
  2  3  1  0
  3  4  2  0
  4  5  1  0
  5  6  2  0
  6  7  1  0
  7  8  2  0
  8  9  1  0
  9 10  1  0
 10 11  1  0
 11 12  1  0
 12 13  1  0
 13 14  2  0
 13 15  1  0
 15 16  1  0
 16 17  1  0
 17 18  1  0
 18 19  1  0
 19 20  2  0
 20 21  1  0
 21 22  2  0
 22 23  1  0
 23 24  2  0
 18 25  1  0
 25 26  1  0
 10 27  2  0
 27 28  1  0
 28 29  2  0
 29 30  1  0
  8  3  1  0
 29  9  1  0
 26 15  1  0
 24 19  1  0
  1 31  1  0
  1 32  1  0
  1 33  1  0
  4 34  1  0
  5 35  1  0
  6 36  1  0
  7 37  1  0
 12 38  1  0
 12 39  1  0
 16 40  1  0
 16 41  1  0
 17 42  1  0
 17 43  1  0
 20 44  1  0
 21 45  1  0
 22 46  1  0
 23 47  1  0
 24 48  1  0
 25 49  1  0
 25 50  1  0
 26 51  1  0
 26 52  1  0
 28 53  1  0
 30 54  1  0
 30 55  1  0
 30 56  1  0
M  CHG  1  28   1
M  END
>  <UniqueID>  (33) 
29

>  <SMILES>  (33) 
COc1ccccc1-n1c(SCC(=O)N2CCN(c3ccccc3)CC2)n[nH+]c1C

>  <Energy>  (33) 
99.02584965877851

>  <Genealogy>  (33) 
COc1ccccc1-n1c(SCC(=O)N2CCN(c3ccccc3)CC2)n[nH+]c1C (protonated)
COc1ccccc1-n1c(SCC(=O)N2CCN(c3ccccc3)CC2)n[nH+]c1C (3D coordinates assigned)
COc1ccccc1-n1c(SCC(=O)N2CCN(c3ccccc3)CC2)n[nH+]c1C (nonaromatic ring conformer: 99.02584965877851 kcal/mol)

>  <smiles>  (33) 
COc1ccccc1-n1c(C)nnc1SCC(=O)N1CCN(c2ccccc2)CC1

>  <score_type>  (33) 
oracle

>  <origin>  (33) 
adg

>  <m_score__min__energy>  (33) 
-7.2300000000000004

>  <m_primary>  (33) 
energy

$$$$
33:0
     RDKit          3D

 38 40  0  0  0  0  0  0  0  0999 V2000
   59.7450   28.4660   44.6030 C   0  0  0  0  0  0  0  0  0  0  0  0
   58.4610   28.1960   43.8050 C   0  0  0  0  0  0  0  0  0  0  0  0
   57.2290   28.1210   44.6270 N   0  0  1  0  0  0  0  0  0  0  0  0
   57.4970   27.6870   46.0190 C   0  0  0  0  0  0  0  0  0  0  0  0
   56.9320   26.3150   46.2840 C   0  0  0  0  0  0  0  0  0  0  0  0
   57.5790   25.4230   47.1550 C   0  0  0  0  0  0  0  0  0  0  0  0
   57.0070   24.1750   47.4060 C   0  0  0  0  0  0  0  0  0  0  0  0
   55.8020   23.8270   46.7930 C   0  0  0  0  0  0  0  0  0  0  0  0
   55.1820   24.7390   45.9370 C   0  0  0  0  0  0  0  0  0  0  0  0
   55.7530   25.9520   45.7070 N   0  0  0  0  0  0  0  0  0  0  0  0
   56.4860   29.3670   44.5690 C   0  0  0  0  0  0  0  0  0  0  0  0
   55.2440   29.3620   44.3390 O   0  0  0  0  0  0  0  0  0  0  0  0
   57.1570   30.6530   44.8270 C   0  0  0  0  0  0  0  0  0  0  0  0
   57.5300   31.5800   43.8550 C   0  0  0  0  0  0  0  0  0  0  0  0
   58.1130   32.6020   44.5660 C   0  0  0  0  0  0  0  0  0  0  0  0
   58.6780   33.8030   44.1430 C   0  0  0  0  0  0  0  0  0  0  0  0
   59.2060   34.6600   45.1270 C   0  0  0  0  0  0  0  0  0  0  0  0
   59.1560   34.2990   46.4920 C   0  0  0  0  0  0  0  0  0  0  0  0
   58.5780   33.0770   46.8850 C   0  0  0  0  0  0  0  0  0  0  0  0
   58.0650   32.2510   45.8890 C   0  0  0  0  0  0  0  0  0  0  0  0
   57.4910   31.0820   46.0320 O   0  0  0  0  0  0  0  0  0  0  0  0
   59.5242   28.4196   45.6796 H   0  0  0  0  0  0  0  0  0  0  0  0
   60.5001   27.7070   44.3505 H   0  0  0  0  0  0  0  0  0  0  0  0
   60.1304   29.4648   44.3505 H   0  0  0  0  0  0  0  0  0  0  0  0
   58.3357   29.0063   43.0717 H   0  0  0  0  0  0  0  0  0  0  0  0
   58.5855   27.2079   43.3380 H   0  0  0  0  0  0  0  0  0  0  0  0
   56.6400   27.3730   44.1870 H   0  0  0  0  0  0  0  0  0  0  0  0
   58.5843   27.6647   46.1842 H   0  0  0  0  0  0  0  0  0  0  0  0
   57.0136   28.3994   46.7037 H   0  0  0  0  0  0  0  0  0  0  0  0
   58.5277   25.7055   47.6348 H   0  0  0  0  0  0  0  0  0  0  0  0
   57.5045   23.4672   48.0853 H   0  0  0  0  0  0  0  0  0  0  0  0
   55.3457   22.8442   46.9825 H   0  0  0  0  0  0  0  0  0  0  0  0
   54.2319   24.4767   45.4486 H   0  0  0  0  0  0  0  0  0  0  0  0
   57.3897   31.5097   42.7663 H   0  0  0  0  0  0  0  0  0  0  0  0
   58.7104   34.0723   43.0770 H   0  0  0  0  0  0  0  0  0  0  0  0
   59.6605   35.6170   44.8312 H   0  0  0  0  0  0  0  0  0  0  0  0
   59.5712   34.9769   47.2523 H   0  0  0  0  0  0  0  0  0  0  0  0
   58.5332   32.7845   47.9445 H   0  0  0  0  0  0  0  0  0  0  0  0
  1  2  1  0
  2  3  1  0
  3  4  1  0
  4  5  1  0
  5  6  2  0
  6  7  1  0
  7  8  2  0
  8  9  1  0
  9 10  2  0
  3 11  1  0
 11 12  2  0
 11 13  1  0
 13 14  2  0
 14 15  1  0
 15 16  2  0
 16 17  1  0
 17 18  2  0
 18 19  1  0
 19 20  2  0
 20 21  1  0
 10  5  1  0
 21 13  1  0
 20 15  1  0
  1 22  1  0
  1 23  1  0
  1 24  1  0
  2 25  1  0
  2 26  1  0
  3 27  1  6
  4 28  1  0
  4 29  1  0
  6 30  1  0
  7 31  1  0
  8 32  1  0
  9 33  1  0
 14 34  1  0
 16 35  1  0
 17 36  1  0
 18 37  1  0
 19 38  1  0
M  CHG  1   3   1
M  END
>  <UniqueID>  (34) 
30

>  <SMILES>  (34) 
CC[N@@H+](Cc1ccccn1)C(=O)c1cc2ccccc2o1

>  <Energy>  (34) 
77.26251505071104

>  <Genealogy>  (34) 
CC[NH+](Cc1ccccn1)C(=O)c1cc2ccccc2o1 (protonated)
CC[N@@H+](Cc1ccccn1)C(=O)c1cc2ccccc2o1 (chirality)
CC[N@@H+](Cc1ccccn1)C(=O)c1cc2ccccc2o1 (3D coordinates assigned)
CC[N@@H+](Cc1ccccn1)C(=O)c1cc2ccccc2o1 (optimized conformer: 77.26251505071104 kcal/mol)

>  <smiles>  (34) 
CCN(Cc1ccccn1)C(=O)c1cc2ccccc2o1

>  <score_type>  (34) 
oracle

>  <origin>  (34) 
adg

>  <m_score__min__energy>  (34) 
-5.9199999999999999

>  <m_primary>  (34) 
energy

$$$$
34:0
     RDKit          3D

 45 47  0  0  0  0  0  0  0  0999 V2000
   60.4530   26.5640   46.4570 C   0  0  0  0  0  0  0  0  0  0  0  0
   59.6910   27.7570   45.9590 C   0  0  0  0  0  0  0  0  0  0  0  0
   58.4730   28.1150   46.5550 C   0  0  0  0  0  0  0  0  0  0  0  0
   57.7840   29.2520   46.1220 C   0  0  0  0  0  0  0  0  0  0  0  0
   58.3140   30.0530   45.1010 C   0  0  0  0  0  0  0  0  0  0  0  0
   57.4670   31.5150   44.5860 S   0  0  0  0  0  0  0  0  0  0  0  0
   55.9920   31.2330   44.5130 O   0  0  0  0  0  0  0  0  0  0  0  0
   57.9360   31.9000   43.2100 O   0  0  0  0  0  0  0  0  0  0  0  0
   57.7570   32.8440   45.6860 N   0  0  0  0  0  0  0  0  0  0  0  0
   57.9110   32.3520   47.0740 C   0  0  0  0  0  0  0  0  0  0  0  0
   58.7440   33.3030   47.9350 C   0  0  0  0  0  0  0  0  0  0  0  0
   60.0690   33.4550   47.3280 N   0  0  0  0  0  0  0  0  0  0  0  0
   61.2510   33.4230   48.1440 C   0  0  0  0  0  0  0  0  0  0  0  0
   61.5440   34.4850   48.9470 N   0  0  0  0  0  0  0  0  0  0  0  0
   62.6540   34.5070   49.7320 C   0  0  0  0  0  0  0  0  0  0  0  0
   63.5310   33.4110   49.7570 C   0  0  0  0  0  0  0  0  0  0  0  0
   64.7880   33.4500   50.5870 C   0  0  0  0  0  0  0  0  0  0  0  0
   65.9100   33.3910   49.7780 F   0  0  0  0  0  0  0  0  0  0  0  0
   64.7980   32.3700   51.4510 F   0  0  0  0  0  0  0  0  0  0  0  0
   64.8510   34.6190   51.3260 F   0  0  0  0  0  0  0  0  0  0  0  0
   63.2560   32.3190   48.9220 C   0  0  0  0  0  0  0  0  0  0  0  0
   62.1130   32.3110   48.1200 C   0  0  0  0  0  0  0  0  0  0  0  0
   61.7670   30.8920   47.1430 Cl  0  0  0  0  0  0  0  0  0  0  0  0
   60.1980   33.4600   45.8680 C   0  0  0  0  0  0  0  0  0  0  0  0
   58.8410   33.7320   45.2010 C   0  0  0  0  0  0  0  0  0  0  0  0
   59.5340   29.6980   44.5080 C   0  0  0  0  0  0  0  0  0  0  0  0
   60.2240   28.5630   44.9400 C   0  0  0  0  0  0  0  0  0  0  0  0
   60.4539   26.5626   47.5570 H   0  0  0  0  0  0  0  0  0  0  0  0
   59.9749   25.6440   46.0895 H   0  0  0  0  0  0  0  0  0  0  0  0
   61.4887   26.6109   46.0895 H   0  0  0  0  0  0  0  0  0  0  0  0
   58.0581   27.4989   47.3663 H   0  0  0  0  0  0  0  0  0  0  0  0
   56.8223   29.5190   46.5844 H   0  0  0  0  0  0  0  0  0  0  0  0
   56.9134   32.2473   47.5255 H   0  0  0  0  0  0  0  0  0  0  0  0
   58.4355   31.3860   47.0336 H   0  0  0  0  0  0  0  0  0  0  0  0
   58.2477   34.2832   47.9886 H   0  0  0  0  0  0  0  0  0  0  0  0
   58.8442   32.8946   48.9514 H   0  0  0  0  0  0  0  0  0  0  0  0
   60.9180   35.3210   48.9500 H   0  0  0  0  0  0  0  0  0  0  0  0
   62.8665   35.3903   50.3522 H   0  0  0  0  0  0  0  0  0  0  0  0
   63.9456   31.4623   48.8985 H   0  0  0  0  0  0  0  0  0  0  0  0
   60.9093   34.2450   45.5716 H   0  0  0  0  0  0  0  0  0  0  0  0
   60.5591   32.4732   45.5427 H   0  0  0  0  0  0  0  0  0  0  0  0
   58.5551   34.7744   45.4050 H   0  0  0  0  0  0  0  0  0  0  0  0
   58.9633   33.5368   44.1254 H   0  0  0  0  0  0  0  0  0  0  0  0
   59.9497   30.3163   43.6987 H   0  0  0  0  0  0  0  0  0  0  0  0
   61.1881   28.2996   44.4805 H   0  0  0  0  0  0  0  0  0  0  0  0
  1  2  1  0
  2  3  2  0
  3  4  1  0
  4  5  2  0
  5  6  1  0
  6  7  2  0
  6  8  2  0
  6  9  1  0
  9 10  1  0
 10 11  1  0
 11 12  1  0
 12 13  1  0
 13 14  2  0
 14 15  1  0
 15 16  2  0
 16 17  1  0
 17 18  1  0
 17 19  1  0
 17 20  1  0
 16 21  1  0
 21 22  2  0
 22 23  1  0
 12 24  1  0
 24 25  1  0
  5 26  1  0
 26 27  2  0
 27  2  1  0
 25  9  1  0
 22 13  1  0
  1 28  1  0
  1 29  1  0
  1 30  1  0
  3 31  1  0
  4 32  1  0
 10 33  1  0
 10 34  1  0
 11 35  1  0
 11 36  1  0
 14 37  1  0
 15 38  1  0
 21 39  1  0
 24 40  1  0
 24 41  1  0
 25 42  1  0
 25 43  1  0
 26 44  1  0
 27 45  1  0
M  CHG  1  14   1
M  END
>  <UniqueID>  (35) 
31

>  <SMILES>  (35) 
Cc1ccc(S(=O)(=O)N2CCN(c3[nH+]cc(C(F)(F)F)cc3Cl)CC2)cc1

>  <Energy>  (35) 
55.982926817598155

>  <Genealogy>  (35) 
Cc1ccc(S(=O)(=O)N2CCN(c3[nH+]cc(C(F)(F)F)cc3Cl)CC2)cc1 (protonated)
Cc1ccc(S(=O)(=O)N2CCN(c3[nH+]cc(C(F)(F)F)cc3Cl)CC2)cc1 (3D coordinates assigned)
Cc1ccc(S(=O)(=O)N2CCN(c3[nH+]cc(C(F)(F)F)cc3Cl)CC2)cc1 (nonaromatic ring conformer: 55.982926817598155 kcal/mol)

>  <smiles>  (35) 
Cc1ccc(S(=O)(=O)N2CCN(c3ncc(C(F)(F)F)cc3Cl)CC2)cc1

>  <score_type>  (35) 
oracle

>  <origin>  (35) 
adg

>  <m_score__min__energy>  (35) 
-6.5

>  <m_primary>  (35) 
energy

$$$$
35:0
     RDKit          3D

 48 51  0  0  0  0  0  0  0  0999 V2000
   59.8040   29.1790   50.9120 C   0  0  0  0  0  0  0  0  0  0  0  0
   58.8810   30.2450   50.7140 O   0  0  0  0  0  0  0  0  0  0  0  0
   58.7990   31.3960   51.5080 C   0  0  0  0  0  0  0  0  0  0  0  0
   57.8570   31.4940   52.5540 C   0  0  0  0  0  0  0  0  0  0  0  0
   57.7740   32.6490   53.3310 C   0  0  0  0  0  0  0  0  0  0  0  0
   58.6240   33.7230   53.0780 C   0  0  0  0  0  0  0  0  0  0  0  0
   59.5630   33.6440   52.0490 C   0  0  0  0  0  0  0  0  0  0  0  0
   59.6750   32.4830   51.2590 C   0  0  0  0  0  0  0  0  0  0  0  0
   60.7070   32.4710   50.1360 C   0  0  2  0  0  0  0  0  0  0  0  0
   61.2580   33.8820   49.8270 C   0  0  0  0  0  0  0  0  0  0  0  0
   60.5400   34.5580   48.7450 N   0  0  0  0  0  0  0  0  0  0  0  0
   59.9400   33.9490   47.7660 C   0  0  0  0  0  0  0  0  0  0  0  0
   59.4040   34.6920   46.7150 C   0  0  0  0  0  0  0  0  0  0  0  0
   58.7620   34.0550   45.6520 C   0  0  0  0  0  0  0  0  0  0  0  0
   58.6200   32.6450   45.6170 C   0  0  0  0  0  0  0  0  0  0  0  0
   57.9910   32.0190   44.5770 C   0  0  0  0  0  0  0  0  0  0  0  0
   57.5190   30.5740   44.6790 C   0  0  0  0  0  0  0  0  0  0  0  0
   56.3330   30.3070   43.7440 C   0  0  0  0  0  0  0  0  0  0  0  0
   56.6460   30.6240   42.2720 C   0  0  0  0  0  0  0  0  0  0  0  0
   57.6890   31.7390   42.0890 C   0  0  0  0  0  0  0  0  0  0  0  0
   57.7210   32.7310   43.2580 C   0  0  0  0  0  0  0  0  0  0  0  0
   59.1460   31.9120   46.7110 C   0  0  0  0  0  0  0  0  0  0  0  0
   59.7890   32.5560   47.7760 C   0  0  0  0  0  0  0  0  0  0  0  0
   60.1940   31.8120   48.9330 N   0  0  0  0  0  0  0  0  0  0  0  0
   59.9473   29.0135   51.9900 H   0  0  0  0  0  0  0  0  0  0  0  0
   59.4099   28.2621   50.4495 H   0  0  0  0  0  0  0  0  0  0  0  0
   60.7679   29.4379   50.4495 H   0  0  0  0  0  0  0  0  0  0  0  0
   57.1811   30.6506   52.7586 H   0  0  0  0  0  0  0  0  0  0  0  0
   57.0364   32.7119   54.1446 H   0  0  0  0  0  0  0  0  0  0  0  0
   58.5549   34.6344   53.6900 H   0  0  0  0  0  0  0  0  0  0  0  0
   60.2250   34.5001   51.8519 H   0  0  0  0  0  0  0  0  0  0  0  0
   61.5574   31.8742   50.4975 H   0  0  0  0  0  0  0  0  0  0  0  0
   61.1776   34.4955   50.7365 H   0  0  0  0  0  0  0  0  0  0  0  0
   62.3015   33.7609   49.5008 H   0  0  0  0  0  0  0  0  0  0  0  0
   59.4878   35.7888   46.7237 H   0  0  0  0  0  0  0  0  0  0  0  0
   58.3585   34.6586   44.8256 H   0  0  0  0  0  0  0  0  0  0  0  0
   58.3488   29.9060   44.4047 H   0  0  0  0  0  0  0  0  0  0  0  0
   57.1942   30.3874   45.7132 H   0  0  0  0  0  0  0  0  0  0  0  0
   56.0564   29.2453   43.8229 H   0  0  0  0  0  0  0  0  0  0  0  0
   55.5120   30.9692   44.0561 H   0  0  0  0  0  0  0  0  0  0  0  0
   57.0269   29.7099   41.7931 H   0  0  0  0  0  0  0  0  0  0  0  0
   55.7113   30.9792   41.8135 H   0  0  0  0  0  0  0  0  0  0  0  0
   58.6827   31.2767   41.9949 H   0  0  0  0  0  0  0  0  0  0  0  0
   57.4103   32.3039   41.1872 H   0  0  0  0  0  0  0  0  0  0  0  0
   58.5160   33.4700   43.0798 H   0  0  0  0  0  0  0  0  0  0  0  0
   56.7402   33.2247   43.3230 H   0  0  0  0  0  0  0  0  0  0  0  0
   59.0472   30.8165   46.7236 H   0  0  0  0  0  0  0  0  0  0  0  0
   60.0260   30.7810   48.9680 H   0  0  0  0  0  0  0  0  0  0  0  0
  1  2  1  0
  2  3  1  0
  3  4  2  0
  4  5  1  0
  5  6  2  0
  6  7  1  0
  7  8  2  0
  8  9  1  0
  9 10  1  0
 10 11  1  0
 11 12  2  0
 12 13  1  0
 13 14  2  0
 14 15  1  0
 15 16  2  3
 16 17  1  0
 17 18  1  0
 18 19  1  0
 19 20  1  0
 20 21  1  0
 15 22  1  0
 22 23  2  0
 23 24  1  0
  8  3  1  0
 24  9  1  0
 23 12  1  0
 21 16  1  0
  1 25  1  0
  1 26  1  0
  1 27  1  0
  4 28  1  0
  5 29  1  0
  6 30  1  0
  7 31  1  0
  9 32  1  1
 10 33  1  0
 10 34  1  0
 13 35  1  0
 14 36  1  0
 17 37  1  0
 17 38  1  0
 18 39  1  0
 18 40  1  0
 19 41  1  0
 19 42  1  0
 20 43  1  0
 20 44  1  0
 21 45  1  0
 21 46  1  0
 22 47  1  0
 24 48  1  0
M  END
>  <UniqueID>  (36) 
32

>  <SMILES>  (36) 
COc1ccccc1[C@@H]1CN=c2ccc(=C3CCCCC3)cc2N1

>  <Energy>  (36) 
66.49397837489245

>  <Genealogy>  (36) 
COc1ccccc1[C@@H]1CN=c2ccc(=C3CCCCC3)cc2N1 (chirality)
COc1ccccc1[C@@H]1CN=c2ccc(=C3CCCCC3)cc2N1 (3D coordinates assigned)
COc1ccccc1[C@@H]1CN=c2ccc(=C3CCCCC3)cc2N1 (nonaromatic ring conformer: 66.49397837489245 kcal/mol)

>  <smiles>  (36) 
COc1ccccc1C1CN=c2ccc(=C3CCCCC3)cc2N1

>  <score_type>  (36) 
oracle

>  <origin>  (36) 
adg

>  <m_score__min__energy>  (36) 
-7.2300000000000004

>  <m_primary>  (36) 
energy

$$$$
36:0
     RDKit          3D

 40 41  0  0  0  0  0  0  0  0999 V2000
   57.4770   31.5950   43.4090 C   0  0  0  0  0  0  0  0  0  0  0  0
   56.7570   31.0460   44.5050 O   0  0  0  0  0  0  0  0  0  0  0  0
   56.4000   29.6920   44.5780 C   0  0  0  0  0  0  0  0  0  0  0  0
   55.2180   29.3640   44.8790 O   0  0  0  0  0  0  0  0  0  0  0  0
   57.3780   28.6290   44.2670 C   0  0  0  0  0  0  0  0  0  0  0  0
   58.6680   28.6240   44.6450 C   0  0  0  0  0  0  0  0  0  0  0  0
   59.1690   29.1470   45.9310 C   0  0  0  0  0  0  0  0  0  0  0  0
   58.8750   28.4880   47.1370 C   0  0  0  0  0  0  0  0  0  0  0  0
   59.3880   28.9700   48.3400 C   0  0  0  0  0  0  0  0  0  0  0  0
   60.2080   30.1010   48.3520 C   0  0  0  0  0  0  0  0  0  0  0  0
   60.5220   30.7740   47.1510 C   0  0  0  0  0  0  0  0  0  0  0  0
   61.3750   31.9530   47.1430 N   0  0  2  0  0  0  0  0  0  0  0  0
   62.5990   31.6830   47.8610 C   0  0  0  0  0  0  0  0  0  0  0  0
   63.6830   32.0190   47.4110 O   0  0  0  0  0  0  0  0  0  0  0  0
   60.6730   33.1450   47.6750 C   0  0  0  0  0  0  0  0  0  0  0  0
   59.4800   33.5170   46.8240 C   0  0  0  0  0  0  0  0  0  0  0  0
   58.1830   33.1300   47.2030 C   0  0  0  0  0  0  0  0  0  0  0  0
   57.0830   33.4830   46.4150 C   0  0  0  0  0  0  0  0  0  0  0  0
   57.2690   34.2280   45.2460 C   0  0  0  0  0  0  0  0  0  0  0  0
   58.5540   34.6300   44.8700 C   0  0  0  0  0  0  0  0  0  0  0  0
   59.6560   34.2810   45.6590 C   0  0  0  0  0  0  0  0  0  0  0  0
   60.0120   30.2660   45.9400 C   0  0  0  0  0  0  0  0  0  0  0  0
   58.2985   32.2214   43.7868 H   0  0  0  0  0  0  0  0  0  0  0  0
   57.8894   30.7800   42.7961 H   0  0  0  0  0  0  0  0  0  0  0  0
   56.8002   32.2084   42.7961 H   0  0  0  0  0  0  0  0  0  0  0  0
   57.0212   27.7714   43.6778 H   0  0  0  0  0  0  0  0  0  0  0  0
   59.4032   28.1995   43.9455 H   0  0  0  0  0  0  0  0  0  0  0  0
   58.2391   27.5905   47.1315 H   0  0  0  0  0  0  0  0  0  0  0  0
   59.1464   28.4581   49.2832 H   0  0  0  0  0  0  0  0  0  0  0  0
   60.6127   30.4706   49.3057 H   0  0  0  0  0  0  0  0  0  0  0  0
   61.6420   32.1610   46.1520 H   0  0  0  0  0  0  0  0  0  0  0  0
   62.5536   31.1654   48.8305 H   0  0  0  0  0  0  0  0  0  0  0  0
   60.3285   32.9293   48.6971 H   0  0  0  0  0  0  0  0  0  0  0  0
   61.3772   33.9900   47.6667 H   0  0  0  0  0  0  0  0  0  0  0  0
   58.0326   32.5469   48.1235 H   0  0  0  0  0  0  0  0  0  0  0  0
   56.0706   33.1745   46.7148 H   0  0  0  0  0  0  0  0  0  0  0  0
   56.4040   34.4977   44.6223 H   0  0  0  0  0  0  0  0  0  0  0  0
   58.6991   35.2209   43.9536 H   0  0  0  0  0  0  0  0  0  0  0  0
   60.6647   34.6067   45.3652 H   0  0  0  0  0  0  0  0  0  0  0  0
   60.2787   30.7535   44.9907 H   0  0  0  0  0  0  0  0  0  0  0  0
  1  2  1  0
  2  3  1  0
  3  4  2  0
  3  5  1  0
  5  6  2  3
  6  7  1  0
  7  8  2  0
  8  9  1  0
  9 10  2  0
 10 11  1  0
 11 12  1  0
 12 13  1  0
 13 14  2  0
 12 15  1  0
 15 16  1  0
 16 17  2  0
 17 18  1  0
 18 19  2  0
 19 20  1  0
 20 21  2  0
 11 22  2  0
 22  7  1  0
 21 16  1  0
  1 23  1  0
  1 24  1  0
  1 25  1  0
  5 26  1  0
  6 27  1  0
  8 28  1  0
  9 29  1  0
 10 30  1  0
 12 31  1  6
 13 32  1  0
 15 33  1  0
 15 34  1  0
 17 35  1  0
 18 36  1  0
 19 37  1  0
 20 38  1  0
 21 39  1  0
 22 40  1  0
M  CHG  1  12   1
M  END
>  <UniqueID>  (37) 
33

>  <SMILES>  (37) 
COC(=O)C=Cc1cccc([N@H+](C=O)Cc2ccccc2)c1

>  <Energy>  (37) 
50.715951218141264

>  <Genealogy>  (37) 
COC(=O)C=Cc1cccc([NH+](C=O)Cc2ccccc2)c1 (protonated)
COC(=O)C=Cc1cccc([N@H+](C=O)Cc2ccccc2)c1 (chirality)
COC(=O)C=Cc1cccc([N@H+](C=O)Cc2ccccc2)c1 (3D coordinates assigned)
COC(=O)C=Cc1cccc([N@H+](C=O)Cc2ccccc2)c1 (optimized conformer: 50.715951218141264 kcal/mol)

>  <smiles>  (37) 
COC(=O)C=Cc1cccc(N(C=O)Cc2ccccc2)c1

>  <score_type>  (37) 
oracle

>  <origin>  (37) 
adg

>  <m_score__min__energy>  (37) 
-5.9500000000000002

>  <m_primary>  (37) 
energy

$$$$
37:0
     RDKit          3D

 40 42  0  0  0  0  0  0  0  0999 V2000
   63.4610   33.8680   46.3290 C   0  0  0  0  0  0  0  0  0  0  0  0
   63.1670   33.7760   47.8300 C   0  0  0  0  0  0  0  0  0  0  0  0
   61.7640   33.3700   48.1080 N   0  0  0  0  0  0  0  0  0  0  0  0
   61.6700   31.9120   48.3800 C   0  0  0  0  0  0  0  0  0  0  0  0
   61.3970   31.0550   47.1330 C   0  0  0  0  0  0  0  0  0  0  0  0
   61.1390   34.1780   49.2000 C   0  0  0  0  0  0  0  0  0  0  0  0
   59.6010   34.1700   49.1360 C   0  0  0  0  0  0  0  0  0  0  0  0
   59.1350   33.6950   47.8340 N   0  0  0  0  0  0  0  0  0  0  0  0
   58.1880   32.3230   47.5840 S   0  0  0  0  0  0  0  0  0  0  0  0
   58.1270   32.4450   45.9230 C   0  0  0  0  0  0  0  0  0  0  0  0
   58.8320   33.5330   45.5510 C   0  0  0  0  0  0  0  0  0  0  0  0
   58.8440   33.7060   44.2130 N   0  0  0  0  0  0  0  0  0  0  0  0
   58.1040   32.6600   43.7560 C   0  0  0  0  0  0  0  0  0  0  0  0
   57.8020   32.3600   42.4290 C   0  0  0  0  0  0  0  0  0  0  0  0
   57.0180   31.2170   42.1720 C   0  0  0  0  0  0  0  0  0  0  0  0
   56.5560   30.4050   43.2340 C   0  0  0  0  0  0  0  0  0  0  0  0
   56.8690   30.7210   44.5680 C   0  0  0  0  0  0  0  0  0  0  0  0
   57.6430   31.8550   44.7900 C   0  0  0  0  0  0  0  0  0  0  0  0
   59.4030   34.2450   46.6080 C   0  0  0  0  0  0  0  0  0  0  0  0
   60.0970   35.2860   46.4560 O   0  0  0  0  0  0  0  0  0  0  0  0
   64.5009   34.1934   46.1783 H   0  0  0  0  0  0  0  0  0  0  0  0
   63.3148   32.8812   45.8656 H   0  0  0  0  0  0  0  0  0  0  0  0
   62.7783   34.5955   45.8656 H   0  0  0  0  0  0  0  0  0  0  0  0
   63.8449   33.0346   48.2781 H   0  0  0  0  0  0  0  0  0  0  0  0
   63.3197   34.7752   48.2639 H   0  0  0  0  0  0  0  0  0  0  0  0
   61.2290   33.5070   47.2180 H   0  0  0  0  0  0  0  0  0  0  0  0
   62.6206   31.5819   48.8242 H   0  0  0  0  0  0  0  0  0  0  0  0
   60.8128   31.7708   49.0547 H   0  0  0  0  0  0  0  0  0  0  0  0
   61.0766   30.0492   47.4423 H   0  0  0  0  0  0  0  0  0  0  0  0
   60.6038   31.5240   46.5323 H   0  0  0  0  0  0  0  0  0  0  0  0
   62.3153   30.9787   46.5323 H   0  0  0  0  0  0  0  0  0  0  0  0
   61.4535   33.7635   50.1692 H   0  0  0  0  0  0  0  0  0  0  0  0
   61.4722   35.2190   49.0768 H   0  0  0  0  0  0  0  0  0  0  0  0
   59.2114   33.5063   49.9219 H   0  0  0  0  0  0  0  0  0  0  0  0
   59.2379   35.1975   49.2856 H   0  0  0  0  0  0  0  0  0  0  0  0
   59.3110   34.4590   43.6630 H   0  0  0  0  0  0  0  0  0  0  0  0
   58.1642   32.9955   41.6075 H   0  0  0  0  0  0  0  0  0  0  0  0
   56.7629   30.9539   41.1349 H   0  0  0  0  0  0  0  0  0  0  0  0
   55.9454   29.5169   43.0140 H   0  0  0  0  0  0  0  0  0  0  0  0
   56.5160   30.0967   45.4020 H   0  0  0  0  0  0  0  0  0  0  0  0
  1  2  1  0
  2  3  1  0
  3  4  1  0
  4  5  1  0
  3  6  1  0
  6  7  1  0
  7  8  1  0
  8  9  1  0
  9 10  1  0
 10 11  2  0
 11 12  1  0
 12 13  1  0
 13 14  2  0
 14 15  1  0
 15 16  2  0
 16 17  1  0
 17 18  2  0
 11 19  1  0
 19 20  2  0
 19  8  1  0
 18 10  1  0
 18 13  1  0
  1 21  1  0
  1 22  1  0
  1 23  1  0
  2 24  1  0
  2 25  1  0
  3 26  1  0
  4 27  1  0
  4 28  1  0
  5 29  1  0
  5 30  1  0
  5 31  1  0
  6 32  1  0
  6 33  1  0
  7 34  1  0
  7 35  1  0
 12 36  1  0
 14 37  1  0
 15 38  1  0
 16 39  1  0
 17 40  1  0
M  CHG  1   3   1
M  END
>  <UniqueID>  (38) 
34

>  <SMILES>  (38) 
CC[NH+](CC)CCn1sc2c([nH]c3ccccc32)c1=O

>  <Energy>  (38) 
136.36776305742308

>  <Genealogy>  (38) 
CC[NH+](CC)CCn1sc2c([nH]c3ccccc32)c1=O (protonated)
CC[NH+](CC)CCn1sc2c([nH]c3ccccc32)c1=O (3D coordinates assigned)
CC[NH+](CC)CCn1sc2c([nH]c3ccccc32)c1=O (optimized conformer: 136.36776305742308 kcal/mol)

>  <smiles>  (38) 
CCN(CC)CCn1sc2c([nH]c3ccccc32)c1=O

>  <score_type>  (38) 
oracle

>  <origin>  (38) 
adg

>  <m_score__min__energy>  (38) 
-5.4699999999999998

>  <m_primary>  (38) 
energy

$$$$
38:0
     RDKit          3D

 40 41  0  0  0  0  0  0  0  0999 V2000
   57.0290   33.8320   45.8660 C   0  0  0  0  0  0  0  0  0  0  0  0
   58.0090   32.8380   45.3940 N   0  0  0  0  0  0  0  0  0  0  0  0
   59.3830   33.2390   45.7550 C   0  0  0  0  0  0  0  0  0  0  0  0
   57.8650   32.5130   43.9510 C   0  0  0  0  0  0  0  0  0  0  0  0
   57.1000   31.2110   43.6380 C   0  0  0  0  0  0  0  0  0  0  0  0
   56.6670   30.5560   44.8690 N   0  0  0  0  0  0  0  0  0  0  0  0
   57.4330   29.5810   45.5850 C   0  0  0  0  0  0  0  0  0  0  0  0
   58.1020   29.9530   46.5840 O   0  0  0  0  0  0  0  0  0  0  0  0
   57.4460   28.1540   45.2030 C   0  0  0  0  0  0  0  0  0  0  0  0
   56.9780   27.1720   46.0870 C   0  0  0  0  0  0  0  0  0  0  0  0
   56.9570   25.8270   45.7060 C   0  0  0  0  0  0  0  0  0  0  0  0
   57.3930   25.4390   44.4260 C   0  0  0  0  0  0  0  0  0  0  0  0
   57.3680   24.0080   44.0180 C   0  0  0  0  0  0  0  0  0  0  0  0
   56.4610   23.5530   43.0380 C   0  0  0  0  0  0  0  0  0  0  0  0
   56.4320   22.2040   42.6680 C   0  0  0  0  0  0  0  0  0  0  0  0
   57.3080   21.2960   43.2690 C   0  0  0  0  0  0  0  0  0  0  0  0
   58.2170   21.7340   44.2330 C   0  0  0  0  0  0  0  0  0  0  0  0
   58.2490   23.0830   44.6090 C   0  0  0  0  0  0  0  0  0  0  0  0
   57.8450   26.4310   43.5370 C   0  0  0  0  0  0  0  0  0  0  0  0
   57.8640   27.7750   43.9200 C   0  0  0  0  0  0  0  0  0  0  0  0
   57.0184   33.8428   46.9659 H   0  0  0  0  0  0  0  0  0  0  0  0
   57.3081   34.8282   45.4922 H   0  0  0  0  0  0  0  0  0  0  0  0
   56.0289   33.5671   45.4922 H   0  0  0  0  0  0  0  0  0  0  0  0
   57.8070   31.9500   45.9150 H   0  0  0  0  0  0  0  0  0  0  0  0
   59.4808   33.2675   46.8503 H   0  0  0  0  0  0  0  0  0  0  0  0
   60.0977   32.5120   45.3419 H   0  0  0  0  0  0  0  0  0  0  0  0
   59.5944   34.2363   45.3419 H   0  0  0  0  0  0  0  0  0  0  0  0
   57.3311   33.3445   43.4677 H   0  0  0  0  0  0  0  0  0  0  0  0
   58.8864   32.3624   43.5714 H   0  0  0  0  0  0  0  0  0  0  0  0
   56.2173   31.4494   43.0265 H   0  0  0  0  0  0  0  0  0  0  0  0
   57.7704   30.5302   43.0931 H   0  0  0  0  0  0  0  0  0  0  0  0
   56.6247   27.4617   47.0876 H   0  0  0  0  0  0  0  0  0  0  0  0
   56.5964   25.0655   46.4132 H   0  0  0  0  0  0  0  0  0  0  0  0
   55.7710   24.2645   42.5609 H   0  0  0  0  0  0  0  0  0  0  0  0
   55.7199   21.8582   41.9043 H   0  0  0  0  0  0  0  0  0  0  0  0
   57.2810   20.2345   42.9818 H   0  0  0  0  0  0  0  0  0  0  0  0
   58.9102   21.0181   44.6988 H   0  0  0  0  0  0  0  0  0  0  0  0
   58.9669   23.4214   45.3706 H   0  0  0  0  0  0  0  0  0  0  0  0
   58.1867   26.1463   42.5309 H   0  0  0  0  0  0  0  0  0  0  0  0
   58.2094   28.5406   43.2096 H   0  0  0  0  0  0  0  0  0  0  0  0
  1  2  1  0
  2  3  1  0
  2  4  1  0
  4  5  1  0
  5  6  1  0
  6  7  1  0
  7  8  2  0
  7  9  1  0
  9 10  2  0
 10 11  1  0
 11 12  2  0
 12 13  1  0
 13 14  2  0
 14 15  1  0
 15 16  2  0
 16 17  1  0
 17 18  2  0
 12 19  1  0
 19 20  2  0
 20  9  1  0
 18 13  1  0
  1 21  1  0
  1 22  1  0
  1 23  1  0
  2 24  1  0
  3 25  1  0
  3 26  1  0
  3 27  1  0
  4 28  1  0
  4 29  1  0
  5 30  1  0
  5 31  1  0
 10 32  1  0
 11 33  1  0
 14 34  1  0
 15 35  1  0
 16 36  1  0
 17 37  1  0
 18 38  1  0
 19 39  1  0
 20 40  1  0
M  CHG  2   2   1   6  -1
M  END
>  <UniqueID>  (39) 
35

>  <SMILES>  (39) 
C[NH+](C)CC[N-]C(=O)c1ccc(-c2ccccc2)cc1

>  <Energy>  (39) 
51.97043846157666

>  <Genealogy>  (39) 
C[NH+](C)CC[N-]C(=O)c1ccc(-c2ccccc2)cc1 (protonated)
C[NH+](C)CC[N-]C(=O)c1ccc(-c2ccccc2)cc1 (3D coordinates assigned)
C[NH+](C)CC[N-]C(=O)c1ccc(-c2ccccc2)cc1 (optimized conformer: 51.97043846157666 kcal/mol)

>  <smiles>  (39) 
CN(C)CCNC(=O)c1ccc(-c2ccccc2)cc1

>  <score_type>  (39) 
oracle

>  <origin>  (39) 
adg

>  <m_score__min__energy>  (39) 
-6.8200000000000003

>  <m_primary>  (39) 
energy

$$$$
39:0
     RDKit          3D

 22 23  0  0  0  0  0  0  0  0999 V2000
   59.2530   34.9690   45.2410 C   0  0  0  0  0  0  0  0  0  0  0  0
   58.7840   34.0770   45.9020 C   0  0  0  0  0  0  0  0  0  0  0  0
   58.2130   32.9930   46.7090 C   0  0  0  0  0  0  0  0  0  0  0  0
   58.8080   31.7010   46.3140 N   0  0  0  0  0  0  0  0  0  0  0  0
   60.0340   31.3270   46.8090 C   0  0  0  0  0  0  0  0  0  0  0  0
   60.6630   32.0700   47.6110 O   0  0  0  0  0  0  0  0  0  0  0  0
   60.6050   30.1110   46.4220 C   0  0  0  0  0  0  0  0  0  0  0  0
   59.9580   29.3030   45.5460 N   0  0  0  0  0  0  0  0  0  0  0  0
   58.7550   29.6640   45.0260 C   0  0  0  0  0  0  0  0  0  0  0  0
   58.0910   28.8420   44.1060 C   0  0  0  0  0  0  0  0  0  0  0  0
   56.8620   29.2430   43.5790 C   0  0  0  0  0  0  0  0  0  0  0  0
   56.3110   30.4620   43.9750 C   0  0  0  0  0  0  0  0  0  0  0  0
   56.9650   31.2480   44.8710 N   0  0  0  0  0  0  0  0  0  0  0  0
   58.1660   30.8880   45.4100 C   0  0  0  0  0  0  0  0  0  0  0  0
   59.6811   35.7831   44.6377 H   0  0  0  0  0  0  0  0  0  0  0  0
   58.4234   33.1809   47.7722 H   0  0  0  0  0  0  0  0  0  0  0  0
   57.1260   32.9549   46.5444 H   0  0  0  0  0  0  0  0  0  0  0  0
   61.5813   29.8090   46.8290 H   0  0  0  0  0  0  0  0  0  0  0  0
   60.4050   28.3990   45.2700 H   0  0  0  0  0  0  0  0  0  0  0  0
   58.5365   27.8840   43.8000 H   0  0  0  0  0  0  0  0  0  0  0  0
   56.3325   28.6032   42.8576 H   0  0  0  0  0  0  0  0  0  0  0  0
   55.3452   30.7879   43.5613 H   0  0  0  0  0  0  0  0  0  0  0  0
  1  2  3  0
  2  3  1  0
  3  4  1  0
  4  5  1  0
  5  6  2  0
  5  7  1  0
  7  8  2  0
  8  9  1  0
  9 10  2  0
 10 11  1  0
 11 12  2  0
 12 13  1  0
 13 14  2  0
 14  4  1  0
 14  9  1  0
  1 15  1  0
  3 16  1  0
  3 17  1  0
  7 18  1  0
  8 19  1  0
 10 20  1  0
 11 21  1  0
 12 22  1  0
M  CHG  1   8   1
M  END
>  <UniqueID>  (40) 
36

>  <SMILES>  (40) 
C#CCn1c(=O)c[nH+]c2cccnc21

>  <Energy>  (40) 
27.8669064601702

>  <Genealogy>  (40) 
C#CCn1c(=O)c[nH+]c2cccnc21 (protonated)
C#CCn1c(=O)c[nH+]c2cccnc21 (3D coordinates assigned)
C#CCn1c(=O)c[nH+]c2cccnc21 (optimized conformer: 27.8669064601702 kcal/mol)

>  <smiles>  (40) 
C#CCn1c(=O)cnc2cccnc21

>  <score_type>  (40) 
oracle

>  <origin>  (40) 
adg

>  <m_score__min__energy>  (40) 
-3.3100000000000001

>  <m_primary>  (40) 
energy

$$$$
40:0
     RDKit          3D

 49 51  0  0  0  0  0  0  0  0999 V2000
   66.9810   31.3400   50.8840 C   0  0  0  0  0  0  0  0  0  0  0  0
   66.9920   32.8570   50.7270 C   0  0  0  0  0  0  0  0  0  0  0  0
   65.7440   33.4160   51.1310 O   0  0  0  0  0  0  0  0  0  0  0  0
   64.5940   33.5110   50.3310 C   0  0  0  0  0  0  0  0  0  0  0  0
   64.6120   32.9170   49.0650 C   0  0  0  0  0  0  0  0  0  0  0  0
   63.4900   32.9860   48.2370 C   0  0  0  0  0  0  0  0  0  0  0  0
   62.3470   33.6530   48.6870 C   0  0  0  0  0  0  0  0  0  0  0  0
   61.1870   33.7380   47.8620 N   0  0  0  0  0  0  0  0  0  0  0  0
   59.7240   33.7400   48.0470 C   0  0  0  0  0  0  0  0  0  0  0  0
   59.3820   33.8550   46.5910 C   0  0  0  0  0  0  0  0  0  0  0  0
   58.6750   32.6480   45.9990 C   0  0  0  0  0  0  0  0  0  0  0  0
   57.9420   32.8040   44.8120 C   0  0  0  0  0  0  0  0  0  0  0  0
   57.2780   31.7170   44.2380 C   0  0  0  0  0  0  0  0  0  0  0  0
   57.3280   30.4490   44.8420 C   0  0  0  0  0  0  0  0  0  0  0  0
   56.6340   29.2620   44.2110 C   0  0  2  0  0  0  0  0  0  0  0  0
   55.6600   29.7360   43.1290 C   0  0  0  0  0  0  0  0  0  0  0  0
   55.9160   28.5100   45.2410 N   0  0  0  0  0  0  0  0  0  0  0  0
   56.2580   27.1970   45.7050 C   0  0  0  0  0  0  0  0  0  0  0  0
   57.6810   26.7410   45.8110 C   0  0  0  0  0  0  0  0  0  0  0  0
   55.3350   26.4190   46.0610 O   0  0  0  0  0  0  0  0  0  0  0  0
   58.0720   30.2870   46.0210 C   0  0  0  0  0  0  0  0  0  0  0  0
   58.7360   31.3740   46.5970 C   0  0  0  0  0  0  0  0  0  0  0  0
   60.8730   33.8660   46.4260 C   0  0  0  0  0  0  0  0  0  0  0  0
   62.3400   34.2240   49.9220 N   0  0  0  0  0  0  0  0  0  0  0  0
   63.4200   34.1700   50.7460 C   0  0  0  0  0  0  0  0  0  0  0  0
   66.9791   31.0821   51.9533 H   0  0  0  0  0  0  0  0  0  0  0  0
   66.0799   30.9284   50.4060 H   0  0  0  0  0  0  0  0  0  0  0  0
   67.8761   30.9154   50.4060 H   0  0  0  0  0  0  0  0  0  0  0  0
   67.7947   33.2784   51.3500 H   0  0  0  0  0  0  0  0  0  0  0  0
   67.1618   33.1011   49.6679 H   0  0  0  0  0  0  0  0  0  0  0  0
   65.5152   32.3925   48.7197 H   0  0  0  0  0  0  0  0  0  0  0  0
   63.5053   32.5202   47.2406 H   0  0  0  0  0  0  0  0  0  0  0  0
   59.3515   32.8088   48.4988 H   0  0  0  0  0  0  0  0  0  0  0  0
   59.3047   34.5001   48.7225 H   0  0  0  0  0  0  0  0  0  0  0  0
   58.7116   34.6207   46.1736 H   0  0  0  0  0  0  0  0  0  0  0  0
   57.8899   33.7911   44.3294 H   0  0  0  0  0  0  0  0  0  0  0  0
   56.7112   31.8548   43.3054 H   0  0  0  0  0  0  0  0  0  0  0  0
   57.3861   28.6086   43.7447 H   0  0  0  0  0  0  0  0  0  0  0  0
   54.7677   30.1702   43.6036 H   0  0  0  0  0  0  0  0  0  0  0  0
   56.1493   30.4968   42.5030 H   0  0  0  0  0  0  0  0  0  0  0  0
   55.3632   28.8816   42.5030 H   0  0  0  0  0  0  0  0  0  0  0  0
   57.9594   26.6518   46.8714 H   0  0  0  0  0  0  0  0  0  0  0  0
   57.7902   25.7629   45.3197 H   0  0  0  0  0  0  0  0  0  0  0  0
   58.3383   27.4735   45.3197 H   0  0  0  0  0  0  0  0  0  0  0  0
   58.1331   29.2966   46.4957 H   0  0  0  0  0  0  0  0  0  0  0  0
   59.3106   31.2334   47.5244 H   0  0  0  0  0  0  0  0  0  0  0  0
   61.2414   33.0160   45.8329 H   0  0  0  0  0  0  0  0  0  0  0  0
   61.3127   34.7201   45.8900 H   0  0  0  0  0  0  0  0  0  0  0  0
   63.3771   34.6418   51.7388 H   0  0  0  0  0  0  0  0  0  0  0  0
  1  2  1  0
  2  3  1  0
  3  4  1  0
  4  5  2  0
  5  6  1  0
  6  7  2  0
  7  8  1  0
  8  9  1  0
  9 10  1  0
 10 11  1  0
 11 12  2  0
 12 13  1  0
 13 14  2  0
 14 15  1  0
 15 16  1  0
 15 17  1  0
 17 18  1  0
 18 19  1  0
 18 20  2  0
 14 21  1  0
 21 22  2  0
 10 23  1  0
  7 24  1  0
 24 25  2  0
 25  4  1  0
 23  8  1  0
 22 11  1  0
  1 26  1  0
  1 27  1  0
  1 28  1  0
  2 29  1  0
  2 30  1  0
  5 31  1  0
  6 32  1  0
  9 33  1  0
  9 34  1  0
 10 35  1  0
 12 36  1  0
 13 37  1  0
 15 38  1  6
 16 39  1  0
 16 40  1  0
 16 41  1  0
 19 42  1  0
 19 43  1  0
 19 44  1  0
 21 45  1  0
 22 46  1  0
 23 47  1  0
 23 48  1  0
 25 49  1  0
M  CHG  1  17  -1
M  END
>  <UniqueID>  (41) 
37

>  <SMILES>  (41) 
CCOc1ccc(N2CC(c3ccc([C@H](C)[N-]C(C)=O)cc3)C2)nc1

>  <Energy>  (41) 
90.96069336736494

>  <Genealogy>  (41) 
CCOc1ccc(N2CC(c3ccc(C(C)[N-]C(C)=O)cc3)C2)nc1 (protonated)
CCOc1ccc(N2CC(c3ccc([C@H](C)[N-]C(C)=O)cc3)C2)nc1 (chirality)
CCOc1ccc(N2CC(c3ccc([C@H](C)[N-]C(C)=O)cc3)C2)nc1 (3D coordinates assigned)
CCOc1ccc(N2CC(c3ccc([C@H](C)[N-]C(C)=O)cc3)C2)nc1 (nonaromatic ring conformer: 90.96069336736494 kcal/mol)

>  <smiles>  (41) 
CCOc1ccc(N2CC(c3ccc(C(C)NC(C)=O)cc3)C2)nc1

>  <score_type>  (41) 
oracle

>  <origin>  (41) 
adg

>  <m_score__min__energy>  (41) 
-10.18

>  <m_primary>  (41) 
energy

$$$$
41:0
     RDKit          3D

 31 34  0  0  0  0  0  0  0  0999 V2000
   65.3330   33.4080   49.8950 F   0  0  0  0  0  0  0  0  0  0  0  0
   64.1680   33.4590   49.2040 C   0  0  0  0  0  0  0  0  0  0  0  0
   63.0000   33.8900   49.8360 C   0  0  0  0  0  0  0  0  0  0  0  0
   61.7960   33.9440   49.1260 C   0  0  0  0  0  0  0  0  0  0  0  0
   61.7480   33.5630   47.7710 C   0  0  0  0  0  0  0  0  0  0  0  0
   60.4710   33.6230   47.0180 C   0  0  0  0  0  0  0  0  0  0  0  0
   59.9910   32.6040   46.2450 N   0  0  0  0  0  0  0  0  0  0  0  0
   58.8310   32.9380   45.6990 N   0  0  0  0  0  0  0  0  0  0  0  0
   57.7960   32.2550   45.1900 C   0  0  0  0  0  0  0  0  0  0  0  0
   57.8150   30.8530   44.7230 C   0  0  0  0  0  0  0  0  0  0  0  0
   58.7110   29.9220   45.2760 C   0  0  0  0  0  0  0  0  0  0  0  0
   58.7260   28.6000   44.8170 C   0  0  0  0  0  0  0  0  0  0  0  0
   57.8570   28.2020   43.7990 C   0  0  0  0  0  0  0  0  0  0  0  0
   56.9760   29.1250   43.2320 C   0  0  0  0  0  0  0  0  0  0  0  0
   56.9580   30.4480   43.6870 C   0  0  0  0  0  0  0  0  0  0  0  0
   56.6840   33.0390   45.2310 N   0  0  0  0  0  0  0  0  0  0  0  0
   57.0200   34.2030   45.7950 N   0  0  0  0  0  0  0  0  0  0  0  0
   58.3350   34.1000   46.0470 C   0  0  0  0  0  0  0  0  0  0  0  0
   59.3480   34.9320   47.0920 S   0  0  0  0  0  0  0  0  0  0  0  0
   62.9350   33.1360   47.1440 C   0  0  0  0  0  0  0  0  0  0  0  0
   64.1350   33.0850   47.8600 C   0  0  0  0  0  0  0  0  0  0  0  0
   63.0267   34.1878   50.8946 H   0  0  0  0  0  0  0  0  0  0  0  0
   60.8800   34.2865   49.6296 H   0  0  0  0  0  0  0  0  0  0  0  0
   60.4110   31.6510   46.1740 H   0  0  0  0  0  0  0  0  0  0  0  0
   59.4029   30.2335   46.0724 H   0  0  0  0  0  0  0  0  0  0  0  0
   59.4235   27.8732   45.2589 H   0  0  0  0  0  0  0  0  0  0  0  0
   57.8665   27.1610   43.4437 H   0  0  0  0  0  0  0  0  0  0  0  0
   56.2953   28.8117   42.4267 H   0  0  0  0  0  0  0  0  0  0  0  0
   56.2692   31.1743   43.2310 H   0  0  0  0  0  0  0  0  0  0  0  0
   62.9178   32.8408   46.0845 H   0  0  0  0  0  0  0  0  0  0  0  0
   65.0564   32.7488   47.3620 H   0  0  0  0  0  0  0  0  0  0  0  0
  1  2  1  0
  2  3  2  0
  3  4  1  0
  4  5  2  0
  5  6  1  0
  6  7  2  0
  7  8  1  0
  8  9  1  0
  9 10  1  0
 10 11  2  0
 11 12  1  0
 12 13  2  0
 13 14  1  0
 14 15  2  0
  9 16  2  0
 16 17  1  0
 17 18  2  0
 18 19  1  0
  5 20  1  0
 20 21  2  0
 21  2  1  0
 19  6  1  0
 18  8  1  0
 15 10  1  0
  3 22  1  0
  4 23  1  0
  7 24  1  0
 11 25  1  0
 12 26  1  0
 13 27  1  0
 14 28  1  0
 15 29  1  0
 20 30  1  0
 21 31  1  0
M  CHG  1   7   1
M  END
>  <UniqueID>  (42) 
38

>  <SMILES>  (42) 
Fc1ccc(-c2[nH+]n3c(-c4ccccc4)nnc3s2)cc1

>  <Energy>  (42) 
134.29396414271923

>  <Genealogy>  (42) 
Fc1ccc(-c2[nH+]n3c(-c4ccccc4)nnc3s2)cc1 (protonated)
Fc1ccc(-c2[nH+]n3c(-c4ccccc4)nnc3s2)cc1 (3D coordinates assigned)
Fc1ccc(-c2[nH+]n3c(-c4ccccc4)nnc3s2)cc1 (optimized conformer: 134.29396414271923 kcal/mol)

>  <smiles>  (42) 
Fc1ccc(-c2nn3c(-c4ccccc4)nnc3s2)cc1

>  <score_type>  (42) 
oracle

>  <origin>  (42) 
adg

>  <m_score__min__energy>  (42) 
-6.71

>  <m_primary>  (42) 
energy

$$$$
42:0
     RDKit          3D

 41 42  0  0  0  0  0  0  0  0999 V2000
   59.6290   34.5870   48.5660 C   0  0  0  0  0  0  0  0  0  0  0  0
   59.4570   35.1200   47.1480 C   0  0  0  0  0  0  0  0  0  0  0  0
   59.3710   34.0110   46.1920 N   0  0  0  0  0  0  0  0  0  0  0  0
   58.8020   34.2380   44.8570 C   0  0  0  0  0  0  0  0  0  0  0  0
   57.2790   34.2070   44.9160 C   0  0  0  0  0  0  0  0  0  0  0  0
   60.0620   32.7840   46.4730 C   0  0  0  0  0  0  0  0  0  0  0  0
   61.3110   32.8060   47.0240 N   0  0  0  0  0  0  0  0  0  0  0  0
   61.9870   31.6510   47.3220 C   0  0  0  0  0  0  0  0  0  0  0  0
   63.3530   31.7280   47.9230 C   0  0  0  0  0  0  0  0  0  0  0  0
   61.4130   30.4320   47.0720 N   0  0  0  0  0  0  0  0  0  0  0  0
   60.1670   30.3970   46.5250 C   0  0  0  0  0  0  0  0  0  0  0  0
   59.4840   31.5400   46.2320 C   0  0  0  0  0  0  0  0  0  0  0  0
   58.2340   31.1770   45.7810 C   0  0  0  0  0  0  0  0  0  0  0  0
   58.2240   29.7820   45.8160 C   0  0  0  0  0  0  0  0  0  0  0  0
   57.0410   28.9660   45.4640 C   0  0  0  0  0  0  0  0  0  0  0  0
   57.0530   27.7260   45.6980 O   0  0  0  0  0  0  0  0  0  0  0  0
   55.9260   29.5530   44.8610 O   0  0  0  0  0  0  0  0  0  0  0  0
   55.9290   30.0010   43.5100 C   0  0  0  0  0  0  0  0  0  0  0  0
   59.4210   29.3020   46.2580 N   0  0  0  0  0  0  0  0  0  0  0  0
   59.7960   27.8990   46.4540 C   0  0  0  0  0  0  0  0  0  0  0  0
   59.3741   35.3768   49.2880 H   0  0  0  0  0  0  0  0  0  0  0  0
   58.9637   33.7240   48.7165 H   0  0  0  0  0  0  0  0  0  0  0  0
   60.6732   34.2757   48.7165 H   0  0  0  0  0  0  0  0  0  0  0  0
   58.5346   35.7170   47.0946 H   0  0  0  0  0  0  0  0  0  0  0  0
   60.3264   35.7440   46.8934 H   0  0  0  0  0  0  0  0  0  0  0  0
   59.1304   35.2198   44.4852 H   0  0  0  0  0  0  0  0  0  0  0  0
   59.1491   33.4425   44.1813 H   0  0  0  0  0  0  0  0  0  0  0  0
   56.9528   34.2004   45.9665 H   0  0  0  0  0  0  0  0  0  0  0  0
   56.8743   35.0971   44.4120 H   0  0  0  0  0  0  0  0  0  0  0  0
   56.9109   33.3012   44.4120 H   0  0  0  0  0  0  0  0  0  0  0  0
   63.2717   31.7234   49.0200 H   0  0  0  0  0  0  0  0  0  0  0  0
   63.9469   30.8619   47.5957 H   0  0  0  0  0  0  0  0  0  0  0  0
   63.8458   32.6554   47.5957 H   0  0  0  0  0  0  0  0  0  0  0  0
   61.9280   29.5590   47.3180 H   0  0  0  0  0  0  0  0  0  0  0  0
   57.4191   31.8434   45.4619 H   0  0  0  0  0  0  0  0  0  0  0  0
   55.9364   31.1008   43.4884 H   0  0  0  0  0  0  0  0  0  0  0  0
   56.8246   29.6182   42.9988 H   0  0  0  0  0  0  0  0  0  0  0  0
   55.0284   29.6302   42.9988 H   0  0  0  0  0  0  0  0  0  0  0  0
   59.8540   27.6820   47.5308 H   0  0  0  0  0  0  0  0  0  0  0  0
   59.0401   27.2490   45.9892 H   0  0  0  0  0  0  0  0  0  0  0  0
   60.7754   27.7129   45.9892 H   0  0  0  0  0  0  0  0  0  0  0  0
  1  2  1  0
  2  3  1  0
  3  4  1  0
  4  5  1  0
  3  6  1  0
  6  7  2  0
  7  8  1  0
  8  9  1  0
  8 10  2  0
 10 11  1  0
 11 12  2  0
 12 13  1  0
 13 14  2  0
 14 15  1  0
 15 16  2  0
 15 17  1  0
 17 18  1  0
 14 19  1  0
 19 20  1  0
 12  6  1  0
 19 11  1  0
  1 21  1  0
  1 22  1  0
  1 23  1  0
  2 24  1  0
  2 25  1  0
  4 26  1  0
  4 27  1  0
  5 28  1  0
  5 29  1  0
  5 30  1  0
  9 31  1  0
  9 32  1  0
  9 33  1  0
 10 34  1  0
 13 35  1  0
 18 36  1  0
 18 37  1  0
 18 38  1  0
 20 39  1  0
 20 40  1  0
 20 41  1  0
M  CHG  1  10   1
M  END
>  <UniqueID>  (43) 
39

>  <SMILES>  (43) 
CCN(CC)c1nc(C)[nH+]c2c1cc(C(=O)OC)n2C

>  <Energy>  (43) 
70.83017375465712

>  <Genealogy>  (43) 
CCN(CC)c1nc(C)[nH+]c2c1cc(C(=O)OC)n2C (protonated)
CCN(CC)c1nc(C)[nH+]c2c1cc(C(=O)OC)n2C (3D coordinates assigned)
CCN(CC)c1nc(C)[nH+]c2c1cc(C(=O)OC)n2C (optimized conformer: 70.83017375465712 kcal/mol)

>  <smiles>  (43) 
CCN(CC)c1nc(C)nc2c1cc(C(=O)OC)n2C

>  <score_type>  (43) 
oracle

>  <origin>  (43) 
adg

>  <m_score__min__energy>  (43) 
-4.5700000000000003

>  <m_primary>  (43) 
energy

$$$$
43:0
     RDKit          3D

 35 37  0  0  0  0  0  0  0  0999 V2000
   54.6700   25.2980   45.6180 C   0  0  0  0  0  0  0  0  0  0  0  0
   55.2100   26.5720   45.9520 O   0  0  0  0  0  0  0  0  0  0  0  0
   56.5820   26.8660   46.0140 C   0  0  0  0  0  0  0  0  0  0  0  0
   57.4930   26.0220   46.6810 C   0  0  0  0  0  0  0  0  0  0  0  0
   58.8490   26.3510   46.7400 C   0  0  0  0  0  0  0  0  0  0  0  0
   59.3130   27.5230   46.1410 C   0  0  0  0  0  0  0  0  0  0  0  0
   58.4220   28.3670   45.4760 C   0  0  0  0  0  0  0  0  0  0  0  0
   57.0580   28.0410   45.3950 C   0  0  0  0  0  0  0  0  0  0  0  0
   56.1080   28.9870   44.7070 C   0  0  0  0  0  0  0  0  0  0  0  0
   56.7540   30.2790   44.5050 N   0  0  0  0  0  0  0  0  0  0  0  0
   57.0860   30.8380   43.3300 C   0  0  0  0  0  0  0  0  0  0  0  0
   57.7490   31.9970   43.5140 N   0  0  0  0  0  0  0  0  0  0  0  0
   57.8000   32.0920   44.8640 C   0  0  0  0  0  0  0  0  0  0  0  0
   58.4530   33.2040   45.5860 C   0  0  0  0  0  0  0  0  0  0  0  0
   58.9630   34.3100   44.8820 C   0  0  0  0  0  0  0  0  0  0  0  0
   59.5780   35.3610   45.5670 C   0  0  0  0  0  0  0  0  0  0  0  0
   59.6900   35.3210   46.9590 C   0  0  0  0  0  0  0  0  0  0  0  0
   59.1860   34.2290   47.6690 C   0  0  0  0  0  0  0  0  0  0  0  0
   59.2940   34.1900   49.0200 F   0  0  0  0  0  0  0  0  0  0  0  0
   58.5700   33.1740   46.9890 C   0  0  0  0  0  0  0  0  0  0  0  0
   57.2060   31.0480   45.4770 N   0  0  0  0  0  0  0  0  0  0  0  0
   54.4359   24.7458   46.5401 H   0  0  0  0  0  0  0  0  0  0  0  0
   53.7515   25.4324   45.0279 H   0  0  0  0  0  0  0  0  0  0  0  0
   55.4053   24.7314   45.0279 H   0  0  0  0  0  0  0  0  0  0  0  0
   57.1335   25.0983   47.1581 H   0  0  0  0  0  0  0  0  0  0  0  0
   59.5531   25.6847   47.2599 H   0  0  0  0  0  0  0  0  0  0  0  0
   60.3809   27.7817   46.1929 H   0  0  0  0  0  0  0  0  0  0  0  0
   58.7905   29.2938   45.0122 H   0  0  0  0  0  0  0  0  0  0  0  0
   55.8179   28.5678   43.7323 H   0  0  0  0  0  0  0  0  0  0  0  0
   55.2144   29.1228   45.3340 H   0  0  0  0  0  0  0  0  0  0  0  0
   56.8481   30.4066   42.3465 H   0  0  0  0  0  0  0  0  0  0  0  0
   58.8771   34.3476   43.7860 H   0  0  0  0  0  0  0  0  0  0  0  0
   59.9749   36.2219   45.0090 H   0  0  0  0  0  0  0  0  0  0  0  0
   60.1751   36.1496   47.4958 H   0  0  0  0  0  0  0  0  0  0  0  0
   58.1747   32.3162   47.5528 H   0  0  0  0  0  0  0  0  0  0  0  0
  1  2  1  0
  2  3  1  0
  3  4  2  0
  4  5  1  0
  5  6  2  0
  6  7  1  0
  7  8  2  0
  8  9  1  0
  9 10  1  0
 10 11  1  0
 11 12  2  0
 12 13  1  0
 13 14  1  0
 14 15  2  0
 15 16  1  0
 16 17  2  0
 17 18  1  0
 18 19  1  0
 18 20  2  0
 13 21  2  0
  8  3  1  0
 21 10  1  0
 20 14  1  0
  1 22  1  0
  1 23  1  0
  1 24  1  0
  4 25  1  0
  5 26  1  0
  6 27  1  0
  7 28  1  0
  9 29  1  0
  9 30  1  0
 11 31  1  0
 15 32  1  0
 16 33  1  0
 17 34  1  0
 20 35  1  0
M  END
>  <UniqueID>  (44) 
40

>  <SMILES>  (44) 
COc1ccccc1Cn1cnc(-c2cccc(F)c2)n1

>  <Energy>  (44) 
68.73609958043582

>  <Genealogy>  (44) 
COc1ccccc1Cn1cnc(-c2cccc(F)c2)n1 (3D coordinates assigned)
COc1ccccc1Cn1cnc(-c2cccc(F)c2)n1 (optimized conformer: 68.73609958043582 kcal/mol)

>  <smiles>  (44) 
COc1ccccc1Cn1cnc(-c2cccc(F)c2)n1

>  <score_type>  (44) 
oracle

>  <origin>  (44) 
adg

>  <m_score__min__energy>  (44) 
-7.7000000000000002

>  <m_primary>  (44) 
energy

$$$$
44:0
     RDKit          3D

 59 62  0  0  0  0  0  0  0  0999 V2000
   57.8150   32.3200   41.5250 C   0  0  0  0  0  0  0  0  0  0  0  0
   57.0110   31.2410   42.2560 C   0  0  0  0  0  0  0  0  0  0  0  0
   57.5110   30.9870   43.6290 N   0  0  0  0  0  0  0  0  0  0  0  0
   57.3830   32.1250   44.5750 C   0  0  0  0  0  0  0  0  0  0  0  0
   58.5110   33.1610   44.5080 C   0  0  0  0  0  0  0  0  0  0  0  0
   56.9820   29.7530   44.1970 C   0  0  0  0  0  0  0  0  0  0  0  0
   55.9290   29.7940   44.8220 O   0  0  0  0  0  0  0  0  0  0  0  0
   57.6360   28.4000   43.9990 C   0  0  0  0  0  0  0  0  0  0  0  0
   58.1690   27.8630   45.3050 C   0  0  0  0  0  0  0  0  0  0  0  0
   58.2320   26.5310   45.7180 C   0  0  0  0  0  0  0  0  0  0  0  0
   57.6540   25.3570   45.0430 C   0  0  0  0  0  0  0  0  0  0  0  0
   57.4750   25.3400   43.6510 C   0  0  0  0  0  0  0  0  0  0  0  0
   56.9400   24.2130   43.0210 C   0  0  0  0  0  0  0  0  0  0  0  0
   56.5570   23.0910   43.7780 C   0  0  0  0  0  0  0  0  0  0  0  0
   56.0260   21.9330   43.1910 O   0  0  0  0  0  0  0  0  0  0  0  0
   56.7330   20.7090   43.0480 C   0  0  0  0  0  0  0  0  0  0  0  0
   56.7050   23.1250   45.1700 C   0  0  0  0  0  0  0  0  0  0  0  0
   57.2390   24.2520   45.8010 C   0  0  0  0  0  0  0  0  0  0  0  0
   58.9570   26.4330   46.8580 N   0  0  0  0  0  0  0  0  0  0  0  0
   59.3100   27.7070   47.1220 C   0  0  0  0  0  0  0  0  0  0  0  0
   60.0830   28.1280   48.2010 C   0  0  0  0  0  0  0  0  0  0  0  0
   60.7390   26.8930   49.5040 Br  0  0  0  0  0  0  0  0  0  0  0  0
   60.3770   29.4970   48.2990 C   0  0  0  0  0  0  0  0  0  0  0  0
   59.9040   30.4110   47.3280 C   0  0  0  0  0  0  0  0  0  0  0  0
   60.2310   31.8560   47.4240 C   0  0  0  0  0  0  0  0  0  0  0  0
   61.5360   32.3140   47.1610 C   0  0  0  0  0  0  0  0  0  0  0  0
   61.8400   33.6750   47.2470 C   0  0  0  0  0  0  0  0  0  0  0  0
   60.8480   34.5920   47.5970 C   0  0  0  0  0  0  0  0  0  0  0  0
   59.5480   34.1520   47.8600 C   0  0  0  0  0  0  0  0  0  0  0  0
   59.2390   32.7910   47.7760 C   0  0  0  0  0  0  0  0  0  0  0  0
   59.1260   29.9170   46.2620 C   0  0  0  0  0  0  0  0  0  0  0  0
   58.8600   28.5840   46.2090 N   0  0  0  0  0  0  0  0  0  0  0  0
   58.3033   32.9753   42.2613 H   0  0  0  0  0  0  0  0  0  0  0  0
   58.5798   31.8432   40.8943 H   0  0  0  0  0  0  0  0  0  0  0  0
   57.1394   32.9165   40.8943 H   0  0  0  0  0  0  0  0  0  0  0  0
   55.9617   31.5652   42.3179 H   0  0  0  0  0  0  0  0  0  0  0  0
   57.1146   30.3059   41.6861 H   0  0  0  0  0  0  0  0  0  0  0  0
   58.5430   30.8280   43.5270 H   0  0  0  0  0  0  0  0  0  0  0  0
   56.4349   32.6402   44.3610 H   0  0  0  0  0  0  0  0  0  0  0  0
   57.4290   31.6892   45.5840 H   0  0  0  0  0  0  0  0  0  0  0  0
   58.8142   33.4394   45.5281 H   0  0  0  0  0  0  0  0  0  0  0  0
   59.3716   32.7320   43.9739 H   0  0  0  0  0  0  0  0  0  0  0  0
   58.1566   34.0549   43.9739 H   0  0  0  0  0  0  0  0  0  0  0  0
   56.8926   27.6961   43.5968 H   0  0  0  0  0  0  0  0  0  0  0  0
   58.4755   28.5148   43.2975 H   0  0  0  0  0  0  0  0  0  0  0  0
   57.7574   26.2187   43.0525 H   0  0  0  0  0  0  0  0  0  0  0  0
   56.8178   24.2033   41.9278 H   0  0  0  0  0  0  0  0  0  0  0  0
   56.9677   20.3027   44.0429 H   0  0  0  0  0  0  0  0  0  0  0  0
   56.1116   19.9891   42.4952 H   0  0  0  0  0  0  0  0  0  0  0  0
   57.6671   20.8875   42.4952 H   0  0  0  0  0  0  0  0  0  0  0  0
   56.3983   22.2571   45.7722 H   0  0  0  0  0  0  0  0  0  0  0  0
   57.3343   24.2726   46.8967 H   0  0  0  0  0  0  0  0  0  0  0  0
   60.9825   29.8637   49.1409 H   0  0  0  0  0  0  0  0  0  0  0  0
   62.3219   31.5952   46.8858 H   0  0  0  0  0  0  0  0  0  0  0  0
   62.8622   34.0240   47.0386 H   0  0  0  0  0  0  0  0  0  0  0  0
   61.0898   35.6629   47.6660 H   0  0  0  0  0  0  0  0  0  0  0  0
   58.7672   34.8770   48.1333 H   0  0  0  0  0  0  0  0  0  0  0  0
   58.2149   32.4488   47.9861 H   0  0  0  0  0  0  0  0  0  0  0  0
   58.7410   30.5965   45.4873 H   0  0  0  0  0  0  0  0  0  0  0  0
  1  2  1  0
  2  3  1  0
  3  4  1  0
  4  5  1  0
  3  6  1  0
  6  7  2  0
  6  8  1  0
  8  9  1  0
  9 10  2  0
 10 11  1  0
 11 12  2  0
 12 13  1  0
 13 14  2  0
 14 15  1  0
 15 16  1  0
 14 17  1  0
 17 18  2  0
 10 19  1  0
 19 20  2  0
 20 21  1  0
 21 22  1  0
 21 23  2  0
 23 24  1  0
 24 25  1  0
 25 26  2  0
 26 27  1  0
 27 28  2  0
 28 29  1  0
 29 30  2  0
 24 31  2  0
 31 32  1  0
 32  9  1  0
 18 11  1  0
 32 20  1  0
 30 25  1  0
  1 33  1  0
  1 34  1  0
  1 35  1  0
  2 36  1  0
  2 37  1  0
  3 38  1  0
  4 39  1  0
  4 40  1  0
  5 41  1  0
  5 42  1  0
  5 43  1  0
  8 44  1  0
  8 45  1  0
 12 46  1  0
 13 47  1  0
 16 48  1  0
 16 49  1  0
 16 50  1  0
 17 51  1  0
 18 52  1  0
 23 53  1  0
 26 54  1  0
 27 55  1  0
 28 56  1  0
 29 57  1  0
 30 58  1  0
 31 59  1  0
M  CHG  1   3   1
M  END
>  <UniqueID>  (45) 
41

>  <SMILES>  (45) 
CC[NH+](CC)C(=O)Cc1c(-c2ccc(OC)cc2)nc2c(Br)cc(-c3ccccc3)cn12

>  <Energy>  (45) 
108.41263155413691

>  <Genealogy>  (45) 
CC[NH+](CC)C(=O)Cc1c(-c2ccc(OC)cc2)nc2c(Br)cc(-c3ccccc3)cn12 (protonated)
CC[NH+](CC)C(=O)Cc1c(-c2ccc(OC)cc2)nc2c(Br)cc(-c3ccccc3)cn12 (3D coordinates assigned)
CC[NH+](CC)C(=O)Cc1c(-c2ccc(OC)cc2)nc2c(Br)cc(-c3ccccc3)cn12 (optimized conformer: 108.41263155413691 kcal/mol)

>  <smiles>  (45) 
CCN(CC)C(=O)Cc1c(-c2ccc(OC)cc2)nc2c(Br)cc(-c3ccccc3)cn12

>  <score_type>  (45) 
oracle

>  <origin>  (45) 
adg

>  <m_score__min__energy>  (45) 
-8.5299999999999994

>  <m_primary>  (45) 
energy

$$$$
45:0
     RDKit          3D

 52 55  0  0  0  0  0  0  0  0999 V2000
   66.2867   31.1086   51.3212 H   0  0  0  0  0  0  0  0  0  0  0  0
   65.4500   31.5590   50.7670 C   0  0  0  0  0  0  0  0  0  0  0  0
   64.1670   31.0160   50.8790 C   0  0  0  0  0  0  0  0  0  0  0  0
   63.9949   30.1387   51.5199 H   0  0  0  0  0  0  0  0  0  0  0  0
   63.0990   31.5900   50.1740 C   0  0  0  0  0  0  0  0  0  0  0  0
   62.0896   31.1623   50.2649 H   0  0  0  0  0  0  0  0  0  0  0  0
   63.3140   32.7120   49.3500 C   0  0  0  0  0  0  0  0  0  0  0  0
   62.2270   33.2960   48.6080 N   0  0  0  0  0  0  0  0  0  0  0  0
   62.4380   33.7890   47.2450 C   0  0  0  0  0  0  0  0  0  0  0  0
   63.3408   33.3244   46.8219 H   0  0  0  0  0  0  0  0  0  0  0  0
   62.5648   34.8815   47.2639 H   0  0  0  0  0  0  0  0  0  0  0  0
   61.2240   33.4280   46.3820 C   0  0  0  0  0  0  0  0  0  0  0  0
   61.1864   32.3339   46.2749 H   0  0  0  0  0  0  0  0  0  0  0  0
   61.3514   33.9386   45.4160 H   0  0  0  0  0  0  0  0  0  0  0  0
   59.9260   33.8910   46.9540 N   0  0  0  0  0  0  0  0  0  0  0  0
   59.2970   34.9470   46.1270 C   0  0  0  0  0  0  0  0  0  0  0  0
   60.0522   35.7044   45.8700 H   0  0  0  0  0  0  0  0  0  0  0  0
   58.4788   35.4090   46.6989 H   0  0  0  0  0  0  0  0  0  0  0  0
   58.7240   34.3430   44.8340 C   0  0  0  0  0  0  0  0  0  0  0  0
   59.4444   33.6158   44.4314 H   0  0  0  0  0  0  0  0  0  0  0  0
   58.5494   35.1635   44.1224 H   0  0  0  0  0  0  0  0  0  0  0  0
   57.3850   33.6320   45.0790 C   0  0  0  0  0  0  0  0  0  0  0  0
   56.8354   33.5662   44.1284 H   0  0  0  0  0  0  0  0  0  0  0  0
   56.8150   34.2121   45.8196 H   0  0  0  0  0  0  0  0  0  0  0  0
   57.5870   32.2820   45.6070 N   0  0  0  0  0  0  0  0  0  0  0  0
   57.4420   31.1430   44.9820 C   0  0  0  0  0  0  0  0  0  0  0  0
   56.4040   30.9290   44.0530 C   0  0  0  0  0  0  0  0  0  0  0  0
   55.6942   31.7381   43.8261 H   0  0  0  0  0  0  0  0  0  0  0  0
   56.2760   29.6920   43.4210 C   0  0  0  0  0  0  0  0  0  0  0  0
   55.4637   29.5312   42.6969 H   0  0  0  0  0  0  0  0  0  0  0  0
   57.1460   28.6840   43.6920 N   0  0  0  0  0  0  0  0  0  0  0  0
   57.0150   27.7700   43.1980 H   0  0  0  0  0  0  0  0  0  0  0  0
   58.1700   28.8440   44.5800 C   0  0  0  0  0  0  0  0  0  0  0  0
   59.0560   27.7840   44.8350 C   0  0  0  0  0  0  0  0  0  0  0  0
   58.9185   26.8209   44.3217 H   0  0  0  0  0  0  0  0  0  0  0  0
   60.1110   27.9460   45.7370 C   0  0  0  0  0  0  0  0  0  0  0  0
   60.9630   26.9180   45.9770 F   0  0  0  0  0  0  0  0  0  0  0  0
   60.2910   29.1660   46.3900 C   0  0  0  0  0  0  0  0  0  0  0  0
   61.1256   29.2911   47.0956 H   0  0  0  0  0  0  0  0  0  0  0  0
   59.4160   30.2300   46.1520 C   0  0  0  0  0  0  0  0  0  0  0  0
   59.5652   31.1872   46.6730 H   0  0  0  0  0  0  0  0  0  0  0  0
   58.3430   30.0840   45.2480 C   0  0  0  0  0  0  0  0  0  0  0  0
   59.9940   34.3170   48.3740 C   0  0  0  0  0  0  0  0  0  0  0  0
   58.9790   34.3030   48.7978 H   0  0  0  0  0  0  0  0  0  0  0  0
   60.4244   35.3288   48.4046 H   0  0  0  0  0  0  0  0  0  0  0  0
   60.8920   33.3950   49.2090 C   0  0  0  0  0  0  0  0  0  0  0  0
   60.4400   32.3931   49.2540 H   0  0  0  0  0  0  0  0  0  0  0  0
   60.9879   33.8135   50.2217 H   0  0  0  0  0  0  0  0  0  0  0  0
   64.6110   33.2510   49.2440 C   0  0  0  0  0  0  0  0  0  0  0  0
   64.7899   34.1273   48.6036 H   0  0  0  0  0  0  0  0  0  0  0  0
   65.6730   32.6750   49.9510 C   0  0  0  0  0  0  0  0  0  0  0  0
   66.6841   33.0996   49.8655 H   0  0  0  0  0  0  0  0  0  0  0  0
  1  2  1  0
  2  3  2  0
  3  4  1  0
  3  5  1  0
  5  6  1  0
  5  7  2  0
  7  8  1  0
  8  9  1  0
  9 10  1  0
  9 11  1  0
  9 12  1  0
 12 13  1  0
 12 14  1  0
 12 15  1  0
 15 16  1  0
 16 17  1  0
 16 18  1  0
 16 19  1  0
 19 20  1  0
 19 21  1  0
 19 22  1  0
 22 23  1  0
 22 24  1  0
 22 25  1  0
 25 26  2  0
 26 27  1  0
 27 28  1  0
 27 29  2  0
 29 30  1  0
 29 31  1  0
 31 32  1  0
 31 33  1  0
 33 34  2  0
 34 35  1  0
 34 36  1  0
 36 37  1  0
 36 38  2  0
 38 39  1  0
 38 40  1  0
 40 41  1  0
 40 42  2  0
 15 43  1  0
 43 44  1  0
 43 45  1  0
 43 46  1  0
 46 47  1  0
 46 48  1  0
  7 49  1  0
 49 50  1  0
 49 51  2  0
 51 52  1  0
 51  2  1  0
 46  8  1  0
 42 26  1  0
 42 33  1  0
M  END
>  <UniqueID>  (46) 
42

>  <SMILES>  (46) 
Fc1ccc2/c(=N/CCCN3CCN(c4ccccc4)CC3)cc[nH]c2c1

>  <Energy>  (46) 
72.03285705644949

>  <Genealogy>  (46) 
Fc1ccc2/c(=N/CCCN3CCN(c4ccccc4)CC3)cc[nH]c2c1 (cis-trans isomerization)
Fc1ccc2/c(=N/CCCN3CCN(c4ccccc4)CC3)cc[nH]c2c1 (3D coordinates assigned)
Fc1ccc2/c(=N/CCCN3CCN(c4ccccc4)CC3)cc[nH]c2c1 (nonaromatic ring conformer: 72.03285705644949 kcal/mol)

>  <smiles>  (46) 
Fc1ccc2c(=NCCCN3CCN(c4ccccc4)CC3)cc[nH]c2c1

>  <score_type>  (46) 
oracle

>  <origin>  (46) 
adg

>  <m_score__min__energy>  (46) 
-8.6699999999999999

>  <m_primary>  (46) 
energy

$$$$
46:0
     RDKit          3D

 23 23  0  0  0  0  0  0  0  0999 V2000
   58.8730   32.0320   49.0420 C   0  0  0  0  0  0  0  0  0  0  0  0
   58.1610   32.2130   47.8230 O   0  0  0  0  0  0  0  0  0  0  0  0
   58.5650   33.0990   46.8140 C   0  0  0  0  0  0  0  0  0  0  0  0
   59.2980   34.2780   47.0430 C   0  0  0  0  0  0  0  0  0  0  0  0
   59.5830   34.9890   45.8860 C   0  0  0  0  0  0  0  0  0  0  0  0
   58.9280   34.1550   44.5850 S   0  0  0  0  0  0  0  0  0  0  0  0
   58.2730   32.8790   45.4680 C   0  0  0  0  0  0  0  0  0  0  0  0
   57.5250   31.7320   44.9090 C   0  0  0  0  0  0  0  0  0  0  0  0
   56.2660   31.7720   44.8620 O   0  0  0  0  0  0  0  0  0  0  0  0
   58.2240   30.4900   44.4260 C   0  0  0  0  0  0  0  0  0  0  0  0
   57.2410   29.5060   43.7840 C   0  0  0  0  0  0  0  0  0  0  0  0
   56.3250   28.9570   44.7770 N   0  0  0  0  0  0  0  0  0  0  0  0
   55.1600   29.3980   44.8680 O   0  0  0  0  0  0  0  0  0  0  0  0
   56.7860   28.0630   45.7150 O   0  0  0  0  0  0  0  0  0  0  0  0
   58.1956   32.2042   49.8914 H   0  0  0  0  0  0  0  0  0  0  0  0
   59.2656   31.0055   49.0884 H   0  0  0  0  0  0  0  0  0  0  0  0
   59.7081   32.7464   49.0884 H   0  0  0  0  0  0  0  0  0  0  0  0
   59.6150   34.6051   48.0443 H   0  0  0  0  0  0  0  0  0  0  0  0
   60.1414   35.9351   45.8310 H   0  0  0  0  0  0  0  0  0  0  0  0
   58.9831   30.7735   43.6821 H   0  0  0  0  0  0  0  0  0  0  0  0
   58.6895   29.9970   45.2922 H   0  0  0  0  0  0  0  0  0  0  0  0
   56.6605   30.0308   43.0109 H   0  0  0  0  0  0  0  0  0  0  0  0
   57.8140   28.6780   43.3413 H   0  0  0  0  0  0  0  0  0  0  0  0
  1  2  1  0
  2  3  1  0
  3  4  1  0
  4  5  2  0
  5  6  1  0
  6  7  1  0
  7  8  1  0
  8  9  2  0
  8 10  1  0
 10 11  1  0
 11 12  1  0
 12 13  2  0
 12 14  1  0
  7  3  2  0
  1 15  1  0
  1 16  1  0
  1 17  1  0
  4 18  1  0
  5 19  1  0
 10 20  1  0
 10 21  1  0
 11 22  1  0
 11 23  1  0
M  CHG  2  12   1  14  -1
M  END
>  <UniqueID>  (47) 
43

>  <SMILES>  (47) 
COc1ccsc1C(=O)CC[N+](=O)[O-]

>  <Energy>  (47) 
41.68024658562108

>  <Genealogy>  (47) 
COc1ccsc1C(=O)CC[N+](=O)[O-] (3D coordinates assigned)
COc1ccsc1C(=O)CC[N+](=O)[O-] (optimized conformer: 41.68024658562108 kcal/mol)

>  <smiles>  (47) 
COc1ccsc1C(=O)CC[N+](=O)[O-]

>  <score_type>  (47) 
oracle

>  <origin>  (47) 
adg

>  <m_score__min__energy>  (47) 
-5.9800000000000004

>  <m_primary>  (47) 
energy

$$$$
