0:0
     RDKit          3D

 61 63  0  0  0  0  0  0  0  0999 V2000
   64.8770   29.7010   51.6440 C   0  0  0  0  0  0  0  0  0  0  0  0
   63.4010   29.3550   51.8930 C   0  0  0  0  0  0  0  0  0  0  0  0
   62.4930   30.4390   51.4780 N   0  0  0  0  0  0  0  0  0  0  0  0
   61.1540   30.3100   52.0790 C   0  0  0  0  0  0  0  0  0  0  0  0
   60.1330   31.2010   51.3660 C   0  0  0  0  0  0  0  0  0  0  0  0
   60.7240   31.7640   50.2100 O   0  0  0  0  0  0  0  0  0  0  0  0
   60.9230   33.1590   50.3790 C   0  0  0  0  0  0  0  0  0  0  0  0
   62.3720   33.5190   50.0340 C   0  0  0  0  0  0  0  0  0  0  0  0
   63.1060   32.3350   49.8150 O   0  0  0  0  0  0  0  0  0  0  0  0
   63.8590   32.4230   48.6210 C   0  0  0  0  0  0  0  0  0  0  0  0
   63.1450   31.7160   47.4650 C   0  0  0  0  0  0  0  0  0  0  0  0
   61.8470   31.1790   47.8870 N   0  0  0  0  0  0  0  0  0  0  0  0
   60.6870   31.2270   47.0350 C   0  0  0  0  0  0  0  0  0  0  0  0
   60.0070   30.0460   46.6870 C   0  0  0  0  0  0  0  0  0  0  0  0
   60.3430   28.8130   47.2780 C   0  0  0  0  0  0  0  0  0  0  0  0
   59.6800   27.6440   46.9120 C   0  0  0  0  0  0  0  0  0  0  0  0
   58.6580   27.6880   45.9710 C   0  0  0  0  0  0  0  0  0  0  0  0
   58.2920   28.9030   45.3890 C   0  0  0  0  0  0  0  0  0  0  0  0
   58.9600   30.1040   45.7320 C   0  0  0  0  0  0  0  0  0  0  0  0
   58.6090   31.3120   45.1600 N   0  0  0  0  0  0  0  0  0  0  0  0
   57.9200   31.3100   43.8520 C   0  0  0  0  0  0  0  0  0  0  0  0
   59.0550   32.4970   45.7210 C   0  0  0  0  0  0  0  0  0  0  0  0
   58.4300   33.7630   45.4710 C   0  0  0  0  0  0  0  0  0  0  0  0
   57.0200   33.9050   44.9590 C   0  0  0  0  0  0  0  0  0  0  0  0
   59.0800   34.9410   45.8640 C   0  0  0  0  0  0  0  0  0  0  0  0
   60.2510   34.8910   46.6120 C   0  0  0  0  0  0  0  0  0  0  0  0
   60.7710   33.6690   47.0170 C   0  0  0  0  0  0  0  0  0  0  0  0
   60.1790   32.4650   46.5950 C   0  0  0  0  0  0  0  0  0  0  0  0
   65.3929   29.8219   52.6080 H   0  0  0  0  0  0  0  0  0  0  0  0
   65.3524   28.8900   51.0729 H   0  0  0  0  0  0  0  0  0  0  0  0
   64.9425   30.6388   51.0729 H   0  0  0  0  0  0  0  0  0  0  0  0
   63.1502   28.4470   51.3250 H   0  0  0  0  0  0  0  0  0  0  0  0
   63.2697   29.2026   52.9744 H   0  0  0  0  0  0  0  0  0  0  0  0
   62.9160   31.3660   51.7260 H   0  0  0  0  0  0  0  0  0  0  0  0
   62.3930   30.3960   50.4360 H   0  0  0  0  0  0  0  0  0  0  0  0
   60.8279   29.2621   52.0048 H   0  0  0  0  0  0  0  0  0  0  0  0
   61.2148   30.6266   53.1307 H   0  0  0  0  0  0  0  0  0  0  0  0
   59.2602   30.5981   51.0750 H   0  0  0  0  0  0  0  0  0  0  0  0
   59.8129   32.0064   52.0434 H   0  0  0  0  0  0  0  0  0  0  0  0
   60.2412   33.7090   49.7137 H   0  0  0  0  0  0  0  0  0  0  0  0
   60.7186   33.4323   51.4247 H   0  0  0  0  0  0  0  0  0  0  0  0
   62.3906   34.1367   49.1240 H   0  0  0  0  0  0  0  0  0  0  0  0
   62.8202   34.0823   50.8657 H   0  0  0  0  0  0  0  0  0  0  0  0
   63.9993   33.4829   48.3621 H   0  0  0  0  0  0  0  0  0  0  0  0
   64.8302   31.9328   48.7837 H   0  0  0  0  0  0  0  0  0  0  0  0
   62.9863   32.4358   46.6484 H   0  0  0  0  0  0  0  0  0  0  0  0
   63.7741   30.8783   47.1297 H   0  0  0  0  0  0  0  0  0  0  0  0
   61.7340   30.8880   48.8810 H   0  0  0  0  0  0  0  0  0  0  0  0
   61.1379   28.7725   48.0372 H   0  0  0  0  0  0  0  0  0  0  0  0
   59.9656   26.6847   47.3683 H   0  0  0  0  0  0  0  0  0  0  0  0
   58.1362   26.7631   45.6841 H   0  0  0  0  0  0  0  0  0  0  0  0
   57.4738   28.9280   44.6542 H   0  0  0  0  0  0  0  0  0  0  0  0
   56.8315   31.3068   44.0109 H   0  0  0  0  0  0  0  0  0  0  0  0
   58.2053   32.2090   43.2859 H   0  0  0  0  0  0  0  0  0  0  0  0
   58.2105   30.4127   43.2859 H   0  0  0  0  0  0  0  0  0  0  0  0
   56.3263   33.9749   45.8098 H   0  0  0  0  0  0  0  0  0  0  0  0
   56.9422   34.8155   44.3467 H   0  0  0  0  0  0  0  0  0  0  0  0
   56.7622   33.0283   44.3467 H   0  0  0  0  0  0  0  0  0  0  0  0
   58.6590   35.9160   45.5774 H   0  0  0  0  0  0  0  0  0  0  0  0
   60.7675   35.8233   46.8840 H   0  0  0  0  0  0  0  0  0  0  0  0
   61.6533   33.6423   47.6734 H   0  0  0  0  0  0  0  0  0  0  0  0
  1  2  1  0
  2  3  1  0
  3  4  1  0
  4  5  1  0
  5  6  1  0
  6  7  1  0
  7  8  1  0
  8  9  1  0
  9 10  1  0
 10 11  1  0
 11 12  1  0
 12 13  1  0
 13 14  2  0
 14 15  1  0
 15 16  2  0
 16 17  1  0
 17 18  2  0
 18 19  1  0
 19 20  2  0
 20 21  1  0
 20 22  1  0
 22 23  2  0
 23 24  1  0
 23 25  1  0
 25 26  2  0
 26 27  1  0
 27 28  2  0
 28 13  1  0
 19 14  1  0
 28 22  1  0
  1 29  1  0
  1 30  1  0
  1 31  1  0
  2 32  1  0
  2 33  1  0
  3 34  1  0
  3 35  1  0
  4 36  1  0
  4 37  1  0
  5 38  1  0
  5 39  1  0
  7 40  1  0
  7 41  1  0
  8 42  1  0
  8 43  1  0
 10 44  1  0
 10 45  1  0
 11 46  1  0
 11 47  1  0
 12 48  1  0
 15 49  1  0
 16 50  1  0
 17 51  1  0
 18 52  1  0
 21 53  1  0
 21 54  1  0
 21 55  1  0
 24 56  1  0
 24 57  1  0
 24 58  1  0
 25 59  1  0
 26 60  1  0
 27 61  1  0
M  CHG  2   3   1  20   1
M  END
>  <UniqueID>  (1) 
1

>  <SMILES>  (1) 
CC[NH2+]CCOCCOCCNc1c2ccccc2[n+](C)c2c(C)cccc12

>  <Energy>  (1) 
93.28468978862314

>  <Genealogy>  (1) 
CC[NH2+]CCOCCOCCNc1c2ccccc2[n+](C)c2c(C)cccc12 (protonated)
CC[NH2+]CCOCCOCCNc1c2ccccc2[n+](C)c2c(C)cccc12 (3D coordinates assigned)
CC[NH2+]CCOCCOCCNc1c2ccccc2[n+](C)c2c(C)cccc12 (optimized conformer: 93.28468978862314 kcal/mol)

>  <smiles>  (1) 
CCNCCOCCOCCNc1c2ccccc2[n+](C)c2c(C)cccc12

>  <score_type>  (1) 
oracle

>  <origin>  (1) 
adg

>  <m_score__min__energy>  (1) 
-4.2199999999999998

>  <m_primary>  (1) 
energy

$$$$
1:0
     RDKit          3D

 41 43  0  0  0  0  0  0  0  0999 V2000
   57.7210   24.3369   43.5014 H   0  0  0  0  0  0  0  0  0  0  0  0
   57.2130   24.8600   44.3250 C   0  0  0  0  0  0  0  0  0  0  0  0
   55.9280   24.5510   44.6350 N   0  0  0  0  0  0  0  0  0  0  0  0
   55.2790   25.1860   45.6510 C   0  0  0  0  0  0  0  0  0  0  0  0
   54.0520   24.8860   45.9520 N   0  0  0  0  0  0  0  0  0  0  0  0
   53.3590   23.6960   45.4660 C   0  0  0  0  0  0  0  0  0  0  0  0
   53.1770   23.0098   46.3062 H   0  0  0  0  0  0  0  0  0  0  0  0
   53.9806   23.1953   44.7091 H   0  0  0  0  0  0  0  0  0  0  0  0
   52.0300   24.0970   44.8430 C   0  0  0  0  0  0  0  0  0  0  0  0
   51.3032   24.3163   45.6390 H   0  0  0  0  0  0  0  0  0  0  0  0
   52.1724   24.9922   44.2198 H   0  0  0  0  0  0  0  0  0  0  0  0
   51.6536   23.2724   44.2198 H   0  0  0  0  0  0  0  0  0  0  0  0
   55.9250   26.1440   46.3650 N   0  0  0  0  0  0  0  0  0  0  0  0
   57.2150   26.4940   46.0900 C   0  0  0  0  0  0  0  0  0  0  0  0
   57.9020   27.4990   46.8840 N   0  0  1  0  0  0  0  0  0  0  0  0
   57.6650   27.4550   47.9040 H   0  0  0  0  0  0  0  0  0  0  0  0
   59.3600   27.4690   46.6810 C   0  0  0  0  0  0  0  0  0  0  0  0
   59.9311   27.4077   47.6191 H   0  0  0  0  0  0  0  0  0  0  0  0
   59.8011   26.6275   46.1267 H   0  0  0  0  0  0  0  0  0  0  0  0
   59.3790   28.8520   46.0510 C   0  0  0  0  0  0  0  0  0  0  0  0
   59.9928   29.5962   46.5795 H   0  0  0  0  0  0  0  0  0  0  0  0
   59.7716   29.0396   45.0407 H   0  0  0  0  0  0  0  0  0  0  0  0
   57.8870   28.8940   46.3780 C   0  0  1  0  0  0  0  0  0  0  0  0
   57.4908   29.6764   47.0420 H   0  0  0  0  0  0  0  0  0  0  0  0
   56.9680   29.2160   45.2080 C   0  0  0  0  0  0  0  0  0  0  0  0
   55.8090   28.7210   45.1780 O   0  0  0  0  0  0  0  0  0  0  0  0
   57.3300   30.1950   44.2170 N   0  0  0  0  0  0  0  0  0  0  0  0
   58.2010   31.3320   44.4730 C   0  0  0  0  0  0  0  0  0  0  0  0
   57.9643   31.7856   45.4468 H   0  0  0  0  0  0  0  0  0  0  0  0
   59.2596   31.0348   44.5057 H   0  0  0  0  0  0  0  0  0  0  0  0
   57.9270   32.3190   43.3460 C   0  0  0  0  0  0  0  0  0  0  0  0
   57.2633   33.1243   43.6938 H   0  0  0  0  0  0  0  0  0  0  0  0
   58.8517   32.7959   42.9889 H   0  0  0  0  0  0  0  0  0  0  0  0
   57.2490   31.5080   42.2460 C   0  0  0  0  0  0  0  0  0  0  0  0
   56.4674   32.1058   41.7544 H   0  0  0  0  0  0  0  0  0  0  0  0
   57.9618   31.2059   41.4645 H   0  0  0  0  0  0  0  0  0  0  0  0
   56.6360   30.3040   42.9450 C   0  0  0  0  0  0  0  0  0  0  0  0
   55.5595   30.4613   43.1073 H   0  0  0  0  0  0  0  0  0  0  0  0
   56.7405   29.3882   42.3447 H   0  0  0  0  0  0  0  0  0  0  0  0
   57.8890   25.8400   45.0500 C   0  0  0  0  0  0  0  0  0  0  0  0
   58.9318   26.0951   44.8103 H   0  0  0  0  0  0  0  0  0  0  0  0
  1  2  1  0
  2  3  1  0
  3  4  1  0
  4  5  2  0
  5  6  1  0
  6  7  1  0
  6  8  1  0
  6  9  1  0
  9 10  1  0
  9 11  1  0
  9 12  1  0
  4 13  1  0
 13 14  2  0
 14 15  1  0
 15 16  1  1
 15 17  1  0
 17 18  1  0
 17 19  1  0
 17 20  1  0
 20 21  1  0
 20 22  1  0
 20 23  1  0
 23 24  1  1
 23 25  1  0
 25 26  2  0
 25 27  1  0
 27 28  1  0
 28 29  1  0
 28 30  1  0
 28 31  1  0
 31 32  1  0
 31 33  1  0
 31 34  1  0
 34 35  1  0
 34 36  1  0
 34 37  1  0
 37 38  1  0
 37 39  1  0
 14 40  1  0
 40 41  1  0
 40  2  2  0
 23 15  1  0
 37 27  1  0
M  CHG  2   3  -1  15   1
M  END
>  <UniqueID>  (2) 
2

>  <SMILES>  (2) 
CC/N=c1/nc([N@H+]2CC[C@H]2C(=O)N2CCCC2)cc[n-]1

>  <Energy>  (2) 
120.441078921549

>  <Genealogy>  (2) 
CCN=c1nc([NH+]2CCC2C(=O)N2CCCC2)cc[n-]1 (protonated)
CCN=c1nc([N@H+]2CC[C@H]2C(=O)N2CCCC2)cc[n-]1 (chirality)
CC/N=c1/nc([N@H+]2CC[C@H]2C(=O)N2CCCC2)cc[n-]1 (cis-trans isomerization)
CC/N=c1/nc([N@H+]2CC[C@H]2C(=O)N2CCCC2)cc[n-]1 (3D coordinates assigned)
CC/N=c1/nc([N@H+]2CC[C@H]2C(=O)N2CCCC2)cc[n-]1 (nonaromatic ring conformer: 120.441078921549 kcal/mol)

>  <smiles>  (2) 
CCN=c1nc(N2CCC2C(=O)N2CCCC2)cc[nH]1

>  <score_type>  (2) 
oracle

>  <origin>  (2) 
adg

>  <m_score__min__energy>  (2) 
-6.9400000000000004

>  <m_primary>  (2) 
energy

$$$$
2:0
     RDKit          3D

 47 50  0  0  0  0  0  0  0  0999 V2000
   56.7570   31.0150   43.6540 C   0  0  0  0  0  0  0  0  0  0  0  0
   57.5840   31.0610   44.8600 N   0  0  0  0  0  0  0  0  0  0  0  0
   58.1830   30.0390   45.5230 C   0  0  0  0  0  0  0  0  0  0  0  0
   58.1180   28.6040   45.1540 C   0  0  0  0  0  0  0  0  0  0  0  0
   57.9820   27.6190   46.1480 C   0  0  0  0  0  0  0  0  0  0  0  0
   57.9240   26.2730   45.7800 C   0  0  0  0  0  0  0  0  0  0  0  0
   58.0000   25.9160   44.4330 C   0  0  0  0  0  0  0  0  0  0  0  0
   58.1340   26.9170   43.4710 C   0  0  0  0  0  0  0  0  0  0  0  0
   58.1900   28.2220   43.8490 N   0  0  0  0  0  0  0  0  0  0  0  0
   58.8740   30.4920   46.5920 N   0  0  0  0  0  0  0  0  0  0  0  0
   58.7190   31.8050   46.6120 N   0  0  0  0  0  0  0  0  0  0  0  0
   57.9460   32.1480   45.5700 C   0  0  0  0  0  0  0  0  0  0  0  0
   57.4810   33.8420   45.1950 S   0  0  0  0  0  0  0  0  0  0  0  0
   59.2050   34.3670   44.8990 C   0  0  0  0  0  0  0  0  0  0  0  0
   59.6640   35.3610   45.9680 C   0  0  0  0  0  0  0  0  0  0  0  0
   59.8300   34.6850   47.3480 C   0  0  0  0  0  0  0  0  0  0  0  0
   60.8990   33.6680   47.3830 N   0  0  0  0  0  0  0  0  0  0  0  0
   61.9900   33.8540   46.3710 C   0  0  0  0  0  0  0  0  0  0  0  0
   63.3190   33.2200   46.8520 C   0  0  1  0  0  0  0  0  0  0  0  0
   63.6290   33.8160   48.2210 C   0  0  0  0  0  0  0  0  0  0  0  0
   62.7490   32.7130   48.8000 C   0  0  2  0  0  0  0  0  0  0  0  0
   62.9890   31.8930   47.5340 C   0  0  0  0  0  0  0  0  0  0  0  0
   61.2890   33.2280   48.7640 C   0  0  0  0  0  0  0  0  0  0  0  0
   55.6962   30.9560   43.9389 H   0  0  0  0  0  0  0  0  0  0  0  0
   56.9266   31.9240   43.0582 H   0  0  0  0  0  0  0  0  0  0  0  0
   57.0264   30.1305   43.0582 H   0  0  0  0  0  0  0  0  0  0  0  0
   57.9217   27.9065   47.2081 H   0  0  0  0  0  0  0  0  0  0  0  0
   57.8186   25.4953   46.5508 H   0  0  0  0  0  0  0  0  0  0  0  0
   57.9548   24.8585   44.1337 H   0  0  0  0  0  0  0  0  0  0  0  0
   58.1944   26.6505   42.4055 H   0  0  0  0  0  0  0  0  0  0  0  0
   59.1400   32.4450   47.3220 H   0  0  0  0  0  0  0  0  0  0  0  0
   59.8599   33.4835   44.9237 H   0  0  0  0  0  0  0  0  0  0  0  0
   59.2592   34.8579   43.9161 H   0  0  0  0  0  0  0  0  0  0  0  0
   60.6299   35.7904   45.6635 H   0  0  0  0  0  0  0  0  0  0  0  0
   58.8952   36.1423   46.0606 H   0  0  0  0  0  0  0  0  0  0  0  0
   60.0651   35.4623   48.0900 H   0  0  0  0  0  0  0  0  0  0  0  0
   58.8850   34.1674   47.5694 H   0  0  0  0  0  0  0  0  0  0  0  0
   61.6874   33.3782   45.4265 H   0  0  0  0  0  0  0  0  0  0  0  0
   62.1516   34.9328   46.2295 H   0  0  0  0  0  0  0  0  0  0  0  0
   64.0268   33.2755   46.0118 H   0  0  0  0  0  0  0  0  0  0  0  0
   64.6871   33.7667   48.5177 H   0  0  0  0  0  0  0  0  0  0  0  0
   63.4624   34.8792   48.4489 H   0  0  0  0  0  0  0  0  0  0  0  0
   62.9187   32.2911   49.8016 H   0  0  0  0  0  0  0  0  0  0  0  0
   63.8268   31.1827   47.5945 H   0  0  0  0  0  0  0  0  0  0  0  0
   62.2373   31.1971   47.1331 H   0  0  0  0  0  0  0  0  0  0  0  0
   60.6160   32.4196   49.0858 H   0  0  0  0  0  0  0  0  0  0  0  0
   61.2095   34.0929   49.4390 H   0  0  0  0  0  0  0  0  0  0  0  0
  1  2  1  0
  2  3  1  0
  3  4  1  0
  4  5  2  0
  5  6  1  0
  6  7  2  0
  7  8  1  0
  8  9  2  0
  3 10  2  0
 10 11  1  0
 11 12  2  0
 12 13  1  0
 13 14  1  0
 14 15  1  0
 15 16  1  0
 16 17  1  0
 17 18  1  0
 18 19  1  0
 19 20  1  0
 20 21  1  0
 21 22  1  0
 21 23  1  0
 12  2  1  0
 23 17  1  0
  9  4  1  0
 22 19  1  0
  1 24  1  0
  1 25  1  0
  1 26  1  0
  5 27  1  0
  6 28  1  0
  7 29  1  0
  8 30  1  0
 11 31  1  0
 14 32  1  0
 14 33  1  0
 15 34  1  0
 15 35  1  0
 16 36  1  0
 16 37  1  0
 18 38  1  0
 18 39  1  0
 19 40  1  6
 20 41  1  0
 20 42  1  0
 21 43  1  1
 22 44  1  0
 22 45  1  0
 23 46  1  0
 23 47  1  0
M  CHG  1  11   1
M  END
>  <UniqueID>  (3) 
3

>  <SMILES>  (3) 
Cn1c(-c2ccccn2)n[nH+]c1SCCCN1CC2CC(C2)C1

>  <Energy>  (3) 
174.3472266157313

>  <Genealogy>  (3) 
Cn1c(-c2ccccn2)n[nH+]c1SCCCN1CC2CC(C2)C1 (protonated)
Cn1c(-c2ccccn2)n[nH+]c1SCCCN1CC2CC(C2)C1 (3D coordinates assigned)
Cn1c(-c2ccccn2)n[nH+]c1SCCCN1CC2CC(C2)C1 (nonaromatic ring conformer: 174.3472266157313 kcal/mol)

>  <smiles>  (3) 
Cn1c(SCCCN2CC3CC(C3)C2)nnc1-c1ccccn1

>  <score_type>  (3) 
oracle

>  <origin>  (3) 
adg

>  <m_score__min__energy>  (3) 
-6.5

>  <m_primary>  (3) 
energy

$$$$
3:0
     RDKit          3D

 63 65  0  0  0  0  0  0  0  0999 V2000
   50.1150   33.5130   53.5430 C   0  0  0  0  0  0  0  0  0  0  0  0
   50.6200   32.3010   52.7680 C   0  0  0  0  0  0  0  0  0  0  0  0
   51.0180   32.6860   51.4650 O   0  0  0  0  0  0  0  0  0  0  0  0
   51.7530   31.6510   50.8450 C   0  0  0  0  0  0  0  0  0  0  0  0
   51.7730   30.4330   51.7630 C   0  0  0  0  0  0  0  0  0  0  0  0
   53.1020   30.1860   52.1740 O   0  0  0  0  0  0  0  0  0  0  0  0
   53.9730   31.2010   51.7030 C   0  0  0  0  0  0  0  0  0  0  0  0
   55.4280   30.7550   51.8620 C   0  0  0  0  0  0  0  0  0  0  0  0
   55.4970   29.7420   52.8470 O   0  0  0  0  0  0  0  0  0  0  0  0
   56.7290   29.0460   52.7760 C   0  0  0  0  0  0  0  0  0  0  0  0
   57.7510   29.6180   53.7710 C   0  0  0  0  0  0  0  0  0  0  0  0
   57.2910   30.9030   54.3200 N   0  0  0  0  0  0  0  0  0  0  0  0
   57.8010   32.0310   53.5280 C   0  0  0  0  0  0  0  0  0  0  0  0
   59.1390   31.6710   52.8870 C   0  0  0  0  0  0  0  0  0  0  0  0
   59.2040   32.1820   51.5680 O   0  0  0  0  0  0  0  0  0  0  0  0
   59.2700   32.7230   50.2890 C   0  0  0  0  0  0  0  0  0  0  0  0
   59.8000   34.0030   50.0980 C   0  0  0  0  0  0  0  0  0  0  0  0
   59.8460   34.5600   48.8140 C   0  0  0  0  0  0  0  0  0  0  0  0
   59.3510   33.8350   47.7130 C   0  0  0  0  0  0  0  0  0  0  0  0
   59.3550   34.3540   46.4090 C   0  0  0  0  0  0  0  0  0  0  0  0
   59.8300   35.4960   46.1650 O   0  0  0  0  0  0  0  0  0  0  0  0
   58.8260   33.5900   45.3670 C   0  0  0  0  0  0  0  0  0  0  0  0
   58.2930   32.3160   45.6430 C   0  0  0  0  0  0  0  0  0  0  0  0
   57.7060   31.4600   44.5810 C   0  0  0  0  0  0  0  0  0  0  0  0
   57.1840   30.1960   44.9240 C   0  0  0  0  0  0  0  0  0  0  0  0
   56.6070   29.3770   43.9480 C   0  0  0  0  0  0  0  0  0  0  0  0
   56.5330   29.8100   42.6220 C   0  0  0  0  0  0  0  0  0  0  0  0
   57.0260   31.0680   42.2720 C   0  0  0  0  0  0  0  0  0  0  0  0
   57.6110   31.8920   43.2410 C   0  0  0  0  0  0  0  0  0  0  0  0
   58.3230   31.8520   46.8920 O   0  0  0  0  0  0  0  0  0  0  0  0
   58.8160   32.5420   47.9150 C   0  0  0  0  0  0  0  0  0  0  0  0
   58.7910   31.9900   49.2010 C   0  0  0  0  0  0  0  0  0  0  0  0
   50.1963   33.3179   54.6225 H   0  0  0  0  0  0  0  0  0  0  0  0
   50.7212   34.3932   53.2828 H   0  0  0  0  0  0  0  0  0  0  0  0
   49.0631   33.7023   53.2828 H   0  0  0  0  0  0  0  0  0  0  0  0
   51.4801   31.8641   53.2966 H   0  0  0  0  0  0  0  0  0  0  0  0
   49.8104   31.5601   52.6922 H   0  0  0  0  0  0  0  0  0  0  0  0
   51.2785   31.3840   49.8892 H   0  0  0  0  0  0  0  0  0  0  0  0
   52.7825   31.9896   50.6565 H   0  0  0  0  0  0  0  0  0  0  0  0
   51.1445   30.6260   52.6449 H   0  0  0  0  0  0  0  0  0  0  0  0
   51.3825   29.5567   51.2248 H   0  0  0  0  0  0  0  0  0  0  0  0
   53.7653   31.3954   50.6404 H   0  0  0  0  0  0  0  0  0  0  0  0
   53.8097   32.1180   52.2881 H   0  0  0  0  0  0  0  0  0  0  0  0
   55.7998   30.3629   50.9039 H   0  0  0  0  0  0  0  0  0  0  0  0
   56.0467   31.6116   52.1676 H   0  0  0  0  0  0  0  0  0  0  0  0
   56.5555   27.9854   53.0104 H   0  0  0  0  0  0  0  0  0  0  0  0
   57.1335   29.1585   51.7593 H   0  0  0  0  0  0  0  0  0  0  0  0
   57.8888   28.9033   54.5957 H   0  0  0  0  0  0  0  0  0  0  0  0
   58.7007   29.7834   53.2412 H   0  0  0  0  0  0  0  0  0  0  0  0
   56.2470   30.9190   54.2600 H   0  0  0  0  0  0  0  0  0  0  0  0
   57.0755   32.2765   52.7384 H   0  0  0  0  0  0  0  0  0  0  0  0
   57.9453   32.8961   54.1919 H   0  0  0  0  0  0  0  0  0  0  0  0
   59.9556   32.1027   53.4843 H   0  0  0  0  0  0  0  0  0  0  0  0
   59.2366   30.5759   52.8523 H   0  0  0  0  0  0  0  0  0  0  0  0
   60.1814   34.5733   50.9578 H   0  0  0  0  0  0  0  0  0  0  0  0
   60.2691   35.5645   48.6654 H   0  0  0  0  0  0  0  0  0  0  0  0
   58.8255   33.9801   44.3385 H   0  0  0  0  0  0  0  0  0  0  0  0
   57.2309   29.8512   45.9675 H   0  0  0  0  0  0  0  0  0  0  0  0
   56.2104   28.3892   44.2254 H   0  0  0  0  0  0  0  0  0  0  0  0
   56.0868   29.1604   41.8546 H   0  0  0  0  0  0  0  0  0  0  0  0
   56.9546   31.4136   41.2301 H   0  0  0  0  0  0  0  0  0  0  0  0
   57.9986   32.8813   42.9563 H   0  0  0  0  0  0  0  0  0  0  0  0
   58.3930   30.9762   49.3551 H   0  0  0  0  0  0  0  0  0  0  0  0
  1  2  1  0
  2  3  1  0
  3  4  1  0
  4  5  1  0
  5  6  1  0
  6  7  1  0
  7  8  1  0
  8  9  1  0
  9 10  1  0
 10 11  1  0
 11 12  1  0
 12 13  1  0
 13 14  1  0
 14 15  1  0
 15 16  1  0
 16 17  2  0
 17 18  1  0
 18 19  2  0
 19 20  1  0
 20 21  2  0
 20 22  1  0
 22 23  2  0
 23 24  1  0
 24 25  2  0
 25 26  1  0
 26 27  2  0
 27 28  1  0
 28 29  2  0
 23 30  1  0
 30 31  1  0
 31 32  2  0
 32 16  1  0
 31 19  1  0
 29 24  1  0
  1 33  1  0
  1 34  1  0
  1 35  1  0
  2 36  1  0
  2 37  1  0
  4 38  1  0
  4 39  1  0
  5 40  1  0
  5 41  1  0
  7 42  1  0
  7 43  1  0
  8 44  1  0
  8 45  1  0
 10 46  1  0
 10 47  1  0
 11 48  1  0
 11 49  1  0
 12 50  1  0
 13 51  1  0
 13 52  1  0
 14 53  1  0
 14 54  1  0
 17 55  1  0
 18 56  1  0
 22 57  1  0
 25 58  1  0
 26 59  1  0
 27 60  1  0
 28 61  1  0
 29 62  1  0
 32 63  1  0
M  END
>  <UniqueID>  (4) 
4

>  <SMILES>  (4) 
CCOCCOCCOCCNCCOc1ccc2c(=O)cc(-c3ccccc3)oc2c1

>  <Energy>  (4) 
124.9845193280325

>  <Genealogy>  (4) 
CCOCCOCCOCCNCCOc1ccc2c(=O)cc(-c3ccccc3)oc2c1 (3D coordinates assigned)
CCOCCOCCOCCNCCOc1ccc2c(=O)cc(-c3ccccc3)oc2c1 (optimized conformer: 124.9845193280325 kcal/mol)

>  <smiles>  (4) 
CCOCCOCCOCCNCCOc1ccc2c(=O)cc(-c3ccccc3)oc2c1

>  <score_type>  (4) 
oracle

>  <origin>  (4) 
adg

>  <m_score__min__energy>  (4) 
-6.9299999999999997

>  <m_primary>  (4) 
energy

$$$$
4:0
     RDKit          3D

 41 41  0  0  0  0  0  0  0  0999 V2000
   59.4220   27.5530   45.6570 C   0  0  0  0  0  0  0  0  0  0  0  0
   58.2290   27.3820   44.7240 C   0  0  0  0  0  0  0  0  0  0  0  0
   57.8790   28.6530   44.0970 N   0  0  0  0  0  0  0  0  0  0  0  0
   56.6280   29.3150   44.3380 C   0  0  0  0  0  0  0  0  0  0  0  0
   55.8480   28.8880   45.2340 O   0  0  0  0  0  0  0  0  0  0  0  0
   56.2340   30.5220   43.5290 C   0  0  0  0  0  0  0  0  0  0  0  0
   57.3090   30.9560   42.6190 N   0  0  0  0  0  0  0  0  0  0  0  0
   57.7400   32.3470   42.8360 C   0  0  0  0  0  0  0  0  0  0  0  0
   58.1300   32.6140   44.2710 C   0  0  0  0  0  0  0  0  0  0  0  0
   57.8480   33.8510   44.8630 C   0  0  0  0  0  0  0  0  0  0  0  0
   58.1440   34.0760   46.2100 C   0  0  0  0  0  0  0  0  0  0  0  0
   58.7360   33.0670   46.9980 C   0  0  0  0  0  0  0  0  0  0  0  0
   58.9980   33.2740   48.4110 N   0  0  0  0  0  0  0  0  0  0  0  0
   58.4950   32.3140   49.4020 C   0  0  0  0  0  0  0  0  0  0  0  0
   59.7020   34.4690   48.9000 C   0  0  0  0  0  0  0  0  0  0  0  0
   61.2080   34.2270   48.9580 C   0  0  0  0  0  0  0  0  0  0  0  0
   59.0450   31.8360   46.3820 C   0  0  0  0  0  0  0  0  0  0  0  0
   58.7490   31.6150   45.0350 C   0  0  0  0  0  0  0  0  0  0  0  0
   59.0806   27.5041   46.7015 H   0  0  0  0  0  0  0  0  0  0  0  0
   60.1507   26.7501   45.4714 H   0  0  0  0  0  0  0  0  0  0  0  0
   59.8958   28.5282   45.4714 H   0  0  0  0  0  0  0  0  0  0  0  0
   58.4837   26.6515   43.9420 H   0  0  0  0  0  0  0  0  0  0  0  0
   57.3686   27.0279   45.3108 H   0  0  0  0  0  0  0  0  0  0  0  0
   58.5230   29.0380   43.3690 H   0  0  0  0  0  0  0  0  0  0  0  0
   55.3435   30.2738   42.9328 H   0  0  0  0  0  0  0  0  0  0  0  0
   56.0298   31.3460   44.2285 H   0  0  0  0  0  0  0  0  0  0  0  0
   58.1280   30.3060   42.6600 H   0  0  0  0  0  0  0  0  0  0  0  0
   58.6067   32.5526   42.1906 H   0  0  0  0  0  0  0  0  0  0  0  0
   56.8906   33.0022   42.5927 H   0  0  0  0  0  0  0  0  0  0  0  0
   57.3901   34.6516   44.2634 H   0  0  0  0  0  0  0  0  0  0  0  0
   57.9125   35.0520   46.6614 H   0  0  0  0  0  0  0  0  0  0  0  0
   58.6942   32.6942   50.4148 H   0  0  0  0  0  0  0  0  0  0  0  0
   57.4115   32.1812   49.2667 H   0  0  0  0  0  0  0  0  0  0  0  0
   59.0026   31.3475   49.2667 H   0  0  0  0  0  0  0  0  0  0  0  0
   59.4981   35.3103   48.2213 H   0  0  0  0  0  0  0  0  0  0  0  0
   59.3431   34.6985   49.9142 H   0  0  0  0  0  0  0  0  0  0  0  0
   61.5309   34.1751   50.0083 H   0  0  0  0  0  0  0  0  0  0  0  0
   61.4467   33.2790   48.4538 H   0  0  0  0  0  0  0  0  0  0  0  0
   61.7317   35.0525   48.4538 H   0  0  0  0  0  0  0  0  0  0  0  0
   59.5252   31.0400   46.9701 H   0  0  0  0  0  0  0  0  0  0  0  0
   59.0033   30.6508   44.5707 H   0  0  0  0  0  0  0  0  0  0  0  0
  1  2  1  0
  2  3  1  0
  3  4  1  0
  4  5  2  0
  4  6  1  0
  6  7  1  0
  7  8  1  0
  8  9  1  0
  9 10  2  0
 10 11  1  0
 11 12  2  0
 12 13  1  0
 13 14  1  0
 13 15  1  0
 15 16  1  0
 12 17  1  0
 17 18  2  0
 18  9  1  0
  1 19  1  0
  1 20  1  0
  1 21  1  0
  2 22  1  0
  2 23  1  0
  3 24  1  0
  6 25  1  0
  6 26  1  0
  7 27  1  0
  8 28  1  0
  8 29  1  0
 10 30  1  0
 11 31  1  0
 14 32  1  0
 14 33  1  0
 14 34  1  0
 15 35  1  0
 15 36  1  0
 16 37  1  0
 16 38  1  0
 16 39  1  0
 17 40  1  0
 18 41  1  0
M  END
>  <UniqueID>  (5) 
5

>  <SMILES>  (5) 
CCNC(=O)CNCc1ccc(N(C)CC)cc1

>  <Energy>  (5) 
31.035505126312607

>  <Genealogy>  (5) 
CCNC(=O)CNCc1ccc(N(C)CC)cc1 (3D coordinates assigned)
CCNC(=O)CNCc1ccc(N(C)CC)cc1 (optimized conformer: 31.035505126312607 kcal/mol)

>  <smiles>  (5) 
CCNC(=O)CNCc1ccc(N(C)CC)cc1

>  <score_type>  (5) 
oracle

>  <origin>  (5) 
adg

>  <m_score__min__energy>  (5) 
-6.3200000000000003

>  <m_primary>  (5) 
energy

$$$$
5:0
     RDKit          3D

 46 48  0  0  0  0  0  0  0  0999 V2000
   66.4950   32.6740   50.1170 C   0  0  0  0  0  0  0  0  0  0  0  0
   65.2430   32.1130   50.7820 C   0  0  0  0  0  0  0  0  0  0  0  0
   64.0980   32.1850   49.8650 N   0  0  0  0  0  0  0  0  0  0  0  0
   63.0270   31.3550   50.0480 C   0  0  0  0  0  0  0  0  0  0  0  0
   61.9430   31.3910   49.1690 C   0  0  0  0  0  0  0  0  0  0  0  0
   61.9630   32.2630   48.0760 C   0  0  0  0  0  0  0  0  0  0  0  0
   60.8320   32.3140   47.1890 N   0  0  0  0  0  0  0  0  0  0  0  0
   60.0760   31.1660   46.7670 C   0  0  0  0  0  0  0  0  0  0  0  0
   60.7480   30.0500   46.2510 C   0  0  0  0  0  0  0  0  0  0  0  0
   60.0340   28.9320   45.8110 C   0  0  0  0  0  0  0  0  0  0  0  0
   58.6290   28.9190   45.8580 C   0  0  0  0  0  0  0  0  0  0  0  0
   57.8610   27.7360   45.4000 C   0  0  0  0  0  0  0  0  0  0  0  0
   57.0190   27.8650   44.4690 O   0  0  0  0  0  0  0  0  0  0  0  0
   58.0750   26.4410   45.9870 N   0  0  0  0  0  0  0  0  0  0  0  0
   57.2270   25.3200   45.6990 C   0  0  0  0  0  0  0  0  0  0  0  0
   57.8190   24.0850   45.3980 C   0  0  0  0  0  0  0  0  0  0  0  0
   57.0300   22.9790   45.0770 C   0  0  0  0  0  0  0  0  0  0  0  0
   55.6390   23.0940   45.0630 C   0  0  0  0  0  0  0  0  0  0  0  0
   55.0350   24.3120   45.3870 C   0  0  0  0  0  0  0  0  0  0  0  0
   55.8160   25.4280   45.7220 C   0  0  0  0  0  0  0  0  0  0  0  0
   55.1660   26.6380   46.1310 N   0  0  0  0  0  0  0  0  0  0  0  0
   57.9560   30.0450   46.3630 C   0  0  0  0  0  0  0  0  0  0  0  0
   58.6720   31.1620   46.8030 C   0  0  0  0  0  0  0  0  0  0  0  0
   63.0640   33.1140   47.9090 C   0  0  0  0  0  0  0  0  0  0  0  0
   64.1300   33.0510   48.8080 C   0  0  0  0  0  0  0  0  0  0  0  0
   67.2089   32.9939   50.8903 H   0  0  0  0  0  0  0  0  0  0  0  0
   66.9570   31.8968   49.4904 H   0  0  0  0  0  0  0  0  0  0  0  0
   66.2224   33.5361   49.4904 H   0  0  0  0  0  0  0  0  0  0  0  0
   65.4196   31.0632   51.0590 H   0  0  0  0  0  0  0  0  0  0  0  0
   65.0188   32.7090   51.6789 H   0  0  0  0  0  0  0  0  0  0  0  0
   63.0194   30.6530   50.8949 H   0  0  0  0  0  0  0  0  0  0  0  0
   61.0757   30.7353   49.3357 H   0  0  0  0  0  0  0  0  0  0  0  0
   60.5410   33.2500   46.8240 H   0  0  0  0  0  0  0  0  0  0  0  0
   61.8464   30.0538   46.1917 H   0  0  0  0  0  0  0  0  0  0  0  0
   60.5754   28.0557   45.4250 H   0  0  0  0  0  0  0  0  0  0  0  0
   59.0010   26.2460   46.4320 H   0  0  0  0  0  0  0  0  0  0  0  0
   58.9145   23.9868   45.4150 H   0  0  0  0  0  0  0  0  0  0  0  0
   57.5046   22.0166   44.8350 H   0  0  0  0  0  0  0  0  0  0  0  0
   55.0181   22.2259   44.7969 H   0  0  0  0  0  0  0  0  0  0  0  0
   53.9383   24.3962   45.3792 H   0  0  0  0  0  0  0  0  0  0  0  0
   55.1420   27.4820   45.5190 H   0  0  0  0  0  0  0  0  0  0  0  0
   54.7680   26.7270   47.0930 H   0  0  0  0  0  0  0  0  0  0  0  0
   56.8571   30.0472   46.4123 H   0  0  0  0  0  0  0  0  0  0  0  0
   58.1324   32.0434   47.1798 H   0  0  0  0  0  0  0  0  0  0  0  0
   63.0880   33.8285   47.0730 H   0  0  0  0  0  0  0  0  0  0  0  0
   65.0035   33.7040   48.6645 H   0  0  0  0  0  0  0  0  0  0  0  0
  1  2  1  0
  2  3  1  0
  3  4  2  0
  4  5  1  0
  5  6  2  0
  6  7  1  0
  7  8  1  0
  8  9  2  0
  9 10  1  0
 10 11  2  0
 11 12  1  0
 12 13  2  0
 12 14  1  0
 14 15  1  0
 15 16  2  0
 16 17  1  0
 17 18  2  0
 18 19  1  0
 19 20  2  0
 20 21  1  0
 11 22  1  0
 22 23  2  0
  6 24  1  0
 24 25  2  0
 25  3  1  0
 23  8  1  0
 20 15  1  0
  1 26  1  0
  1 27  1  0
  1 28  1  0
  2 29  1  0
  2 30  1  0
  4 31  1  0
  5 32  1  0
  7 33  1  0
  9 34  1  0
 10 35  1  0
 14 36  1  0
 16 37  1  0
 17 38  1  0
 18 39  1  0
 19 40  1  0
 21 41  1  0
 21 42  1  0
 22 43  1  0
 23 44  1  0
 24 45  1  0
 25 46  1  0
M  CHG  1   3   1
M  END
>  <UniqueID>  (6) 
6

>  <SMILES>  (6) 
CC[n+]1ccc(Nc2ccc(C(=O)Nc3ccccc3N)cc2)cc1

>  <Energy>  (6) 
59.075747525954704

>  <Genealogy>  (6) 
CC[n+]1ccc(Nc2ccc(C(=O)Nc3ccccc3N)cc2)cc1 (3D coordinates assigned)
CC[n+]1ccc(Nc2ccc(C(=O)Nc3ccccc3N)cc2)cc1 (optimized conformer: 59.075747525954704 kcal/mol)

>  <smiles>  (6) 
CC[n+]1ccc(Nc2ccc(C(=O)Nc3ccccc3N)cc2)cc1

>  <score_type>  (6) 
oracle

>  <origin>  (6) 
adg

>  <m_score__min__energy>  (6) 
-5.9100000000000001

>  <m_primary>  (6) 
energy

$$$$
6:0
     RDKit          3D

 56 58  0  0  0  0  0  0  0  0999 V2000
   63.0590   31.3060   50.6270 C   0  0  0  0  0  0  0  0  0  0  0  0
   63.0620   31.5630   49.1190 C   0  0  0  0  0  0  0  0  0  0  0  0
   63.8480   32.8320   48.7350 C   0  0  0  0  0  0  0  0  0  0  0  0
   64.1300   32.9190   47.2860 N   0  0  0  0  0  0  0  0  0  0  0  0
   63.1420   33.7420   46.5540 C   0  0  0  0  0  0  0  0  0  0  0  0
   61.7570   33.7710   47.2340 C   0  0  0  0  0  0  0  0  0  0  0  0
   60.6900   34.4820   46.3810 C   0  0  0  0  0  0  0  0  0  0  0  0
   59.4180   34.7740   47.1860 C   0  0  0  0  0  0  0  0  0  0  0  0
   58.3250   33.8860   46.7840 N   0  0  0  0  0  0  0  0  0  0  0  0
   58.4710   32.4560   46.7600 C   0  0  0  0  0  0  0  0  0  0  0  0
   58.1770   31.7180   45.5880 C   0  0  0  0  0  0  0  0  0  0  0  0
   58.4200   30.3190   45.5790 C   0  0  0  0  0  0  0  0  0  0  0  0
   59.0160   29.7070   46.6670 N   0  0  0  0  0  0  0  0  0  0  0  0
   59.5140   28.3190   46.5540 C   0  0  0  0  0  0  0  0  0  0  0  0
   59.1340   30.3820   47.8650 C   0  0  0  0  0  0  0  0  0  0  0  0
   59.4960   29.7140   49.0640 C   0  0  0  0  0  0  0  0  0  0  0  0
   59.6230   30.4100   50.2660 C   0  0  0  0  0  0  0  0  0  0  0  0
   59.3770   31.7760   50.3110 C   0  0  0  0  0  0  0  0  0  0  0  0
   58.9940   32.4550   49.1560 C   0  0  0  0  0  0  0  0  0  0  0  0
   58.8740   31.7750   47.9240 C   0  0  0  0  0  0  0  0  0  0  0  0
   58.0810   29.5090   44.3300 C   0  0  0  0  0  0  0  0  0  0  0  0
   56.9990   30.1580   43.4700 C   0  0  0  0  0  0  0  0  0  0  0  0
   57.4010   31.5790   43.1090 C   0  0  0  0  0  0  0  0  0  0  0  0
   57.6330   32.3740   44.3540 C   0  0  0  0  0  0  0  0  0  0  0  0
   57.3880   33.6080   44.3150 O   0  0  0  0  0  0  0  0  0  0  0  0
   63.0702   32.2667   51.1627 H   0  0  0  0  0  0  0  0  0  0  0  0
   62.1542   30.7438   50.9013 H   0  0  0  0  0  0  0  0  0  0  0  0
   63.9504   30.7228   50.9013 H   0  0  0  0  0  0  0  0  0  0  0  0
   63.5202   30.6990   48.6154 H   0  0  0  0  0  0  0  0  0  0  0  0
   62.0183   31.7099   48.8042 H   0  0  0  0  0  0  0  0  0  0  0  0
   63.2590   33.7125   49.0312 H   0  0  0  0  0  0  0  0  0  0  0  0
   64.8153   32.7913   49.2572 H   0  0  0  0  0  0  0  0  0  0  0  0
   65.0900   33.3090   47.1540 H   0  0  0  0  0  0  0  0  0  0  0  0
   64.1410   31.9620   46.8660 H   0  0  0  0  0  0  0  0  0  0  0  0
   63.5226   34.7721   46.4905 H   0  0  0  0  0  0  0  0  0  0  0  0
   63.0103   33.2900   45.5598 H   0  0  0  0  0  0  0  0  0  0  0  0
   61.4314   32.7357   47.4134 H   0  0  0  0  0  0  0  0  0  0  0  0
   61.8602   34.3339   48.1734 H   0  0  0  0  0  0  0  0  0  0  0  0
   61.1040   35.4322   46.0126 H   0  0  0  0  0  0  0  0  0  0  0  0
   60.4212   33.8175   45.5467 H   0  0  0  0  0  0  0  0  0  0  0  0
   59.6274   34.6248   48.2555 H   0  0  0  0  0  0  0  0  0  0  0  0
   59.1131   35.8132   46.9934 H   0  0  0  0  0  0  0  0  0  0  0  0
   57.4260   34.3120   46.4660 H   0  0  0  0  0  0  0  0  0  0  0  0
   59.6642   27.9003   47.5600 H   0  0  0  0  0  0  0  0  0  0  0  0
   58.7787   27.7089   46.0090 H   0  0  0  0  0  0  0  0  0  0  0  0
   60.4695   28.3155   46.0090 H   0  0  0  0  0  0  0  0  0  0  0  0
   59.6794   28.6296   49.0449 H   0  0  0  0  0  0  0  0  0  0  0  0
   59.9188   29.8755   51.1808 H   0  0  0  0  0  0  0  0  0  0  0  0
   59.4846   32.3226   51.2595 H   0  0  0  0  0  0  0  0  0  0  0  0
   58.7826   33.5334   49.2044 H   0  0  0  0  0  0  0  0  0  0  0  0
   58.9927   29.4024   43.7239 H   0  0  0  0  0  0  0  0  0  0  0  0
   57.6931   28.5359   44.6657 H   0  0  0  0  0  0  0  0  0  0  0  0
   56.8666   29.5721   42.5485 H   0  0  0  0  0  0  0  0  0  0  0  0
   56.0562   30.1834   44.0361 H   0  0  0  0  0  0  0  0  0  0  0  0
   58.3254   31.5564   42.5131 H   0  0  0  0  0  0  0  0  0  0  0  0
   56.5941   32.0466   42.5258 H   0  0  0  0  0  0  0  0  0  0  0  0
  1  2  1  0
  2  3  1  0
  3  4  1  0
  4  5  1  0
  5  6  1  0
  6  7  1  0
  7  8  1  0
  8  9  1  0
  9 10  1  0
 10 11  2  0
 11 12  1  0
 12 13  2  0
 13 14  1  0
 13 15  1  0
 15 16  2  0
 16 17  1  0
 17 18  2  0
 18 19  1  0
 19 20  2  0
 12 21  1  0
 21 22  1  0
 22 23  1  0
 23 24  1  0
 24 25  2  0
 20 10  1  0
 24 11  1  0
 20 15  1  0
  1 26  1  0
  1 27  1  0
  1 28  1  0
  2 29  1  0
  2 30  1  0
  3 31  1  0
  3 32  1  0
  4 33  1  0
  4 34  1  0
  5 35  1  0
  5 36  1  0
  6 37  1  0
  6 38  1  0
  7 39  1  0
  7 40  1  0
  8 41  1  0
  8 42  1  0
  9 43  1  0
 14 44  1  0
 14 45  1  0
 14 46  1  0
 16 47  1  0
 17 48  1  0
 18 49  1  0
 19 50  1  0
 21 51  1  0
 21 52  1  0
 22 53  1  0
 22 54  1  0
 23 55  1  0
 23 56  1  0
M  CHG  2   4   1  13   1
M  END
>  <UniqueID>  (7) 
7

>  <SMILES>  (7) 
CCC[NH2+]CCCCNc1c2c([n+](C)c3ccccc13)CCCC2=O

>  <Energy>  (7) 
74.20442584564087

>  <Genealogy>  (7) 
CCC[NH2+]CCCCNc1c2c([n+](C)c3ccccc13)CCCC2=O (protonated)
CCC[NH2+]CCCCNc1c2c([n+](C)c3ccccc13)CCCC2=O (3D coordinates assigned)
CCC[NH2+]CCCCNc1c2c([n+](C)c3ccccc13)CCCC2=O (nonaromatic ring conformer: 74.20442584564087 kcal/mol)

>  <smiles>  (7) 
CCCNCCCCNc1c2c([n+](C)c3ccccc13)CCCC2=O

>  <score_type>  (7) 
oracle

>  <origin>  (7) 
adg

>  <m_score__min__energy>  (7) 
-4.8700000000000001

>  <m_primary>  (7) 
energy

$$$$
7:0
     RDKit          2D

 43 45  0  0  0  0  0  0  0  0999 V2000
    3.7500   -6.4952    0.0000 C   0  0  0  0  0  0  0  0  0  0  0  0
    4.5000   -5.1962    0.0000 C   0  0  0  0  0  0  0  0  0  0  0  0
    5.2500   -3.8971    0.0000 N   0  0  0  0  0  0  0  0  0  0  0  0
    4.5000   -2.5981    0.0000 C   0  0  0  0  0  0  0  0  0  0  0  0
    3.7500   -1.2990    0.0000 C   0  0  0  0  0  0  0  0  0  0  0  0
    3.0000    0.0000    0.0000 N   0  0  0  0  0  0  0  0  0  0  0  0
    1.5000    0.0000    0.0000 C   0  0  0  0  0  0  0  0  0  0  0  0
    0.7500   -1.2990    0.0000 C   0  0  0  0  0  0  0  0  0  0  0  0
   -0.7500   -1.2990    0.0000 C   0  0  0  0  0  0  0  0  0  0  0  0
   -1.5000   -2.5981    0.0000 C   0  0  0  0  0  0  0  0  0  0  0  0
   -3.0000   -2.5981    0.0000 C   0  0  0  0  0  0  0  0  0  0  0  0
   -3.7500   -1.2990    0.0000 C   0  0  0  0  0  0  0  0  0  0  0  0
   -3.0000    0.0000    0.0000 C   0  0  0  0  0  0  0  0  0  0  0  0
   -1.5000    0.0000    0.0000 C   0  0  0  0  0  0  0  0  0  0  0  0
   -0.7500    1.2990    0.0000 N   0  0  0  0  0  0  0  0  0  0  0  0
   -1.5000    2.5981    0.0000 C   0  0  0  0  0  0  0  0  0  0  0  0
    0.7500    1.2990    0.0000 C   0  0  0  0  0  0  0  0  0  0  0  0
    2.2124    1.6328    0.0000 C   0  0  0  0  0  0  0  0  0  0  0  0
    3.3851    0.6976    0.0000 C   0  0  0  0  0  0  0  0  0  0  0  0
    3.3851   -0.8024    0.0000 C   0  0  0  0  0  0  0  0  0  0  0  0
    2.2124   -1.7376    0.0000 C   0  0  0  0  0  0  0  0  0  0  0  0
    3.0000   -7.7942    0.0000 H   0  0  0  0  0  0  0  0  0  0  0  0
    2.4510   -5.7452    0.0000 H   0  0  0  0  0  0  0  0  0  0  0  0
    5.0490   -7.2452    0.0000 H   0  0  0  0  0  0  0  0  0  0  0  0
    3.2010   -4.4462    0.0000 H   0  0  0  0  0  0  0  0  0  0  0  0
    5.7990   -5.9462    0.0000 H   0  0  0  0  0  0  0  0  0  0  0  0
    6.7500   -3.8971    0.0000 H   0  0  0  0  0  0  0  0  0  0  0  0
    5.7990   -1.8481    0.0000 H   0  0  0  0  0  0  0  0  0  0  0  0
    3.3021   -3.5008    0.0000 H   0  0  0  0  0  0  0  0  0  0  0  0
    2.6710   -2.3411    0.0000 H   0  0  0  0  0  0  0  0  0  0  0  0
    5.0490   -0.5490    0.0000 H   0  0  0  0  0  0  0  0  0  0  0  0
    4.0420    1.0790    0.0000 H   0  0  0  0  0  0  0  0  0  0  0  0
   -0.7500   -3.8971    0.0000 H   0  0  0  0  0  0  0  0  0  0  0  0
   -3.7500   -3.8971    0.0000 H   0  0  0  0  0  0  0  0  0  0  0  0
   -5.2500   -1.2990    0.0000 H   0  0  0  0  0  0  0  0  0  0  0  0
   -3.7500    1.2990    0.0000 H   0  0  0  0  0  0  0  0  0  0  0  0
   -2.2500    3.8971    0.0000 H   0  0  0  0  0  0  0  0  0  0  0  0
   -0.2010    3.3481    0.0000 H   0  0  0  0  0  0  0  0  0  0  0  0
   -2.7990    1.8481    0.0000 H   0  0  0  0  0  0  0  0  0  0  0  0
    2.5462    3.0952    0.0000 H   0  0  0  0  0  0  0  0  0  0  0  0
    4.7366    1.3484    0.0000 H   0  0  0  0  0  0  0  0  0  0  0  0
    4.7366   -1.4532    0.0000 H   0  0  0  0  0  0  0  0  0  0  0  0
    2.3654   -3.2298    0.0000 H   0  0  0  0  0  0  0  0  0  0  0  0
  1  2  1  0
  2  3  1  0
  3  4  1  0
  4  5  1  0
  5  6  1  0
  6  7  1  0
  7  8  2  0
  8  9  1  0
  9 10  2  0
 10 11  1  0
 11 12  2  0
 12 13  1  0
 13 14  2  0
 14 15  1  0
 15 16  1  0
 15 17  2  0
 17 18  1  0
 18 19  2  0
 19 20  1  0
 20 21  2  0
 17  7  1  0
 21  8  1  0
 14  9  1  0
  1 22  1  0
  1 23  1  0
  1 24  1  0
  2 25  1  0
  2 26  1  0
  3 27  1  0
  4 28  1  0
  4 29  1  0
  5 30  1  0
  5 31  1  0
  6 32  1  0
 10 33  1  0
 11 34  1  0
 12 35  1  0
 13 36  1  0
 16 37  1  0
 16 38  1  0
 16 39  1  0
 18 40  1  0
 19 41  1  0
 20 42  1  0
 21 43  1  0
M  CHG  1  15   1
M  END
>  <smiles>  (8) 
CCNCCNc1c2c3ccccc3[n+](C)c1C=CC=C2

>  <m_score__min__energy>  (8) 
nan

>  <m_primary>  (8) 
energy

$$$$
8:0
     RDKit          3D

 51 53  0  0  0  0  0  0  0  0999 V2000
   60.4000   26.3270   46.4570 C   0  0  0  0  0  0  0  0  0  0  0  0
   59.3470   26.0150   47.5140 C   0  0  0  0  0  0  0  0  0  0  0  0
   58.1900   26.8330   47.3340 O   0  0  0  0  0  0  0  0  0  0  0  0
   58.1280   28.0210   46.5850 C   0  0  0  0  0  0  0  0  0  0  0  0
   58.6140   29.2450   47.0710 C   0  0  0  0  0  0  0  0  0  0  0  0
   58.5330   30.4170   46.2970 C   0  0  0  0  0  0  0  0  0  0  0  0
   59.0350   31.6360   46.7860 C   0  0  0  0  0  0  0  0  0  0  0  0
   59.5670   31.6960   47.9290 O   0  0  0  0  0  0  0  0  0  0  0  0
   58.9550   32.7860   45.9980 C   0  0  0  0  0  0  0  0  0  0  0  0
   59.6160   34.3220   46.5700 S   0  0  0  0  0  0  0  0  0  0  0  0
   59.9010   35.2400   45.4130 O   0  0  0  0  0  0  0  0  0  0  0  0
   58.6150   34.9960   47.4660 O   0  0  0  0  0  0  0  0  0  0  0  0
   61.1130   34.0090   47.4400 C   0  0  0  0  0  0  0  0  0  0  0  0
   62.2320   33.5300   46.7470 C   0  0  0  0  0  0  0  0  0  0  0  0
   63.4210   33.2580   47.4330 C   0  0  0  0  0  0  0  0  0  0  0  0
   63.4950   33.4610   48.8140 C   0  0  0  0  0  0  0  0  0  0  0  0
   65.1170   33.0880   49.7500 Br  0  0  0  0  0  0  0  0  0  0  0  0
   62.3770   33.9330   49.5120 C   0  0  0  0  0  0  0  0  0  0  0  0
   61.1870   34.2050   48.8270 C   0  0  0  0  0  0  0  0  0  0  0  0
   58.3760   32.7060   44.7310 C   0  0  0  0  0  0  0  0  0  0  0  0
   57.8620   31.5320   44.2520 N   0  0  0  0  0  0  0  0  0  0  0  0
   57.2580   31.5690   42.9030 C   0  0  0  0  0  0  0  0  0  0  0  0
   58.1410   32.3530   41.9360 C   0  0  0  0  0  0  0  0  0  0  0  0
   57.9500   30.3730   45.0030 C   0  0  0  0  0  0  0  0  0  0  0  0
   57.4850   29.1260   44.5220 C   0  0  0  0  0  0  0  0  0  0  0  0
   57.5650   27.9610   45.3060 C   0  0  0  0  0  0  0  0  0  0  0  0
   57.1050   26.7120   44.8520 O   0  0  0  0  0  0  0  0  0  0  0  0
   57.7540   25.8740   43.8930 C   0  0  0  0  0  0  0  0  0  0  0  0
   58.1380   26.6680   42.6500 C   0  0  0  0  0  0  0  0  0  0  0  0
   61.3428   26.6064   46.9500 H   0  0  0  0  0  0  0  0  0  0  0  0
   60.5637   25.4388   45.8291 H   0  0  0  0  0  0  0  0  0  0  0  0
   60.0534   27.1610   45.8291 H   0  0  0  0  0  0  0  0  0  0  0  0
   59.0569   24.9570   47.4328 H   0  0  0  0  0  0  0  0  0  0  0  0
   59.7728   26.2200   48.5073 H   0  0  0  0  0  0  0  0  0  0  0  0
   59.0654   29.2885   48.0732 H   0  0  0  0  0  0  0  0  0  0  0  0
   62.1760   33.3672   45.6606 H   0  0  0  0  0  0  0  0  0  0  0  0
   64.2983   32.8840   46.8849 H   0  0  0  0  0  0  0  0  0  0  0  0
   62.4337   34.0902   50.5992 H   0  0  0  0  0  0  0  0  0  0  0  0
   60.3085   34.5730   49.3772 H   0  0  0  0  0  0  0  0  0  0  0  0
   58.3318   33.6078   44.1027 H   0  0  0  0  0  0  0  0  0  0  0  0
   57.1412   30.5402   42.5317 H   0  0  0  0  0  0  0  0  0  0  0  0
   56.2786   32.0656   42.9683 H   0  0  0  0  0  0  0  0  0  0  0  0
   58.8445   32.9776   42.5061 H   0  0  0  0  0  0  0  0  0  0  0  0
   58.7038   31.6516   41.3025 H   0  0  0  0  0  0  0  0  0  0  0  0
   57.5111   32.9948   41.3025 H   0  0  0  0  0  0  0  0  0  0  0  0
   57.0515   29.0665   43.5128 H   0  0  0  0  0  0  0  0  0  0  0  0
   58.6626   25.4478   44.3433 H   0  0  0  0  0  0  0  0  0  0  0  0
   57.0598   25.0732   43.5985 H   0  0  0  0  0  0  0  0  0  0  0  0
   58.5986   27.6204   42.9511 H   0  0  0  0  0  0  0  0  0  0  0  0
   58.8548   26.0873   42.0509 H   0  0  0  0  0  0  0  0  0  0  0  0
   57.2377   26.8693   42.0509 H   0  0  0  0  0  0  0  0  0  0  0  0
  1  2  1  0
  2  3  1  0
  3  4  1  0
  4  5  2  0
  5  6  1  0
  6  7  1  0
  7  8  2  0
  7  9  1  0
  9 10  1  0
 10 11  2  0
 10 12  2  0
 10 13  1  0
 13 14  2  0
 14 15  1  0
 15 16  2  0
 16 17  1  0
 16 18  1  0
 18 19  2  0
  9 20  2  0
 20 21  1  0
 21 22  1  0
 22 23  1  0
 21 24  1  0
 24 25  1  0
 25 26  2  0
 26 27  1  0
 27 28  1  0
 28 29  1  0
 26  4  1  0
 24  6  2  0
 19 13  1  0
  1 30  1  0
  1 31  1  0
  1 32  1  0
  2 33  1  0
  2 34  1  0
  5 35  1  0
 14 36  1  0
 15 37  1  0
 18 38  1  0
 19 39  1  0
 20 40  1  0
 22 41  1  0
 22 42  1  0
 23 43  1  0
 23 44  1  0
 23 45  1  0
 25 46  1  0
 28 47  1  0
 28 48  1  0
 29 49  1  0
 29 50  1  0
 29 51  1  0
M  END
>  <UniqueID>  (9) 
8

>  <SMILES>  (9) 
CCOc1cc2c(=O)c(S(=O)(=O)c3ccc(Br)cc3)cn(CC)c2cc1OCC

>  <Energy>  (9) 
58.871519641563445

>  <Genealogy>  (9) 
CCOc1cc2c(=O)c(S(=O)(=O)c3ccc(Br)cc3)cn(CC)c2cc1OCC (3D coordinates assigned)
CCOc1cc2c(=O)c(S(=O)(=O)c3ccc(Br)cc3)cn(CC)c2cc1OCC (optimized conformer: 58.871519641563445 kcal/mol)

>  <smiles>  (9) 
CCOc1cc2c(=O)c(S(=O)(=O)c3ccc(Br)cc3)cn(CC)c2cc1OCC

>  <score_type>  (9) 
oracle

>  <origin>  (9) 
adg

>  <m_score__min__energy>  (9) 
-8.0899999999999999

>  <m_primary>  (9) 
energy

$$$$
9:0
     RDKit          3D

 66 68  0  0  0  0  0  0  0  0999 V2000
   58.4450   33.8700   52.4310 C   0  0  0  0  0  0  0  0  0  0  0  0
   57.8120   32.6760   51.7040 C   0  0  0  0  0  0  0  0  0  0  0  0
   58.7990   31.8850   50.9220 N   0  0  1  0  0  0  0  0  0  0  0  0
   60.1140   31.8840   51.5970 C   0  0  0  0  0  0  0  0  0  0  0  0
   58.3410   30.4820   50.7510 C   0  0  0  0  0  0  0  0  0  0  0  0
   58.8610   29.8250   49.4480 C   0  0  0  0  0  0  0  0  0  0  0  0
   59.4320   30.8040   48.5180 N   0  0  0  0  0  0  0  0  0  0  0  0
   59.0290   30.8890   47.1410 C   0  0  0  0  0  0  0  0  0  0  0  0
   59.0030   29.7140   46.3610 C   0  0  0  0  0  0  0  0  0  0  0  0
   59.5680   28.5120   46.8380 C   0  0  0  0  0  0  0  0  0  0  0  0
   59.5320   27.3500   46.0710 C   0  0  0  0  0  0  0  0  0  0  0  0
   58.9560   27.3710   44.8060 C   0  0  0  0  0  0  0  0  0  0  0  0
   58.4100   28.5540   44.3050 C   0  0  0  0  0  0  0  0  0  0  0  0
   58.4070   29.7430   45.0760 C   0  0  0  0  0  0  0  0  0  0  0  0
   57.8720   30.9190   44.5930 N   0  0  0  0  0  0  0  0  0  0  0  0
   56.9850   30.8970   43.4100 C   0  0  0  0  0  0  0  0  0  0  0  0
   58.1720   32.1170   45.2140 C   0  0  0  0  0  0  0  0  0  0  0  0
   57.9860   33.3460   44.5390 C   0  0  0  0  0  0  0  0  0  0  0  0
   58.3180   34.5510   45.1410 C   0  0  0  0  0  0  0  0  0  0  0  0
   58.8270   34.5740   46.4280 C   0  0  0  0  0  0  0  0  0  0  0  0
   59.0070   33.3870   47.1580 C   0  0  0  0  0  0  0  0  0  0  0  0
   59.4810   33.4330   48.4830 O   0  0  0  0  0  0  0  0  0  0  0  0
   60.6170   34.1740   48.9480 C   0  0  0  0  0  0  0  0  0  0  0  0
   61.9020   33.3270   49.1730 C   0  0  0  0  0  0  0  0  0  0  0  0
   62.7160   32.9830   47.9630 N   0  0  0  0  0  0  0  0  0  0  0  0
   64.1490   33.2110   48.2860 C   0  0  0  0  0  0  0  0  0  0  0  0
   62.3720   33.8320   46.7990 C   0  0  0  0  0  0  0  0  0  0  0  0
   62.5620   31.5500   47.6130 C   0  0  0  0  0  0  0  0  0  0  0  0
   58.7190   32.1320   46.5330 C   0  0  0  0  0  0  0  0  0  0  0  0
   58.3661   33.7212   53.5180 H   0  0  0  0  0  0  0  0  0  0  0  0
   59.5048   33.9517   52.1480 H   0  0  0  0  0  0  0  0  0  0  0  0
   57.9178   34.7930   52.1480 H   0  0  0  0  0  0  0  0  0  0  0  0
   57.3468   32.0165   52.4514 H   0  0  0  0  0  0  0  0  0  0  0  0
   57.0728   33.0758   50.9942 H   0  0  0  0  0  0  0  0  0  0  0  0
   58.9280   32.3190   49.9760 H   0  0  0  0  0  0  0  0  0  0  0  0
   59.9666   31.8841   52.6871 H   0  0  0  0  0  0  0  0  0  0  0  0
   60.6763   30.9854   51.3031 H   0  0  0  0  0  0  0  0  0  0  0  0
   60.6777   32.7817   51.3031 H   0  0  0  0  0  0  0  0  0  0  0  0
   58.6980   29.8909   51.6072 H   0  0  0  0  0  0  0  0  0  0  0  0
   57.2428   30.5015   50.6916 H   0  0  0  0  0  0  0  0  0  0  0  0
   59.6373   29.0903   49.7082 H   0  0  0  0  0  0  0  0  0  0  0  0
   58.0053   29.3473   48.9485 H   0  0  0  0  0  0  0  0  0  0  0  0
   60.2140   31.4190   48.8440 H   0  0  0  0  0  0  0  0  0  0  0  0
   60.0436   28.4925   47.8297 H   0  0  0  0  0  0  0  0  0  0  0  0
   59.9590   26.4164   46.4659 H   0  0  0  0  0  0  0  0  0  0  0  0
   58.9304   26.4541   44.1989 H   0  0  0  0  0  0  0  0  0  0  0  0
   57.9748   28.5634   43.2948 H   0  0  0  0  0  0  0  0  0  0  0  0
   55.9357   30.8710   43.7389 H   0  0  0  0  0  0  0  0  0  0  0  0
   57.1575   31.7997   42.8055 H   0  0  0  0  0  0  0  0  0  0  0  0
   57.2020   30.0040   42.8055 H   0  0  0  0  0  0  0  0  0  0  0  0
   57.5714   33.3463   43.5201 H   0  0  0  0  0  0  0  0  0  0  0  0
   58.1759   35.4937   44.5923 H   0  0  0  0  0  0  0  0  0  0  0  0
   59.0949   35.5372   46.8867 H   0  0  0  0  0  0  0  0  0  0  0  0
   60.8458   34.9516   48.2044 H   0  0  0  0  0  0  0  0  0  0  0  0
   60.3391   34.5813   49.9313 H   0  0  0  0  0  0  0  0  0  0  0  0
   62.5520   33.8881   49.8605 H   0  0  0  0  0  0  0  0  0  0  0  0
   61.5414   32.3610   49.5561 H   0  0  0  0  0  0  0  0  0  0  0  0
   64.2799   33.2318   49.3780 H   0  0  0  0  0  0  0  0  0  0  0  0
   64.7549   32.3980   47.8595 H   0  0  0  0  0  0  0  0  0  0  0  0
   64.4726   34.1719   47.8595 H   0  0  0  0  0  0  0  0  0  0  0  0
   61.9808   34.7975   47.1522 H   0  0  0  0  0  0  0  0  0  0  0  0
   63.2723   34.0018   46.1902 H   0  0  0  0  0  0  0  0  0  0  0  0
   61.6075   33.3272   46.1902 H   0  0  0  0  0  0  0  0  0  0  0  0
   62.4978   30.9524   48.5343 H   0  0  0  0  0  0  0  0  0  0  0  0
   61.6440   31.4134   47.0226 H   0  0  0  0  0  0  0  0  0  0  0  0
   63.4300   31.2214   47.0226 H   0  0  0  0  0  0  0  0  0  0  0  0
  1  2  1  0
  2  3  1  0
  3  4  1  0
  3  5  1  0
  5  6  1  0
  6  7  1  0
  7  8  1  0
  8  9  2  0
  9 10  1  0
 10 11  2  0
 11 12  1  0
 12 13  2  0
 13 14  1  0
 14 15  2  0
 15 16  1  0
 15 17  1  0
 17 18  2  0
 18 19  1  0
 19 20  2  0
 20 21  1  0
 21 22  1  0
 22 23  1  0
 23 24  1  0
 24 25  1  0
 25 26  1  0
 25 27  1  0
 25 28  1  0
 21 29  2  0
 29  8  1  0
 14  9  1  0
 29 17  1  0
  1 30  1  0
  1 31  1  0
  1 32  1  0
  2 33  1  0
  2 34  1  0
  3 35  1  6
  4 36  1  0
  4 37  1  0
  4 38  1  0
  5 39  1  0
  5 40  1  0
  6 41  1  0
  6 42  1  0
  7 43  1  0
 10 44  1  0
 11 45  1  0
 12 46  1  0
 13 47  1  0
 16 48  1  0
 16 49  1  0
 16 50  1  0
 18 51  1  0
 19 52  1  0
 20 53  1  0
 23 54  1  0
 23 55  1  0
 24 56  1  0
 24 57  1  0
 26 58  1  0
 26 59  1  0
 26 60  1  0
 27 61  1  0
 27 62  1  0
 27 63  1  0
 28 64  1  0
 28 65  1  0
 28 66  1  0
M  CHG  3   3   1  15   1  25   1
M  END
>  <UniqueID>  (10) 
9

>  <SMILES>  (10) 
CC[N@@H+](C)CCNc1c2ccccc2[n+](C)c2cccc(OCC[N+](C)(C)C)c12

>  <Energy>  (10) 
108.74087848952908

>  <Genealogy>  (10) 
CC[NH+](C)CCNc1c2ccccc2[n+](C)c2cccc(OCC[N+](C)(C)C)c12 (protonated)
CC[N@@H+](C)CCNc1c2ccccc2[n+](C)c2cccc(OCC[N+](C)(C)C)c12 (chirality)
CC[N@@H+](C)CCNc1c2ccccc2[n+](C)c2cccc(OCC[N+](C)(C)C)c12 (3D coordinates assigned)
CC[N@@H+](C)CCNc1c2ccccc2[n+](C)c2cccc(OCC[N+](C)(C)C)c12 (optimized conformer: 108.74087848952908 kcal/mol)

>  <smiles>  (10) 
CCN(C)CCNc1c2ccccc2[n+](C)c2cccc(OCC[N+](C)(C)C)c12

>  <score_type>  (10) 
oracle

>  <origin>  (10) 
adg

>  <m_score__min__energy>  (10) 
-2.5299999999999998

>  <m_primary>  (10) 
energy

$$$$
10:0
     RDKit          3D

 67 71  0  0  0  0  0  0  0  0999 V2000
   55.3845   25.8396   45.6307 H   0  0  0  0  0  0  0  0  0  0  0  0
   56.2990   26.3260   46.0010 C   0  0  0  0  0  0  0  0  0  0  0  0
   56.5920   27.6030   45.6150 N   0  0  0  0  0  0  0  0  0  0  0  0
   57.7370   28.1920   46.0490 C   0  0  0  0  0  0  0  0  0  0  0  0
   58.5840   27.5530   46.9190 C   0  0  0  0  0  0  0  0  0  0  0  0
   58.3220   26.2530   47.3470 C   0  0  0  0  0  0  0  0  0  0  0  0
   59.0043   25.7343   48.0364 H   0  0  0  0  0  0  0  0  0  0  0  0
   57.1610   25.6270   46.8710 C   0  0  0  0  0  0  0  0  0  0  0  0
   56.9240   24.5966   47.1745 H   0  0  0  0  0  0  0  0  0  0  0  0
   59.6460   28.4700   47.2980 C   0  0  0  0  0  0  0  0  0  0  0  0
   60.6730   28.1010   47.9990 N   0  0  0  0  0  0  0  0  0  0  0  0
   61.1530   28.7700   49.0980 O   0  0  0  0  0  0  0  0  0  0  0  0
   60.7500   28.3850   50.4060 C   0  0  0  0  0  0  0  0  0  0  0  0
   59.6750   28.1521   50.3986 H   0  0  0  0  0  0  0  0  0  0  0  0
   61.3303   27.5009   50.7087 H   0  0  0  0  0  0  0  0  0  0  0  0
   61.0130   29.5130   51.4080 C   0  0  0  0  0  0  0  0  0  0  0  0
   61.1296   29.0810   52.4129 H   0  0  0  0  0  0  0  0  0  0  0  0
   61.9289   30.0422   51.1061 H   0  0  0  0  0  0  0  0  0  0  0  0
   59.9020   30.4750   51.4250 N   0  0  0  0  0  0  0  0  0  0  0  0
   59.1740   30.6860   50.2870 C   0  0  0  0  0  0  0  0  0  0  0  0
   59.3911   30.0971   49.3836 H   0  0  0  0  0  0  0  0  0  0  0  0
   58.1570   31.6430   50.2620 C   0  0  0  0  0  0  0  0  0  0  0  0
   57.5740   31.8090   49.3441 H   0  0  0  0  0  0  0  0  0  0  0  0
   57.8870   32.3860   51.4100 C   0  0  0  0  0  0  0  0  0  0  0  0
   57.0906   33.1448   51.4025 H   0  0  0  0  0  0  0  0  0  0  0  0
   58.6310   32.1630   52.5680 C   0  0  0  0  0  0  0  0  0  0  0  0
   58.4249   32.7421   53.4803 H   0  0  0  0  0  0  0  0  0  0  0  0
   59.6410   31.1970   52.5590 C   0  0  0  0  0  0  0  0  0  0  0  0
   60.2307   31.0153   53.4696 H   0  0  0  0  0  0  0  0  0  0  0  0
   59.3350   29.7710   46.6370 C   0  0  0  0  0  0  0  0  0  0  0  0
   59.8740   31.0590   46.7660 C   0  0  0  0  0  0  0  0  0  0  0  0
   60.9790   31.3190   47.6360 N   0  0  0  0  0  0  0  0  0  0  0  0
   60.9370   30.9470   48.6120 H   0  0  0  0  0  0  0  0  0  0  0  0
   62.1240   32.1110   47.1810 C   0  0  0  0  0  0  0  0  0  0  0  0
   61.7829   32.8415   46.4326 H   0  0  0  0  0  0  0  0  0  0  0  0
   62.8699   31.4327   46.7411 H   0  0  0  0  0  0  0  0  0  0  0  0
   62.7690   32.8570   48.3540 C   0  0  0  0  0  0  0  0  0  0  0  0
   62.5854   33.9357   48.2415 H   0  0  0  0  0  0  0  0  0  0  0  0
   63.8500   32.6535   48.3530 H   0  0  0  0  0  0  0  0  0  0  0  0
   62.1980   32.3980   49.6380 N   0  0  0  0  0  0  0  0  0  0  0  0
   63.2270   31.8400   50.5340 C   0  0  0  0  0  0  0  0  0  0  0  0
   62.9288   32.0017   51.5804 H   0  0  0  0  0  0  0  0  0  0  0  0
   63.3319   30.7614   50.3451 H   0  0  0  0  0  0  0  0  0  0  0  0
   64.1882   32.3405   50.3451 H   0  0  0  0  0  0  0  0  0  0  0  0
   61.3790   33.4360   50.3050 C   0  0  0  0  0  0  0  0  0  0  0  0
   62.0578   34.1632   50.7744 H   0  0  0  0  0  0  0  0  0  0  0  0
   60.7421   32.9169   51.0364 H   0  0  0  0  0  0  0  0  0  0  0  0
   60.4390   34.1950   49.3580 C   0  0  0  0  0  0  0  0  0  0  0  0
   59.7167   34.7782   49.9480 H   0  0  0  0  0  0  0  0  0  0  0  0
   61.0276   34.8741   48.7237 H   0  0  0  0  0  0  0  0  0  0  0  0
   59.8991   33.4765   48.7237 H   0  0  0  0  0  0  0  0  0  0  0  0
   59.2180   32.1270   46.1040 C   0  0  0  0  0  0  0  0  0  0  0  0
   59.6280   33.4620   46.3070 C   0  0  0  0  0  0  0  0  0  0  0  0
   60.4761   33.6737   46.9748 H   0  0  0  0  0  0  0  0  0  0  0  0
   58.9730   34.5150   45.6730 C   0  0  0  0  0  0  0  0  0  0  0  0
   59.3189   35.5479   45.8260 H   0  0  0  0  0  0  0  0  0  0  0  0
   57.8840   34.2640   44.8480 C   0  0  0  0  0  0  0  0  0  0  0  0
   57.3701   35.0998   44.3507 H   0  0  0  0  0  0  0  0  0  0  0  0
   57.4390   32.9580   44.6470 C   0  0  0  0  0  0  0  0  0  0  0  0
   56.5639   32.7773   44.0055 H   0  0  0  0  0  0  0  0  0  0  0  0
   58.0960   31.8590   45.2560 C   0  0  0  0  0  0  0  0  0  0  0  0
   57.6490   30.5620   45.0830 N   0  0  0  0  0  0  0  0  0  0  0  0
   56.5900   30.2320   44.1120 C   0  0  0  0  0  0  0  0  0  0  0  0
   55.6744   29.9467   44.6508 H   0  0  0  0  0  0  0  0  0  0  0  0
   56.3855   31.1090   43.4803 H   0  0  0  0  0  0  0  0  0  0  0  0
   56.9199   29.3941   43.4803 H   0  0  0  0  0  0  0  0  0  0  0  0
   58.2060   29.5700   45.8450 C   0  0  0  0  0  0  0  0  0  0  0  0
  1  2  1  0
  2  3  2  0
  3  4  1  0
  4  5  2  0
  5  6  1  0
  6  7  1  0
  6  8  2  0
  8  9  1  0
  5 10  1  0
 10 11  2  0
 11 12  1  0
 12 13  1  0
 13 14  1  0
 13 15  1  0
 13 16  1  0
 16 17  1  0
 16 18  1  0
 16 19  1  0
 19 20  2  0
 20 21  1  0
 20 22  1  0
 22 23  1  0
 22 24  2  0
 24 25  1  0
 24 26  1  0
 26 27  1  0
 26 28  2  0
 28 29  1  0
 10 30  1  0
 30 31  2  0
 31 32  1  0
 32 33  1  0
 32 34  1  0
 34 35  1  0
 34 36  1  0
 34 37  1  0
 37 38  1  0
 37 39  1  0
 37 40  1  0
 40 41  1  0
 41 42  1  0
 41 43  1  0
 41 44  1  0
 40 45  1  0
 45 46  1  0
 45 47  1  0
 45 48  1  0
 48 49  1  0
 48 50  1  0
 48 51  1  0
 31 52  1  0
 52 53  2  0
 53 54  1  0
 53 55  1  0
 55 56  1  0
 55 57  2  0
 57 58  1  0
 57 59  1  0
 59 60  1  0
 59 61  2  0
 61 62  1  0
 62 63  1  0
 63 64  1  0
 63 65  1  0
 63 66  1  0
 62 67  2  0
  8  2  1  0
 28 19  1  0
 67 30  1  0
 67  4  1  0
 61 52  1  0
M  CHG  2  19   1  62   1
M  END
>  <UniqueID>  (11) 
10

>  <SMILES>  (11) 
CCN(C)CCNc1c2c([n+](C)c3ccccc13)-c1ncccc1/C2=N/OCC[n+]1ccccc1

>  <Energy>  (11) 
124.08843091474918

>  <Genealogy>  (11) 
CCN(C)CCNc1c2c([n+](C)c3ccccc13)-c1ncccc1/C2=N/OCC[n+]1ccccc1 (cis-trans isomerization)
CCN(C)CCNc1c2c([n+](C)c3ccccc13)-c1ncccc1/C2=N/OCC[n+]1ccccc1 (3D coordinates assigned)
CCN(C)CCNc1c2c([n+](C)c3ccccc13)-c1ncccc1/C2=N/OCC[n+]1ccccc1 (nonaromatic ring conformer: 124.08843091474918 kcal/mol)

>  <smiles>  (11) 
CCN(C)CCNc1c2c([n+](C)c3ccccc13)-c1ncccc1C2=NOCC[n+]1ccccc1

>  <score_type>  (11) 
oracle

>  <origin>  (11) 
adg

>  <m_score__min__energy>  (11) 
-5.1399999999999997

>  <m_primary>  (11) 
energy

$$$$
11:0
     RDKit          3D

 82 85  0  0  0  0  0  0  0  0999 V2000
   61.4070   28.1690   51.4590 C   0  0  0  0  0  0  0  0  0  0  0  0
   61.5440   29.3200   50.4650 C   0  0  0  0  0  0  0  0  0  0  0  0
   60.5980   30.4910   50.7920 C   0  0  0  0  0  0  0  0  0  0  0  0
   59.5900   30.6930   49.7190 N   0  0  0  0  0  0  0  0  0  0  0  0
   58.6290   31.7840   50.0400 C   0  0  0  0  0  0  0  0  0  0  0  0
   59.3750   33.0310   50.5300 C   0  0  0  0  0  0  0  0  0  0  0  0
   58.8820   33.4730   51.9060 C   0  0  0  0  0  0  0  0  0  0  0  0
   58.8850   29.4250   49.4160 C   0  0  0  0  0  0  0  0  0  0  0  0
   59.2330   28.9050   48.0110 C   0  0  0  0  0  0  0  0  0  0  0  0
   60.2680   29.7340   47.3570 N   0  0  0  0  0  0  0  0  0  0  0  0
   59.6780   30.7720   46.5270 C   0  0  0  0  0  0  0  0  0  0  0  0
   58.7740   30.4110   45.4900 C   0  0  0  0  0  0  0  0  0  0  0  0
   58.6040   29.0640   45.0770 C   0  0  0  0  0  0  0  0  0  0  0  0
   57.7460   28.7300   44.0320 C   0  0  0  0  0  0  0  0  0  0  0  0
   57.0400   29.7210   43.3680 C   0  0  0  0  0  0  0  0  0  0  0  0
   57.1650   31.0500   43.7660 C   0  0  0  0  0  0  0  0  0  0  0  0
   58.0060   31.4180   44.8480 C   0  0  0  0  0  0  0  0  0  0  0  0
   58.0760   32.7210   45.2840 N   0  0  0  0  0  0  0  0  0  0  0  0
   57.0170   33.6800   44.8900 C   0  0  0  0  0  0  0  0  0  0  0  0
   59.1140   33.1240   46.0980 C   0  0  0  0  0  0  0  0  0  0  0  0
   59.3720   34.5010   46.2950 C   0  0  0  0  0  0  0  0  0  0  0  0
   60.3550   34.9330   47.1690 C   0  0  0  0  0  0  0  0  0  0  0  0
   61.1480   34.0140   47.8310 C   0  0  0  0  0  0  0  0  0  0  0  0
   60.9980   32.6360   47.6080 C   0  0  0  0  0  0  0  0  0  0  0  0
   61.9220   31.7520   48.1910 O   0  0  0  0  0  0  0  0  0  0  0  0
   63.3210   31.6810   47.8890 C   0  0  0  0  0  0  0  0  0  0  0  0
   64.0330   32.9370   48.4240 C   0  0  0  0  0  0  0  0  0  0  0  0
   64.2030   33.0660   49.9150 N   0  0  0  0  0  0  0  0  0  0  0  0
   63.3440   34.2260   50.2990 C   0  0  0  0  0  0  0  0  0  0  0  0
   65.6070   33.4460   50.3000 C   0  0  0  0  0  0  0  0  0  0  0  0
   66.5830   32.2790   50.4970 C   0  0  0  0  0  0  0  0  0  0  0  0
   65.9970   31.2360   51.4370 C   0  0  0  0  0  0  0  0  0  0  0  0
   64.6790   30.7280   50.8800 C   0  0  0  0  0  0  0  0  0  0  0  0
   63.6780   31.8800   50.6730 C   0  0  0  0  0  0  0  0  0  0  0  0
   59.9480   32.1610   46.7510 C   0  0  0  0  0  0  0  0  0  0  0  0
   61.4539   28.5630   52.4849 H   0  0  0  0  0  0  0  0  0  0  0  0
   60.4424   27.6636   51.3041 H   0  0  0  0  0  0  0  0  0  0  0  0
   62.2261   27.4513   51.3041 H   0  0  0  0  0  0  0  0  0  0  0  0
   62.5811   29.6860   50.4884 H   0  0  0  0  0  0  0  0  0  0  0  0
   61.2749   28.9382   49.4691 H   0  0  0  0  0  0  0  0  0  0  0  0
   60.0765   30.2762   51.7364 H   0  0  0  0  0  0  0  0  0  0  0  0
   61.2001   31.4077   50.8768 H   0  0  0  0  0  0  0  0  0  0  0  0
   58.0546   32.0376   49.1368 H   0  0  0  0  0  0  0  0  0  0  0  0
   57.9525   31.4390   50.8358 H   0  0  0  0  0  0  0  0  0  0  0  0
   60.4495   32.8038   50.5912 H   0  0  0  0  0  0  0  0  0  0  0  0
   59.1877   33.8477   49.8173 H   0  0  0  0  0  0  0  0  0  0  0  0
   59.4594   32.9553   52.6861 H   0  0  0  0  0  0  0  0  0  0  0  0
   59.0153   34.5598   52.0116 H   0  0  0  0  0  0  0  0  0  0  0  0
   57.8162   33.2223   52.0116 H   0  0  0  0  0  0  0  0  0  0  0  0
   59.1766   28.6681   50.1590 H   0  0  0  0  0  0  0  0  0  0  0  0
   57.8024   29.6160   49.4536 H   0  0  0  0  0  0  0  0  0  0  0  0
   59.6049   27.8732   48.0957 H   0  0  0  0  0  0  0  0  0  0  0  0
   58.3221   28.9490   47.3959 H   0  0  0  0  0  0  0  0  0  0  0  0
   60.9430   29.1600   46.8060 H   0  0  0  0  0  0  0  0  0  0  0  0
   60.8820   30.1620   48.0840 H   0  0  0  0  0  0  0  0  0  0  0  0
   59.1610   28.2678   45.5925 H   0  0  0  0  0  0  0  0  0  0  0  0
   57.6284   27.6780   43.7331 H   0  0  0  0  0  0  0  0  0  0  0  0
   56.3813   29.4580   42.5272 H   0  0  0  0  0  0  0  0  0  0  0  0
   56.6012   31.8288   43.2315 H   0  0  0  0  0  0  0  0  0  0  0  0
   56.5506   34.1023   45.7923 H   0  0  0  0  0  0  0  0  0  0  0  0
   57.4600   34.4905   44.2926 H   0  0  0  0  0  0  0  0  0  0  0  0
   56.2543   33.1590   44.2926 H   0  0  0  0  0  0  0  0  0  0  0  0
   58.7789   35.2443   45.7420 H   0  0  0  0  0  0  0  0  0  0  0  0
   60.5054   36.0096   47.3371 H   0  0  0  0  0  0  0  0  0  0  0  0
   61.9080   34.3679   48.5432 H   0  0  0  0  0  0  0  0  0  0  0  0
   63.7522   30.7868   48.3628 H   0  0  0  0  0  0  0  0  0  0  0  0
   63.4553   31.6233   46.7988 H   0  0  0  0  0  0  0  0  0  0  0  0
   65.0373   32.9608   47.9759 H   0  0  0  0  0  0  0  0  0  0  0  0
   63.3703   33.7703   48.1475 H   0  0  0  0  0  0  0  0  0  0  0  0
   63.2918   34.2965   51.3955 H   0  0  0  0  0  0  0  0  0  0  0  0
   63.7756   35.1524   49.8922 H   0  0  0  0  0  0  0  0  0  0  0  0
   62.3320   34.0834   49.8922 H   0  0  0  0  0  0  0  0  0  0  0  0
   66.0107   34.0939   49.5080 H   0  0  0  0  0  0  0  0  0  0  0  0
   65.5258   33.9371   51.2809 H   0  0  0  0  0  0  0  0  0  0  0  0
   66.7874   31.8116   49.5224 H   0  0  0  0  0  0  0  0  0  0  0  0
   67.5125   32.6680   50.9382 H   0  0  0  0  0  0  0  0  0  0  0  0
   66.7004   30.3960   51.5353 H   0  0  0  0  0  0  0  0  0  0  0  0
   65.8244   31.6908   52.4236 H   0  0  0  0  0  0  0  0  0  0  0  0
   64.8641   30.2361   49.9137 H   0  0  0  0  0  0  0  0  0  0  0  0
   64.2476   30.0185   51.6014 H   0  0  0  0  0  0  0  0  0  0  0  0
   62.8128   31.4821   50.1224 H   0  0  0  0  0  0  0  0  0  0  0  0
   63.4320   32.2501   51.6792 H   0  0  0  0  0  0  0  0  0  0  0  0
  1  2  1  0
  2  3  1  0
  3  4  1  0
  4  5  1  0
  5  6  1  0
  6  7  1  0
  4  8  1  0
  8  9  1  0
  9 10  1  0
 10 11  1  0
 11 12  2  0
 12 13  1  0
 13 14  2  0
 14 15  1  0
 15 16  2  0
 16 17  1  0
 17 18  2  0
 18 19  1  0
 18 20  1  0
 20 21  2  0
 21 22  1  0
 22 23  2  0
 23 24  1  0
 24 25  1  0
 25 26  1  0
 26 27  1  0
 27 28  1  0
 28 29  1  0
 28 30  1  0
 30 31  1  0
 31 32  1  0
 32 33  1  0
 33 34  1  0
 24 35  2  0
 35 11  1  0
 17 12  1  0
 35 20  1  0
 34 28  1  0
  1 36  1  0
  1 37  1  0
  1 38  1  0
  2 39  1  0
  2 40  1  0
  3 41  1  0
  3 42  1  0
  5 43  1  0
  5 44  1  0
  6 45  1  0
  6 46  1  0
  7 47  1  0
  7 48  1  0
  7 49  1  0
  8 50  1  0
  8 51  1  0
  9 52  1  0
  9 53  1  0
 10 54  1  0
 10 55  1  0
 13 56  1  0
 14 57  1  0
 15 58  1  0
 16 59  1  0
 19 60  1  0
 19 61  1  0
 19 62  1  0
 21 63  1  0
 22 64  1  0
 23 65  1  0
 26 66  1  0
 26 67  1  0
 27 68  1  0
 27 69  1  0
 29 70  1  0
 29 71  1  0
 29 72  1  0
 30 73  1  0
 30 74  1  0
 31 75  1  0
 31 76  1  0
 32 77  1  0
 32 78  1  0
 33 79  1  0
 33 80  1  0
 34 81  1  0
 34 82  1  0
M  CHG  3  10   1  18   1  28   1
M  END
>  <UniqueID>  (12) 
11

>  <SMILES>  (12) 
CCCN(CCC)CC[NH2+]c1c2ccccc2[n+](C)c2cccc(OCC[N+]3(C)CCCCC3)c12

>  <Energy>  (12) 
131.6307053727751

>  <Genealogy>  (12) 
CCCN(CCC)CC[NH2+]c1c2ccccc2[n+](C)c2cccc(OCC[N+]3(C)CCCCC3)c12 (protonated)
CCCN(CCC)CC[NH2+]c1c2ccccc2[n+](C)c2cccc(OCC[N+]3(C)CCCCC3)c12 (3D coordinates assigned)
CCCN(CCC)CC[NH2+]c1c2ccccc2[n+](C)c2cccc(OCC[N+]3(C)CCCCC3)c12 (nonaromatic ring conformer: 131.6307053727751 kcal/mol)

>  <smiles>  (12) 
CCCN(CCC)CCNc1c2ccccc2[n+](C)c2cccc(OCC[N+]3(C)CCCCC3)c12

>  <score_type>  (12) 
oracle

>  <origin>  (12) 
adg

>  <m_score__min__energy>  (12) 
-3.6499999999999999

>  <m_primary>  (12) 
energy

$$$$
12:0
     RDKit          3D

 40 41  0  0  0  0  0  0  0  0999 V2000
   59.7910   29.0310   45.2530 C   0  0  0  0  0  0  0  0  0  0  0  0
   58.7950   29.5610   46.2790 C   0  0  0  0  0  0  0  0  0  0  0  0
   58.7710   31.0260   46.2630 N   0  0  0  0  0  0  0  0  0  0  0  0
   59.4770   31.8040   47.1080 C   0  0  0  0  0  0  0  0  0  0  0  0
   59.2720   33.1290   46.7960 C   0  0  0  0  0  0  0  0  0  0  0  0
   59.9770   34.5110   47.6150 S   0  0  0  0  0  0  0  0  0  0  0  0
   59.2980   34.6840   48.9440 O   0  0  0  0  0  0  0  0  0  0  0  0
   59.7680   35.7460   46.7830 O   0  0  0  0  0  0  0  0  0  0  0  0
   61.6880   34.2420   47.8490 N   0  0  0  0  0  0  0  0  0  0  0  0
   61.9370   33.3670   49.0230 C   0  0  0  0  0  0  0  0  0  0  0  0
   62.2880   31.9230   48.6340 C   0  0  0  0  0  0  0  0  0  0  0  0
   63.5330   31.8780   47.7320 C   0  0  0  0  0  0  0  0  0  0  0  0
   63.6620   33.1200   46.8330 C   0  0  0  0  0  0  0  0  0  0  0  0
   62.2960   33.7670   46.5860 C   0  0  0  0  0  0  0  0  0  0  0  0
   58.4210   33.1750   45.7140 C   0  0  0  0  0  0  0  0  0  0  0  0
   58.1300   31.8580   45.4000 C   0  0  0  0  0  0  0  0  0  0  0  0
   57.2570   31.4620   44.2750 C   0  0  0  0  0  0  0  0  0  0  0  0
   57.4390   31.9290   43.1180 O   0  0  0  0  0  0  0  0  0  0  0  0
   56.2170   30.5560   44.5080 O   0  0  0  0  0  0  0  0  0  0  0  0
   55.6930   29.7100   43.4910 C   0  0  0  0  0  0  0  0  0  0  0  0
   60.6464   28.5758   45.7736 H   0  0  0  0  0  0  0  0  0  0  0  0
   59.3006   28.2746   44.6227 H   0  0  0  0  0  0  0  0  0  0  0  0
   60.1444   29.8603   44.6227 H   0  0  0  0  0  0  0  0  0  0  0  0
   57.7913   29.1800   46.0392 H   0  0  0  0  0  0  0  0  0  0  0  0
   59.1009   29.2215   47.2796 H   0  0  0  0  0  0  0  0  0  0  0  0
   60.1187   31.4362   47.9222 H   0  0  0  0  0  0  0  0  0  0  0  0
   62.7730   33.7869   49.6016 H   0  0  0  0  0  0  0  0  0  0  0  0
   61.0070   33.3321   49.6095 H   0  0  0  0  0  0  0  0  0  0  0  0
   62.4854   31.3430   49.5476 H   0  0  0  0  0  0  0  0  0  0  0  0
   61.4398   31.4953   48.0793 H   0  0  0  0  0  0  0  0  0  0  0  0
   64.4269   31.8110   48.3696 H   0  0  0  0  0  0  0  0  0  0  0  0
   63.4347   31.0016   47.0746 H   0  0  0  0  0  0  0  0  0  0  0  0
   64.3222   33.8509   47.3228 H   0  0  0  0  0  0  0  0  0  0  0  0
   64.0807   32.8081   45.8648 H   0  0  0  0  0  0  0  0  0  0  0  0
   62.4226   34.6221   45.9058 H   0  0  0  0  0  0  0  0  0  0  0  0
   61.6299   33.0118   46.1433 H   0  0  0  0  0  0  0  0  0  0  0  0
   58.0482   34.0750   45.2031 H   0  0  0  0  0  0  0  0  0  0  0  0
   55.1677   28.8618   43.9543 H   0  0  0  0  0  0  0  0  0  0  0  0
   54.9896   30.2800   42.8663 H   0  0  0  0  0  0  0  0  0  0  0  0
   56.5167   29.3341   42.8663 H   0  0  0  0  0  0  0  0  0  0  0  0
  1  2  1  0
  2  3  1  0
  3  4  1  0
  4  5  2  0
  5  6  1  0
  6  7  2  0
  6  8  2  0
  6  9  1  0
  9 10  1  0
 10 11  1  0
 11 12  1  0
 12 13  1  0
 13 14  1  0
  5 15  1  0
 15 16  2  0
 16 17  1  0
 17 18  2  0
 17 19  1  0
 19 20  1  0
 16  3  1  0
 14  9  1  0
  1 21  1  0
  1 22  1  0
  1 23  1  0
  2 24  1  0
  2 25  1  0
  4 26  1  0
 10 27  1  0
 10 28  1  0
 11 29  1  0
 11 30  1  0
 12 31  1  0
 12 32  1  0
 13 33  1  0
 13 34  1  0
 14 35  1  0
 14 36  1  0
 15 37  1  0
 20 38  1  0
 20 39  1  0
 20 40  1  0
M  END
>  <UniqueID>  (13) 
12

>  <SMILES>  (13) 
CCn1cc(S(=O)(=O)N2CCCCC2)cc1C(=O)OC

>  <Energy>  (13) 
65.22239371798038

>  <Genealogy>  (13) 
CCn1cc(S(=O)(=O)N2CCCCC2)cc1C(=O)OC (3D coordinates assigned)
CCn1cc(S(=O)(=O)N2CCCCC2)cc1C(=O)OC (nonaromatic ring conformer: 65.22239371798038 kcal/mol)

>  <smiles>  (13) 
CCn1cc(S(=O)(=O)N2CCCCC2)cc1C(=O)OC

>  <score_type>  (13) 
oracle

>  <origin>  (13) 
adg

>  <m_score__min__energy>  (13) 
-7.1600000000000001

>  <m_primary>  (13) 
energy

$$$$
13:0
     RDKit          3D

 62 65  0  0  0  0  0  0  0  0999 V2000
   56.3530   29.8210   42.7410 C   0  0  0  0  0  0  0  0  0  0  0  0
   55.5170   30.0830   43.9910 C   0  0  0  0  0  0  0  0  0  0  0  0
   55.8760   29.1540   45.0730 N   0  0  0  0  0  0  0  0  0  0  0  0
   57.2020   28.5390   44.8840 C   0  0  0  0  0  0  0  0  0  0  0  0
   58.2660   29.3940   45.5740 C   0  0  0  0  0  0  0  0  0  0  0  0
   57.6980   30.6870   45.9800 N   0  0  0  0  0  0  0  0  0  0  0  0
   58.4140   31.8150   45.3650 C   0  0  0  0  0  0  0  0  0  0  0  0
   57.9620   33.1720   45.9440 C   0  0  0  0  0  0  0  0  0  0  0  0
   57.8840   33.1800   47.4790 C   0  0  0  0  0  0  0  0  0  0  0  0
   58.7840   32.1870   48.0680 N   0  0  0  0  0  0  0  0  0  0  0  0
   59.8660   32.6140   48.9030 C   0  0  0  0  0  0  0  0  0  0  0  0
   61.0840   33.0690   48.3510 C   0  0  0  0  0  0  0  0  0  0  0  0
   61.2780   33.0750   46.9550 C   0  0  0  0  0  0  0  0  0  0  0  0
   62.4890   33.4930   46.4100 C   0  0  0  0  0  0  0  0  0  0  0  0
   63.5270   33.9040   47.2400 C   0  0  0  0  0  0  0  0  0  0  0  0
   63.3600   33.9170   48.6260 C   0  0  0  0  0  0  0  0  0  0  0  0
   62.1350   33.5240   49.2170 C   0  0  0  0  0  0  0  0  0  0  0  0
   61.9460   33.5590   50.5910 N   0  0  0  0  0  0  0  0  0  0  0  0
   62.9700   34.1140   51.4940 C   0  0  0  0  0  0  0  0  0  0  0  0
   60.7800   33.0450   51.1000 C   0  0  0  0  0  0  0  0  0  0  0  0
   60.4760   32.8760   52.4120 N   0  0  0  0  0  0  0  0  0  0  0  0
   59.2520   32.3110   52.4190 C   0  0  0  0  0  0  0  0  0  0  0  0
   58.5270   31.9080   53.5380 C   0  0  0  0  0  0  0  0  0  0  0  0
   57.2830   31.2850   53.3330 C   0  0  0  0  0  0  0  0  0  0  0  0
   56.7930   31.0630   52.0180 C   0  0  0  0  0  0  0  0  0  0  0  0
   55.5700   30.4180   51.7760 O   0  0  0  0  0  0  0  0  0  0  0  0
   54.4520   30.4600   52.6570 C   0  0  0  0  0  0  0  0  0  0  0  0
   57.5510   31.4870   50.9100 C   0  0  0  0  0  0  0  0  0  0  0  0
   58.7750   32.1150   51.1420 C   0  0  0  0  0  0  0  0  0  0  0  0
   59.7590   32.5870   50.2900 C   0  0  0  0  0  0  0  0  0  0  0  0
   57.3642   29.5041   43.0360 H   0  0  0  0  0  0  0  0  0  0  0  0
   55.8800   29.0280   42.1431 H   0  0  0  0  0  0  0  0  0  0  0  0
   56.4172   30.7421   42.1431 H   0  0  0  0  0  0  0  0  0  0  0  0
   55.6921   31.1146   44.3305 H   0  0  0  0  0  0  0  0  0  0  0  0
   54.4567   29.9331   43.7396 H   0  0  0  0  0  0  0  0  0  0  0  0
   55.8970   29.7080   45.9620 H   0  0  0  0  0  0  0  0  0  0  0  0
   57.2032   27.5296   45.3211 H   0  0  0  0  0  0  0  0  0  0  0  0
   57.4253   28.4745   43.8088 H   0  0  0  0  0  0  0  0  0  0  0  0
   58.6354   28.8644   46.4646 H   0  0  0  0  0  0  0  0  0  0  0  0
   59.0929   29.5719   44.8708 H   0  0  0  0  0  0  0  0  0  0  0  0
   56.7110   30.7270   45.6290 H   0  0  0  0  0  0  0  0  0  0  0  0
   59.4920   31.6928   45.5468 H   0  0  0  0  0  0  0  0  0  0  0  0
   58.1891   31.8134   44.2882 H   0  0  0  0  0  0  0  0  0  0  0  0
   58.6787   33.9437   45.6264 H   0  0  0  0  0  0  0  0  0  0  0  0
   56.9484   33.3679   45.5643 H   0  0  0  0  0  0  0  0  0  0  0  0
   58.1644   34.1784   47.8458 H   0  0  0  0  0  0  0  0  0  0  0  0
   56.8541   32.9293   47.7731 H   0  0  0  0  0  0  0  0  0  0  0  0
   58.7950   31.2050   47.7120 H   0  0  0  0  0  0  0  0  0  0  0  0
   60.4655   32.7465   46.2903 H   0  0  0  0  0  0  0  0  0  0  0  0
   62.6256   33.4983   45.3185 H   0  0  0  0  0  0  0  0  0  0  0  0
   64.4849   34.2206   46.8017 H   0  0  0  0  0  0  0  0  0  0  0  0
   64.1931   34.2376   49.2688 H   0  0  0  0  0  0  0  0  0  0  0  0
   62.6661   33.9493   52.5383 H   0  0  0  0  0  0  0  0  0  0  0  0
   63.9321   33.6139   51.3089 H   0  0  0  0  0  0  0  0  0  0  0  0
   63.0761   35.1931   51.3089 H   0  0  0  0  0  0  0  0  0  0  0  0
   61.0570   33.0750   53.2550 H   0  0  0  0  0  0  0  0  0  0  0  0
   58.9166   32.0724   54.5535 H   0  0  0  0  0  0  0  0  0  0  0  0
   56.6838   30.9666   54.1988 H   0  0  0  0  0  0  0  0  0  0  0  0
   54.8053   30.4467   53.6986 H   0  0  0  0  0  0  0  0  0  0  0  0
   53.8773   31.3804   52.4765 H   0  0  0  0  0  0  0  0  0  0  0  0
   53.8098   29.5853   52.4765 H   0  0  0  0  0  0  0  0  0  0  0  0
   57.1864   31.3268   49.8846 H   0  0  0  0  0  0  0  0  0  0  0  0
  1  2  1  0
  2  3  1  0
  3  4  1  0
  4  5  1  0
  5  6  1  0
  6  7  1  0
  7  8  1  0
  8  9  1  0
  9 10  1  0
 10 11  1  0
 11 12  2  0
 12 13  1  0
 13 14  2  0
 14 15  1  0
 15 16  2  0
 16 17  1  0
 17 18  2  0
 18 19  1  0
 18 20  1  0
 20 21  1  0
 21 22  1  0
 22 23  2  0
 23 24  1  0
 24 25  2  0
 25 26  1  0
 26 27  1  0
 25 28  1  0
 28 29  2  0
 29 30  1  0
 30 11  1  0
 17 12  1  0
 30 20  2  0
 29 22  1  0
  1 31  1  0
  1 32  1  0
  1 33  1  0
  2 34  1  0
  2 35  1  0
  3 36  1  0
  4 37  1  0
  4 38  1  0
  5 39  1  0
  5 40  1  0
  6 41  1  0
  7 42  1  0
  7 43  1  0
  8 44  1  0
  8 45  1  0
  9 46  1  0
  9 47  1  0
 10 48  1  0
 13 49  1  0
 14 50  1  0
 15 51  1  0
 16 52  1  0
 19 53  1  0
 19 54  1  0
 19 55  1  0
 21 56  1  0
 23 57  1  0
 24 58  1  0
 27 59  1  0
 27 60  1  0
 27 61  1  0
 28 62  1  0
M  CHG  1  18   1
M  END
>  <UniqueID>  (14) 
13

>  <SMILES>  (14) 
CCNCCNCCCNc1c2ccccc2[n+](C)c2[nH]c3ccc(OC)cc3c12

>  <Energy>  (14) 
114.88046124286602

>  <Genealogy>  (14) 
CCNCCNCCCNc1c2ccccc2[n+](C)c2[nH]c3ccc(OC)cc3c12 (3D coordinates assigned)
CCNCCNCCCNc1c2ccccc2[n+](C)c2[nH]c3ccc(OC)cc3c12 (optimized conformer: 114.88046124286602 kcal/mol)

>  <smiles>  (14) 
CCNCCNCCCNc1c2ccccc2[n+](C)c2[nH]c3ccc(OC)cc3c12

>  <score_type>  (14) 
oracle

>  <origin>  (14) 
adg

>  <m_score__min__energy>  (14) 
-6.7800000000000002

>  <m_primary>  (14) 
energy

$$$$
14:0
     RDKit          3D

 46 48  0  0  0  0  0  0  0  0999 V2000
   56.5590   29.7730   42.6830 C   0  0  0  0  0  0  0  0  0  0  0  0
   55.4880   29.7930   43.7680 C   0  0  0  0  0  0  0  0  0  0  0  0
   55.8570   28.8940   44.8700 N   0  0  0  0  0  0  0  0  0  0  0  0
   57.1700   28.2750   44.6430 C   0  0  0  0  0  0  0  0  0  0  0  0
   58.2030   28.8540   45.6100 C   0  0  0  0  0  0  0  0  0  0  0  0
   57.6710   30.0210   46.3150 N   0  0  0  0  0  0  0  0  0  0  0  0
   58.5590   30.9750   46.9100 C   0  0  0  0  0  0  0  0  0  0  0  0
   58.5500   32.3210   46.4920 C   0  0  0  0  0  0  0  0  0  0  0  0
   59.4100   33.2480   47.1390 C   0  0  0  0  0  0  0  0  0  0  0  0
   60.1680   32.8520   48.2260 N   0  0  0  0  0  0  0  0  0  0  0  0
   60.8600   33.8650   49.0540 C   0  0  0  0  0  0  0  0  0  0  0  0
   60.2940   31.5120   48.5360 C   0  0  0  0  0  0  0  0  0  0  0  0
   61.2450   31.0490   49.4820 C   0  0  0  0  0  0  0  0  0  0  0  0
   61.3390   29.6950   49.8050 C   0  0  0  0  0  0  0  0  0  0  0  0
   60.5030   28.7700   49.1920 C   0  0  0  0  0  0  0  0  0  0  0  0
   59.5800   29.1900   48.2380 C   0  0  0  0  0  0  0  0  0  0  0  0
   59.4690   30.5550   47.8930 C   0  0  0  0  0  0  0  0  0  0  0  0
   59.4400   34.6970   46.6600 C   0  0  0  0  0  0  0  0  0  0  0  0
   59.0220   34.8530   45.1980 C   0  0  0  0  0  0  0  0  0  0  0  0
   57.6510   34.2310   44.9730 C   0  0  0  0  0  0  0  0  0  0  0  0
   57.6700   32.7890   45.3750 C   0  0  0  0  0  0  0  0  0  0  0  0
   56.9060   31.9960   44.7640 O   0  0  0  0  0  0  0  0  0  0  0  0
   57.5544   29.7544   43.1507 H   0  0  0  0  0  0  0  0  0  0  0  0
   56.4308   28.8771   42.0578 H   0  0  0  0  0  0  0  0  0  0  0  0
   56.4644   30.6731   42.0578 H   0  0  0  0  0  0  0  0  0  0  0  0
   55.3839   30.8172   44.1554 H   0  0  0  0  0  0  0  0  0  0  0  0
   54.5355   29.4535   43.3349 H   0  0  0  0  0  0  0  0  0  0  0  0
   55.1470   28.1240   44.9060 H   0  0  0  0  0  0  0  0  0  0  0  0
   57.0920   27.1894   44.8024 H   0  0  0  0  0  0  0  0  0  0  0  0
   57.4899   28.4819   43.6111 H   0  0  0  0  0  0  0  0  0  0  0  0
   58.4768   28.0839   46.3462 H   0  0  0  0  0  0  0  0  0  0  0  0
   59.0845   29.1679   45.0317 H   0  0  0  0  0  0  0  0  0  0  0  0
   56.6410   30.1840   46.3890 H   0  0  0  0  0  0  0  0  0  0  0  0
   60.7042   33.6369   50.1187 H   0  0  0  0  0  0  0  0  0  0  0  0
   61.9367   33.8489   48.8293 H   0  0  0  0  0  0  0  0  0  0  0  0
   60.4534   34.8621   48.8293 H   0  0  0  0  0  0  0  0  0  0  0  0
   61.9190   31.7694   49.9686 H   0  0  0  0  0  0  0  0  0  0  0  0
   62.0776   29.3587   50.5476 H   0  0  0  0  0  0  0  0  0  0  0  0
   60.5704   27.7054   49.4605 H   0  0  0  0  0  0  0  0  0  0  0  0
   58.9300   28.4504   47.7475 H   0  0  0  0  0  0  0  0  0  0  0  0
   58.7538   35.2869   47.2854 H   0  0  0  0  0  0  0  0  0  0  0  0
   60.4787   35.0492   46.7440 H   0  0  0  0  0  0  0  0  0  0  0  0
   58.9817   35.9225   44.9439 H   0  0  0  0  0  0  0  0  0  0  0  0
   59.7568   34.3420   44.5585 H   0  0  0  0  0  0  0  0  0  0  0  0
   56.9042   34.7675   45.5767 H   0  0  0  0  0  0  0  0  0  0  0  0
   57.3919   34.3048   43.9065 H   0  0  0  0  0  0  0  0  0  0  0  0
  1  2  1  0
  2  3  1  0
  3  4  1  0
  4  5  1  0
  5  6  1  0
  6  7  1  0
  7  8  2  0
  8  9  1  0
  9 10  2  0
 10 11  1  0
 10 12  1  0
 12 13  2  0
 13 14  1  0
 14 15  2  0
 15 16  1  0
 16 17  2  0
  9 18  1  0
 18 19  1  0
 19 20  1  0
 20 21  1  0
 21 22  2  0
 17  7  1  0
 21  8  1  0
 17 12  1  0
  1 23  1  0
  1 24  1  0
  1 25  1  0
  2 26  1  0
  2 27  1  0
  3 28  1  0
  4 29  1  0
  4 30  1  0
  5 31  1  0
  5 32  1  0
  6 33  1  0
 11 34  1  0
 11 35  1  0
 11 36  1  0
 13 37  1  0
 14 38  1  0
 15 39  1  0
 16 40  1  0
 18 41  1  0
 18 42  1  0
 19 43  1  0
 19 44  1  0
 20 45  1  0
 20 46  1  0
M  CHG  1  10   1
M  END
>  <UniqueID>  (15) 
14

>  <SMILES>  (15) 
CCNCCNc1c2c([n+](C)c3ccccc13)CCCC2=O

>  <Energy>  (15) 
63.8525868470192

>  <Genealogy>  (15) 
CCNCCNc1c2c([n+](C)c3ccccc13)CCCC2=O (3D coordinates assigned)
CCNCCNc1c2c([n+](C)c3ccccc13)CCCC2=O (nonaromatic ring conformer: 63.8525868470192 kcal/mol)

>  <smiles>  (15) 
CCNCCNc1c2c([n+](C)c3ccccc13)CCCC2=O

>  <score_type>  (15) 
oracle

>  <origin>  (15) 
adg

>  <m_score__min__energy>  (15) 
-6.5700000000000003

>  <m_primary>  (15) 
energy

$$$$
15:0
     RDKit          3D

 76 79  0  0  0  0  0  0  0  0999 V2000
   58.4570   34.0740   52.3340 C   0  0  0  0  0  0  0  0  0  0  0  0
   57.5320   32.8540   52.3510 C   0  0  0  0  0  0  0  0  0  0  0  0
   57.5490   32.1170   51.0720 N   0  0  0  0  0  0  0  0  0  0  0  0
   57.6820   30.6550   51.2350 C   0  0  0  0  0  0  0  0  0  0  0  0
   59.1160   30.2430   51.6260 C   0  0  0  0  0  0  0  0  0  0  0  0
   59.7910   29.3800   50.5480 C   0  0  0  0  0  0  0  0  0  0  0  0
   59.0630   29.4470   49.1990 C   0  0  0  0  0  0  0  0  0  0  0  0
   59.7790   30.3240   48.2730 N   0  0  0  0  0  0  0  0  0  0  0  0
   59.1560   30.8160   47.0750 C   0  0  0  0  0  0  0  0  0  0  0  0
   58.6040   29.9010   46.1630 C   0  0  0  0  0  0  0  0  0  0  0  0
   58.5080   28.5300   46.4820 C   0  0  0  0  0  0  0  0  0  0  0  0
   57.9330   27.6280   45.5890 C   0  0  0  0  0  0  0  0  0  0  0  0
   57.4350   28.0790   44.3720 C   0  0  0  0  0  0  0  0  0  0  0  0
   57.5290   29.4280   44.0300 C   0  0  0  0  0  0  0  0  0  0  0  0
   58.1430   30.3620   44.9040 C   0  0  0  0  0  0  0  0  0  0  0  0
   58.2930   31.6900   44.5590 N   0  0  0  0  0  0  0  0  0  0  0  0
   58.1260   32.1060   43.1490 C   0  0  0  0  0  0  0  0  0  0  0  0
   58.6130   32.6240   45.5260 C   0  0  0  0  0  0  0  0  0  0  0  0
   58.4730   34.0100   45.2780 C   0  0  0  0  0  0  0  0  0  0  0  0
   58.8210   34.9510   46.2380 C   0  0  0  0  0  0  0  0  0  0  0  0
   59.2830   34.5480   47.4810 C   0  0  0  0  0  0  0  0  0  0  0  0
   59.3890   33.1830   47.7990 C   0  0  0  0  0  0  0  0  0  0  0  0
   59.7880   32.7750   49.0870 O   0  0  0  0  0  0  0  0  0  0  0  0
   60.5930   33.5100   50.0090 C   0  0  0  0  0  0  0  0  0  0  0  0
   61.8470   32.6980   50.3780 C   0  0  0  0  0  0  0  0  0  0  0  0
   63.1480   33.0720   49.7120 N   0  0  0  0  0  0  0  0  0  0  0  0
   64.0470   33.4910   50.8270 C   0  0  0  0  0  0  0  0  0  0  0  0
   63.8220   31.8950   49.0660 C   0  0  0  0  0  0  0  0  0  0  0  0
   63.3680   31.5760   47.6350 C   0  0  0  0  0  0  0  0  0  0  0  0
   63.4530   32.8120   46.7530 C   0  0  0  0  0  0  0  0  0  0  0  0
   62.6120   33.9320   47.3440 C   0  0  0  0  0  0  0  0  0  0  0  0
   63.0320   34.2550   48.7920 C   0  0  0  0  0  0  0  0  0  0  0  0
   59.0710   32.2050   46.8110 C   0  0  0  0  0  0  0  0  0  0  0  0
   58.6855   34.3753   53.3670 H   0  0  0  0  0  0  0  0  0  0  0  0
   59.3907   33.8189   51.8114 H   0  0  0  0  0  0  0  0  0  0  0  0
   57.9593   34.9042   51.8114 H   0  0  0  0  0  0  0  0  0  0  0  0
   57.8566   32.1757   53.1539 H   0  0  0  0  0  0  0  0  0  0  0  0
   56.5058   33.2135   52.5173 H   0  0  0  0  0  0  0  0  0  0  0  0
   56.6670   32.3310   50.5470 H   0  0  0  0  0  0  0  0  0  0  0  0
   58.3400   32.4660   50.4810 H   0  0  0  0  0  0  0  0  0  0  0  0
   56.9900   30.3215   52.0223 H   0  0  0  0  0  0  0  0  0  0  0  0
   57.4453   30.1836   50.2697 H   0  0  0  0  0  0  0  0  0  0  0  0
   59.7161   31.1523   51.7777 H   0  0  0  0  0  0  0  0  0  0  0  0
   59.0541   29.6434   52.5461 H   0  0  0  0  0  0  0  0  0  0  0  0
   60.8235   29.7330   50.4093 H   0  0  0  0  0  0  0  0  0  0  0  0
   59.7627   28.3352   50.8909 H   0  0  0  0  0  0  0  0  0  0  0  0
   59.0049   28.4364   48.7685 H   0  0  0  0  0  0  0  0  0  0  0  0
   58.0521   29.8495   49.3602 H   0  0  0  0  0  0  0  0  0  0  0  0
   60.7500   30.6330   48.5030 H   0  0  0  0  0  0  0  0  0  0  0  0
   58.8918   28.1687   47.4475 H   0  0  0  0  0  0  0  0  0  0  0  0
   57.8732   26.5603   45.8468 H   0  0  0  0  0  0  0  0  0  0  0  0
   56.9648   27.3690   43.6757 H   0  0  0  0  0  0  0  0  0  0  0  0
   57.1211   29.7729   43.0684 H   0  0  0  0  0  0  0  0  0  0  0  0
   57.7164   33.1263   43.1138 H   0  0  0  0  0  0  0  0  0  0  0  0
   59.1022   32.0851   42.6425 H   0  0  0  0  0  0  0  0  0  0  0  0
   57.4352   31.4159   42.6425 H   0  0  0  0  0  0  0  0  0  0  0  0
   58.0814   34.3481   44.3073 H   0  0  0  0  0  0  0  0  0  0  0  0
   58.7294   36.0233   46.0105 H   0  0  0  0  0  0  0  0  0  0  0  0
   59.5697   35.3043   48.2265 H   0  0  0  0  0  0  0  0  0  0  0  0
   60.8977   34.4613   49.5484 H   0  0  0  0  0  0  0  0  0  0  0  0
   60.0094   33.7064   50.9205 H   0  0  0  0  0  0  0  0  0  0  0  0
   61.9940   32.7965   51.4637 H   0  0  0  0  0  0  0  0  0  0  0  0
   61.6340   31.6805   50.0184 H   0  0  0  0  0  0  0  0  0  0  0  0
   63.5655   33.2666   51.7902 H   0  0  0  0  0  0  0  0  0  0  0  0
   64.9985   32.9436   50.7563 H   0  0  0  0  0  0  0  0  0  0  0  0
   64.2396   34.5717   50.7563 H   0  0  0  0  0  0  0  0  0  0  0  0
   64.9033   32.0953   49.0416 H   0  0  0  0  0  0  0  0  0  0  0  0
   63.5463   31.0195   49.6721 H   0  0  0  0  0  0  0  0  0  0  0  0
   64.0152   30.7903   47.2181 H   0  0  0  0  0  0  0  0  0  0  0  0
   62.3225   31.2353   47.6646 H   0  0  0  0  0  0  0  0  0  0  0  0
   64.5008   33.1400   46.6857 H   0  0  0  0  0  0  0  0  0  0  0  0
   63.0735   32.5665   45.7502 H   0  0  0  0  0  0  0  0  0  0  0  0
   62.7352   34.8343   46.7271 H   0  0  0  0  0  0  0  0  0  0  0  0
   61.5621   33.6039   47.3558 H   0  0  0  0  0  0  0  0  0  0  0  0
   64.0115   34.7544   48.7572 H   0  0  0  0  0  0  0  0  0  0  0  0
   62.2287   34.8819   49.2064 H   0  0  0  0  0  0  0  0  0  0  0  0
  1  2  1  0
  2  3  1  0
  3  4  1  0
  4  5  1  0
  5  6  1  0
  6  7  1  0
  7  8  1  0
  8  9  1  0
  9 10  2  0
 10 11  1  0
 11 12  2  0
 12 13  1  0
 13 14  2  0
 14 15  1  0
 15 16  2  0
 16 17  1  0
 16 18  1  0
 18 19  2  0
 19 20  1  0
 20 21  2  0
 21 22  1  0
 22 23  1  0
 23 24  1  0
 24 25  1  0
 25 26  1  0
 26 27  1  0
 26 28  1  0
 28 29  1  0
 29 30  1  0
 30 31  1  0
 31 32  1  0
 22 33  2  0
 33  9  1  0
 15 10  1  0
 33 18  1  0
 32 26  1  0
  1 34  1  0
  1 35  1  0
  1 36  1  0
  2 37  1  0
  2 38  1  0
  3 39  1  0
  3 40  1  0
  4 41  1  0
  4 42  1  0
  5 43  1  0
  5 44  1  0
  6 45  1  0
  6 46  1  0
  7 47  1  0
  7 48  1  0
  8 49  1  0
 11 50  1  0
 12 51  1  0
 13 52  1  0
 14 53  1  0
 17 54  1  0
 17 55  1  0
 17 56  1  0
 19 57  1  0
 20 58  1  0
 21 59  1  0
 24 60  1  0
 24 61  1  0
 25 62  1  0
 25 63  1  0
 27 64  1  0
 27 65  1  0
 27 66  1  0
 28 67  1  0
 28 68  1  0
 29 69  1  0
 29 70  1  0
 30 71  1  0
 30 72  1  0
 31 73  1  0
 31 74  1  0
 32 75  1  0
 32 76  1  0
M  CHG  3   3   1  16   1  26   1
M  END
>  <UniqueID>  (16) 
15

>  <SMILES>  (16) 
CC[NH2+]CCCCNc1c2ccccc2[n+](C)c2cccc(OCC[N+]3(C)CCCCC3)c12

>  <Energy>  (16) 
119.1441821598398

>  <Genealogy>  (16) 
CC[NH2+]CCCCNc1c2ccccc2[n+](C)c2cccc(OCC[N+]3(C)CCCCC3)c12 (protonated)
CC[NH2+]CCCCNc1c2ccccc2[n+](C)c2cccc(OCC[N+]3(C)CCCCC3)c12 (3D coordinates assigned)
CC[NH2+]CCCCNc1c2ccccc2[n+](C)c2cccc(OCC[N+]3(C)CCCCC3)c12 (nonaromatic ring conformer: 119.1441821598398 kcal/mol)

>  <smiles>  (16) 
CCNCCCCNc1c2ccccc2[n+](C)c2cccc(OCC[N+]3(C)CCCCC3)c12

>  <score_type>  (16) 
oracle

>  <origin>  (16) 
adg

>  <m_score__min__energy>  (16) 
-3.9500000000000002

>  <m_primary>  (16) 
energy

$$$$
16:0
     RDKit          3D

 62 64  0  0  0  0  0  0  0  0999 V2000
   63.3310   33.8550   46.3990 C   0  0  0  0  0  0  0  0  0  0  0  0
   63.4160   32.5100   47.1220 C   0  0  0  0  0  0  0  0  0  0  0  0
   63.0000   32.6500   48.5350 N   0  0  0  0  0  0  0  0  0  0  0  0
   62.7180   34.0540   48.9220 C   0  0  0  0  0  0  0  0  0  0  0  0
   61.4350   34.2190   49.7520 C   0  0  0  0  0  0  0  0  0  0  0  0
   63.9070   31.9640   49.4860 C   0  0  0  0  0  0  0  0  0  0  0  0
   63.0890   31.3350   50.6100 C   0  0  0  0  0  0  0  0  0  0  0  0
   62.3580   30.2360   50.0920 O   0  0  0  0  0  0  0  0  0  0  0  0
   61.0460   30.2240   50.6220 C   0  0  0  0  0  0  0  0  0  0  0  0
   60.0590   30.8980   49.6450 C   0  0  0  0  0  0  0  0  0  0  0  0
   60.7130   31.3610   48.3990 N   0  0  0  0  0  0  0  0  0  0  0  0
   59.8780   31.1330   47.2330 C   0  0  0  0  0  0  0  0  0  0  0  0
   59.3830   32.2120   46.4480 C   0  0  0  0  0  0  0  0  0  0  0  0
   58.5670   31.9470   45.3170 C   0  0  0  0  0  0  0  0  0  0  0  0
   58.3130   30.6480   44.9230 N   0  0  0  0  0  0  0  0  0  0  0  0
   57.5190   30.3770   43.7110 C   0  0  0  0  0  0  0  0  0  0  0  0
   58.8040   29.6140   45.6810 C   0  0  0  0  0  0  0  0  0  0  0  0
   59.5560   29.8290   46.8110 C   0  0  0  0  0  0  0  0  0  0  0  0
   60.0120   28.5470   47.4150 C   0  0  0  0  0  0  0  0  0  0  0  0
   59.4210   27.4530   46.5140 C   0  0  0  0  0  0  0  0  0  0  0  0
   58.6460   28.1600   45.3940 C   0  0  0  0  0  0  0  0  0  0  0  0
   58.0440   33.1510   44.5490 C   0  0  0  0  0  0  0  0  0  0  0  0
   57.5200   34.2130   45.5230 C   0  0  0  0  0  0  0  0  0  0  0  0
   58.5260   34.5810   46.6370 C   0  0  0  0  0  0  0  0  0  0  0  0
   59.7580   33.6600   46.7040 C   0  0  0  0  0  0  0  0  0  0  0  0
   63.2797   34.6668   47.1395 H   0  0  0  0  0  0  0  0  0  0  0  0
   64.2224   33.9895   45.7687 H   0  0  0  0  0  0  0  0  0  0  0  0
   62.4297   33.8762   45.7687 H   0  0  0  0  0  0  0  0  0  0  0  0
   62.7549   31.7878   46.6206 H   0  0  0  0  0  0  0  0  0  0  0  0
   64.4575   32.1573   47.0927 H   0  0  0  0  0  0  0  0  0  0  0  0
   63.5658   34.4281   49.5147 H   0  0  0  0  0  0  0  0  0  0  0  0
   62.5745   34.6220   47.9910 H   0  0  0  0  0  0  0  0  0  0  0  0
   61.6844   34.1869   50.8229 H   0  0  0  0  0  0  0  0  0  0  0  0
   60.9657   35.1849   49.5136 H   0  0  0  0  0  0  0  0  0  0  0  0
   60.7366   33.4033   49.5136 H   0  0  0  0  0  0  0  0  0  0  0  0
   64.4664   31.1786   48.9566 H   0  0  0  0  0  0  0  0  0  0  0  0
   64.6110   32.6945   49.9111 H   0  0  0  0  0  0  0  0  0  0  0  0
   63.7635   30.9866   51.4060 H   0  0  0  0  0  0  0  0  0  0  0  0
   62.3942   32.0801   51.0248 H   0  0  0  0  0  0  0  0  0  0  0  0
   60.7337   29.1828   50.7904 H   0  0  0  0  0  0  0  0  0  0  0  0
   61.0417   30.7808   51.5707 H   0  0  0  0  0  0  0  0  0  0  0  0
   59.2743   30.1733   49.3821 H   0  0  0  0  0  0  0  0  0  0  0  0
   59.6438   31.7825   50.1503 H   0  0  0  0  0  0  0  0  0  0  0  0
   60.9160   32.3860   48.4680 H   0  0  0  0  0  0  0  0  0  0  0  0
   61.6530   30.9180   48.2900 H   0  0  0  0  0  0  0  0  0  0  0  0
   56.5145   30.0341   43.9998 H   0  0  0  0  0  0  0  0  0  0  0  0
   57.4349   31.2973   43.1144 H   0  0  0  0  0  0  0  0  0  0  0  0
   58.0151   29.5973   43.1144 H   0  0  0  0  0  0  0  0  0  0  0  0
   61.1106   28.4914   47.4214 H   0  0  0  0  0  0  0  0  0  0  0  0
   59.6862   28.4430   48.4605 H   0  0  0  0  0  0  0  0  0  0  0  0
   60.2280   26.8403   46.0857 H   0  0  0  0  0  0  0  0  0  0  0  0
   58.7592   26.7882   47.0885 H   0  0  0  0  0  0  0  0  0  0  0  0
   59.0718   27.9105   44.4109 H   0  0  0  0  0  0  0  0  0  0  0  0
   57.5895   27.8551   45.3636 H   0  0  0  0  0  0  0  0  0  0  0  0
   58.8587   33.5801   43.9473 H   0  0  0  0  0  0  0  0  0  0  0  0
   57.2221   32.8289   43.8927 H   0  0  0  0  0  0  0  0  0  0  0  0
   57.2854   35.1233   44.9517 H   0  0  0  0  0  0  0  0  0  0  0  0
   56.6332   33.7886   46.0165 H   0  0  0  0  0  0  0  0  0  0  0  0
   58.8735   35.6099   46.4619 H   0  0  0  0  0  0  0  0  0  0  0  0
   57.9942   34.4678   47.5932 H   0  0  0  0  0  0  0  0  0  0  0  0
   60.4860   33.9806   45.9442 H   0  0  0  0  0  0  0  0  0  0  0  0
   60.1890   33.7321   47.7135 H   0  0  0  0  0  0  0  0  0  0  0  0
  1  2  1  0
  2  3  1  0
  3  4  1  0
  4  5  1  0
  3  6  1  0
  6  7  1  0
  7  8  1  0
  8  9  1  0
  9 10  1  0
 10 11  1  0
 11 12  1  0
 12 13  2  0
 13 14  1  0
 14 15  2  0
 15 16  1  0
 15 17  1  0
 17 18  2  0
 18 19  1  0
 19 20  1  0
 20 21  1  0
 14 22  1  0
 22 23  1  0
 23 24  1  0
 24 25  1  0
 18 12  1  0
 25 13  1  0
 21 17  1  0
  1 26  1  0
  1 27  1  0
  1 28  1  0
  2 29  1  0
  2 30  1  0
  4 31  1  0
  4 32  1  0
  5 33  1  0
  5 34  1  0
  5 35  1  0
  6 36  1  0
  6 37  1  0
  7 38  1  0
  7 39  1  0
  9 40  1  0
  9 41  1  0
 10 42  1  0
 10 43  1  0
 11 44  1  0
 11 45  1  0
 16 46  1  0
 16 47  1  0
 16 48  1  0
 19 49  1  0
 19 50  1  0
 20 51  1  0
 20 52  1  0
 21 53  1  0
 21 54  1  0
 22 55  1  0
 22 56  1  0
 23 57  1  0
 23 58  1  0
 24 59  1  0
 24 60  1  0
 25 61  1  0
 25 62  1  0
M  CHG  2  11   1  15   1
M  END
>  <UniqueID>  (17) 
16

>  <SMILES>  (17) 
CCN(CC)CCOCC[NH2+]c1c2c([n+](C)c3c1CCC3)CCCC2

>  <Energy>  (17) 
86.87467902189103

>  <Genealogy>  (17) 
CCN(CC)CCOCC[NH2+]c1c2c([n+](C)c3c1CCC3)CCCC2 (protonated)
CCN(CC)CCOCC[NH2+]c1c2c([n+](C)c3c1CCC3)CCCC2 (3D coordinates assigned)
CCN(CC)CCOCC[NH2+]c1c2c([n+](C)c3c1CCC3)CCCC2 (nonaromatic ring conformer: 86.87467902189103 kcal/mol)

>  <smiles>  (17) 
CCN(CC)CCOCCNc1c2c([n+](C)c3c1CCC3)CCCC2

>  <score_type>  (17) 
oracle

>  <origin>  (17) 
adg

>  <m_score__min__energy>  (17) 
-3.77

>  <m_primary>  (17) 
energy

$$$$
17:0
     RDKit          3D

 37 38  0  0  0  0  0  0  0  0999 V2000
   61.8245   33.8407   45.3772 H   0  0  0  0  0  0  0  0  0  0  0  0
   61.4420   33.6310   46.3870 C   0  0  0  0  0  0  0  0  0  0  0  0
   60.1270   33.8410   46.6150 C   0  0  0  0  0  0  0  0  0  0  0  0
   59.1220   32.9000   46.0520 C   0  0  0  0  0  0  0  0  0  0  0  0
   59.3000   31.5120   46.1890 C   0  0  0  0  0  0  0  0  0  0  0  0
   60.1883   31.1247   46.7095 H   0  0  0  0  0  0  0  0  0  0  0  0
   58.3570   30.6200   45.6690 C   0  0  0  0  0  0  0  0  0  0  0  0
   58.5095   29.5363   45.7796 H   0  0  0  0  0  0  0  0  0  0  0  0
   57.2140   31.1020   45.0050 C   0  0  0  0  0  0  0  0  0  0  0  0
   56.2400   30.2480   44.4670 O   0  0  0  0  0  0  0  0  0  0  0  0
   56.2600   29.7440   43.1350 C   0  0  0  0  0  0  0  0  0  0  0  0
   56.3036   28.6451   43.1594 H   0  0  0  0  0  0  0  0  0  0  0  0
   55.3485   30.0632   42.6085 H   0  0  0  0  0  0  0  0  0  0  0  0
   57.1434   30.1344   42.6085 H   0  0  0  0  0  0  0  0  0  0  0  0
   57.0330   32.4830   44.8740 C   0  0  0  0  0  0  0  0  0  0  0  0
   56.1418   32.8693   44.3577 H   0  0  0  0  0  0  0  0  0  0  0  0
   57.9740   33.3760   45.3930 C   0  0  0  0  0  0  0  0  0  0  0  0
   57.8159   34.4593   45.2855 H   0  0  0  0  0  0  0  0  0  0  0  0
   59.6350   34.9990   47.4480 C   0  0  0  0  0  0  0  0  0  0  0  0
   59.7393   34.7535   48.5152 H   0  0  0  0  0  0  0  0  0  0  0  0
   60.2301   35.8951   47.2180 H   0  0  0  0  0  0  0  0  0  0  0  0
   58.5769   35.1926   47.2180 H   0  0  0  0  0  0  0  0  0  0  0  0
   62.4040   33.1400   47.3960 C   0  0  0  0  0  0  0  0  0  0  0  0
   63.6240   33.8010   47.6280 C   0  0  0  0  0  0  0  0  0  0  0  0
   63.8888   34.6873   47.0327 H   0  0  0  0  0  0  0  0  0  0  0  0
   64.5010   33.3360   48.6120 C   0  0  0  0  0  0  0  0  0  0  0  0
   65.4621   33.8455   48.7757 H   0  0  0  0  0  0  0  0  0  0  0  0
   64.1590   32.2230   49.3900 C   0  0  0  0  0  0  0  0  0  0  0  0
   65.2860   31.6260   50.6500 S   0  0  0  0  0  0  0  0  0  0  0  0
   66.6500   32.7050   50.1150 C   0  0  0  0  0  0  0  0  0  0  0  0
   67.1640   33.1116   50.9984 H   0  0  0  0  0  0  0  0  0  0  0  0
   67.3625   32.1234   49.5116 H   0  0  0  0  0  0  0  0  0  0  0  0
   66.2481   33.5322   49.5116 H   0  0  0  0  0  0  0  0  0  0  0  0
   62.9360   31.5770   49.1800 C   0  0  0  0  0  0  0  0  0  0  0  0
   62.6645   30.7030   49.7903 H   0  0  0  0  0  0  0  0  0  0  0  0
   62.0580   32.0410   48.1950 C   0  0  0  0  0  0  0  0  0  0  0  0
   61.0898   31.5405   48.0462 H   0  0  0  0  0  0  0  0  0  0  0  0
  1  2  1  0
  2  3  2  0
  3  4  1  0
  4  5  2  0
  5  6  1  0
  5  7  1  0
  7  8  1  0
  7  9  2  0
  9 10  1  0
 10 11  1  0
 11 12  1  0
 11 13  1  0
 11 14  1  0
  9 15  1  0
 15 16  1  0
 15 17  2  0
 17 18  1  0
  3 19  1  0
 19 20  1  0
 19 21  1  0
 19 22  1  0
  2 23  1  0
 23 24  2  0
 24 25  1  0
 24 26  1  0
 26 27  1  0
 26 28  2  0
 28 29  1  0
 29 30  1  0
 30 31  1  0
 30 32  1  0
 30 33  1  0
 28 34  1  0
 34 35  1  0
 34 36  2  0
 36 37  1  0
 17  4  1  0
 36 23  1  0
M  END
>  <UniqueID>  (18) 
17

>  <SMILES>  (18) 
COc1ccc(/C(C)=C/c2ccc(SC)cc2)cc1

>  <Energy>  (18) 
42.935047697068214

>  <Genealogy>  (18) 
COc1ccc(/C(C)=C/c2ccc(SC)cc2)cc1 (cis-trans isomerization)
COc1ccc(/C(C)=C/c2ccc(SC)cc2)cc1 (3D coordinates assigned)
COc1ccc(/C(C)=C/c2ccc(SC)cc2)cc1 (optimized conformer: 42.935047697068214 kcal/mol)

>  <smiles>  (18) 
COc1ccc(C(C)=Cc2ccc(SC)cc2)cc1

>  <score_type>  (18) 
oracle

>  <origin>  (18) 
adg

>  <m_score__min__energy>  (18) 
-7.3499999999999996

>  <m_primary>  (18) 
energy

$$$$
18:0
     RDKit          3D

 56 56  0  0  0  0  0  0  0  0999 V2000
   63.3380   33.8870   46.3480 C   0  0  0  0  0  0  0  0  0  0  0  0
   63.4710   32.5900   47.1580 C   0  0  0  0  0  0  0  0  0  0  0  0
   62.7570   32.6000   48.4590 N   0  0  0  0  0  0  0  0  0  0  0  0
   62.4900   33.9710   48.9270 C   0  0  0  0  0  0  0  0  0  0  0  0
   63.3990   31.8020   49.5280 C   0  0  0  0  0  0  0  0  0  0  0  0
   62.3780   31.2170   50.5170 C   0  0  0  0  0  0  0  0  0  0  0  0
   61.0730   31.2120   49.9630 O   0  0  0  0  0  0  0  0  0  0  0  0
   60.2270   30.2980   50.6380 C   0  0  0  0  0  0  0  0  0  0  0  0
   60.1690   28.9660   49.8920 C   0  0  0  0  0  0  0  0  0  0  0  0
   61.0450   29.0160   48.7890 O   0  0  0  0  0  0  0  0  0  0  0  0
   60.2700   29.0470   47.6750 N   0  0  0  0  0  0  0  0  0  0  0  0
   59.5360   27.9100   47.1500 C   0  0  0  0  0  0  0  0  0  0  0  0
   58.6140   28.5350   46.0870 C   0  0  0  0  0  0  0  0  0  0  0  0
   58.8460   29.9740   46.1880 N   0  0  0  0  0  0  0  0  0  0  0  0
   59.7610   30.2180   47.0650 C   0  0  0  0  0  0  0  0  0  0  0  0
   60.1990   31.5390   47.4230 N   0  0  0  0  0  0  0  0  0  0  0  0
   59.7980   32.7460   46.7020 C   0  0  0  0  0  0  0  0  0  0  0  0
   58.3800   33.1620   47.0950 C   0  0  0  0  0  0  0  0  0  0  0  0
   57.4580   32.5550   46.2120 O   0  0  0  0  0  0  0  0  0  0  0  0
   57.6750   33.0000   44.8860 C   0  0  0  0  0  0  0  0  0  0  0  0
   57.4090   31.8650   43.8940 C   0  0  0  0  0  0  0  0  0  0  0  0
   56.6180   30.8630   44.5030 O   0  0  0  0  0  0  0  0  0  0  0  0
   56.2640   29.8720   43.5640 C   0  0  0  0  0  0  0  0  0  0  0  0
   63.2504   34.7413   47.0354 H   0  0  0  0  0  0  0  0  0  0  0  0
   64.2276   34.0162   45.7140 H   0  0  0  0  0  0  0  0  0  0  0  0
   62.4407   33.8330   45.7140 H   0  0  0  0  0  0  0  0  0  0  0  0
   63.0696   31.7642   46.5523 H   0  0  0  0  0  0  0  0  0  0  0  0
   64.5402   32.4743   47.3892 H   0  0  0  0  0  0  0  0  0  0  0  0
   62.4865   33.9888   50.0268 H   0  0  0  0  0  0  0  0  0  0  0  0
   63.2736   34.6457   48.5518 H   0  0  0  0  0  0  0  0  0  0  0  0
   61.5105   34.3023   48.5518 H   0  0  0  0  0  0  0  0  0  0  0  0
   63.9560   30.9743   49.0647 H   0  0  0  0  0  0  0  0  0  0  0  0
   64.0656   32.4714   50.0914 H   0  0  0  0  0  0  0  0  0  0  0  0
   62.6674   30.1847   50.7629 H   0  0  0  0  0  0  0  0  0  0  0  0
   62.3703   31.8433   51.4212 H   0  0  0  0  0  0  0  0  0  0  0  0
   60.6160   30.1272   51.6527 H   0  0  0  0  0  0  0  0  0  0  0  0
   59.2131   30.7221   50.6851 H   0  0  0  0  0  0  0  0  0  0  0  0
   60.4729   28.1524   50.5670 H   0  0  0  0  0  0  0  0  0  0  0  0
   59.1426   28.7821   49.5417 H   0  0  0  0  0  0  0  0  0  0  0  0
   60.2191   27.1772   46.6957 H   0  0  0  0  0  0  0  0  0  0  0  0
   58.9830   27.3620   47.9271 H   0  0  0  0  0  0  0  0  0  0  0  0
   58.8773   28.1700   45.0833 H   0  0  0  0  0  0  0  0  0  0  0  0
   57.5579   28.2732   46.2490 H   0  0  0  0  0  0  0  0  0  0  0  0
   58.3310   30.6880   45.6290 H   0  0  0  0  0  0  0  0  0  0  0  0
   60.8450   31.6470   48.2340 H   0  0  0  0  0  0  0  0  0  0  0  0
   60.4947   33.5613   46.9465 H   0  0  0  0  0  0  0  0  0  0  0  0
   59.8198   32.5376   45.6221 H   0  0  0  0  0  0  0  0  0  0  0  0
   58.1727   32.8362   48.1250 H   0  0  0  0  0  0  0  0  0  0  0  0
   58.2850   34.2562   47.0350 H   0  0  0  0  0  0  0  0  0  0  0  0
   56.9963   33.8380   44.6689 H   0  0  0  0  0  0  0  0  0  0  0  0
   58.7208   33.3257   44.7847 H   0  0  0  0  0  0  0  0  0  0  0  0
   56.8783   32.2648   43.0174 H   0  0  0  0  0  0  0  0  0  0  0  0
   58.3686   31.4266   43.5826 H   0  0  0  0  0  0  0  0  0  0  0  0
   55.9397   28.9641   44.0937 H   0  0  0  0  0  0  0  0  0  0  0  0
   55.4423   30.2416   42.9330 H   0  0  0  0  0  0  0  0  0  0  0  0
   57.1339   29.6373   42.9330 H   0  0  0  0  0  0  0  0  0  0  0  0
  1  2  1  0
  2  3  1  0
  3  4  1  0
  3  5  1  0
  5  6  1  0
  6  7  1  0
  7  8  1  0
  8  9  1  0
  9 10  1  0
 10 11  1  0
 11 12  1  0
 12 13  1  0
 13 14  1  0
 14 15  2  0
 15 16  1  0
 16 17  1  0
 17 18  1  0
 18 19  1  0
 19 20  1  0
 20 21  1  0
 21 22  1  0
 22 23  1  0
 15 11  1  0
  1 24  1  0
  1 25  1  0
  1 26  1  0
  2 27  1  0
  2 28  1  0
  4 29  1  0
  4 30  1  0
  4 31  1  0
  5 32  1  0
  5 33  1  0
  6 34  1  0
  6 35  1  0
  8 36  1  0
  8 37  1  0
  9 38  1  0
  9 39  1  0
 12 40  1  0
 12 41  1  0
 13 42  1  0
 13 43  1  0
 14 44  1  0
 16 45  1  0
 17 46  1  0
 17 47  1  0
 18 48  1  0
 18 49  1  0
 20 50  1  0
 20 51  1  0
 21 52  1  0
 21 53  1  0
 23 54  1  0
 23 55  1  0
 23 56  1  0
M  CHG  1  14   1
M  END
>  <UniqueID>  (19) 
18

>  <SMILES>  (19) 
CCN(C)CCOCCON1CC[NH+]=C1NCCOCCOC

>  <Energy>  (19) 
63.418029087615906

>  <Genealogy>  (19) 
CCN(C)CCOCCON1CC[NH+]=C1NCCOCCOC (protonated)
CCN(C)CCOCCON1CC[NH+]=C1NCCOCCOC (3D coordinates assigned)
CCN(C)CCOCCON1CC[NH+]=C1NCCOCCOC (nonaromatic ring conformer: 63.418029087615906 kcal/mol)

>  <smiles>  (19) 
CCN(C)CCOCCON1CCN=C1NCCOCCOC

>  <score_type>  (19) 
oracle

>  <origin>  (19) 
adg

>  <m_score__min__energy>  (19) 
-3.29

>  <m_primary>  (19) 
energy

$$$$
19:0
     RDKit          3D

 66 68  0  0  0  0  0  0  0  0999 V2000
   58.5140   33.0150   51.6170 C   0  0  0  0  0  0  0  0  0  0  0  0
   57.2160   32.7360   52.3780 C   0  0  0  0  0  0  0  0  0  0  0  0
   56.4420   31.6190   51.8030 N   0  0  0  0  0  0  0  0  0  0  0  0
   55.4590   31.0100   52.7210 C   0  0  0  0  0  0  0  0  0  0  0  0
   55.8490   29.5960   53.1960 C   0  0  0  0  0  0  0  0  0  0  0  0
   56.7190   28.9560   52.2810 O   0  0  0  0  0  0  0  0  0  0  0  0
   58.0640   28.9920   52.7270 C   0  0  0  0  0  0  0  0  0  0  0  0
   58.9640   29.5690   51.6330 C   0  0  0  0  0  0  0  0  0  0  0  0
   58.1650   30.0790   50.5080 N   0  0  0  0  0  0  0  0  0  0  0  0
   58.9800   30.3480   49.3080 C   0  0  0  0  0  0  0  0  0  0  0  0
   60.1310   29.3390   49.1220 C   0  0  0  0  0  0  0  0  0  0  0  0
   60.1670   28.7450   47.7080 C   0  0  0  0  0  0  0  0  0  0  0  0
   60.6510   29.7340   46.7460 N   0  0  0  0  0  0  0  0  0  0  0  0
   59.7890   30.7840   46.2870 C   0  0  0  0  0  0  0  0  0  0  0  0
   59.9970   32.1010   46.7210 C   0  0  0  0  0  0  0  0  0  0  0  0
   59.1370   33.1230   46.2740 C   0  0  0  0  0  0  0  0  0  0  0  0
   58.1800   32.8630   45.3140 N   0  0  0  0  0  0  0  0  0  0  0  0
   57.4790   33.9840   44.6530 C   0  0  0  0  0  0  0  0  0  0  0  0
   57.8910   31.5560   44.9640 C   0  0  0  0  0  0  0  0  0  0  0  0
   56.7740   31.2280   44.1530 C   0  0  0  0  0  0  0  0  0  0  0  0
   56.5260   29.9090   43.7710 C   0  0  0  0  0  0  0  0  0  0  0  0
   57.3700   28.8880   44.1910 C   0  0  0  0  0  0  0  0  0  0  0  0
   58.4550   29.1730   45.0160 C   0  0  0  0  0  0  0  0  0  0  0  0
   58.7160   30.4960   45.4290 C   0  0  0  0  0  0  0  0  0  0  0  0
   59.3260   34.5020   46.8830 C   0  0  0  0  0  0  0  0  0  0  0  0
   59.6440   34.3790   48.3760 C   0  0  0  0  0  0  0  0  0  0  0  0
   60.8910   33.5200   48.6510 C   0  0  0  0  0  0  0  0  0  0  0  0
   61.2050   32.4790   47.5570 C   0  0  0  0  0  0  0  0  0  0  0  0
   59.3292   33.1902   52.3344 H   0  0  0  0  0  0  0  0  0  0  0  0
   58.7616   32.1496   50.9848 H   0  0  0  0  0  0  0  0  0  0  0  0
   58.3842   33.9057   50.9848 H   0  0  0  0  0  0  0  0  0  0  0  0
   57.4663   32.4896   53.4204 H   0  0  0  0  0  0  0  0  0  0  0  0
   56.5924   33.6395   52.3093 H   0  0  0  0  0  0  0  0  0  0  0  0
   55.9310   31.9630   50.9560 H   0  0  0  0  0  0  0  0  0  0  0  0
   57.1100   30.8820   51.4750 H   0  0  0  0  0  0  0  0  0  0  0  0
   55.3603   31.6583   53.6042 H   0  0  0  0  0  0  0  0  0  0  0  0
   54.5153   30.9136   52.1641 H   0  0  0  0  0  0  0  0  0  0  0  0
   56.3523   29.6740   54.1710 H   0  0  0  0  0  0  0  0  0  0  0  0
   54.9307   28.9953   53.2724 H   0  0  0  0  0  0  0  0  0  0  0  0
   58.1329   29.6229   53.6254 H   0  0  0  0  0  0  0  0  0  0  0  0
   58.3932   27.9692   52.9625 H   0  0  0  0  0  0  0  0  0  0  0  0
   59.5593   30.3926   52.0541 H   0  0  0  0  0  0  0  0  0  0  0  0
   59.6215   28.7691   51.2618 H   0  0  0  0  0  0  0  0  0  0  0  0
   57.4160   29.3850   50.2850 H   0  0  0  0  0  0  0  0  0  0  0  0
   58.3274   30.3020   48.4237 H   0  0  0  0  0  0  0  0  0  0  0  0
   59.4321   31.3429   49.4339 H   0  0  0  0  0  0  0  0  0  0  0  0
   61.0848   29.8523   49.3137 H   0  0  0  0  0  0  0  0  0  0  0  0
   59.9685   28.5118   49.8286 H   0  0  0  0  0  0  0  0  0  0  0  0
   60.8382   27.8735   47.6991 H   0  0  0  0  0  0  0  0  0  0  0  0
   59.1479   28.4437   47.4241 H   0  0  0  0  0  0  0  0  0  0  0  0
   61.6310   29.7000   46.3830 H   0  0  0  0  0  0  0  0  0  0  0  0
   57.0592   34.6553   45.4167 H   0  0  0  0  0  0  0  0  0  0  0  0
   58.1896   34.5417   44.0252 H   0  0  0  0  0  0  0  0  0  0  0  0
   56.6665   33.5893   44.0252 H   0  0  0  0  0  0  0  0  0  0  0  0
   56.0932   32.0255   43.8204 H   0  0  0  0  0  0  0  0  0  0  0  0
   55.6591   29.6765   43.1350 H   0  0  0  0  0  0  0  0  0  0  0  0
   57.1806   27.8527   43.8711 H   0  0  0  0  0  0  0  0  0  0  0  0
   59.1149   28.3583   45.3488 H   0  0  0  0  0  0  0  0  0  0  0  0
   60.1570   35.0133   46.3750 H   0  0  0  0  0  0  0  0  0  0  0  0
   58.3987   35.0805   46.7589 H   0  0  0  0  0  0  0  0  0  0  0  0
   59.8144   35.3865   48.7833 H   0  0  0  0  0  0  0  0  0  0  0  0
   58.7878   33.8839   48.8574 H   0  0  0  0  0  0  0  0  0  0  0  0
   61.7570   34.1917   48.7447 H   0  0  0  0  0  0  0  0  0  0  0  0
   60.6840   32.9539   49.5711 H   0  0  0  0  0  0  0  0  0  0  0  0
   61.9743   32.8953   46.8900 H   0  0  0  0  0  0  0  0  0  0  0  0
   61.5464   31.5656   48.0661 H   0  0  0  0  0  0  0  0  0  0  0  0
  1  2  1  0
  2  3  1  0
  3  4  1  0
  4  5  1  0
  5  6  1  0
  6  7  1  0
  7  8  1  0
  8  9  1  0
  9 10  1  0
 10 11  1  0
 11 12  1  0
 12 13  1  0
 13 14  1  0
 14 15  2  0
 15 16  1  0
 16 17  2  0
 17 18  1  0
 17 19  1  0
 19 20  2  0
 20 21  1  0
 21 22  2  0
 22 23  1  0
 23 24  2  0
 16 25  1  0
 25 26  1  0
 26 27  1  0
 27 28  1  0
 24 14  1  0
 28 15  1  0
 24 19  1  0
  1 29  1  0
  1 30  1  0
  1 31  1  0
  2 32  1  0
  2 33  1  0
  3 34  1  0
  3 35  1  0
  4 36  1  0
  4 37  1  0
  5 38  1  0
  5 39  1  0
  7 40  1  0
  7 41  1  0
  8 42  1  0
  8 43  1  0
  9 44  1  0
 10 45  1  0
 10 46  1  0
 11 47  1  0
 11 48  1  0
 12 49  1  0
 12 50  1  0
 13 51  1  0
 18 52  1  0
 18 53  1  0
 18 54  1  0
 20 55  1  0
 21 56  1  0
 22 57  1  0
 23 58  1  0
 25 59  1  0
 25 60  1  0
 26 61  1  0
 26 62  1  0
 27 63  1  0
 27 64  1  0
 28 65  1  0
 28 66  1  0
M  CHG  2   3   1  17   1
M  END
>  <UniqueID>  (20) 
19

>  <SMILES>  (20) 
CC[NH2+]CCOCCNCCCNc1c2c([n+](C)c3ccccc13)CCCC2

>  <Energy>  (20) 
90.36269453663047

>  <Genealogy>  (20) 
CC[NH2+]CCOCCNCCCNc1c2c([n+](C)c3ccccc13)CCCC2 (protonated)
CC[NH2+]CCOCCNCCCNc1c2c([n+](C)c3ccccc13)CCCC2 (3D coordinates assigned)
CC[NH2+]CCOCCNCCCNc1c2c([n+](C)c3ccccc13)CCCC2 (nonaromatic ring conformer: 90.36269453663047 kcal/mol)

>  <smiles>  (20) 
CCNCCOCCNCCCNc1c2c([n+](C)c3ccccc13)CCCC2

>  <score_type>  (20) 
oracle

>  <origin>  (20) 
adg

>  <m_score__min__energy>  (20) 
-4.71

>  <m_primary>  (20) 
energy

$$$$
20:0
     RDKit          3D

 46 47  0  0  0  0  0  0  0  0999 V2000
   59.0900   22.4020   44.8600 C   0  0  0  0  0  0  0  0  0  0  0  0
   57.6670   22.5460   45.4040 C   0  0  0  0  0  0  0  0  0  0  0  0
   57.0690   23.8870   45.2020 N   0  0  0  0  0  0  0  0  0  0  0  0
   56.6710   24.1930   43.8060 C   0  0  0  0  0  0  0  0  0  0  0  0
   56.2120   22.9730   42.9920 C   0  0  0  0  0  0  0  0  0  0  0  0
   56.1180   24.3290   46.2460 C   0  0  0  0  0  0  0  0  0  0  0  0
   55.0440   25.2700   45.6800 C   0  0  0  0  0  0  0  0  0  0  0  0
   55.3400   26.6710   45.9750 N   0  0  0  0  0  0  0  0  0  0  0  0
   56.6350   27.2880   45.9580 C   0  0  0  0  0  0  0  0  0  0  0  0
   57.4600   26.9800   46.8570 O   0  0  0  0  0  0  0  0  0  0  0  0
   57.0530   28.2380   44.8730 C   0  0  0  0  0  0  0  0  0  0  0  0
   56.6580   29.5660   45.2080 O   0  0  0  0  0  0  0  0  0  0  0  0
   57.5480   30.5880   45.5710 C   0  0  0  0  0  0  0  0  0  0  0  0
   58.6320   30.3710   46.4580 C   0  0  0  0  0  0  0  0  0  0  0  0
   59.4950   31.4240   46.7910 C   0  0  0  0  0  0  0  0  0  0  0  0
   59.2680   32.6840   46.2340 C   0  0  0  0  0  0  0  0  0  0  0  0
   58.2210   32.9010   45.3770 C   0  0  0  0  0  0  0  0  0  0  0  0
   57.3470   31.8690   45.0290 C   0  0  0  0  0  0  0  0  0  0  0  0
   58.1670   34.3030   44.9060 C   0  0  0  0  0  0  0  0  0  0  0  0
   59.3600   34.9800   45.6080 C   0  0  0  0  0  0  0  0  0  0  0  0
   60.0650   33.9110   46.4640 C   0  0  0  0  0  0  0  0  0  0  0  0
   59.7978   22.3304   45.6990 H   0  0  0  0  0  0  0  0  0  0  0  0
   59.1571   21.4925   44.2450 H   0  0  0  0  0  0  0  0  0  0  0  0
   59.3380   23.2796   44.2450 H   0  0  0  0  0  0  0  0  0  0  0  0
   57.0290   21.8050   44.9001 H   0  0  0  0  0  0  0  0  0  0  0  0
   57.7282   22.3892   46.4910 H   0  0  0  0  0  0  0  0  0  0  0  0
   55.8436   24.9173   43.8356 H   0  0  0  0  0  0  0  0  0  0  0  0
   57.5679   24.5846   43.3038 H   0  0  0  0  0  0  0  0  0  0  0  0
   55.9091   22.1678   43.6774 H   0  0  0  0  0  0  0  0  0  0  0  0
   55.3586   23.2552   42.3580 H   0  0  0  0  0  0  0  0  0  0  0  0
   57.0398   22.6227   42.3580 H   0  0  0  0  0  0  0  0  0  0  0  0
   55.6253   23.4445   46.6759 H   0  0  0  0  0  0  0  0  0  0  0  0
   56.6839   24.8789   47.0124 H   0  0  0  0  0  0  0  0  0  0  0  0
   54.9945   25.1386   44.5890 H   0  0  0  0  0  0  0  0  0  0  0  0
   54.0836   25.0165   46.1526 H   0  0  0  0  0  0  0  0  0  0  0  0
   58.1464   28.2013   44.7582 H   0  0  0  0  0  0  0  0  0  0  0  0
   56.5685   27.9445   43.9301 H   0  0  0  0  0  0  0  0  0  0  0  0
   58.7967   29.3716   46.8870 H   0  0  0  0  0  0  0  0  0  0  0  0
   60.3370   31.2605   47.4796 H   0  0  0  0  0  0  0  0  0  0  0  0
   56.5112   32.0565   44.3389 H   0  0  0  0  0  0  0  0  0  0  0  0
   58.2776   34.3524   43.8127 H   0  0  0  0  0  0  0  0  0  0  0  0
   57.2083   34.7901   45.1375 H   0  0  0  0  0  0  0  0  0  0  0  0
   60.0582   35.3805   44.8583 H   0  0  0  0  0  0  0  0  0  0  0  0
   59.0152   35.8133   46.2378 H   0  0  0  0  0  0  0  0  0  0  0  0
   61.1047   33.7693   46.1341 H   0  0  0  0  0  0  0  0  0  0  0  0
   60.1182   34.1879   47.5273 H   0  0  0  0  0  0  0  0  0  0  0  0
  1  2  1  0
  2  3  1  0
  3  4  1  0
  4  5  1  0
  3  6  1  0
  6  7  1  0
  7  8  1  0
  8  9  1  0
  9 10  2  0
  9 11  1  0
 11 12  1  0
 12 13  1  0
 13 14  2  0
 14 15  1  0
 15 16  2  0
 16 17  1  0
 17 18  2  0
 17 19  1  0
 19 20  1  0
 20 21  1  0
 18 13  1  0
 21 16  1  0
  1 22  1  0
  1 23  1  0
  1 24  1  0
  2 25  1  0
  2 26  1  0
  4 27  1  0
  4 28  1  0
  5 29  1  0
  5 30  1  0
  5 31  1  0
  6 32  1  0
  6 33  1  0
  7 34  1  0
  7 35  1  0
 11 36  1  0
 11 37  1  0
 14 38  1  0
 15 39  1  0
 18 40  1  0
 19 41  1  0
 19 42  1  0
 20 43  1  0
 20 44  1  0
 21 45  1  0
 21 46  1  0
M  CHG  1   8  -1
M  END
>  <UniqueID>  (21) 
20

>  <SMILES>  (21) 
CCN(CC)CC[N-]C(=O)COc1ccc2c(c1)CCC2

>  <Energy>  (21) 
54.624781409367316

>  <Genealogy>  (21) 
CCN(CC)CC[N-]C(=O)COc1ccc2c(c1)CCC2 (protonated)
CCN(CC)CC[N-]C(=O)COc1ccc2c(c1)CCC2 (3D coordinates assigned)
CCN(CC)CC[N-]C(=O)COc1ccc2c(c1)CCC2 (nonaromatic ring conformer: 54.624781409367316 kcal/mol)

>  <smiles>  (21) 
CCN(CC)CCNC(=O)COc1ccc2c(c1)CCC2

>  <score_type>  (21) 
oracle

>  <origin>  (21) 
adg

>  <m_score__min__energy>  (21) 
-8.6500000000000004

>  <m_primary>  (21) 
energy

$$$$
21:0
     RDKit          3D

 50 53  0  0  0  0  0  0  0  0999 V2000
   63.1630   34.2170   46.3910 C   0  0  0  0  0  0  0  0  0  0  0  0
   63.7620   32.9760   47.0710 C   0  0  0  0  0  0  0  0  0  0  0  0
   63.2940   32.7510   48.4590 N   0  0  0  0  0  0  0  0  0  0  0  0
   64.3180   33.0570   49.4710 C   0  0  0  0  0  0  0  0  0  0  0  0
   62.0000   33.4030   48.7610 C   0  0  0  0  0  0  0  0  0  0  0  0
   60.8600   32.3750   48.7520 C   0  0  0  0  0  0  0  0  0  0  0  0
   61.1090   31.3070   47.7720 N   0  0  0  0  0  0  0  0  0  0  0  0
   59.9550   31.1400   46.9100 C   0  0  0  0  0  0  0  0  0  0  0  0
   59.3550   29.8820   46.7680 C   0  0  0  0  0  0  0  0  0  0  0  0
   58.2260   29.7070   45.9830 C   0  0  0  0  0  0  0  0  0  0  0  0
   57.6780   30.7240   45.2480 N   0  0  0  0  0  0  0  0  0  0  0  0
   56.5770   30.4400   44.3090 C   0  0  0  0  0  0  0  0  0  0  0  0
   58.1960   32.0010   45.3950 C   0  0  0  0  0  0  0  0  0  0  0  0
   57.5760   33.1220   44.7880 C   0  0  0  0  0  0  0  0  0  0  0  0
   58.1390   34.3920   44.8770 C   0  0  0  0  0  0  0  0  0  0  0  0
   59.3250   34.5860   45.5720 C   0  0  0  0  0  0  0  0  0  0  0  0
   59.9400   33.5190   46.2230 C   0  0  0  0  0  0  0  0  0  0  0  0
   59.3780   32.2220   46.1860 C   0  0  0  0  0  0  0  0  0  0  0  0
   57.8060   28.2990   46.1060 C   0  0  0  0  0  0  0  0  0  0  0  0
   56.6920   27.6870   45.6270 N   0  0  0  0  0  0  0  0  0  0  0  0
   56.4660   26.3700   45.9150 C   0  0  0  0  0  0  0  0  0  0  0  0
   57.3690   25.6500   46.7240 C   0  0  0  0  0  0  0  0  0  0  0  0
   58.5020   26.2930   47.2460 C   0  0  0  0  0  0  0  0  0  0  0  0
   58.6930   27.6320   46.9190 C   0  0  0  0  0  0  0  0  0  0  0  0
   59.7070   28.5780   47.3560 C   0  0  0  0  0  0  0  0  0  0  0  0
   60.7040   28.3050   48.0760 O   0  0  0  0  0  0  0  0  0  0  0  0
   62.8206   34.9264   47.1588 H   0  0  0  0  0  0  0  0  0  0  0  0
   63.9287   34.6969   45.7637 H   0  0  0  0  0  0  0  0  0  0  0  0
   62.3110   33.9161   45.7637 H   0  0  0  0  0  0  0  0  0  0  0  0
   63.4959   32.0932   46.4711 H   0  0  0  0  0  0  0  0  0  0  0  0
   64.8475   33.1442   47.1297 H   0  0  0  0  0  0  0  0  0  0  0  0
   63.8899   32.9291   50.4762 H   0  0  0  0  0  0  0  0  0  0  0  0
   65.1719   32.3748   49.3466 H   0  0  0  0  0  0  0  0  0  0  0  0
   64.6576   34.0959   49.3466 H   0  0  0  0  0  0  0  0  0  0  0  0
   62.0552   33.8725   49.7543 H   0  0  0  0  0  0  0  0  0  0  0  0
   61.7980   34.1622   47.9911 H   0  0  0  0  0  0  0  0  0  0  0  0
   60.7726   31.9286   49.7535 H   0  0  0  0  0  0  0  0  0  0  0  0
   59.9299   32.8916   48.4726 H   0  0  0  0  0  0  0  0  0  0  0  0
   61.3540   30.4120   48.2510 H   0  0  0  0  0  0  0  0  0  0  0  0
   61.9500   31.5350   47.1980 H   0  0  0  0  0  0  0  0  0  0  0  0
   55.6638   30.2044   44.8752 H   0  0  0  0  0  0  0  0  0  0  0  0
   56.3986   31.3215   43.6757 H   0  0  0  0  0  0  0  0  0  0  0  0
   56.8473   29.5822   43.6757 H   0  0  0  0  0  0  0  0  0  0  0  0
   56.6337   32.9860   44.2371 H   0  0  0  0  0  0  0  0  0  0  0  0
   57.6416   35.2461   44.3942 H   0  0  0  0  0  0  0  0  0  0  0  0
   59.7810   35.5864   45.6088 H   0  0  0  0  0  0  0  0  0  0  0  0
   60.8769   33.6880   46.7741 H   0  0  0  0  0  0  0  0  0  0  0  0
   55.5735   25.8684   45.5128 H   0  0  0  0  0  0  0  0  0  0  0  0
   57.1860   24.5881   46.9452 H   0  0  0  0  0  0  0  0  0  0  0  0
   59.2141   25.7573   47.8910 H   0  0  0  0  0  0  0  0  0  0  0  0
  1  2  1  0
  2  3  1  0
  3  4  1  0
  3  5  1  0
  5  6  1  0
  6  7  1  0
  7  8  1  0
  8  9  2  0
  9 10  1  0
 10 11  2  0
 11 12  1  0
 11 13  1  0
 13 14  2  0
 14 15  1  0
 15 16  2  0
 16 17  1  0
 17 18  2  0
 10 19  1  0
 19 20  2  0
 20 21  1  0
 21 22  2  0
 22 23  1  0
 23 24  2  0
 24 25  1  0
 25 26  2  0
 18  8  1  0
 24 19  1  0
 25  9  1  0
 18 13  1  0
  1 27  1  0
  1 28  1  0
  1 29  1  0
  2 30  1  0
  2 31  1  0
  4 32  1  0
  4 33  1  0
  4 34  1  0
  5 35  1  0
  5 36  1  0
  6 37  1  0
  6 38  1  0
  7 39  1  0
  7 40  1  0
 12 41  1  0
 12 42  1  0
 12 43  1  0
 14 44  1  0
 15 45  1  0
 16 46  1  0
 17 47  1  0
 21 48  1  0
 22 49  1  0
 23 50  1  0
M  CHG  2   7   1  11   1
M  END
>  <UniqueID>  (22) 
21

>  <SMILES>  (22) 
CCN(C)CC[NH2+]c1c2c([n+](C)c3ccccc13)-c1ncccc1C2=O

>  <Energy>  (22) 
107.5743315581883

>  <Genealogy>  (22) 
CCN(C)CC[NH2+]c1c2c([n+](C)c3ccccc13)-c1ncccc1C2=O (protonated)
CCN(C)CC[NH2+]c1c2c([n+](C)c3ccccc13)-c1ncccc1C2=O (3D coordinates assigned)
CCN(C)CC[NH2+]c1c2c([n+](C)c3ccccc13)-c1ncccc1C2=O (nonaromatic ring conformer: 107.5743315581883 kcal/mol)

>  <smiles>  (22) 
CCN(C)CCNc1c2c([n+](C)c3ccccc13)-c1ncccc1C2=O

>  <score_type>  (22) 
oracle

>  <origin>  (22) 
adg

>  <m_score__min__energy>  (22) 
-4.4699999999999998

>  <m_primary>  (22) 
energy

$$$$
22:0
     RDKit          3D

 57 59  0  0  0  0  0  0  0  0999 V2000
   63.3110   33.8330   46.7520 C   0  0  0  0  0  0  0  0  0  0  0  0
   63.1990   32.3570   47.1190 C   0  0  0  0  0  0  0  0  0  0  0  0
   62.5070   32.2140   48.4060 N   0  0  0  0  0  0  0  0  0  0  0  0
   63.4500   31.9180   49.4970 C   0  0  0  0  0  0  0  0  0  0  0  0
   63.8650   33.1930   50.2440 C   0  0  0  0  0  0  0  0  0  0  0  0
   62.6840   33.8580   50.9550 C   0  0  0  0  0  0  0  0  0  0  0  0
   61.5160   33.1110   50.6900 O   0  0  0  0  0  0  0  0  0  0  0  0
   60.3590   33.8300   51.0720 C   0  0  0  0  0  0  0  0  0  0  0  0
   59.1260   32.9160   51.1700 C   0  0  0  0  0  0  0  0  0  0  0  0
   58.8000   32.1740   49.8600 C   0  0  0  0  0  0  0  0  0  0  0  0
   59.9920   31.9900   49.0040 N   0  0  0  0  0  0  0  0  0  0  0  0
   59.6490   31.3460   47.7460 C   0  0  0  0  0  0  0  0  0  0  0  0
   59.7660   29.9280   47.6450 C   0  0  0  0  0  0  0  0  0  0  0  0
   60.3520   29.1530   48.6810 C   0  0  0  0  0  0  0  0  0  0  0  0
   60.4170   27.7660   48.5980 C   0  0  0  0  0  0  0  0  0  0  0  0
   59.8940   27.1100   47.4960 C   0  0  0  0  0  0  0  0  0  0  0  0
   59.3250   27.8390   46.4580 C   0  0  0  0  0  0  0  0  0  0  0  0
   59.2800   29.2580   46.4900 C   0  0  0  0  0  0  0  0  0  0  0  0
   58.7420   29.9760   45.4470 N   0  0  0  0  0  0  0  0  0  0  0  0
   58.4960   29.3090   44.1450 C   0  0  0  0  0  0  0  0  0  0  0  0
   58.4670   31.3190   45.5930 C   0  0  0  0  0  0  0  0  0  0  0  0
   57.6000   31.9740   44.6830 C   0  0  0  0  0  0  0  0  0  0  0  0
   57.3990   33.3440   44.7380 C   0  0  0  0  0  0  0  0  0  0  0  0
   58.0870   34.1050   45.6620 C   0  0  0  0  0  0  0  0  0  0  0  0
   58.9220   33.5030   46.6080 C   0  0  0  0  0  0  0  0  0  0  0  0
   59.8990   34.6680   47.5030 Cl  0  0  0  0  0  0  0  0  0  0  0  0
   59.0360   32.0700   46.6690 C   0  0  0  0  0  0  0  0  0  0  0  0
   63.3568   34.4367   47.6704 H   0  0  0  0  0  0  0  0  0  0  0  0
   64.2241   33.9955   46.1605 H   0  0  0  0  0  0  0  0  0  0  0  0
   62.4329   34.1314   46.1605 H   0  0  0  0  0  0  0  0  0  0  0  0
   62.6311   31.8291   46.3387 H   0  0  0  0  0  0  0  0  0  0  0  0
   64.2078   31.9260   47.2000 H   0  0  0  0  0  0  0  0  0  0  0  0
   62.0600   33.1360   48.6250 H   0  0  0  0  0  0  0  0  0  0  0  0
   62.9701   31.2282   50.2068 H   0  0  0  0  0  0  0  0  0  0  0  0
   64.3522   31.4653   49.0598 H   0  0  0  0  0  0  0  0  0  0  0  0
   64.6278   32.9324   50.9925 H   0  0  0  0  0  0  0  0  0  0  0  0
   64.2572   33.9053   49.5032 H   0  0  0  0  0  0  0  0  0  0  0  0
   62.8702   33.8814   52.0389 H   0  0  0  0  0  0  0  0  0  0  0  0
   62.5599   34.8885   50.5908 H   0  0  0  0  0  0  0  0  0  0  0  0
   60.5364   34.2952   52.0529 H   0  0  0  0  0  0  0  0  0  0  0  0
   60.1602   34.5917   50.3037 H   0  0  0  0  0  0  0  0  0  0  0  0
   59.3092   32.1687   51.9561 H   0  0  0  0  0  0  0  0  0  0  0  0
   58.2646   33.5613   51.3971 H   0  0  0  0  0  0  0  0  0  0  0  0
   58.3870   31.1850   50.1077 H   0  0  0  0  0  0  0  0  0  0  0  0
   58.0763   32.7846   49.3001 H   0  0  0  0  0  0  0  0  0  0  0  0
   60.7460   31.4720   49.4940 H   0  0  0  0  0  0  0  0  0  0  0  0
   60.4530   32.9080   48.8110 H   0  0  0  0  0  0  0  0  0  0  0  0
   60.7627   29.6598   49.5667 H   0  0  0  0  0  0  0  0  0  0  0  0
   60.8848   27.1890   49.4093 H   0  0  0  0  0  0  0  0  0  0  0  0
   59.9289   26.0119   47.4421 H   0  0  0  0  0  0  0  0  0  0  0  0
   58.9010   27.3058   45.5943 H   0  0  0  0  0  0  0  0  0  0  0  0
   58.1202   28.2901   44.3202 H   0  0  0  0  0  0  0  0  0  0  0  0
   57.7500   29.8819   43.5747 H   0  0  0  0  0  0  0  0  0  0  0  0
   59.4353   29.2604   43.5747 H   0  0  0  0  0  0  0  0  0  0  0  0
   57.0760   31.3828   43.9175 H   0  0  0  0  0  0  0  0  0  0  0  0
   56.6919   33.8248   44.0460 H   0  0  0  0  0  0  0  0  0  0  0  0
   57.9767   35.1994   45.6537 H   0  0  0  0  0  0  0  0  0  0  0  0
  1  2  1  0
  2  3  1  0
  3  4  1  0
  4  5  1  0
  5  6  1  0
  6  7  1  0
  7  8  1  0
  8  9  1  0
  9 10  1  0
 10 11  1  0
 11 12  1  0
 12 13  2  0
 13 14  1  0
 14 15  2  0
 15 16  1  0
 16 17  2  0
 17 18  1  0
 18 19  2  0
 19 20  1  0
 19 21  1  0
 21 22  2  0
 22 23  1  0
 23 24  2  0
 24 25  1  0
 25 26  1  0
 25 27  2  0
 27 12  1  0
 18 13  1  0
 27 21  1  0
  1 28  1  0
  1 29  1  0
  1 30  1  0
  2 31  1  0
  2 32  1  0
  3 33  1  0
  4 34  1  0
  4 35  1  0
  5 36  1  0
  5 37  1  0
  6 38  1  0
  6 39  1  0
  8 40  1  0
  8 41  1  0
  9 42  1  0
  9 43  1  0
 10 44  1  0
 10 45  1  0
 11 46  1  0
 11 47  1  0
 14 48  1  0
 15 49  1  0
 16 50  1  0
 17 51  1  0
 20 52  1  0
 20 53  1  0
 20 54  1  0
 22 55  1  0
 23 56  1  0
 24 57  1  0
M  CHG  2  11   1  19   1
M  END
>  <UniqueID>  (23) 
22

>  <SMILES>  (23) 
CCNCCCOCCC[NH2+]c1c2ccccc2[n+](C)c2cccc(Cl)c12

>  <Energy>  (23) 
91.15398845534493

>  <Genealogy>  (23) 
CCNCCCOCCC[NH2+]c1c2ccccc2[n+](C)c2cccc(Cl)c12 (protonated)
CCNCCCOCCC[NH2+]c1c2ccccc2[n+](C)c2cccc(Cl)c12 (3D coordinates assigned)
CCNCCCOCCC[NH2+]c1c2ccccc2[n+](C)c2cccc(Cl)c12 (optimized conformer: 91.15398845534493 kcal/mol)

>  <smiles>  (23) 
CCNCCCOCCCNc1c2ccccc2[n+](C)c2cccc(Cl)c12

>  <score_type>  (23) 
oracle

>  <origin>  (23) 
adg

>  <m_score__min__energy>  (23) 
-4.1699999999999999

>  <m_primary>  (23) 
energy

$$$$
23:0
     RDKit          3D

 70 73  0  0  0  0  0  0  0  0999 V2000
   60.8160   30.2340   47.8840 C   0  0  0  0  0  0  0  0  0  0  0  0
   61.6610   31.4530   47.5040 C   0  0  0  0  0  0  0  0  0  0  0  0
   62.5350   31.8920   48.6060 N   0  0  0  0  0  0  0  0  0  0  0  0
   63.6840   32.6840   48.1400 C   0  0  0  0  0  0  0  0  0  0  0  0
   64.4150   33.3020   49.3300 C   0  0  0  0  0  0  0  0  0  0  0  0
   63.6960   33.0190   50.5120 O   0  0  0  0  0  0  0  0  0  0  0  0
   64.6020   32.7940   51.5720 C   0  0  0  0  0  0  0  0  0  0  0  0
   64.2520   33.7250   52.7340 C   0  0  0  0  0  0  0  0  0  0  0  0
   63.8330   32.9450   53.9870 C   0  0  0  0  0  0  0  0  0  0  0  0
   62.4350   33.0810   54.2440 O   0  0  0  0  0  0  0  0  0  0  0  0
   61.4030   32.6990   53.3710 C   0  0  0  0  0  0  0  0  0  0  0  0
   60.4690   31.7600   53.8270 C   0  0  0  0  0  0  0  0  0  0  0  0
   59.4300   31.3260   53.0000 C   0  0  0  0  0  0  0  0  0  0  0  0
   59.3050   31.8380   51.6990 C   0  0  0  0  0  0  0  0  0  0  0  0
   58.2880   31.4240   50.8230 C   0  0  0  0  0  0  0  0  0  0  0  0
   57.4420   30.5590   51.1740 O   0  0  0  0  0  0  0  0  0  0  0  0
   58.2200   31.9770   49.5420 C   0  0  0  0  0  0  0  0  0  0  0  0
   59.1660   32.9450   49.1570 C   0  0  0  0  0  0  0  0  0  0  0  0
   59.1410   33.5790   47.8120 C   0  0  0  0  0  0  0  0  0  0  0  0
   59.9820   34.6590   47.4850 C   0  0  0  0  0  0  0  0  0  0  0  0
   59.9380   35.2270   46.2110 C   0  0  0  0  0  0  0  0  0  0  0  0
   59.0780   34.7140   45.2400 C   0  0  0  0  0  0  0  0  0  0  0  0
   58.2590   33.6130   45.5310 C   0  0  0  0  0  0  0  0  0  0  0  0
   57.3540   33.0380   44.4650 C   0  0  0  0  0  0  0  0  0  0  0  0
   57.8610   31.7770   43.8780 N   0  0  0  0  0  0  0  0  0  0  0  0
   57.0140   31.1730   42.8200 C   0  0  0  0  0  0  0  0  0  0  0  0
   56.7590   29.6740   43.0240 C   0  0  0  0  0  0  0  0  0  0  0  0
   56.4200   29.3930   44.4840 C   0  0  0  0  0  0  0  0  0  0  0  0
   57.5740   29.7910   45.4160 C   0  0  0  0  0  0  0  0  0  0  0  0
   58.5270   30.8450   44.8120 C   0  0  0  0  0  0  0  0  0  0  0  0
   58.2800   33.0660   46.8250 C   0  0  0  0  0  0  0  0  0  0  0  0
   60.1230   33.3020   50.0120 O   0  0  0  0  0  0  0  0  0  0  0  0
   60.2310   32.7980   51.2380 C   0  0  0  0  0  0  0  0  0  0  0  0
   61.2720   33.2250   52.0710 C   0  0  0  0  0  0  0  0  0  0  0  0
   60.7603   30.1536   48.9796 H   0  0  0  0  0  0  0  0  0  0  0  0
   59.8022   30.3480   47.4727 H   0  0  0  0  0  0  0  0  0  0  0  0
   61.2785   29.3246   47.4727 H   0  0  0  0  0  0  0  0  0  0  0  0
   62.2871   31.1934   46.6376 H   0  0  0  0  0  0  0  0  0  0  0  0
   60.9739   32.2793   47.2693 H   0  0  0  0  0  0  0  0  0  0  0  0
   61.9810   32.4530   49.2930 H   0  0  0  0  0  0  0  0  0  0  0  0
   64.3757   32.0308   47.5878 H   0  0  0  0  0  0  0  0  0  0  0  0
   63.3228   33.4888   47.4829 H   0  0  0  0  0  0  0  0  0  0  0  0
   65.4263   32.8754   49.4030 H   0  0  0  0  0  0  0  0  0  0  0  0
   64.4901   34.3909   49.1938 H   0  0  0  0  0  0  0  0  0  0  0  0
   64.5291   31.7476   51.9033 H   0  0  0  0  0  0  0  0  0  0  0  0
   65.6286   32.9949   51.2317 H   0  0  0  0  0  0  0  0  0  0  0  0
   65.1323   34.3388   52.9753 H   0  0  0  0  0  0  0  0  0  0  0  0
   63.4034   34.3525   52.4239 H   0  0  0  0  0  0  0  0  0  0  0  0
   64.0678   31.8804   53.8406 H   0  0  0  0  0  0  0  0  0  0  0  0
   64.3837   33.3523   54.8477 H   0  0  0  0  0  0  0  0  0  0  0  0
   60.5546   31.3597   54.8480 H   0  0  0  0  0  0  0  0  0  0  0  0
   58.7088   30.5819   53.3689 H   0  0  0  0  0  0  0  0  0  0  0  0
   57.4344   31.6588   48.8409 H   0  0  0  0  0  0  0  0  0  0  0  0
   60.6779   35.0577   48.2378 H   0  0  0  0  0  0  0  0  0  0  0  0
   60.5849   36.0838   45.9713 H   0  0  0  0  0  0  0  0  0  0  0  0
   59.0419   35.1748   44.2418 H   0  0  0  0  0  0  0  0  0  0  0  0
   56.3687   32.8421   44.9131 H   0  0  0  0  0  0  0  0  0  0  0  0
   57.3025   33.7763   43.6512 H   0  0  0  0  0  0  0  0  0  0  0  0
   56.0448   31.6932   42.8102 H   0  0  0  0  0  0  0  0  0  0  0  0
   57.5554   31.2833   41.8688 H   0  0  0  0  0  0  0  0  0  0  0  0
   55.9186   29.3583   42.3883 H   0  0  0  0  0  0  0  0  0  0  0  0
   57.6660   29.1146   42.7513 H   0  0  0  0  0  0  0  0  0  0  0  0
   55.5234   29.9674   44.7598 H   0  0  0  0  0  0  0  0  0  0  0  0
   56.2427   28.3131   44.5957 H   0  0  0  0  0  0  0  0  0  0  0  0
   57.1459   30.2009   46.3427 H   0  0  0  0  0  0  0  0  0  0  0  0
   58.1703   28.8838   45.5933 H   0  0  0  0  0  0  0  0  0  0  0  0
   58.9649   31.4300   45.6342 H   0  0  0  0  0  0  0  0  0  0  0  0
   59.2887   30.2994   44.2357 H   0  0  0  0  0  0  0  0  0  0  0  0
   57.6142   32.2253   47.0695 H   0  0  0  0  0  0  0  0  0  0  0  0
   61.9908   33.9746   51.7086 H   0  0  0  0  0  0  0  0  0  0  0  0
  1  2  1  0
  2  3  1  0
  3  4  1  0
  4  5  1  0
  5  6  1  0
  6  7  1  0
  7  8  1  0
  8  9  1  0
  9 10  1  0
 10 11  1  0
 11 12  2  0
 12 13  1  0
 13 14  2  0
 14 15  1  0
 15 16  2  0
 15 17  1  0
 17 18  2  0
 18 19  1  0
 19 20  2  0
 20 21  1  0
 21 22  2  0
 22 23  1  0
 23 24  1  0
 24 25  1  0
 25 26  1  0
 26 27  1  0
 27 28  1  0
 28 29  1  0
 29 30  1  0
 23 31  2  0
 18 32  1  0
 32 33  1  0
 33 34  2  0
 34 11  1  0
 33 14  1  0
 31 19  1  0
 30 25  1  0
  1 35  1  0
  1 36  1  0
  1 37  1  0
  2 38  1  0
  2 39  1  0
  3 40  1  0
  4 41  1  0
  4 42  1  0
  5 43  1  0
  5 44  1  0
  7 45  1  0
  7 46  1  0
  8 47  1  0
  8 48  1  0
  9 49  1  0
  9 50  1  0
 12 51  1  0
 13 52  1  0
 17 53  1  0
 20 54  1  0
 21 55  1  0
 22 56  1  0
 24 57  1  0
 24 58  1  0
 26 59  1  0
 26 60  1  0
 27 61  1  0
 27 62  1  0
 28 63  1  0
 28 64  1  0
 29 65  1  0
 29 66  1  0
 30 67  1  0
 30 68  1  0
 31 69  1  0
 34 70  1  0
M  END
>  <UniqueID>  (24) 
23

>  <SMILES>  (24) 
CCNCCOCCCOc1ccc2c(=O)cc(-c3cccc(CN4CCCCC4)c3)oc2c1

>  <Energy>  (24) 
85.9438059418994

>  <Genealogy>  (24) 
CCNCCOCCCOc1ccc2c(=O)cc(-c3cccc(CN4CCCCC4)c3)oc2c1 (3D coordinates assigned)
CCNCCOCCCOc1ccc2c(=O)cc(-c3cccc(CN4CCCCC4)c3)oc2c1 (nonaromatic ring conformer: 85.9438059418994 kcal/mol)

>  <smiles>  (24) 
CCNCCOCCCOc1ccc2c(=O)cc(-c3cccc(CN4CCCCC4)c3)oc2c1

>  <score_type>  (24) 
oracle

>  <origin>  (24) 
adg

>  <m_score__min__energy>  (24) 
-8.3399999999999999

>  <m_primary>  (24) 
energy

$$$$
