0:0
     RDKit          3D

 62 65  0  0  0  0  0  0  0  0999 V2000
   58.7220   34.5680   46.4050 C   0  0  0  0  0  0  0  0  0  0  0  0
   57.3990   33.8710   46.0620 C   0  0  0  0  0  0  0  0  0  0  0  0
   57.5020   33.0420   44.7560 C   0  0  0  0  0  0  0  0  0  0  0  0
   57.2380   31.5920   44.9390 N   0  0  1  0  0  0  0  0  0  0  0  0
   57.3520   30.8360   43.6730 C   0  0  0  0  0  0  0  0  0  0  0  0
   56.7700   29.4310   43.8520 C   0  0  0  0  0  0  0  0  0  0  0  0
   57.4480   28.7230   44.9850 C   0  0  0  0  0  0  0  0  0  0  0  0
   57.4320   27.3260   45.0320 C   0  0  0  0  0  0  0  0  0  0  0  0
   58.1560   26.6530   46.0090 C   0  0  0  0  0  0  0  0  0  0  0  0
   58.9290   27.3670   46.9280 C   0  0  0  0  0  0  0  0  0  0  0  0
   58.9200   28.7750   46.9290 C   0  0  0  0  0  0  0  0  0  0  0  0
   58.1100   29.4550   45.9910 C   0  0  0  0  0  0  0  0  0  0  0  0
   58.0480   30.9790   46.0470 C   0  0  1  0  0  0  0  0  0  0  0  0
   59.5040   31.4930   46.1890 C   0  0  0  0  0  0  0  0  0  0  0  0
   60.1260   30.9180   47.4550 C   0  0  0  0  0  0  0  0  0  0  0  0
   61.0100   31.6800   48.2630 C   0  0  0  0  0  0  0  0  0  0  0  0
   61.2720   33.0660   47.9730 N   0  0  0  0  0  0  0  0  0  0  0  0
   61.9000   33.5040   46.7260 C   0  0  0  0  0  0  0  0  0  0  0  0
   63.4380   33.5430   46.8530 C   0  0  0  0  0  0  0  0  0  0  0  0
   63.9670   32.6100   47.8650 N   0  0  0  0  0  0  0  0  0  0  0  0
   64.2620   33.2220   49.1710 C   0  0  0  0  0  0  0  0  0  0  0  0
   65.0770   32.2920   50.0660 C   0  0  0  0  0  0  0  0  0  0  0  0
   61.5770   31.0940   49.4040 C   0  0  0  0  0  0  0  0  0  0  0  0
   61.2840   29.7810   49.7650 C   0  0  0  0  0  0  0  0  0  0  0  0
   61.8800   29.2660   50.9280 O   0  0  0  0  0  0  0  0  0  0  0  0
   62.9380   29.9020   51.6430 C   0  0  0  0  0  0  0  0  0  0  0  0
   60.4060   29.0250   48.9710 C   0  0  0  0  0  0  0  0  0  0  0  0
   59.8370   29.5740   47.8060 C   0  0  0  0  0  0  0  0  0  0  0  0
   58.8331   34.6265   47.4978 H   0  0  0  0  0  0  0  0  0  0  0  0
   59.5594   33.9940   45.9816 H   0  0  0  0  0  0  0  0  0  0  0  0
   58.7221   35.5832   45.9816 H   0  0  0  0  0  0  0  0  0  0  0  0
   57.1267   33.1988   46.8890 H   0  0  0  0  0  0  0  0  0  0  0  0
   56.6342   34.6474   45.9127 H   0  0  0  0  0  0  0  0  0  0  0  0
   56.7711   33.4386   44.0359 H   0  0  0  0  0  0  0  0  0  0  0  0
   58.5390   33.1345   44.4010 H   0  0  0  0  0  0  0  0  0  0  0  0
   56.2380   31.5190   45.2450 H   0  0  0  0  0  0  0  0  0  0  0  0
   56.7976   31.3626   42.8823 H   0  0  0  0  0  0  0  0  0  0  0  0
   58.4127   30.7561   43.3926 H   0  0  0  0  0  0  0  0  0  0  0  0
   55.6939   29.5094   44.0662 H   0  0  0  0  0  0  0  0  0  0  0  0
   56.9316   28.8583   42.9268 H   0  0  0  0  0  0  0  0  0  0  0  0
   56.8454   26.7584   44.2945 H   0  0  0  0  0  0  0  0  0  0  0  0
   58.1203   25.5547   46.0588 H   0  0  0  0  0  0  0  0  0  0  0  0
   59.5496   26.8248   47.6566 H   0  0  0  0  0  0  0  0  0  0  0  0
   57.4793   31.3134   46.9272 H   0  0  0  0  0  0  0  0  0  0  0  0
   60.0916   31.1751   45.3151 H   0  0  0  0  0  0  0  0  0  0  0  0
   59.5001   32.5913   46.2494 H   0  0  0  0  0  0  0  0  0  0  0  0
   61.2840   33.7340   48.7760 H   0  0  0  0  0  0  0  0  0  0  0  0
   61.6249   32.8053   45.9221 H   0  0  0  0  0  0  0  0  0  0  0  0
   61.5457   34.5202   46.4984 H   0  0  0  0  0  0  0  0  0  0  0  0
   63.8749   33.2833   45.8775 H   0  0  0  0  0  0  0  0  0  0  0  0
   63.7111   34.5589   47.1744 H   0  0  0  0  0  0  0  0  0  0  0  0
   64.8450   32.1730   47.4970 H   0  0  0  0  0  0  0  0  0  0  0  0
   64.8321   34.1486   49.0086 H   0  0  0  0  0  0  0  0  0  0  0  0
   63.3057   33.4270   49.6745 H   0  0  0  0  0  0  0  0  0  0  0  0
   64.8720   32.5259   51.1211 H   0  0  0  0  0  0  0  0  0  0  0  0
   64.7977   31.2480   49.8609 H   0  0  0  0  0  0  0  0  0  0  0  0
   66.1486   32.4319   49.8609 H   0  0  0  0  0  0  0  0  0  0  0  0
   62.2669   31.6830   50.0262 H   0  0  0  0  0  0  0  0  0  0  0  0
   62.7644   29.7977   52.7242 H   0  0  0  0  0  0  0  0  0  0  0  0
   63.8954   29.4296   51.3781 H   0  0  0  0  0  0  0  0  0  0  0  0
   62.9700   30.9691   51.3781 H   0  0  0  0  0  0  0  0  0  0  0  0
   60.1603   27.9931   49.2624 H   0  0  0  0  0  0  0  0  0  0  0  0
  1  2  1  0
  2  3  1  0
  3  4  1  0
  4  5  1  0
  5  6  1  0
  6  7  1  0
  7  8  2  0
  8  9  1  0
  9 10  2  0
 10 11  1  0
 11 12  2  0
 12 13  1  0
 13 14  1  0
 14 15  1  0
 15 16  2  0
 16 17  1  0
 17 18  1  0
 18 19  1  0
 19 20  1  0
 20 21  1  0
 21 22  1  0
 16 23  1  0
 23 24  2  0
 24 25  1  0
 25 26  1  0
 24 27  1  0
 27 28  2  0
 13  4  1  0
 28 15  1  0
 12  7  1  0
 28 11  1  0
  1 29  1  0
  1 30  1  0
  1 31  1  0
  2 32  1  0
  2 33  1  0
  3 34  1  0
  3 35  1  0
  4 36  1  1
  5 37  1  0
  5 38  1  0
  6 39  1  0
  6 40  1  0
  8 41  1  0
  9 42  1  0
 10 43  1  0
 13 44  1  1
 14 45  1  0
 14 46  1  0
 17 47  1  0
 18 48  1  0
 18 49  1  0
 19 50  1  0
 19 51  1  0
 20 52  1  0
 21 53  1  0
 21 54  1  0
 22 55  1  0
 22 56  1  0
 22 57  1  0
 23 58  1  0
 26 59  1  0
 26 60  1  0
 26 61  1  0
 27 62  1  0
M  CHG  1   4   1
M  END
>  <UniqueID>  (1) 
1

>  <SMILES>  (1) 
CCC[N@H+]1CCc2cccc3c2[C@H]1Cc1c(NCCNCC)cc(OC)cc1-3

>  <Energy>  (1) 
88.27073195276613

>  <Genealogy>  (1) 
CCC[NH+]1CCc2cccc3c2C1Cc1c(NCCNCC)cc(OC)cc1-3 (protonated)
CCC[N@H+]1CCc2cccc3c2[C@H]1Cc1c(NCCNCC)cc(OC)cc1-3 (chirality)
CCC[N@H+]1CCc2cccc3c2[C@H]1Cc1c(NCCNCC)cc(OC)cc1-3 (3D coordinates assigned)
CCC[N@H+]1CCc2cccc3c2[C@H]1Cc1c(NCCNCC)cc(OC)cc1-3 (nonaromatic ring conformer: 88.27073195276613 kcal/mol)

>  <smiles>  (1) 
CCCN1CCc2cccc3c2C1Cc1c(NCCNCC)cc(OC)cc1-3

>  <score_type>  (1) 
oracle

>  <origin>  (1) 
adg

>  <m_score__min__energy>  (1) 
-6.2199999999999998

>  <m_primary>  (1) 
energy

$$$$
1:0
     RDKit          3D

 62 65  0  0  0  0  0  0  0  0999 V2000
   59.9000   29.4490   46.6300 C   0  0  0  0  0  0  0  0  0  0  0  0
   58.4200   29.6500   46.9730 C   0  0  0  0  0  0  0  0  0  0  0  0
   57.6440   30.1670   45.8340 N   0  0  0  0  0  0  0  0  0  0  0  0
   58.4860   30.4290   44.6600 C   0  0  0  0  0  0  0  0  0  0  0  0
   57.6820   31.2070   43.6170 C   0  0  0  0  0  0  0  0  0  0  0  0
   57.7550   32.7190   43.8530 C   0  0  0  0  0  0  0  0  0  0  0  0
   57.4310   33.0060   45.2540 N   0  0  0  0  0  0  0  0  0  0  0  0
   58.0450   34.2630   45.6960 C   0  0  0  0  0  0  0  0  0  0  0  0
   58.5690   34.1260   47.1290 C   0  0  0  0  0  0  0  0  0  0  0  0
   58.9330   32.7390   47.4450 N   0  0  0  0  0  0  0  0  0  0  0  0
   60.0540   32.4060   48.2820 C   0  0  0  0  0  0  0  0  0  0  0  0
   59.8480   31.7000   49.4790 C   0  0  0  0  0  0  0  0  0  0  0  0
   60.9510   31.2340   50.2110 C   0  0  0  0  0  0  0  0  0  0  0  0
   62.1990   31.7700   49.9570 N   0  0  0  0  0  0  0  0  0  0  0  0
   63.2010   31.8790   51.0380 C   0  0  0  0  0  0  0  0  0  0  0  0
   62.4430   32.4090   48.7580 C   0  0  0  0  0  0  0  0  0  0  0  0
   63.7560   32.7650   48.3650 C   0  0  0  0  0  0  0  0  0  0  0  0
   63.9860   33.4600   47.1770 C   0  0  0  0  0  0  0  0  0  0  0  0
   62.9190   33.8260   46.3640 C   0  0  0  0  0  0  0  0  0  0  0  0
   61.6180   33.4810   46.7210 C   0  0  0  0  0  0  0  0  0  0  0  0
   61.3640   32.7420   47.8960 C   0  0  0  0  0  0  0  0  0  0  0  0
   60.7000   30.1510   51.2270 C   0  0  0  0  0  0  0  0  0  0  0  0
   61.7470   29.3220   51.6840 C   0  0  0  0  0  0  0  0  0  0  0  0
   61.5030   28.3520   52.6510 C   0  0  0  0  0  0  0  0  0  0  0  0
   60.2130   28.1570   53.1200 C   0  0  0  0  0  0  0  0  0  0  0  0
   59.1700   28.8890   52.5610 C   0  0  0  0  0  0  0  0  0  0  0  0
   59.4100   29.8390   51.6040 N   0  0  0  0  0  0  0  0  0  0  0  0
   58.2460   30.3110   50.8370 C   0  0  0  0  0  0  0  0  0  0  0  0
   58.4860   31.6330   50.1190 C   0  0  0  0  0  0  0  0  0  0  0  0
   60.4841   29.3697   47.5587 H   0  0  0  0  0  0  0  0  0  0  0  0
   60.0182   28.5266   46.0425 H   0  0  0  0  0  0  0  0  0  0  0  0
   60.2600   30.3065   46.0425 H   0  0  0  0  0  0  0  0  0  0  0  0
   57.9944   28.6834   47.2804 H   0  0  0  0  0  0  0  0  0  0  0  0
   58.3617   30.3925   47.7825 H   0  0  0  0  0  0  0  0  0  0  0  0
   57.1610   31.0550   46.1150 H   0  0  0  0  0  0  0  0  0  0  0  0
   59.3627   31.0205   44.9626 H   0  0  0  0  0  0  0  0  0  0  0  0
   58.8185   29.4737   44.2277 H   0  0  0  0  0  0  0  0  0  0  0  0
   58.0841   30.9829   42.6180 H   0  0  0  0  0  0  0  0  0  0  0  0
   56.6291   30.8991   43.6981 H   0  0  0  0  0  0  0  0  0  0  0  0
   58.7708   33.0773   43.6297 H   0  0  0  0  0  0  0  0  0  0  0  0
   57.0360   33.2301   43.1959 H   0  0  0  0  0  0  0  0  0  0  0  0
   57.8090   32.2270   45.8420 H   0  0  0  0  0  0  0  0  0  0  0  0
   58.8813   34.5130   45.0266 H   0  0  0  0  0  0  0  0  0  0  0  0
   57.2872   35.0598   45.6677 H   0  0  0  0  0  0  0  0  0  0  0  0
   59.4581   34.7631   47.2457 H   0  0  0  0  0  0  0  0  0  0  0  0
   57.7687   34.4353   47.8173 H   0  0  0  0  0  0  0  0  0  0  0  0
   58.4030   31.9640   46.9890 H   0  0  0  0  0  0  0  0  0  0  0  0
   62.6955   31.8240   52.0134 H   0  0  0  0  0  0  0  0  0  0  0  0
   63.9238   31.0542   50.9526 H   0  0  0  0  0  0  0  0  0  0  0  0
   63.7295   32.8399   50.9526 H   0  0  0  0  0  0  0  0  0  0  0  0
   64.6069   32.4897   49.0054 H   0  0  0  0  0  0  0  0  0  0  0  0
   65.0139   33.7189   46.8830 H   0  0  0  0  0  0  0  0  0  0  0  0
   63.1029   34.3891   45.4371 H   0  0  0  0  0  0  0  0  0  0  0  0
   60.7787   33.7881   46.0797 H   0  0  0  0  0  0  0  0  0  0  0  0
   62.7604   29.4434   51.2737 H   0  0  0  0  0  0  0  0  0  0  0  0
   62.3306   27.7420   53.0421 H   0  0  0  0  0  0  0  0  0  0  0  0
   60.0164   27.4326   53.9241 H   0  0  0  0  0  0  0  0  0  0  0  0
   58.1379   28.7020   52.8924 H   0  0  0  0  0  0  0  0  0  0  0  0
   57.9914   29.5484   50.0863 H   0  0  0  0  0  0  0  0  0  0  0  0
   57.4307   30.4773   51.5564 H   0  0  0  0  0  0  0  0  0  0  0  0
   57.7219   31.7541   49.3370 H   0  0  0  0  0  0  0  0  0  0  0  0
   58.4274   32.4367   50.8677 H   0  0  0  0  0  0  0  0  0  0  0  0
  1  2  1  0
  2  3  1  0
  3  4  1  0
  4  5  1  0
  5  6  1  0
  6  7  1  0
  7  8  1  0
  8  9  1  0
  9 10  1  0
 10 11  1  0
 11 12  2  0
 12 13  1  0
 13 14  2  0
 14 15  1  0
 14 16  1  0
 16 17  2  0
 17 18  1  0
 18 19  2  0
 19 20  1  0
 20 21  2  0
 13 22  1  0
 22 23  2  0
 23 24  1  0
 24 25  2  0
 25 26  1  0
 26 27  2  0
 27 28  1  0
 28 29  1  0
 21 11  1  0
 27 22  1  0
 29 12  1  0
 21 16  1  0
  1 30  1  0
  1 31  1  0
  1 32  1  0
  2 33  1  0
  2 34  1  0
  3 35  1  0
  4 36  1  0
  4 37  1  0
  5 38  1  0
  5 39  1  0
  6 40  1  0
  6 41  1  0
  7 42  1  0
  8 43  1  0
  8 44  1  0
  9 45  1  0
  9 46  1  0
 10 47  1  0
 15 48  1  0
 15 49  1  0
 15 50  1  0
 17 51  1  0
 18 52  1  0
 19 53  1  0
 20 54  1  0
 23 55  1  0
 24 56  1  0
 25 57  1  0
 26 58  1  0
 28 59  1  0
 28 60  1  0
 29 61  1  0
 29 62  1  0
M  CHG  2  14   1  27   1
M  END
>  <UniqueID>  (2) 
2

>  <SMILES>  (2) 
CCNCCCNCCNc1c2c([n+](C)c3ccccc13)-c1cccc[n+]1CC2

>  <Energy>  (2) 
90.5662486168847

>  <Genealogy>  (2) 
CCNCCCNCCNc1c2c([n+](C)c3ccccc13)-c1cccc[n+]1CC2 (3D coordinates assigned)
CCNCCCNCCNc1c2c([n+](C)c3ccccc13)-c1cccc[n+]1CC2 (nonaromatic ring conformer: 90.5662486168847 kcal/mol)

>  <smiles>  (2) 
CCNCCCNCCNc1c2c([n+](C)c3ccccc13)-c1cccc[n+]1CC2

>  <score_type>  (2) 
oracle

>  <origin>  (2) 
adg

>  <m_score__min__energy>  (2) 
-5.3499999999999996

>  <m_primary>  (2) 
energy

$$$$
2:0
     RDKit          3D

 46 48  0  0  0  0  0  0  0  0999 V2000
   56.2690   30.7840   43.5290 C   0  0  0  0  0  0  0  0  0  0  0  0
   57.0500   30.2520   44.6860 C   0  0  0  0  0  0  0  0  0  0  0  0
   56.8110   29.0570   45.2620 N   0  0  0  0  0  0  0  0  0  0  0  0
   57.7290   28.8730   46.1990 N   0  0  0  0  0  0  0  0  0  0  0  0
   57.7960   27.6750   47.0290 C   0  0  0  0  0  0  0  0  0  0  0  0
   58.5640   29.9350   46.2410 C   0  0  0  0  0  0  0  0  0  0  0  0
   59.7720   30.0540   47.1230 C   0  0  0  0  0  0  0  0  0  0  0  0
   58.1680   30.8340   45.2630 C   0  0  0  0  0  0  0  0  0  0  0  0
   58.8240   32.1280   44.8690 C   0  0  0  0  0  0  0  0  0  0  0  0
   57.9830   33.2770   45.2700 N   0  0  0  0  0  0  0  0  0  0  0  0
   57.4120   33.0950   46.6230 C   0  0  0  0  0  0  0  0  0  0  0  0
   58.5090   33.0780   47.7020 C   0  0  0  0  0  0  0  0  0  0  0  0
   59.5850   34.0140   47.3560 N   0  0  0  0  0  0  0  0  0  0  0  0
   60.9200   33.7970   47.8520 C   0  0  0  0  0  0  0  0  0  0  0  0
   61.2250   34.0470   49.2000 C   0  0  0  0  0  0  0  0  0  0  0  0
   62.5160   33.8180   49.6880 C   0  0  0  0  0  0  0  0  0  0  0  0
   63.5130   33.3290   48.8350 C   0  0  0  0  0  0  0  0  0  0  0  0
   64.8410   33.0910   49.3390 C   0  0  0  0  0  0  0  0  0  0  0  0
   65.9070   32.9010   49.7430 N   0  0  0  0  0  0  0  0  0  0  0  0
   63.2140   33.0680   47.4930 C   0  0  0  0  0  0  0  0  0  0  0  0
   61.9240   33.2990   47.0040 C   0  0  0  0  0  0  0  0  0  0  0  0
   59.2790   35.1190   46.4430 C   0  0  0  0  0  0  0  0  0  0  0  0
   58.6910   34.5780   45.1250 C   0  0  0  0  0  0  0  0  0  0  0  0
   55.4135   31.3668   43.9011 H   0  0  0  0  0  0  0  0  0  0  0  0
   56.9149   31.4308   42.9170 H   0  0  0  0  0  0  0  0  0  0  0  0
   55.9036   29.9462   42.9170 H   0  0  0  0  0  0  0  0  0  0  0  0
   57.7799   27.9630   48.0905 H   0  0  0  0  0  0  0  0  0  0  0  0
   56.9326   27.0292   46.8111 H   0  0  0  0  0  0  0  0  0  0  0  0
   58.7261   27.1295   46.8111 H   0  0  0  0  0  0  0  0  0  0  0  0
   59.4605   30.0233   48.1775 H   0  0  0  0  0  0  0  0  0  0  0  0
   60.4586   29.2191   46.9190 H   0  0  0  0  0  0  0  0  0  0  0  0
   60.2825   31.0068   46.9190 H   0  0  0  0  0  0  0  0  0  0  0  0
   59.8023   32.2042   45.3661 H   0  0  0  0  0  0  0  0  0  0  0  0
   58.9521   32.1443   43.7766 H   0  0  0  0  0  0  0  0  0  0  0  0
   56.7181   33.9225   46.8321 H   0  0  0  0  0  0  0  0  0  0  0  0
   56.8884   32.1280   46.6488 H   0  0  0  0  0  0  0  0  0  0  0  0
   58.0713   33.3707   48.6678 H   0  0  0  0  0  0  0  0  0  0  0  0
   58.9279   32.0630   47.7674 H   0  0  0  0  0  0  0  0  0  0  0  0
   60.4441   34.4251   49.8761 H   0  0  0  0  0  0  0  0  0  0  0  0
   62.7483   34.0224   50.7436 H   0  0  0  0  0  0  0  0  0  0  0  0
   63.9946   32.6806   46.8217 H   0  0  0  0  0  0  0  0  0  0  0  0
   61.6939   33.0895   45.9489 H   0  0  0  0  0  0  0  0  0  0  0  0
   58.5480   35.7900   46.9178 H   0  0  0  0  0  0  0  0  0  0  0  0
   60.2066   35.6674   46.2220 H   0  0  0  0  0  0  0  0  0  0  0  0
   57.9779   35.3187   44.7340 H   0  0  0  0  0  0  0  0  0  0  0  0
   59.5377   34.4067   44.4440 H   0  0  0  0  0  0  0  0  0  0  0  0
  1  2  1  0
  2  3  2  0
  3  4  1  0
  4  5  1  0
  4  6  1  0
  6  7  1  0
  6  8  2  0
  8  9  1  0
  9 10  1  0
 10 11  1  0
 11 12  1  0
 12 13  1  0
 13 14  1  0
 14 15  2  0
 15 16  1  0
 16 17  2  0
 17 18  1  0
 18 19  3  0
 17 20  1  0
 20 21  2  0
 13 22  1  0
 22 23  1  0
  8  2  1  0
 23 10  1  0
 21 14  1  0
  1 24  1  0
  1 25  1  0
  1 26  1  0
  5 27  1  0
  5 28  1  0
  5 29  1  0
  7 30  1  0
  7 31  1  0
  7 32  1  0
  9 33  1  0
  9 34  1  0
 11 35  1  0
 11 36  1  0
 12 37  1  0
 12 38  1  0
 15 39  1  0
 16 40  1  0
 20 41  1  0
 21 42  1  0
 22 43  1  0
 22 44  1  0
 23 45  1  0
 23 46  1  0
M  END
>  <UniqueID>  (3) 
3

>  <SMILES>  (3) 
Cc1nn(C)c(C)c1CN1CCN(c2ccc(C#N)cc2)CC1

>  <Energy>  (3) 
83.87659848868613

>  <Genealogy>  (3) 
Cc1nn(C)c(C)c1CN1CCN(c2ccc(C#N)cc2)CC1 (3D coordinates assigned)
Cc1nn(C)c(C)c1CN1CCN(c2ccc(C#N)cc2)CC1 (nonaromatic ring conformer: 83.87659848868613 kcal/mol)

>  <smiles>  (3) 
Cc1nn(C)c(C)c1CN1CCN(c2ccc(C#N)cc2)CC1

>  <score_type>  (3) 
oracle

>  <origin>  (3) 
adg

>  <m_score__min__energy>  (3) 
-7.54

>  <m_primary>  (3) 
energy

$$$$
3:0
     RDKit          3D

 27 27  0  0  0  0  0  0  0  0999 V2000
   63.3790   33.8480   46.3720 C   0  0  0  0  0  0  0  0  0  0  0  0
   62.4600   32.9140   47.1590 C   0  0  0  0  0  0  0  0  0  0  0  0
   61.0470   33.1700   46.8330 N   0  0  0  0  0  0  0  0  0  0  0  0
   60.3580   33.9140   47.9030 C   0  0  0  0  0  0  0  0  0  0  0  0
   59.0610   34.5770   47.4090 C   0  0  0  0  0  0  0  0  0  0  0  0
   58.9390   34.4440   45.9930 O   0  0  0  0  0  0  0  0  0  0  0  0
   58.3630   33.3510   45.3250 C   0  0  0  0  0  0  0  0  0  0  0  0
   57.7990   32.2500   45.9980 C   0  0  0  0  0  0  0  0  0  0  0  0
   57.2560   31.2250   45.2910 N   0  0  0  0  0  0  0  0  0  0  0  0
   57.2330   31.2180   43.9310 C   0  0  0  0  0  0  0  0  0  0  0  0
   56.5100   29.8470   43.1040 Cl  0  0  0  0  0  0  0  0  0  0  0  0
   57.7810   32.2950   43.2190 C   0  0  0  0  0  0  0  0  0  0  0  0
   57.7750   32.3350   41.4620 Cl  0  0  0  0  0  0  0  0  0  0  0  0
   58.3440   33.3590   43.9270 C   0  0  0  0  0  0  0  0  0  0  0  0
   63.9740   34.4527   47.0723 H   0  0  0  0  0  0  0  0  0  0  0  0
   64.0524   33.2518   45.7387 H   0  0  0  0  0  0  0  0  0  0  0  0
   62.7720   34.5117   45.7387 H   0  0  0  0  0  0  0  0  0  0  0  0
   62.7046   31.8716   46.9070 H   0  0  0  0  0  0  0  0  0  0  0  0
   62.6113   33.0952   48.2334 H   0  0  0  0  0  0  0  0  0  0  0  0
   60.5590   32.2510   46.7160 H   0  0  0  0  0  0  0  0  0  0  0  0
   60.9770   33.6940   45.9280 H   0  0  0  0  0  0  0  0  0  0  0  0
   60.1112   33.2164   48.7169 H   0  0  0  0  0  0  0  0  0  0  0  0
   61.0334   34.7105   48.2486 H   0  0  0  0  0  0  0  0  0  0  0  0
   58.2000   34.0933   47.8935 H   0  0  0  0  0  0  0  0  0  0  0  0
   59.0887   35.6465   47.6646 H   0  0  0  0  0  0  0  0  0  0  0  0
   57.7982   32.2200   47.0976 H   0  0  0  0  0  0  0  0  0  0  0  0
   58.7760   34.2102   43.3804 H   0  0  0  0  0  0  0  0  0  0  0  0
  1  2  1  0
  2  3  1  0
  3  4  1  0
  4  5  1  0
  5  6  1  0
  6  7  1  0
  7  8  2  0
  8  9  1  0
  9 10  2  0
 10 11  1  0
 10 12  1  0
 12 13  1  0
 12 14  2  0
 14  7  1  0
  1 15  1  0
  1 16  1  0
  1 17  1  0
  2 18  1  0
  2 19  1  0
  3 20  1  0
  3 21  1  0
  4 22  1  0
  4 23  1  0
  5 24  1  0
  5 25  1  0
  8 26  1  0
 14 27  1  0
M  CHG  1   3   1
M  END
>  <UniqueID>  (4) 
4

>  <SMILES>  (4) 
CC[NH2+]CCOc1cnc(Cl)c(Cl)c1

>  <Energy>  (4) 
22.845391682390712

>  <Genealogy>  (4) 
CC[NH2+]CCOc1cnc(Cl)c(Cl)c1 (protonated)
CC[NH2+]CCOc1cnc(Cl)c(Cl)c1 (3D coordinates assigned)
CC[NH2+]CCOc1cnc(Cl)c(Cl)c1 (optimized conformer: 22.845391682390712 kcal/mol)

>  <smiles>  (4) 
CCNCCOc1cnc(Cl)c(Cl)c1

>  <score_type>  (4) 
oracle

>  <origin>  (4) 
adg

>  <m_score__min__energy>  (4) 
-3.6899999999999999

>  <m_primary>  (4) 
energy

$$$$
4:0
     RDKit          3D

 59 61  0  0  0  0  0  0  0  0999 V2000
   58.6060   32.6100   49.4920 C   0  0  0  0  0  0  0  0  0  0  0  0
   59.6450   33.7270   49.5820 C   0  0  0  0  0  0  0  0  0  0  0  0
   61.0190   33.1740   49.5730 N   0  0  0  0  0  0  0  0  0  0  0  0
   61.2110   32.1900   50.6630 C   0  0  0  0  0  0  0  0  0  0  0  0
   61.8700   32.8580   51.8670 C   0  0  0  0  0  0  0  0  0  0  0  0
   62.0350   34.2560   49.6350 C   0  0  0  0  0  0  0  0  0  0  0  0
   63.2820   33.8530   48.8500 C   0  0  0  0  0  0  0  0  0  0  0  0
   62.9220   33.4960   47.5340 O   0  0  0  0  0  0  0  0  0  0  0  0
   63.5340   32.2710   47.1900 C   0  0  0  0  0  0  0  0  0  0  0  0
   62.4830   31.1570   47.1280 C   0  0  0  0  0  0  0  0  0  0  0  0
   61.1410   31.5670   47.6090 N   0  0  0  0  0  0  0  0  0  0  0  0
   60.0850   31.2350   46.6600 C   0  0  0  0  0  0  0  0  0  0  0  0
   59.7440   29.8670   46.4160 C   0  0  0  0  0  0  0  0  0  0  0  0
   60.3920   28.7920   47.0840 C   0  0  0  0  0  0  0  0  0  0  0  0
   60.0440   27.4670   46.8410 C   0  0  0  0  0  0  0  0  0  0  0  0
   59.0310   27.1660   45.9490 C   0  0  0  0  0  0  0  0  0  0  0  0
   58.3640   28.1900   45.2860 C   0  0  0  0  0  0  0  0  0  0  0  0
   58.7120   29.5510   45.4890 C   0  0  0  0  0  0  0  0  0  0  0  0
   58.0350   30.5550   44.8370 N   0  0  0  0  0  0  0  0  0  0  0  0
   57.1700   30.2340   43.6780 C   0  0  0  0  0  0  0  0  0  0  0  0
   58.1670   31.8610   45.2510 C   0  0  0  0  0  0  0  0  0  0  0  0
   57.1790   32.8160   44.9150 C   0  0  0  0  0  0  0  0  0  0  0  0
   57.3180   34.1500   45.2630 C   0  0  0  0  0  0  0  0  0  0  0  0
   58.4710   34.5800   45.8930 C   0  0  0  0  0  0  0  0  0  0  0  0
   59.4800   33.6750   46.2420 C   0  0  0  0  0  0  0  0  0  0  0  0
   60.7180   34.2510   46.6630 N   0  0  0  0  0  0  0  0  0  0  0  0
   59.2830   32.2620   46.0460 C   0  0  0  0  0  0  0  0  0  0  0  0
   58.3151   32.2973   50.5057 H   0  0  0  0  0  0  0  0  0  0  0  0
   57.7199   32.9761   48.9528 H   0  0  0  0  0  0  0  0  0  0  0  0
   59.0351   31.7526   48.9528 H   0  0  0  0  0  0  0  0  0  0  0  0
   59.5231   34.4022   48.7222 H   0  0  0  0  0  0  0  0  0  0  0  0
   59.4926   34.2731   50.5246 H   0  0  0  0  0  0  0  0  0  0  0  0
   60.2334   31.7844   50.9626 H   0  0  0  0  0  0  0  0  0  0  0  0
   61.8604   31.3783   50.3032 H   0  0  0  0  0  0  0  0  0  0  0  0
   61.4538   32.4361   52.7937 H   0  0  0  0  0  0  0  0  0  0  0  0
   62.9549   32.6789   51.8374 H   0  0  0  0  0  0  0  0  0  0  0  0
   61.6762   33.9404   51.8374 H   0  0  0  0  0  0  0  0  0  0  0  0
   61.6140   35.1753   49.2017 H   0  0  0  0  0  0  0  0  0  0  0  0
   62.3120   34.4291   50.6854 H   0  0  0  0  0  0  0  0  0  0  0  0
   63.9842   34.6992   48.8199 H   0  0  0  0  0  0  0  0  0  0  0  0
   63.7596   32.9931   49.3424 H   0  0  0  0  0  0  0  0  0  0  0  0
   64.0184   32.3695   46.2073 H   0  0  0  0  0  0  0  0  0  0  0  0
   64.2844   32.0164   47.9529 H   0  0  0  0  0  0  0  0  0  0  0  0
   62.3900   30.8268   46.0828 H   0  0  0  0  0  0  0  0  0  0  0  0
   62.8294   30.3547   47.7961 H   0  0  0  0  0  0  0  0  0  0  0  0
   61.1330   32.5880   47.8140 H   0  0  0  0  0  0  0  0  0  0  0  0
   60.9410   31.1940   48.5600 H   0  0  0  0  0  0  0  0  0  0  0  0
   61.1877   29.0133   47.8105 H   0  0  0  0  0  0  0  0  0  0  0  0
   60.5763   26.6563   47.3600 H   0  0  0  0  0  0  0  0  0  0  0  0
   58.7533   26.1178   45.7643 H   0  0  0  0  0  0  0  0  0  0  0  0
   57.5498   27.9403   44.5898 H   0  0  0  0  0  0  0  0  0  0  0  0
   56.1952   29.8723   44.0371 H   0  0  0  0  0  0  0  0  0  0  0  0
   57.0238   31.1377   43.0682 H   0  0  0  0  0  0  0  0  0  0  0  0
   57.6487   29.4537   43.0682 H   0  0  0  0  0  0  0  0  0  0  0  0
   56.2820   32.4930   44.3662 H   0  0  0  0  0  0  0  0  0  0  0  0
   56.5129   34.8651   45.0385 H   0  0  0  0  0  0  0  0  0  0  0  0
   58.5972   35.6482   46.1232 H   0  0  0  0  0  0  0  0  0  0  0  0
   60.9280   34.3310   47.6790 H   0  0  0  0  0  0  0  0  0  0  0  0
   61.5400   34.2480   46.0200 H   0  0  0  0  0  0  0  0  0  0  0  0
  1  2  1  0
  2  3  1  0
  3  4  1  0
  4  5  1  0
  3  6  1  0
  6  7  1  0
  7  8  1  0
  8  9  1  0
  9 10  1  0
 10 11  1  0
 11 12  1  0
 12 13  2  0
 13 14  1  0
 14 15  2  0
 15 16  1  0
 16 17  2  0
 17 18  1  0
 18 19  2  0
 19 20  1  0
 19 21  1  0
 21 22  2  0
 22 23  1  0
 23 24  2  0
 24 25  1  0
 25 26  1  0
 25 27  2  0
 27 12  1  0
 18 13  1  0
 27 21  1  0
  1 28  1  0
  1 29  1  0
  1 30  1  0
  2 31  1  0
  2 32  1  0
  4 33  1  0
  4 34  1  0
  5 35  1  0
  5 36  1  0
  5 37  1  0
  6 38  1  0
  6 39  1  0
  7 40  1  0
  7 41  1  0
  9 42  1  0
  9 43  1  0
 10 44  1  0
 10 45  1  0
 11 46  1  0
 11 47  1  0
 14 48  1  0
 15 49  1  0
 16 50  1  0
 17 51  1  0
 20 52  1  0
 20 53  1  0
 20 54  1  0
 22 55  1  0
 23 56  1  0
 24 57  1  0
 26 58  1  0
 26 59  1  0
M  CHG  2  11   1  19   1
M  END
>  <UniqueID>  (5) 
5

>  <SMILES>  (5) 
CCN(CC)CCOCC[NH2+]c1c2ccccc2[n+](C)c2cccc(N)c12

>  <Energy>  (5) 
101.57395647735213

>  <Genealogy>  (5) 
CCN(CC)CCOCC[NH2+]c1c2ccccc2[n+](C)c2cccc(N)c12 (protonated)
CCN(CC)CCOCC[NH2+]c1c2ccccc2[n+](C)c2cccc(N)c12 (3D coordinates assigned)
CCN(CC)CCOCC[NH2+]c1c2ccccc2[n+](C)c2cccc(N)c12 (optimized conformer: 101.57395647735213 kcal/mol)

>  <smiles>  (5) 
CCN(CC)CCOCCNc1c2ccccc2[n+](C)c2cccc(N)c12

>  <score_type>  (5) 
oracle

>  <origin>  (5) 
adg

>  <m_score__min__energy>  (5) 
-3.2799999999999998

>  <m_primary>  (5) 
energy

$$$$
5:0
     RDKit          3D

 49 52  0  0  0  0  0  0  0  0999 V2000
   60.4340   28.7840   44.5650 C   0  0  0  0  0  0  0  0  0  0  0  0
   59.0570   28.1180   44.6150 C   0  0  0  0  0  0  0  0  0  0  0  0
   58.0730   28.7850   43.7460 N   0  0  0  0  0  0  0  0  0  0  0  0
   56.8480   29.1460   44.4700 C   0  0  0  0  0  0  0  0  0  0  0  0
   56.2820   30.4510   43.9090 C   0  0  0  0  0  0  0  0  0  0  0  0
   56.4600   31.5190   44.8390 O   0  0  0  0  0  0  0  0  0  0  0  0
   57.6890   31.9440   45.3730 C   0  0  0  0  0  0  0  0  0  0  0  0
   58.3680   33.0790   44.9060 C   0  0  0  0  0  0  0  0  0  0  0  0
   59.5840   33.4540   45.4720 C   0  0  0  0  0  0  0  0  0  0  0  0
   60.1510   32.7090   46.5180 C   0  0  0  0  0  0  0  0  0  0  0  0
   59.4740   31.5530   47.0110 C   0  0  0  0  0  0  0  0  0  0  0  0
   58.2430   31.1980   46.4180 C   0  0  0  0  0  0  0  0  0  0  0  0
   60.0370   30.6850   48.1620 C   0  0  0  0  0  0  0  0  0  0  0  0
   60.2710   29.2450   47.6640 C   0  0  0  0  0  0  0  0  0  0  0  0
   59.0470   30.6780   49.3440 C   0  0  0  0  0  0  0  0  0  0  0  0
   61.3600   31.2120   48.6750 C   0  0  0  0  0  0  0  0  0  0  0  0
   62.0720   30.6750   49.6520 O   0  0  0  0  0  0  0  0  0  0  0  0
   63.1480   31.4130   49.8040 C   0  0  0  0  0  0  0  0  0  0  0  0
   64.1830   31.2260   50.7180 C   0  0  0  0  0  0  0  0  0  0  0  0
   65.2460   32.1470   50.7050 C   0  0  0  0  0  0  0  0  0  0  0  0
   65.2510   33.2240   49.7900 C   0  0  0  0  0  0  0  0  0  0  0  0
   64.1930   33.3900   48.8780 C   0  0  0  0  0  0  0  0  0  0  0  0
   63.1530   32.4600   48.9150 C   0  0  0  0  0  0  0  0  0  0  0  0
   61.9950   32.3310   48.1820 C   0  0  0  0  0  0  0  0  0  0  0  0
   61.4450   33.1320   47.0990 C   0  0  0  0  0  0  0  0  0  0  0  0
   62.0560   34.1490   46.6760 O   0  0  0  0  0  0  0  0  0  0  0  0
   60.7944   28.9583   45.5896 H   0  0  0  0  0  0  0  0  0  0  0  0
   61.1397   28.1276   44.0347 H   0  0  0  0  0  0  0  0  0  0  0  0
   60.3576   29.7447   44.0347 H   0  0  0  0  0  0  0  0  0  0  0  0
   59.1599   27.0715   44.2920 H   0  0  0  0  0  0  0  0  0  0  0  0
   58.6900   28.1893   45.6495 H   0  0  0  0  0  0  0  0  0  0  0  0
   58.5000   29.6520   43.3430 H   0  0  0  0  0  0  0  0  0  0  0  0
   56.1040   28.3444   44.3519 H   0  0  0  0  0  0  0  0  0  0  0  0
   57.0818   29.2796   45.5365 H   0  0  0  0  0  0  0  0  0  0  0  0
   56.8031   30.6974   42.9721 H   0  0  0  0  0  0  0  0  0  0  0  0
   55.2058   30.3190   43.7237 H   0  0  0  0  0  0  0  0  0  0  0  0
   57.9378   33.6761   44.0884 H   0  0  0  0  0  0  0  0  0  0  0  0
   60.1068   34.3452   45.0946 H   0  0  0  0  0  0  0  0  0  0  0  0
   57.7059   30.3119   46.7874 H   0  0  0  0  0  0  0  0  0  0  0  0
   60.3804   28.5718   48.5270 H   0  0  0  0  0  0  0  0  0  0  0  0
   59.4133   28.9238   47.0548 H   0  0  0  0  0  0  0  0  0  0  0  0
   61.1863   29.2119   47.0548 H   0  0  0  0  0  0  0  0  0  0  0  0
   59.6066   30.6820   50.2910 H   0  0  0  0  0  0  0  0  0  0  0  0
   58.4077   31.5716   49.2921 H   0  0  0  0  0  0  0  0  0  0  0  0
   58.4204   29.7754   49.2921 H   0  0  0  0  0  0  0  0  0  0  0  0
   64.1692   30.3851   51.4270 H   0  0  0  0  0  0  0  0  0  0  0  0
   66.0799   32.0281   51.4125 H   0  0  0  0  0  0  0  0  0  0  0  0
   66.0882   33.9375   49.7910 H   0  0  0  0  0  0  0  0  0  0  0  0
   64.1856   34.2238   48.1606 H   0  0  0  0  0  0  0  0  0  0  0  0
  1  2  1  0
  2  3  1  0
  3  4  1  0
  4  5  1  0
  5  6  1  0
  6  7  1  0
  7  8  2  0
  8  9  1  0
  9 10  2  0
 10 11  1  0
 11 12  2  0
 11 13  1  0
 13 14  1  0
 13 15  1  0
 13 16  1  0
 16 17  1  0
 17 18  1  0
 18 19  2  0
 19 20  1  0
 20 21  2  0
 21 22  1  0
 22 23  2  0
 23 24  1  0
 24 25  1  0
 25 26  2  0
 12  7  1  0
 24 16  2  0
 25 10  1  0
 23 18  1  0
  1 27  1  0
  1 28  1  0
  1 29  1  0
  2 30  1  0
  2 31  1  0
  3 32  1  0
  4 33  1  0
  4 34  1  0
  5 35  1  0
  5 36  1  0
  8 37  1  0
  9 38  1  0
 12 39  1  0
 14 40  1  0
 14 41  1  0
 14 42  1  0
 15 43  1  0
 15 44  1  0
 15 45  1  0
 19 46  1  0
 20 47  1  0
 21 48  1  0
 22 49  1  0
M  END
>  <UniqueID>  (6) 
6

>  <SMILES>  (6) 
CCNCCOc1ccc2c(c1)C(C)(C)c1oc3ccccc3c1C2=O

>  <Energy>  (6) 
88.26213209161557

>  <Genealogy>  (6) 
CCNCCOc1ccc2c(c1)C(C)(C)c1oc3ccccc3c1C2=O (3D coordinates assigned)
CCNCCOc1ccc2c(c1)C(C)(C)c1oc3ccccc3c1C2=O (nonaromatic ring conformer: 88.26213209161557 kcal/mol)

>  <smiles>  (6) 
CCNCCOc1ccc2c(c1)C(C)(C)c1oc3ccccc3c1C2=O

>  <score_type>  (6) 
oracle

>  <origin>  (6) 
adg

>  <m_score__min__energy>  (6) 
-8.1400000000000006

>  <m_primary>  (6) 
energy

$$$$
6:0
     RDKit          3D

 79 83  0  0  0  0  0  0  0  0999 V2000
   60.2200   28.9390   44.8470 C   0  0  0  0  0  0  0  0  0  0  0  0
   59.3580   28.8400   46.0410 N   0  0  0  0  0  0  0  0  0  0  0  0
   59.8820   27.8000   46.9400 C   0  0  0  0  0  0  0  0  0  0  0  0
   57.9580   28.5450   45.6630 C   0  0  0  0  0  0  0  0  0  0  0  0
   57.6150   29.1380   44.2800 C   0  0  0  0  0  0  0  0  0  0  0  0
   56.9300   30.4470   44.3910 N   0  0  0  0  0  0  0  0  0  0  0  0
   57.4240   31.2210   45.5580 C   0  0  0  0  0  0  0  0  0  0  0  0
   57.2210   32.7310   45.3750 C   0  0  0  0  0  0  0  0  0  0  0  0
   57.9490   33.2530   44.1900 N   0  0  0  0  0  0  0  0  0  0  0  0
   59.2160   33.9310   44.5510 C   0  0  0  0  0  0  0  0  0  0  0  0
   59.1050   34.5820   45.9340 C   0  0  0  0  0  0  0  0  0  0  0  0
   59.7230   33.7560   46.9710 N   0  0  0  0  0  0  0  0  0  0  0  0
   59.0510   33.0100   47.9830 C   0  0  0  0  0  0  0  0  0  0  0  0
   57.7980   33.0350   48.1310 O   0  0  0  0  0  0  0  0  0  0  0  0
   59.9990   32.2140   48.8560 C   0  0  0  0  0  0  0  0  0  0  0  0
   59.9400   32.7100   50.3290 C   0  0  0  0  0  0  0  0  0  0  0  0
   59.7800   31.5580   51.3330 C   0  0  0  0  0  0  0  0  0  0  0  0
   58.6340   30.6720   51.0100 N   0  0  0  0  0  0  0  0  0  0  0  0
   57.3470   31.1920   51.5270 C   0  0  0  0  0  0  0  0  0  0  0  0
   56.8130   30.3000   52.6530 C   0  0  0  0  0  0  0  0  0  0  0  0
   55.3470   30.0240   52.4470 C   0  0  0  0  0  0  0  0  0  0  0  0
   54.7200   28.9790   53.1490 C   0  0  0  0  0  0  0  0  0  0  0  0
   53.3460   28.7600   53.0080 C   0  0  0  0  0  0  0  0  0  0  0  0
   52.5870   29.5870   52.1760 C   0  0  0  0  0  0  0  0  0  0  0  0
   53.2000   30.6370   51.4850 C   0  0  0  0  0  0  0  0  0  0  0  0
   54.5740   30.8590   51.6230 C   0  0  0  0  0  0  0  0  0  0  0  0
   58.5410   30.2650   49.5800 C   0  0  0  0  0  0  0  0  0  0  0  0
   59.7470   30.6940   48.7340 C   0  0  0  0  0  0  0  0  0  0  0  0
   61.3060   32.5820   48.1900 C   0  0  0  0  0  0  0  0  0  0  0  0
   62.5960   32.1540   48.5200 C   0  0  0  0  0  0  0  0  0  0  0  0
   63.6760   32.6170   47.7500 C   0  0  0  0  0  0  0  0  0  0  0  0
   63.4590   33.4950   46.6720 C   0  0  0  0  0  0  0  0  0  0  0  0
   62.1600   33.9200   46.3540 C   0  0  0  0  0  0  0  0  0  0  0  0
   61.0990   33.4470   47.1310 C   0  0  0  0  0  0  0  0  0  0  0  0
   58.1530   32.2350   43.1330 C   0  0  0  0  0  0  0  0  0  0  0  0
   57.0080   31.2100   43.1160 C   0  0  0  0  0  0  0  0  0  0  0  0
   61.2676   29.0593   45.1601 H   0  0  0  0  0  0  0  0  0  0  0  0
   60.1199   28.0235   44.2455 H   0  0  0  0  0  0  0  0  0  0  0  0
   59.9149   29.8080   44.2455 H   0  0  0  0  0  0  0  0  0  0  0  0
   59.7274   28.1068   47.9850 H   0  0  0  0  0  0  0  0  0  0  0  0
   59.3531   26.8537   46.7536 H   0  0  0  0  0  0  0  0  0  0  0  0
   60.9573   27.6619   46.7536 H   0  0  0  0  0  0  0  0  0  0  0  0
   57.8176   27.4545   45.6303 H   0  0  0  0  0  0  0  0  0  0  0  0
   57.2925   29.0002   46.4113 H   0  0  0  0  0  0  0  0  0  0  0  0
   58.5464   29.2719   43.7103 H   0  0  0  0  0  0  0  0  0  0  0  0
   56.9336   28.4404   43.7711 H   0  0  0  0  0  0  0  0  0  0  0  0
   56.8786   30.8958   46.4562 H   0  0  0  0  0  0  0  0  0  0  0  0
   58.5033   31.0332   45.6575 H   0  0  0  0  0  0  0  0  0  0  0  0
   56.1469   32.9317   45.2482 H   0  0  0  0  0  0  0  0  0  0  0  0
   57.6189   33.2369   46.2670 H   0  0  0  0  0  0  0  0  0  0  0  0
   60.0305   33.1918   44.5638 H   0  0  0  0  0  0  0  0  0  0  0  0
   59.4237   34.7137   43.8065 H   0  0  0  0  0  0  0  0  0  0  0  0
   59.6087   35.5596   45.9095 H   0  0  0  0  0  0  0  0  0  0  0  0
   58.0378   34.6948   46.1756 H   0  0  0  0  0  0  0  0  0  0  0  0
   60.8711   33.2495   50.5569 H   0  0  0  0  0  0  0  0  0  0  0  0
   59.0597   33.3623   50.4265 H   0  0  0  0  0  0  0  0  0  0  0  0
   60.7014   30.9572   51.3290 H   0  0  0  0  0  0  0  0  0  0  0  0
   59.5884   32.0023   52.3209 H   0  0  0  0  0  0  0  0  0  0  0  0
   57.4990   32.2101   51.9147 H   0  0  0  0  0  0  0  0  0  0  0  0
   56.6147   31.2004   50.7062 H   0  0  0  0  0  0  0  0  0  0  0  0
   57.3650   29.3485   52.6556 H   0  0  0  0  0  0  0  0  0  0  0  0
   56.9494   30.8159   53.6149 H   0  0  0  0  0  0  0  0  0  0  0  0
   55.3128   28.3313   53.8117 H   0  0  0  0  0  0  0  0  0  0  0  0
   52.8623   27.9358   53.5527 H   0  0  0  0  0  0  0  0  0  0  0  0
   51.5067   29.4121   52.0644 H   0  0  0  0  0  0  0  0  0  0  0  0
   52.6009   31.2890   50.8323 H   0  0  0  0  0  0  0  0  0  0  0  0
   55.0513   31.6908   51.0842 H   0  0  0  0  0  0  0  0  0  0  0  0
   58.4589   29.1689   49.5361 H   0  0  0  0  0  0  0  0  0  0  0  0
   57.6590   30.7706   49.1599 H   0  0  0  0  0  0  0  0  0  0  0  0
   60.6398   30.1528   49.0805 H   0  0  0  0  0  0  0  0  0  0  0  0
   59.5367   30.4579   47.6804 H   0  0  0  0  0  0  0  0  0  0  0  0
   62.7615   31.4692   49.3648 H   0  0  0  0  0  0  0  0  0  0  0  0
   64.6984   32.2909   47.9915 H   0  0  0  0  0  0  0  0  0  0  0  0
   64.3122   33.8501   46.0754 H   0  0  0  0  0  0  0  0  0  0  0  0
   61.9814   34.6080   45.5145 H   0  0  0  0  0  0  0  0  0  0  0  0
   58.1985   32.7376   42.1556 H   0  0  0  0  0  0  0  0  0  0  0  0
   59.0926   31.7023   43.3410 H   0  0  0  0  0  0  0  0  0  0  0  0
   56.0573   31.7409   42.9601 H   0  0  0  0  0  0  0  0  0  0  0  0
   57.2005   30.4960   42.3017 H   0  0  0  0  0  0  0  0  0  0  0  0
  1  2  1  0
  2  3  1  0
  2  4  1  0
  4  5  1  0
  5  6  1  0
  6  7  1  0
  7  8  1  0
  8  9  1  0
  9 10  1  0
 10 11  1  0
 11 12  1  0
 12 13  1  0
 13 14  2  0
 13 15  1  0
 15 16  1  0
 16 17  1  0
 17 18  1  0
 18 19  1  0
 19 20  1  0
 20 21  1  0
 21 22  2  0
 22 23  1  0
 23 24  2  0
 24 25  1  0
 25 26  2  0
 18 27  1  0
 27 28  1  0
 15 29  1  0
 29 30  2  0
 30 31  1  0
 31 32  2  0
 32 33  1  0
 33 34  2  0
  9 35  1  0
 35 36  1  0
 36  6  1  0
 34 12  1  0
 28 15  1  0
 34 29  1  0
 26 21  1  0
  1 37  1  0
  1 38  1  0
  1 39  1  0
  3 40  1  0
  3 41  1  0
  3 42  1  0
  4 43  1  0
  4 44  1  0
  5 45  1  0
  5 46  1  0
  7 47  1  0
  7 48  1  0
  8 49  1  0
  8 50  1  0
 10 51  1  0
 10 52  1  0
 11 53  1  0
 11 54  1  0
 16 55  1  0
 16 56  1  0
 17 57  1  0
 17 58  1  0
 19 59  1  0
 19 60  1  0
 20 61  1  0
 20 62  1  0
 22 63  1  0
 23 64  1  0
 24 65  1  0
 25 66  1  0
 26 67  1  0
 27 68  1  0
 27 69  1  0
 28 70  1  0
 28 71  1  0
 30 72  1  0
 31 73  1  0
 32 74  1  0
 33 75  1  0
 35 76  1  0
 35 77  1  0
 36 78  1  0
 36 79  1  0
M  END
>  <UniqueID>  (7) 
7

>  <SMILES>  (7) 
CN(C)CCN1CCN(CCN2C(=O)C3(CCN(CCc4ccccc4)CC3)c3ccccc32)CC1

>  <Energy>  (7) 
123.67428219467651

>  <Genealogy>  (7) 
CN(C)CCN1CCN(CCN2C(=O)C3(CCN(CCc4ccccc4)CC3)c3ccccc32)CC1 (3D coordinates assigned)
CN(C)CCN1CCN(CCN2C(=O)C3(CCN(CCc4ccccc4)CC3)c3ccccc32)CC1 (nonaromatic ring conformer: 123.67428219467651 kcal/mol)

>  <smiles>  (7) 
CN(C)CCN1CCN(CCN2C(=O)C3(CCN(CCc4ccccc4)CC3)c3ccccc32)CC1

>  <score_type>  (7) 
oracle

>  <origin>  (7) 
adg

>  <m_score__min__energy>  (7) 
-9.6300000000000008

>  <m_primary>  (7) 
energy

$$$$
7:0
     RDKit          3D

 49 51  0  0  0  0  0  0  0  0999 V2000
   63.3230   31.9720   47.9840 C   0  0  0  0  0  0  0  0  0  0  0  0
   62.4630   32.1720   49.2310 C   0  0  0  0  0  0  0  0  0  0  0  0
   62.1940   30.8850   49.8930 N   0  0  0  0  0  0  0  0  0  0  0  0
   60.7470   30.6120   50.0020 C   0  0  0  0  0  0  0  0  0  0  0  0
   60.3270   29.3350   49.2540 C   0  0  0  0  0  0  0  0  0  0  0  0
   60.7710   29.3690   47.8580 N   0  0  0  0  0  0  0  0  0  0  0  0
   59.8440   29.4660   46.7610 C   0  0  0  0  0  0  0  0  0  0  0  0
   59.3090   28.3040   46.1780 C   0  0  0  0  0  0  0  0  0  0  0  0
   59.7390   27.0250   46.5970 C   0  0  0  0  0  0  0  0  0  0  0  0
   59.1720   25.8720   46.0690 C   0  0  0  0  0  0  0  0  0  0  0  0
   58.1680   25.9660   45.1120 C   0  0  0  0  0  0  0  0  0  0  0  0
   57.4260   24.5080   44.4790 Cl  0  0  0  0  0  0  0  0  0  0  0  0
   57.7570   27.2170   44.6510 C   0  0  0  0  0  0  0  0  0  0  0  0
   58.3460   28.4170   45.1380 C   0  0  0  0  0  0  0  0  0  0  0  0
   58.0070   29.6630   44.6310 N   0  0  0  0  0  0  0  0  0  0  0  0
   57.1800   29.7600   43.4000 C   0  0  0  0  0  0  0  0  0  0  0  0
   55.6890   29.7700   43.7350 C   0  0  0  0  0  0  0  0  0  0  0  0
   58.4840   30.8140   45.2400 C   0  0  0  0  0  0  0  0  0  0  0  0
   58.0310   32.1090   44.8620 C   0  0  0  0  0  0  0  0  0  0  0  0
   58.5450   33.2750   45.4540 C   0  0  0  0  0  0  0  0  0  0  0  0
   58.0770   34.5760   45.0500 N   0  0  0  0  0  0  0  0  0  0  0  0
   58.8790   35.5150   44.8600 O   0  0  0  0  0  0  0  0  0  0  0  0
   56.7320   34.8110   44.8700 O   0  0  0  0  0  0  0  0  0  0  0  0
   59.5170   33.1580   46.4490 C   0  0  0  0  0  0  0  0  0  0  0  0
   59.9530   31.9070   46.8650 C   0  0  0  0  0  0  0  0  0  0  0  0
   59.4400   30.7260   46.2880 C   0  0  0  0  0  0  0  0  0  0  0  0
   64.3538   31.7323   48.2841 H   0  0  0  0  0  0  0  0  0  0  0  0
   62.9137   31.1451   47.3851 H   0  0  0  0  0  0  0  0  0  0  0  0
   63.3206   32.8947   47.3851 H   0  0  0  0  0  0  0  0  0  0  0  0
   62.9926   32.8342   49.9318 H   0  0  0  0  0  0  0  0  0  0  0  0
   61.5048   32.6205   48.9300 H   0  0  0  0  0  0  0  0  0  0  0  0
   62.6720   30.1170   49.3710 H   0  0  0  0  0  0  0  0  0  0  0  0
   62.5940   30.9180   50.8600 H   0  0  0  0  0  0  0  0  0  0  0  0
   60.4892   30.4982   51.0653 H   0  0  0  0  0  0  0  0  0  0  0  0
   60.2134   31.4573   49.5429 H   0  0  0  0  0  0  0  0  0  0  0  0
   60.7759   28.4631   49.7523 H   0  0  0  0  0  0  0  0  0  0  0  0
   59.2292   29.2673   49.2691 H   0  0  0  0  0  0  0  0  0  0  0  0
   61.7880   29.5240   47.6710 H   0  0  0  0  0  0  0  0  0  0  0  0
   60.5343   26.9410   47.3523 H   0  0  0  0  0  0  0  0  0  0  0  0
   59.5175   24.8843   46.4082 H   0  0  0  0  0  0  0  0  0  0  0  0
   56.9604   27.2768   43.8948 H   0  0  0  0  0  0  0  0  0  0  0  0
   57.4346   30.6891   42.8690 H   0  0  0  0  0  0  0  0  0  0  0  0
   57.3894   28.8831   42.7698 H   0  0  0  0  0  0  0  0  0  0  0  0
   55.5586   29.7709   44.8272 H   0  0  0  0  0  0  0  0  0  0  0  0
   55.2236   30.6713   43.3094 H   0  0  0  0  0  0  0  0  0  0  0  0
   55.2116   28.8750   43.3094 H   0  0  0  0  0  0  0  0  0  0  0  0
   57.2574   32.1996   44.0852 H   0  0  0  0  0  0  0  0  0  0  0  0
   59.9409   34.0638   46.9071 H   0  0  0  0  0  0  0  0  0  0  0  0
   60.7116   31.8354   47.6583 H   0  0  0  0  0  0  0  0  0  0  0  0
  1  2  1  0
  2  3  1  0
  3  4  1  0
  4  5  1  0
  5  6  1  0
  6  7  1  0
  7  8  2  0
  8  9  1  0
  9 10  2  0
 10 11  1  0
 11 12  1  0
 11 13  2  0
 13 14  1  0
 14 15  2  0
 15 16  1  0
 16 17  1  0
 15 18  1  0
 18 19  2  0
 19 20  1  0
 20 21  1  0
 21 22  2  0
 21 23  1  0
 20 24  2  0
 24 25  1  0
 25 26  2  0
 26  7  1  0
 14  8  1  0
 26 18  1  0
  1 27  1  0
  1 28  1  0
  1 29  1  0
  2 30  1  0
  2 31  1  0
  3 32  1  0
  3 33  1  0
  4 34  1  0
  4 35  1  0
  5 36  1  0
  5 37  1  0
  6 38  1  0
  9 39  1  0
 10 40  1  0
 13 41  1  0
 16 42  1  0
 16 43  1  0
 17 44  1  0
 17 45  1  0
 17 46  1  0
 19 47  1  0
 24 48  1  0
 25 49  1  0
M  CHG  4   3   1  15   1  21   1  23  -1
M  END
>  <UniqueID>  (8) 
8

>  <SMILES>  (8) 
CC[NH2+]CCNc1c2ccc(Cl)cc2[n+](CC)c2cc([N+](=O)[O-])ccc12

>  <Energy>  (8) 
72.56026586154097

>  <Genealogy>  (8) 
CC[NH2+]CCNc1c2ccc(Cl)cc2[n+](CC)c2cc([N+](=O)[O-])ccc12 (protonated)
CC[NH2+]CCNc1c2ccc(Cl)cc2[n+](CC)c2cc([N+](=O)[O-])ccc12 (3D coordinates assigned)
CC[NH2+]CCNc1c2ccc(Cl)cc2[n+](CC)c2cc([N+](=O)[O-])ccc12 (optimized conformer: 72.56026586154097 kcal/mol)

>  <smiles>  (8) 
CCNCCNc1c2ccc(Cl)cc2[n+](CC)c2cc([N+](=O)[O-])ccc12

>  <score_type>  (8) 
oracle

>  <origin>  (8) 
adg

>  <m_score__min__energy>  (8) 
-4.3300000000000001

>  <m_primary>  (8) 
energy

$$$$
8:0
     RDKit          3D

 56 56  0  0  0  0  0  0  0  0999 V2000
   60.9710   28.9570   44.9680 C   0  0  0  0  0  0  0  0  0  0  0  0
   60.4020   29.9920   45.9520 C   0  0  0  0  0  0  0  0  0  0  0  0
   59.5880   29.4090   47.0430 N   0  0  0  0  0  0  0  0  0  0  0  0
   59.2320   30.3830   48.0880 C   0  0  0  0  0  0  0  0  0  0  0  0
   60.1560   28.1630   47.6020 C   0  0  0  0  0  0  0  0  0  0  0  0
   59.1430   27.0210   47.4730 C   0  0  0  0  0  0  0  0  0  0  0  0
   57.8100   27.5370   47.1210 N   0  0  0  0  0  0  0  0  0  0  0  0
   57.0820   26.6040   46.2500 C   0  0  0  0  0  0  0  0  0  0  0  0
   57.4060   26.9090   44.7800 C   0  0  0  0  0  0  0  0  0  0  0  0
   58.0510   28.2170   44.5870 N   0  0  0  0  0  0  0  0  0  0  0  0
   56.9390   29.5580   44.6780 S   0  0  0  0  0  0  0  0  0  0  0  0
   57.2950   30.3860   45.8800 O   0  0  0  0  0  0  0  0  0  0  0  0
   55.5360   29.0480   44.8580 O   0  0  0  0  0  0  0  0  0  0  0  0
   56.9990   30.6080   43.2240 C   0  0  0  0  0  0  0  0  0  0  0  0
   57.8070   31.8840   43.4710 C   0  0  0  0  0  0  0  0  0  0  0  0
   57.2410   32.6430   44.5950 N   0  0  0  0  0  0  0  0  0  0  0  0
   57.9980   33.8710   44.8780 C   0  0  0  0  0  0  0  0  0  0  0  0
   58.0410   34.2030   46.3790 C   0  0  0  0  0  0  0  0  0  0  0  0
   59.4490   34.0980   46.9020 C   0  0  0  0  0  0  0  0  0  0  0  0
   59.7030   34.1910   48.2800 C   0  0  0  0  0  0  0  0  0  0  0  0
   61.0080   34.0600   48.7650 C   0  0  0  0  0  0  0  0  0  0  0  0
   62.0650   33.8270   47.8810 C   0  0  0  0  0  0  0  0  0  0  0  0
   63.3290   33.6980   48.3540 F   0  0  0  0  0  0  0  0  0  0  0  0
   61.8180   33.7210   46.5090 C   0  0  0  0  0  0  0  0  0  0  0  0
   60.5150   33.8510   46.0200 C   0  0  0  0  0  0  0  0  0  0  0  0
   61.4265   28.1284   45.5301 H   0  0  0  0  0  0  0  0  0  0  0  0
   60.1598   28.5683   44.3349 H   0  0  0  0  0  0  0  0  0  0  0  0
   61.7339   29.4337   44.3349 H   0  0  0  0  0  0  0  0  0  0  0  0
   61.2436   30.5378   46.4034 H   0  0  0  0  0  0  0  0  0  0  0  0
   59.7326   30.6445   45.3723 H   0  0  0  0  0  0  0  0  0  0  0  0
   59.3960   29.9342   49.0788 H   0  0  0  0  0  0  0  0  0  0  0  0
   59.8605   31.2796   47.9830 H   0  0  0  0  0  0  0  0  0  0  0  0
   58.1734   30.6630   47.9830 H   0  0  0  0  0  0  0  0  0  0  0  0
   61.0719   27.9013   47.0518 H   0  0  0  0  0  0  0  0  0  0  0  0
   60.3910   28.3187   48.6653 H   0  0  0  0  0  0  0  0  0  0  0  0
   59.4797   26.3282   46.6877 H   0  0  0  0  0  0  0  0  0  0  0  0
   59.0742   26.5020   48.4404 H   0  0  0  0  0  0  0  0  0  0  0  0
   57.9470   28.4260   46.5850 H   0  0  0  0  0  0  0  0  0  0  0  0
   57.3844   25.5728   46.4848 H   0  0  0  0  0  0  0  0  0  0  0  0
   56.0007   26.7185   46.4162 H   0  0  0  0  0  0  0  0  0  0  0  0
   58.0811   26.1273   44.4015 H   0  0  0  0  0  0  0  0  0  0  0  0
   56.4517   26.9318   44.2334 H   0  0  0  0  0  0  0  0  0  0  0  0
   58.7840   28.3540   45.3190 H   0  0  0  0  0  0  0  0  0  0  0  0
   57.4641   30.0471   42.3999 H   0  0  0  0  0  0  0  0  0  0  0  0
   55.9687   30.9014   42.9741 H   0  0  0  0  0  0  0  0  0  0  0  0
   58.8475   31.6140   43.7042 H   0  0  0  0  0  0  0  0  0  0  0  0
   57.7706   32.5085   42.5662 H   0  0  0  0  0  0  0  0  0  0  0  0
   57.2350   32.0360   45.4480 H   0  0  0  0  0  0  0  0  0  0  0  0
   59.0285   33.7417   44.5156 H   0  0  0  0  0  0  0  0  0  0  0  0
   57.4908   34.7020   44.3660 H   0  0  0  0  0  0  0  0  0  0  0  0
   57.6728   35.2279   46.5338 H   0  0  0  0  0  0  0  0  0  0  0  0
   57.4060   33.4862   46.9203 H   0  0  0  0  0  0  0  0  0  0  0  0
   58.8730   34.3674   48.9799 H   0  0  0  0  0  0  0  0  0  0  0  0
   61.2030   34.1405   49.8446 H   0  0  0  0  0  0  0  0  0  0  0  0
   62.6499   33.5351   45.8137 H   0  0  0  0  0  0  0  0  0  0  0  0
   60.3232   33.7596   44.9407 H   0  0  0  0  0  0  0  0  0  0  0  0
  1  2  1  0
  2  3  1  0
  3  4  1  0
  3  5  1  0
  5  6  1  0
  6  7  1  0
  7  8  1  0
  8  9  1  0
  9 10  1  0
 10 11  1  0
 11 12  2  0
 11 13  2  0
 11 14  1  0
 14 15  1  0
 15 16  1  0
 16 17  1  0
 17 18  1  0
 18 19  1  0
 19 20  2  0
 20 21  1  0
 21 22  2  0
 22 23  1  0
 22 24  1  0
 24 25  2  0
 25 19  1  0
  1 26  1  0
  1 27  1  0
  1 28  1  0
  2 29  1  0
  2 30  1  0
  4 31  1  0
  4 32  1  0
  4 33  1  0
  5 34  1  0
  5 35  1  0
  6 36  1  0
  6 37  1  0
  7 38  1  0
  8 39  1  0
  8 40  1  0
  9 41  1  0
  9 42  1  0
 10 43  1  0
 14 44  1  0
 14 45  1  0
 15 46  1  0
 15 47  1  0
 16 48  1  0
 17 49  1  0
 17 50  1  0
 18 51  1  0
 18 52  1  0
 20 53  1  0
 21 54  1  0
 24 55  1  0
 25 56  1  0
M  END
>  <UniqueID>  (9) 
9

>  <SMILES>  (9) 
CCN(C)CCNCCNS(=O)(=O)CCNCCc1ccc(F)cc1

>  <Energy>  (9) 
44.305748601530574

>  <Genealogy>  (9) 
CCN(C)CCNCCNS(=O)(=O)CCNCCc1ccc(F)cc1 (3D coordinates assigned)
CCN(C)CCNCCNS(=O)(=O)CCNCCc1ccc(F)cc1 (optimized conformer: 44.305748601530574 kcal/mol)

>  <smiles>  (9) 
CCN(C)CCNCCNS(=O)(=O)CCNCCc1ccc(F)cc1

>  <score_type>  (9) 
oracle

>  <origin>  (9) 
adg

>  <m_score__min__energy>  (9) 
-5.7699999999999996

>  <m_primary>  (9) 
energy

$$$$
9:0
     RDKit          3D

 59 63  0  0  0  0  0  0  0  0999 V2000
   66.3080   32.7950   50.0810 C   0  0  0  0  0  0  0  0  0  0  0  0
   64.8970   32.3000   49.7470 C   0  0  0  0  0  0  0  0  0  0  0  0
   64.4860   32.6710   48.3780 N   0  0  0  0  0  0  0  0  0  0  0  0
   63.0290   32.8790   48.2510 C   0  0  0  0  0  0  0  0  0  0  0  0
   62.3560   31.8310   47.3480 C   0  0  0  0  0  0  0  0  0  0  0  0
   61.0360   31.4580   47.8610 N   0  0  0  0  0  0  0  0  0  0  0  0
   59.9600   31.1150   46.9740 C   0  0  0  0  0  0  0  0  0  0  0  0
   59.5910   29.7680   46.7950 C   0  0  0  0  0  0  0  0  0  0  0  0
   58.5600   29.4490   45.8770 C   0  0  0  0  0  0  0  0  0  0  0  0
   58.0730   30.4240   45.0300 N   0  0  0  0  0  0  0  0  0  0  0  0
   57.4420   30.0550   43.7490 C   0  0  0  0  0  0  0  0  0  0  0  0
   58.2900   31.7560   45.3180 C   0  0  0  0  0  0  0  0  0  0  0  0
   57.5860   32.7840   44.6440 C   0  0  0  0  0  0  0  0  0  0  0  0
   57.8310   34.1270   44.9280 C   0  0  0  0  0  0  0  0  0  0  0  0
   58.7770   34.4780   45.8850 C   0  0  0  0  0  0  0  0  0  0  0  0
   59.4780   33.4880   46.5720 C   0  0  0  0  0  0  0  0  0  0  0  0
   59.2390   32.1230   46.3080 C   0  0  0  0  0  0  0  0  0  0  0  0
   58.0280   28.0500   45.9220 C   0  0  0  0  0  0  0  0  0  0  0  0
   56.8860   27.5750   45.3570 N   0  0  0  0  0  0  0  0  0  0  0  0
   56.7210   26.3320   45.8480 C   0  0  0  0  0  0  0  0  0  0  0  0
   55.6480   25.4730   45.6140 C   0  0  0  0  0  0  0  0  0  0  0  0
   55.6150   24.2440   46.3100 C   0  0  0  0  0  0  0  0  0  0  0  0
   54.4640   23.3040   46.1150 C   0  0  0  0  0  0  0  0  0  0  0  0
   56.6270   23.9410   47.2540 C   0  0  0  0  0  0  0  0  0  0  0  0
   57.6840   24.8400   47.4830 C   0  0  0  0  0  0  0  0  0  0  0  0
   57.7090   26.0190   46.7430 C   0  0  0  0  0  0  0  0  0  0  0  0
   58.5470   27.1100   46.8010 C   0  0  0  0  0  0  0  0  0  0  0  0
   59.5230   27.4450   47.8780 C   0  0  0  0  0  0  0  0  0  0  0  0
   60.3820   28.6510   47.4750 C   0  0  0  0  0  0  0  0  0  0  0  0
   66.4323   32.8386   51.1731 H   0  0  0  0  0  0  0  0  0  0  0  0
   67.0497   32.1034   49.6549 H   0  0  0  0  0  0  0  0  0  0  0  0
   66.4550   33.7984   49.6549 H   0  0  0  0  0  0  0  0  0  0  0  0
   64.8749   31.2041   49.8389 H   0  0  0  0  0  0  0  0  0  0  0  0
   64.1970   32.7745   50.4504 H   0  0  0  0  0  0  0  0  0  0  0  0
   64.7820   31.9220   47.7060 H   0  0  0  0  0  0  0  0  0  0  0  0
   64.9990   33.5380   48.0990 H   0  0  0  0  0  0  0  0  0  0  0  0
   62.5770   32.8231   49.2523 H   0  0  0  0  0  0  0  0  0  0  0  0
   62.8732   33.8649   47.7888 H   0  0  0  0  0  0  0  0  0  0  0  0
   62.2428   32.2486   46.3367 H   0  0  0  0  0  0  0  0  0  0  0  0
   62.9885   30.9313   47.3280 H   0  0  0  0  0  0  0  0  0  0  0  0
   60.8190   31.6400   48.8670 H   0  0  0  0  0  0  0  0  0  0  0  0
   56.5076   29.5086   43.9445 H   0  0  0  0  0  0  0  0  0  0  0  0
   57.2205   30.9659   43.1735 H   0  0  0  0  0  0  0  0  0  0  0  0
   58.1273   29.4153   43.1735 H   0  0  0  0  0  0  0  0  0  0  0  0
   56.8349   32.5189   43.8853 H   0  0  0  0  0  0  0  0  0  0  0  0
   57.2745   34.9110   44.3936 H   0  0  0  0  0  0  0  0  0  0  0  0
   58.9725   35.5389   46.1003 H   0  0  0  0  0  0  0  0  0  0  0  0
   60.2248   33.7740   47.3273 H   0  0  0  0  0  0  0  0  0  0  0  0
   56.1880   28.0720   44.7670 H   0  0  0  0  0  0  0  0  0  0  0  0
   54.8498   25.7445   44.9075 H   0  0  0  0  0  0  0  0  0  0  0  0
   54.0779   22.9887   47.0956 H   0  0  0  0  0  0  0  0  0  0  0  0
   53.6666   23.8124   45.5532 H   0  0  0  0  0  0  0  0  0  0  0  0
   54.8028   22.4211   45.5532 H   0  0  0  0  0  0  0  0  0  0  0  0
   56.5857   22.9944   47.8127 H   0  0  0  0  0  0  0  0  0  0  0  0
   58.4665   24.6185   48.2237 H   0  0  0  0  0  0  0  0  0  0  0  0
   58.9744   27.6846   48.8008 H   0  0  0  0  0  0  0  0  0  0  0  0
   60.1822   26.5794   48.0399 H   0  0  0  0  0  0  0  0  0  0  0  0
   60.8527   29.0605   48.3809 H   0  0  0  0  0  0  0  0  0  0  0  0
   61.1213   28.2899   46.7450 H   0  0  0  0  0  0  0  0  0  0  0  0
  1  2  1  0
  2  3  1  0
  3  4  1  0
  4  5  1  0
  5  6  1  0
  6  7  1  0
  7  8  2  0
  8  9  1  0
  9 10  2  0
 10 11  1  0
 10 12  1  0
 12 13  2  0
 13 14  1  0
 14 15  2  0
 15 16  1  0
 16 17  2  0
  9 18  1  0
 18 19  1  0
 19 20  1  0
 20 21  2  0
 21 22  1  0
 22 23  1  0
 22 24  2  0
 24 25  1  0
 25 26  2  0
 26 27  1  0
 27 28  1  0
 28 29  1  0
 17  7  1  0
 27 18  2  0
 29  8  1  0
 17 12  1  0
 26 20  1  0
  1 30  1  0
  1 31  1  0
  1 32  1  0
  2 33  1  0
  2 34  1  0
  3 35  1  0
  3 36  1  0
  4 37  1  0
  4 38  1  0
  5 39  1  0
  5 40  1  0
  6 41  1  0
 11 42  1  0
 11 43  1  0
 11 44  1  0
 13 45  1  0
 14 46  1  0
 15 47  1  0
 16 48  1  0
 19 49  1  0
 21 50  1  0
 23 51  1  0
 23 52  1  0
 23 53  1  0
 24 54  1  0
 25 55  1  0
 28 56  1  0
 28 57  1  0
 29 58  1  0
 29 59  1  0
M  CHG  2   3   1  10   1
M  END
>  <UniqueID>  (10) 
10

>  <SMILES>  (10) 
CC[NH2+]CCNc1c2c([n+](C)c3ccccc13)-c1[nH]c3cc(C)ccc3c1CC2

>  <Energy>  (10) 
127.58308154447013

>  <Genealogy>  (10) 
CC[NH2+]CCNc1c2c([n+](C)c3ccccc13)-c1[nH]c3cc(C)ccc3c1CC2 (protonated)
CC[NH2+]CCNc1c2c([n+](C)c3ccccc13)-c1[nH]c3cc(C)ccc3c1CC2 (3D coordinates assigned)
CC[NH2+]CCNc1c2c([n+](C)c3ccccc13)-c1[nH]c3cc(C)ccc3c1CC2 (nonaromatic ring conformer: 127.58308154447013 kcal/mol)

>  <smiles>  (10) 
CCNCCNc1c2c([n+](C)c3ccccc13)-c1[nH]c3cc(C)ccc3c1CC2

>  <score_type>  (10) 
oracle

>  <origin>  (10) 
adg

>  <m_score__min__energy>  (10) 
-6.3200000000000003

>  <m_primary>  (10) 
energy

$$$$
10:0
     RDKit          3D

 38 39  0  0  0  0  0  0  0  0999 V2000
   58.5240   32.3230   47.7460 C   0  0  0  0  0  0  0  0  0  0  0  0
   58.9270   30.9260   47.2520 C   0  0  0  0  0  0  0  0  0  0  0  0
   59.6890   30.1370   48.2450 N   0  0  0  0  0  0  0  0  0  0  0  0
   58.9010   29.8210   49.4480 C   0  0  0  0  0  0  0  0  0  0  0  0
   60.3520   28.9440   47.6700 C   0  0  0  0  0  0  0  0  0  0  0  0
   59.7500   27.6690   48.2640 C   0  0  0  0  0  0  0  0  0  0  0  0
   59.4280   26.7050   47.2130 N   0  0  0  0  0  0  0  0  0  0  0  0
   58.0970   26.2320   46.9530 C   0  0  0  0  0  0  0  0  0  0  0  0
   57.4800   25.1290   47.5260 C   0  0  0  0  0  0  0  0  0  0  0  0
   56.2280   25.0780   47.1280 O   0  0  0  0  0  0  0  0  0  0  0  0
   56.0000   26.0970   46.3320 C   0  0  0  0  0  0  0  0  0  0  0  0
   54.7760   26.3360   45.7220 O   0  0  0  0  0  0  0  0  0  0  0  0
   57.1390   26.8660   46.1800 C   0  0  0  0  0  0  0  0  0  0  0  0
   57.2860   28.0860   45.3590 C   0  0  0  0  0  0  0  0  0  0  0  0
   56.1580   28.8470   45.0020 C   0  0  0  0  0  0  0  0  0  0  0  0
   56.3010   30.0040   44.2310 C   0  0  0  0  0  0  0  0  0  0  0  0
   57.5710   30.4170   43.8150 C   0  0  0  0  0  0  0  0  0  0  0  0
   57.7640   31.9990   42.7630 Br  0  0  0  0  0  0  0  0  0  0  0  0
   58.6980   29.6710   44.1730 C   0  0  0  0  0  0  0  0  0  0  0  0
   58.5580   28.5130   44.9440 C   0  0  0  0  0  0  0  0  0  0  0  0
   58.5202   32.3360   48.8459 H   0  0  0  0  0  0  0  0  0  0  0  0
   59.2445   33.0658   47.3730 H   0  0  0  0  0  0  0  0  0  0  0  0
   57.5186   32.5679   47.3730 H   0  0  0  0  0  0  0  0  0  0  0  0
   58.0120   30.3713   46.9970 H   0  0  0  0  0  0  0  0  0  0  0  0
   59.5874   31.0717   46.3844 H   0  0  0  0  0  0  0  0  0  0  0  0
   59.4912   30.0577   50.3456 H   0  0  0  0  0  0  0  0  0  0  0  0
   57.9773   30.4182   49.4486 H   0  0  0  0  0  0  0  0  0  0  0  0
   58.6458   28.7510   49.4486 H   0  0  0  0  0  0  0  0  0  0  0  0
   60.2098   28.9393   46.5792 H   0  0  0  0  0  0  0  0  0  0  0  0
   61.4254   28.9795   47.9079 H   0  0  0  0  0  0  0  0  0  0  0  0
   60.4751   27.2174   48.9570 H   0  0  0  0  0  0  0  0  0  0  0  0
   58.8234   27.9323   48.7951 H   0  0  0  0  0  0  0  0  0  0  0  0
   60.1900   26.4570   46.5440 H   0  0  0  0  0  0  0  0  0  0  0  0
   57.9621   24.4109   48.2057 H   0  0  0  0  0  0  0  0  0  0  0  0
   55.1577   28.5297   45.3315 H   0  0  0  0  0  0  0  0  0  0  0  0
   55.4136   30.5906   43.9510 H   0  0  0  0  0  0  0  0  0  0  0  0
   59.6972   29.9959   43.8473 H   0  0  0  0  0  0  0  0  0  0  0  0
   59.4489   27.9333   45.2271 H   0  0  0  0  0  0  0  0  0  0  0  0
  1  2  1  0
  2  3  1  0
  3  4  1  0
  3  5  1  0
  5  6  1  0
  6  7  1  0
  7  8  1  0
  8  9  2  0
  9 10  1  0
 10 11  1  0
 11 12  1  0
 11 13  2  0
 13 14  1  0
 14 15  2  0
 15 16  1  0
 16 17  2  0
 17 18  1  0
 17 19  1  0
 19 20  2  0
 13  8  1  0
 20 14  1  0
  1 21  1  0
  1 22  1  0
  1 23  1  0
  2 24  1  0
  2 25  1  0
  4 26  1  0
  4 27  1  0
  4 28  1  0
  5 29  1  0
  5 30  1  0
  6 31  1  0
  6 32  1  0
  7 33  1  0
  9 34  1  0
 15 35  1  0
 16 36  1  0
 19 37  1  0
 20 38  1  0
M  CHG  1  12  -1
M  END
>  <UniqueID>  (11) 
11

>  <SMILES>  (11) 
CCN(C)CCNc1coc([O-])c1-c1ccc(Br)cc1

>  <Energy>  (11) 
71.03919047437219

>  <Genealogy>  (11) 
CCN(C)CCNc1coc([O-])c1-c1ccc(Br)cc1 (protonated)
CCN(C)CCNc1coc([O-])c1-c1ccc(Br)cc1 (3D coordinates assigned)
CCN(C)CCNc1coc([O-])c1-c1ccc(Br)cc1 (optimized conformer: 71.03919047437219 kcal/mol)

>  <smiles>  (11) 
CCN(C)CCNc1coc(O)c1-c1ccc(Br)cc1

>  <score_type>  (11) 
oracle

>  <origin>  (11) 
adg

>  <m_score__min__energy>  (11) 
-8.6899999999999995

>  <m_primary>  (11) 
energy

$$$$
11:0
     RDKit          3D

 43 44  0  0  0  0  0  0  0  0999 V2000
   57.7400   27.8710   44.3720 C   0  0  0  0  0  0  0  0  0  0  0  0
   56.6800   27.9520   45.4590 C   0  0  0  0  0  0  0  0  0  0  0  0
   55.8370   29.1190   45.2360 N   0  0  0  0  0  0  0  0  0  0  0  0
   55.9290   29.9250   44.0590 C   0  0  0  0  0  0  0  0  0  0  0  0
   55.1850   29.6910   43.0680 O   0  0  0  0  0  0  0  0  0  0  0  0
   56.9300   31.0430   43.9950 C   0  0  0  0  0  0  0  0  0  0  0  0
   57.5920   31.2920   45.2980 N   0  0  1  0  0  0  0  0  0  0  0  0
   58.9450   30.6810   45.2870 C   0  0  0  0  0  0  0  0  0  0  0  0
   59.4060   30.2620   46.6680 C   0  0  0  0  0  0  0  0  0  0  0  0
   60.7340   30.4850   47.0740 C   0  0  0  0  0  0  0  0  0  0  0  0
   61.1600   30.0830   48.3430 C   0  0  0  0  0  0  0  0  0  0  0  0
   60.2700   29.4420   49.2120 C   0  0  0  0  0  0  0  0  0  0  0  0
   60.8080   28.9390   50.8040 Cl  0  0  0  0  0  0  0  0  0  0  0  0
   58.9550   29.1980   48.8070 C   0  0  0  0  0  0  0  0  0  0  0  0
   58.5250   29.5990   47.5390 C   0  0  0  0  0  0  0  0  0  0  0  0
   57.6970   33.0170   45.6220 S   0  0  0  0  0  0  0  0  0  0  0  0
   57.9120   33.7910   44.3520 O   0  0  0  0  0  0  0  0  0  0  0  0
   56.4220   33.4980   46.2600 O   0  0  0  0  0  0  0  0  0  0  0  0
   59.0680   33.3550   46.6790 C   0  0  0  0  0  0  0  0  0  0  0  0
   60.3220   33.6290   46.1160 C   0  0  0  0  0  0  0  0  0  0  0  0
   61.4210   33.8880   46.9400 C   0  0  0  0  0  0  0  0  0  0  0  0
   61.2730   33.8770   48.3310 C   0  0  0  0  0  0  0  0  0  0  0  0
   62.6560   34.1860   49.3630 Cl  0  0  0  0  0  0  0  0  0  0  0  0
   60.0220   33.6100   48.8960 C   0  0  0  0  0  0  0  0  0  0  0  0
   58.9210   33.3520   48.0740 C   0  0  0  0  0  0  0  0  0  0  0  0
   58.7349   27.7950   44.8350 H   0  0  0  0  0  0  0  0  0  0  0  0
   57.5576   26.9842   43.7473 H   0  0  0  0  0  0  0  0  0  0  0  0
   57.6944   28.7752   43.7473 H   0  0  0  0  0  0  0  0  0  0  0  0
   56.0606   27.0433   45.4343 H   0  0  0  0  0  0  0  0  0  0  0  0
   57.1698   28.0383   46.4401 H   0  0  0  0  0  0  0  0  0  0  0  0
   57.6996   30.7846   43.2527 H   0  0  0  0  0  0  0  0  0  0  0  0
   56.3884   31.9590   43.7165 H   0  0  0  0  0  0  0  0  0  0  0  0
   57.0160   30.8490   46.0510 H   0  0  0  0  0  0  0  0  0  0  0  0
   58.9255   29.7933   44.6377 H   0  0  0  0  0  0  0  0  0  0  0  0
   59.6502   31.4394   44.9161 H   0  0  0  0  0  0  0  0  0  0  0  0
   61.4404   30.9779   46.3899 H   0  0  0  0  0  0  0  0  0  0  0  0
   62.1967   30.2708   48.6592 H   0  0  0  0  0  0  0  0  0  0  0  0
   58.2567   28.6891   49.4877 H   0  0  0  0  0  0  0  0  0  0  0  0
   57.4919   29.3946   47.2214 H   0  0  0  0  0  0  0  0  0  0  0  0
   60.4416   33.6403   45.0226 H   0  0  0  0  0  0  0  0  0  0  0  0
   62.4037   34.1008   46.4940 H   0  0  0  0  0  0  0  0  0  0  0  0
   59.9040   33.6030   49.9896 H   0  0  0  0  0  0  0  0  0  0  0  0
   57.9376   33.1463   48.5220 H   0  0  0  0  0  0  0  0  0  0  0  0
  1  2  1  0
  2  3  1  0
  3  4  1  0
  4  5  2  0
  4  6  1  0
  6  7  1  0
  7  8  1  0
  8  9  1  0
  9 10  2  0
 10 11  1  0
 11 12  2  0
 12 13  1  0
 12 14  1  0
 14 15  2  0
  7 16  1  0
 16 17  2  0
 16 18  2  0
 16 19  1  0
 19 20  2  0
 20 21  1  0
 21 22  2  0
 22 23  1  0
 22 24  1  0
 24 25  2  0
 15  9  1  0
 25 19  1  0
  1 26  1  0
  1 27  1  0
  1 28  1  0
  2 29  1  0
  2 30  1  0
  6 31  1  0
  6 32  1  0
  7 33  1  1
  8 34  1  0
  8 35  1  0
 10 36  1  0
 11 37  1  0
 14 38  1  0
 15 39  1  0
 20 40  1  0
 21 41  1  0
 24 42  1  0
 25 43  1  0
M  CHG  2   3  -1   7   1
M  END
>  <UniqueID>  (12) 
12

>  <SMILES>  (12) 
CC[N-]C(=O)C[N@@H+](Cc1ccc(Cl)cc1)S(=O)(=O)c1ccc(Cl)cc1

>  <Energy>  (12) 
36.39156338665494

>  <Genealogy>  (12) 
CC[N-]C(=O)C[NH+](Cc1ccc(Cl)cc1)S(=O)(=O)c1ccc(Cl)cc1 (protonated)
CC[N-]C(=O)C[N@@H+](Cc1ccc(Cl)cc1)S(=O)(=O)c1ccc(Cl)cc1 (chirality)
CC[N-]C(=O)C[N@@H+](Cc1ccc(Cl)cc1)S(=O)(=O)c1ccc(Cl)cc1 (3D coordinates assigned)
CC[N-]C(=O)C[N@@H+](Cc1ccc(Cl)cc1)S(=O)(=O)c1ccc(Cl)cc1 (optimized conformer: 36.39156338665494 kcal/mol)

>  <smiles>  (12) 
CCNC(=O)CN(Cc1ccc(Cl)cc1)S(=O)(=O)c1ccc(Cl)cc1

>  <score_type>  (12) 
oracle

>  <origin>  (12) 
adg

>  <m_score__min__energy>  (12) 
-8.4000000000000004

>  <m_primary>  (12) 
energy

$$$$
12:0
     RDKit          3D

 69 72  0  0  0  0  0  0  0  0999 V2000
   58.0110   32.3580   41.1430 C   0  0  0  0  0  0  0  0  0  0  0  0
   57.3700   31.8580   42.4310 C   0  0  0  0  0  0  0  0  0  0  0  0
   56.8840   30.4880   42.2400 N   0  0  0  0  0  0  0  0  0  0  0  0
   55.9870   30.0930   43.3340 C   0  0  0  0  0  0  0  0  0  0  0  0
   56.7880   29.6290   44.5600 C   0  0  0  0  0  0  0  0  0  0  0  0
   58.2470   29.9230   44.5130 N   0  0  0  0  0  0  0  0  0  0  0  0
   58.9160   29.8260   45.8100 C   0  0  0  0  0  0  0  0  0  0  0  0
   59.2990   28.5300   46.2900 C   0  0  0  0  0  0  0  0  0  0  0  0
   59.1880   27.3600   45.4920 C   0  0  0  0  0  0  0  0  0  0  0  0
   59.4880   26.1010   46.0020 C   0  0  0  0  0  0  0  0  0  0  0  0
   59.9360   25.9680   47.3080 C   0  0  0  0  0  0  0  0  0  0  0  0
   60.1220   27.0980   48.0950 C   0  0  0  0  0  0  0  0  0  0  0  0
   59.8320   28.3950   47.5990 C   0  0  0  0  0  0  0  0  0  0  0  0
   60.1340   29.5150   48.3300 N   0  0  0  0  0  0  0  0  0  0  0  0
   60.4710   29.4050   49.7660 C   0  0  0  0  0  0  0  0  0  0  0  0
   60.1700   30.7400   47.7100 C   0  0  0  0  0  0  0  0  0  0  0  0
   61.0460   31.7350   48.1830 C   0  0  0  0  0  0  0  0  0  0  0  0
   61.1160   32.9970   47.5900 C   0  0  0  0  0  0  0  0  0  0  0  0
   62.0710   33.9540   47.9910 O   0  0  0  0  0  0  0  0  0  0  0  0
   63.4690   33.9130   47.7050 C   0  0  0  0  0  0  0  0  0  0  0  0
   64.1070   32.6450   48.3180 C   0  0  0  0  0  0  0  0  0  0  0  0
   64.3320   32.6980   49.7940 N   0  0  0  0  0  0  0  0  0  0  0  0
   63.7290   31.4840   50.3950 C   0  0  0  0  0  0  0  0  0  0  0  0
   63.6700   33.8850   50.3910 C   0  0  0  0  0  0  0  0  0  0  0  0
   65.7770   32.7150   50.1230 C   0  0  0  0  0  0  0  0  0  0  0  0
   60.1760   33.3350   46.6110 C   0  0  0  0  0  0  0  0  0  0  0  0
   60.1250   34.6570   46.1240 C   0  0  0  0  0  0  0  0  0  0  0  0
   59.0790   35.0680   45.3060 C   0  0  0  0  0  0  0  0  0  0  0  0
   58.0510   34.1850   45.0100 C   0  0  0  0  0  0  0  0  0  0  0  0
   58.1120   32.8650   45.4580 C   0  0  0  0  0  0  0  0  0  0  0  0
   59.2290   32.3670   46.1600 C   0  0  0  0  0  0  0  0  0  0  0  0
   59.3850   30.9850   46.5450 C   0  0  0  0  0  0  0  0  0  0  0  0
   58.8568   33.0178   41.3865 H   0  0  0  0  0  0  0  0  0  0  0  0
   58.3720   31.5005   40.5562 H   0  0  0  0  0  0  0  0  0  0  0  0
   57.2672   32.9168   40.5562 H   0  0  0  0  0  0  0  0  0  0  0  0
   58.1151   31.8725   43.2401 H   0  0  0  0  0  0  0  0  0  0  0  0
   56.5255   32.5112   42.6958 H   0  0  0  0  0  0  0  0  0  0  0  0
   57.7110   29.8450   42.2500 H   0  0  0  0  0  0  0  0  0  0  0  0
   55.3628   30.9536   43.6164 H   0  0  0  0  0  0  0  0  0  0  0  0
   55.3584   29.2589   42.9889 H   0  0  0  0  0  0  0  0  0  0  0  0
   56.3693   30.1255   45.4478 H   0  0  0  0  0  0  0  0  0  0  0  0
   56.6984   28.5330   44.5860 H   0  0  0  0  0  0  0  0  0  0  0  0
   58.6950   29.2270   43.8740 H   0  0  0  0  0  0  0  0  0  0  0  0
   58.4250   30.7990   43.9910 H   0  0  0  0  0  0  0  0  0  0  0  0
   58.8573   27.4517   44.4469 H   0  0  0  0  0  0  0  0  0  0  0  0
   59.3698   25.2095   45.3686 H   0  0  0  0  0  0  0  0  0  0  0  0
   60.1437   24.9695   47.7201 H   0  0  0  0  0  0  0  0  0  0  0  0
   60.5011   26.9847   49.1214 H   0  0  0  0  0  0  0  0  0  0  0  0
   59.5974   29.6902   50.3705 H   0  0  0  0  0  0  0  0  0  0  0  0
   60.7544   28.3677   49.9977 H   0  0  0  0  0  0  0  0  0  0  0  0
   61.3118   30.0753   49.9977 H   0  0  0  0  0  0  0  0  0  0  0  0
   61.6935   31.5121   49.0438 H   0  0  0  0  0  0  0  0  0  0  0  0
   63.6159   33.9020   46.6149 H   0  0  0  0  0  0  0  0  0  0  0  0
   63.9490   34.8011   48.1419 H   0  0  0  0  0  0  0  0  0  0  0  0
   63.4444   31.7932   48.1048 H   0  0  0  0  0  0  0  0  0  0  0  0
   65.1027   32.5514   47.8599 H   0  0  0  0  0  0  0  0  0  0  0  0
   63.7669   31.5603   51.4917 H   0  0  0  0  0  0  0  0  0  0  0  0
   62.6820   31.3951   50.0696 H   0  0  0  0  0  0  0  0  0  0  0  0
   64.2908   30.5960   50.0696 H   0  0  0  0  0  0  0  0  0  0  0  0
   63.7096   33.8139   51.4880 H   0  0  0  0  0  0  0  0  0  0  0  0
   64.1893   34.7978   50.0637 H   0  0  0  0  0  0  0  0  0  0  0  0
   62.6205   33.9229   50.0637 H   0  0  0  0  0  0  0  0  0  0  0  0
   65.9043   32.7165   51.2156 H   0  0  0  0  0  0  0  0  0  0  0  0
   66.2602   31.8225   49.6988 H   0  0  0  0  0  0  0  0  0  0  0  0
   66.2390   33.6186   49.6988 H   0  0  0  0  0  0  0  0  0  0  0  0
   60.9192   35.3688   46.3934 H   0  0  0  0  0  0  0  0  0  0  0  0
   59.0665   36.0884   44.8954 H   0  0  0  0  0  0  0  0  0  0  0  0
   57.1866   34.5259   44.4213 H   0  0  0  0  0  0  0  0  0  0  0  0
   57.2642   32.1934   45.2578 H   0  0  0  0  0  0  0  0  0  0  0  0
  1  2  1  0
  2  3  1  0
  3  4  1  0
  4  5  1  0
  5  6  1  0
  6  7  1  0
  7  8  2  0
  8  9  1  0
  9 10  2  0
 10 11  1  0
 11 12  2  0
 12 13  1  0
 13 14  2  0
 14 15  1  0
 14 16  1  0
 16 17  2  0
 17 18  1  0
 18 19  1  0
 19 20  1  0
 20 21  1  0
 21 22  1  0
 22 23  1  0
 22 24  1  0
 22 25  1  0
 18 26  2  0
 26 27  1  0
 27 28  2  0
 28 29  1  0
 29 30  2  0
 30 31  1  0
 31 32  2  0
 32  7  1  0
 13  8  1  0
 32 16  1  0
 31 26  1  0
  1 33  1  0
  1 34  1  0
  1 35  1  0
  2 36  1  0
  2 37  1  0
  3 38  1  0
  4 39  1  0
  4 40  1  0
  5 41  1  0
  5 42  1  0
  6 43  1  0
  6 44  1  0
  9 45  1  0
 10 46  1  0
 11 47  1  0
 12 48  1  0
 15 49  1  0
 15 50  1  0
 15 51  1  0
 17 52  1  0
 20 53  1  0
 20 54  1  0
 21 55  1  0
 21 56  1  0
 23 57  1  0
 23 58  1  0
 23 59  1  0
 24 60  1  0
 24 61  1  0
 24 62  1  0
 25 63  1  0
 25 64  1  0
 25 65  1  0
 27 66  1  0
 28 67  1  0
 29 68  1  0
 30 69  1  0
M  CHG  3   6   1  14   1  22   1
M  END
>  <UniqueID>  (13) 
13

>  <SMILES>  (13) 
CCNCC[NH2+]c1c2ccccc2[n+](C)c2cc(OCC[N+](C)(C)C)c3ccccc3c12

>  <Energy>  (13) 
131.43650679925528

>  <Genealogy>  (13) 
CCNCC[NH2+]c1c2ccccc2[n+](C)c2cc(OCC[N+](C)(C)C)c3ccccc3c12 (protonated)
CCNCC[NH2+]c1c2ccccc2[n+](C)c2cc(OCC[N+](C)(C)C)c3ccccc3c12 (3D coordinates assigned)
CCNCC[NH2+]c1c2ccccc2[n+](C)c2cc(OCC[N+](C)(C)C)c3ccccc3c12 (optimized conformer: 131.43650679925528 kcal/mol)

>  <smiles>  (13) 
CCNCCNc1c2ccccc2[n+](C)c2cc(OCC[N+](C)(C)C)c3ccccc3c12

>  <score_type>  (13) 
oracle

>  <origin>  (13) 
adg

>  <m_score__min__energy>  (13) 
-4.46

>  <m_primary>  (13) 
energy

$$$$
13:0
     RDKit          3D

 54 56  0  0  0  0  0  0  0  0999 V2000
   56.5040   24.9170   45.0430 C   0  0  0  0  0  0  0  0  0  0  0  0
   56.1590   25.6290   46.3480 C   0  0  0  0  0  0  0  0  0  0  0  0
   56.6070   27.0920   46.3120 C   0  0  0  0  0  0  0  0  0  0  0  0
   55.9020   27.8240   45.2650 N   0  0  0  0  0  0  0  0  0  0  0  0
   56.1340   29.1760   44.8430 C   0  0  0  0  0  0  0  0  0  0  0  0
   55.1580   29.9730   44.8420 O   0  0  0  0  0  0  0  0  0  0  0  0
   57.4940   29.6690   44.3940 C   0  0  1  0  0  0  0  0  0  0  0  0
   57.6030   31.1650   44.5250 C   0  0  0  0  0  0  0  0  0  0  0  0
   58.0150   32.0240   43.5260 C   0  0  0  0  0  0  0  0  0  0  0  0
   57.9930   33.2830   44.0850 C   0  0  0  0  0  0  0  0  0  0  0  0
   57.5750   33.1150   45.3890 C   0  0  0  0  0  0  0  0  0  0  0  0
   57.3540   31.8420   45.6220 O   0  0  0  0  0  0  0  0  0  0  0  0
   58.5710   28.9800   45.1400 N   0  0  0  0  0  0  0  0  0  0  0  0
   59.3810   27.9370   44.4790 C   0  0  0  0  0  0  0  0  0  0  0  0
   59.2660   26.6030   45.2140 C   0  0  0  0  0  0  0  0  0  0  0  0
   59.7650   26.7320   46.5260 O   0  0  0  0  0  0  0  0  0  0  0  0
   61.1290   26.3780   46.5440 C   0  0  0  0  0  0  0  0  0  0  0  0
   59.0040   29.4740   46.4310 C   0  0  0  0  0  0  0  0  0  0  0  0
   58.1770   29.5420   47.3810 O   0  0  0  0  0  0  0  0  0  0  0  0
   60.4190   29.9230   46.6950 C   0  0  0  0  0  0  0  0  0  0  0  0
   60.4420   31.2500   47.3080 N   0  0  0  0  0  0  0  0  0  0  0  0
   59.3680   31.9910   47.5730 N   0  0  0  0  0  0  0  0  0  0  0  0
   59.6950   33.1760   48.0830 N   0  0  0  0  0  0  0  0  0  0  0  0
   61.0420   33.1800   48.1270 C   0  0  0  0  0  0  0  0  0  0  0  0
   61.8960   34.1930   48.5480 C   0  0  0  0  0  0  0  0  0  0  0  0
   63.2830   33.9560   48.4450 C   0  0  0  0  0  0  0  0  0  0  0  0
   63.7670   32.7350   47.9180 C   0  0  0  0  0  0  0  0  0  0  0  0
   62.8720   31.7320   47.5000 C   0  0  0  0  0  0  0  0  0  0  0  0
   61.5090   31.9960   47.6380 C   0  0  0  0  0  0  0  0  0  0  0  0
   56.9736   23.9479   45.2671 H   0  0  0  0  0  0  0  0  0  0  0  0
   55.5853   24.7533   44.4606 H   0  0  0  0  0  0  0  0  0  0  0  0
   57.2018   25.5366   44.4606 H   0  0  0  0  0  0  0  0  0  0  0  0
   55.0705   25.5902   46.5016 H   0  0  0  0  0  0  0  0  0  0  0  0
   56.6838   25.1229   47.1717 H   0  0  0  0  0  0  0  0  0  0  0  0
   56.3932   27.5587   47.2849 H   0  0  0  0  0  0  0  0  0  0  0  0
   57.6859   27.1253   46.1003 H   0  0  0  0  0  0  0  0  0  0  0  0
   57.6116   29.4255   43.3278 H   0  0  0  0  0  0  0  0  0  0  0  0
   58.3013   31.7585   42.4976 H   0  0  0  0  0  0  0  0  0  0  0  0
   58.2556   34.2304   43.5915 H   0  0  0  0  0  0  0  0  0  0  0  0
   57.4464   33.9248   46.1223 H   0  0  0  0  0  0  0  0  0  0  0  0
   59.0276   27.8092   43.4452 H   0  0  0  0  0  0  0  0  0  0  0  0
   60.4346   28.2529   44.4913 H   0  0  0  0  0  0  0  0  0  0  0  0
   58.2096   26.2988   45.2541 H   0  0  0  0  0  0  0  0  0  0  0  0
   59.8525   25.8428   44.6773 H   0  0  0  0  0  0  0  0  0  0  0  0
   61.4711   26.2892   47.5857 H   0  0  0  0  0  0  0  0  0  0  0  0
   61.2647   25.4149   46.0302 H   0  0  0  0  0  0  0  0  0  0  0  0
   61.7159   27.1536   46.0302 H   0  0  0  0  0  0  0  0  0  0  0  0
   60.9036   29.2051   47.3731 H   0  0  0  0  0  0  0  0  0  0  0  0
   60.9561   29.9706   45.7362 H   0  0  0  0  0  0  0  0  0  0  0  0
   58.3850   31.6920   47.3970 H   0  0  0  0  0  0  0  0  0  0  0  0
   61.5059   35.1415   48.9456 H   0  0  0  0  0  0  0  0  0  0  0  0
   63.9941   34.7267   48.7771 H   0  0  0  0  0  0  0  0  0  0  0  0
   64.8511   32.5684   47.8343 H   0  0  0  0  0  0  0  0  0  0  0  0
   63.2321   30.7803   47.0822 H   0  0  0  0  0  0  0  0  0  0  0  0
  1  2  1  0
  2  3  1  0
  3  4  1  0
  4  5  1  0
  5  6  2  0
  5  7  1  0
  7  8  1  0
  8  9  2  0
  9 10  1  0
 10 11  2  0
 11 12  1  0
  7 13  1  0
 13 14  1  0
 14 15  1  0
 15 16  1  0
 16 17  1  0
 13 18  1  0
 18 19  2  0
 18 20  1  0
 20 21  1  0
 21 22  1  0
 22 23  2  0
 23 24  1  0
 24 25  2  0
 25 26  1  0
 26 27  2  0
 27 28  1  0
 28 29  2  0
 12  8  1  0
 29 21  1  0
 29 24  1  0
  1 30  1  0
  1 31  1  0
  1 32  1  0
  2 33  1  0
  2 34  1  0
  3 35  1  0
  3 36  1  0
  7 37  1  6
  9 38  1  0
 10 39  1  0
 11 40  1  0
 14 41  1  0
 14 42  1  0
 15 43  1  0
 15 44  1  0
 17 45  1  0
 17 46  1  0
 17 47  1  0
 20 48  1  0
 20 49  1  0
 22 50  1  0
 25 51  1  0
 26 52  1  0
 27 53  1  0
 28 54  1  0
M  CHG  2   4  -1  22   1
M  END
>  <UniqueID>  (14) 
14

>  <SMILES>  (14) 
CCC[N-]C(=O)[C@@H](c1ccco1)N(CCOC)C(=O)Cn1[nH+]nc2ccccc21

>  <Energy>  (14) 
114.59179730409119

>  <Genealogy>  (14) 
CCC[N-]C(=O)C(c1ccco1)N(CCOC)C(=O)Cn1[nH+]nc2ccccc21 (protonated)
CCC[N-]C(=O)[C@@H](c1ccco1)N(CCOC)C(=O)Cn1[nH+]nc2ccccc21 (chirality)
CCC[N-]C(=O)[C@@H](c1ccco1)N(CCOC)C(=O)Cn1[nH+]nc2ccccc21 (3D coordinates assigned)
CCC[N-]C(=O)[C@@H](c1ccco1)N(CCOC)C(=O)Cn1[nH+]nc2ccccc21 (optimized conformer: 114.59179730409119 kcal/mol)

>  <smiles>  (14) 
CCCNC(=O)C(c1ccco1)N(CCOC)C(=O)Cn1nnc2ccccc21

>  <score_type>  (14) 
oracle

>  <origin>  (14) 
adg

>  <m_score__min__energy>  (14) 
-8.4499999999999993

>  <m_primary>  (14) 
energy

$$$$
14:0
     RDKit          3D

 46 48  0  0  0  0  0  0  0  0999 V2000
   57.7260   28.1480   44.2650 C   0  0  0  0  0  0  0  0  0  0  0  0
   56.6560   28.3590   45.3300 C   0  0  0  0  0  0  0  0  0  0  0  0
   55.6570   29.3400   44.8830 N   0  0  0  0  0  0  0  0  0  0  0  0
   56.0200   29.9870   43.6100 C   0  0  0  0  0  0  0  0  0  0  0  0
   56.9340   31.1940   43.8630 C   0  0  0  0  0  0  0  0  0  0  0  0
   57.3500   31.3120   45.2720 N   0  0  0  0  0  0  0  0  0  0  0  0
   57.4450   32.7120   45.7090 C   0  0  0  0  0  0  0  0  0  0  0  0
   58.8350   32.9900   46.2130 C   0  0  0  0  0  0  0  0  0  0  0  0
   59.5090   34.1600   45.8290 C   0  0  0  0  0  0  0  0  0  0  0  0
   60.7760   34.4500   46.3470 C   0  0  0  0  0  0  0  0  0  0  0  0
   61.3730   33.5800   47.2670 C   0  0  0  0  0  0  0  0  0  0  0  0
   62.6230   33.8630   47.8290 C   0  0  0  0  0  0  0  0  0  0  0  0
   63.1870   32.9920   48.7680 C   0  0  0  0  0  0  0  0  0  0  0  0
   62.4680   31.8370   49.1390 C   0  0  0  0  0  0  0  0  0  0  0  0
   61.2620   31.5750   48.5670 N   0  0  0  0  0  0  0  0  0  0  0  0
   60.6970   32.4080   47.6580 C   0  0  0  0  0  0  0  0  0  0  0  0
   59.4370   32.1160   47.1290 C   0  0  0  0  0  0  0  0  0  0  0  0
   63.0360   30.8360   50.1100 C   0  0  0  0  0  0  0  0  0  0  0  0
   64.0620   31.4690   51.0480 C   0  0  0  0  0  0  0  0  0  0  0  0
   65.1130   32.2360   50.2450 C   0  0  0  0  0  0  0  0  0  0  0  0
   64.4740   33.3870   49.4590 C   0  0  0  0  0  0  0  0  0  0  0  0
   58.6943   27.9571   44.7508 H   0  0  0  0  0  0  0  0  0  0  0  0
   57.4542   27.2862   43.6378 H   0  0  0  0  0  0  0  0  0  0  0  0
   57.8017   29.0485   43.6378 H   0  0  0  0  0  0  0  0  0  0  0  0
   56.1547   27.4008   45.5316 H   0  0  0  0  0  0  0  0  0  0  0  0
   57.1385   28.7397   46.2423 H   0  0  0  0  0  0  0  0  0  0  0  0
   55.5900   30.0810   45.6180 H   0  0  0  0  0  0  0  0  0  0  0  0
   56.5463   29.2616   42.9722 H   0  0  0  0  0  0  0  0  0  0  0  0
   55.1023   30.3333   43.1121 H   0  0  0  0  0  0  0  0  0  0  0  0
   57.8337   31.0901   43.2387 H   0  0  0  0  0  0  0  0  0  0  0  0
   56.3631   32.0996   43.6100 H   0  0  0  0  0  0  0  0  0  0  0  0
   56.6840   30.7990   45.8980 H   0  0  0  0  0  0  0  0  0  0  0  0
   57.2235   33.3762   44.8606 H   0  0  0  0  0  0  0  0  0  0  0  0
   56.7205   32.8926   46.5168 H   0  0  0  0  0  0  0  0  0  0  0  0
   59.0381   34.8532   45.1164 H   0  0  0  0  0  0  0  0  0  0  0  0
   61.3033   35.3622   46.0311 H   0  0  0  0  0  0  0  0  0  0  0  0
   63.1642   34.7733   47.5316 H   0  0  0  0  0  0  0  0  0  0  0  0
   58.9153   31.1964   47.4326 H   0  0  0  0  0  0  0  0  0  0  0  0
   62.2148   30.4187   50.7112 H   0  0  0  0  0  0  0  0  0  0  0  0
   63.5435   30.0504   49.5309 H   0  0  0  0  0  0  0  0  0  0  0  0
   63.5498   32.1626   51.7311 H   0  0  0  0  0  0  0  0  0  0  0  0
   64.5603   30.6740   51.6221 H   0  0  0  0  0  0  0  0  0  0  0  0
   65.8644   32.6461   50.9358 H   0  0  0  0  0  0  0  0  0  0  0  0
   65.5822   31.5430   49.5311 H   0  0  0  0  0  0  0  0  0  0  0  0
   64.2585   34.2099   50.1565 H   0  0  0  0  0  0  0  0  0  0  0  0
   65.1876   33.6858   48.6770 H   0  0  0  0  0  0  0  0  0  0  0  0
  1  2  1  0
  2  3  1  0
  3  4  1  0
  4  5  1  0
  5  6  1  0
  6  7  1  0
  7  8  1  0
  8  9  2  0
  9 10  1  0
 10 11  2  0
 11 12  1  0
 12 13  2  0
 13 14  1  0
 14 15  2  0
 15 16  1  0
 16 17  2  0
 14 18  1  0
 18 19  1  0
 19 20  1  0
 20 21  1  0
 17  8  1  0
 16 11  1  0
 21 13  1  0
  1 22  1  0
  1 23  1  0
  1 24  1  0
  2 25  1  0
  2 26  1  0
  3 27  1  0
  4 28  1  0
  4 29  1  0
  5 30  1  0
  5 31  1  0
  6 32  1  0
  7 33  1  0
  7 34  1  0
  9 35  1  0
 10 36  1  0
 12 37  1  0
 17 38  1  0
 18 39  1  0
 18 40  1  0
 19 41  1  0
 19 42  1  0
 20 43  1  0
 20 44  1  0
 21 45  1  0
 21 46  1  0
M  END
>  <UniqueID>  (15) 
15

>  <SMILES>  (15) 
CCNCCNCc1ccc2cc3c(nc2c1)CCCC3

>  <Energy>  (15) 
46.847858462098834

>  <Genealogy>  (15) 
CCNCCNCc1ccc2cc3c(nc2c1)CCCC3 (3D coordinates assigned)
CCNCCNCc1ccc2cc3c(nc2c1)CCCC3 (nonaromatic ring conformer: 46.847858462098834 kcal/mol)

>  <smiles>  (15) 
CCNCCNCc1ccc2cc3c(nc2c1)CCCC3

>  <score_type>  (15) 
oracle

>  <origin>  (15) 
adg

>  <m_score__min__energy>  (15) 
-8.1699999999999999

>  <m_primary>  (15) 
energy

$$$$
15:0
     RDKit          3D

 34 36  0  0  0  0  0  0  0  0999 V2000
   63.3220   33.8330   49.5050 C   0  0  0  0  0  0  0  0  0  0  0  0
   64.0390   32.6130   48.9210 C   0  0  0  0  0  0  0  0  0  0  0  0
   64.0440   32.6020   47.4460 N   0  0  0  0  0  0  0  0  0  0  0  0
   62.8570   33.2170   46.8210 C   0  0  0  0  0  0  0  0  0  0  0  0
   61.5600   32.4420   47.1150 C   0  0  0  0  0  0  0  0  0  0  0  0
   60.3940   33.2480   46.7650 N   0  0  0  0  0  0  0  0  0  0  0  0
   60.3910   34.5730   46.4440 C   0  0  0  0  0  0  0  0  0  0  0  0
   59.2410   34.9850   45.8320 N   0  0  0  0  0  0  0  0  0  0  0  0
   58.4960   33.8670   45.8620 C   0  0  0  0  0  0  0  0  0  0  0  0
   57.5680   33.4740   44.9680 N   0  0  0  0  0  0  0  0  0  0  0  0
   57.6800   32.1220   44.9700 C   0  0  0  0  0  0  0  0  0  0  0  0
   57.0250   31.2300   44.1210 C   0  0  0  0  0  0  0  0  0  0  0  0
   57.4000   29.8750   44.1680 C   0  0  0  0  0  0  0  0  0  0  0  0
   58.4370   29.4440   45.0260 C   0  0  0  0  0  0  0  0  0  0  0  0
   59.1090   30.3600   45.8550 C   0  0  0  0  0  0  0  0  0  0  0  0
   58.6880   31.6880   45.8220 C   0  0  0  0  0  0  0  0  0  0  0  0
   59.1700   32.8420   46.3970 C   0  0  0  0  0  0  0  0  0  0  0  0
   63.3507   33.7841   50.6035 H   0  0  0  0  0  0  0  0  0  0  0  0
   63.8244   34.7508   49.1655 H   0  0  0  0  0  0  0  0  0  0  0  0
   62.2757   33.8407   49.1655 H   0  0  0  0  0  0  0  0  0  0  0  0
   65.0803   32.6148   49.2756 H   0  0  0  0  0  0  0  0  0  0  0  0
   63.4941   31.7181   49.2560 H   0  0  0  0  0  0  0  0  0  0  0  0
   64.8970   33.1050   47.1060 H   0  0  0  0  0  0  0  0  0  0  0  0
   64.1220   31.6100   47.1210 H   0  0  0  0  0  0  0  0  0  0  0  0
   62.7488   34.2421   47.2050 H   0  0  0  0  0  0  0  0  0  0  0  0
   63.0114   33.2038   45.7320 H   0  0  0  0  0  0  0  0  0  0  0  0
   61.5501   31.5146   46.5235 H   0  0  0  0  0  0  0  0  0  0  0  0
   61.5212   32.2064   48.1888 H   0  0  0  0  0  0  0  0  0  0  0  0
   61.2342   35.2463   46.6574 H   0  0  0  0  0  0  0  0  0  0  0  0
   57.0340   34.0690   44.2960 H   0  0  0  0  0  0  0  0  0  0  0  0
   56.2381   31.5760   43.4347 H   0  0  0  0  0  0  0  0  0  0  0  0
   56.8811   29.1438   43.5308 H   0  0  0  0  0  0  0  0  0  0  0  0
   58.7213   28.3816   45.0456 H   0  0  0  0  0  0  0  0  0  0  0  0
   59.9364   30.0400   46.5054 H   0  0  0  0  0  0  0  0  0  0  0  0
  1  2  1  0
  2  3  1  0
  3  4  1  0
  4  5  1  0
  5  6  1  0
  6  7  1  0
  7  8  2  0
  8  9  1  0
  9 10  1  0
 10 11  1  0
 11 12  2  0
 12 13  1  0
 13 14  2  0
 14 15  1  0
 15 16  2  0
 16 17  1  0
 17  6  1  0
 17  9  2  0
 16 11  1  0
  1 18  1  0
  1 19  1  0
  1 20  1  0
  2 21  1  0
  2 22  1  0
  3 23  1  0
  3 24  1  0
  4 25  1  0
  4 26  1  0
  5 27  1  0
  5 28  1  0
  7 29  1  0
 10 30  1  0
 12 31  1  0
 13 32  1  0
 14 33  1  0
 15 34  1  0
M  CHG  1   3   1
M  END
>  <UniqueID>  (16) 
16

>  <SMILES>  (16) 
CC[NH2+]CCn1cnc2[nH]c3ccccc3c21

>  <Energy>  (16) 
128.46396909537748

>  <Genealogy>  (16) 
CC[NH2+]CCn1cnc2[nH]c3ccccc3c21 (protonated)
CC[NH2+]CCn1cnc2[nH]c3ccccc3c21 (3D coordinates assigned)
CC[NH2+]CCn1cnc2[nH]c3ccccc3c21 (optimized conformer: 128.46396909537748 kcal/mol)

>  <smiles>  (16) 
CCNCCn1cnc2[nH]c3ccccc3c21

>  <score_type>  (16) 
oracle

>  <origin>  (16) 
adg

>  <m_score__min__energy>  (16) 
-4.6900000000000004

>  <m_primary>  (16) 
energy

$$$$
16:0
     RDKit          3D

 41 43  0  0  0  0  0  0  0  0999 V2000
   56.7730   27.2460   45.6560 C   0  0  0  0  0  0  0  0  0  0  0  0
   55.9410   28.3220   45.2430 O   0  0  0  0  0  0  0  0  0  0  0  0
   56.4310   29.4260   44.5380 C   0  0  0  0  0  0  0  0  0  0  0  0
   56.1920   29.5310   43.1530 C   0  0  0  0  0  0  0  0  0  0  0  0
   56.6810   30.6370   42.4410 C   0  0  0  0  0  0  0  0  0  0  0  0
   57.3920   31.5920   43.1590 C   0  0  0  0  0  0  0  0  0  0  0  0
   57.9440   32.7220   42.6820 N   0  0  0  0  0  0  0  0  0  0  0  0
   58.5180   33.3080   43.7620 C   0  0  0  0  0  0  0  0  0  0  0  0
   58.3000   32.5120   44.8830 C   0  0  0  0  0  0  0  0  0  0  0  0
   58.7580   32.7900   46.2610 C   0  0  0  0  0  0  0  0  0  0  0  0
   59.8880   33.5130   46.6050 C   0  0  0  0  0  0  0  0  0  0  0  0
   59.9440   33.5090   47.9860 C   0  0  0  0  0  0  0  0  0  0  0  0
   61.0410   34.1310   48.8060 C   0  0  0  0  0  0  0  0  0  0  0  0
   62.3550   33.5770   48.4200 N   0  0  0  0  0  0  0  0  0  0  0  0
   62.2460   32.1250   48.2120 C   0  0  0  0  0  0  0  0  0  0  0  0
   63.3650   33.8520   49.4560 C   0  0  0  0  0  0  0  0  0  0  0  0
   58.8970   32.8220   48.4900 N   0  0  0  0  0  0  0  0  0  0  0  0
   58.6350   32.5230   49.8960 C   0  0  0  0  0  0  0  0  0  0  0  0
   58.1740   32.3720   47.4450 C   0  0  0  0  0  0  0  0  0  0  0  0
   57.5910   31.4430   44.4750 N   0  0  0  0  0  0  0  0  0  0  0  0
   57.1380   30.4050   45.1750 N   0  0  0  0  0  0  0  0  0  0  0  0
   56.8033   27.2068   46.7549 H   0  0  0  0  0  0  0  0  0  0  0  0
   56.3693   26.2999   45.2664 H   0  0  0  0  0  0  0  0  0  0  0  0
   57.7903   27.3987   45.2664 H   0  0  0  0  0  0  0  0  0  0  0  0
   55.6232   28.7474   42.6311 H   0  0  0  0  0  0  0  0  0  0  0  0
   56.5089   30.7439   41.3598 H   0  0  0  0  0  0  0  0  0  0  0  0
   57.9350   33.0750   41.7000 H   0  0  0  0  0  0  0  0  0  0  0  0
   59.0682   34.2605   43.7535 H   0  0  0  0  0  0  0  0  0  0  0  0
   60.5987   33.9941   45.9169 H   0  0  0  0  0  0  0  0  0  0  0  0
   61.0442   35.2185   48.6405 H   0  0  0  0  0  0  0  0  0  0  0  0
   60.8601   33.9089   49.8680 H   0  0  0  0  0  0  0  0  0  0  0  0
   62.2078   31.6168   49.1868 H   0  0  0  0  0  0  0  0  0  0  0  0
   61.3287   31.9034   47.6468 H   0  0  0  0  0  0  0  0  0  0  0  0
   63.1199   31.7689   47.6468 H   0  0  0  0  0  0  0  0  0  0  0  0
   62.9125   33.7288   50.4510 H   0  0  0  0  0  0  0  0  0  0  0  0
   64.2044   33.1497   49.3454 H   0  0  0  0  0  0  0  0  0  0  0  0
   63.7325   34.8829   49.3454 H   0  0  0  0  0  0  0  0  0  0  0  0
   59.2269   33.1985   50.5310 H   0  0  0  0  0  0  0  0  0  0  0  0
   57.5649   32.6646   50.1077 H   0  0  0  0  0  0  0  0  0  0  0  0
   58.9159   31.4808   50.1077 H   0  0  0  0  0  0  0  0  0  0  0  0
   57.2596   31.7653   47.5212 H   0  0  0  0  0  0  0  0  0  0  0  0
  1  2  1  0
  2  3  1  0
  3  4  1  0
  4  5  2  0
  5  6  1  0
  6  7  2  0
  7  8  1  0
  8  9  2  0
  9 10  1  0
 10 11  1  0
 11 12  2  0
 12 13  1  0
 13 14  1  0
 14 15  1  0
 14 16  1  0
 12 17  1  0
 17 18  1  0
 17 19  1  0
  9 20  1  0
 20 21  1  0
 21  3  2  0
 20  6  1  0
 19 10  2  0
  1 22  1  0
  1 23  1  0
  1 24  1  0
  4 25  1  0
  5 26  1  0
  7 27  1  0
  8 28  1  0
 11 29  1  0
 13 30  1  0
 13 31  1  0
 15 32  1  0
 15 33  1  0
 15 34  1  0
 16 35  1  0
 16 36  1  0
 16 37  1  0
 18 38  1  0
 18 39  1  0
 18 40  1  0
 19 41  1  0
M  CHG  1   7   1
M  END
>  <UniqueID>  (17) 
17

>  <SMILES>  (17) 
COc1ccc2[nH+]cc(-c3cc(CN(C)C)n(C)c3)n2n1

>  <Energy>  (17) 
103.02795104762303

>  <Genealogy>  (17) 
COc1ccc2[nH+]cc(-c3cc(CN(C)C)n(C)c3)n2n1 (protonated)
COc1ccc2[nH+]cc(-c3cc(CN(C)C)n(C)c3)n2n1 (3D coordinates assigned)
COc1ccc2[nH+]cc(-c3cc(CN(C)C)n(C)c3)n2n1 (optimized conformer: 103.02795104762303 kcal/mol)

>  <smiles>  (17) 
COc1ccc2ncc(-c3cc(CN(C)C)n(C)c3)n2n1

>  <score_type>  (17) 
oracle

>  <origin>  (17) 
adg

>  <m_score__min__energy>  (17) 
-5.5300000000000002

>  <m_primary>  (17) 
energy

$$$$
17:0
     RDKit          3D

 43 44  0  0  0  0  0  0  0  0999 V2000
   58.8240   32.3600   48.9310 C   0  0  0  0  0  0  0  0  0  0  0  0
   59.6730   33.5480   48.4950 C   0  0  0  0  0  0  0  0  0  0  0  0
   60.1970   33.3150   47.1240 N   0  0  0  0  0  0  0  0  0  0  0  0
   61.4440   32.5170   47.1420 C   0  0  0  0  0  0  0  0  0  0  0  0
   62.6810   33.4070   47.0220 C   0  0  0  0  0  0  0  0  0  0  0  0
   60.3970   34.5850   46.3840 C   0  0  0  0  0  0  0  0  0  0  0  0
   59.2330   34.8560   45.4170 C   0  0  0  0  0  0  0  0  0  0  0  0
   58.0180   34.1170   45.8040 N   0  0  0  0  0  0  0  0  0  0  0  0
   57.3920   33.4130   44.6760 C   0  0  0  0  0  0  0  0  0  0  0  0
   57.6280   31.9320   44.7750 C   0  0  0  0  0  0  0  0  0  0  0  0
   57.9020   31.3350   45.9650 N   0  0  0  0  0  0  0  0  0  0  0  0
   57.9360   30.0290   45.6520 C   0  0  0  0  0  0  0  0  0  0  0  0
   58.1470   28.9570   46.5160 C   0  0  0  0  0  0  0  0  0  0  0  0
   58.0930   27.6600   45.9760 C   0  0  0  0  0  0  0  0  0  0  0  0
   57.8250   27.4670   44.6030 C   0  0  0  0  0  0  0  0  0  0  0  0
   57.6110   28.5720   43.7560 C   0  0  0  0  0  0  0  0  0  0  0  0
   57.6850   29.8480   44.3230 C   0  0  0  0  0  0  0  0  0  0  0  0
   57.5030   31.0480   43.7450 N   0  0  0  0  0  0  0  0  0  0  0  0
   57.1100   31.3170   42.3610 C   0  0  0  0  0  0  0  0  0  0  0  0
   58.7922   32.3156   50.0296 H   0  0  0  0  0  0  0  0  0  0  0  0
   57.8027   32.4757   48.5390 H   0  0  0  0  0  0  0  0  0  0  0  0
   59.2642   31.4312   48.5390 H   0  0  0  0  0  0  0  0  0  0  0  0
   59.0567   34.4591   48.5006 H   0  0  0  0  0  0  0  0  0  0  0  0
   60.5163   33.6672   49.1911 H   0  0  0  0  0  0  0  0  0  0  0  0
   61.4966   31.9576   48.0877 H   0  0  0  0  0  0  0  0  0  0  0  0
   61.4274   31.8317   46.2817 H   0  0  0  0  0  0  0  0  0  0  0  0
   63.0438   33.6680   48.0271 H   0  0  0  0  0  0  0  0  0  0  0  0
   63.4692   32.8677   46.4763 H   0  0  0  0  0  0  0  0  0  0  0  0
   62.4201   34.3258   46.4763 H   0  0  0  0  0  0  0  0  0  0  0  0
   60.4645   35.4132   47.1048 H   0  0  0  0  0  0  0  0  0  0  0  0
   61.3242   34.5035   45.7978 H   0  0  0  0  0  0  0  0  0  0  0  0
   59.0108   35.9333   45.4200 H   0  0  0  0  0  0  0  0  0  0  0  0
   59.5347   34.5179   44.4147 H   0  0  0  0  0  0  0  0  0  0  0  0
   58.3000   33.3890   46.5020 H   0  0  0  0  0  0  0  0  0  0  0  0
   56.3093   33.6072   44.6856 H   0  0  0  0  0  0  0  0  0  0  0  0
   57.8381   33.7797   43.7398 H   0  0  0  0  0  0  0  0  0  0  0  0
   58.3491   29.1197   47.5850 H   0  0  0  0  0  0  0  0  0  0  0  0
   58.2606   26.7897   46.6275 H   0  0  0  0  0  0  0  0  0  0  0  0
   57.7831   26.4474   44.1924 H   0  0  0  0  0  0  0  0  0  0  0  0
   57.3934   28.4359   42.6864 H   0  0  0  0  0  0  0  0  0  0  0  0
   56.2023   31.9383   42.3517 H   0  0  0  0  0  0  0  0  0  0  0  0
   57.9235   31.8486   41.8456 H   0  0  0  0  0  0  0  0  0  0  0  0
   56.9089   30.3663   41.8456 H   0  0  0  0  0  0  0  0  0  0  0  0
  1  2  1  0
  2  3  1  0
  3  4  1  0
  4  5  1  0
  3  6  1  0
  6  7  1  0
  7  8  1  0
  8  9  1  0
  9 10  1  0
 10 11  2  0
 11 12  1  0
 12 13  2  0
 13 14  1  0
 14 15  2  0
 15 16  1  0
 16 17  2  0
 17 18  1  0
 18 19  1  0
 18 10  1  0
 17 12  1  0
  1 20  1  0
  1 21  1  0
  1 22  1  0
  2 23  1  0
  2 24  1  0
  4 25  1  0
  4 26  1  0
  5 27  1  0
  5 28  1  0
  5 29  1  0
  6 30  1  0
  6 31  1  0
  7 32  1  0
  7 33  1  0
  8 34  1  0
  9 35  1  0
  9 36  1  0
 13 37  1  0
 14 38  1  0
 15 39  1  0
 16 40  1  0
 19 41  1  0
 19 42  1  0
 19 43  1  0
M  END
>  <UniqueID>  (18) 
18

>  <SMILES>  (18) 
CCN(CC)CCNCc1nc2ccccc2n1C

>  <Energy>  (18) 
78.39775750041606

>  <Genealogy>  (18) 
CCN(CC)CCNCc1nc2ccccc2n1C (3D coordinates assigned)
CCN(CC)CCNCc1nc2ccccc2n1C (optimized conformer: 78.39775750041606 kcal/mol)

>  <smiles>  (18) 
CCN(CC)CCNCc1nc2ccccc2n1C

>  <score_type>  (18) 
oracle

>  <origin>  (18) 
adg

>  <m_score__min__energy>  (18) 
-6.3700000000000001

>  <m_primary>  (18) 
energy

$$$$
18:0
     RDKit          3D

 54 55  0  0  0  0  0  0  0  0999 V2000
   59.9210   29.1840   49.1170 C   0  0  0  0  0  0  0  0  0  0  0  0
   58.8940   28.8220   48.0400 C   0  0  0  0  0  0  0  0  0  0  0  0
   59.4620   27.9750   46.9790 N   0  0  0  0  0  0  0  0  0  0  0  0
   59.5890   26.5710   47.3920 C   0  0  0  0  0  0  0  0  0  0  0  0
   58.2130   25.9070   47.4390 C   0  0  0  0  0  0  0  0  0  0  0  0
   57.2970   26.6140   46.6210 O   0  0  0  0  0  0  0  0  0  0  0  0
   56.6850   25.7650   45.6680 C   0  0  0  0  0  0  0  0  0  0  0  0
   57.5760   25.6130   44.4320 C   0  0  0  0  0  0  0  0  0  0  0  0
   58.4590   26.7810   44.3070 N   0  0  0  0  0  0  0  0  0  0  0  0
   57.8810   27.7940   43.4120 C   0  0  0  0  0  0  0  0  0  0  0  0
   57.7630   29.1160   44.1110 C   0  0  0  0  0  0  0  0  0  0  0  0
   58.7460   29.6660   44.8480 N   0  0  0  0  0  0  0  0  0  0  0  0
   58.1960   30.8190   45.2930 C   0  0  0  0  0  0  0  0  0  0  0  0
   58.9040   31.7850   46.1570 C   0  0  0  0  0  0  0  0  0  0  0  0
   58.2840   32.9890   46.5260 C   0  0  0  0  0  0  0  0  0  0  0  0
   58.9490   33.9090   47.3450 C   0  0  0  0  0  0  0  0  0  0  0  0
   60.2530   33.6380   47.8040 C   0  0  0  0  0  0  0  0  0  0  0  0
   60.9680   34.5220   48.6280 O   0  0  0  0  0  0  0  0  0  0  0  0
   61.9630   34.1490   49.5810 C   0  0  0  0  0  0  0  0  0  0  0  0
   63.2900   33.8510   48.8920 C   0  0  0  0  0  0  0  0  0  0  0  0
   60.8670   32.4340   47.4370 C   0  0  0  0  0  0  0  0  0  0  0  0
   60.2020   31.5140   46.6210 C   0  0  0  0  0  0  0  0  0  0  0  0
   56.9600   30.9860   44.8720 O   0  0  0  0  0  0  0  0  0  0  0  0
   56.6620   29.9480   44.1330 C   0  0  0  0  0  0  0  0  0  0  0  0
   55.3370   29.7210   43.4820 C   0  0  0  0  0  0  0  0  0  0  0  0
   59.4791   29.0282   50.1122 H   0  0  0  0  0  0  0  0  0  0  0  0
   60.8094   28.5448   49.0062 H   0  0  0  0  0  0  0  0  0  0  0  0
   60.2122   30.2389   49.0062 H   0  0  0  0  0  0  0  0  0  0  0  0
   58.0614   28.2818   48.5143 H   0  0  0  0  0  0  0  0  0  0  0  0
   58.5559   29.7590   47.5734 H   0  0  0  0  0  0  0  0  0  0  0  0
   58.8530   28.0290   46.1290 H   0  0  0  0  0  0  0  0  0  0  0  0
   60.2257   26.0367   46.6715 H   0  0  0  0  0  0  0  0  0  0  0  0
   60.0405   26.5316   48.3943 H   0  0  0  0  0  0  0  0  0  0  0  0
   58.2974   24.8714   47.0779 H   0  0  0  0  0  0  0  0  0  0  0  0
   57.8469   25.9160   48.4762 H   0  0  0  0  0  0  0  0  0  0  0  0
   56.5198   24.7753   46.1187 H   0  0  0  0  0  0  0  0  0  0  0  0
   55.7259   26.2082   45.3619 H   0  0  0  0  0  0  0  0  0  0  0  0
   58.1861   24.7032   44.5315 H   0  0  0  0  0  0  0  0  0  0  0  0
   56.9430   25.5391   43.5354 H   0  0  0  0  0  0  0  0  0  0  0  0
   58.5470   27.2180   45.2540 H   0  0  0  0  0  0  0  0  0  0  0  0
   58.5290   27.9085   42.5305 H   0  0  0  0  0  0  0  0  0  0  0  0
   56.8765   27.4645   43.1080 H   0  0  0  0  0  0  0  0  0  0  0  0
   57.2676   33.2113   46.1688 H   0  0  0  0  0  0  0  0  0  0  0  0
   58.4514   34.8473   47.6313 H   0  0  0  0  0  0  0  0  0  0  0  0
   62.1050   34.9735   50.2952 H   0  0  0  0  0  0  0  0  0  0  0  0
   61.6266   33.2418   50.1043 H   0  0  0  0  0  0  0  0  0  0  0  0
   64.0664   33.6766   49.6514 H   0  0  0  0  0  0  0  0  0  0  0  0
   63.1837   32.9544   48.2637 H   0  0  0  0  0  0  0  0  0  0  0  0
   63.5773   34.7070   48.2637 H   0  0  0  0  0  0  0  0  0  0  0  0
   61.8829   32.2099   47.7944 H   0  0  0  0  0  0  0  0  0  0  0  0
   60.6978   30.5729   46.3408 H   0  0  0  0  0  0  0  0  0  0  0  0
   54.5662   29.5889   44.2556 H   0  0  0  0  0  0  0  0  0  0  0  0
   55.0828   30.5887   42.8555 H   0  0  0  0  0  0  0  0  0  0  0  0
   55.3862   28.8182   42.8555 H   0  0  0  0  0  0  0  0  0  0  0  0
  1  2  1  0
  2  3  1  0
  3  4  1  0
  4  5  1  0
  5  6  1  0
  6  7  1  0
  7  8  1  0
  8  9  1  0
  9 10  1  0
 10 11  1  0
 11 12  1  0
 12 13  2  0
 13 14  1  0
 14 15  2  0
 15 16  1  0
 16 17  2  0
 17 18  1  0
 18 19  1  0
 19 20  1  0
 17 21  1  0
 21 22  2  0
 13 23  1  0
 23 24  1  0
 24 25  1  0
 24 11  2  0
 22 14  1  0
  1 26  1  0
  1 27  1  0
  1 28  1  0
  2 29  1  0
  2 30  1  0
  3 31  1  0
  4 32  1  0
  4 33  1  0
  5 34  1  0
  5 35  1  0
  7 36  1  0
  7 37  1  0
  8 38  1  0
  8 39  1  0
  9 40  1  0
 10 41  1  0
 10 42  1  0
 15 43  1  0
 16 44  1  0
 19 45  1  0
 19 46  1  0
 20 47  1  0
 20 48  1  0
 20 49  1  0
 21 50  1  0
 22 51  1  0
 25 52  1  0
 25 53  1  0
 25 54  1  0
M  END
>  <UniqueID>  (19) 
19

>  <SMILES>  (19) 
CCNCCOCCNCc1nc(-c2ccc(OCC)cc2)oc1C

>  <Energy>  (19) 
75.01385651237423

>  <Genealogy>  (19) 
CCNCCOCCNCc1nc(-c2ccc(OCC)cc2)oc1C (3D coordinates assigned)
CCNCCOCCNCc1nc(-c2ccc(OCC)cc2)oc1C (optimized conformer: 75.01385651237423 kcal/mol)

>  <smiles>  (19) 
CCNCCOCCNCc1nc(-c2ccc(OCC)cc2)oc1C

>  <score_type>  (19) 
oracle

>  <origin>  (19) 
adg

>  <m_score__min__energy>  (19) 
-7.1600000000000001

>  <m_primary>  (19) 
energy

$$$$
19:0
     RDKit          3D

 59 62  0  0  0  0  0  0  0  0999 V2000
   58.5780   33.4170   52.0080 C   0  0  0  0  0  0  0  0  0  0  0  0
   58.1290   32.3420   51.0060 C   0  0  0  0  0  0  0  0  0  0  0  0
   59.2280   31.4950   50.4720 N   0  0  0  0  0  0  0  0  0  0  0  0
   60.4860   31.7020   51.2100 C   0  0  0  0  0  0  0  0  0  0  0  0
   58.9170   30.0530   50.3780 C   0  0  0  0  0  0  0  0  0  0  0  0
   58.8870   29.5560   48.9190 C   0  0  0  0  0  0  0  0  0  0  0  0
   59.7300   30.3750   48.0310 N   0  0  0  0  0  0  0  0  0  0  0  0
   59.1550   30.4950   46.6940 C   0  0  0  0  0  0  0  0  0  0  0  0
   58.9320   29.3180   45.9060 C   0  0  0  0  0  0  0  0  0  0  0  0
   59.4160   28.0300   46.2830 C   0  0  0  0  0  0  0  0  0  0  0  0
   59.1970   26.9070   45.4900 C   0  0  0  0  0  0  0  0  0  0  0  0
   58.5060   27.0210   44.2970 C   0  0  0  0  0  0  0  0  0  0  0  0
   58.0160   28.2560   43.8980 C   0  0  0  0  0  0  0  0  0  0  0  0
   58.1820   29.4140   44.7020 C   0  0  0  0  0  0  0  0  0  0  0  0
   57.6330   30.6130   44.3190 N   0  0  0  0  0  0  0  0  0  0  0  0
   56.5760   30.6400   43.2840 C   0  0  0  0  0  0  0  0  0  0  0  0
   58.0460   31.7860   44.9100 C   0  0  0  0  0  0  0  0  0  0  0  0
   57.7730   33.0220   44.2750 C   0  0  0  0  0  0  0  0  0  0  0  0
   58.0820   34.2290   44.8750 C   0  0  0  0  0  0  0  0  0  0  0  0
   58.6670   34.2420   46.1230 C   0  0  0  0  0  0  0  0  0  0  0  0
   59.0030   33.0550   46.7820 C   0  0  0  0  0  0  0  0  0  0  0  0
   59.6290   33.2260   48.0580 N   0  0  0  0  0  0  0  0  0  0  0  0
   61.0560   33.3480   48.2250 C   0  0  0  0  0  0  0  0  0  0  0  0
   61.6130   34.1010   49.2780 C   0  0  0  0  0  0  0  0  0  0  0  0
   62.9990   34.1810   49.4320 C   0  0  0  0  0  0  0  0  0  0  0  0
   63.8430   33.5130   48.5420 C   0  0  0  0  0  0  0  0  0  0  0  0
   63.3000   32.7560   47.5000 C   0  0  0  0  0  0  0  0  0  0  0  0
   61.9150   32.6720   47.3420 C   0  0  0  0  0  0  0  0  0  0  0  0
   58.7540   31.7730   46.1570 C   0  0  0  0  0  0  0  0  0  0  0  0
   58.4245   33.0495   53.0334 H   0  0  0  0  0  0  0  0  0  0  0  0
   59.6442   33.6394   51.8540 H   0  0  0  0  0  0  0  0  0  0  0  0
   57.9867   34.3317   51.8540 H   0  0  0  0  0  0  0  0  0  0  0  0
   57.4037   31.6857   51.5092 H   0  0  0  0  0  0  0  0  0  0  0  0
   57.7022   32.8775   50.1452 H   0  0  0  0  0  0  0  0  0  0  0  0
   60.2865   31.6692   52.2912 H   0  0  0  0  0  0  0  0  0  0  0  0
   61.2013   30.9095   50.9449 H   0  0  0  0  0  0  0  0  0  0  0  0
   60.9096   32.6819   50.9449 H   0  0  0  0  0  0  0  0  0  0  0  0
   59.6843   29.4888   50.9284 H   0  0  0  0  0  0  0  0  0  0  0  0
   57.9171   29.8951   50.8084 H   0  0  0  0  0  0  0  0  0  0  0  0
   59.2491   28.5177   48.8917 H   0  0  0  0  0  0  0  0  0  0  0  0
   57.8498   29.6298   48.5600 H   0  0  0  0  0  0  0  0  0  0  0  0
   59.9110   31.3070   48.4430 H   0  0  0  0  0  0  0  0  0  0  0  0
   60.6980   30.0030   48.0470 H   0  0  0  0  0  0  0  0  0  0  0  0
   59.9761   27.9216   47.2235 H   0  0  0  0  0  0  0  0  0  0  0  0
   59.5747   25.9257   45.8131 H   0  0  0  0  0  0  0  0  0  0  0  0
   58.3454   26.1343   43.6661 H   0  0  0  0  0  0  0  0  0  0  0  0
   57.4870   28.3398   42.9372 H   0  0  0  0  0  0  0  0  0  0  0  0
   55.5888   30.6652   43.7686 H   0  0  0  0  0  0  0  0  0  0  0  0
   56.6996   31.5353   42.6569 H   0  0  0  0  0  0  0  0  0  0  0  0
   56.6537   29.7396   42.6569 H   0  0  0  0  0  0  0  0  0  0  0  0
   57.3037   33.0220   43.2802 H   0  0  0  0  0  0  0  0  0  0  0  0
   57.8618   35.1749   44.3584 H   0  0  0  0  0  0  0  0  0  0  0  0
   58.8739   35.2060   46.6108 H   0  0  0  0  0  0  0  0  0  0  0  0
   59.0620   32.9570   48.8930 H   0  0  0  0  0  0  0  0  0  0  0  0
   60.9529   34.6285   49.9823 H   0  0  0  0  0  0  0  0  0  0  0  0
   63.4266   34.7713   50.2559 H   0  0  0  0  0  0  0  0  0  0  0  0
   64.9343   33.5826   48.6610 H   0  0  0  0  0  0  0  0  0  0  0  0
   63.9651   32.2252   46.8029 H   0  0  0  0  0  0  0  0  0  0  0  0
   61.4939   32.0729   46.5212 H   0  0  0  0  0  0  0  0  0  0  0  0
  1  2  1  0
  2  3  1  0
  3  4  1  0
  3  5  1  0
  5  6  1  0
  6  7  1  0
  7  8  1  0
  8  9  2  0
  9 10  1  0
 10 11  2  0
 11 12  1  0
 12 13  2  0
 13 14  1  0
 14 15  2  0
 15 16  1  0
 15 17  1  0
 17 18  2  0
 18 19  1  0
 19 20  2  0
 20 21  1  0
 21 22  1  0
 22 23  1  0
 23 24  2  0
 24 25  1  0
 25 26  2  0
 26 27  1  0
 27 28  2  0
 21 29  2  0
 29  8  1  0
 14  9  1  0
 29 17  1  0
 28 23  1  0
  1 30  1  0
  1 31  1  0
  1 32  1  0
  2 33  1  0
  2 34  1  0
  4 35  1  0
  4 36  1  0
  4 37  1  0
  5 38  1  0
  5 39  1  0
  6 40  1  0
  6 41  1  0
  7 42  1  0
  7 43  1  0
 10 44  1  0
 11 45  1  0
 12 46  1  0
 13 47  1  0
 16 48  1  0
 16 49  1  0
 16 50  1  0
 18 51  1  0
 19 52  1  0
 20 53  1  0
 22 54  1  0
 24 55  1  0
 25 56  1  0
 26 57  1  0
 27 58  1  0
 28 59  1  0
M  CHG  2   7   1  15   1
M  END
>  <UniqueID>  (20) 
20

>  <SMILES>  (20) 
CCN(C)CC[NH2+]c1c2ccccc2[n+](C)c2cccc(Nc3ccccc3)c12

>  <Energy>  (20) 
111.69541560621981

>  <Genealogy>  (20) 
CCN(C)CC[NH2+]c1c2ccccc2[n+](C)c2cccc(Nc3ccccc3)c12 (protonated)
CCN(C)CC[NH2+]c1c2ccccc2[n+](C)c2cccc(Nc3ccccc3)c12 (3D coordinates assigned)
CCN(C)CC[NH2+]c1c2ccccc2[n+](C)c2cccc(Nc3ccccc3)c12 (optimized conformer: 111.69541560621981 kcal/mol)

>  <smiles>  (20) 
CCN(C)CCNc1c2ccccc2[n+](C)c2cccc(Nc3ccccc3)c12

>  <score_type>  (20) 
oracle

>  <origin>  (20) 
adg

>  <m_score__min__energy>  (20) 
-4.8300000000000001

>  <m_primary>  (20) 
energy

$$$$
20:0
     RDKit          3D

 67 69  0  0  0  0  0  0  0  0999 V2000
   63.0200   30.4940   50.8920 C   0  0  0  0  0  0  0  0  0  0  0  0
   61.5610   30.0620   50.7970 C   0  0  0  0  0  0  0  0  0  0  0  0
   60.6070   31.1840   51.2300 C   0  0  0  0  0  0  0  0  0  0  0  0
   59.5410   31.3580   50.2120 N   0  0  0  0  0  0  0  0  0  0  0  0
   58.5290   30.2750   50.2700 C   0  0  0  0  0  0  0  0  0  0  0  0
   57.5150   30.5230   51.3900 C   0  0  0  0  0  0  0  0  0  0  0  0
   58.9050   32.6960   50.3120 C   0  0  0  0  0  0  0  0  0  0  0  0
   59.9970   33.7670   50.4250 C   0  0  0  0  0  0  0  0  0  0  0  0
   60.9900   33.6020   49.4330 O   0  0  0  0  0  0  0  0  0  0  0  0
   62.2880   33.8940   49.9230 C   0  0  0  0  0  0  0  0  0  0  0  0
   63.2900   34.1140   48.7750 C   0  0  0  0  0  0  0  0  0  0  0  0
   62.8200   33.6250   47.5290 O   0  0  0  0  0  0  0  0  0  0  0  0
   63.4300   32.3890   47.1950 C   0  0  0  0  0  0  0  0  0  0  0  0
   62.4410   31.2470   47.4540 C   0  0  0  0  0  0  0  0  0  0  0  0
   61.1090   31.7240   47.8890 N   0  0  0  0  0  0  0  0  0  0  0  0
   60.0330   31.3040   46.9970 C   0  0  0  0  0  0  0  0  0  0  0  0
   59.6760   29.9270   46.9050 C   0  0  0  0  0  0  0  0  0  0  0  0
   60.3210   28.9330   47.6860 C   0  0  0  0  0  0  0  0  0  0  0  0
   59.9210   27.5990   47.6310 C   0  0  0  0  0  0  0  0  0  0  0  0
   58.8710   27.2200   46.8090 C   0  0  0  0  0  0  0  0  0  0  0  0
   58.2310   28.1670   46.0160 C   0  0  0  0  0  0  0  0  0  0  0  0
   58.6430   29.5260   46.0120 C   0  0  0  0  0  0  0  0  0  0  0  0
   58.0500   30.4470   45.1740 N   0  0  0  0  0  0  0  0  0  0  0  0
   57.2230   29.9870   44.0340 C   0  0  0  0  0  0  0  0  0  0  0  0
   58.2380   31.7970   45.3830 C   0  0  0  0  0  0  0  0  0  0  0  0
   57.3990   32.7580   44.7600 C   0  0  0  0  0  0  0  0  0  0  0  0
   57.6190   34.1220   44.9170 C   0  0  0  0  0  0  0  0  0  0  0  0
   58.6730   34.5680   45.6960 C   0  0  0  0  0  0  0  0  0  0  0  0
   59.4920   33.6540   46.3540 C   0  0  0  0  0  0  0  0  0  0  0  0
   59.2710   32.2550   46.2510 C   0  0  0  0  0  0  0  0  0  0  0  0
   63.3089   30.5795   51.9499 H   0  0  0  0  0  0  0  0  0  0  0  0
   63.6569   29.7459   50.3973 H   0  0  0  0  0  0  0  0  0  0  0  0
   63.1469   31.4683   50.3973 H   0  0  0  0  0  0  0  0  0  0  0  0
   61.3379   29.7865   49.7557 H   0  0  0  0  0  0  0  0  0  0  0  0
   61.4123   29.2061   51.4718 H   0  0  0  0  0  0  0  0  0  0  0  0
   60.1504   30.9226   52.1960 H   0  0  0  0  0  0  0  0  0  0  0  0
   61.1715   32.1229   51.3290 H   0  0  0  0  0  0  0  0  0  0  0  0
   57.9971   30.2293   49.3083 H   0  0  0  0  0  0  0  0  0  0  0  0
   59.0464   29.3258   50.4730 H   0  0  0  0  0  0  0  0  0  0  0  0
   58.0091   30.4022   52.3653 H   0  0  0  0  0  0  0  0  0  0  0  0
   57.1171   31.5449   51.3047 H   0  0  0  0  0  0  0  0  0  0  0  0
   56.6903   29.8001   51.3047 H   0  0  0  0  0  0  0  0  0  0  0  0
   58.2981   32.8828   49.4138 H   0  0  0  0  0  0  0  0  0  0  0  0
   58.2588   32.7322   51.2015 H   0  0  0  0  0  0  0  0  0  0  0  0
   59.5373   34.7596   50.3088 H   0  0  0  0  0  0  0  0  0  0  0  0
   60.4750   33.6693   51.4109 H   0  0  0  0  0  0  0  0  0  0  0  0
   62.2415   34.8061   50.5361 H   0  0  0  0  0  0  0  0  0  0  0  0
   62.6315   33.0367   50.5205 H   0  0  0  0  0  0  0  0  0  0  0  0
   63.4816   35.1929   48.6786 H   0  0  0  0  0  0  0  0  0  0  0  0
   64.2045   33.5558   49.0243 H   0  0  0  0  0  0  0  0  0  0  0  0
   63.7136   32.3950   46.1322 H   0  0  0  0  0  0  0  0  0  0  0  0
   64.3287   32.2440   47.8125 H   0  0  0  0  0  0  0  0  0  0  0  0
   62.3207   30.6699   46.5253 H   0  0  0  0  0  0  0  0  0  0  0  0
   62.8530   30.6328   48.2682 H   0  0  0  0  0  0  0  0  0  0  0  0
   61.1260   32.7670   47.9450 H   0  0  0  0  0  0  0  0  0  0  0  0
   60.9440   31.4610   48.8820 H   0  0  0  0  0  0  0  0  0  0  0  0
   61.1519   29.2207   48.3469 H   0  0  0  0  0  0  0  0  0  0  0  0
   60.4397   26.8451   48.2413 H   0  0  0  0  0  0  0  0  0  0  0  0
   58.5438   26.1701   46.7838 H   0  0  0  0  0  0  0  0  0  0  0  0
   57.3891   27.8570   45.3795 H   0  0  0  0  0  0  0  0  0  0  0  0
   56.3210   29.4853   44.4143 H   0  0  0  0  0  0  0  0  0  0  0  0
   56.9304   30.8520   43.4207 H   0  0  0  0  0  0  0  0  0  0  0  0
   57.8036   29.2822   43.4207 H   0  0  0  0  0  0  0  0  0  0  0  0
   56.5571   32.4163   44.1400 H   0  0  0  0  0  0  0  0  0  0  0  0
   56.9556   34.8466   44.4223 H   0  0  0  0  0  0  0  0  0  0  0  0
   58.8639   35.6467   45.7954 H   0  0  0  0  0  0  0  0  0  0  0  0
   60.3277   34.0234   46.9664 H   0  0  0  0  0  0  0  0  0  0  0  0
  1  2  1  0
  2  3  1  0
  3  4  1  0
  4  5  1  0
  5  6  1  0
  4  7  1  0
  7  8  1  0
  8  9  1  0
  9 10  1  0
 10 11  1  0
 11 12  1  0
 12 13  1  0
 13 14  1  0
 14 15  1  0
 15 16  1  0
 16 17  2  0
 17 18  1  0
 18 19  2  0
 19 20  1  0
 20 21  2  0
 21 22  1  0
 22 23  2  0
 23 24  1  0
 23 25  1  0
 25 26  2  0
 26 27  1  0
 27 28  2  0
 28 29  1  0
 29 30  2  0
 30 16  1  0
 22 17  1  0
 30 25  1  0
  1 31  1  0
  1 32  1  0
  1 33  1  0
  2 34  1  0
  2 35  1  0
  3 36  1  0
  3 37  1  0
  5 38  1  0
  5 39  1  0
  6 40  1  0
  6 41  1  0
  6 42  1  0
  7 43  1  0
  7 44  1  0
  8 45  1  0
  8 46  1  0
 10 47  1  0
 10 48  1  0
 11 49  1  0
 11 50  1  0
 13 51  1  0
 13 52  1  0
 14 53  1  0
 14 54  1  0
 15 55  1  0
 15 56  1  0
 18 57  1  0
 19 58  1  0
 20 59  1  0
 21 60  1  0
 24 61  1  0
 24 62  1  0
 24 63  1  0
 26 64  1  0
 27 65  1  0
 28 66  1  0
 29 67  1  0
M  CHG  2  15   1  23   1
M  END
>  <UniqueID>  (21) 
21

>  <SMILES>  (21) 
CCCN(CC)CCOCCOCC[NH2+]c1c2ccccc2[n+](C)c2ccccc12

>  <Energy>  (21) 
96.61786728966725

>  <Genealogy>  (21) 
CCCN(CC)CCOCCOCC[NH2+]c1c2ccccc2[n+](C)c2ccccc12 (protonated)
CCCN(CC)CCOCCOCC[NH2+]c1c2ccccc2[n+](C)c2ccccc12 (3D coordinates assigned)
CCCN(CC)CCOCCOCC[NH2+]c1c2ccccc2[n+](C)c2ccccc12 (optimized conformer: 96.61786728966725 kcal/mol)

>  <smiles>  (21) 
CCCN(CC)CCOCCOCCNc1c2ccccc2[n+](C)c2ccccc12

>  <score_type>  (21) 
oracle

>  <origin>  (21) 
adg

>  <m_score__min__energy>  (21) 
-4.1399999999999997

>  <m_primary>  (21) 
energy

$$$$
21:0
     RDKit          3D

 73 77  0  0  0  0  0  0  0  0999 V2000
   63.4080   33.1830   46.8280 C   0  0  0  0  0  0  0  0  0  0  0  0
   63.0950   31.7410   47.2190 C   0  0  0  0  0  0  0  0  0  0  0  0
   61.6500   31.5610   47.4440 N   0  0  0  0  0  0  0  0  0  0  0  0
   60.8670   32.7040   46.9400 C   0  0  0  0  0  0  0  0  0  0  0  0
   59.6450   32.2540   46.1820 C   0  0  0  0  0  0  0  0  0  0  0  0
   58.5310   33.0940   46.0550 C   0  0  0  0  0  0  0  0  0  0  0  0
   57.4020   32.6400   45.3690 C   0  0  0  0  0  0  0  0  0  0  0  0
   57.3900   31.3520   44.8210 C   0  0  0  0  0  0  0  0  0  0  0  0
   56.2810   30.8730   44.1210 C   0  0  0  0  0  0  0  0  0  0  0  0
   56.3100   29.5920   43.5790 C   0  0  0  0  0  0  0  0  0  0  0  0
   57.4470   28.7970   43.7430 C   0  0  0  0  0  0  0  0  0  0  0  0
   58.5370   29.2620   44.4280 N   0  0  0  0  0  0  0  0  0  0  0  0
   59.7330   28.4050   44.4990 C   0  0  0  0  0  0  0  0  0  0  0  0
   59.6310   27.4240   45.6690 C   0  0  0  0  0  0  0  0  0  0  0  0
   58.9770   28.0280   46.7700 O   0  0  0  0  0  0  0  0  0  0  0  0
   59.4280   27.4990   48.0050 C   0  0  0  0  0  0  0  0  0  0  0  0
   60.2540   28.5170   48.8070 C   0  0  0  0  0  0  0  0  0  0  0  0
   59.9030   29.9010   48.4520 N   0  0  0  0  0  0  0  0  0  0  0  0
   58.9680   30.5260   49.4020 C   0  0  0  0  0  0  0  0  0  0  0  0
   59.4340   30.3950   50.8640 C   0  0  0  0  0  0  0  0  0  0  0  0
   60.8420   30.7860   50.9890 N   0  0  0  0  0  0  0  0  0  0  0  0
   61.3950   31.9780   50.6440 C   0  0  0  0  0  0  0  0  0  0  0  0
   60.7540   33.1030   50.1190 C   0  0  0  0  0  0  0  0  0  0  0  0
   61.5400   34.2260   49.8030 C   0  0  0  0  0  0  0  0  0  0  0  0
   62.9370   34.2060   50.0110 C   0  0  0  0  0  0  0  0  0  0  0  0
   63.5650   33.0620   50.5310 C   0  0  0  0  0  0  0  0  0  0  0  0
   62.7620   31.9650   50.8360 C   0  0  0  0  0  0  0  0  0  0  0  0
   63.0710   30.7090   51.3060 C   0  0  0  0  0  0  0  0  0  0  0  0
   64.2830   30.1130   51.6370 C   0  0  0  0  0  0  0  0  0  0  0  0
   64.2780   28.8050   52.0500 N   0  0  0  0  0  0  0  0  0  0  0  0
   65.5510   28.1530   52.3650 C   0  0  0  0  0  0  0  0  0  0  0  0
   63.1070   28.0820   52.1020 C   0  0  0  0  0  0  0  0  0  0  0  0
   61.8730   28.6740   51.7730 C   0  0  0  0  0  0  0  0  0  0  0  0
   61.8870   30.0120   51.3770 C   0  0  0  0  0  0  0  0  0  0  0  0
   58.5260   30.5250   44.9710 C   0  0  0  0  0  0  0  0  0  0  0  0
   59.6120   31.0040   45.6460 N   0  0  0  0  0  0  0  0  0  0  0  0
   63.5395   33.7890   47.7366 H   0  0  0  0  0  0  0  0  0  0  0  0
   64.3327   33.2091   46.2328 H   0  0  0  0  0  0  0  0  0  0  0  0
   62.5773   33.5901   46.2328 H   0  0  0  0  0  0  0  0  0  0  0  0
   63.4204   31.0696   46.4107 H   0  0  0  0  0  0  0  0  0  0  0  0
   63.6288   31.5051   48.1514 H   0  0  0  0  0  0  0  0  0  0  0  0
   61.3270   30.7030   46.9390 H   0  0  0  0  0  0  0  0  0  0  0  0
   61.4650   31.4320   48.4660 H   0  0  0  0  0  0  0  0  0  0  0  0
   60.5495   33.3219   47.7929 H   0  0  0  0  0  0  0  0  0  0  0  0
   61.5044   33.2782   46.2515 H   0  0  0  0  0  0  0  0  0  0  0  0
   58.5452   34.1033   46.4921 H   0  0  0  0  0  0  0  0  0  0  0  0
   56.5239   33.2935   45.2596 H   0  0  0  0  0  0  0  0  0  0  0  0
   55.3891   31.5051   43.9987 H   0  0  0  0  0  0  0  0  0  0  0  0
   55.4418   29.2070   43.0240 H   0  0  0  0  0  0  0  0  0  0  0  0
   57.4666   27.7835   43.3158 H   0  0  0  0  0  0  0  0  0  0  0  0
   59.8268   27.8385   43.5607 H   0  0  0  0  0  0  0  0  0  0  0  0
   60.6155   29.0438   44.6509 H   0  0  0  0  0  0  0  0  0  0  0  0
   59.0602   26.5393   45.3503 H   0  0  0  0  0  0  0  0  0  0  0  0
   60.6459   27.1315   45.9762 H   0  0  0  0  0  0  0  0  0  0  0  0
   58.5540   27.2024   48.6034 H   0  0  0  0  0  0  0  0  0  0  0  0
   60.0754   26.6370   47.7863 H   0  0  0  0  0  0  0  0  0  0  0  0
   60.0639   28.3647   49.8797 H   0  0  0  0  0  0  0  0  0  0  0  0
   61.3166   28.3604   48.5696 H   0  0  0  0  0  0  0  0  0  0  0  0
   59.4780   29.9090   47.4940 H   0  0  0  0  0  0  0  0  0  0  0  0
   58.8768   31.5942   49.1556 H   0  0  0  0  0  0  0  0  0  0  0  0
   58.0033   30.0052   49.3117 H   0  0  0  0  0  0  0  0  0  0  0  0
   58.8187   31.0480   51.5004 H   0  0  0  0  0  0  0  0  0  0  0  0
   59.3253   29.3471   51.1805 H   0  0  0  0  0  0  0  0  0  0  0  0
   59.6660   33.1103   49.9574 H   0  0  0  0  0  0  0  0  0  0  0  0
   61.0628   35.1272   49.3905 H   0  0  0  0  0  0  0  0  0  0  0  0
   63.5381   35.0935   49.7638 H   0  0  0  0  0  0  0  0  0  0  0  0
   64.6528   33.0333   50.6918 H   0  0  0  0  0  0  0  0  0  0  0  0
   65.2245   30.6778   51.5692 H   0  0  0  0  0  0  0  0  0  0  0  0
   65.6712   28.0915   53.4567 H   0  0  0  0  0  0  0  0  0  0  0  0
   65.5596   27.1395   51.9375 H   0  0  0  0  0  0  0  0  0  0  0  0
   66.3784   28.7383   51.9375 H   0  0  0  0  0  0  0  0  0  0  0  0
   63.1365   27.0251   52.4055 H   0  0  0  0  0  0  0  0  0  0  0  0
   60.9338   28.1038   51.8260 H   0  0  0  0  0  0  0  0  0  0  0  0
  1  2  1  0
  2  3  1  0
  3  4  1  0
  4  5  1  0
  5  6  2  0
  6  7  1  0
  7  8  2  0
  8  9  1  0
  9 10  2  0
 10 11  1  0
 11 12  2  0
 12 13  1  0
 13 14  1  0
 14 15  1  0
 15 16  1  0
 16 17  1  0
 17 18  1  0
 18 19  1  0
 19 20  1  0
 20 21  1  0
 21 22  1  0
 22 23  2  0
 23 24  1  0
 24 25  2  0
 25 26  1  0
 26 27  2  0
 27 28  1  0
 28 29  2  0
 29 30  1  0
 30 31  1  0
 30 32  2  0
 32 33  1  0
 33 34  2  0
 12 35  1  0
 35 36  2  0
 36  5  1  0
 35  8  1  0
 34 21  1  0
 27 22  1  0
 34 28  1  0
  1 37  1  0
  1 38  1  0
  1 39  1  0
  2 40  1  0
  2 41  1  0
  3 42  1  0
  3 43  1  0
  4 44  1  0
  4 45  1  0
  6 46  1  0
  7 47  1  0
  9 48  1  0
 10 49  1  0
 11 50  1  0
 13 51  1  0
 13 52  1  0
 14 53  1  0
 14 54  1  0
 16 55  1  0
 16 56  1  0
 17 57  1  0
 17 58  1  0
 18 59  1  0
 19 60  1  0
 19 61  1  0
 20 62  1  0
 20 63  1  0
 23 64  1  0
 24 65  1  0
 25 66  1  0
 26 67  1  0
 29 68  1  0
 31 69  1  0
 31 70  1  0
 31 71  1  0
 32 72  1  0
 33 73  1  0
M  CHG  3   3   1  12   1  30   1
M  END
>  <UniqueID>  (22) 
22

>  <SMILES>  (22) 
CC[NH2+]Cc1ccc2ccc[n+](CCOCCNCCn3c4ccccc4c4c[n+](C)ccc43)c2n1

>  <Energy>  (22) 
122.47267845604786

>  <Genealogy>  (22) 
CC[NH2+]Cc1ccc2ccc[n+](CCOCCNCCn3c4ccccc4c4c[n+](C)ccc43)c2n1 (protonated)
CC[NH2+]Cc1ccc2ccc[n+](CCOCCNCCn3c4ccccc4c4c[n+](C)ccc43)c2n1 (3D coordinates assigned)
CC[NH2+]Cc1ccc2ccc[n+](CCOCCNCCn3c4ccccc4c4c[n+](C)ccc43)c2n1 (optimized conformer: 122.47267845604786 kcal/mol)

>  <smiles>  (22) 
CCNCc1ccc2ccc[n+](CCOCCNCCn3c4ccccc4c4c[n+](C)ccc43)c2n1

>  <score_type>  (22) 
oracle

>  <origin>  (22) 
adg

>  <m_score__min__energy>  (22) 
-4.5899999999999999

>  <m_primary>  (22) 
energy

$$$$
22:0
     RDKit          3D

 58 59  0  0  0  0  0  0  0  0999 V2000
   67.0880   33.0730   50.3490 C   0  0  0  0  0  0  0  0  0  0  0  0
   65.7380   32.4750   50.7280 C   0  0  0  0  0  0  0  0  0  0  0  0
   64.9190   32.2600   49.5380 N   0  0  0  0  0  0  0  0  0  0  0  0
   63.6680   32.9380   49.3280 C   0  0  0  0  0  0  0  0  0  0  0  0
   63.2850   33.8010   50.1630 O   0  0  0  0  0  0  0  0  0  0  0  0
   62.8190   32.6380   48.0990 C   0  0  1  0  0  0  0  0  0  0  0  0
   61.9360   31.3770   48.1940 C   0  0  0  0  0  0  0  0  0  0  0  0
   60.5370   31.8890   48.4770 C   0  0  0  0  0  0  0  0  0  0  0  0
   60.4350   33.2470   47.7740 C   0  0  2  0  0  0  0  0  0  0  0  0
   59.7140   33.1400   46.4100 C   0  0  0  0  0  0  0  0  0  0  0  0
   58.8480   34.3220   46.1800 N   0  0  0  0  0  0  0  0  0  0  0  0
   59.6610   35.5060   45.8480 C   0  0  0  0  0  0  0  0  0  0  0  0
   57.8620   34.0670   45.1070 C   0  0  0  0  0  0  0  0  0  0  0  0
   57.5040   32.5740   45.0570 C   0  0  0  0  0  0  0  0  0  0  0  0
   58.2620   31.8530   44.0100 N   0  0  0  0  0  0  0  0  0  0  0  0
   57.8510   32.3050   42.6700 C   0  0  0  0  0  0  0  0  0  0  0  0
   58.2390   30.3730   44.1250 C   0  0  0  0  0  0  0  0  0  0  0  0
   57.3480   29.8270   45.2600 C   0  0  0  0  0  0  0  0  0  0  0  0
   55.9940   29.8190   44.8470 O   0  0  0  0  0  0  0  0  0  0  0  0
   55.9050   29.7340   43.4410 C   0  0  0  0  0  0  0  0  0  0  0  0
   61.8870   33.7900   47.7160 C   0  0  2  0  0  0  0  0  0  0  0  0
   62.6240   33.9250   46.3700 C   0  0  0  0  0  0  0  0  0  0  0  0
   63.5640   32.7910   46.7630 C   0  0  0  0  0  0  0  0  0  0  0  0
   67.6485   33.3213   51.2624 H   0  0  0  0  0  0  0  0  0  0  0  0
   67.6586   32.3434   49.7556 H   0  0  0  0  0  0  0  0  0  0  0  0
   66.9311   33.9858   49.7556 H   0  0  0  0  0  0  0  0  0  0  0  0
   65.8986   31.5122   51.2352 H   0  0  0  0  0  0  0  0  0  0  0  0
   65.2153   33.1747   51.3967 H   0  0  0  0  0  0  0  0  0  0  0  0
   65.2920   31.6230   48.7980 H   0  0  0  0  0  0  0  0  0  0  0  0
   61.9578   30.8190   47.2463 H   0  0  0  0  0  0  0  0  0  0  0  0
   62.2870   30.6884   48.9767 H   0  0  0  0  0  0  0  0  0  0  0  0
   59.7864   31.1928   48.0747 H   0  0  0  0  0  0  0  0  0  0  0  0
   60.3514   31.9792   49.5575 H   0  0  0  0  0  0  0  0  0  0  0  0
   59.8011   33.9624   48.3184 H   0  0  0  0  0  0  0  0  0  0  0  0
   60.4650   33.0812   45.6084 H   0  0  0  0  0  0  0  0  0  0  0  0
   59.0861   32.2368   46.4121 H   0  0  0  0  0  0  0  0  0  0  0  0
   59.9954   35.9930   46.7759 H   0  0  0  0  0  0  0  0  0  0  0  0
   60.5375   35.1958   45.2602 H   0  0  0  0  0  0  0  0  0  0  0  0
   59.0567   36.2126   45.2602 H   0  0  0  0  0  0  0  0  0  0  0  0
   56.9516   34.6522   45.3039 H   0  0  0  0  0  0  0  0  0  0  0  0
   58.2984   34.3632   44.1417 H   0  0  0  0  0  0  0  0  0  0  0  0
   57.7313   32.1221   46.0338 H   0  0  0  0  0  0  0  0  0  0  0  0
   56.4337   32.4908   44.8173 H   0  0  0  0  0  0  0  0  0  0  0  0
   57.1138   33.1157   42.7666 H   0  0  0  0  0  0  0  0  0  0  0  0
   58.7306   32.6727   42.1213 H   0  0  0  0  0  0  0  0  0  0  0  0
   57.4016   31.4642   42.1213 H   0  0  0  0  0  0  0  0  0  0  0  0
   57.8718   29.9613   43.1733 H   0  0  0  0  0  0  0  0  0  0  0  0
   59.2677   30.0644   44.3627 H   0  0  0  0  0  0  0  0  0  0  0  0
   57.6600   28.8017   45.5077 H   0  0  0  0  0  0  0  0  0  0  0  0
   57.4532   30.4713   46.1453 H   0  0  0  0  0  0  0  0  0  0  0  0
   55.1347   28.9984   43.1662 H   0  0  0  0  0  0  0  0  0  0  0  0
   55.6351   30.7182   43.0305 H   0  0  0  0  0  0  0  0  0  0  0  0
   56.8758   29.4192   43.0305 H   0  0  0  0  0  0  0  0  0  0  0  0
   61.7461   34.7348   48.2615 H   0  0  0  0  0  0  0  0  0  0  0  0
   61.9983   33.7046   45.4925 H   0  0  0  0  0  0  0  0  0  0  0  0
   63.0299   34.8977   46.0553 H   0  0  0  0  0  0  0  0  0  0  0  0
   63.5008   31.9083   46.1097 H   0  0  0  0  0  0  0  0  0  0  0  0
   64.6538   32.9397   46.7467 H   0  0  0  0  0  0  0  0  0  0  0  0
  1  2  1  0
  2  3  1  0
  3  4  1  0
  4  5  2  0
  6  4  1  1
  6  7  1  0
  7  8  1  0
  8  9  1  0
  9 10  1  0
 10 11  1  0
 11 12  1  0
 11 13  1  0
 13 14  1  0
 14 15  1  0
 15 16  1  0
 15 17  1  0
 17 18  1  0
 18 19  1  0
 19 20  1  0
  9 21  1  0
 21 22  1  0
 22 23  1  0
 21  6  1  0
 23  6  1  0
  1 24  1  0
  1 25  1  0
  1 26  1  0
  2 27  1  0
  2 28  1  0
  3 29  1  0
  7 30  1  0
  7 31  1  0
  8 32  1  0
  8 33  1  0
  9 34  1  1
 10 35  1  0
 10 36  1  0
 12 37  1  0
 12 38  1  0
 12 39  1  0
 13 40  1  0
 13 41  1  0
 14 42  1  0
 14 43  1  0
 16 44  1  0
 16 45  1  0
 16 46  1  0
 17 47  1  0
 17 48  1  0
 18 49  1  0
 18 50  1  0
 20 51  1  0
 20 52  1  0
 20 53  1  0
 21 54  1  1
 22 55  1  0
 22 56  1  0
 23 57  1  0
 23 58  1  0
M  END
>  <UniqueID>  (23) 
23

>  <SMILES>  (23) 
CCNC(=O)[C@]12CCC1[C@@H](CN(C)CCN(C)CCOC)CC2

>  <Energy>  (23) 
126.19398034309972

>  <Genealogy>  (23) 
CCNC(=O)[C@]12CCC1[C@@H](CN(C)CCN(C)CCOC)CC2 (chirality)
CCNC(=O)[C@]12CCC1[C@@H](CN(C)CCN(C)CCOC)CC2 (3D coordinates assigned)
CCNC(=O)[C@]12CCC1[C@@H](CN(C)CCN(C)CCOC)CC2 (nonaromatic ring conformer: 126.19398034309972 kcal/mol)

>  <smiles>  (23) 
CCNC(=O)C12CCC(CN(C)CCN(C)CCOC)C1CC2

>  <score_type>  (23) 
oracle

>  <origin>  (23) 
adg

>  <m_score__min__energy>  (23) 
-7.5999999999999996

>  <m_primary>  (23) 
energy

$$$$
23:0
     RDKit          3D

 58 61  0  0  0  0  0  0  0  0999 V2000
   65.7570   29.8710   51.9600 C   0  0  0  0  0  0  0  0  0  0  0  0
   65.4970   31.3110   51.7980 N   0  0  0  0  0  0  0  0  0  0  0  0
   66.0140   32.0750   52.9460 C   0  0  0  0  0  0  0  0  0  0  0  0
   65.9790   31.8430   50.5000 C   0  0  0  0  0  0  0  0  0  0  0  0
   64.8640   32.1440   49.4760 C   0  0  0  0  0  0  0  0  0  0  0  0
   63.5480   32.0670   50.1420 N   0  0  0  0  0  0  0  0  0  0  0  0
   62.9890   33.3930   50.4510 C   0  0  0  0  0  0  0  0  0  0  0  0
   62.0290   33.8350   49.3800 C   0  0  0  0  0  0  0  0  0  0  0  0
   60.7140   34.2010   49.7060 C   0  0  0  0  0  0  0  0  0  0  0  0
   59.8010   34.5250   48.6990 C   0  0  0  0  0  0  0  0  0  0  0  0
   60.1840   34.4670   47.3490 C   0  0  0  0  0  0  0  0  0  0  0  0
   59.1780   34.7370   46.2570 C   0  0  0  0  0  0  0  0  0  0  0  0
   59.3120   33.7660   45.1670 N   0  0  0  0  0  0  0  0  0  0  0  0
   58.7040   32.4600   45.1640 C   0  0  0  0  0  0  0  0  0  0  0  0
   57.4230   32.3010   44.6250 C   0  0  0  0  0  0  0  0  0  0  0  0
   56.7700   31.0650   44.6700 C   0  0  0  0  0  0  0  0  0  0  0  0
   55.5220   30.9980   44.1390 F   0  0  0  0  0  0  0  0  0  0  0  0
   57.3850   29.9330   45.2750 C   0  0  0  0  0  0  0  0  0  0  0  0
   56.6880   28.6810   45.3680 C   0  0  0  0  0  0  0  0  0  0  0  0
   55.5240   28.6150   44.8820 O   0  0  0  0  0  0  0  0  0  0  0  0
   57.2100   27.4960   45.9790 C   0  0  0  0  0  0  0  0  0  0  0  0
   56.4210   26.3200   46.0200 C   0  0  0  0  0  0  0  0  0  0  0  0
   56.9010   25.1500   46.6160 C   0  0  0  0  0  0  0  0  0  0  0  0
   58.1740   25.1210   47.1860 C   0  0  0  0  0  0  0  0  0  0  0  0
   58.9730   26.2630   47.1590 C   0  0  0  0  0  0  0  0  0  0  0  0
   58.4970   27.4360   46.5620 C   0  0  0  0  0  0  0  0  0  0  0  0
   59.4590   28.8120   46.5330 S   0  0  0  0  0  0  0  0  0  0  0  0
   58.6920   30.1100   45.7880 C   0  0  0  0  0  0  0  0  0  0  0  0
   59.3470   31.3430   45.7170 C   0  0  0  0  0  0  0  0  0  0  0  0
   61.5100   34.1360   47.0260 C   0  0  0  0  0  0  0  0  0  0  0  0
   62.4240   33.8170   48.0320 C   0  0  0  0  0  0  0  0  0  0  0  0
   65.8015   29.6247   53.0311 H   0  0  0  0  0  0  0  0  0  0  0  0
   64.9480   29.2966   51.4849 H   0  0  0  0  0  0  0  0  0  0  0  0
   66.7158   29.6158   51.4849 H   0  0  0  0  0  0  0  0  0  0  0  0
   64.4590   31.4280   51.7990 H   0  0  0  0  0  0  0  0  0  0  0  0
   65.6896   31.5957   53.8814 H   0  0  0  0  0  0  0  0  0  0  0  0
   67.1131   32.0966   52.9070 H   0  0  0  0  0  0  0  0  0  0  0  0
   65.6254   33.1033   52.9070 H   0  0  0  0  0  0  0  0  0  0  0  0
   66.5279   32.7763   50.6941 H   0  0  0  0  0  0  0  0  0  0  0  0
   66.6078   31.0578   50.0550 H   0  0  0  0  0  0  0  0  0  0  0  0
   65.0077   33.1538   49.0641 H   0  0  0  0  0  0  0  0  0  0  0  0
   64.9059   31.4057   48.6617 H   0  0  0  0  0  0  0  0  0  0  0  0
   62.8760   31.5940   49.4940 H   0  0  0  0  0  0  0  0  0  0  0  0
   62.4576   33.3444   51.4129 H   0  0  0  0  0  0  0  0  0  0  0  0
   63.8144   34.1183   50.5036 H   0  0  0  0  0  0  0  0  0  0  0  0
   60.4003   34.2330   50.7598 H   0  0  0  0  0  0  0  0  0  0  0  0
   58.7772   34.8270   48.9649 H   0  0  0  0  0  0  0  0  0  0  0  0
   58.1638   34.6682   46.6773 H   0  0  0  0  0  0  0  0  0  0  0  0
   59.3607   35.7439   45.8536 H   0  0  0  0  0  0  0  0  0  0  0  0
   59.8070   34.0850   44.3060 H   0  0  0  0  0  0  0  0  0  0  0  0
   56.9214   33.1616   44.1584 H   0  0  0  0  0  0  0  0  0  0  0  0
   55.4147   26.3276   45.5758 H   0  0  0  0  0  0  0  0  0  0  0  0
   56.2719   24.2479   46.6356 H   0  0  0  0  0  0  0  0  0  0  0  0
   58.5465   24.1988   47.6558 H   0  0  0  0  0  0  0  0  0  0  0  0
   59.9775   26.2422   47.6069 H   0  0  0  0  0  0  0  0  0  0  0  0
   60.3746   31.4378   46.0978 H   0  0  0  0  0  0  0  0  0  0  0  0
   61.8305   34.1280   45.9738 H   0  0  0  0  0  0  0  0  0  0  0  0
   63.4580   33.5504   47.7679 H   0  0  0  0  0  0  0  0  0  0  0  0
  1  2  1  0
  2  3  1  0
  2  4  1  0
  4  5  1  0
  5  6  1  0
  6  7  1  0
  7  8  1  0
  8  9  2  0
  9 10  1  0
 10 11  2  0
 11 12  1  0
 12 13  1  0
 13 14  1  0
 14 15  2  0
 15 16  1  0
 16 17  1  0
 16 18  2  0
 18 19  1  0
 19 20  2  0
 19 21  1  0
 21 22  2  0
 22 23  1  0
 23 24  2  0
 24 25  1  0
 25 26  2  0
 26 27  1  0
 27 28  1  0
 28 29  2  0
 11 30  1  0
 30 31  2  0
 31  8  1  0
 29 14  1  0
 28 18  1  0
 26 21  1  0
  1 32  1  0
  1 33  1  0
  1 34  1  0
  2 35  1  0
  3 36  1  0
  3 37  1  0
  3 38  1  0
  4 39  1  0
  4 40  1  0
  5 41  1  0
  5 42  1  0
  6 43  1  0
  7 44  1  0
  7 45  1  0
  9 46  1  0
 10 47  1  0
 12 48  1  0
 12 49  1  0
 13 50  1  0
 15 51  1  0
 22 52  1  0
 23 53  1  0
 24 54  1  0
 25 55  1  0
 29 56  1  0
 30 57  1  0
 31 58  1  0
M  CHG  1   2   1
M  END
>  <UniqueID>  (24) 
24

>  <SMILES>  (24) 
C[NH+](C)CCNCc1ccc(CNc2cc(F)c3c(=O)c4ccccc4sc3c2)cc1

>  <Energy>  (24) 
69.58972256535446

>  <Genealogy>  (24) 
C[NH+](C)CCNCc1ccc(CNc2cc(F)c3c(=O)c4ccccc4sc3c2)cc1 (protonated)
C[NH+](C)CCNCc1ccc(CNc2cc(F)c3c(=O)c4ccccc4sc3c2)cc1 (3D coordinates assigned)
C[NH+](C)CCNCc1ccc(CNc2cc(F)c3c(=O)c4ccccc4sc3c2)cc1 (optimized conformer: 69.58972256535446 kcal/mol)

>  <smiles>  (24) 
CN(C)CCNCc1ccc(CNc2cc(F)c3c(=O)c4ccccc4sc3c2)cc1

>  <score_type>  (24) 
oracle

>  <origin>  (24) 
adg

>  <m_score__min__energy>  (24) 
-7.25

>  <m_primary>  (24) 
energy

$$$$
24:0
     RDKit          3D

 57 59  0  0  0  0  0  0  0  0999 V2000
   63.5430   34.1700   47.0460 C   0  0  0  0  0  0  0  0  0  0  0  0
   63.4320   32.6710   46.7530 C   0  0  0  0  0  0  0  0  0  0  0  0
   63.6380   31.8520   47.9600 N   0  0  0  0  0  0  0  0  0  0  0  0
   63.7650   32.6590   49.1840 C   0  0  0  0  0  0  0  0  0  0  0  0
   62.9470   32.0330   50.3160 C   0  0  0  0  0  0  0  0  0  0  0  0
   62.6680   30.6710   50.0470 O   0  0  0  0  0  0  0  0  0  0  0  0
   61.3610   30.3400   50.4680 C   0  0  0  0  0  0  0  0  0  0  0  0
   60.3950   30.5470   49.2990 C   0  0  0  0  0  0  0  0  0  0  0  0
   61.0490   31.1300   48.1090 N   0  0  0  0  0  0  0  0  0  0  0  0
   60.1480   31.2220   46.9640 C   0  0  0  0  0  0  0  0  0  0  0  0
   59.7840   32.4960   46.4450 C   0  0  0  0  0  0  0  0  0  0  0  0
   60.3420   33.6980   46.9520 C   0  0  0  0  0  0  0  0  0  0  0  0
   60.0140   34.9350   46.4040 C   0  0  0  0  0  0  0  0  0  0  0  0
   59.1350   35.0100   45.3340 C   0  0  0  0  0  0  0  0  0  0  0  0
   58.5570   33.8530   44.8250 C   0  0  0  0  0  0  0  0  0  0  0  0
   58.8360   32.5800   45.3880 C   0  0  0  0  0  0  0  0  0  0  0  0
   58.2150   31.4420   44.9220 N   0  0  0  0  0  0  0  0  0  0  0  0
   57.0010   31.5580   44.0800 C   0  0  0  0  0  0  0  0  0  0  0  0
   58.7030   30.1970   45.2590 C   0  0  0  0  0  0  0  0  0  0  0  0
   58.2990   29.0400   44.5490 C   0  0  0  0  0  0  0  0  0  0  0  0
   58.7290   27.7600   44.9150 C   0  0  0  0  0  0  0  0  0  0  0  0
   58.2510   26.5660   44.1260 C   0  0  0  0  0  0  0  0  0  0  0  0
   59.5760   27.6100   46.0250 C   0  0  0  0  0  0  0  0  0  0  0  0
   60.0560   26.2480   46.4620 C   0  0  0  0  0  0  0  0  0  0  0  0
   60.0350   28.7480   46.6990 C   0  0  0  0  0  0  0  0  0  0  0  0
   59.6380   30.0550   46.3200 C   0  0  0  0  0  0  0  0  0  0  0  0
   63.5549   34.3310   48.1341 H   0  0  0  0  0  0  0  0  0  0  0  0
   64.4726   34.5615   46.6072 H   0  0  0  0  0  0  0  0  0  0  0  0
   62.6812   34.6942   46.6072 H   0  0  0  0  0  0  0  0  0  0  0  0
   62.4302   32.4620   46.3497 H   0  0  0  0  0  0  0  0  0  0  0  0
   64.2174   32.4091   46.0288 H   0  0  0  0  0  0  0  0  0  0  0  0
   64.4930   31.2580   47.8390 H   0  0  0  0  0  0  0  0  0  0  0  0
   64.8230   32.7037   49.4818 H   0  0  0  0  0  0  0  0  0  0  0  0
   63.3877   33.6732   48.9864 H   0  0  0  0  0  0  0  0  0  0  0  0
   63.5169   32.1050   51.2541 H   0  0  0  0  0  0  0  0  0  0  0  0
   61.9941   32.5758   50.4015 H   0  0  0  0  0  0  0  0  0  0  0  0
   61.3319   29.2883   50.7890 H   0  0  0  0  0  0  0  0  0  0  0  0
   61.0677   30.9824   51.3114 H   0  0  0  0  0  0  0  0  0  0  0  0
   59.9657   29.5729   49.0217 H   0  0  0  0  0  0  0  0  0  0  0  0
   59.6218   31.2555   49.6311 H   0  0  0  0  0  0  0  0  0  0  0  0
   61.5080   32.0350   48.3440 H   0  0  0  0  0  0  0  0  0  0  0  0
   61.8700   30.5380   47.8490 H   0  0  0  0  0  0  0  0  0  0  0  0
   61.0476   33.6515   47.7946 H   0  0  0  0  0  0  0  0  0  0  0  0
   60.4525   35.8540   46.8202 H   0  0  0  0  0  0  0  0  0  0  0  0
   58.8949   35.9863   44.8876 H   0  0  0  0  0  0  0  0  0  0  0  0
   57.8698   33.9251   43.9691 H   0  0  0  0  0  0  0  0  0  0  0  0
   56.1141   31.6427   44.7251 H   0  0  0  0  0  0  0  0  0  0  0  0
   57.0793   32.4528   43.4450 H   0  0  0  0  0  0  0  0  0  0  0  0
   56.9085   30.6646   43.4450 H   0  0  0  0  0  0  0  0  0  0  0  0
   57.6277   29.1510   43.6847 H   0  0  0  0  0  0  0  0  0  0  0  0
   57.9333   25.7724   44.8183 H   0  0  0  0  0  0  0  0  0  0  0  0
   57.4018   26.8614   43.4923 H   0  0  0  0  0  0  0  0  0  0  0  0
   59.0694   26.1938   43.4923 H   0  0  0  0  0  0  0  0  0  0  0  0
   60.0728   26.2003   47.5608 H   0  0  0  0  0  0  0  0  0  0  0  0
   59.3755   25.4768   46.0719 H   0  0  0  0  0  0  0  0  0  0  0  0
   61.0697   26.0739   46.0719 H   0  0  0  0  0  0  0  0  0  0  0  0
   60.7239   28.6243   47.5476 H   0  0  0  0  0  0  0  0  0  0  0  0
  1  2  1  0
  2  3  1  0
  3  4  1  0
  4  5  1  0
  5  6  1  0
  6  7  1  0
  7  8  1  0
  8  9  1  0
  9 10  1  0
 10 11  2  0
 11 12  1  0
 12 13  2  0
 13 14  1  0
 14 15  2  0
 15 16  1  0
 16 17  2  0
 17 18  1  0
 17 19  1  0
 19 20  2  0
 20 21  1  0
 21 22  1  0
 21 23  2  0
 23 24  1  0
 23 25  1  0
 25 26  2  0
 26 10  1  0
 16 11  1  0
 26 19  1  0
  1 27  1  0
  1 28  1  0
  1 29  1  0
  2 30  1  0
  2 31  1  0
  3 32  1  0
  4 33  1  0
  4 34  1  0
  5 35  1  0
  5 36  1  0
  7 37  1  0
  7 38  1  0
  8 39  1  0
  8 40  1  0
  9 41  1  0
  9 42  1  0
 12 43  1  0
 13 44  1  0
 14 45  1  0
 15 46  1  0
 18 47  1  0
 18 48  1  0
 18 49  1  0
 20 50  1  0
 22 51  1  0
 22 52  1  0
 22 53  1  0
 24 54  1  0
 24 55  1  0
 24 56  1  0
 25 57  1  0
M  CHG  2   9   1  17   1
M  END
>  <UniqueID>  (25) 
25

>  <SMILES>  (25) 
CCNCCOCC[NH2+]c1c2ccccc2[n+](C)c2cc(C)c(C)cc12

>  <Energy>  (25) 
85.99172402247387

>  <Genealogy>  (25) 
CCNCCOCC[NH2+]c1c2ccccc2[n+](C)c2cc(C)c(C)cc12 (protonated)
CCNCCOCC[NH2+]c1c2ccccc2[n+](C)c2cc(C)c(C)cc12 (3D coordinates assigned)
CCNCCOCC[NH2+]c1c2ccccc2[n+](C)c2cc(C)c(C)cc12 (optimized conformer: 85.99172402247387 kcal/mol)

>  <smiles>  (25) 
CCNCCOCCNc1c2ccccc2[n+](C)c2cc(C)c(C)cc12

>  <score_type>  (25) 
oracle

>  <origin>  (25) 
adg

>  <m_score__min__energy>  (25) 
-3.7599999999999998

>  <m_primary>  (25) 
energy

$$$$
25:0
     RDKit          3D

 59 63  0  0  0  0  0  0  0  0999 V2000
   58.1830   34.2380   45.1150 C   0  0  0  0  0  0  0  0  0  0  0  0
   59.6150   34.6720   45.4000 C   0  0  0  0  0  0  0  0  0  0  0  0
   60.0890   34.0290   46.6470 N   0  0  0  0  0  0  0  0  0  0  0  0
   61.5710   33.9450   46.7110 C   0  0  0  0  0  0  0  0  0  0  0  0
   62.1110   32.5620   47.1030 C   0  0  0  0  0  0  0  0  0  0  0  0
   59.4430   34.5930   47.8540 C   0  0  0  0  0  0  0  0  0  0  0  0
   60.0940   34.0970   49.1540 C   0  0  0  0  0  0  0  0  0  0  0  0
   59.3380   32.9890   49.7400 N   0  0  0  0  0  0  0  0  0  0  0  0
   59.8170   31.6460   49.6160 C   0  0  0  0  0  0  0  0  0  0  0  0
   59.4270   30.8660   48.5340 C   0  0  0  0  0  0  0  0  0  0  0  0
   59.8470   29.5590   48.3980 C   0  0  0  0  0  0  0  0  0  0  0  0
   60.5750   28.9340   49.3810 N   0  0  0  0  0  0  0  0  0  0  0  0
   60.7180   27.4680   49.3770 C   0  0  0  0  0  0  0  0  0  0  0  0
   61.1070   29.7070   50.4020 C   0  0  0  0  0  0  0  0  0  0  0  0
   62.0560   29.1860   51.3140 C   0  0  0  0  0  0  0  0  0  0  0  0
   62.5700   29.9730   52.3450 C   0  0  0  0  0  0  0  0  0  0  0  0
   62.1700   31.2990   52.4840 C   0  0  0  0  0  0  0  0  0  0  0  0
   61.2610   31.8550   51.5870 C   0  0  0  0  0  0  0  0  0  0  0  0
   60.7180   31.0810   50.5430 C   0  0  0  0  0  0  0  0  0  0  0  0
   59.2960   29.0330   47.1250 C   0  0  0  0  0  0  0  0  0  0  0  0
   59.5890   27.8570   46.4210 C   0  0  0  0  0  0  0  0  0  0  0  0
   58.9710   27.6320   45.1860 C   0  0  0  0  0  0  0  0  0  0  0  0
   58.0990   28.5900   44.6300 C   0  0  0  0  0  0  0  0  0  0  0  0
   57.4880   28.3530   43.3890 C   0  0  0  0  0  0  0  0  0  0  0  0
   56.6440   29.3130   42.8250 C   0  0  0  0  0  0  0  0  0  0  0  0
   56.4040   30.5150   43.4920 C   0  0  0  0  0  0  0  0  0  0  0  0
   57.0040   30.7700   44.7290 C   0  0  0  0  0  0  0  0  0  0  0  0
   57.8540   29.8140   45.3130 C   0  0  0  0  0  0  0  0  0  0  0  0
   58.4860   30.0120   46.5560 C   0  0  0  0  0  0  0  0  0  0  0  0
   58.5410   31.1920   47.4220 C   0  0  0  0  0  0  0  0  0  0  0  0
   57.9550   32.2920   47.2450 O   0  0  0  0  0  0  0  0  0  0  0  0
   57.6526   34.0772   46.0652 H   0  0  0  0  0  0  0  0  0  0  0  0
   57.6706   35.0212   44.5370 H   0  0  0  0  0  0  0  0  0  0  0  0
   58.1916   33.3021   44.5370 H   0  0  0  0  0  0  0  0  0  0  0  0
   60.2625   34.3705   44.5634 H   0  0  0  0  0  0  0  0  0  0  0  0
   59.6496   35.7653   45.5162 H   0  0  0  0  0  0  0  0  0  0  0  0
   61.9735   34.2035   45.7204 H   0  0  0  0  0  0  0  0  0  0  0  0
   61.8915   34.6424   47.4990 H   0  0  0  0  0  0  0  0  0  0  0  0
   62.1436   32.4784   48.1993 H   0  0  0  0  0  0  0  0  0  0  0  0
   61.4515   31.7818   46.6952 H   0  0  0  0  0  0  0  0  0  0  0  0
   63.1247   32.4351   46.6952 H   0  0  0  0  0  0  0  0  0  0  0  0
   59.5208   35.6896   47.8163 H   0  0  0  0  0  0  0  0  0  0  0  0
   58.3938   34.2626   47.8576 H   0  0  0  0  0  0  0  0  0  0  0  0
   61.1167   33.7563   48.9350 H   0  0  0  0  0  0  0  0  0  0  0  0
   60.1057   34.9280   49.8747 H   0  0  0  0  0  0  0  0  0  0  0  0
   58.6070   33.1810   50.4630 H   0  0  0  0  0  0  0  0  0  0  0  0
   60.7539   27.1003   50.4131 H   0  0  0  0  0  0  0  0  0  0  0  0
   59.8596   27.0173   48.8575 H   0  0  0  0  0  0  0  0  0  0  0  0
   61.6474   27.1917   48.8575 H   0  0  0  0  0  0  0  0  0  0  0  0
   62.3935   28.1444   51.2082 H   0  0  0  0  0  0  0  0  0  0  0  0
   63.2952   29.5434   53.0518 H   0  0  0  0  0  0  0  0  0  0  0  0
   62.5732   31.9099   53.3051 H   0  0  0  0  0  0  0  0  0  0  0  0
   60.9643   32.9087   51.6950 H   0  0  0  0  0  0  0  0  0  0  0  0
   60.2949   27.1212   46.8336 H   0  0  0  0  0  0  0  0  0  0  0  0
   59.1680   26.6962   44.6423 H   0  0  0  0  0  0  0  0  0  0  0  0
   57.6743   27.4077   42.8583 H   0  0  0  0  0  0  0  0  0  0  0  0
   56.1674   29.1208   41.8524 H   0  0  0  0  0  0  0  0  0  0  0  0
   55.7387   31.2665   43.0419 H   0  0  0  0  0  0  0  0  0  0  0  0
   56.8106   31.7211   45.2467 H   0  0  0  0  0  0  0  0  0  0  0  0
  1  2  1  0
  2  3  1  0
  3  4  1  0
  4  5  1  0
  3  6  1  0
  6  7  1  0
  7  8  1  0
  8  9  1  0
  9 10  2  0
 10 11  1  0
 11 12  2  0
 12 13  1  0
 12 14  1  0
 14 15  2  0
 15 16  1  0
 16 17  2  0
 17 18  1  0
 18 19  2  0
 11 20  1  0
 20 21  2  0
 21 22  1  0
 22 23  2  0
 23 24  1  0
 24 25  2  0
 25 26  1  0
 26 27  2  0
 27 28  1  0
 28 29  2  0
 29 30  1  0
 30 31  2  0
 19  9  1  0
 29 20  1  0
 30 10  1  0
 19 14  1  0
 28 23  1  0
  1 32  1  0
  1 33  1  0
  1 34  1  0
  2 35  1  0
  2 36  1  0
  4 37  1  0
  4 38  1  0
  5 39  1  0
  5 40  1  0
  5 41  1  0
  6 42  1  0
  6 43  1  0
  7 44  1  0
  7 45  1  0
  8 46  1  0
 13 47  1  0
 13 48  1  0
 13 49  1  0
 15 50  1  0
 16 51  1  0
 17 52  1  0
 18 53  1  0
 21 54  1  0
 22 55  1  0
 24 56  1  0
 25 57  1  0
 26 58  1  0
 27 59  1  0
M  CHG  1  12   1
M  END
>  <UniqueID>  (26) 
26

>  <SMILES>  (26) 
CCN(CC)CCNc1c2c([n+](C)c3ccccc13)-c1ccc3ccccc3c1C2=O

>  <Energy>  (26) 
124.3493739360691

>  <Genealogy>  (26) 
CCN(CC)CCNc1c2c([n+](C)c3ccccc13)-c1ccc3ccccc3c1C2=O (3D coordinates assigned)
CCN(CC)CCNc1c2c([n+](C)c3ccccc13)-c1ccc3ccccc3c1C2=O (nonaromatic ring conformer: 124.3493739360691 kcal/mol)

>  <smiles>  (26) 
CCN(CC)CCNc1c2c([n+](C)c3ccccc13)-c1ccc3ccccc3c1C2=O

>  <score_type>  (26) 
oracle

>  <origin>  (26) 
adg

>  <m_score__min__energy>  (26) 
-7.04

>  <m_primary>  (26) 
energy

$$$$
26:0
     RDKit          3D

 73 77  0  0  0  0  0  0  0  0999 V2000
   57.6140   34.4350   44.9250 C   0  0  0  0  0  0  0  0  0  0  0  0
   59.1380   34.5160   44.9480 C   0  0  0  0  0  0  0  0  0  0  0  0
   59.6360   34.3450   46.3210 N   0  0  0  0  0  0  0  0  0  0  0  0
   58.5360   34.1530   47.2750 C   0  0  0  0  0  0  0  0  0  0  0  0
   58.4550   32.6750   47.6660 C   0  0  0  0  0  0  0  0  0  0  0  0
   59.4030   31.8720   46.8890 N   0  0  0  0  0  0  0  0  0  0  0  0
   59.1120   30.5260   46.4870 C   0  0  0  0  0  0  0  0  0  0  0  0
   58.3780   30.2390   45.3100 C   0  0  0  0  0  0  0  0  0  0  0  0
   57.8220   31.2760   44.5340 C   0  0  0  0  0  0  0  0  0  0  0  0
   57.0930   30.9920   43.3810 C   0  0  0  0  0  0  0  0  0  0  0  0
   56.8810   29.6730   42.9940 C   0  0  0  0  0  0  0  0  0  0  0  0
   57.3910   28.6240   43.7580 C   0  0  0  0  0  0  0  0  0  0  0  0
   58.1520   28.8720   44.9270 C   0  0  0  0  0  0  0  0  0  0  0  0
   58.6510   27.8370   45.7010 N   0  0  0  0  0  0  0  0  0  0  0  0
   58.5370   26.4340   45.2640 C   0  0  0  0  0  0  0  0  0  0  0  0
   59.2490   28.1440   46.8950 C   0  0  0  0  0  0  0  0  0  0  0  0
   59.6740   27.2640   47.8350 N   0  0  0  0  0  0  0  0  0  0  0  0
   60.2030   28.0250   48.8120 C   0  0  0  0  0  0  0  0  0  0  0  0
   60.7740   27.5730   49.9990 C   0  0  0  0  0  0  0  0  0  0  0  0
   61.2900   28.5250   50.8910 C   0  0  0  0  0  0  0  0  0  0  0  0
   61.2320   29.9160   50.5860 C   0  0  0  0  0  0  0  0  0  0  0  0
   61.7980   30.9060   51.4100 O   0  0  0  0  0  0  0  0  0  0  0  0
   63.1900   31.0950   51.6760 C   0  0  0  0  0  0  0  0  0  0  0  0
   63.9350   31.4570   50.3680 C   0  0  0  0  0  0  0  0  0  0  0  0
   63.7700   32.8650   49.8620 N   0  0  0  0  0  0  0  0  0  0  0  0
   64.2760   33.8300   50.8790 C   0  0  0  0  0  0  0  0  0  0  0  0
   64.5250   33.0880   48.5840 C   0  0  0  0  0  0  0  0  0  0  0  0
   63.7330   32.6340   47.3490 C   0  0  0  0  0  0  0  0  0  0  0  0
   62.4600   33.4890   47.1890 C   0  0  0  0  0  0  0  0  0  0  0  0
   61.9630   34.0680   48.5240 C   0  0  0  0  0  0  0  0  0  0  0  0
   62.2900   33.1130   49.6860 C   0  0  0  0  0  0  0  0  0  0  0  0
   60.6240   30.3380   49.3860 C   0  0  0  0  0  0  0  0  0  0  0  0
   60.1240   29.3670   48.5140 C   0  0  0  0  0  0  0  0  0  0  0  0
   59.4920   29.4480   47.2830 C   0  0  0  0  0  0  0  0  0  0  0  0
   57.2323   34.4147   45.9564 H   0  0  0  0  0  0  0  0  0  0  0  0
   57.2080   35.3128   44.4010 H   0  0  0  0  0  0  0  0  0  0  0  0
   57.3034   33.5191   44.4010 H   0  0  0  0  0  0  0  0  0  0  0  0
   59.5535   33.7225   44.3095 H   0  0  0  0  0  0  0  0  0  0  0  0
   59.4503   35.5021   44.5736 H   0  0  0  0  0  0  0  0  0  0  0  0
   60.1370   35.2260   46.5940 H   0  0  0  0  0  0  0  0  0  0  0  0
   58.7189   34.7609   48.1733 H   0  0  0  0  0  0  0  0  0  0  0  0
   57.5882   34.4630   46.8106 H   0  0  0  0  0  0  0  0  0  0  0  0
   58.6897   32.5728   48.7358 H   0  0  0  0  0  0  0  0  0  0  0  0
   57.4373   32.3133   47.4577 H   0  0  0  0  0  0  0  0  0  0  0  0
   60.3220   32.2860   46.6110 H   0  0  0  0  0  0  0  0  0  0  0  0
   57.9653   32.3221   44.8423 H   0  0  0  0  0  0  0  0  0  0  0  0
   56.6838   31.8137   42.7748 H   0  0  0  0  0  0  0  0  0  0  0  0
   56.3080   29.4562   42.0804 H   0  0  0  0  0  0  0  0  0  0  0  0
   57.1992   27.5862   43.4478 H   0  0  0  0  0  0  0  0  0  0  0  0
   58.4837   25.7785   46.1457 H   0  0  0  0  0  0  0  0  0  0  0  0
   57.6259   26.3109   44.6601 H   0  0  0  0  0  0  0  0  0  0  0  0
   59.4163   26.1655   44.6601 H   0  0  0  0  0  0  0  0  0  0  0  0
   59.6000   26.2220   47.8510 H   0  0  0  0  0  0  0  0  0  0  0  0
   60.8192   26.4987   50.2309 H   0  0  0  0  0  0  0  0  0  0  0  0
   61.7445   28.1941   51.8365 H   0  0  0  0  0  0  0  0  0  0  0  0
   63.3143   31.9105   52.4036 H   0  0  0  0  0  0  0  0  0  0  0  0
   63.6092   30.1635   52.0842 H   0  0  0  0  0  0  0  0  0  0  0  0
   65.0085   31.2880   50.5385 H   0  0  0  0  0  0  0  0  0  0  0  0
   63.4857   30.8177   49.5937 H   0  0  0  0  0  0  0  0  0  0  0  0
   64.0719   33.4407   51.8873 H   0  0  0  0  0  0  0  0  0  0  0  0
   65.3602   33.9637   50.7501 H   0  0  0  0  0  0  0  0  0  0  0  0
   63.7694   34.7978   50.7501 H   0  0  0  0  0  0  0  0  0  0  0  0
   64.7460   34.1612   48.4870 H   0  0  0  0  0  0  0  0  0  0  0  0
   65.4465   32.4891   48.6301 H   0  0  0  0  0  0  0  0  0  0  0  0
   64.3612   32.7463   46.4530 H   0  0  0  0  0  0  0  0  0  0  0  0
   63.4441   31.5802   47.4753 H   0  0  0  0  0  0  0  0  0  0  0  0
   62.6788   34.3214   46.5040 H   0  0  0  0  0  0  0  0  0  0  0  0
   61.6679   32.8355   46.7946 H   0  0  0  0  0  0  0  0  0  0  0  0
   62.4539   35.0360   48.7030 H   0  0  0  0  0  0  0  0  0  0  0  0
   60.8721   34.1980   48.4691 H   0  0  0  0  0  0  0  0  0  0  0  0
   61.8966   33.5486   50.6163 H   0  0  0  0  0  0  0  0  0  0  0  0
   61.8247   32.1445   49.4504 H   0  0  0  0  0  0  0  0  0  0  0  0
   60.5449   31.4076   49.1415 H   0  0  0  0  0  0  0  0  0  0  0  0
  1  2  1  0
  2  3  1  0
  3  4  1  0
  4  5  1  0
  5  6  1  0
  6  7  1  0
  7  8  2  0
  8  9  1  0
  9 10  2  0
 10 11  1  0
 11 12  2  0
 12 13  1  0
 13 14  2  0
 14 15  1  0
 14 16  1  0
 16 17  1  0
 17 18  1  0
 18 19  2  0
 19 20  1  0
 20 21  2  0
 21 22  1  0
 22 23  1  0
 23 24  1  0
 24 25  1  0
 25 26  1  0
 25 27  1  0
 27 28  1  0
 28 29  1  0
 29 30  1  0
 30 31  1  0
 21 32  1  0
 32 33  2  0
 33 34  1  0
 34  7  1  0
 13  8  1  0
 34 16  2  0
 33 18  1  0
 31 25  1  0
  1 35  1  0
  1 36  1  0
  1 37  1  0
  2 38  1  0
  2 39  1  0
  3 40  1  0
  4 41  1  0
  4 42  1  0
  5 43  1  0
  5 44  1  0
  6 45  1  0
  9 46  1  0
 10 47  1  0
 11 48  1  0
 12 49  1  0
 15 50  1  0
 15 51  1  0
 15 52  1  0
 17 53  1  0
 19 54  1  0
 20 55  1  0
 23 56  1  0
 23 57  1  0
 24 58  1  0
 24 59  1  0
 26 60  1  0
 26 61  1  0
 26 62  1  0
 27 63  1  0
 27 64  1  0
 28 65  1  0
 28 66  1  0
 29 67  1  0
 29 68  1  0
 30 69  1  0
 30 70  1  0
 31 71  1  0
 31 72  1  0
 32 73  1  0
M  CHG  2  14   1  25   1
M  END
>  <UniqueID>  (27) 
27

>  <SMILES>  (27) 
CCNCCNc1c2ccccc2[n+](C)c2[nH]c3ccc(OCC[N+]4(C)CCCCC4)cc3c12

>  <Energy>  (27) 
148.76423217943906

>  <Genealogy>  (27) 
CCNCCNc1c2ccccc2[n+](C)c2[nH]c3ccc(OCC[N+]4(C)CCCCC4)cc3c12 (3D coordinates assigned)
CCNCCNc1c2ccccc2[n+](C)c2[nH]c3ccc(OCC[N+]4(C)CCCCC4)cc3c12 (nonaromatic ring conformer: 148.76423217943906 kcal/mol)

>  <smiles>  (27) 
CCNCCNc1c2ccccc2[n+](C)c2[nH]c3ccc(OCC[N+]4(C)CCCCC4)cc3c12

>  <score_type>  (27) 
oracle

>  <origin>  (27) 
adg

>  <m_score__min__energy>  (27) 
-5.2000000000000002

>  <m_primary>  (27) 
energy

$$$$
27:0
     RDKit          3D

 45 46  0  0  0  0  0  0  0  0999 V2000
   57.7820   28.3800   44.0700 C   0  0  0  0  0  0  0  0  0  0  0  0
   56.6210   29.3580   43.9300 C   0  0  0  0  0  0  0  0  0  0  0  0
   56.7250   30.4130   44.9450 N   0  0  0  0  0  0  0  0  0  0  0  0
   57.3640   31.6050   44.3770 C   0  0  0  0  0  0  0  0  0  0  0  0
   58.0650   32.3710   45.4640 C   0  0  0  0  0  0  0  0  0  0  0  0
   58.5900   33.6580   45.2110 C   0  0  0  0  0  0  0  0  0  0  0  0
   59.1960   34.4030   46.2410 C   0  0  0  0  0  0  0  0  0  0  0  0
   59.7300   35.7830   45.9920 C   0  0  0  0  0  0  0  0  0  0  0  0
   59.2490   33.8180   47.5120 C   0  0  0  0  0  0  0  0  0  0  0  0
   59.7310   34.3850   48.6410 N   0  0  0  0  0  0  0  0  0  0  0  0
   59.5310   33.4600   49.6060 C   0  0  0  0  0  0  0  0  0  0  0  0
   59.8620   33.6560   51.0490 C   0  0  0  0  0  0  0  0  0  0  0  0
   58.9330   32.3470   49.0410 C   0  0  0  0  0  0  0  0  0  0  0  0
   58.5260   31.1620   49.7370 N   0  0  0  0  0  0  0  0  0  0  0  0
   59.4830   30.3630   50.4980 C   0  0  0  0  0  0  0  0  0  0  0  0
   58.7860   29.7100   51.6920 C   0  0  0  0  0  0  0  0  0  0  0  0
   57.3880   29.9150   51.6160 O   0  0  0  0  0  0  0  0  0  0  0  0
   56.9780   30.8730   52.5670 C   0  0  0  0  0  0  0  0  0  0  0  0
   58.7530   32.5830   47.7270 N   0  0  0  0  0  0  0  0  0  0  0  0
   58.1370   31.8460   46.7660 C   0  0  0  0  0  0  0  0  0  0  0  0
   57.9884   28.2061   45.1364 H   0  0  0  0  0  0  0  0  0  0  0  0
   57.5190   27.4272   43.5873 H   0  0  0  0  0  0  0  0  0  0  0  0
   58.6763   28.8010   43.5873 H   0  0  0  0  0  0  0  0  0  0  0  0
   56.6470   29.8127   42.9287 H   0  0  0  0  0  0  0  0  0  0  0  0
   55.6744   28.8155   44.0703 H   0  0  0  0  0  0  0  0  0  0  0  0
   55.7530   30.6770   45.2330 H   0  0  0  0  0  0  0  0  0  0  0  0
   58.0959   31.2994   43.6148 H   0  0  0  0  0  0  0  0  0  0  0  0
   56.5969   32.2452   43.9170 H   0  0  0  0  0  0  0  0  0  0  0  0
   58.5247   34.0828   44.1984 H   0  0  0  0  0  0  0  0  0  0  0  0
   59.9226   36.2807   46.9539 H   0  0  0  0  0  0  0  0  0  0  0  0
   60.6671   35.7158   45.4198 H   0  0  0  0  0  0  0  0  0  0  0  0
   58.9918   36.3641   45.4198 H   0  0  0  0  0  0  0  0  0  0  0  0
   60.1460   35.3370   48.7540 H   0  0  0  0  0  0  0  0  0  0  0  0
   59.0810   33.1935   51.6704 H   0  0  0  0  0  0  0  0  0  0  0  0
   60.8320   33.1866   51.2697 H   0  0  0  0  0  0  0  0  0  0  0  0
   59.9168   34.7322   51.2697 H   0  0  0  0  0  0  0  0  0  0  0  0
   57.5180   31.0790   50.0030 H   0  0  0  0  0  0  0  0  0  0  0  0
   59.9024   29.5806   49.8484 H   0  0  0  0  0  0  0  0  0  0  0  0
   60.2892   31.0162   50.8633 H   0  0  0  0  0  0  0  0  0  0  0  0
   58.9953   28.6301   51.6884 H   0  0  0  0  0  0  0  0  0  0  0  0
   59.1646   30.1638   52.6198 H   0  0  0  0  0  0  0  0  0  0  0  0
   57.1465   30.4793   53.5802 H   0  0  0  0  0  0  0  0  0  0  0  0
   57.5596   31.7967   52.4312 H   0  0  0  0  0  0  0  0  0  0  0  0
   55.9082   31.0900   52.4312 H   0  0  0  0  0  0  0  0  0  0  0  0
   57.7050   30.8621   47.0012 H   0  0  0  0  0  0  0  0  0  0  0  0
  1  2  1  0
  2  3  1  0
  3  4  1  0
  4  5  1  0
  5  6  1  0
  6  7  2  0
  7  8  1  0
  7  9  1  0
  9 10  2  0
 10 11  1  0
 11 12  1  0
 11 13  2  0
 13 14  1  0
 14 15  1  0
 15 16  1  0
 16 17  1  0
 17 18  1  0
 13 19  1  0
 19 20  1  0
 20  5  2  0
 19  9  1  0
  1 21  1  0
  1 22  1  0
  1 23  1  0
  2 24  1  0
  2 25  1  0
  3 26  1  0
  4 27  1  0
  4 28  1  0
  6 29  1  0
  8 30  1  0
  8 31  1  0
  8 32  1  0
 10 33  1  0
 12 34  1  0
 12 35  1  0
 12 36  1  0
 14 37  1  0
 15 38  1  0
 15 39  1  0
 16 40  1  0
 16 41  1  0
 18 42  1  0
 18 43  1  0
 18 44  1  0
 20 45  1  0
M  CHG  1  10   1
M  END
>  <UniqueID>  (28) 
28

>  <SMILES>  (28) 
CCNCc1cc(C)c2[nH+]c(C)c(NCCOC)n2c1

>  <Energy>  (28) 
77.15833610729024

>  <Genealogy>  (28) 
CCNCc1cc(C)c2[nH+]c(C)c(NCCOC)n2c1 (protonated)
CCNCc1cc(C)c2[nH+]c(C)c(NCCOC)n2c1 (3D coordinates assigned)
CCNCc1cc(C)c2[nH+]c(C)c(NCCOC)n2c1 (optimized conformer: 77.15833610729024 kcal/mol)

>  <smiles>  (28) 
CCNCc1cc(C)c2nc(C)c(NCCOC)n2c1

>  <score_type>  (28) 
oracle

>  <origin>  (28) 
adg

>  <m_score__min__energy>  (28) 
-4.7199999999999998

>  <m_primary>  (28) 
energy

$$$$
