0:0
     RDKit          3D

 50 52  0  0  0  0  0  0  0  0999 V2000
   55.6740   24.0290   44.4980 C   0  0  0  0  0  0  0  0  0  0  0  0
   54.8380   24.7540   45.5590 C   0  0  0  0  0  0  0  0  0  0  0  0
   55.4480   26.0250   45.9840 N   0  0  0  0  0  0  0  0  0  0  0  0
   56.6910   25.8220   46.7450 C   0  0  0  0  0  0  0  0  0  0  0  0
   57.8890   26.3350   45.9500 C   0  0  0  0  0  0  0  0  0  0  0  0
   57.4250   27.0770   44.8380 O   0  0  0  0  0  0  0  0  0  0  0  0
   58.4960   27.4230   43.9790 C   0  0  0  0  0  0  0  0  0  0  0  0
   59.2390   28.6660   44.4800 C   0  0  0  0  0  0  0  0  0  0  0  0
   58.4100   29.4190   45.4220 N   0  0  0  0  0  0  0  0  0  0  0  0
   58.9770   30.4720   46.2120 C   0  0  0  0  0  0  0  0  0  0  0  0
   59.6530   30.1320   47.3990 C   0  0  0  0  0  0  0  0  0  0  0  0
   59.7070   28.7920   47.8440 C   0  0  0  0  0  0  0  0  0  0  0  0
   60.3300   28.4630   49.0470 C   0  0  0  0  0  0  0  0  0  0  0  0
   60.8870   29.4610   49.8370 C   0  0  0  0  0  0  0  0  0  0  0  0
   60.8640   30.7880   49.4090 C   0  0  0  0  0  0  0  0  0  0  0  0
   60.2790   31.1460   48.1640 C   0  0  0  0  0  0  0  0  0  0  0  0
   60.2940   32.4480   47.7010 N   0  0  0  0  0  0  0  0  0  0  0  0
   61.2110   33.4380   48.3110 C   0  0  0  0  0  0  0  0  0  0  0  0
   59.4660   32.8220   46.6570 C   0  0  0  0  0  0  0  0  0  0  0  0
   59.2420   34.1920   46.3660 C   0  0  0  0  0  0  0  0  0  0  0  0
   58.4550   34.5830   45.2920 C   0  0  0  0  0  0  0  0  0  0  0  0
   57.8410   33.6280   44.4960 C   0  0  0  0  0  0  0  0  0  0  0  0
   57.9850   32.2660   44.7710 C   0  0  0  0  0  0  0  0  0  0  0  0
   57.0520   31.2040   43.7130 Cl  0  0  0  0  0  0  0  0  0  0  0  0
   58.8010   31.8350   45.8670 C   0  0  0  0  0  0  0  0  0  0  0  0
   56.4162   23.3853   44.9928 H   0  0  0  0  0  0  0  0  0  0  0  0
   55.0144   23.4122   43.8699 H   0  0  0  0  0  0  0  0  0  0  0  0
   56.1913   24.7693   43.8699 H   0  0  0  0  0  0  0  0  0  0  0  0
   53.8419   24.9627   45.1416 H   0  0  0  0  0  0  0  0  0  0  0  0
   54.7771   24.1002   46.4415 H   0  0  0  0  0  0  0  0  0  0  0  0
   55.6470   26.6120   45.1380 H   0  0  0  0  0  0  0  0  0  0  0  0
   56.6267   26.3685   47.6974 H   0  0  0  0  0  0  0  0  0  0  0  0
   56.8222   24.7466   46.9356 H   0  0  0  0  0  0  0  0  0  0  0  0
   58.5071   26.9805   46.5912 H   0  0  0  0  0  0  0  0  0  0  0  0
   58.4932   25.4845   45.6012 H   0  0  0  0  0  0  0  0  0  0  0  0
   59.2015   26.5804   43.9301 H   0  0  0  0  0  0  0  0  0  0  0  0
   58.0824   27.6458   42.9844 H   0  0  0  0  0  0  0  0  0  0  0  0
   60.1658   28.3542   44.9838 H   0  0  0  0  0  0  0  0  0  0  0  0
   59.4710   29.3105   43.6193 H   0  0  0  0  0  0  0  0  0  0  0  0
   57.4600   29.0730   45.6870 H   0  0  0  0  0  0  0  0  0  0  0  0
   59.2517   27.9983   47.2335 H   0  0  0  0  0  0  0  0  0  0  0  0
   60.3806   27.4130   49.3708 H   0  0  0  0  0  0  0  0  0  0  0  0
   61.3472   29.2038   50.8024 H   0  0  0  0  0  0  0  0  0  0  0  0
   61.3054   31.5697   50.0447 H   0  0  0  0  0  0  0  0  0  0  0  0
   61.1477   33.3697   49.4071 H   0  0  0  0  0  0  0  0  0  0  0  0
   62.2421   33.2295   47.9895 H   0  0  0  0  0  0  0  0  0  0  0  0
   60.9243   34.4501   47.9895 H   0  0  0  0  0  0  0  0  0  0  0  0
   59.7016   34.9605   47.0049 H   0  0  0  0  0  0  0  0  0  0  0  0
   58.3181   35.6520   45.0718 H   0  0  0  0  0  0  0  0  0  0  0  0
   57.2326   33.9470   43.6369 H   0  0  0  0  0  0  0  0  0  0  0  0
  1  2  1  0
  2  3  1  0
  3  4  1  0
  4  5  1  0
  5  6  1  0
  6  7  1  0
  7  8  1  0
  8  9  1  0
  9 10  1  0
 10 11  2  0
 11 12  1  0
 12 13  2  0
 13 14  1  0
 14 15  2  0
 15 16  1  0
 16 17  2  0
 17 18  1  0
 17 19  1  0
 19 20  2  0
 20 21  1  0
 21 22  2  0
 22 23  1  0
 23 24  1  0
 23 25  2  0
 25 10  1  0
 16 11  1  0
 25 19  1  0
  1 26  1  0
  1 27  1  0
  1 28  1  0
  2 29  1  0
  2 30  1  0
  3 31  1  0
  4 32  1  0
  4 33  1  0
  5 34  1  0
  5 35  1  0
  7 36  1  0
  7 37  1  0
  8 38  1  0
  8 39  1  0
  9 40  1  0
 12 41  1  0
 13 42  1  0
 14 43  1  0
 15 44  1  0
 18 45  1  0
 18 46  1  0
 18 47  1  0
 20 48  1  0
 21 49  1  0
 22 50  1  0
M  CHG  1  17   1
M  END
>  <UniqueID>  (1) 
1

>  <SMILES>  (1) 
CCNCCOCCNc1c2ccccc2[n+](C)c2cccc(Cl)c12

>  <Energy>  (1) 
81.71356218229107

>  <Genealogy>  (1) 
CCNCCOCCNc1c2ccccc2[n+](C)c2cccc(Cl)c12 (3D coordinates assigned)
CCNCCOCCNc1c2ccccc2[n+](C)c2cccc(Cl)c12 (optimized conformer: 81.71356218229107 kcal/mol)

>  <smiles>  (1) 
CCNCCOCCNc1c2ccccc2[n+](C)c2cccc(Cl)c12

>  <score_type>  (1) 
oracle

>  <origin>  (1) 
adg

>  <m_score__min__energy>  (1) 
-5.6900000000000004

>  <m_primary>  (1) 
energy

$$$$
1:0
     RDKit          3D

 62 65  0  0  0  0  0  0  0  0999 V2000
   56.2570   29.8560   42.6230 C   0  0  0  0  0  0  0  0  0  0  0  0
   57.2420   30.9440   43.0420 C   0  0  0  0  0  0  0  0  0  0  0  0
   57.7890   30.6660   44.3790 N   0  0  0  0  0  0  0  0  0  0  0  0
   57.9950   29.3030   44.8100 C   0  0  0  0  0  0  0  0  0  0  0  0
   56.9140   28.5520   45.3110 C   0  0  0  0  0  0  0  0  0  0  0  0
   57.1040   27.2320   45.7310 C   0  0  0  0  0  0  0  0  0  0  0  0
   58.3710   26.6480   45.6550 C   0  0  0  0  0  0  0  0  0  0  0  0
   59.4500   27.3820   45.1580 C   0  0  0  0  0  0  0  0  0  0  0  0
   59.2670   28.7030   44.7360 C   0  0  0  0  0  0  0  0  0  0  0  0
   58.1840   31.7550   45.2440 C   0  0  0  0  0  0  0  0  0  0  0  0
   57.9570   33.0850   44.8470 C   0  0  0  0  0  0  0  0  0  0  0  0
   58.3240   34.1480   45.6760 C   0  0  0  0  0  0  0  0  0  0  0  0
   58.9210   33.8970   46.9140 C   0  0  0  0  0  0  0  0  0  0  0  0
   59.2770   34.9320   47.7190 N   0  0  0  0  0  0  0  0  0  0  0  0
   59.8540   34.7090   48.9270 C   0  0  0  0  0  0  0  0  0  0  0  0
   60.0850   33.4400   49.3490 N   0  0  0  0  0  0  0  0  0  0  0  0
   59.7520   32.3640   48.5830 C   0  0  0  0  0  0  0  0  0  0  0  0
   59.9970   31.0610   49.0410 O   0  0  0  0  0  0  0  0  0  0  0  0
   59.2080   30.4030   50.0330 C   0  0  0  0  0  0  0  0  0  0  0  0
   60.0930   29.8110   51.1300 C   0  0  0  0  0  0  0  0  0  0  0  0
   61.3240   29.2550   50.5540 N   0  0  0  0  0  0  0  0  0  0  0  0
   62.4660   29.3050   51.4800 C   0  0  0  0  0  0  0  0  0  0  0  0
   63.5250   30.3750   51.1360 C   0  0  0  0  0  0  0  0  0  0  0  0
   62.9600   31.8030   50.9770 C   0  0  0  0  0  0  0  0  0  0  0  0
   63.0880   32.3400   49.5720 C   0  0  0  0  0  0  0  0  0  0  0  0
   63.2890   33.7140   49.3480 C   0  0  0  0  0  0  0  0  0  0  0  0
   63.4090   34.2090   48.0450 C   0  0  0  0  0  0  0  0  0  0  0  0
   63.3100   33.3400   46.9560 C   0  0  0  0  0  0  0  0  0  0  0  0
   63.0810   31.9780   47.1660 C   0  0  0  0  0  0  0  0  0  0  0  0
   62.9620   31.4790   48.4670 C   0  0  0  0  0  0  0  0  0  0  0  0
   59.1530   32.5710   47.3300 C   0  0  0  0  0  0  0  0  0  0  0  0
   58.7830   31.5030   46.4920 C   0  0  0  0  0  0  0  0  0  0  0  0
   55.8293   29.3836   43.5196 H   0  0  0  0  0  0  0  0  0  0  0  0
   55.4501   30.3029   42.0237 H   0  0  0  0  0  0  0  0  0  0  0  0
   56.7817   29.0974   42.0237 H   0  0  0  0  0  0  0  0  0  0  0  0
   58.0671   30.9828   42.3156 H   0  0  0  0  0  0  0  0  0  0  0  0
   56.7121   31.9075   43.0710 H   0  0  0  0  0  0  0  0  0  0  0  0
   55.9142   29.0067   45.3722 H   0  0  0  0  0  0  0  0  0  0  0  0
   56.2547   26.6524   46.1219 H   0  0  0  0  0  0  0  0  0  0  0  0
   58.5186   25.6097   45.9868 H   0  0  0  0  0  0  0  0  0  0  0  0
   60.4465   26.9201   45.0982 H   0  0  0  0  0  0  0  0  0  0  0  0
   60.1206   29.2759   44.3445 H   0  0  0  0  0  0  0  0  0  0  0  0
   57.4860   33.2903   43.8744 H   0  0  0  0  0  0  0  0  0  0  0  0
   58.1427   35.1839   45.3536 H   0  0  0  0  0  0  0  0  0  0  0  0
   60.1352   35.5592   49.5658 H   0  0  0  0  0  0  0  0  0  0  0  0
   58.5151   31.1297   50.4823 H   0  0  0  0  0  0  0  0  0  0  0  0
   58.6498   29.5858   49.5528 H   0  0  0  0  0  0  0  0  0  0  0  0
   60.3547   30.6008   51.8495 H   0  0  0  0  0  0  0  0  0  0  0  0
   59.5413   29.0048   51.6356 H   0  0  0  0  0  0  0  0  0  0  0  0
   61.5590   29.7510   49.6670 H   0  0  0  0  0  0  0  0  0  0  0  0
   62.0810   29.5149   52.4888 H   0  0  0  0  0  0  0  0  0  0  0  0
   62.9711   28.3307   51.4056 H   0  0  0  0  0  0  0  0  0  0  0  0
   64.2742   30.3890   51.9413 H   0  0  0  0  0  0  0  0  0  0  0  0
   63.9494   30.0947   50.1606 H   0  0  0  0  0  0  0  0  0  0  0  0
   61.8947   31.7900   51.2506 H   0  0  0  0  0  0  0  0  0  0  0  0
   63.5471   32.4619   51.6336 H   0  0  0  0  0  0  0  0  0  0  0  0
   63.3522   34.4036   50.2027 H   0  0  0  0  0  0  0  0  0  0  0  0
   63.5813   35.2825   47.8781 H   0  0  0  0  0  0  0  0  0  0  0  0
   63.4125   33.7285   45.9320 H   0  0  0  0  0  0  0  0  0  0  0  0
   62.9941   31.2969   46.3066 H   0  0  0  0  0  0  0  0  0  0  0  0
   62.7689   30.4079   48.6269 H   0  0  0  0  0  0  0  0  0  0  0  0
   58.9628   30.4666   46.8139 H   0  0  0  0  0  0  0  0  0  0  0  0
  1  2  1  0
  2  3  1  0
  3  4  1  0
  4  5  2  0
  5  6  1  0
  6  7  2  0
  7  8  1  0
  8  9  2  0
  3 10  1  0
 10 11  2  0
 11 12  1  0
 12 13  2  0
 13 14  1  0
 14 15  2  0
 15 16  1  0
 16 17  2  0
 17 18  1  0
 18 19  1  0
 19 20  1  0
 20 21  1  0
 21 22  1  0
 22 23  1  0
 23 24  1  0
 24 25  1  0
 25 26  2  0
 26 27  1  0
 27 28  2  0
 28 29  1  0
 29 30  2  0
 17 31  1  0
 31 32  2  0
  9  4  1  0
 32 10  1  0
 31 13  1  0
 30 25  1  0
  1 33  1  0
  1 34  1  0
  1 35  1  0
  2 36  1  0
  2 37  1  0
  5 38  1  0
  6 39  1  0
  7 40  1  0
  8 41  1  0
  9 42  1  0
 11 43  1  0
 12 44  1  0
 15 45  1  0
 19 46  1  0
 19 47  1  0
 20 48  1  0
 20 49  1  0
 21 50  1  0
 22 51  1  0
 22 52  1  0
 23 53  1  0
 23 54  1  0
 24 55  1  0
 24 56  1  0
 26 57  1  0
 27 58  1  0
 28 59  1  0
 29 60  1  0
 30 61  1  0
 32 62  1  0
M  END
>  <UniqueID>  (2) 
2

>  <SMILES>  (2) 
CCN(c1ccccc1)c1ccc2ncnc(OCCNCCCc3ccccc3)c2c1

>  <Energy>  (2) 
71.75590225348712

>  <Genealogy>  (2) 
CCN(c1ccccc1)c1ccc2ncnc(OCCNCCCc3ccccc3)c2c1 (3D coordinates assigned)
CCN(c1ccccc1)c1ccc2ncnc(OCCNCCCc3ccccc3)c2c1 (optimized conformer: 71.75590225348712 kcal/mol)

>  <smiles>  (2) 
CCN(c1ccccc1)c1ccc2ncnc(OCCNCCCc3ccccc3)c2c1

>  <score_type>  (2) 
oracle

>  <origin>  (2) 
adg

>  <m_score__min__energy>  (2) 
-8.5199999999999996

>  <m_primary>  (2) 
energy

$$$$
2:0
     RDKit          3D

 53 55  0  0  0  0  0  0  0  0999 V2000
   63.2310   33.8490   46.5980 C   0  0  0  0  0  0  0  0  0  0  0  0
   63.7660   32.5240   47.1550 C   0  0  0  0  0  0  0  0  0  0  0  0
   63.4150   32.3060   48.5860 N   0  0  0  0  0  0  0  0  0  0  0  0
   64.3550   33.0830   49.4440 C   0  0  0  0  0  0  0  0  0  0  0  0
   65.3890   32.1800   50.1260 C   0  0  0  0  0  0  0  0  0  0  0  0
   62.0060   32.7160   48.8390 C   0  0  0  0  0  0  0  0  0  0  0  0
   60.9740   31.5910   48.6020 C   0  0  0  0  0  0  0  0  0  0  0  0
   61.0890   31.0140   47.2610 N   0  0  0  0  0  0  0  0  0  0  0  0
   59.9670   30.9650   46.3570 C   0  0  0  0  0  0  0  0  0  0  0  0
   59.3460   32.1550   45.9420 C   0  0  0  0  0  0  0  0  0  0  0  0
   59.8430   33.4090   46.3530 C   0  0  0  0  0  0  0  0  0  0  0  0
   59.1800   34.5860   46.0170 C   0  0  0  0  0  0  0  0  0  0  0  0
   58.0080   34.5340   45.2740 C   0  0  0  0  0  0  0  0  0  0  0  0
   57.5100   33.3090   44.8320 C   0  0  0  0  0  0  0  0  0  0  0  0
   58.1890   32.0960   45.1200 C   0  0  0  0  0  0  0  0  0  0  0  0
   57.7410   30.8790   44.6390 N   0  0  0  0  0  0  0  0  0  0  0  0
   56.7210   30.8420   43.5660 C   0  0  0  0  0  0  0  0  0  0  0  0
   58.2800   29.7000   45.1200 C   0  0  0  0  0  0  0  0  0  0  0  0
   57.6950   28.4400   44.8330 C   0  0  0  0  0  0  0  0  0  0  0  0
   58.3060   27.2440   45.2310 C   0  0  0  0  0  0  0  0  0  0  0  0
   57.6570   25.9220   44.9330 C   0  0  0  0  0  0  0  0  0  0  0  0
   56.2660   25.6780   46.0160 Cl  0  0  0  0  0  0  0  0  0  0  0  0
   59.4990   27.2910   45.9540 C   0  0  0  0  0  0  0  0  0  0  0  0
   60.0630   28.5150   46.3010 C   0  0  0  0  0  0  0  0  0  0  0  0
   59.4420   29.7270   45.9360 C   0  0  0  0  0  0  0  0  0  0  0  0
   62.9621   34.5150   47.4311 H   0  0  0  0  0  0  0  0  0  0  0  0
   64.0064   34.3274   45.9817 H   0  0  0  0  0  0  0  0  0  0  0  0
   62.3408   33.6549   45.9817 H   0  0  0  0  0  0  0  0  0  0  0  0
   63.3441   31.6993   46.5618 H   0  0  0  0  0  0  0  0  0  0  0  0
   64.8634   32.5604   47.0889 H   0  0  0  0  0  0  0  0  0  0  0  0
   63.5120   31.2860   48.8030 H   0  0  0  0  0  0  0  0  0  0  0  0
   64.8828   33.8175   48.8180 H   0  0  0  0  0  0  0  0  0  0  0  0
   63.7667   33.5798   50.2296 H   0  0  0  0  0  0  0  0  0  0  0  0
   65.2888   32.2675   51.2179 H   0  0  0  0  0  0  0  0  0  0  0  0
   65.2193   31.1358   49.8247 H   0  0  0  0  0  0  0  0  0  0  0  0
   66.4009   32.4887   49.8247 H   0  0  0  0  0  0  0  0  0  0  0  0
   61.9240   33.0463   49.8850 H   0  0  0  0  0  0  0  0  0  0  0  0
   61.7736   33.5182   48.1231 H   0  0  0  0  0  0  0  0  0  0  0  0
   61.1374   30.7969   49.3454 H   0  0  0  0  0  0  0  0  0  0  0  0
   59.9686   32.0265   48.6992 H   0  0  0  0  0  0  0  0  0  0  0  0
   62.0370   30.7610   46.9000 H   0  0  0  0  0  0  0  0  0  0  0  0
   60.7673   33.4578   46.9473 H   0  0  0  0  0  0  0  0  0  0  0  0
   59.5843   35.5567   46.3399 H   0  0  0  0  0  0  0  0  0  0  0  0
   57.4704   35.4630   45.0332 H   0  0  0  0  0  0  0  0  0  0  0  0
   56.5763   33.2820   44.2510 H   0  0  0  0  0  0  0  0  0  0  0  0
   55.7175   30.8056   44.0151 H   0  0  0  0  0  0  0  0  0  0  0  0
   56.8114   31.7440   42.9429 H   0  0  0  0  0  0  0  0  0  0  0  0
   56.8765   29.9489   42.9429 H   0  0  0  0  0  0  0  0  0  0  0  0
   56.7413   28.4013   44.2863 H   0  0  0  0  0  0  0  0  0  0  0  0
   57.3131   25.9109   43.8882 H   0  0  0  0  0  0  0  0  0  0  0  0
   58.3870   25.1144   45.0906 H   0  0  0  0  0  0  0  0  0  0  0  0
   59.9960   26.3557   46.2511 H   0  0  0  0  0  0  0  0  0  0  0  0
   61.0057   28.5372   46.8675 H   0  0  0  0  0  0  0  0  0  0  0  0
  1  2  1  0
  2  3  1  0
  3  4  1  0
  4  5  1  0
  3  6  1  0
  6  7  1  0
  7  8  1  0
  8  9  1  0
  9 10  2  0
 10 11  1  0
 11 12  2  0
 12 13  1  0
 13 14  2  0
 14 15  1  0
 15 16  2  0
 16 17  1  0
 16 18  1  0
 18 19  2  0
 19 20  1  0
 20 21  1  0
 21 22  1  0
 20 23  2  0
 23 24  1  0
 24 25  2  0
 25  9  1  0
 15 10  1  0
 25 18  1  0
  1 26  1  0
  1 27  1  0
  1 28  1  0
  2 29  1  0
  2 30  1  0
  3 31  1  0
  4 32  1  0
  4 33  1  0
  5 34  1  0
  5 35  1  0
  5 36  1  0
  6 37  1  0
  6 38  1  0
  7 39  1  0
  7 40  1  0
  8 41  1  0
 11 42  1  0
 12 43  1  0
 13 44  1  0
 14 45  1  0
 17 46  1  0
 17 47  1  0
 17 48  1  0
 19 49  1  0
 21 50  1  0
 21 51  1  0
 23 52  1  0
 24 53  1  0
M  CHG  2   3   1  16   1
M  END
>  <UniqueID>  (3) 
3

>  <SMILES>  (3) 
CC[NH+](CC)CCNc1c2ccccc2[n+](C)c2cc(CCl)ccc12

>  <Energy>  (3) 
80.87456163671024

>  <Genealogy>  (3) 
CC[NH+](CC)CCNc1c2ccccc2[n+](C)c2cc(CCl)ccc12 (protonated)
CC[NH+](CC)CCNc1c2ccccc2[n+](C)c2cc(CCl)ccc12 (3D coordinates assigned)
CC[NH+](CC)CCNc1c2ccccc2[n+](C)c2cc(CCl)ccc12 (optimized conformer: 80.87456163671024 kcal/mol)

>  <smiles>  (3) 
CCN(CC)CCNc1c2ccccc2[n+](C)c2cc(CCl)ccc12

>  <score_type>  (3) 
oracle

>  <origin>  (3) 
adg

>  <m_score__min__energy>  (3) 
-5.1299999999999999

>  <m_primary>  (3) 
energy

$$$$
3:0
     RDKit          3D

 71 74  0  0  0  0  0  0  0  0999 V2000
   66.8180   30.2240   51.2390 C   0  0  0  0  0  0  0  0  0  0  0  0
   67.4720   31.5150   51.7290 C   0  0  0  0  0  0  0  0  0  0  0  0
   67.0660   32.6530   50.8770 N   0  0  0  0  0  0  0  0  0  0  0  0
   68.2440   33.4600   50.5130 C   0  0  0  0  0  0  0  0  0  0  0  0
   66.0450   33.4950   51.5420 C   0  0  0  0  0  0  0  0  0  0  0  0
   64.7560   33.5120   50.7170 C   0  0  0  0  0  0  0  0  0  0  0  0
   64.6610   32.3180   49.8730 N   0  0  0  0  0  0  0  0  0  0  0  0
   63.3810   31.7510   49.5290 C   0  0  0  0  0  0  0  0  0  0  0  0
   62.8120   30.8420   50.3870 C   0  0  0  0  0  0  0  0  0  0  0  0
   63.4540   30.6140   51.6360 C   0  0  0  0  0  0  0  0  0  0  0  0
   63.1580   29.5110   52.4260 C   0  0  0  0  0  0  0  0  0  0  0  0
   62.2050   28.5980   52.0100 C   0  0  0  0  0  0  0  0  0  0  0  0
   61.4800   28.8360   50.8490 C   0  0  0  0  0  0  0  0  0  0  0  0
   61.6950   29.9990   50.0600 C   0  0  0  0  0  0  0  0  0  0  0  0
   60.8560   30.2740   49.0830 N   0  0  0  0  0  0  0  0  0  0  0  0
   60.0540   29.2200   48.4300 C   0  0  0  0  0  0  0  0  0  0  0  0
   60.4900   31.6290   48.7610 C   0  0  0  0  0  0  0  0  0  0  0  0
   59.1370   31.9930   48.8190 C   0  0  0  0  0  0  0  0  0  0  0  0
   58.6630   33.0880   48.1050 C   0  0  0  0  0  0  0  0  0  0  0  0
   59.5150   33.8100   47.2560 C   0  0  0  0  0  0  0  0  0  0  0  0
   58.9670   34.8270   46.3920 N   0  0  0  0  0  0  0  0  0  0  0  0
   58.2540   34.5110   45.1510 C   0  0  0  0  0  0  0  0  0  0  0  0
   57.2430   33.3760   45.3610 C   0  0  0  0  0  0  0  0  0  0  0  0
   57.4870   32.2090   44.3770 C   0  0  0  0  0  0  0  0  0  0  0  0
   57.0120   30.8940   44.8630 N   0  0  0  0  0  0  0  0  0  0  0  0
   56.3390   30.1060   43.8180 C   0  0  0  0  0  0  0  0  0  0  0  0
   58.0680   30.1100   45.5240 C   0  0  0  0  0  0  0  0  0  0  0  0
   60.8990   33.4910   47.2450 C   0  0  0  0  0  0  0  0  0  0  0  0
   61.8080   34.1750   46.4160 C   0  0  0  0  0  0  0  0  0  0  0  0
   63.1550   33.8350   46.4190 C   0  0  0  0  0  0  0  0  0  0  0  0
   63.6410   32.9070   47.3330 C   0  0  0  0  0  0  0  0  0  0  0  0
   62.7820   32.2710   48.2530 C   0  0  0  0  0  0  0  0  0  0  0  0
   61.3940   32.4600   48.1000 C   0  0  0  0  0  0  0  0  0  0  0  0
   66.5108   29.6175   52.1037 H   0  0  0  0  0  0  0  0  0  0  0  0
   65.9350   30.4684   50.6303 H   0  0  0  0  0  0  0  0  0  0  0  0
   67.5374   29.6567   50.6303 H   0  0  0  0  0  0  0  0  0  0  0  0
   67.1598   31.7088   52.7658 H   0  0  0  0  0  0  0  0  0  0  0  0
   68.5651   31.4031   51.6785 H   0  0  0  0  0  0  0  0  0  0  0  0
   68.7485   33.8056   51.4274 H   0  0  0  0  0  0  0  0  0  0  0  0
   68.9390   32.8475   49.9200 H   0  0  0  0  0  0  0  0  0  0  0  0
   67.9239   34.3294   49.9200 H   0  0  0  0  0  0  0  0  0  0  0  0
   65.8318   33.0869   52.5410 H   0  0  0  0  0  0  0  0  0  0  0  0
   66.4285   34.5222   51.6304 H   0  0  0  0  0  0  0  0  0  0  0  0
   63.8926   33.5416   51.3980 H   0  0  0  0  0  0  0  0  0  0  0  0
   64.7643   34.4011   50.0693 H   0  0  0  0  0  0  0  0  0  0  0  0
   65.5150   31.7430   49.6840 H   0  0  0  0  0  0  0  0  0  0  0  0
   64.2082   31.3338   51.9868 H   0  0  0  0  0  0  0  0  0  0  0  0
   63.6810   29.3631   53.3823 H   0  0  0  0  0  0  0  0  0  0  0  0
   62.0219   27.6860   52.5971 H   0  0  0  0  0  0  0  0  0  0  0  0
   60.7204   28.1062   50.5322 H   0  0  0  0  0  0  0  0  0  0  0  0
   59.5771   28.5933   49.1980 H   0  0  0  0  0  0  0  0  0  0  0  0
   59.2790   29.6846   47.8028 H   0  0  0  0  0  0  0  0  0  0  0  0
   60.7085   28.5969   47.8028 H   0  0  0  0  0  0  0  0  0  0  0  0
   58.4422   31.4052   49.4368 H   0  0  0  0  0  0  0  0  0  0  0  0
   57.6104   33.3908   48.2068 H   0  0  0  0  0  0  0  0  0  0  0  0
   59.1820   35.8300   46.5870 H   0  0  0  0  0  0  0  0  0  0  0  0
   57.7187   35.4083   44.8071 H   0  0  0  0  0  0  0  0  0  0  0  0
   58.9903   34.1852   44.4015 H   0  0  0  0  0  0  0  0  0  0  0  0
   57.3363   33.0005   46.3907 H   0  0  0  0  0  0  0  0  0  0  0  0
   56.2342   33.7750   45.1790 H   0  0  0  0  0  0  0  0  0  0  0  0
   56.9658   32.4373   43.4356 H   0  0  0  0  0  0  0  0  0  0  0  0
   58.5766   32.1243   44.2523 H   0  0  0  0  0  0  0  0  0  0  0  0
   55.6931   29.3497   44.2879 H   0  0  0  0  0  0  0  0  0  0  0  0
   55.7275   30.7729   43.1925 H   0  0  0  0  0  0  0  0  0  0  0  0
   57.0934   29.6064   43.1925 H   0  0  0  0  0  0  0  0  0  0  0  0
   57.9571   30.1923   46.6153 H   0  0  0  0  0  0  0  0  0  0  0  0
   57.9826   29.0548   45.2253 H   0  0  0  0  0  0  0  0  0  0  0  0
   59.0534   30.4970   45.2253 H   0  0  0  0  0  0  0  0  0  0  0  0
   61.4497   34.9835   45.7619 H   0  0  0  0  0  0  0  0  0  0  0  0
   63.8396   34.3018   45.6955 H   0  0  0  0  0  0  0  0  0  0  0  0
   64.7140   32.6647   47.3387 H   0  0  0  0  0  0  0  0  0  0  0  0
  1  2  1  0
  2  3  1  0
  3  4  1  0
  3  5  1  0
  5  6  1  0
  6  7  1  0
  7  8  1  0
  8  9  2  0
  9 10  1  0
 10 11  2  0
 11 12  1  0
 12 13  2  0
 13 14  1  0
 14 15  2  0
 15 16  1  0
 15 17  1  0
 17 18  2  0
 18 19  1  0
 19 20  2  0
 20 21  1  0
 21 22  1  0
 22 23  1  0
 23 24  1  0
 24 25  1  0
 25 26  1  0
 25 27  1  0
 20 28  1  0
 28 29  2  0
 29 30  1  0
 30 31  2  0
 31 32  1  0
 32 33  2  0
 32  8  1  0
 14  9  1  0
 33 17  1  0
 33 28  1  0
  1 34  1  0
  1 35  1  0
  1 36  1  0
  2 37  1  0
  2 38  1  0
  4 39  1  0
  4 40  1  0
  4 41  1  0
  5 42  1  0
  5 43  1  0
  6 44  1  0
  6 45  1  0
  7 46  1  0
 10 47  1  0
 11 48  1  0
 12 49  1  0
 13 50  1  0
 16 51  1  0
 16 52  1  0
 16 53  1  0
 18 54  1  0
 19 55  1  0
 21 56  1  0
 22 57  1  0
 22 58  1  0
 23 59  1  0
 23 60  1  0
 24 61  1  0
 24 62  1  0
 26 63  1  0
 26 64  1  0
 26 65  1  0
 27 66  1  0
 27 67  1  0
 27 68  1  0
 29 69  1  0
 30 70  1  0
 31 71  1  0
M  CHG  1  15   1
M  END
>  <UniqueID>  (4) 
4

>  <SMILES>  (4) 
CCN(C)CCNC1=c2ccccc2=[N+](C)c2ccc(NCCCN(C)C)c3cccc1c23

>  <Energy>  (4) 
142.16269417935933

>  <Genealogy>  (4) 
CCN(C)CCNC1=c2ccccc2=[N+](C)c2ccc(NCCCN(C)C)c3cccc1c23 (3D coordinates assigned)
CCN(C)CCNC1=c2ccccc2=[N+](C)c2ccc(NCCCN(C)C)c3cccc1c23 (nonaromatic ring conformer: 142.16269417935933 kcal/mol)

>  <smiles>  (4) 
CCN(C)CCNC1=c2ccccc2=[N+](C)c2ccc(NCCCN(C)C)c3cccc1c23

>  <score_type>  (4) 
oracle

>  <origin>  (4) 
adg

>  <m_score__min__energy>  (4) 
-6.6699999999999999

>  <m_primary>  (4) 
energy

$$$$
4:0
     RDKit          3D

 75 78  0  0  0  0  0  0  0  0999 V2000
   63.7110   32.5780   47.0450 C   0  0  0  0  0  0  0  0  0  0  0  0
   63.2970   33.8440   47.7970 C   0  0  0  0  0  0  0  0  0  0  0  0
   62.3980   33.5520   48.9370 N   0  0  0  0  0  0  0  0  0  0  0  0
   62.6440   34.4920   50.0490 C   0  0  0  0  0  0  0  0  0  0  0  0
   62.6020   32.1550   49.3900 C   0  0  0  0  0  0  0  0  0  0  0  0
   61.2760   31.3710   49.4810 C   0  0  0  0  0  0  0  0  0  0  0  0
   60.0910   32.1640   49.0880 N   0  0  0  0  0  0  0  0  0  0  0  0
   59.6570   31.8780   47.7230 C   0  0  0  0  0  0  0  0  0  0  0  0
   59.5510   32.9360   46.7770 C   0  0  0  0  0  0  0  0  0  0  0  0
   60.1060   34.2200   47.0130 C   0  0  0  0  0  0  0  0  0  0  0  0
   59.9460   35.2530   46.0900 C   0  0  0  0  0  0  0  0  0  0  0  0
   59.2330   35.0400   44.9180 C   0  0  0  0  0  0  0  0  0  0  0  0
   58.6760   33.7900   44.6600 C   0  0  0  0  0  0  0  0  0  0  0  0
   58.8270   32.7190   45.5760 C   0  0  0  0  0  0  0  0  0  0  0  0
   58.2590   31.4930   45.3260 N   0  0  0  0  0  0  0  0  0  0  0  0
   57.0270   31.4420   44.5070 C   0  0  0  0  0  0  0  0  0  0  0  0
   58.6980   30.3800   46.0140 C   0  0  0  0  0  0  0  0  0  0  0  0
   59.2930   30.5590   47.3010 C   0  0  0  0  0  0  0  0  0  0  0  0
   59.4960   29.4160   48.1130 C   0  0  0  0  0  0  0  0  0  0  0  0
   59.1680   28.1430   47.6680 C   0  0  0  0  0  0  0  0  0  0  0  0
   58.7200   27.9410   46.3670 C   0  0  0  0  0  0  0  0  0  0  0  0
   58.4970   26.6310   45.9110 C   0  0  0  0  0  0  0  0  0  0  0  0
   58.1370   26.3850   44.5870 C   0  0  0  0  0  0  0  0  0  0  0  0
   57.8980   25.0510   44.2130 O   0  0  0  0  0  0  0  0  0  0  0  0
   57.0320   24.5900   43.1750 C   0  0  0  0  0  0  0  0  0  0  0  0
   56.0280   23.5570   43.7150 C   0  0  0  0  0  0  0  0  0  0  0  0
   56.5880   22.6670   44.8590 C   0  0  0  0  0  0  0  0  0  0  0  0
   57.4320   21.5060   44.4270 N   0  0  0  0  0  0  0  0  0  0  0  0
   57.1670   21.1230   43.0200 C   0  0  0  0  0  0  0  0  0  0  0  0
   57.2150   20.3310   45.3100 C   0  0  0  0  0  0  0  0  0  0  0  0
   58.8580   21.9050   44.5360 C   0  0  0  0  0  0  0  0  0  0  0  0
   58.0510   27.4660   43.6970 C   0  0  0  0  0  0  0  0  0  0  0  0
   58.2900   28.7700   44.1390 C   0  0  0  0  0  0  0  0  0  0  0  0
   58.5350   29.0460   45.5040 C   0  0  0  0  0  0  0  0  0  0  0  0
   63.9687   31.7899   47.7678 H   0  0  0  0  0  0  0  0  0  0  0  0
   62.8773   32.2377   46.4132 H   0  0  0  0  0  0  0  0  0  0  0  0
   64.5847   32.7960   46.4132 H   0  0  0  0  0  0  0  0  0  0  0  0
   64.2014   34.3408   48.1780 H   0  0  0  0  0  0  0  0  0  0  0  0
   62.7500   34.4893   47.0939 H   0  0  0  0  0  0  0  0  0  0  0  0
   62.5074   33.9699   51.0075 H   0  0  0  0  0  0  0  0  0  0  0  0
   63.6728   34.8758   49.9839 H   0  0  0  0  0  0  0  0  0  0  0  0
   61.9351   35.3306   49.9839 H   0  0  0  0  0  0  0  0  0  0  0  0
   63.2666   31.6451   48.6770 H   0  0  0  0  0  0  0  0  0  0  0  0
   63.0439   32.1881   50.3968 H   0  0  0  0  0  0  0  0  0  0  0  0
   61.3436   30.4953   48.8187 H   0  0  0  0  0  0  0  0  0  0  0  0
   61.1399   31.0887   50.5354 H   0  0  0  0  0  0  0  0  0  0  0  0
   60.3000   33.1610   49.2760 H   0  0  0  0  0  0  0  0  0  0  0  0
   59.3100   31.9670   49.7530 H   0  0  0  0  0  0  0  0  0  0  0  0
   60.6714   34.4037   47.9385 H   0  0  0  0  0  0  0  0  0  0  0  0
   60.3865   36.2406   46.2914 H   0  0  0  0  0  0  0  0  0  0  0  0
   59.1081   35.8582   44.1935 H   0  0  0  0  0  0  0  0  0  0  0  0
   58.1098   33.6313   43.7304 H   0  0  0  0  0  0  0  0  0  0  0  0
   56.1485   31.4056   45.1680 H   0  0  0  0  0  0  0  0  0  0  0  0
   56.9713   32.3386   43.8722 H   0  0  0  0  0  0  0  0  0  0  0  0
   57.0456   30.5439   43.8722 H   0  0  0  0  0  0  0  0  0  0  0  0
   59.9233   29.5403   49.1190 H   0  0  0  0  0  0  0  0  0  0  0  0
   59.2633   27.2858   48.3507 H   0  0  0  0  0  0  0  0  0  0  0  0
   58.6080   25.7877   46.6085 H   0  0  0  0  0  0  0  0  0  0  0  0
   56.4797   25.4461   42.7602 H   0  0  0  0  0  0  0  0  0  0  0  0
   57.6425   24.1117   42.3949 H   0  0  0  0  0  0  0  0  0  0  0  0
   55.1483   24.0965   44.0959 H   0  0  0  0  0  0  0  0  0  0  0  0
   55.7844   22.8842   42.8796 H   0  0  0  0  0  0  0  0  0  0  0  0
   57.2002   23.3044   45.5139 H   0  0  0  0  0  0  0  0  0  0  0  0
   55.7092   22.2298   45.3556 H   0  0  0  0  0  0  0  0  0  0  0  0
   56.5412   20.2186   42.9978 H   0  0  0  0  0  0  0  0  0  0  0  0
   56.6429   21.9441   42.5090 H   0  0  0  0  0  0  0  0  0  0  0  0
   58.1201   20.9220   42.5090 H   0  0  0  0  0  0  0  0  0  0  0  0
   57.2734   20.6471   46.3620 H   0  0  0  0  0  0  0  0  0  0  0  0
   56.2223   19.9011   45.1109 H   0  0  0  0  0  0  0  0  0  0  0  0
   57.9887   19.5748   45.1109 H   0  0  0  0  0  0  0  0  0  0  0  0
   59.1368   21.9830   45.5972 H   0  0  0  0  0  0  0  0  0  0  0  0
   59.4888   21.1489   44.0458 H   0  0  0  0  0  0  0  0  0  0  0  0
   59.0048   22.8787   44.0458 H   0  0  0  0  0  0  0  0  0  0  0  0
   57.7934   27.2858   42.6429 H   0  0  0  0  0  0  0  0  0  0  0  0
   58.2875   29.5960   43.4125 H   0  0  0  0  0  0  0  0  0  0  0  0
  1  2  1  0
  2  3  1  0
  3  4  1  0
  3  5  1  0
  5  6  1  0
  6  7  1  0
  7  8  1  0
  8  9  2  0
  9 10  1  0
 10 11  2  0
 11 12  1  0
 12 13  2  0
 13 14  1  0
 14 15  2  0
 15 16  1  0
 15 17  1  0
 17 18  2  0
 18 19  1  0
 19 20  2  0
 20 21  1  0
 21 22  2  0
 22 23  1  0
 23 24  1  0
 24 25  1  0
 25 26  1  0
 26 27  1  0
 27 28  1  0
 28 29  1  0
 28 30  1  0
 28 31  1  0
 23 32  2  0
 32 33  1  0
 33 34  2  0
 18  8  1  0
 34 21  1  0
 14  9  1  0
 34 17  1  0
  1 35  1  0
  1 36  1  0
  1 37  1  0
  2 38  1  0
  2 39  1  0
  4 40  1  0
  4 41  1  0
  4 42  1  0
  5 43  1  0
  5 44  1  0
  6 45  1  0
  6 46  1  0
  7 47  1  0
  7 48  1  0
 10 49  1  0
 11 50  1  0
 12 51  1  0
 13 52  1  0
 16 53  1  0
 16 54  1  0
 16 55  1  0
 19 56  1  0
 20 57  1  0
 22 58  1  0
 25 59  1  0
 25 60  1  0
 26 61  1  0
 26 62  1  0
 27 63  1  0
 27 64  1  0
 29 65  1  0
 29 66  1  0
 29 67  1  0
 30 68  1  0
 30 69  1  0
 30 70  1  0
 31 71  1  0
 31 72  1  0
 31 73  1  0
 32 74  1  0
 33 75  1  0
M  CHG  3   7   1  15   1  28   1
M  END
>  <UniqueID>  (5) 
5

>  <SMILES>  (5) 
CCN(C)CC[NH2+]c1c2ccccc2[n+](C)c2c1ccc1cc(OCCC[N+](C)(C)C)ccc12

>  <Energy>  (5) 
132.992526960478

>  <Genealogy>  (5) 
CCN(C)CC[NH2+]c1c2ccccc2[n+](C)c2c1ccc1cc(OCCC[N+](C)(C)C)ccc12 (protonated)
CCN(C)CC[NH2+]c1c2ccccc2[n+](C)c2c1ccc1cc(OCCC[N+](C)(C)C)ccc12 (3D coordinates assigned)
CCN(C)CC[NH2+]c1c2ccccc2[n+](C)c2c1ccc1cc(OCCC[N+](C)(C)C)ccc12 (optimized conformer: 132.992526960478 kcal/mol)

>  <smiles>  (5) 
CCN(C)CCNc1c2ccccc2[n+](C)c2c1ccc1cc(OCCC[N+](C)(C)C)ccc12

>  <score_type>  (5) 
oracle

>  <origin>  (5) 
adg

>  <m_score__min__energy>  (5) 
-4.0700000000000003

>  <m_primary>  (5) 
energy

$$$$
5:0
     RDKit          3D

 23 24  0  0  0  0  0  0  0  0999 V2000
   60.4720   28.6040   44.8700 C   0  0  0  0  0  0  0  0  0  0  0  0
   59.2180   29.0550   44.8240 C   0  0  0  0  0  0  0  0  0  0  0  0
   58.6010   29.7470   46.0080 C   0  0  0  0  0  0  0  0  0  0  0  0
   58.5080   31.1880   45.7680 N   0  0  0  0  0  0  0  0  0  0  0  0
   57.4010   31.8330   45.1300 C   0  0  0  0  0  0  0  0  0  0  0  0
   56.4840   31.2280   44.5150 O   0  0  0  0  0  0  0  0  0  0  0  0
   57.4820   33.2690   45.3150 C   0  0  0  0  0  0  0  0  0  0  0  0
   56.6790   34.1380   44.8850 O   0  0  0  0  0  0  0  0  0  0  0  0
   58.6710   33.4930   46.1170 C   0  0  0  0  0  0  0  0  0  0  0  0
   59.1970   34.6870   46.6010 C   0  0  0  0  0  0  0  0  0  0  0  0
   60.3620   34.6290   47.3790 C   0  0  0  0  0  0  0  0  0  0  0  0
   60.9710   33.3900   47.6570 C   0  0  0  0  0  0  0  0  0  0  0  0
   60.4280   32.1900   47.1630 C   0  0  0  0  0  0  0  0  0  0  0  0
   61.2560   30.6890   47.5450 Cl  0  0  0  0  0  0  0  0  0  0  0  0
   59.2560   32.2600   46.3810 C   0  0  0  0  0  0  0  0  0  0  0  0
   60.9077   28.1001   43.9947 H   0  0  0  0  0  0  0  0  0  0  0  0
   61.0708   28.7359   45.7833 H   0  0  0  0  0  0  0  0  0  0  0  0
   58.6263   28.9189   43.9067 H   0  0  0  0  0  0  0  0  0  0  0  0
   57.5924   29.3425   46.1786 H   0  0  0  0  0  0  0  0  0  0  0  0
   59.2334   29.5733   46.8911 H   0  0  0  0  0  0  0  0  0  0  0  0
   58.7124   35.6493   46.3794 H   0  0  0  0  0  0  0  0  0  0  0  0
   60.8026   35.5561   47.7743 H   0  0  0  0  0  0  0  0  0  0  0  0
   61.8844   33.3601   48.2692 H   0  0  0  0  0  0  0  0  0  0  0  0
  1  2  2  0
  2  3  1  0
  3  4  1  0
  4  5  1  0
  5  6  2  0
  5  7  1  0
  7  8  2  0
  7  9  1  0
  9 10  2  0
 10 11  1  0
 11 12  2  0
 12 13  1  0
 13 14  1  0
 13 15  2  0
 15  4  1  0
 15  9  1  0
  1 16  1  0
  1 17  1  0
  2 18  1  0
  3 19  1  0
  3 20  1  0
 10 21  1  0
 11 22  1  0
 12 23  1  0
M  END
>  <UniqueID>  (6) 
6

>  <SMILES>  (6) 
C=CCN1C(=O)C(=O)c2cccc(Cl)c21

>  <Energy>  (6) 
54.58402574458838

>  <Genealogy>  (6) 
C=CCN1C(=O)C(=O)c2cccc(Cl)c21 (3D coordinates assigned)
C=CCN1C(=O)C(=O)c2cccc(Cl)c21 (nonaromatic ring conformer: 54.58402574458838 kcal/mol)

>  <smiles>  (6) 
C=CCN1C(=O)C(=O)c2cccc(Cl)c21

>  <score_type>  (6) 
oracle

>  <origin>  (6) 
adg

>  <m_score__min__energy>  (6) 
-5.7400000000000002

>  <m_primary>  (6) 
energy

$$$$
6:0
     RDKit          3D

 78 82  0  0  0  0  0  0  0  0999 V2000
   60.3550   34.6700   46.4050 C   0  0  0  0  0  0  0  0  0  0  0  0
   59.1130   33.8760   46.0830 C   0  0  0  0  0  0  0  0  0  0  0  0
   58.0730   34.5510   45.4410 C   0  0  0  0  0  0  0  0  0  0  0  0
   57.0240   33.8400   44.8830 C   0  0  0  0  0  0  0  0  0  0  0  0
   57.0840   32.4530   44.8540 C   0  0  0  0  0  0  0  0  0  0  0  0
   58.1390   31.7730   45.4160 N   0  0  0  0  0  0  0  0  0  0  0  0
   59.0230   32.4620   46.2280 C   0  0  0  0  0  0  0  0  0  0  0  0
   59.7610   31.7400   47.2100 C   0  0  0  0  0  0  0  0  0  0  0  0
   60.2410   32.3970   48.4240 N   0  0  0  0  0  0  0  0  0  0  0  0
   61.6680   32.6570   48.4200 C   0  0  0  0  0  0  0  0  0  0  0  0
   62.3810   32.5130   47.2120 C   0  0  0  0  0  0  0  0  0  0  0  0
   63.7590   32.7240   47.1590 C   0  0  0  0  0  0  0  0  0  0  0  0
   64.4570   33.0920   48.3030 C   0  0  0  0  0  0  0  0  0  0  0  0
   63.7770   33.2990   49.5090 C   0  0  0  0  0  0  0  0  0  0  0  0
   64.4890   33.6990   50.6500 C   0  0  0  0  0  0  0  0  0  0  0  0
   63.8170   33.9530   51.8460 C   0  0  0  0  0  0  0  0  0  0  0  0
   62.4310   33.8340   51.9070 C   0  0  0  0  0  0  0  0  0  0  0  0
   61.7070   33.4360   50.7810 C   0  0  0  0  0  0  0  0  0  0  0  0
   62.3660   33.1210   49.5730 C   0  0  0  0  0  0  0  0  0  0  0  0
   59.9290   30.3470   47.0200 C   0  0  0  0  0  0  0  0  0  0  0  0
   60.7190   29.5730   47.9390 N   0  0  0  0  0  0  0  0  0  0  0  0
   60.0860   28.7070   48.9430 C   0  0  0  0  0  0  0  0  0  0  0  0
   58.8350   29.3640   49.5530 C   0  0  0  0  0  0  0  0  0  0  0  0
   59.1420   30.5620   50.3520 N   0  0  0  0  0  0  0  0  0  0  0  0
   57.9480   31.1140   51.0100 C   0  0  0  0  0  0  0  0  0  0  0  0
   58.3210   31.7110   52.3690 C   0  0  0  0  0  0  0  0  0  0  0  0
   59.7650   31.9860   52.4320 N   0  0  0  0  0  0  0  0  0  0  0  0
   60.4090   31.3370   53.5850 C   0  0  0  0  0  0  0  0  0  0  0  0
   61.7100   30.5950   53.2240 C   0  0  0  0  0  0  0  0  0  0  0  0
   61.6910   30.0260   51.8570 N   0  0  0  0  0  0  0  0  0  0  0  0
   62.9700   30.2400   51.1550 C   0  0  0  0  0  0  0  0  0  0  0  0
   61.4230   28.5800   51.9380 C   0  0  0  0  0  0  0  0  0  0  0  0
   59.3180   29.7230   45.9170 C   0  0  0  0  0  0  0  0  0  0  0  0
   59.6720   28.4120   45.5380 C   0  0  0  0  0  0  0  0  0  0  0  0
   59.0160   27.7670   44.4950 C   0  0  0  0  0  0  0  0  0  0  0  0
   58.0220   28.4310   43.7870 C   0  0  0  0  0  0  0  0  0  0  0  0
   57.7010   29.7510   44.0980 C   0  0  0  0  0  0  0  0  0  0  0  0
   58.3450   30.4310   45.1690 C   0  0  0  0  0  0  0  0  0  0  0  0
   60.4703   34.7437   47.4964 H   0  0  0  0  0  0  0  0  0  0  0  0
   61.2338   34.1658   45.9766 H   0  0  0  0  0  0  0  0  0  0  0  0
   60.2663   35.6793   45.9766 H   0  0  0  0  0  0  0  0  0  0  0  0
   58.0870   35.6491   45.3784 H   0  0  0  0  0  0  0  0  0  0  0  0
   56.1530   34.3679   44.4674 H   0  0  0  0  0  0  0  0  0  0  0  0
   56.2725   31.8876   44.3725 H   0  0  0  0  0  0  0  0  0  0  0  0
   59.6980   33.2840   48.5470 H   0  0  0  0  0  0  0  0  0  0  0  0
   60.0860   31.8170   49.2750 H   0  0  0  0  0  0  0  0  0  0  0  0
   61.8417   32.2296   46.2962 H   0  0  0  0  0  0  0  0  0  0  0  0
   64.2957   32.5985   46.2071 H   0  0  0  0  0  0  0  0  0  0  0  0
   65.5486   33.2212   48.2607 H   0  0  0  0  0  0  0  0  0  0  0  0
   65.5820   33.8128   50.6013 H   0  0  0  0  0  0  0  0  0  0  0  0
   64.3829   34.2477   52.7421 H   0  0  0  0  0  0  0  0  0  0  0  0
   61.9037   34.0546   52.8468 H   0  0  0  0  0  0  0  0  0  0  0  0
   60.6105   33.3672   50.8361 H   0  0  0  0  0  0  0  0  0  0  0  0
   61.7280   29.8220   48.0480 H   0  0  0  0  0  0  0  0  0  0  0  0
   59.7943   27.7605   48.4645 H   0  0  0  0  0  0  0  0  0  0  0  0
   60.8109   28.5325   49.7517 H   0  0  0  0  0  0  0  0  0  0  0  0
   58.1576   29.6526   48.7358 H   0  0  0  0  0  0  0  0  0  0  0  0
   58.3753   28.6282   50.2292 H   0  0  0  0  0  0  0  0  0  0  0  0
   59.8560   30.3250   51.0790 H   0  0  0  0  0  0  0  0  0  0  0  0
   57.5139   31.9001   50.3747 H   0  0  0  0  0  0  0  0  0  0  0  0
   57.2165   30.3066   51.1616 H   0  0  0  0  0  0  0  0  0  0  0  0
   57.7669   32.6498   52.5164 H   0  0  0  0  0  0  0  0  0  0  0  0
   58.0614   30.9897   53.1579 H   0  0  0  0  0  0  0  0  0  0  0  0
   60.2060   31.5810   51.5720 H   0  0  0  0  0  0  0  0  0  0  0  0
   60.6442   32.1088   54.3326 H   0  0  0  0  0  0  0  0  0  0  0  0
   59.7036   30.5856   53.9694 H   0  0  0  0  0  0  0  0  0  0  0  0
   62.5491   31.3025   53.2976 H   0  0  0  0  0  0  0  0  0  0  0  0
   61.8170   29.7566   53.9280 H   0  0  0  0  0  0  0  0  0  0  0  0
   63.7750   30.3747   51.8925 H   0  0  0  0  0  0  0  0  0  0  0  0
   63.1928   29.3666   50.5244 H   0  0  0  0  0  0  0  0  0  0  0  0
   62.8963   31.1383   50.5244 H   0  0  0  0  0  0  0  0  0  0  0  0
   61.3667   28.2761   52.9937 H   0  0  0  0  0  0  0  0  0  0  0  0
   60.4680   28.3557   51.4404 H   0  0  0  0  0  0  0  0  0  0  0  0
   62.2342   28.0283   51.4404 H   0  0  0  0  0  0  0  0  0  0  0  0
   60.4788   27.8917   46.0750 H   0  0  0  0  0  0  0  0  0  0  0  0
   59.2836   26.7332   44.2311 H   0  0  0  0  0  0  0  0  0  0  0  0
   57.4863   27.9129   42.9779 H   0  0  0  0  0  0  0  0  0  0  0  0
   56.9371   30.2758   43.5056 H   0  0  0  0  0  0  0  0  0  0  0  0
  1  2  1  0
  2  3  2  0
  3  4  1  0
  4  5  2  0
  5  6  1  0
  6  7  2  0
  7  8  1  0
  8  9  1  0
  9 10  1  0
 10 11  2  0
 11 12  1  0
 12 13  2  0
 13 14  1  0
 14 15  2  0
 15 16  1  0
 16 17  2  0
 17 18  1  0
 18 19  2  0
  8 20  2  0
 20 21  1  0
 21 22  1  0
 22 23  1  0
 23 24  1  0
 24 25  1  0
 25 26  1  0
 26 27  1  0
 27 28  1  0
 28 29  1  0
 29 30  1  0
 30 31  1  0
 30 32  1  0
 20 33  1  0
 33 34  2  0
 34 35  1  0
 35 36  2  0
 36 37  1  0
 37 38  2  0
  7  2  1  0
 19 10  1  0
 38 33  1  0
 38  6  1  0
 19 14  1  0
  1 39  1  0
  1 40  1  0
  1 41  1  0
  3 42  1  0
  4 43  1  0
  5 44  1  0
  9 45  1  0
  9 46  1  0
 11 47  1  0
 12 48  1  0
 13 49  1  0
 15 50  1  0
 16 51  1  0
 17 52  1  0
 18 53  1  0
 21 54  1  0
 22 55  1  0
 22 56  1  0
 23 57  1  0
 23 58  1  0
 24 59  1  0
 25 60  1  0
 25 61  1  0
 26 62  1  0
 26 63  1  0
 27 64  1  0
 28 65  1  0
 28 66  1  0
 29 67  1  0
 29 68  1  0
 31 69  1  0
 31 70  1  0
 31 71  1  0
 32 72  1  0
 32 73  1  0
 32 74  1  0
 34 75  1  0
 35 76  1  0
 36 77  1  0
 37 78  1  0
M  CHG  2   6   1   9   1
M  END
>  <UniqueID>  (7) 
7

>  <SMILES>  (7) 
Cc1ccc[n+]2c1c([NH2+]c1cccc3ccccc13)c(NCCNCCNCCN(C)C)c1ccccc12

>  <Energy>  (7) 
132.1612008164779

>  <Genealogy>  (7) 
Cc1ccc[n+]2c1c([NH2+]c1cccc3ccccc13)c(NCCNCCNCCN(C)C)c1ccccc12 (protonated)
Cc1ccc[n+]2c1c([NH2+]c1cccc3ccccc13)c(NCCNCCNCCN(C)C)c1ccccc12 (3D coordinates assigned)
Cc1ccc[n+]2c1c([NH2+]c1cccc3ccccc13)c(NCCNCCNCCN(C)C)c1ccccc12 (optimized conformer: 132.1612008164779 kcal/mol)

>  <smiles>  (7) 
Cc1ccc[n+]2c1c(Nc1cccc3ccccc13)c(NCCNCCNCCN(C)C)c1ccccc12

>  <score_type>  (7) 
oracle

>  <origin>  (7) 
adg

>  <m_score__min__energy>  (7) 
-6.5300000000000002

>  <m_primary>  (7) 
energy

$$$$
7:0
     RDKit          3D

 35 36  0  0  0  0  0  0  0  0999 V2000
   56.4290   30.0660   42.7110 C   0  0  0  0  0  0  0  0  0  0  0  0
   55.5290   29.8590   43.9320 C   0  0  0  0  0  0  0  0  0  0  0  0
   56.2560   29.9950   45.2040 N   0  0  0  0  0  0  0  0  0  0  0  0
   57.4680   29.1660   45.2410 C   0  0  0  0  0  0  0  0  0  0  0  0
   58.5800   29.9110   45.9920 C   0  0  0  0  0  0  0  0  0  0  0  0
   58.0670   31.0330   46.7980 N   0  0  0  0  0  0  0  0  0  0  0  0
   58.7740   32.2690   46.5170 C   0  0  0  0  0  0  0  0  0  0  0  0
   58.0430   33.3460   45.9920 C   0  0  0  0  0  0  0  0  0  0  0  0
   58.6610   34.5550   45.7080 C   0  0  0  0  0  0  0  0  0  0  0  0
   60.0200   34.7020   45.9490 C   0  0  0  0  0  0  0  0  0  0  0  0
   60.7570   33.6730   46.4670 N   0  0  0  0  0  0  0  0  0  0  0  0
   62.0920   33.8830   46.6880 C   0  0  0  0  0  0  0  0  0  0  0  0
   62.8950   32.8790   47.2210 C   0  0  0  0  0  0  0  0  0  0  0  0
   62.3310   31.6490   47.5300 C   0  0  0  0  0  0  0  0  0  0  0  0
   60.9760   31.4270   47.3040 C   0  0  0  0  0  0  0  0  0  0  0  0
   60.1690   32.4530   46.7620 C   0  0  0  0  0  0  0  0  0  0  0  0
   57.4507   30.3010   43.0442 H   0  0  0  0  0  0  0  0  0  0  0  0
   56.4428   29.1476   42.1058 H   0  0  0  0  0  0  0  0  0  0  0  0
   56.0402   30.8982   42.1058 H   0  0  0  0  0  0  0  0  0  0  0  0
   54.7230   30.6072   43.9058 H   0  0  0  0  0  0  0  0  0  0  0  0
   55.1344   28.8334   43.8833 H   0  0  0  0  0  0  0  0  0  0  0  0
   55.6270   29.7160   45.9940 H   0  0  0  0  0  0  0  0  0  0  0  0
   57.2484   28.2197   45.7571 H   0  0  0  0  0  0  0  0  0  0  0  0
   57.7987   28.9572   44.2129 H   0  0  0  0  0  0  0  0  0  0  0  0
   59.0900   29.2016   46.6603 H   0  0  0  0  0  0  0  0  0  0  0  0
   59.2675   30.3275   45.2411 H   0  0  0  0  0  0  0  0  0  0  0  0
   58.2180   30.7920   47.8060 H   0  0  0  0  0  0  0  0  0  0  0  0
   57.0320   31.1200   46.7010 H   0  0  0  0  0  0  0  0  0  0  0  0
   56.9656   33.2298   45.8032 H   0  0  0  0  0  0  0  0  0  0  0  0
   58.0781   35.3913   45.2947 H   0  0  0  0  0  0  0  0  0  0  0  0
   60.5110   35.6594   45.7202 H   0  0  0  0  0  0  0  0  0  0  0  0
   62.5358   34.8587   46.4408 H   0  0  0  0  0  0  0  0  0  0  0  0
   63.9661   33.0585   47.3957 H   0  0  0  0  0  0  0  0  0  0  0  0
   62.9557   30.8490   47.9539 H   0  0  0  0  0  0  0  0  0  0  0  0
   60.5319   30.4506   47.5478 H   0  0  0  0  0  0  0  0  0  0  0  0
  1  2  1  0
  2  3  1  0
  3  4  1  0
  4  5  1  0
  5  6  1  0
  6  7  1  0
  7  8  2  0
  8  9  1  0
  9 10  2  0
 10 11  1  0
 11 12  2  0
 12 13  1  0
 13 14  2  0
 14 15  1  0
 15 16  2  0
 16  7  1  0
 16 11  1  0
  1 17  1  0
  1 18  1  0
  1 19  1  0
  2 20  1  0
  2 21  1  0
  3 22  1  0
  4 23  1  0
  4 24  1  0
  5 25  1  0
  5 26  1  0
  6 27  1  0
  6 28  1  0
  8 29  1  0
  9 30  1  0
 10 31  1  0
 12 32  1  0
 13 33  1  0
 14 34  1  0
 15 35  1  0
M  CHG  2   6   1  11   1
M  END
>  <UniqueID>  (8) 
8

>  <SMILES>  (8) 
CCNCC[NH2+]c1ccc[n+]2ccccc12

>  <Energy>  (8) 
40.11708079890285

>  <Genealogy>  (8) 
CCNCC[NH2+]c1ccc[n+]2ccccc12 (protonated)
CCNCC[NH2+]c1ccc[n+]2ccccc12 (3D coordinates assigned)
CCNCC[NH2+]c1ccc[n+]2ccccc12 (optimized conformer: 40.11708079890285 kcal/mol)

>  <smiles>  (8) 
CCNCCNc1ccc[n+]2ccccc12

>  <score_type>  (8) 
oracle

>  <origin>  (8) 
adg

>  <m_score__min__energy>  (8) 
-3.0899999999999999

>  <m_primary>  (8) 
energy

$$$$
8:0
     RDKit          3D

 49 51  0  0  0  0  0  0  0  0999 V2000
   58.1200   33.9000   44.6240 C   0  0  0  0  0  0  0  0  0  0  0  0
   59.5900   34.2320   44.8500 C   0  0  0  0  0  0  0  0  0  0  0  0
   59.7840   34.7520   46.2110 N   0  0  0  0  0  0  0  0  0  0  0  0
   58.5710   34.5830   47.0260 C   0  0  0  0  0  0  0  0  0  0  0  0
   58.7540   33.4580   48.0560 C   0  0  0  0  0  0  0  0  0  0  0  0
   59.7990   32.4390   47.6080 C   0  0  0  0  0  0  0  0  0  0  0  0
   59.4500   31.3490   46.7520 C   0  0  0  0  0  0  0  0  0  0  0  0
   58.1300   31.1020   46.3050 C   0  0  0  0  0  0  0  0  0  0  0  0
   57.8330   30.0220   45.4650 C   0  0  0  0  0  0  0  0  0  0  0  0
   56.5000   29.8360   45.0690 O   0  0  0  0  0  0  0  0  0  0  0  0
   56.0190   30.0270   43.7430 C   0  0  0  0  0  0  0  0  0  0  0  0
   58.8650   29.1650   45.0510 C   0  0  0  0  0  0  0  0  0  0  0  0
   60.1700   29.3850   45.4820 C   0  0  0  0  0  0  0  0  0  0  0  0
   60.4680   30.4580   46.3290 C   0  0  0  0  0  0  0  0  0  0  0  0
   61.7430   30.6260   46.7430 N   0  0  0  0  0  0  0  0  0  0  0  0
   62.1110   31.6240   47.5810 C   0  0  0  0  0  0  0  0  0  0  0  0
   63.4480   31.7140   47.9750 C   0  0  0  0  0  0  0  0  0  0  0  0
   63.8700   32.7180   48.8590 C   0  0  0  0  0  0  0  0  0  0  0  0
   65.2060   32.8340   49.2740 O   0  0  0  0  0  0  0  0  0  0  0  0
   65.8260   31.9990   50.2480 C   0  0  0  0  0  0  0  0  0  0  0  0
   62.9370   33.6350   49.3570 C   0  0  0  0  0  0  0  0  0  0  0  0
   63.3900   34.6200   50.2500 O   0  0  0  0  0  0  0  0  0  0  0  0
   63.7780   34.3770   51.5990 C   0  0  0  0  0  0  0  0  0  0  0  0
   61.5880   33.5500   48.9560 C   0  0  0  0  0  0  0  0  0  0  0  0
   61.1540   32.5520   48.0530 C   0  0  0  0  0  0  0  0  0  0  0  0
   57.6163   33.7862   45.5952 H   0  0  0  0  0  0  0  0  0  0  0  0
   57.6434   34.7131   44.0568 H   0  0  0  0  0  0  0  0  0  0  0  0
   58.0392   32.9610   44.0568 H   0  0  0  0  0  0  0  0  0  0  0  0
   60.1935   33.3218   44.7182 H   0  0  0  0  0  0  0  0  0  0  0  0
   59.9037   34.9959   44.1233 H   0  0  0  0  0  0  0  0  0  0  0  0
   60.5520   34.1950   46.6550 H   0  0  0  0  0  0  0  0  0  0  0  0
   58.3584   35.5240   47.5546 H   0  0  0  0  0  0  0  0  0  0  0  0
   57.7355   34.3180   46.3614 H   0  0  0  0  0  0  0  0  0  0  0  0
   59.0746   33.8993   49.0112 H   0  0  0  0  0  0  0  0  0  0  0  0
   57.7923   32.9348   48.1632 H   0  0  0  0  0  0  0  0  0  0  0  0
   57.3195   31.7735   46.6247 H   0  0  0  0  0  0  0  0  0  0  0  0
   54.9972   30.4328   43.7785 H   0  0  0  0  0  0  0  0  0  0  0  0
   56.6755   30.7327   43.2129 H   0  0  0  0  0  0  0  0  0  0  0  0
   56.0126   29.0632   43.2129 H   0  0  0  0  0  0  0  0  0  0  0  0
   58.6419   28.3184   44.3850 H   0  0  0  0  0  0  0  0  0  0  0  0
   60.9739   28.7096   45.1539 H   0  0  0  0  0  0  0  0  0  0  0  0
   64.1787   30.9889   47.5874 H   0  0  0  0  0  0  0  0  0  0  0  0
   65.5629   32.3533   51.2556 H   0  0  0  0  0  0  0  0  0  0  0  0
   65.4758   30.9641   50.1202 H   0  0  0  0  0  0  0  0  0  0  0  0
   66.9180   32.0350   50.1202 H   0  0  0  0  0  0  0  0  0  0  0  0
   63.0455   34.8357   52.2795 H   0  0  0  0  0  0  0  0  0  0  0  0
   63.8173   33.2926   51.7796 H   0  0  0  0  0  0  0  0  0  0  0  0
   64.7707   34.8150   51.7796 H   0  0  0  0  0  0  0  0  0  0  0  0
   60.8600   34.2730   49.3527 H   0  0  0  0  0  0  0  0  0  0  0  0
  1  2  1  0
  2  3  1  0
  3  4  1  0
  4  5  1  0
  5  6  1  0
  6  7  2  0
  7  8  1  0
  8  9  2  0
  9 10  1  0
 10 11  1  0
  9 12  1  0
 12 13  2  0
 13 14  1  0
 14 15  2  0
 15 16  1  0
 16 17  2  0
 17 18  1  0
 18 19  1  0
 19 20  1  0
 18 21  2  0
 21 22  1  0
 22 23  1  0
 21 24  1  0
 24 25  2  0
 25  6  1  0
 14  7  1  0
 25 16  1  0
  1 26  1  0
  1 27  1  0
  1 28  1  0
  2 29  1  0
  2 30  1  0
  3 31  1  0
  4 32  1  0
  4 33  1  0
  5 34  1  0
  5 35  1  0
  8 36  1  0
 11 37  1  0
 11 38  1  0
 11 39  1  0
 12 40  1  0
 13 41  1  0
 17 42  1  0
 20 43  1  0
 20 44  1  0
 20 45  1  0
 23 46  1  0
 23 47  1  0
 23 48  1  0
 24 49  1  0
M  END
>  <UniqueID>  (9) 
9

>  <SMILES>  (9) 
CCNCCc1c2cc(OC)ccc2nc2cc(OC)c(OC)cc12

>  <Energy>  (9) 
56.46645931640345

>  <Genealogy>  (9) 
CCNCCc1c2cc(OC)ccc2nc2cc(OC)c(OC)cc12 (3D coordinates assigned)
CCNCCc1c2cc(OC)ccc2nc2cc(OC)c(OC)cc12 (optimized conformer: 56.46645931640345 kcal/mol)

>  <smiles>  (9) 
CCNCCc1c2cc(OC)ccc2nc2cc(OC)c(OC)cc12

>  <score_type>  (9) 
oracle

>  <origin>  (9) 
adg

>  <m_score__min__energy>  (9) 
-6.6100000000000003

>  <m_primary>  (9) 
energy

$$$$
9:0
     RDKit          3D

 53 55  0  0  0  0  0  0  0  0999 V2000
   56.6750   24.9220   46.7530 C   0  0  0  0  0  0  0  0  0  0  0  0
   57.7780   25.7220   47.4480 C   0  0  0  0  0  0  0  0  0  0  0  0
   58.0280   27.0390   46.8120 N   0  0  0  0  0  0  0  0  0  0  0  0
   57.4560   27.1640   45.4450 C   0  0  0  0  0  0  0  0  0  0  0  0
   58.4850   27.1010   44.3090 C   0  0  0  0  0  0  0  0  0  0  0  0
   59.4730   27.3640   46.8950 C   0  0  0  0  0  0  0  0  0  0  0  0
   59.7650   28.8660   47.0290 C   0  0  0  0  0  0  0  0  0  0  0  0
   58.5380   29.6580   47.1500 N   0  0  0  0  0  0  0  0  0  0  0  0
   58.4720   31.0050   46.6480 C   0  0  0  0  0  0  0  0  0  0  0  0
   58.0440   31.2250   45.3250 C   0  0  0  0  0  0  0  0  0  0  0  0
   57.4090   30.1960   44.5960 C   0  0  0  0  0  0  0  0  0  0  0  0
   57.0360   30.3840   43.2640 C   0  0  0  0  0  0  0  0  0  0  0  0
   56.4000   29.3290   42.5370 N   0  0  0  0  0  0  0  0  0  0  0  0
   57.3030   31.6020   42.6410 C   0  0  0  0  0  0  0  0  0  0  0  0
   57.9090   32.6380   43.3500 C   0  0  0  0  0  0  0  0  0  0  0  0
   58.2570   32.4880   44.7180 C   0  0  0  0  0  0  0  0  0  0  0  0
   58.8270   33.5190   45.4400 N   0  0  0  0  0  0  0  0  0  0  0  0
   58.8500   34.8890   44.8790 C   0  0  0  0  0  0  0  0  0  0  0  0
   59.3330   33.2830   46.7040 C   0  0  0  0  0  0  0  0  0  0  0  0
   60.1800   34.2210   47.3470 C   0  0  0  0  0  0  0  0  0  0  0  0
   60.6130   34.0220   48.6540 C   0  0  0  0  0  0  0  0  0  0  0  0
   60.1780   32.9160   49.3700 C   0  0  0  0  0  0  0  0  0  0  0  0
   59.3630   31.9540   48.7670 C   0  0  0  0  0  0  0  0  0  0  0  0
   58.7800   30.9480   49.6070 N   0  0  0  0  0  0  0  0  0  0  0  0
   59.0370   32.0690   47.3850 C   0  0  0  0  0  0  0  0  0  0  0  0
   56.0291   24.4536   47.5102 H   0  0  0  0  0  0  0  0  0  0  0  0
   56.0740   25.5956   46.1245 H   0  0  0  0  0  0  0  0  0  0  0  0
   57.1286   24.1415   46.1245 H   0  0  0  0  0  0  0  0  0  0  0  0
   57.4837   25.8885   48.4947 H   0  0  0  0  0  0  0  0  0  0  0  0
   58.7068   25.1377   47.3704 H   0  0  0  0  0  0  0  0  0  0  0  0
   56.7351   26.3460   45.2995 H   0  0  0  0  0  0  0  0  0  0  0  0
   56.9964   28.1620   45.3916 H   0  0  0  0  0  0  0  0  0  0  0  0
   59.4975   27.0390   44.7344 H   0  0  0  0  0  0  0  0  0  0  0  0
   58.2928   26.2129   43.6890 H   0  0  0  0  0  0  0  0  0  0  0  0
   58.4026   28.0059   43.6890 H   0  0  0  0  0  0  0  0  0  0  0  0
   59.8942   26.8495   47.7713 H   0  0  0  0  0  0  0  0  0  0  0  0
   59.9302   27.0322   45.9512 H   0  0  0  0  0  0  0  0  0  0  0  0
   60.3819   29.0287   47.9251 H   0  0  0  0  0  0  0  0  0  0  0  0
   60.2895   29.1914   46.1185 H   0  0  0  0  0  0  0  0  0  0  0  0
   57.6420   29.1420   47.3020 H   0  0  0  0  0  0  0  0  0  0  0  0
   57.2052   29.2319   45.0849 H   0  0  0  0  0  0  0  0  0  0  0  0
   55.7050   29.5400   41.7860 H   0  0  0  0  0  0  0  0  0  0  0  0
   56.6200   28.3290   42.7430 H   0  0  0  0  0  0  0  0  0  0  0  0
   57.0341   31.7465   41.5842 H   0  0  0  0  0  0  0  0  0  0  0  0
   58.1214   33.5892   42.8400 H   0  0  0  0  0  0  0  0  0  0  0  0
   58.8623   35.6212   45.6998 H   0  0  0  0  0  0  0  0  0  0  0  0
   59.7504   35.0168   44.2602 H   0  0  0  0  0  0  0  0  0  0  0  0
   57.9544   35.0469   44.2602 H   0  0  0  0  0  0  0  0  0  0  0  0
   60.5003   35.1217   46.8028 H   0  0  0  0  0  0  0  0  0  0  0  0
   61.3011   34.7424   49.1204 H   0  0  0  0  0  0  0  0  0  0  0  0
   60.4773   32.7952   50.4216 H   0  0  0  0  0  0  0  0  0  0  0  0
   58.8480   29.9390   49.3510 H   0  0  0  0  0  0  0  0  0  0  0  0
   58.5120   31.1650   50.5910 H   0  0  0  0  0  0  0  0  0  0  0  0
  1  2  1  0
  2  3  1  0
  3  4  1  0
  4  5  1  0
  3  6  1  0
  6  7  1  0
  7  8  1  0
  8  9  1  0
  9 10  2  0
 10 11  1  0
 11 12  2  0
 12 13  1  0
 12 14  1  0
 14 15  2  0
 15 16  1  0
 16 17  2  0
 17 18  1  0
 17 19  1  0
 19 20  2  0
 20 21  1  0
 21 22  2  0
 22 23  1  0
 23 24  1  0
 23 25  2  0
 25  9  1  0
 16 10  1  0
 25 19  1  0
  1 26  1  0
  1 27  1  0
  1 28  1  0
  2 29  1  0
  2 30  1  0
  4 31  1  0
  4 32  1  0
  5 33  1  0
  5 34  1  0
  5 35  1  0
  6 36  1  0
  6 37  1  0
  7 38  1  0
  7 39  1  0
  8 40  1  0
 11 41  1  0
 13 42  1  0
 13 43  1  0
 14 44  1  0
 15 45  1  0
 18 46  1  0
 18 47  1  0
 18 48  1  0
 20 49  1  0
 21 50  1  0
 22 51  1  0
 24 52  1  0
 24 53  1  0
M  CHG  1  17   1
M  END
>  <UniqueID>  (10) 
10

>  <SMILES>  (10) 
CCN(CC)CCNc1c2cc(N)ccc2[n+](C)c2cccc(N)c12

>  <Energy>  (10) 
88.86527191052846

>  <Genealogy>  (10) 
CCN(CC)CCNc1c2cc(N)ccc2[n+](C)c2cccc(N)c12 (3D coordinates assigned)
CCN(CC)CCNc1c2cc(N)ccc2[n+](C)c2cccc(N)c12 (optimized conformer: 88.86527191052846 kcal/mol)

>  <smiles>  (10) 
CCN(CC)CCNc1c2cc(N)ccc2[n+](C)c2cccc(N)c12

>  <score_type>  (10) 
oracle

>  <origin>  (10) 
adg

>  <m_score__min__energy>  (10) 
-5.3200000000000003

>  <m_primary>  (10) 
energy

$$$$
10:0
     RDKit          3D

 73 75  0  0  0  0  0  0  0  0999 V2000
   62.3730   34.4220   49.5960 C   0  0  0  0  0  0  0  0  0  0  0  0
   62.5620   33.0130   50.1470 C   0  0  0  0  0  0  0  0  0  0  0  0
   62.4200   32.0280   49.0490 N   0  0  0  0  0  0  0  0  0  0  0  0
   63.6180   31.9700   48.1800 C   0  0  0  0  0  0  0  0  0  0  0  0
   63.5190   32.9390   46.9980 C   0  0  0  0  0  0  0  0  0  0  0  0
   61.9240   30.7120   49.5240 C   0  0  0  0  0  0  0  0  0  0  0  0
   60.8790   30.0530   48.5970 C   0  0  0  0  0  0  0  0  0  0  0  0
   60.8620   30.7060   47.2900 N   0  0  0  0  0  0  0  0  0  0  0  0
   59.6820   30.6790   46.4710 C   0  0  0  0  0  0  0  0  0  0  0  0
   59.3350   29.4950   45.8020 C   0  0  0  0  0  0  0  0  0  0  0  0
   59.9460   28.2680   46.1440 C   0  0  0  0  0  0  0  0  0  0  0  0
   59.5690   27.0870   45.5120 C   0  0  0  0  0  0  0  0  0  0  0  0
   58.5740   27.1050   44.5400 C   0  0  0  0  0  0  0  0  0  0  0  0
   57.9690   28.3080   44.1770 C   0  0  0  0  0  0  0  0  0  0  0  0
   58.3600   29.5340   44.7750 C   0  0  0  0  0  0  0  0  0  0  0  0
   57.8320   30.7440   44.3730 N   0  0  0  0  0  0  0  0  0  0  0  0
   57.0910   30.8370   43.0920 C   0  0  0  0  0  0  0  0  0  0  0  0
   58.0070   31.8700   45.1580 C   0  0  0  0  0  0  0  0  0  0  0  0
   57.2810   33.0620   44.9060 C   0  0  0  0  0  0  0  0  0  0  0  0
   57.4850   34.2050   45.6670 C   0  0  0  0  0  0  0  0  0  0  0  0
   58.3640   34.1860   46.7390 C   0  0  0  0  0  0  0  0  0  0  0  0
   59.0610   33.0150   47.0720 C   0  0  0  0  0  0  0  0  0  0  0  0
   59.7670   32.9710   48.3250 N   0  0  0  0  0  0  0  0  0  0  0  0
   59.1030   33.1330   49.6180 C   0  0  0  0  0  0  0  0  0  0  0  0
   58.6240   31.7760   50.1450 C   0  0  0  0  0  0  0  0  0  0  0  0
   57.7500   31.9270   51.3940 C   0  0  0  0  0  0  0  0  0  0  0  0
   56.5470   31.0820   51.2700 N   0  0  0  0  0  0  0  0  0  0  0  0
   56.3090   30.2440   52.4570 C   0  0  0  0  0  0  0  0  0  0  0  0
   54.8550   30.3470   52.9480 C   0  0  0  0  0  0  0  0  0  0  0  0
   53.8670   29.9940   51.8300 C   0  0  0  0  0  0  0  0  0  0  0  0
   53.6120   31.1670   51.0020 N   0  0  0  0  0  0  0  0  0  0  0  0
   58.9230   31.8530   46.2520 C   0  0  0  0  0  0  0  0  0  0  0  0
   62.2777   35.1323   50.4305 H   0  0  0  0  0  0  0  0  0  0  0  0
   63.2426   34.6945   48.9800 H   0  0  0  0  0  0  0  0  0  0  0  0
   61.4623   34.4557   48.9800 H   0  0  0  0  0  0  0  0  0  0  0  0
   63.5646   32.9247   50.5909 H   0  0  0  0  0  0  0  0  0  0  0  0
   61.8007   32.8158   50.9161 H   0  0  0  0  0  0  0  0  0  0  0  0
   64.5035   32.2299   48.7786 H   0  0  0  0  0  0  0  0  0  0  0  0
   63.6950   30.9496   47.7764 H   0  0  0  0  0  0  0  0  0  0  0  0
   63.4140   33.9672   47.3746 H   0  0  0  0  0  0  0  0  0  0  0  0
   64.4295   32.8642   46.3853 H   0  0  0  0  0  0  0  0  0  0  0  0
   62.6425   32.6816   46.3853 H   0  0  0  0  0  0  0  0  0  0  0  0
   62.7837   30.0315   49.6122 H   0  0  0  0  0  0  0  0  0  0  0  0
   61.4214   30.8937   50.4854 H   0  0  0  0  0  0  0  0  0  0  0  0
   61.1316   28.9904   48.4663 H   0  0  0  0  0  0  0  0  0  0  0  0
   59.8847   30.1557   49.0562 H   0  0  0  0  0  0  0  0  0  0  0  0
   61.6010   31.4170   47.0820 H   0  0  0  0  0  0  0  0  0  0  0  0
   60.7276   28.2460   46.9177 H   0  0  0  0  0  0  0  0  0  0  0  0
   60.0578   26.1390   45.7810 H   0  0  0  0  0  0  0  0  0  0  0  0
   58.2634   26.1673   44.0561 H   0  0  0  0  0  0  0  0  0  0  0  0
   57.1759   28.3064   43.4148 H   0  0  0  0  0  0  0  0  0  0  0  0
   56.0188   30.9716   43.2976 H   0  0  0  0  0  0  0  0  0  0  0  0
   57.4641   31.6954   42.5141 H   0  0  0  0  0  0  0  0  0  0  0  0
   57.2404   29.9131   42.5141 H   0  0  0  0  0  0  0  0  0  0  0  0
   56.5418   33.0812   44.0916 H   0  0  0  0  0  0  0  0  0  0  0  0
   56.9461   35.1311   45.4180 H   0  0  0  0  0  0  0  0  0  0  0  0
   58.5164   35.0983   47.3344 H   0  0  0  0  0  0  0  0  0  0  0  0
   60.7350   32.5750   48.3180 H   0  0  0  0  0  0  0  0  0  0  0  0
   59.8108   33.5718   50.3367 H   0  0  0  0  0  0  0  0  0  0  0  0
   58.2334   33.7948   49.4926 H   0  0  0  0  0  0  0  0  0  0  0  0
   58.0390   31.2753   49.3595 H   0  0  0  0  0  0  0  0  0  0  0  0
   59.5096   31.1830   50.4171 H   0  0  0  0  0  0  0  0  0  0  0  0
   58.3235   31.6174   52.2801 H   0  0  0  0  0  0  0  0  0  0  0  0
   57.4448   32.9787   51.4976 H   0  0  0  0  0  0  0  0  0  0  0  0
   55.7090   31.6870   51.0930 H   0  0  0  0  0  0  0  0  0  0  0  0
   56.5251   29.1960   52.2019 H   0  0  0  0  0  0  0  0  0  0  0  0
   56.9676   30.5991   53.2633 H   0  0  0  0  0  0  0  0  0  0  0  0
   54.7097   29.6520   53.7881 H   0  0  0  0  0  0  0  0  0  0  0  0
   54.6667   31.3832   53.2655 H   0  0  0  0  0  0  0  0  0  0  0  0
   54.2926   29.1936   51.2069 H   0  0  0  0  0  0  0  0  0  0  0  0
   52.9210   29.6549   52.2774 H   0  0  0  0  0  0  0  0  0  0  0  0
   54.4500   31.7900   51.0570 H   0  0  0  0  0  0  0  0  0  0  0  0
   53.5360   30.8550   50.0060 H   0  0  0  0  0  0  0  0  0  0  0  0
  1  2  1  0
  2  3  1  0
  3  4  1  0
  4  5  1  0
  3  6  1  0
  6  7  1  0
  7  8  1  0
  8  9  1  0
  9 10  2  0
 10 11  1  0
 11 12  2  0
 12 13  1  0
 13 14  2  0
 14 15  1  0
 15 16  2  0
 16 17  1  0
 16 18  1  0
 18 19  2  0
 19 20  1  0
 20 21  2  0
 21 22  1  0
 22 23  1  0
 23 24  1  0
 24 25  1  0
 25 26  1  0
 26 27  1  0
 27 28  1  0
 28 29  1  0
 29 30  1  0
 30 31  1  0
 22 32  2  0
 32  9  1  0
 15 10  1  0
 32 18  1  0
  1 33  1  0
  1 34  1  0
  1 35  1  0
  2 36  1  0
  2 37  1  0
  4 38  1  0
  4 39  1  0
  5 40  1  0
  5 41  1  0
  5 42  1  0
  6 43  1  0
  6 44  1  0
  7 45  1  0
  7 46  1  0
  8 47  1  0
 11 48  1  0
 12 49  1  0
 13 50  1  0
 14 51  1  0
 17 52  1  0
 17 53  1  0
 17 54  1  0
 19 55  1  0
 20 56  1  0
 21 57  1  0
 23 58  1  0
 24 59  1  0
 24 60  1  0
 25 61  1  0
 25 62  1  0
 26 63  1  0
 26 64  1  0
 27 65  1  0
 28 66  1  0
 28 67  1  0
 29 68  1  0
 29 69  1  0
 30 70  1  0
 30 71  1  0
 31 72  1  0
 31 73  1  0
M  CHG  1  16   1
M  END
>  <UniqueID>  (11) 
11

>  <SMILES>  (11) 
CCN(CC)CCNc1c2ccccc2[n+](C)c2cccc(NCCCNCCCN)c12

>  <Energy>  (11) 
98.34840619199424

>  <Genealogy>  (11) 
CCN(CC)CCNc1c2ccccc2[n+](C)c2cccc(NCCCNCCCN)c12 (3D coordinates assigned)
CCN(CC)CCNc1c2ccccc2[n+](C)c2cccc(NCCCNCCCN)c12 (optimized conformer: 98.34840619199424 kcal/mol)

>  <smiles>  (11) 
CCN(CC)CCNc1c2ccccc2[n+](C)c2cccc(NCCCNCCCN)c12

>  <score_type>  (11) 
oracle

>  <origin>  (11) 
adg

>  <m_score__min__energy>  (11) 
-6.4500000000000002

>  <m_primary>  (11) 
energy

$$$$
11:0
     RDKit          3D

 64 67  0  0  0  0  0  0  0  0999 V2000
   59.2490   33.1870   51.6990 C   0  0  0  0  0  0  0  0  0  0  0  0
   58.0350   32.3450   51.3300 C   0  0  0  0  0  0  0  0  0  0  0  0
   58.3170   31.5430   50.1320 N   0  0  0  0  0  0  0  0  0  0  0  0
   59.5240   30.7120   50.2910 C   0  0  0  0  0  0  0  0  0  0  0  0
   59.7910   29.7760   49.0970 C   0  0  0  0  0  0  0  0  0  0  0  0
   60.1060   30.5260   47.8710 N   0  0  0  0  0  0  0  0  0  0  0  0
   59.1990   30.5550   46.7530 C   0  0  0  0  0  0  0  0  0  0  0  0
   58.9940   29.3680   46.0100 C   0  0  0  0  0  0  0  0  0  0  0  0
   59.7160   28.1870   46.3000 C   0  0  0  0  0  0  0  0  0  0  0  0
   59.4690   27.0070   45.6040 C   0  0  0  0  0  0  0  0  0  0  0  0
   58.5350   26.9880   44.5770 C   0  0  0  0  0  0  0  0  0  0  0  0
   57.8650   28.1560   44.2190 C   0  0  0  0  0  0  0  0  0  0  0  0
   58.0870   29.3700   44.9180 C   0  0  0  0  0  0  0  0  0  0  0  0
   57.5050   30.5490   44.5140 N   0  0  0  0  0  0  0  0  0  0  0  0
   56.3980   30.5400   43.5350 C   0  0  0  0  0  0  0  0  0  0  0  0
   57.9660   31.7470   45.0150 C   0  0  0  0  0  0  0  0  0  0  0  0
   57.7790   32.9490   44.2960 C   0  0  0  0  0  0  0  0  0  0  0  0
   58.2370   34.1590   44.7950 C   0  0  0  0  0  0  0  0  0  0  0  0
   58.7750   34.2240   46.0700 C   0  0  0  0  0  0  0  0  0  0  0  0
   58.8920   33.0690   46.8640 C   0  0  0  0  0  0  0  0  0  0  0  0
   59.0550   33.2520   48.2950 N   0  0  0  0  0  0  0  0  0  0  0  0
   59.7240   34.5260   48.6370 C   0  0  0  0  0  0  0  0  0  0  0  0
   61.2310   34.3600   48.9330 C   0  0  0  0  0  0  0  0  0  0  0  0
   61.7190   33.0300   48.4970 N   0  0  0  0  0  0  0  0  0  0  0  0
   62.1940   33.0620   47.1050 C   0  0  0  0  0  0  0  0  0  0  0  0
   63.6940   33.3350   47.1250 C   0  0  0  0  0  0  0  0  0  0  0  0
   64.1330   33.0800   48.5560 C   0  0  0  0  0  0  0  0  0  0  0  0
   62.8850   32.5980   49.2810 C   0  0  0  0  0  0  0  0  0  0  0  0
   58.6810   31.7850   46.2490 C   0  0  0  0  0  0  0  0  0  0  0  0
   59.3348   33.2465   52.7940 H   0  0  0  0  0  0  0  0  0  0  0  0
   60.1564   32.7233   51.2848 H   0  0  0  0  0  0  0  0  0  0  0  0
   59.1327   34.1994   51.2848 H   0  0  0  0  0  0  0  0  0  0  0  0
   57.7906   31.6741   52.1668 H   0  0  0  0  0  0  0  0  0  0  0  0
   57.1857   33.0126   51.1224 H   0  0  0  0  0  0  0  0  0  0  0  0
   57.4920   30.9400   49.9150 H   0  0  0  0  0  0  0  0  0  0  0  0
   60.3912   31.3780   50.4113 H   0  0  0  0  0  0  0  0  0  0  0  0
   59.3615   30.0729   51.1714 H   0  0  0  0  0  0  0  0  0  0  0  0
   60.6405   29.1214   49.3415 H   0  0  0  0  0  0  0  0  0  0  0  0
   58.8785   29.1899   48.9129 H   0  0  0  0  0  0  0  0  0  0  0  0
   60.9620   31.1250   47.8210 H   0  0  0  0  0  0  0  0  0  0  0  0
   60.4842   28.2011   47.0872 H   0  0  0  0  0  0  0  0  0  0  0  0
   60.0143   26.0889   45.8680 H   0  0  0  0  0  0  0  0  0  0  0  0
   58.3235   26.0488   44.0448 H   0  0  0  0  0  0  0  0  0  0  0  0
   57.1526   28.1363   43.3811 H   0  0  0  0  0  0  0  0  0  0  0  0
   55.4363   30.5322   44.0690 H   0  0  0  0  0  0  0  0  0  0  0  0
   56.4595   31.4387   42.9037 H   0  0  0  0  0  0  0  0  0  0  0  0
   56.4741   29.6424   42.9037 H   0  0  0  0  0  0  0  0  0  0  0  0
   57.2621   32.9245   43.3253 H   0  0  0  0  0  0  0  0  0  0  0  0
   58.1731   35.0676   44.1782 H   0  0  0  0  0  0  0  0  0  0  0  0
   59.1152   35.1919   46.4667 H   0  0  0  0  0  0  0  0  0  0  0  0
   58.1520   33.2770   48.7960 H   0  0  0  0  0  0  0  0  0  0  0  0
   59.6180   32.4560   48.6760 H   0  0  0  0  0  0  0  0  0  0  0  0
   59.6079   35.2201   47.7916 H   0  0  0  0  0  0  0  0  0  0  0  0
   59.2505   34.9089   49.5531 H   0  0  0  0  0  0  0  0  0  0  0  0
   61.7902   35.1409   48.3969 H   0  0  0  0  0  0  0  0  0  0  0  0
   61.3849   34.4491   50.0185 H   0  0  0  0  0  0  0  0  0  0  0  0
   61.9972   32.0940   46.6211 H   0  0  0  0  0  0  0  0  0  0  0  0
   61.6702   33.8475   46.5405 H   0  0  0  0  0  0  0  0  0  0  0  0
   64.2176   32.6565   46.4354 H   0  0  0  0  0  0  0  0  0  0  0  0
   63.9267   34.3608   46.8031 H   0  0  0  0  0  0  0  0  0  0  0  0
   64.9176   32.3097   48.5865 H   0  0  0  0  0  0  0  0  0  0  0  0
   64.5541   33.9830   49.0221 H   0  0  0  0  0  0  0  0  0  0  0  0
   62.8978   31.5009   49.3603 H   0  0  0  0  0  0  0  0  0  0  0  0
   62.8432   33.0171   50.2972 H   0  0  0  0  0  0  0  0  0  0  0  0
  1  2  1  0
  2  3  1  0
  3  4  1  0
  4  5  1  0
  5  6  1  0
  6  7  1  0
  7  8  2  0
  8  9  1  0
  9 10  2  0
 10 11  1  0
 11 12  2  0
 12 13  1  0
 13 14  2  0
 14 15  1  0
 14 16  1  0
 16 17  2  0
 17 18  1  0
 18 19  2  0
 19 20  1  0
 20 21  1  0
 21 22  1  0
 22 23  1  0
 23 24  1  0
 24 25  1  0
 25 26  1  0
 26 27  1  0
 27 28  1  0
 20 29  2  0
 29  7  1  0
 13  8  1  0
 29 16  1  0
 28 24  1  0
  1 30  1  0
  1 31  1  0
  1 32  1  0
  2 33  1  0
  2 34  1  0
  3 35  1  0
  4 36  1  0
  4 37  1  0
  5 38  1  0
  5 39  1  0
  6 40  1  0
  9 41  1  0
 10 42  1  0
 11 43  1  0
 12 44  1  0
 15 45  1  0
 15 46  1  0
 15 47  1  0
 17 48  1  0
 18 49  1  0
 19 50  1  0
 21 51  1  0
 21 52  1  0
 22 53  1  0
 22 54  1  0
 23 55  1  0
 23 56  1  0
 25 57  1  0
 25 58  1  0
 26 59  1  0
 26 60  1  0
 27 61  1  0
 27 62  1  0
 28 63  1  0
 28 64  1  0
M  CHG  2  14   1  21   1
M  END
>  <UniqueID>  (12) 
12

>  <SMILES>  (12) 
CCNCCNc1c2ccccc2[n+](C)c2cccc([NH2+]CCN3CCCC3)c12

>  <Energy>  (12) 
105.86912603559284

>  <Genealogy>  (12) 
CCNCCNc1c2ccccc2[n+](C)c2cccc([NH2+]CCN3CCCC3)c12 (protonated)
CCNCCNc1c2ccccc2[n+](C)c2cccc([NH2+]CCN3CCCC3)c12 (3D coordinates assigned)
CCNCCNc1c2ccccc2[n+](C)c2cccc([NH2+]CCN3CCCC3)c12 (nonaromatic ring conformer: 105.86912603559284 kcal/mol)

>  <smiles>  (12) 
CCNCCNc1c2ccccc2[n+](C)c2cccc(NCCN3CCCC3)c12

>  <score_type>  (12) 
oracle

>  <origin>  (12) 
adg

>  <m_score__min__energy>  (12) 
-4.2199999999999998

>  <m_primary>  (12) 
energy

$$$$
12:0
     RDKit          3D

 43 45  0  0  1  0  0  0  0  0999 V2000
   56.4920   29.6380   42.7140 C   0  0  0  0  0  0  0  0  0  0  0  0
   55.7930   29.7840   44.0700 C   0  0  0  0  0  0  0  0  0  0  0  0
   56.2510   31.0400   44.6380 N   0  0  0  0  0  0  0  0  0  0  0  0
   57.3730   31.0820   45.2480 C   0  0  0  0  0  0  0  0  0  0  0  0
   57.8090   29.9540   45.8370 N   0  0  0  0  0  0  0  0  0  0  0  0
   59.0030   29.9600   46.5000 C   0  0  0  0  0  0  0  0  0  0  0  0
   59.4300   28.7460   47.1100 N   0  0  0  0  0  0  0  0  0  0  0  0
   59.5310   28.7120   48.5580 C   0  0  0  0  0  0  0  0  0  0  0  0
   60.3160   27.4930   48.9370 C   0  0  0  0  0  0  0  0  0  0  0  0
   59.6860   26.3950   48.3450 O   0  0  0  0  0  0  0  0  0  0  0  0
   59.9320   26.3410   46.9830 C   0  0  0  0  0  0  0  0  0  0  0  0
   59.7390   27.6160   46.2620 C   0  0  0  0  0  0  0  0  0  0  0  0
   59.7530   31.0830   46.5700 N   0  0  0  0  0  0  0  0  0  0  0  0
   59.3630   32.2350   45.9980 C   0  0  0  0  0  0  0  0  0  0  0  0
   58.1520   32.2150   45.3310 C   0  0  0  0  0  0  0  0  0  0  0  0
   57.4970   33.3410   44.6210 C   0  0  0  0  0  0  0  0  0  0  0  0
   57.5720   34.6250   45.4140 C   0  0  0  0  0  0  0  0  0  0  0  0
   58.8950   35.1780   45.4480 N   0  0  0  0  0  0  0  0  0  0  0  0
   59.7440   34.6610   46.4820 C   0  0  0  0  0  0  0  0  0  0  0  0
   60.3320   33.3220   46.2010 C   0  0  0  0  0  0  0  0  0  0  0  0
   57.5575   29.4155   42.8728 H   0  0  0  0  0  0  0  0  0  0  0  0
   56.0265   28.8177   42.1480 H   0  0  0  0  0  0  0  0  0  0  0  0
   56.3938   30.5760   42.1480 H   0  0  0  0  0  0  0  0  0  0  0  0
   54.7016   29.8040   43.9345 H   0  0  0  0  0  0  0  0  0  0  0  0
   56.0301   28.9384   44.7324 H   0  0  0  0  0  0  0  0  0  0  0  0
   60.0460   29.6149   48.9179 H   0  0  0  0  0  0  0  0  0  0  0  0
   58.5292   28.6785   49.0111 H   0  0  0  0  0  0  0  0  0  0  0  0
   61.3484   27.5796   48.5673 H   0  0  0  0  0  0  0  0  0  0  0  0
   60.3550   27.3781   50.0303 H   0  0  0  0  0  0  0  0  0  0  0  0
   60.9742   26.0210   46.8370 H   0  0  0  0  0  0  0  0  0  0  0  0
   59.1963   25.6377   46.5657 H   0  0  0  0  0  0  0  0  0  0  0  0
   60.6642   27.8426   45.7119 H   0  0  0  0  0  0  0  0  0  0  0  0
   58.8696   27.4734   45.6034 H   0  0  0  0  0  0  0  0  0  0  0  0
   60.6660   31.0990   47.0720 H   0  0  0  0  0  0  0  0  0  0  0  0
   57.9976   33.4908   43.6530 H   0  0  0  0  0  0  0  0  0  0  0  0
   56.4358   33.0865   44.4826 H   0  0  0  0  0  0  0  0  0  0  0  0
   56.8945   35.3611   44.9567 H   0  0  0  0  0  0  0  0  0  0  0  0
   57.2819   34.3935   46.4495 H   0  0  0  0  0  0  0  0  0  0  0  0
   59.3480   34.9010   44.5260 H   0  0  0  0  0  0  0  0  0  0  0  0
   60.5699   35.3718   46.6330 H   0  0  0  0  0  0  0  0  0  0  0  0
   59.1071   34.5374   47.3703 H   0  0  0  0  0  0  0  0  0  0  0  0
   60.9439   33.4049   45.2907 H   0  0  0  0  0  0  0  0  0  0  0  0
   60.9069   33.0503   47.0986 H   0  0  0  0  0  0  0  0  0  0  0  0
  1  2  1  0
  2  3  1  0
  3  4  2  0
  4  5  1  0
  5  6  2  0
  6  7  1  0
  7  8  1  0
  8  9  1  0
  9 10  1  0
 10 11  1  0
 11 12  1  0
  6 13  1  0
 13 14  1  0
 14 15  2  0
 15 16  1  0
 16 17  1  0
 17 18  1  0
 18 19  1  0
 19 20  1  0
 15  4  1  0
 12  7  1  0
 20 14  1  0
  1 21  1  0
  1 22  1  0
  1 23  1  0
  2 24  1  0
  2 25  1  0
  8 26  1  0
  8 27  1  0
  9 28  1  0
  9 29  1  0
 11 30  1  0
 11 31  1  0
 12 32  1  0
 12 33  1  0
 13 34  1  0
 16 35  1  0
 16 36  1  0
 17 37  1  0
 17 38  1  0
 18 39  1  0
 19 40  1  0
 19 41  1  0
 20 42  1  0
 20 43  1  0
M  END
>  <smiles>  (13) 
CCN=c1nc(N2CCOCC2)[nH]c2c1CCNCC2

>  <score_type>  (13) 
oracle

>  <origin>  (13) 
adg

>  <m_score__min__energy>  (13) 
-5.1399999999999997

>  <m_primary>  (13) 
energy

$$$$
13:0
     RDKit          3D

 38 40  0  0  0  0  0  0  0  0999 V2000
   62.0350   33.8440   46.8310 C   0  0  0  0  0  0  0  0  0  0  0  0
   60.6510   33.3080   47.0440 C   0  0  0  0  0  0  0  0  0  0  0  0
   59.7460   33.2620   45.9790 C   0  0  0  0  0  0  0  0  0  0  0  0
   58.4450   32.8100   46.2190 C   0  0  0  0  0  0  0  0  0  0  0  0
   57.4180   32.8050   45.1220 C   0  0  0  0  0  0  0  0  0  0  0  0
   57.6810   31.6840   44.1060 C   0  0  0  0  0  0  0  0  0  0  0  0
   57.4150   30.3170   44.6960 C   0  0  0  0  0  0  0  0  0  0  0  0
   58.4910   29.5330   45.1370 C   0  0  0  0  0  0  0  0  0  0  0  0
   58.2660   28.2430   45.6340 C   0  0  0  0  0  0  0  0  0  0  0  0
   59.3250   27.4390   46.0800 C   0  0  0  0  0  0  0  0  0  0  0  0
   59.0680   26.1540   46.5690 C   0  0  0  0  0  0  0  0  0  0  0  0
   57.7570   25.6670   46.6150 C   0  0  0  0  0  0  0  0  0  0  0  0
   56.6960   26.4630   46.1710 C   0  0  0  0  0  0  0  0  0  0  0  0
   56.9450   27.7500   45.6790 C   0  0  0  0  0  0  0  0  0  0  0  0
   55.9160   28.5230   45.2430 N   0  0  0  0  0  0  0  0  0  0  0  0
   56.1130   29.7770   44.7550 C   0  0  0  0  0  0  0  0  0  0  0  0
   55.1220   30.4410   44.3520 O   0  0  0  0  0  0  0  0  0  0  0  0
   58.0860   32.4430   47.4780 N   0  0  0  0  0  0  0  0  0  0  0  0
   58.9730   32.4890   48.5060 C   0  0  0  0  0  0  0  0  0  0  0  0
   58.5310   32.1060   49.8830 C   0  0  0  0  0  0  0  0  0  0  0  0
   60.2420   32.9340   48.2900 N   0  0  0  0  0  0  0  0  0  0  0  0
   62.5108   34.0283   47.8055 H   0  0  0  0  0  0  0  0  0  0  0  0
   62.6291   33.1109   46.2656 H   0  0  0  0  0  0  0  0  0  0  0  0
   61.9804   34.7860   46.2656 H   0  0  0  0  0  0  0  0  0  0  0  0
   60.0523   33.5759   44.9702 H   0  0  0  0  0  0  0  0  0  0  0  0
   56.4223   32.6580   45.5659 H   0  0  0  0  0  0  0  0  0  0  0  0
   57.4745   33.7682   44.5937 H   0  0  0  0  0  0  0  0  0  0  0  0
   57.0237   31.8304   43.2363 H   0  0  0  0  0  0  0  0  0  0  0  0
   58.7404   31.7297   43.8133 H   0  0  0  0  0  0  0  0  0  0  0  0
   59.5149   29.9325   45.0924 H   0  0  0  0  0  0  0  0  0  0  0  0
   60.3568   27.8186   46.0453 H   0  0  0  0  0  0  0  0  0  0  0  0
   59.8993   25.5241   46.9186 H   0  0  0  0  0  0  0  0  0  0  0  0
   57.5604   24.6560   47.0012 H   0  0  0  0  0  0  0  0  0  0  0  0
   55.6663   26.0780   46.2083 H   0  0  0  0  0  0  0  0  0  0  0  0
   59.1441   32.6372   50.6259 H   0  0  0  0  0  0  0  0  0  0  0  0
   57.4738   32.3783   50.0178 H   0  0  0  0  0  0  0  0  0  0  0  0
   58.6501   31.0208   50.0178 H   0  0  0  0  0  0  0  0  0  0  0  0
   60.9090   32.9930   49.0930 H   0  0  0  0  0  0  0  0  0  0  0  0
  1  2  1  0
  2  3  2  0
  3  4  1  0
  4  5  1  0
  5  6  1  0
  6  7  1  0
  7  8  2  0
  8  9  1  0
  9 10  2  0
 10 11  1  0
 11 12  2  0
 12 13  1  0
 13 14  2  0
 14 15  1  0
 15 16  1  0
 16 17  2  0
  4 18  2  0
 18 19  1  0
 19 20  1  0
 19 21  2  0
 21  2  1  0
 16  7  1  0
 14  9  1  0
  1 22  1  0
  1 23  1  0
  1 24  1  0
  3 25  1  0
  5 26  1  0
  5 27  1  0
  6 28  1  0
  6 29  1  0
  8 30  1  0
 10 31  1  0
 11 32  1  0
 12 33  1  0
 13 34  1  0
 20 35  1  0
 20 36  1  0
 20 37  1  0
 21 38  1  0
M  CHG  2  15  -1  21   1
M  END
>  <UniqueID>  (14) 
13

>  <SMILES>  (14) 
Cc1cc(CCc2cc3ccccc3[n-]c2=O)nc(C)[nH+]1

>  <Energy>  (14) 
38.06178827721912

>  <Genealogy>  (14) 
Cc1cc(CCc2cc3ccccc3[n-]c2=O)nc(C)[nH+]1 (protonated)
Cc1cc(CCc2cc3ccccc3[n-]c2=O)nc(C)[nH+]1 (3D coordinates assigned)
Cc1cc(CCc2cc3ccccc3[n-]c2=O)nc(C)[nH+]1 (optimized conformer: 38.06178827721912 kcal/mol)

>  <smiles>  (14) 
Cc1cc(CCc2cc3ccccc3[nH]c2=O)nc(C)n1

>  <score_type>  (14) 
oracle

>  <origin>  (14) 
adg

>  <m_score__min__energy>  (14) 
-8.5299999999999994

>  <m_primary>  (14) 
energy

$$$$
14:0
     RDKit          3D

 60 62  0  0  0  0  0  0  0  0999 V2000
   56.0540   30.2800   44.1200 C   0  0  0  0  0  0  0  0  0  0  0  0
   57.3310   29.6960   43.5150 C   0  0  0  0  0  0  0  0  0  0  0  0
   57.3370   28.2160   43.5540 N   0  0  0  0  0  0  0  0  0  0  0  0
   58.6740   27.6500   43.8170 C   0  0  0  0  0  0  0  0  0  0  0  0
   58.7350   26.8630   45.1350 C   0  0  0  0  0  0  0  0  0  0  0  0
   57.5540   27.1520   45.9620 N   0  0  0  0  0  0  0  0  0  0  0  0
   57.9150   27.2710   47.3800 C   0  0  0  0  0  0  0  0  0  0  0  0
   58.9410   28.3570   47.5680 C   0  0  0  0  0  0  0  0  0  0  0  0
   58.9070   29.5010   46.7570 C   0  0  0  0  0  0  0  0  0  0  0  0
   59.8500   30.5190   46.9330 C   0  0  0  0  0  0  0  0  0  0  0  0
   60.8460   30.3970   47.9110 C   0  0  0  0  0  0  0  0  0  0  0  0
   61.8070   31.4990   48.1200 C   0  0  0  0  0  0  0  0  0  0  0  0
   62.7760   31.7360   47.1330 C   0  0  0  0  0  0  0  0  0  0  0  0
   63.7320   32.7380   47.3040 C   0  0  0  0  0  0  0  0  0  0  0  0
   63.7380   33.5090   48.4650 C   0  0  0  0  0  0  0  0  0  0  0  0
   62.7890   33.2790   49.4600 C   0  0  0  0  0  0  0  0  0  0  0  0
   61.8090   32.2820   49.3010 C   0  0  0  0  0  0  0  0  0  0  0  0
   60.7960   32.0650   50.3970 C   0  0  0  0  0  0  0  0  0  0  0  0
   60.0970   33.3210   50.7150 N   0  0  0  0  0  0  0  0  0  0  0  0
   59.5930   34.0310   49.5240 C   0  0  0  0  0  0  0  0  0  0  0  0
   58.7620   33.1130   48.6170 C   0  0  0  0  0  0  0  0  0  0  0  0
   58.7210   33.5970   47.1990 C   0  0  0  0  0  0  0  0  0  0  0  0
   57.7520   33.2730   46.2560 C   0  0  0  0  0  0  0  0  0  0  0  0
   57.9880   33.8520   45.0050 C   0  0  0  0  0  0  0  0  0  0  0  0
   59.1420   34.6240   44.9540 C   0  0  0  0  0  0  0  0  0  0  0  0
   59.8710   34.5830   46.4690 S   0  0  0  0  0  0  0  0  0  0  0  0
   60.8900   29.2470   48.7120 C   0  0  0  0  0  0  0  0  0  0  0  0
   59.9470   28.2300   48.5380 C   0  0  0  0  0  0  0  0  0  0  0  0
   56.1210   30.2494   45.2175 H   0  0  0  0  0  0  0  0  0  0  0  0
   55.9347   31.3222   43.7889 H   0  0  0  0  0  0  0  0  0  0  0  0
   55.1876   29.6886   43.7889 H   0  0  0  0  0  0  0  0  0  0  0  0
   57.4101   30.0239   42.4680 H   0  0  0  0  0  0  0  0  0  0  0  0
   58.1837   30.0549   44.1100 H   0  0  0  0  0  0  0  0  0  0  0  0
   57.0300   27.8650   42.6170 H   0  0  0  0  0  0  0  0  0  0  0  0
   56.6510   27.8400   44.2480 H   0  0  0  0  0  0  0  0  0  0  0  0
   58.9389   26.9739   42.9907 H   0  0  0  0  0  0  0  0  0  0  0  0
   59.3805   28.4893   43.8978 H   0  0  0  0  0  0  0  0  0  0  0  0
   58.7666   25.7862   44.9126 H   0  0  0  0  0  0  0  0  0  0  0  0
   59.6381   27.1626   45.6870 H   0  0  0  0  0  0  0  0  0  0  0  0
   56.8970   26.3400   45.8710 H   0  0  0  0  0  0  0  0  0  0  0  0
   57.0158   27.5161   47.9642 H   0  0  0  0  0  0  0  0  0  0  0  0
   58.3380   26.3154   47.7232 H   0  0  0  0  0  0  0  0  0  0  0  0
   58.1353   29.5980   45.9791 H   0  0  0  0  0  0  0  0  0  0  0  0
   59.8095   31.4186   46.3013 H   0  0  0  0  0  0  0  0  0  0  0  0
   62.7820   31.1269   46.2170 H   0  0  0  0  0  0  0  0  0  0  0  0
   64.4826   32.9198   46.5207 H   0  0  0  0  0  0  0  0  0  0  0  0
   64.4918   34.2993   48.5963 H   0  0  0  0  0  0  0  0  0  0  0  0
   62.8066   33.8833   50.3790 H   0  0  0  0  0  0  0  0  0  0  0  0
   60.0610   31.3163   50.0664 H   0  0  0  0  0  0  0  0  0  0  0  0
   61.3196   31.7134   51.2983 H   0  0  0  0  0  0  0  0  0  0  0  0
   60.7860   33.9530   51.1870 H   0  0  0  0  0  0  0  0  0  0  0  0
   58.9634   34.8715   49.8514 H   0  0  0  0  0  0  0  0  0  0  0  0
   60.4600   34.3850   48.9469 H   0  0  0  0  0  0  0  0  0  0  0  0
   59.2036   32.1057   48.6340 H   0  0  0  0  0  0  0  0  0  0  0  0
   57.7307   33.1071   48.9997 H   0  0  0  0  0  0  0  0  0  0  0  0
   56.8880   32.6273   46.4718 H   0  0  0  0  0  0  0  0  0  0  0  0
   57.3217   33.7094   44.1415 H   0  0  0  0  0  0  0  0  0  0  0  0
   59.5148   35.1685   44.0739 H   0  0  0  0  0  0  0  0  0  0  0  0
   61.6701   29.1447   49.4808 H   0  0  0  0  0  0  0  0  0  0  0  0
   59.9937   27.3266   49.1639 H   0  0  0  0  0  0  0  0  0  0  0  0
  1  2  1  0
  2  3  1  0
  3  4  1  0
  4  5  1  0
  5  6  1  0
  6  7  1  0
  7  8  1  0
  8  9  2  0
  9 10  1  0
 10 11  2  0
 11 12  1  0
 12 13  2  0
 13 14  1  0
 14 15  2  0
 15 16  1  0
 16 17  2  0
 17 18  1  0
 18 19  1  0
 19 20  1  0
 20 21  1  0
 21 22  1  0
 22 23  2  0
 23 24  1  0
 24 25  2  0
 25 26  1  0
 11 27  1  0
 27 28  2  0
 28  8  1  0
 17 12  1  0
 26 22  1  0
  1 29  1  0
  1 30  1  0
  1 31  1  0
  2 32  1  0
  2 33  1  0
  3 34  1  0
  3 35  1  0
  4 36  1  0
  4 37  1  0
  5 38  1  0
  5 39  1  0
  6 40  1  0
  7 41  1  0
  7 42  1  0
  9 43  1  0
 10 44  1  0
 13 45  1  0
 14 46  1  0
 15 47  1  0
 16 48  1  0
 18 49  1  0
 18 50  1  0
 19 51  1  0
 20 52  1  0
 20 53  1  0
 21 54  1  0
 21 55  1  0
 23 56  1  0
 24 57  1  0
 25 58  1  0
 27 59  1  0
 28 60  1  0
M  CHG  1   3   1
M  END
>  <UniqueID>  (15) 
14

>  <SMILES>  (15) 
CC[NH2+]CCNCc1ccc(-c2ccccc2CNCCc2cccs2)cc1

>  <Energy>  (15) 
85.72386008172937

>  <Genealogy>  (15) 
CC[NH2+]CCNCc1ccc(-c2ccccc2CNCCc2cccs2)cc1 (protonated)
CC[NH2+]CCNCc1ccc(-c2ccccc2CNCCc2cccs2)cc1 (3D coordinates assigned)
CC[NH2+]CCNCc1ccc(-c2ccccc2CNCCc2cccs2)cc1 (optimized conformer: 85.72386008172937 kcal/mol)

>  <smiles>  (15) 
CCNCCNCc1ccc(-c2ccccc2CNCCc2cccs2)cc1

>  <score_type>  (15) 
oracle

>  <origin>  (15) 
adg

>  <m_score__min__energy>  (15) 
-6.4699999999999998

>  <m_primary>  (15) 
energy

$$$$
15:0
     RDKit          3D

 55 57  0  0  0  0  0  0  0  0999 V2000
   63.3580   33.8260   46.4420 C   0  0  0  0  0  0  0  0  0  0  0  0
   63.5510   32.4700   47.1200 C   0  0  0  0  0  0  0  0  0  0  0  0
   63.0930   32.4920   48.5290 N   0  0  0  0  0  0  0  0  0  0  0  0
   64.1410   31.9660   49.4280 C   0  0  0  0  0  0  0  0  0  0  0  0
   62.7210   33.8670   48.9350 C   0  0  0  0  0  0  0  0  0  0  0  0
   61.8020   33.8350   50.1640 C   0  0  0  0  0  0  0  0  0  0  0  0
   60.3930   33.6560   49.7770 N   0  0  0  0  0  0  0  0  0  0  0  0
   59.7560   32.4750   50.3870 C   0  0  0  0  0  0  0  0  0  0  0  0
   59.9090   31.2230   49.5040 C   0  0  0  0  0  0  0  0  0  0  0  0
   60.7200   31.4550   48.2880 N   0  0  0  0  0  0  0  0  0  0  0  0
   59.9520   31.2510   47.0640 C   0  0  0  0  0  0  0  0  0  0  0  0
   59.6940   29.9450   46.5460 C   0  0  0  0  0  0  0  0  0  0  0  0
   60.2510   28.7700   47.1200 C   0  0  0  0  0  0  0  0  0  0  0  0
   60.0240   27.5140   46.5640 C   0  0  0  0  0  0  0  0  0  0  0  0
   59.2510   27.3870   45.4220 C   0  0  0  0  0  0  0  0  0  0  0  0
   58.6660   28.5100   44.8500 C   0  0  0  0  0  0  0  0  0  0  0  0
   58.8370   29.8000   45.4160 C   0  0  0  0  0  0  0  0  0  0  0  0
   58.1910   30.8950   44.8840 N   0  0  0  0  0  0  0  0  0  0  0  0
   57.0470   30.7020   43.9640 C   0  0  0  0  0  0  0  0  0  0  0  0
   58.5880   32.1680   45.2290 C   0  0  0  0  0  0  0  0  0  0  0  0
   58.1610   33.2970   44.4840 C   0  0  0  0  0  0  0  0  0  0  0  0
   58.5000   34.5890   44.8700 C   0  0  0  0  0  0  0  0  0  0  0  0
   59.2820   34.7930   45.9960 C   0  0  0  0  0  0  0  0  0  0  0  0
   59.6020   36.0560   46.3770 F   0  0  0  0  0  0  0  0  0  0  0  0
   59.7560   33.7050   46.7250 C   0  0  0  0  0  0  0  0  0  0  0  0
   59.4440   32.3740   46.3470 C   0  0  0  0  0  0  0  0  0  0  0  0
   63.2469   34.6068   47.2088 H   0  0  0  0  0  0  0  0  0  0  0  0
   64.2333   34.0501   45.8146 H   0  0  0  0  0  0  0  0  0  0  0  0
   62.4549   33.7970   45.8146 H   0  0  0  0  0  0  0  0  0  0  0  0
   62.9754   31.7111   46.5698 H   0  0  0  0  0  0  0  0  0  0  0  0
   64.6250   32.2323   47.1121 H   0  0  0  0  0  0  0  0  0  0  0  0
   63.8371   32.1185   50.4741 H   0  0  0  0  0  0  0  0  0  0  0  0
   64.2802   30.8912   49.2396 H   0  0  0  0  0  0  0  0  0  0  0  0
   65.0859   32.4967   49.2396 H   0  0  0  0  0  0  0  0  0  0  0  0
   63.6330   34.4314   49.1796 H   0  0  0  0  0  0  0  0  0  0  0  0
   62.1868   34.3509   48.1040 H   0  0  0  0  0  0  0  0  0  0  0  0
   62.1032   33.0006   50.8144 H   0  0  0  0  0  0  0  0  0  0  0  0
   61.8965   34.7954   50.6919 H   0  0  0  0  0  0  0  0  0  0  0  0
   59.8760   34.5020   50.1110 H   0  0  0  0  0  0  0  0  0  0  0  0
   60.2249   32.2818   51.3631 H   0  0  0  0  0  0  0  0  0  0  0  0
   58.6821   32.6853   50.4991 H   0  0  0  0  0  0  0  0  0  0  0  0
   60.3915   30.4338   50.0992 H   0  0  0  0  0  0  0  0  0  0  0  0
   58.9006   30.9361   49.1711 H   0  0  0  0  0  0  0  0  0  0  0  0
   61.0890   32.4310   48.3020 H   0  0  0  0  0  0  0  0  0  0  0  0
   61.5940   30.9010   48.3480 H   0  0  0  0  0  0  0  0  0  0  0  0
   60.8744   28.8548   48.0223 H   0  0  0  0  0  0  0  0  0  0  0  0
   60.4600   26.6197   47.0332 H   0  0  0  0  0  0  0  0  0  0  0  0
   59.1001   26.3967   44.9676 H   0  0  0  0  0  0  0  0  0  0  0  0
   58.0582   28.3968   43.9402 H   0  0  0  0  0  0  0  0  0  0  0  0
   56.1283   30.5470   44.5488 H   0  0  0  0  0  0  0  0  0  0  0  0
   56.9320   31.5934   43.3299 H   0  0  0  0  0  0  0  0  0  0  0  0
   57.2308   29.8222   43.3299 H   0  0  0  0  0  0  0  0  0  0  0  0
   57.5490   33.1473   43.5823 H   0  0  0  0  0  0  0  0  0  0  0  0
   58.1476   35.4491   44.2818 H   0  0  0  0  0  0  0  0  0  0  0  0
   60.3842   33.8813   47.6106 H   0  0  0  0  0  0  0  0  0  0  0  0
  1  2  1  0
  2  3  1  0
  3  4  1  0
  3  5  1  0
  5  6  1  0
  6  7  1  0
  7  8  1  0
  8  9  1  0
  9 10  1  0
 10 11  1  0
 11 12  2  0
 12 13  1  0
 13 14  2  0
 14 15  1  0
 15 16  2  0
 16 17  1  0
 17 18  2  0
 18 19  1  0
 18 20  1  0
 20 21  2  0
 21 22  1  0
 22 23  2  0
 23 24  1  0
 23 25  1  0
 25 26  2  0
 26 11  1  0
 17 12  1  0
 26 20  1  0
  1 27  1  0
  1 28  1  0
  1 29  1  0
  2 30  1  0
  2 31  1  0
  4 32  1  0
  4 33  1  0
  4 34  1  0
  5 35  1  0
  5 36  1  0
  6 37  1  0
  6 38  1  0
  7 39  1  0
  8 40  1  0
  8 41  1  0
  9 42  1  0
  9 43  1  0
 10 44  1  0
 10 45  1  0
 13 46  1  0
 14 47  1  0
 15 48  1  0
 16 49  1  0
 19 50  1  0
 19 51  1  0
 19 52  1  0
 21 53  1  0
 22 54  1  0
 25 55  1  0
M  CHG  2  10   1  18   1
M  END
>  <UniqueID>  (16) 
15

>  <SMILES>  (16) 
CCN(C)CCNCC[NH2+]c1c2ccccc2[n+](C)c2ccc(F)cc12

>  <Energy>  (16) 
84.3829279140572

>  <Genealogy>  (16) 
CCN(C)CCNCC[NH2+]c1c2ccccc2[n+](C)c2ccc(F)cc12 (protonated)
CCN(C)CCNCC[NH2+]c1c2ccccc2[n+](C)c2ccc(F)cc12 (3D coordinates assigned)
CCN(C)CCNCC[NH2+]c1c2ccccc2[n+](C)c2ccc(F)cc12 (optimized conformer: 84.3829279140572 kcal/mol)

>  <smiles>  (16) 
CCN(C)CCNCCNc1c2ccccc2[n+](C)c2ccc(F)cc12

>  <score_type>  (16) 
oracle

>  <origin>  (16) 
adg

>  <m_score__min__energy>  (16) 
-3.5299999999999998

>  <m_primary>  (16) 
energy

$$$$
16:0
     RDKit          3D

 52 54  0  0  0  0  0  0  0  0999 V2000
   65.0950   32.7720   49.7620 C   0  0  0  0  0  0  0  0  0  0  0  0
   63.8620   31.8950   49.5410 C   0  0  0  0  0  0  0  0  0  0  0  0
   62.7610   32.6750   48.9320 N   0  0  0  0  0  0  0  0  0  0  0  0
   62.5010   33.9050   49.7160 C   0  0  0  0  0  0  0  0  0  0  0  0
   61.2480   33.7560   50.5800 C   0  0  0  0  0  0  0  0  0  0  0  0
   63.0240   32.9780   47.5010 C   0  0  0  0  0  0  0  0  0  0  0  0
   61.6970   33.0800   46.7520 C   0  0  0  0  0  0  0  0  0  0  0  0
   60.6300   32.4360   47.5150 N   0  0  0  0  0  0  0  0  0  0  0  0
   59.8900   31.3350   46.9590 C   0  0  0  0  0  0  0  0  0  0  0  0
   59.9620   30.0610   47.5520 C   0  0  0  0  0  0  0  0  0  0  0  0
   60.6820   29.8490   48.7470 C   0  0  0  0  0  0  0  0  0  0  0  0
   60.7640   28.5770   49.3110 C   0  0  0  0  0  0  0  0  0  0  0  0
   60.1380   27.4990   48.6970 C   0  0  0  0  0  0  0  0  0  0  0  0
   59.4340   27.6820   47.5060 C   0  0  0  0  0  0  0  0  0  0  0  0
   59.3410   28.9610   46.9050 C   0  0  0  0  0  0  0  0  0  0  0  0
   58.6810   29.1450   45.7070 N   0  0  0  0  0  0  0  0  0  0  0  0
   58.5040   27.9840   44.8080 C   0  0  0  0  0  0  0  0  0  0  0  0
   58.3610   30.4230   45.2830 C   0  0  0  0  0  0  0  0  0  0  0  0
   57.3650   30.6850   44.2870 C   0  0  0  0  0  0  0  0  0  0  0  0
   56.2850   29.7300   43.9570 C   0  0  0  0  0  0  0  0  0  0  0  0
   55.5310   29.1110   44.9970 N   0  0  0  0  0  0  0  0  0  0  0  0
   56.0600   29.4200   42.7570 O   0  0  0  0  0  0  0  0  0  0  0  0
   57.2640   31.9670   43.7260 C   0  0  0  0  0  0  0  0  0  0  0  0
   58.0350   33.0160   44.2090 C   0  0  0  0  0  0  0  0  0  0  0  0
   58.8920   32.8140   45.2840 C   0  0  0  0  0  0  0  0  0  0  0  0
   59.0590   31.5300   45.8400 C   0  0  0  0  0  0  0  0  0  0  0  0
   65.2685   32.8954   50.8412 H   0  0  0  0  0  0  0  0  0  0  0  0
   65.9723   32.2938   49.3019 H   0  0  0  0  0  0  0  0  0  0  0  0
   64.9312   33.7576   49.3019 H   0  0  0  0  0  0  0  0  0  0  0  0
   64.1270   31.0632   48.8718 H   0  0  0  0  0  0  0  0  0  0  0  0
   63.5241   31.5119   50.5152 H   0  0  0  0  0  0  0  0  0  0  0  0
   63.3645   34.1043   50.3677 H   0  0  0  0  0  0  0  0  0  0  0  0
   62.3435   34.7379   49.0150 H   0  0  0  0  0  0  0  0  0  0  0  0
   61.5294   33.7895   51.6429 H   0  0  0  0  0  0  0  0  0  0  0  0
   60.5506   34.5775   50.3593 H   0  0  0  0  0  0  0  0  0  0  0  0
   60.7627   32.7938   50.3593 H   0  0  0  0  0  0  0  0  0  0  0  0
   63.5647   33.9326   47.4213 H   0  0  0  0  0  0  0  0  0  0  0  0
   63.6334   32.1747   47.0613 H   0  0  0  0  0  0  0  0  0  0  0  0
   61.4461   34.1405   46.6022 H   0  0  0  0  0  0  0  0  0  0  0  0
   61.7961   32.5738   45.7804 H   0  0  0  0  0  0  0  0  0  0  0  0
   60.5960   32.5960   48.5470 H   0  0  0  0  0  0  0  0  0  0  0  0
   61.1834   30.6959   49.2382 H   0  0  0  0  0  0  0  0  0  0  0  0
   61.3258   28.4261   50.2446 H   0  0  0  0  0  0  0  0  0  0  0  0
   60.1975   26.4988   49.1509 H   0  0  0  0  0  0  0  0  0  0  0  0
   58.9446   26.8209   47.0274 H   0  0  0  0  0  0  0  0  0  0  0  0
   58.3651   27.0730   45.4086 H   0  0  0  0  0  0  0  0  0  0  0  0
   57.6197   28.1431   44.1734 H   0  0  0  0  0  0  0  0  0  0  0  0
   59.3955   27.8724   44.1734 H   0  0  0  0  0  0  0  0  0  0  0  0
   54.5330   29.3720   45.1640 H   0  0  0  0  0  0  0  0  0  0  0  0
   56.5662   32.1431   42.8941 H   0  0  0  0  0  0  0  0  0  0  0  0
   57.9672   34.0086   43.7398 H   0  0  0  0  0  0  0  0  0  0  0  0
   59.4461   33.6657   45.7055 H   0  0  0  0  0  0  0  0  0  0  0  0
  1  2  1  0
  2  3  1  0
  3  4  1  0
  4  5  1  0
  3  6  1  0
  6  7  1  0
  7  8  1  0
  8  9  1  0
  9 10  2  0
 10 11  1  0
 11 12  2  0
 12 13  1  0
 13 14  2  0
 14 15  1  0
 15 16  2  0
 16 17  1  0
 16 18  1  0
 18 19  2  0
 19 20  1  0
 20 21  1  0
 20 22  2  0
 19 23  1  0
 23 24  2  0
 24 25  1  0
 25 26  2  0
 26  9  1  0
 15 10  1  0
 26 18  1  0
  1 27  1  0
  1 28  1  0
  1 29  1  0
  2 30  1  0
  2 31  1  0
  4 32  1  0
  4 33  1  0
  5 34  1  0
  5 35  1  0
  5 36  1  0
  6 37  1  0
  6 38  1  0
  7 39  1  0
  7 40  1  0
  8 41  1  0
 11 42  1  0
 12 43  1  0
 13 44  1  0
 14 45  1  0
 17 46  1  0
 17 47  1  0
 17 48  1  0
 21 49  1  0
 23 50  1  0
 24 51  1  0
 25 52  1  0
M  CHG  2  16   1  21  -1
M  END
>  <UniqueID>  (17) 
16

>  <SMILES>  (17) 
CCN(CC)CCNc1c2ccccc2[n+](C)c2c(C([NH-])=O)cccc12

>  <Energy>  (17) 
88.88735775456634

>  <Genealogy>  (17) 
CCN(CC)CCNc1c2ccccc2[n+](C)c2c(C([NH-])=O)cccc12 (protonated)
CCN(CC)CCNc1c2ccccc2[n+](C)c2c(C([NH-])=O)cccc12 (3D coordinates assigned)
CCN(CC)CCNc1c2ccccc2[n+](C)c2c(C([NH-])=O)cccc12 (optimized conformer: 88.88735775456634 kcal/mol)

>  <smiles>  (17) 
CCN(CC)CCNc1c2ccccc2[n+](C)c2c(C(N)=O)cccc12

>  <score_type>  (17) 
oracle

>  <origin>  (17) 
adg

>  <m_score__min__energy>  (17) 
-9

>  <m_primary>  (17) 
energy

$$$$
17:0
     RDKit          3D

 87 90  0  0  0  0  0  0  0  0999 V2000
   67.3320   27.1590   53.5960 C   0  0  0  0  0  0  0  0  0  0  0  0
   67.5150   28.5530   52.9990 C   0  0  0  0  0  0  0  0  0  0  0  0
   66.7360   28.6860   51.7500 N   0  0  0  0  0  0  0  0  0  0  0  0
   66.7800   27.4420   50.9490 C   0  0  0  0  0  0  0  0  0  0  0  0
   67.9970   27.4580   50.0250 C   0  0  0  0  0  0  0  0  0  0  0  0
   67.1840   29.8600   50.9620 C   0  0  0  0  0  0  0  0  0  0  0  0
   66.1470   30.9900   51.0900 C   0  0  0  0  0  0  0  0  0  0  0  0
   65.0830   30.7230   52.0800 N   0  0  0  0  0  0  0  0  0  0  0  0
   63.8750   30.1290   51.5200 C   0  0  0  0  0  0  0  0  0  0  0  0
   63.1390   30.8010   50.5020 C   0  0  0  0  0  0  0  0  0  0  0  0
   61.9050   30.2630   50.0750 C   0  0  0  0  0  0  0  0  0  0  0  0
   61.5950   28.9510   50.3490 N   0  0  0  0  0  0  0  0  0  0  0  0
   60.6200   28.2300   49.5050 C   0  0  0  0  0  0  0  0  0  0  0  0
   62.2540   28.2890   51.3660 C   0  0  0  0  0  0  0  0  0  0  0  0
   61.8060   27.0260   51.8210 C   0  0  0  0  0  0  0  0  0  0  0  0
   62.4320   26.3770   52.8820 C   0  0  0  0  0  0  0  0  0  0  0  0
   63.5190   26.9650   53.5360 C   0  0  0  0  0  0  0  0  0  0  0  0
   64.1530   26.3030   54.6580 N   0  0  0  0  0  0  0  0  0  0  0  0
   64.4460   27.0510   55.8830 C   0  0  0  0  0  0  0  0  0  0  0  0
   64.4620   24.8680   54.6010 C   0  0  0  0  0  0  0  0  0  0  0  0
   63.9730   28.2180   53.0990 C   0  0  0  0  0  0  0  0  0  0  0  0
   63.3750   28.8870   52.0050 C   0  0  0  0  0  0  0  0  0  0  0  0
   60.9760   31.1670   49.3190 C   0  0  0  0  0  0  0  0  0  0  0  0
   59.5830   31.1090   49.4990 C   0  0  0  0  0  0  0  0  0  0  0  0
   58.7420   31.9780   48.8010 C   0  0  0  0  0  0  0  0  0  0  0  0
   59.2760   32.9500   47.9440 C   0  0  0  0  0  0  0  0  0  0  0  0
   58.3460   33.8840   47.1910 C   0  0  0  0  0  0  0  0  0  0  0  0
   58.3110   33.7200   45.6840 N   0  0  0  0  0  0  0  0  0  0  0  0
   56.9890   34.2230   45.2100 C   0  0  0  0  0  0  0  0  0  0  0  0
   58.4600   32.2820   45.2510 C   0  0  0  0  0  0  0  0  0  0  0  0
   57.7860   31.9090   43.9160 C   0  0  0  0  0  0  0  0  0  0  0  0
   59.3670   34.5990   45.0750 C   0  0  0  0  0  0  0  0  0  0  0  0
   59.8910   35.7200   45.9980 C   0  0  0  0  0  0  0  0  0  0  0  0
   60.6680   33.0650   47.8200 C   0  0  0  0  0  0  0  0  0  0  0  0
   61.5140   32.2070   48.5430 C   0  0  0  0  0  0  0  0  0  0  0  0
   63.0020   32.3940   48.5260 C   0  0  0  0  0  0  0  0  0  0  0  0
   63.5810   32.1440   49.9280 C   0  0  0  0  0  0  0  0  0  0  0  0
   67.3408   27.2263   54.6939 H   0  0  0  0  0  0  0  0  0  0  0  0
   66.3712   26.7403   53.2620 H   0  0  0  0  0  0  0  0  0  0  0  0
   68.1522   26.5065   53.2620 H   0  0  0  0  0  0  0  0  0  0  0  0
   67.1696   29.3054   53.7232 H   0  0  0  0  0  0  0  0  0  0  0  0
   68.5804   28.7067   52.7726 H   0  0  0  0  0  0  0  0  0  0  0  0
   66.8467   26.5762   51.6242 H   0  0  0  0  0  0  0  0  0  0  0  0
   65.8660   27.3715   50.3410 H   0  0  0  0  0  0  0  0  0  0  0  0
   68.9161   27.4701   50.6293 H   0  0  0  0  0  0  0  0  0  0  0  0
   67.9873   26.5597   49.3903 H   0  0  0  0  0  0  0  0  0  0  0  0
   67.9637   28.3558   49.3903 H   0  0  0  0  0  0  0  0  0  0  0  0
   68.1551   30.2086   51.3434 H   0  0  0  0  0  0  0  0  0  0  0  0
   67.2863   29.5744   49.9047 H   0  0  0  0  0  0  0  0  0  0  0  0
   66.6728   31.9093   51.3874 H   0  0  0  0  0  0  0  0  0  0  0  0
   65.6539   31.0804   50.1109 H   0  0  0  0  0  0  0  0  0  0  0  0
   64.8880   31.6030   52.6020 H   0  0  0  0  0  0  0  0  0  0  0  0
   65.4650   30.0970   52.8250 H   0  0  0  0  0  0  0  0  0  0  0  0
   59.9017   27.6988   50.1468 H   0  0  0  0  0  0  0  0  0  0  0  0
   60.0822   28.9493   48.8699 H   0  0  0  0  0  0  0  0  0  0  0  0
   61.1502   27.5050   48.8699 H   0  0  0  0  0  0  0  0  0  0  0  0
   60.9471   26.5480   51.3272 H   0  0  0  0  0  0  0  0  0  0  0  0
   62.0678   25.3919   53.2089 H   0  0  0  0  0  0  0  0  0  0  0  0
   64.2030   26.4307   56.7583 H   0  0  0  0  0  0  0  0  0  0  0  0
   65.5138   27.3144   55.9053 H   0  0  0  0  0  0  0  0  0  0  0  0
   63.8412   27.9696   55.9053 H   0  0  0  0  0  0  0  0  0  0  0  0
   64.5476   24.4705   55.6231 H   0  0  0  0  0  0  0  0  0  0  0  0
   63.6569   24.3404   54.0686 H   0  0  0  0  0  0  0  0  0  0  0  0
   65.4129   24.7186   54.0686 H   0  0  0  0  0  0  0  0  0  0  0  0
   64.8166   28.6934   53.6208 H   0  0  0  0  0  0  0  0  0  0  0  0
   59.1524   30.3737   50.1947 H   0  0  0  0  0  0  0  0  0  0  0  0
   57.6518   31.8991   48.9247 H   0  0  0  0  0  0  0  0  0  0  0  0
   57.3265   33.7206   47.5704 H   0  0  0  0  0  0  0  0  0  0  0  0
   58.7376   34.8965   47.3685 H   0  0  0  0  0  0  0  0  0  0  0  0
   56.3561   34.4638   46.0768 H   0  0  0  0  0  0  0  0  0  0  0  0
   57.1374   35.1275   44.6018 H   0  0  0  0  0  0  0  0  0  0  0  0
   56.4987   33.4486   44.6018 H   0  0  0  0  0  0  0  0  0  0  0  0
   59.5348   32.0675   45.1577 H   0  0  0  0  0  0  0  0  0  0  0  0
   57.9490   31.6844   46.0203 H   0  0  0  0  0  0  0  0  0  0  0  0
   56.8397   31.3853   44.1167 H   0  0  0  0  0  0  0  0  0  0  0  0
   57.5837   32.8236   43.3392 H   0  0  0  0  0  0  0  0  0  0  0  0
   58.4535   31.2519   43.3392 H   0  0  0  0  0  0  0  0  0  0  0  0
   60.2189   33.9635   44.7917 H   0  0  0  0  0  0  0  0  0  0  0  0
   58.8942   35.1008   44.2179 H   0  0  0  0  0  0  0  0  0  0  0  0
   59.7529   35.4245   47.0485 H   0  0  0  0  0  0  0  0  0  0  0  0
   60.9604   35.8868   45.8016 H   0  0  0  0  0  0  0  0  0  0  0  0
   59.3331   36.6475   45.8016 H   0  0  0  0  0  0  0  0  0  0  0  0
   61.0986   33.8284   47.1554 H   0  0  0  0  0  0  0  0  0  0  0  0
   63.4500   31.6840   47.8153 H   0  0  0  0  0  0  0  0  0  0  0  0
   63.2322   33.4251   48.2196 H   0  0  0  0  0  0  0  0  0  0  0  0
   64.6791   32.1587   49.8658 H   0  0  0  0  0  0  0  0  0  0  0  0
   63.2077   32.9358   50.5941 H   0  0  0  0  0  0  0  0  0  0  0  0
  1  2  1  0
  2  3  1  0
  3  4  1  0
  4  5  1  0
  3  6  1  0
  6  7  1  0
  7  8  1  0
  8  9  1  0
  9 10  2  0
 10 11  1  0
 11 12  2  0
 12 13  1  0
 12 14  1  0
 14 15  2  0
 15 16  1  0
 16 17  2  0
 17 18  1  0
 18 19  1  0
 18 20  1  0
 17 21  1  0
 21 22  2  0
 11 23  1  0
 23 24  2  0
 24 25  1  0
 25 26  2  0
 26 27  1  0
 27 28  1  0
 28 29  1  0
 28 30  1  0
 30 31  1  0
 28 32  1  0
 32 33  1  0
 26 34  1  0
 34 35  2  0
 35 36  1  0
 36 37  1  0
 22  9  1  0
 35 23  1  0
 37 10  1  0
 22 14  1  0
  1 38  1  0
  1 39  1  0
  1 40  1  0
  2 41  1  0
  2 42  1  0
  4 43  1  0
  4 44  1  0
  5 45  1  0
  5 46  1  0
  5 47  1  0
  6 48  1  0
  6 49  1  0
  7 50  1  0
  7 51  1  0
  8 52  1  0
  8 53  1  0
 13 54  1  0
 13 55  1  0
 13 56  1  0
 15 57  1  0
 16 58  1  0
 19 59  1  0
 19 60  1  0
 19 61  1  0
 20 62  1  0
 20 63  1  0
 20 64  1  0
 21 65  1  0
 24 66  1  0
 25 67  1  0
 27 68  1  0
 27 69  1  0
 29 70  1  0
 29 71  1  0
 29 72  1  0
 30 73  1  0
 30 74  1  0
 31 75  1  0
 31 76  1  0
 31 77  1  0
 32 78  1  0
 32 79  1  0
 33 80  1  0
 33 81  1  0
 33 82  1  0
 34 83  1  0
 36 84  1  0
 36 85  1  0
 37 86  1  0
 37 87  1  0
M  CHG  3   8   1  12   1  28   1
M  END
>  <UniqueID>  (18) 
17

>  <SMILES>  (18) 
CCN(CC)CC[NH2+]c1c2c([n+](C)c3ccc(N(C)C)cc13)-c1ccc(C[N+](C)(CC)CC)cc1CC2

>  <Energy>  (18) 
140.56808597984556

>  <Genealogy>  (18) 
CCN(CC)CC[NH2+]c1c2c([n+](C)c3ccc(N(C)C)cc13)-c1ccc(C[N+](C)(CC)CC)cc1CC2 (protonated)
CCN(CC)CC[NH2+]c1c2c([n+](C)c3ccc(N(C)C)cc13)-c1ccc(C[N+](C)(CC)CC)cc1CC2 (3D coordinates assigned)
CCN(CC)CC[NH2+]c1c2c([n+](C)c3ccc(N(C)C)cc13)-c1ccc(C[N+](C)(CC)CC)cc1CC2 (nonaromatic ring conformer: 140.56808597984556 kcal/mol)

>  <smiles>  (18) 
CCN(CC)CCNc1c2c([n+](C)c3ccc(N(C)C)cc13)-c1ccc(C[N+](C)(CC)CC)cc1CC2

>  <score_type>  (18) 
oracle

>  <origin>  (18) 
adg

>  <m_score__min__energy>  (18) 
-4.1100000000000003

>  <m_primary>  (18) 
energy

$$$$
18:0
     RDKit          3D

 66 68  0  0  0  0  0  0  0  0999 V2000
   63.3150   34.1260   46.6950 C   0  0  0  0  0  0  0  0  0  0  0  0
   63.8110   32.6830   46.7440 C   0  0  0  0  0  0  0  0  0  0  0  0
   63.1470   31.9570   47.8420 N   0  0  0  0  0  0  0  0  0  0  0  0
   63.9760   31.9160   49.0570 C   0  0  0  0  0  0  0  0  0  0  0  0
   63.1430   31.3660   50.2280 C   0  0  0  0  0  0  0  0  0  0  0  0
   61.7500   31.4250   49.9720 O   0  0  0  0  0  0  0  0  0  0  0  0
   61.1520   30.1410   50.0180 C   0  0  0  0  0  0  0  0  0  0  0  0
   60.4770   29.7540   48.6920 C   0  0  0  0  0  0  0  0  0  0  0  0
   60.9130   30.6040   47.5690 N   0  0  0  0  0  0  0  0  0  0  0  0
   59.8710   30.6660   46.5470 C   0  0  0  0  0  0  0  0  0  0  0  0
   59.4670   29.4590   45.8950 C   0  0  0  0  0  0  0  0  0  0  0  0
   60.0760   28.2030   46.1770 C   0  0  0  0  0  0  0  0  0  0  0  0
   59.5940   27.0220   45.6230 C   0  0  0  0  0  0  0  0  0  0  0  0
   58.5040   27.0500   44.7700 C   0  0  0  0  0  0  0  0  0  0  0  0
   57.9280   28.2650   44.4180 C   0  0  0  0  0  0  0  0  0  0  0  0
   58.4310   29.4930   44.9250 C   0  0  0  0  0  0  0  0  0  0  0  0
   57.9280   30.6980   44.4900 N   0  0  0  0  0  0  0  0  0  0  0  0
   57.1390   30.7480   43.2350 C   0  0  0  0  0  0  0  0  0  0  0  0
   58.1910   31.8580   45.1880 C   0  0  0  0  0  0  0  0  0  0  0  0
   57.4230   33.0190   44.9400 C   0  0  0  0  0  0  0  0  0  0  0  0
   57.7140   34.2240   45.5470 C   0  0  0  0  0  0  0  0  0  0  0  0
   58.7740   34.3150   46.4260 C   0  0  0  0  0  0  0  0  0  0  0  0
   59.5480   33.1900   46.7560 C   0  0  0  0  0  0  0  0  0  0  0  0
   60.6360   33.3450   47.6340 O   0  0  0  0  0  0  0  0  0  0  0  0
   60.7820   34.3450   48.6440 C   0  0  0  0  0  0  0  0  0  0  0  0
   59.6580   34.2230   49.6920 C   0  0  0  0  0  0  0  0  0  0  0  0
   59.4720   32.8530   50.2270 N   0  0  0  0  0  0  0  0  0  0  0  0
   58.2720   32.1840   49.6950 C   0  0  0  0  0  0  0  0  0  0  0  0
   59.4960   32.8170   51.6970 C   0  0  0  0  0  0  0  0  0  0  0  0
   59.2230   31.9040   46.1860 C   0  0  0  0  0  0  0  0  0  0  0  0
   63.1851   34.5040   47.7198 H   0  0  0  0  0  0  0  0  0  0  0  0
   64.0506   34.7488   46.1650 H   0  0  0  0  0  0  0  0  0  0  0  0
   62.3519   34.1649   46.1650 H   0  0  0  0  0  0  0  0  0  0  0  0
   63.5826   32.1870   45.7891 H   0  0  0  0  0  0  0  0  0  0  0  0
   64.8975   32.6810   46.9158 H   0  0  0  0  0  0  0  0  0  0  0  0
   62.2570   32.4580   48.0770 H   0  0  0  0  0  0  0  0  0  0  0  0
   64.8446   31.2630   48.8864 H   0  0  0  0  0  0  0  0  0  0  0  0
   64.3226   32.9316   49.2988 H   0  0  0  0  0  0  0  0  0  0  0  0
   63.4265   30.3175   50.4020 H   0  0  0  0  0  0  0  0  0  0  0  0
   63.3497   31.9899   51.1101 H   0  0  0  0  0  0  0  0  0  0  0  0
   61.9303   29.3981   50.2468 H   0  0  0  0  0  0  0  0  0  0  0  0
   60.3724   30.1648   50.7936 H   0  0  0  0  0  0  0  0  0  0  0  0
   60.7268   28.7080   48.4608 H   0  0  0  0  0  0  0  0  0  0  0  0
   59.3927   29.8923   48.8153 H   0  0  0  0  0  0  0  0  0  0  0  0
   61.8320   30.3070   47.1860 H   0  0  0  0  0  0  0  0  0  0  0  0
   61.1590   31.5550   47.9140 H   0  0  0  0  0  0  0  0  0  0  0  0
   60.9470   28.1661   46.8479 H   0  0  0  0  0  0  0  0  0  0  0  0
   60.0794   26.0645   45.8629 H   0  0  0  0  0  0  0  0  0  0  0  0
   58.0938   26.1107   44.3708 H   0  0  0  0  0  0  0  0  0  0  0  0
   57.0666   28.2759   43.7340 H   0  0  0  0  0  0  0  0  0  0  0  0
   56.0682   30.8159   43.4775 H   0  0  0  0  0  0  0  0  0  0  0  0
   57.4386   31.6290   42.6484 H   0  0  0  0  0  0  0  0  0  0  0  0
   57.3250   29.8363   42.6484 H   0  0  0  0  0  0  0  0  0  0  0  0
   56.5719   32.9604   44.2456 H   0  0  0  0  0  0  0  0  0  0  0  0
   57.1013   35.1114   45.3302 H   0  0  0  0  0  0  0  0  0  0  0  0
   59.0178   35.2881   46.8774 H   0  0  0  0  0  0  0  0  0  0  0  0
   61.7552   34.2182   49.1407 H   0  0  0  0  0  0  0  0  0  0  0  0
   60.7227   35.3373   48.1730 H   0  0  0  0  0  0  0  0  0  0  0  0
   59.8956   34.8921   50.5321 H   0  0  0  0  0  0  0  0  0  0  0  0
   58.7209   34.4936   49.1834 H   0  0  0  0  0  0  0  0  0  0  0  0
   57.6463   31.8351   50.5297 H   0  0  0  0  0  0  0  0  0  0  0  0
   57.6995   32.8931   49.0790 H   0  0  0  0  0  0  0  0  0  0  0  0
   58.5742   31.3242   49.0790 H   0  0  0  0  0  0  0  0  0  0  0  0
   58.9270   33.6706   52.0940 H   0  0  0  0  0  0  0  0  0  0  0  0
   59.0422   31.8786   52.0483 H   0  0  0  0  0  0  0  0  0  0  0  0
   60.5368   32.8749   52.0483 H   0  0  0  0  0  0  0  0  0  0  0  0
  1  2  1  0
  2  3  1  0
  3  4  1  0
  4  5  1  0
  5  6  1  0
  6  7  1  0
  7  8  1  0
  8  9  1  0
  9 10  1  0
 10 11  2  0
 11 12  1  0
 12 13  2  0
 13 14  1  0
 14 15  2  0
 15 16  1  0
 16 17  2  0
 17 18  1  0
 17 19  1  0
 19 20  2  0
 20 21  1  0
 21 22  2  0
 22 23  1  0
 23 24  1  0
 24 25  1  0
 25 26  1  0
 26 27  1  0
 27 28  1  0
 27 29  1  0
 23 30  2  0
 30 10  1  0
 16 11  1  0
 30 19  1  0
  1 31  1  0
  1 32  1  0
  1 33  1  0
  2 34  1  0
  2 35  1  0
  3 36  1  0
  4 37  1  0
  4 38  1  0
  5 39  1  0
  5 40  1  0
  7 41  1  0
  7 42  1  0
  8 43  1  0
  8 44  1  0
  9 45  1  0
  9 46  1  0
 12 47  1  0
 13 48  1  0
 14 49  1  0
 15 50  1  0
 18 51  1  0
 18 52  1  0
 18 53  1  0
 20 54  1  0
 21 55  1  0
 22 56  1  0
 25 57  1  0
 25 58  1  0
 26 59  1  0
 26 60  1  0
 28 61  1  0
 28 62  1  0
 28 63  1  0
 29 64  1  0
 29 65  1  0
 29 66  1  0
M  CHG  2   9   1  17   1
M  END
>  <UniqueID>  (19) 
18

>  <SMILES>  (19) 
CCNCCOCC[NH2+]c1c2ccccc2[n+](C)c2cccc(OCCN(C)C)c12

>  <Energy>  (19) 
103.10743234111106

>  <Genealogy>  (19) 
CCNCCOCC[NH2+]c1c2ccccc2[n+](C)c2cccc(OCCN(C)C)c12 (protonated)
CCNCCOCC[NH2+]c1c2ccccc2[n+](C)c2cccc(OCCN(C)C)c12 (3D coordinates assigned)
CCNCCOCC[NH2+]c1c2ccccc2[n+](C)c2cccc(OCCN(C)C)c12 (optimized conformer: 103.10743234111106 kcal/mol)

>  <smiles>  (19) 
CCNCCOCCNc1c2ccccc2[n+](C)c2cccc(OCCN(C)C)c12

>  <score_type>  (19) 
oracle

>  <origin>  (19) 
adg

>  <m_score__min__energy>  (19) 
-2.8900000000000001

>  <m_primary>  (19) 
energy

$$$$
19:0
     RDKit          3D

 76 78  0  0  0  0  0  0  0  0999 V2000
   56.6330   22.2720   43.1550 C   0  0  0  0  0  0  0  0  0  0  0  0
   57.1370   23.3890   44.0670 C   0  0  0  0  0  0  0  0  0  0  0  0
   57.0710   24.7760   43.4060 C   0  0  0  0  0  0  0  0  0  0  0  0
   57.7840   25.9000   44.1830 C   0  0  0  0  0  0  0  0  0  0  0  0
   57.4930   25.9080   45.6930 C   0  0  0  0  0  0  0  0  0  0  0  0
   56.8110   27.1370   46.1130 N   0  0  0  0  0  0  0  0  0  0  0  0
   57.1470   28.4700   45.6620 C   0  0  0  0  0  0  0  0  0  0  0  0
   56.6080   28.9840   44.4790 C   0  0  0  0  0  0  0  0  0  0  0  0
   56.9350   30.2580   44.0400 C   0  0  0  0  0  0  0  0  0  0  0  0
   57.8640   31.0610   44.7330 C   0  0  0  0  0  0  0  0  0  0  0  0
   58.4360   30.5560   45.9360 C   0  0  0  0  0  0  0  0  0  0  0  0
   58.0400   29.2680   46.4120 C   0  0  0  0  0  0  0  0  0  0  0  0
   58.4980   28.7720   47.6770 N   0  0  0  0  0  0  0  0  0  0  0  0
   59.6100   27.8220   47.7430 C   0  0  0  0  0  0  0  0  0  0  0  0
   60.3110   27.8640   49.1100 C   0  0  0  0  0  0  0  0  0  0  0  0
   59.7480   28.8840   49.9900 N   0  0  0  0  0  0  0  0  0  0  0  0
   59.3800   31.3650   46.6160 C   0  0  0  0  0  0  0  0  0  0  0  0
   60.2180   30.8220   47.6480 N   0  0  0  0  0  0  0  0  0  0  0  0
   61.6770   30.9640   47.6260 C   0  0  0  0  0  0  0  0  0  0  0  0
   62.2620   31.2850   49.0170 C   0  0  0  0  0  0  0  0  0  0  0  0
   61.2980   31.0700   50.1240 N   0  0  0  0  0  0  0  0  0  0  0  0
   61.9870   30.6470   51.3690 C   0  0  0  0  0  0  0  0  0  0  0  0
   63.4910   30.5300   51.1360 C   0  0  0  0  0  0  0  0  0  0  0  0
   60.5260   32.3160   50.3740 C   0  0  0  0  0  0  0  0  0  0  0  0
   59.0300   32.0380   50.3560 C   0  0  0  0  0  0  0  0  0  0  0  0
   59.4890   32.7260   46.2780 C   0  0  0  0  0  0  0  0  0  0  0  0
   60.1840   33.6280   47.1110 C   0  0  0  0  0  0  0  0  0  0  0  0
   60.2700   34.9790   46.7820 C   0  0  0  0  0  0  0  0  0  0  0  0
   59.6490   35.4560   45.6330 C   0  0  0  0  0  0  0  0  0  0  0  0
   58.9480   34.5850   44.8020 C   0  0  0  0  0  0  0  0  0  0  0  0
   58.8690   33.2000   45.0960 C   0  0  0  0  0  0  0  0  0  0  0  0
   58.2080   32.3170   44.2680 N   0  0  0  0  0  0  0  0  0  0  0  0
   57.8820   32.7140   42.8800 C   0  0  0  0  0  0  0  0  0  0  0  0
   56.2574   21.4395   43.7681 H   0  0  0  0  0  0  0  0  0  0  0  0
   55.8207   22.6555   42.5201 H   0  0  0  0  0  0  0  0  0  0  0  0
   57.4580   21.9167   42.5201 H   0  0  0  0  0  0  0  0  0  0  0  0
   56.5199   23.4042   44.9775 H   0  0  0  0  0  0  0  0  0  0  0  0
   58.1933   23.1803   44.2923 H   0  0  0  0  0  0  0  0  0  0  0  0
   57.5333   24.7024   42.4106 H   0  0  0  0  0  0  0  0  0  0  0  0
   56.0066   25.0514   43.3726 H   0  0  0  0  0  0  0  0  0  0  0  0
   58.8685   25.7822   44.0417 H   0  0  0  0  0  0  0  0  0  0  0  0
   57.4018   26.8509   43.7833 H   0  0  0  0  0  0  0  0  0  0  0  0
   56.8544   25.0461   45.9365 H   0  0  0  0  0  0  0  0  0  0  0  0
   58.4541   25.8529   46.2253 H   0  0  0  0  0  0  0  0  0  0  0  0
   56.0740   27.0190   46.8440 H   0  0  0  0  0  0  0  0  0  0  0  0
   55.9141   28.3686   43.8875 H   0  0  0  0  0  0  0  0  0  0  0  0
   56.4586   30.6514   43.1299 H   0  0  0  0  0  0  0  0  0  0  0  0
   58.1500   29.2380   48.5440 H   0  0  0  0  0  0  0  0  0  0  0  0
   59.2226   26.8068   47.5717 H   0  0  0  0  0  0  0  0  0  0  0  0
   60.3441   28.0982   46.9718 H   0  0  0  0  0  0  0  0  0  0  0  0
   60.2036   26.8816   49.5930 H   0  0  0  0  0  0  0  0  0  0  0  0
   61.3685   28.1137   48.9385 H   0  0  0  0  0  0  0  0  0  0  0  0
   59.6040   29.7640   49.4440 H   0  0  0  0  0  0  0  0  0  0  0  0
   60.4230   29.0860   50.7630 H   0  0  0  0  0  0  0  0  0  0  0  0
   59.7710   30.5960   48.5630 H   0  0  0  0  0  0  0  0  0  0  0  0
   62.1174   30.0220   47.2672 H   0  0  0  0  0  0  0  0  0  0  0  0
   61.9203   31.8048   46.9597 H   0  0  0  0  0  0  0  0  0  0  0  0
   63.1364   30.6391   49.1853 H   0  0  0  0  0  0  0  0  0  0  0  0
   62.5278   32.3524   49.0197 H   0  0  0  0  0  0  0  0  0  0  0  0
   61.7998   31.3915   52.1568 H   0  0  0  0  0  0  0  0  0  0  0  0
   61.5974   29.6647   51.6743 H   0  0  0  0  0  0  0  0  0  0  0  0
   64.0101   30.4896   52.1050 H   0  0  0  0  0  0  0  0  0  0  0  0
   63.7037   29.6126   50.5676 H   0  0  0  0  0  0  0  0  0  0  0  0
   63.8430   31.4035   50.5676 H   0  0  0  0  0  0  0  0  0  0  0  0
   60.8055   32.7221   51.3573 H   0  0  0  0  0  0  0  0  0  0  0  0
   60.7594   33.0405   49.5799 H   0  0  0  0  0  0  0  0  0  0  0  0
   58.6575   31.9688   51.3887 H   0  0  0  0  0  0  0  0  0  0  0  0
   58.5115   32.8552   49.8332 H   0  0  0  0  0  0  0  0  0  0  0  0
   58.8397   31.0891   49.8332 H   0  0  0  0  0  0  0  0  0  0  0  0
   60.6632   33.2605   48.0304 H   0  0  0  0  0  0  0  0  0  0  0  0
   60.8293   35.6685   47.4314 H   0  0  0  0  0  0  0  0  0  0  0  0
   59.7114   36.5245   45.3794 H   0  0  0  0  0  0  0  0  0  0  0  0
   58.4482   34.9775   43.9042 H   0  0  0  0  0  0  0  0  0  0  0  0
   57.1840   33.5640   42.8961 H   0  0  0  0  0  0  0  0  0  0  0  0
   58.8040   33.0065   42.3561 H   0  0  0  0  0  0  0  0  0  0  0  0
   57.4157   31.8665   42.3561 H   0  0  0  0  0  0  0  0  0  0  0  0
  1  2  1  0
  2  3  1  0
  3  4  1  0
  4  5  1  0
  5  6  1  0
  6  7  1  0
  7  8  2  0
  8  9  1  0
  9 10  2  0
 10 11  1  0
 11 12  2  0
 12 13  1  0
 13 14  1  0
 14 15  1  0
 15 16  1  0
 11 17  1  0
 17 18  1  0
 18 19  1  0
 19 20  1  0
 20 21  1  0
 21 22  1  0
 22 23  1  0
 21 24  1  0
 24 25  1  0
 17 26  2  0
 26 27  1  0
 27 28  2  0
 28 29  1  0
 29 30  2  0
 30 31  1  0
 31 32  2  0
 32 33  1  0
 12  7  1  0
 31 26  1  0
 32 10  1  0
  1 34  1  0
  1 35  1  0
  1 36  1  0
  2 37  1  0
  2 38  1  0
  3 39  1  0
  3 40  1  0
  4 41  1  0
  4 42  1  0
  5 43  1  0
  5 44  1  0
  6 45  1  0
  8 46  1  0
  9 47  1  0
 13 48  1  0
 14 49  1  0
 14 50  1  0
 15 51  1  0
 15 52  1  0
 16 53  1  0
 16 54  1  0
 18 55  1  0
 19 56  1  0
 19 57  1  0
 20 58  1  0
 20 59  1  0
 22 60  1  0
 22 61  1  0
 23 62  1  0
 23 63  1  0
 23 64  1  0
 24 65  1  0
 24 66  1  0
 25 67  1  0
 25 68  1  0
 25 69  1  0
 27 70  1  0
 28 71  1  0
 29 72  1  0
 30 73  1  0
 33 74  1  0
 33 75  1  0
 33 76  1  0
M  CHG  1  32   1
M  END
>  <UniqueID>  (20) 
19

>  <SMILES>  (20) 
CCCCCNc1ccc2c(c1NCCN)c(NCCN(CC)CC)c1ccccc1[n+]2C

>  <Energy>  (20) 
97.75943365420157

>  <Genealogy>  (20) 
CCCCCNc1ccc2c(c1NCCN)c(NCCN(CC)CC)c1ccccc1[n+]2C (3D coordinates assigned)
CCCCCNc1ccc2c(c1NCCN)c(NCCN(CC)CC)c1ccccc1[n+]2C (optimized conformer: 97.75943365420157 kcal/mol)

>  <smiles>  (20) 
CCCCCNc1ccc2c(c1NCCN)c(NCCN(CC)CC)c1ccccc1[n+]2C

>  <score_type>  (20) 
oracle

>  <origin>  (20) 
adg

>  <m_score__min__energy>  (20) 
-5.6299999999999999

>  <m_primary>  (20) 
energy

$$$$
20:0
     RDKit          3D

 75 76  0  0  0  0  0  0  0  0999 V2000
   56.4620   28.0540   53.8990 C   0  0  0  0  0  0  0  0  0  0  0  0
   55.0750   28.5830   53.5240 C   0  0  0  0  0  0  0  0  0  0  0  0
   54.9920   28.9960   52.1110 N   0  0  0  0  0  0  0  0  0  0  0  0
   54.8680   30.4560   51.9640 C   0  0  0  0  0  0  0  0  0  0  0  0
   56.2420   31.1030   51.7480 C   0  0  0  0  0  0  0  0  0  0  0  0
   57.2300   30.1060   51.5770 O   0  0  0  0  0  0  0  0  0  0  0  0
   58.2270   30.5390   50.6740 C   0  0  0  0  0  0  0  0  0  0  0  0
   58.4990   32.0340   50.8650 C   0  0  0  0  0  0  0  0  0  0  0  0
   59.0060   32.7220   49.5820 C   0  0  0  0  0  0  0  0  0  0  0  0
   58.1670   32.3360   48.3410 C   0  0  0  0  0  0  0  0  0  0  0  0
   58.2890   33.3020   47.2250 N   0  0  0  0  0  0  0  0  0  0  0  0
   58.7220   32.6560   45.9610 C   0  0  0  0  0  0  0  0  0  0  0  0
   57.7420   32.9530   44.8180 C   0  0  0  0  0  0  0  0  0  0  0  0
   57.3550   31.7160   43.9760 C   0  0  0  0  0  0  0  0  0  0  0  0
   56.4540   30.7600   44.6430 N   0  0  0  0  0  0  0  0  0  0  0  0
   56.4640   29.3910   44.1020 C   0  0  0  0  0  0  0  0  0  0  0  0
   57.8720   28.7630   44.0760 C   0  0  0  0  0  0  0  0  0  0  0  0
   58.6750   29.0500   45.3230 C   0  0  0  0  0  0  0  0  0  0  0  0
   58.1480   28.7560   46.5930 C   0  0  0  0  0  0  0  0  0  0  0  0
   58.8920   29.0270   47.7450 C   0  0  0  0  0  0  0  0  0  0  0  0
   60.1590   29.6080   47.6430 C   0  0  0  0  0  0  0  0  0  0  0  0
   60.8790   29.8650   48.7610 F   0  0  0  0  0  0  0  0  0  0  0  0
   60.6800   29.9290   46.3860 C   0  0  0  0  0  0  0  0  0  0  0  0
   59.9380   29.6610   45.2320 C   0  0  0  0  0  0  0  0  0  0  0  0
   59.0960   34.4910   47.5990 C   0  0  0  0  0  0  0  0  0  0  0  0
   60.3970   34.5850   46.7880 C   0  0  0  0  0  0  0  0  0  0  0  0
   61.5680   33.9210   47.4770 C   0  0  0  0  0  0  0  0  0  0  0  0
   62.4460   33.0910   46.7550 C   0  0  0  0  0  0  0  0  0  0  0  0
   63.5270   32.4780   47.3960 C   0  0  0  0  0  0  0  0  0  0  0  0
   63.7500   32.7010   48.7570 C   0  0  0  0  0  0  0  0  0  0  0  0
   62.8980   33.5420   49.4770 C   0  0  0  0  0  0  0  0  0  0  0  0
   61.8150   34.1550   48.8400 C   0  0  0  0  0  0  0  0  0  0  0  0
   56.5568   28.0178   54.9943 H   0  0  0  0  0  0  0  0  0  0  0  0
   56.5928   27.0429   53.4861 H   0  0  0  0  0  0  0  0  0  0  0  0
   57.2329   28.7212   53.4861 H   0  0  0  0  0  0  0  0  0  0  0  0
   54.3343   27.7899   53.7039 H   0  0  0  0  0  0  0  0  0  0  0  0
   54.8763   29.4697   54.1439 H   0  0  0  0  0  0  0  0  0  0  0  0
   54.1840   28.5200   51.6460 H   0  0  0  0  0  0  0  0  0  0  0  0
   55.8740   28.6850   51.6360 H   0  0  0  0  0  0  0  0  0  0  0  0
   54.2256   30.6776   51.0990 H   0  0  0  0  0  0  0  0  0  0  0  0
   54.4274   30.8658   52.8848 H   0  0  0  0  0  0  0  0  0  0  0  0
   56.2075   31.7380   50.8505 H   0  0  0  0  0  0  0  0  0  0  0  0
   56.4947   31.7112   52.6290 H   0  0  0  0  0  0  0  0  0  0  0  0
   59.1533   29.9747   50.8572 H   0  0  0  0  0  0  0  0  0  0  0  0
   57.8795   30.3656   49.6448 H   0  0  0  0  0  0  0  0  0  0  0  0
   57.5652   32.5229   51.1795 H   0  0  0  0  0  0  0  0  0  0  0  0
   59.2887   32.1307   51.6246 H   0  0  0  0  0  0  0  0  0  0  0  0
   58.9533   33.8120   49.7201 H   0  0  0  0  0  0  0  0  0  0  0  0
   60.0400   32.3900   49.4070 H   0  0  0  0  0  0  0  0  0  0  0  0
   58.5017   31.3499   47.9868 H   0  0  0  0  0  0  0  0  0  0  0  0
   57.1117   32.3300   48.6515 H   0  0  0  0  0  0  0  0  0  0  0  0
   59.7173   33.0359   45.6872 H   0  0  0  0  0  0  0  0  0  0  0  0
   58.7505   31.5679   46.1196 H   0  0  0  0  0  0  0  0  0  0  0  0
   56.8238   33.3754   45.2522 H   0  0  0  0  0  0  0  0  0  0  0  0
   58.2527   33.6505   44.1378 H   0  0  0  0  0  0  0  0  0  0  0  0
   56.8585   32.0695   43.0603 H   0  0  0  0  0  0  0  0  0  0  0  0
   58.2914   31.1711   43.7858 H   0  0  0  0  0  0  0  0  0  0  0  0
   56.6890   30.7190   45.6610 H   0  0  0  0  0  0  0  0  0  0  0  0
   55.8116   28.7628   44.7262 H   0  0  0  0  0  0  0  0  0  0  0  0
   56.1092   29.4458   43.0622 H   0  0  0  0  0  0  0  0  0  0  0  0
   57.7667   27.6731   43.9711 H   0  0  0  0  0  0  0  0  0  0  0  0
   58.4133   29.2094   43.2288 H   0  0  0  0  0  0  0  0  0  0  0  0
   57.1459   28.3108   46.6804 H   0  0  0  0  0  0  0  0  0  0  0  0
   58.4790   28.7822   48.7347 H   0  0  0  0  0  0  0  0  0  0  0  0
   61.6742   30.3927   46.3050 H   0  0  0  0  0  0  0  0  0  0  0  0
   60.3450   29.9299   44.2461 H   0  0  0  0  0  0  0  0  0  0  0  0
   58.4986   35.3966   47.4172 H   0  0  0  0  0  0  0  0  0  0  0  0
   59.3653   34.3969   48.6614 H   0  0  0  0  0  0  0  0  0  0  0  0
   60.2399   34.0976   45.8145 H   0  0  0  0  0  0  0  0  0  0  0  0
   60.6407   35.6519   46.6765 H   0  0  0  0  0  0  0  0  0  0  0  0
   62.2808   32.9236   45.6804 H   0  0  0  0  0  0  0  0  0  0  0  0
   64.2018   31.8202   46.8286 H   0  0  0  0  0  0  0  0  0  0  0  0
   64.5972   32.2140   49.2621 H   0  0  0  0  0  0  0  0  0  0  0  0
   63.0796   33.7222   50.5468 H   0  0  0  0  0  0  0  0  0  0  0  0
   61.1528   34.8241   49.4090 H   0  0  0  0  0  0  0  0  0  0  0  0
  1  2  1  0
  2  3  1  0
  3  4  1  0
  4  5  1  0
  5  6  1  0
  6  7  1  0
  7  8  1  0
  8  9  1  0
  9 10  1  0
 10 11  1  0
 11 12  1  0
 12 13  1  0
 13 14  1  0
 14 15  1  0
 15 16  1  0
 16 17  1  0
 17 18  1  0
 18 19  2  0
 19 20  1  0
 20 21  2  0
 21 22  1  0
 21 23  1  0
 23 24  2  0
 11 25  1  0
 25 26  1  0
 26 27  1  0
 27 28  2  0
 28 29  1  0
 29 30  2  0
 30 31  1  0
 31 32  2  0
 24 18  1  0
 32 27  1  0
  1 33  1  0
  1 34  1  0
  1 35  1  0
  2 36  1  0
  2 37  1  0
  3 38  1  0
  3 39  1  0
  4 40  1  0
  4 41  1  0
  5 42  1  0
  5 43  1  0
  7 44  1  0
  7 45  1  0
  8 46  1  0
  8 47  1  0
  9 48  1  0
  9 49  1  0
 10 50  1  0
 10 51  1  0
 12 52  1  0
 12 53  1  0
 13 54  1  0
 13 55  1  0
 14 56  1  0
 14 57  1  0
 15 58  1  0
 16 59  1  0
 16 60  1  0
 17 61  1  0
 17 62  1  0
 19 63  1  0
 20 64  1  0
 23 65  1  0
 24 66  1  0
 25 67  1  0
 25 68  1  0
 26 69  1  0
 26 70  1  0
 28 71  1  0
 29 72  1  0
 30 73  1  0
 31 74  1  0
 32 75  1  0
M  CHG  1   3   1
M  END
>  <UniqueID>  (21) 
20

>  <SMILES>  (21) 
CC[NH2+]CCOCCCCN(CCCNCCc1ccc(F)cc1)CCc1ccccc1

>  <Energy>  (21) 
67.95238458279715

>  <Genealogy>  (21) 
CC[NH2+]CCOCCCCN(CCCNCCc1ccc(F)cc1)CCc1ccccc1 (protonated)
CC[NH2+]CCOCCCCN(CCCNCCc1ccc(F)cc1)CCc1ccccc1 (3D coordinates assigned)
CC[NH2+]CCOCCCCN(CCCNCCc1ccc(F)cc1)CCc1ccccc1 (optimized conformer: 67.95238458279715 kcal/mol)

>  <smiles>  (21) 
CCNCCOCCCCN(CCCNCCc1ccc(F)cc1)CCc1ccccc1

>  <score_type>  (21) 
oracle

>  <origin>  (21) 
adg

>  <m_score__min__energy>  (21) 
-5.9699999999999998

>  <m_primary>  (21) 
energy

$$$$
21:0
     RDKit          3D

 30 32  0  0  0  0  0  0  0  0999 V2000
   60.1750   31.0810   48.0800 C   0  0  0  0  0  0  0  0  0  0  0  0
   59.2560   31.4430   47.0000 N   0  0  0  0  0  0  0  0  0  0  0  0
   59.1360   32.6500   46.3900 C   0  0  0  0  0  0  0  0  0  0  0  0
   59.8090   33.8380   46.6820 C   0  0  0  0  0  0  0  0  0  0  0  0
   59.5100   34.9620   45.8900 C   0  0  0  0  0  0  0  0  0  0  0  0
   58.5970   34.8760   44.8720 N   0  0  0  0  0  0  0  0  0  0  0  0
   57.9440   33.7130   44.5820 C   0  0  0  0  0  0  0  0  0  0  0  0
   58.2260   32.5930   45.3580 C   0  0  0  0  0  0  0  0  0  0  0  0
   57.7730   31.2960   45.3050 C   0  0  0  0  0  0  0  0  0  0  0  0
   56.8690   30.6680   44.4510 C   0  0  0  0  0  0  0  0  0  0  0  0
   56.6350   29.2960   44.6400 C   0  0  0  0  0  0  0  0  0  0  0  0
   57.3100   28.5820   45.6600 C   0  0  0  0  0  0  0  0  0  0  0  0
   56.9970   26.8650   45.8870 S   0  0  0  0  0  0  0  0  0  0  0  0
   57.6490   25.9600   44.5020 C   0  0  0  0  0  0  0  0  0  0  0  0
   55.5170   26.6270   45.9920 O   0  0  0  0  0  0  0  0  0  0  0  0
   57.6540   26.3890   47.1520 O   0  0  0  0  0  0  0  0  0  0  0  0
   58.2170   29.2480   46.5100 C   0  0  0  0  0  0  0  0  0  0  0  0
   58.4280   30.6160   46.3120 C   0  0  0  0  0  0  0  0  0  0  0  0
   59.6932   31.2708   49.0505 H   0  0  0  0  0  0  0  0  0  0  0  0
   60.4321   30.0144   48.0006 H   0  0  0  0  0  0  0  0  0  0  0  0
   61.0904   31.6857   48.0006 H   0  0  0  0  0  0  0  0  0  0  0  0
   60.5438   33.8931   47.4987 H   0  0  0  0  0  0  0  0  0  0  0  0
   60.0141   35.9190   46.0901 H   0  0  0  0  0  0  0  0  0  0  0  0
   57.2161   33.6626   43.7589 H   0  0  0  0  0  0  0  0  0  0  0  0
   56.3557   31.2279   43.6554 H   0  0  0  0  0  0  0  0  0  0  0  0
   55.9203   28.7708   43.9893 H   0  0  0  0  0  0  0  0  0  0  0  0
   58.2556   25.1180   44.8669 H   0  0  0  0  0  0  0  0  0  0  0  0
   56.8186   25.5761   43.8912 H   0  0  0  0  0  0  0  0  0  0  0  0
   58.2761   26.6261   43.8912 H   0  0  0  0  0  0  0  0  0  0  0  0
   58.7448   28.7054   47.3081 H   0  0  0  0  0  0  0  0  0  0  0  0
  1  2  1  0
  2  3  1  0
  3  4  2  0
  4  5  1  0
  5  6  2  0
  6  7  1  0
  7  8  2  0
  8  9  1  0
  9 10  2  0
 10 11  1  0
 11 12  2  0
 12 13  1  0
 13 14  1  0
 13 15  2  0
 13 16  2  0
 12 17  1  0
 17 18  2  0
 18  2  1  0
  8  3  1  0
 18  9  1  0
  1 19  1  0
  1 20  1  0
  1 21  1  0
  4 22  1  0
  5 23  1  0
  7 24  1  0
 10 25  1  0
 11 26  1  0
 14 27  1  0
 14 28  1  0
 14 29  1  0
 17 30  1  0
M  END
>  <UniqueID>  (22) 
21

>  <SMILES>  (22) 
Cn1c2ccncc2c2ccc(S(C)(=O)=O)cc21

>  <Energy>  (22) 
73.09011579510029

>  <Genealogy>  (22) 
Cn1c2ccncc2c2ccc(S(C)(=O)=O)cc21 (3D coordinates assigned)
Cn1c2ccncc2c2ccc(S(C)(=O)=O)cc21 (optimized conformer: 73.09011579510029 kcal/mol)

>  <smiles>  (22) 
Cn1c2ccncc2c2ccc(S(C)(=O)=O)cc21

>  <score_type>  (22) 
oracle

>  <origin>  (22) 
adg

>  <m_score__min__energy>  (22) 
-7.1399999999999997

>  <m_primary>  (22) 
energy

$$$$
22:0
     RDKit          3D

 68 70  0  0  0  0  0  0  0  0999 V2000
   63.3940   33.8420   46.3720 C   0  0  0  0  0  0  0  0  0  0  0  0
   63.0980   34.0040   47.8580 C   0  0  0  0  0  0  0  0  0  0  0  0
   62.8810   32.6680   48.4740 N   0  0  0  0  0  0  0  0  0  0  0  0
   63.6530   32.5080   49.7270 C   0  0  0  0  0  0  0  0  0  0  0  0
   63.5320   33.7510   50.6090 C   0  0  0  0  0  0  0  0  0  0  0  0
   63.1840   31.5680   47.5290 C   0  0  0  0  0  0  0  0  0  0  0  0
   61.9140   30.7910   47.1400 C   0  0  0  0  0  0  0  0  0  0  0  0
   61.0450   30.4130   48.3470 C   0  0  0  0  0  0  0  0  0  0  0  0
   59.6250   30.6680   48.1030 N   0  0  0  0  0  0  0  0  0  0  0  0
   59.1410   30.7390   46.7570 C   0  0  0  0  0  0  0  0  0  0  0  0
   58.9490   29.5460   46.0400 C   0  0  0  0  0  0  0  0  0  0  0  0
   59.4390   28.3200   46.5370 C   0  0  0  0  0  0  0  0  0  0  0  0
   59.2890   27.1440   45.8050 C   0  0  0  0  0  0  0  0  0  0  0  0
   58.6610   27.1730   44.5650 C   0  0  0  0  0  0  0  0  0  0  0  0
   58.1610   28.3730   44.0600 C   0  0  0  0  0  0  0  0  0  0  0  0
   58.2670   29.5800   44.8000 C   0  0  0  0  0  0  0  0  0  0  0  0
   57.7280   30.7640   44.3430 N   0  0  0  0  0  0  0  0  0  0  0  0
   56.7390   30.7490   43.2420 C   0  0  0  0  0  0  0  0  0  0  0  0
   58.1000   31.9630   44.9240 C   0  0  0  0  0  0  0  0  0  0  0  0
   57.8010   33.2000   44.3010 C   0  0  0  0  0  0  0  0  0  0  0  0
   58.1450   34.4080   44.8920 C   0  0  0  0  0  0  0  0  0  0  0  0
   58.8290   34.4250   46.0960 C   0  0  0  0  0  0  0  0  0  0  0  0
   59.1910   33.2330   46.7310 C   0  0  0  0  0  0  0  0  0  0  0  0
   60.0220   33.3300   47.8950 N   0  0  0  0  0  0  0  0  0  0  0  0
   59.7870   34.3910   48.8760 C   0  0  0  0  0  0  0  0  0  0  0  0
   59.7350   33.8420   50.3080 C   0  0  0  0  0  0  0  0  0  0  0  0
   59.5700   32.3710   50.3250 N   0  0  0  0  0  0  0  0  0  0  0  0
   58.1980   32.0220   50.7280 C   0  0  0  0  0  0  0  0  0  0  0  0
   60.5240   31.7370   51.2540 C   0  0  0  0  0  0  0  0  0  0  0  0
   58.8140   31.9780   46.1600 C   0  0  0  0  0  0  0  0  0  0  0  0
   64.3524   33.3175   46.2441 H   0  0  0  0  0  0  0  0  0  0  0  0
   62.5904   33.2579   45.8996 H   0  0  0  0  0  0  0  0  0  0  0  0
   63.4528   34.8337   45.8996 H   0  0  0  0  0  0  0  0  0  0  0  0
   63.9490   34.4990   48.3486 H   0  0  0  0  0  0  0  0  0  0  0  0
   62.1922   34.6152   47.9847 H   0  0  0  0  0  0  0  0  0  0  0  0
   63.2677   31.6374   50.2779 H   0  0  0  0  0  0  0  0  0  0  0  0
   64.7126   32.3636   49.4692 H   0  0  0  0  0  0  0  0  0  0  0  0
   63.5609   33.4536   51.6676 H   0  0  0  0  0  0  0  0  0  0  0  0
   64.3679   34.4338   50.3970 H   0  0  0  0  0  0  0  0  0  0  0  0
   62.5801   34.2598   50.3970 H   0  0  0  0  0  0  0  0  0  0  0  0
   63.6357   31.9922   46.6201 H   0  0  0  0  0  0  0  0  0  0  0  0
   63.8769   30.8707   48.0227 H   0  0  0  0  0  0  0  0  0  0  0  0
   61.3160   31.4158   46.4603 H   0  0  0  0  0  0  0  0  0  0  0  0
   62.2366   29.8541   46.6624 H   0  0  0  0  0  0  0  0  0  0  0  0
   61.1817   29.3428   48.5614 H   0  0  0  0  0  0  0  0  0  0  0  0
   61.3595   31.0335   49.1990 H   0  0  0  0  0  0  0  0  0  0  0  0
   58.9620   30.8630   48.8840 H   0  0  0  0  0  0  0  0  0  0  0  0
   59.9451   28.2922   47.5133 H   0  0  0  0  0  0  0  0  0  0  0  0
   59.6673   26.1930   46.2080 H   0  0  0  0  0  0  0  0  0  0  0  0
   58.5582   26.2468   43.9805 H   0  0  0  0  0  0  0  0  0  0  0  0
   57.6767   28.3845   43.0724 H   0  0  0  0  0  0  0  0  0  0  0  0
   55.7226   30.7336   43.6623 H   0  0  0  0  0  0  0  0  0  0  0  0
   56.8661   31.6492   42.6227 H   0  0  0  0  0  0  0  0  0  0  0  0
   56.8933   29.8531   42.6227 H   0  0  0  0  0  0  0  0  0  0  0  0
   57.2857   33.2031   43.3291 H   0  0  0  0  0  0  0  0  0  0  0  0
   57.8734   35.3548   44.4024 H   0  0  0  0  0  0  0  0  0  0  0  0
   59.0908   35.3881   46.5585 H   0  0  0  0  0  0  0  0  0  0  0  0
   60.7450   32.5970   48.0660 H   0  0  0  0  0  0  0  0  0  0  0  0
   60.6014   35.1271   48.8063 H   0  0  0  0  0  0  0  0  0  0  0  0
   58.8148   34.8544   48.6521 H   0  0  0  0  0  0  0  0  0  0  0  0
   60.6714   34.1016   50.8235 H   0  0  0  0  0  0  0  0  0  0  0  0
   58.8681   34.2901   50.8157 H   0  0  0  0  0  0  0  0  0  0  0  0
   58.1314   32.0051   51.8259 H   0  0  0  0  0  0  0  0  0  0  0  0
   57.4972   32.7705   50.3297 H   0  0  0  0  0  0  0  0  0  0  0  0
   57.9400   31.0296   50.3297 H   0  0  0  0  0  0  0  0  0  0  0  0
   60.2171   31.9410   52.2904 H   0  0  0  0  0  0  0  0  0  0  0  0
   60.5361   30.6506   51.0822 H   0  0  0  0  0  0  0  0  0  0  0  0
   61.5303   32.1466   51.0822 H   0  0  0  0  0  0  0  0  0  0  0  0
  1  2  1  0
  2  3  1  0
  3  4  1  0
  4  5  1  0
  3  6  1  0
  6  7  1  0
  7  8  1  0
  8  9  1  0
  9 10  1  0
 10 11  2  0
 11 12  1  0
 12 13  2  0
 13 14  1  0
 14 15  2  0
 15 16  1  0
 16 17  2  0
 17 18  1  0
 17 19  1  0
 19 20  2  0
 20 21  1  0
 21 22  2  0
 22 23  1  0
 23 24  1  0
 24 25  1  0
 25 26  1  0
 26 27  1  0
 27 28  1  0
 27 29  1  0
 23 30  2  0
 30 10  1  0
 16 11  1  0
 30 19  1  0
  1 31  1  0
  1 32  1  0
  1 33  1  0
  2 34  1  0
  2 35  1  0
  4 36  1  0
  4 37  1  0
  5 38  1  0
  5 39  1  0
  5 40  1  0
  6 41  1  0
  6 42  1  0
  7 43  1  0
  7 44  1  0
  8 45  1  0
  8 46  1  0
  9 47  1  0
 12 48  1  0
 13 49  1  0
 14 50  1  0
 15 51  1  0
 18 52  1  0
 18 53  1  0
 18 54  1  0
 20 55  1  0
 21 56  1  0
 22 57  1  0
 24 58  1  0
 25 59  1  0
 25 60  1  0
 26 61  1  0
 26 62  1  0
 28 63  1  0
 28 64  1  0
 28 65  1  0
 29 66  1  0
 29 67  1  0
 29 68  1  0
M  CHG  1  17   1
M  END
>  <UniqueID>  (23) 
22

>  <SMILES>  (23) 
CCN(CC)CCCNc1c2ccccc2[n+](C)c2cccc(NCCN(C)C)c12

>  <Energy>  (23) 
95.36380721601374

>  <Genealogy>  (23) 
CCN(CC)CCCNc1c2ccccc2[n+](C)c2cccc(NCCN(C)C)c12 (3D coordinates assigned)
CCN(CC)CCCNc1c2ccccc2[n+](C)c2cccc(NCCN(C)C)c12 (optimized conformer: 95.36380721601374 kcal/mol)

>  <smiles>  (23) 
CCN(CC)CCCNc1c2ccccc2[n+](C)c2cccc(NCCN(C)C)c12

>  <score_type>  (23) 
oracle

>  <origin>  (23) 
adg

>  <m_score__min__energy>  (23) 
-5.2800000000000002

>  <m_primary>  (23) 
energy

$$$$
23:0
     RDKit          3D

 66 68  0  0  0  0  0  0  0  0999 V2000
   63.3950   31.8090   47.4730 C   0  0  0  0  0  0  0  0  0  0  0  0
   63.0410   33.1810   48.0650 C   0  0  0  0  0  0  0  0  0  0  0  0
   61.7290   33.2240   48.7580 N   0  0  0  0  0  0  0  0  0  0  0  0
   60.6260   33.7440   47.9140 C   0  0  0  0  0  0  0  0  0  0  0  0
   61.0520   33.9220   46.4570 C   0  0  0  0  0  0  0  0  0  0  0  0
   61.8130   33.9440   50.0510 C   0  0  0  0  0  0  0  0  0  0  0  0
   62.1890   32.9840   51.1930 C   0  0  0  0  0  0  0  0  0  0  0  0
   62.6200   31.7320   50.6990 O   0  0  0  0  0  0  0  0  0  0  0  0
   62.1110   30.6600   51.4760 C   0  0  0  0  0  0  0  0  0  0  0  0
   62.0280   29.4090   50.6020 C   0  0  0  0  0  0  0  0  0  0  0  0
   60.6940   29.3350   49.8530 C   0  0  0  0  0  0  0  0  0  0  0  0
   60.2510   30.6880   49.4820 N   0  0  0  0  0  0  0  0  0  0  0  0
   59.3050   30.6760   48.3530 C   0  0  0  0  0  0  0  0  0  0  0  0
   59.9910   30.2980   47.0300 C   0  0  0  0  0  0  0  0  0  0  0  0
   59.0340   29.5510   46.1260 C   0  0  0  0  0  0  0  0  0  0  0  0
   58.1270   30.2210   45.2600 C   0  0  0  0  0  0  0  0  0  0  0  0
   58.0550   31.7000   45.2450 C   0  0  0  0  0  0  0  0  0  0  0  0
   58.4990   32.4160   44.1220 C   0  0  0  0  0  0  0  0  0  0  0  0
   58.4430   33.8130   44.1140 C   0  0  0  0  0  0  0  0  0  0  0  0
   57.9640   34.5020   45.2310 C   0  0  0  0  0  0  0  0  0  0  0  0
   57.5380   33.7940   46.3590 C   0  0  0  0  0  0  0  0  0  0  0  0
   57.5750   32.3970   46.3650 C   0  0  0  0  0  0  0  0  0  0  0  0
   57.2850   29.4560   44.3990 C   0  0  0  0  0  0  0  0  0  0  0  0
   56.3090   30.1310   43.4710 C   0  0  0  0  0  0  0  0  0  0  0  0
   57.3810   28.0910   44.3800 N   0  0  0  0  0  0  0  0  0  0  0  0
   58.2610   27.4500   45.1910 C   0  0  0  0  0  0  0  0  0  0  0  0
   58.4480   26.0640   45.2420 C   0  0  0  0  0  0  0  0  0  0  0  0
   57.7550   25.1810   44.4820 F   0  0  0  0  0  0  0  0  0  0  0  0
   59.4290   25.6760   46.1510 C   0  0  0  0  0  0  0  0  0  0  0  0
   60.0560   27.0650   46.8850 S   0  0  0  0  0  0  0  0  0  0  0  0
   59.0780   28.1550   46.0510 C   0  0  0  0  0  0  0  0  0  0  0  0
   63.5794   31.0943   48.2886 H   0  0  0  0  0  0  0  0  0  0  0  0
   62.5599   31.4506   46.8532 H   0  0  0  0  0  0  0  0  0  0  0  0
   64.2992   31.8994   46.8532 H   0  0  0  0  0  0  0  0  0  0  0  0
   63.8225   33.4567   48.7883 H   0  0  0  0  0  0  0  0  0  0  0  0
   62.9757   33.8826   47.2203 H   0  0  0  0  0  0  0  0  0  0  0  0
   59.7850   33.0361   47.9537 H   0  0  0  0  0  0  0  0  0  0  0  0
   60.3362   34.7304   48.3052 H   0  0  0  0  0  0  0  0  0  0  0  0
   62.0664   34.3459   46.4207 H   0  0  0  0  0  0  0  0  0  0  0  0
   61.0444   32.9454   45.9508 H   0  0  0  0  0  0  0  0  0  0  0  0
   60.3518   34.6028   45.9508 H   0  0  0  0  0  0  0  0  0  0  0  0
   62.5782   34.7307   49.9757 H   0  0  0  0  0  0  0  0  0  0  0  0
   60.8291   34.3834   50.2721 H   0  0  0  0  0  0  0  0  0  0  0  0
   63.0006   33.4331   51.7844 H   0  0  0  0  0  0  0  0  0  0  0  0
   61.2955   32.8202   51.8133 H   0  0  0  0  0  0  0  0  0  0  0  0
   62.7808   30.4712   52.3279 H   0  0  0  0  0  0  0  0  0  0  0  0
   61.1105   30.9168   51.8541 H   0  0  0  0  0  0  0  0  0  0  0  0
   62.8485   29.4296   49.8696 H   0  0  0  0  0  0  0  0  0  0  0  0
   62.1071   28.5266   51.2540 H   0  0  0  0  0  0  0  0  0  0  0  0
   60.8201   28.7303   48.9428 H   0  0  0  0  0  0  0  0  0  0  0  0
   59.9382   28.8731   50.5052 H   0  0  0  0  0  0  0  0  0  0  0  0
   61.0870   31.2690   49.2350 H   0  0  0  0  0  0  0  0  0  0  0  0
   58.5110   29.9443   48.5629 H   0  0  0  0  0  0  0  0  0  0  0  0
   58.8933   31.6902   48.2443 H   0  0  0  0  0  0  0  0  0  0  0  0
   60.3264   31.2144   46.5224 H   0  0  0  0  0  0  0  0  0  0  0  0
   60.8503   29.6476   47.2502 H   0  0  0  0  0  0  0  0  0  0  0  0
   58.8915   31.8771   43.2471 H   0  0  0  0  0  0  0  0  0  0  0  0
   58.7767   34.3707   43.2265 H   0  0  0  0  0  0  0  0  0  0  0  0
   57.9220   35.6012   45.2231 H   0  0  0  0  0  0  0  0  0  0  0  0
   57.1732   34.3375   47.2430 H   0  0  0  0  0  0  0  0  0  0  0  0
   57.2273   31.8425   47.2491 H   0  0  0  0  0  0  0  0  0  0  0  0
   55.5460   30.6587   44.0621 H   0  0  0  0  0  0  0  0  0  0  0  0
   56.8450   30.8523   42.8367 H   0  0  0  0  0  0  0  0  0  0  0  0
   55.8233   29.3749   42.8367 H   0  0  0  0  0  0  0  0  0  0  0  0
   56.7770   27.5310   43.7360 H   0  0  0  0  0  0  0  0  0  0  0  0
   59.7428   24.6420   46.3567 H   0  0  0  0  0  0  0  0  0  0  0  0
  1  2  1  0
  2  3  1  0
  3  4  1  0
  4  5  1  0
  3  6  1  0
  6  7  1  0
  7  8  1  0
  8  9  1  0
  9 10  1  0
 10 11  1  0
 11 12  1  0
 12 13  1  0
 13 14  1  0
 14 15  1  0
 15 16  2  0
 16 17  1  0
 17 18  2  0
 18 19  1  0
 19 20  2  0
 20 21  1  0
 21 22  2  0
 16 23  1  0
 23 24  1  0
 23 25  2  0
 25 26  1  0
 26 27  1  0
 27 28  1  0
 27 29  2  0
 29 30  1  0
 30 31  1  0
 31 15  1  0
 22 17  1  0
 31 26  2  0
  1 32  1  0
  1 33  1  0
  1 34  1  0
  2 35  1  0
  2 36  1  0
  4 37  1  0
  4 38  1  0
  5 39  1  0
  5 40  1  0
  5 41  1  0
  6 42  1  0
  6 43  1  0
  7 44  1  0
  7 45  1  0
  9 46  1  0
  9 47  1  0
 10 48  1  0
 10 49  1  0
 11 50  1  0
 11 51  1  0
 12 52  1  0
 13 53  1  0
 13 54  1  0
 14 55  1  0
 14 56  1  0
 18 57  1  0
 19 58  1  0
 20 59  1  0
 21 60  1  0
 22 61  1  0
 24 62  1  0
 24 63  1  0
 24 64  1  0
 25 65  1  0
 29 66  1  0
M  CHG  1  25   1
M  END
>  <UniqueID>  (24) 
23

>  <SMILES>  (24) 
CCN(CC)CCOCCCNCCc1c(-c2ccccc2)c(C)[nH+]c2c(F)csc12

>  <Energy>  (24) 
102.73248046806111

>  <Genealogy>  (24) 
CCN(CC)CCOCCCNCCc1c(-c2ccccc2)c(C)[nH+]c2c(F)csc12 (protonated)
CCN(CC)CCOCCCNCCc1c(-c2ccccc2)c(C)[nH+]c2c(F)csc12 (3D coordinates assigned)
CCN(CC)CCOCCCNCCc1c(-c2ccccc2)c(C)[nH+]c2c(F)csc12 (optimized conformer: 102.73248046806111 kcal/mol)

>  <smiles>  (24) 
CCN(CC)CCOCCCNCCc1c(-c2ccccc2)c(C)nc2c(F)csc12

>  <score_type>  (24) 
oracle

>  <origin>  (24) 
adg

>  <m_score__min__energy>  (24) 
-5.8700000000000001

>  <m_primary>  (24) 
energy

$$$$
24:0
     RDKit          3D

 50 52  0  0  0  0  0  0  0  0999 V2000
   60.7680   26.7270   49.9590 C   0  0  0  0  0  0  0  0  0  0  0  0
   61.1180   27.8700   50.5490 C   0  0  0  0  0  0  0  0  0  0  0  0
   61.0670   29.1930   49.8800 C   0  0  0  0  0  0  0  0  0  0  0  0
   61.7800   30.2550   50.4390 C   0  0  0  0  0  0  0  0  0  0  0  0
   61.7760   31.5110   49.8350 C   0  0  0  0  0  0  0  0  0  0  0  0
   61.0540   31.7500   48.6410 C   0  0  0  0  0  0  0  0  0  0  0  0
   60.2600   30.6950   48.1180 C   0  0  0  0  0  0  0  0  0  0  0  0
   60.2870   29.4270   48.7370 C   0  0  0  0  0  0  0  0  0  0  0  0
   59.4590   30.9300   46.9850 C   0  0  0  0  0  0  0  0  0  0  0  0
   58.6920   29.8620   46.4010 N   0  0  0  0  0  0  0  0  0  0  0  0
   59.2910   28.9390   45.4370 C   0  0  0  0  0  0  0  0  0  0  0  0
   58.2170   28.2610   44.5790 C   0  0  0  0  0  0  0  0  0  0  0  0
   56.8410   28.2670   45.2550 C   0  0  0  0  0  0  0  0  0  0  0  0
   56.2790   29.6240   45.2190 N   0  0  0  0  0  0  0  0  0  0  0  0
   55.6850   29.9480   43.9130 C   0  0  0  0  0  0  0  0  0  0  0  0
   56.6700   30.6570   42.9780 C   0  0  0  0  0  0  0  0  0  0  0  0
   59.3680   32.2310   46.4600 C   0  0  0  0  0  0  0  0  0  0  0  0
   58.4570   32.5310   45.4250 C   0  0  0  0  0  0  0  0  0  0  0  0
   58.3380   33.8290   44.9360 C   0  0  0  0  0  0  0  0  0  0  0  0
   59.1040   34.8520   45.4810 C   0  0  0  0  0  0  0  0  0  0  0  0
   60.0090   34.5810   46.5080 C   0  0  0  0  0  0  0  0  0  0  0  0
   60.1830   33.2620   47.0020 C   0  0  0  0  0  0  0  0  0  0  0  0
   61.0970   32.9730   47.9970 N   0  0  0  0  0  0  0  0  0  0  0  0
   62.1360   33.9630   48.3580 C   0  0  0  0  0  0  0  0  0  0  0  0
   60.8303   25.7797   50.5146 H   0  0  0  0  0  0  0  0  0  0  0  0
   60.4168   26.7312   48.9166 H   0  0  0  0  0  0  0  0  0  0  0  0
   61.4646   27.8298   51.5922 H   0  0  0  0  0  0  0  0  0  0  0  0
   62.3511   30.0989   51.3661 H   0  0  0  0  0  0  0  0  0  0  0  0
   62.3449   32.3325   50.2949 H   0  0  0  0  0  0  0  0  0  0  0  0
   59.6860   28.6075   48.3161 H   0  0  0  0  0  0  0  0  0  0  0  0
   57.7600   29.6270   46.8110 H   0  0  0  0  0  0  0  0  0  0  0  0
   59.9741   29.4985   44.7810 H   0  0  0  0  0  0  0  0  0  0  0  0
   59.8366   28.1613   45.9915 H   0  0  0  0  0  0  0  0  0  0  0  0
   58.1420   28.7944   43.6199 H   0  0  0  0  0  0  0  0  0  0  0  0
   58.5155   27.2123   44.4339 H   0  0  0  0  0  0  0  0  0  0  0  0
   56.1687   27.5783   44.7224 H   0  0  0  0  0  0  0  0  0  0  0  0
   56.9470   27.9436   46.3010 H   0  0  0  0  0  0  0  0  0  0  0  0
   55.5480   29.7130   45.9650 H   0  0  0  0  0  0  0  0  0  0  0  0
   55.3549   29.0141   43.4345 H   0  0  0  0  0  0  0  0  0  0  0  0
   54.8423   30.6324   44.0906 H   0  0  0  0  0  0  0  0  0  0  0  0
   57.4194   31.1964   43.5758 H   0  0  0  0  0  0  0  0  0  0  0  0
   57.1736   29.9129   42.3434 H   0  0  0  0  0  0  0  0  0  0  0  0
   56.1242   31.3708   42.3434 H   0  0  0  0  0  0  0  0  0  0  0  0
   57.8339   31.7304   44.9998 H   0  0  0  0  0  0  0  0  0  0  0  0
   57.6364   34.0450   44.1168 H   0  0  0  0  0  0  0  0  0  0  0  0
   58.9967   35.8789   45.1017 H   0  0  0  0  0  0  0  0  0  0  0  0
   60.5971   35.4032   46.9418 H   0  0  0  0  0  0  0  0  0  0  0  0
   62.2103   34.0338   49.4532 H   0  0  0  0  0  0  0  0  0  0  0  0
   63.1046   33.6453   47.9446 H   0  0  0  0  0  0  0  0  0  0  0  0
   61.8655   34.9458   47.9446 H   0  0  0  0  0  0  0  0  0  0  0  0
  1  2  2  0
  2  3  1  0
  3  4  2  0
  4  5  1  0
  5  6  2  0
  6  7  1  0
  7  8  2  0
  7  9  1  0
  9 10  1  0
 10 11  1  0
 11 12  1  0
 12 13  1  0
 13 14  1  0
 14 15  1  0
 15 16  1  0
  9 17  2  0
 17 18  1  0
 18 19  2  0
 19 20  1  0
 20 21  2  0
 21 22  1  0
 22 23  2  0
 23 24  1  0
  8  3  1  0
 22 17  1  0
 23  6  1  0
  1 25  1  0
  1 26  1  0
  2 27  1  0
  4 28  1  0
  5 29  1  0
  8 30  1  0
 10 31  1  0
 11 32  1  0
 11 33  1  0
 12 34  1  0
 12 35  1  0
 13 36  1  0
 13 37  1  0
 14 38  1  0
 15 39  1  0
 15 40  1  0
 16 41  1  0
 16 42  1  0
 16 43  1  0
 18 44  1  0
 19 45  1  0
 20 46  1  0
 21 47  1  0
 24 48  1  0
 24 49  1  0
 24 50  1  0
M  CHG  1  23   1
M  END
>  <UniqueID>  (25) 
24

>  <SMILES>  (25) 
C=Cc1ccc2c(c1)c(NCCCNCC)c1ccccc1[n+]2C

>  <Energy>  (25) 
71.71955420898179

>  <Genealogy>  (25) 
C=Cc1ccc2c(c1)c(NCCCNCC)c1ccccc1[n+]2C (3D coordinates assigned)
C=Cc1ccc2c(c1)c(NCCCNCC)c1ccccc1[n+]2C (optimized conformer: 71.71955420898179 kcal/mol)

>  <smiles>  (25) 
C=Cc1ccc2c(c1)c(NCCCNCC)c1ccccc1[n+]2C

>  <score_type>  (25) 
oracle

>  <origin>  (25) 
adg

>  <m_score__min__energy>  (25) 
-6.0499999999999998

>  <m_primary>  (25) 
energy

$$$$
25:0
     RDKit          3D

 47 48  0  0  0  0  0  0  0  0999 V2000
   60.7310   30.4230   48.3120 C   0  0  0  0  0  0  0  0  0  0  0  0
   60.9010   30.4840   46.7970 C   0  0  0  0  0  0  0  0  0  0  0  0
   59.8400   29.7310   46.1310 N   0  0  0  0  0  0  0  0  0  0  0  0
   60.1130   28.7380   45.1320 C   0  0  0  0  0  0  0  0  0  0  0  0
   61.2400   28.7000   44.5680 O   0  0  0  0  0  0  0  0  0  0  0  0
   59.0720   27.7130   44.7740 C   0  0  0  0  0  0  0  0  0  0  0  0
   57.8270   28.3720   44.1740 C   0  0  0  0  0  0  0  0  0  0  0  0
   57.2480   29.3070   45.1310 N   0  0  0  0  0  0  0  0  0  0  0  0
   56.7450   30.5930   44.7700 C   0  0  0  0  0  0  0  0  0  0  0  0
   55.5220   30.7390   44.5040 O   0  0  0  0  0  0  0  0  0  0  0  0
   57.6780   31.7310   44.6430 C   0  0  0  0  0  0  0  0  0  0  0  0
   58.0760   32.3670   43.4740 C   0  0  0  0  0  0  0  0  0  0  0  0
   57.7370   31.9740   42.0720 C   0  0  0  0  0  0  0  0  0  0  0  0
   58.7500   33.4920   43.7770 N   0  0  0  0  0  0  0  0  0  0  0  0
   58.8230   33.5820   45.0960 N   0  0  0  0  0  0  0  0  0  0  0  0
   59.3370   34.7740   45.7700 C   0  0  0  0  0  0  0  0  0  0  0  0
   60.4040   34.3850   46.7590 C   0  0  0  0  0  0  0  0  0  0  0  0
   60.1670   34.5270   48.1380 C   0  0  0  0  0  0  0  0  0  0  0  0
   61.1360   34.1280   49.0640 C   0  0  0  0  0  0  0  0  0  0  0  0
   62.3460   33.5840   48.6220 C   0  0  0  0  0  0  0  0  0  0  0  0
   63.2820   33.1940   49.5220 F   0  0  0  0  0  0  0  0  0  0  0  0
   62.5890   33.4420   47.2520 C   0  0  0  0  0  0  0  0  0  0  0  0
   61.6230   33.8400   46.3240 C   0  0  0  0  0  0  0  0  0  0  0  0
   58.1910   32.5260   45.6610 C   0  0  0  0  0  0  0  0  0  0  0  0
   57.9070   32.3740   47.1290 C   0  0  0  0  0  0  0  0  0  0  0  0
   61.6594   30.7561   48.7989 H   0  0  0  0  0  0  0  0  0  0  0  0
   59.9022   31.0798   48.6147 H   0  0  0  0  0  0  0  0  0  0  0  0
   60.5088   29.3891   48.6147 H   0  0  0  0  0  0  0  0  0  0  0  0
   60.8596   31.5335   46.4703 H   0  0  0  0  0  0  0  0  0  0  0  0
   61.8720   30.0412   46.5303 H   0  0  0  0  0  0  0  0  0  0  0  0
   58.8510   29.8980   46.4250 H   0  0  0  0  0  0  0  0  0  0  0  0
   59.4962   27.0127   44.0394 H   0  0  0  0  0  0  0  0  0  0  0  0
   58.7766   27.1825   45.6913 H   0  0  0  0  0  0  0  0  0  0  0  0
   58.1070   28.9141   43.2587 H   0  0  0  0  0  0  0  0  0  0  0  0
   57.0863   27.5946   43.9351 H   0  0  0  0  0  0  0  0  0  0  0  0
   57.0186   31.1412   42.0882 H   0  0  0  0  0  0  0  0  0  0  0  0
   57.2914   32.8325   41.5481 H   0  0  0  0  0  0  0  0  0  0  0  0
   58.6516   31.6592   41.5481 H   0  0  0  0  0  0  0  0  0  0  0  0
   59.7645   35.4592   45.0232 H   0  0  0  0  0  0  0  0  0  0  0  0
   58.5135   35.2713   46.3034 H   0  0  0  0  0  0  0  0  0  0  0  0
   59.2159   34.9535   48.4895 H   0  0  0  0  0  0  0  0  0  0  0  0
   60.9461   34.2422   50.1415 H   0  0  0  0  0  0  0  0  0  0  0  0
   63.5419   33.0164   46.9045 H   0  0  0  0  0  0  0  0  0  0  0  0
   61.8184   33.7259   45.2475 H   0  0  0  0  0  0  0  0  0  0  0  0
   58.7308   32.8149   47.7094 H   0  0  0  0  0  0  0  0  0  0  0  0
   56.9673   32.8898   47.3760 H   0  0  0  0  0  0  0  0  0  0  0  0
   57.8150   31.3061   47.3760 H   0  0  0  0  0  0  0  0  0  0  0  0
  1  2  1  0
  2  3  1  0
  3  4  1  0
  4  5  2  0
  4  6  1  0
  6  7  1  0
  7  8  1  0
  8  9  1  0
  9 10  2  0
  9 11  1  0
 11 12  1  0
 12 13  1  0
 12 14  2  0
 14 15  1  0
 15 16  1  0
 16 17  1  0
 17 18  2  0
 18 19  1  0
 19 20  2  0
 20 21  1  0
 20 22  1  0
 22 23  2  0
 15 24  1  0
 24 25  1  0
 24 11  2  0
 23 17  1  0
  1 26  1  0
  1 27  1  0
  1 28  1  0
  2 29  1  0
  2 30  1  0
  3 31  1  0
  6 32  1  0
  6 33  1  0
  7 34  1  0
  7 35  1  0
 13 36  1  0
 13 37  1  0
 13 38  1  0
 16 39  1  0
 16 40  1  0
 18 41  1  0
 19 42  1  0
 22 43  1  0
 23 44  1  0
 25 45  1  0
 25 46  1  0
 25 47  1  0
M  CHG  1   8  -1
M  END
>  <UniqueID>  (26) 
25

>  <SMILES>  (26) 
CCNC(=O)CC[N-]C(=O)c1c(C)nn(Cc2ccc(F)cc2)c1C

>  <Energy>  (26) 
64.11288086098989

>  <Genealogy>  (26) 
CCNC(=O)CC[N-]C(=O)c1c(C)nn(Cc2ccc(F)cc2)c1C (protonated)
CCNC(=O)CC[N-]C(=O)c1c(C)nn(Cc2ccc(F)cc2)c1C (3D coordinates assigned)
CCNC(=O)CC[N-]C(=O)c1c(C)nn(Cc2ccc(F)cc2)c1C (optimized conformer: 64.11288086098989 kcal/mol)

>  <smiles>  (26) 
CCNC(=O)CCNC(=O)c1c(C)nn(Cc2ccc(F)cc2)c1C

>  <score_type>  (26) 
oracle

>  <origin>  (26) 
adg

>  <m_score__min__energy>  (26) 
-8.8300000000000001

>  <m_primary>  (26) 
energy

$$$$
26:0
     RDKit          3D

 39 40  0  0  0  0  0  0  0  0999 V2000
   55.5340   29.7080   46.1280 H   0  0  0  0  0  0  0  0  0  0  0  0
   55.3910   29.4270   45.1660 O   0  0  0  0  0  0  0  0  0  0  0  0
   56.1260   30.0120   44.1620 N   0  0  0  0  0  0  0  0  0  0  0  0
   56.5520   31.2290   44.2820 C   0  0  0  0  0  0  0  0  0  0  0  0
   55.9732   32.0504   43.8344 H   0  0  0  0  0  0  0  0  0  0  0  0
   57.8010   31.5340   45.0090 C   0  0  0  0  0  0  0  0  0  0  0  0
   58.1640   32.8490   45.3280 C   0  0  0  0  0  0  0  0  0  0  0  0
   57.5135   33.6871   45.0373 H   0  0  0  0  0  0  0  0  0  0  0  0
   59.3540   33.0920   46.0160 C   0  0  0  0  0  0  0  0  0  0  0  0
   59.6367   34.1251   46.2664 H   0  0  0  0  0  0  0  0  0  0  0  0
   60.1720   32.0590   46.3820 N   0  0  0  0  0  0  0  0  0  0  0  0
   61.3980   32.3300   47.0920 C   0  0  0  0  0  0  0  0  0  0  0  0
   61.8300   31.4730   48.1210 C   0  0  0  0  0  0  0  0  0  0  0  0
   61.2316   30.5876   48.3817 H   0  0  0  0  0  0  0  0  0  0  0  0
   63.0140   31.7390   48.8140 C   0  0  0  0  0  0  0  0  0  0  0  0
   63.3391   31.0639   49.6193 H   0  0  0  0  0  0  0  0  0  0  0  0
   63.7920   32.8630   48.4890 C   0  0  0  0  0  0  0  0  0  0  0  0
   64.9940   33.1580   49.2320 N   0  0  0  0  0  0  0  0  0  0  0  0
   64.9760   34.1430   49.5890 H   0  0  0  0  0  0  0  0  0  0  0  0
   65.8200   33.0790   48.5940 H   0  0  0  0  0  0  0  0  0  0  0  0
   65.1720   32.2160   50.3510 C   0  0  0  0  0  0  0  0  0  0  0  0
   64.7108   31.2541   50.0826 H   0  0  0  0  0  0  0  0  0  0  0  0
   64.6943   32.6509   51.2413 H   0  0  0  0  0  0  0  0  0  0  0  0
   66.6370   31.9850   50.6700 C   0  0  0  0  0  0  0  0  0  0  0  0
   67.5250   32.9770   50.5220 C   0  0  0  0  0  0  0  0  0  0  0  0
   67.1929   33.9642   50.1683 H   0  0  0  0  0  0  0  0  0  0  0  0
   68.5863   32.8044   50.7542 H   0  0  0  0  0  0  0  0  0  0  0  0
   67.1040   30.6380   51.1550 C   0  0  0  0  0  0  0  0  0  0  0  0
   67.1083   30.6256   52.2549 H   0  0  0  0  0  0  0  0  0  0  0  0
   66.4238   29.8580   50.7822 H   0  0  0  0  0  0  0  0  0  0  0  0
   68.1210   30.4464   50.7822 H   0  0  0  0  0  0  0  0  0  0  0  0
   63.3600   33.7210   47.4630 C   0  0  0  0  0  0  0  0  0  0  0  0
   63.9585   34.6064   47.2025 H   0  0  0  0  0  0  0  0  0  0  0  0
   62.1750   33.4560   46.7720 C   0  0  0  0  0  0  0  0  0  0  0  0
   61.8476   34.1347   45.9706 H   0  0  0  0  0  0  0  0  0  0  0  0
   59.8320   30.7700   46.0770 C   0  0  0  0  0  0  0  0  0  0  0  0
   60.4973   29.9463   46.3752 H   0  0  0  0  0  0  0  0  0  0  0  0
   58.6490   30.4890   45.3910 C   0  0  0  0  0  0  0  0  0  0  0  0
   58.3843   29.4485   45.1515 H   0  0  0  0  0  0  0  0  0  0  0  0
  1  2  1  0
  2  3  1  0
  3  4  2  0
  4  5  1  0
  4  6  1  0
  6  7  2  0
  7  8  1  0
  7  9  1  0
  9 10  1  0
  9 11  2  0
 11 12  1  0
 12 13  2  0
 13 14  1  0
 13 15  1  0
 15 16  1  0
 15 17  2  0
 17 18  1  0
 18 19  1  0
 18 20  1  0
 18 21  1  0
 21 22  1  0
 21 23  1  0
 21 24  1  0
 24 25  2  0
 25 26  1  0
 25 27  1  0
 24 28  1  0
 28 29  1  0
 28 30  1  0
 28 31  1  0
 17 32  1  0
 32 33  1  0
 32 34  2  0
 34 35  1  0
 11 36  1  0
 36 37  1  0
 36 38  2  0
 38 39  1  0
 38  6  1  0
 34 12  1  0
M  CHG  2  11   1  18   1
M  END
>  <UniqueID>  (27) 
26

>  <SMILES>  (27) 
C=C(C)C[NH2+]c1ccc(-[n+]2ccc(/C=N/O)cc2)cc1

>  <Energy>  (27) 
40.44378662702823

>  <Genealogy>  (27) 
C=C(C)C[NH2+]c1ccc(-[n+]2ccc(C=NO)cc2)cc1 (protonated)
C=C(C)C[NH2+]c1ccc(-[n+]2ccc(/C=N/O)cc2)cc1 (cis-trans isomerization)
C=C(C)C[NH2+]c1ccc(-[n+]2ccc(/C=N/O)cc2)cc1 (3D coordinates assigned)
C=C(C)C[NH2+]c1ccc(-[n+]2ccc(/C=N/O)cc2)cc1 (optimized conformer: 40.44378662702823 kcal/mol)

>  <smiles>  (27) 
C=C(C)CNc1ccc(-[n+]2ccc(C=NO)cc2)cc1

>  <score_type>  (27) 
oracle

>  <origin>  (27) 
adg

>  <m_score__min__energy>  (27) 
-5.1399999999999997

>  <m_primary>  (27) 
energy

$$$$
