0:0
     RDKit          3D

 49 53  0  0  0  0  0  0  0  0999 V2000
   62.2990   33.3620   51.9710 C   0  0  0  0  0  0  0  0  0  0  0  0
   62.4400   34.2400   50.8590 O   0  0  0  0  0  0  0  0  0  0  0  0
   62.4480   33.8320   49.5150 C   0  0  0  0  0  0  0  0  0  0  0  0
   61.2550   33.6130   48.7980 C   0  0  0  0  0  0  0  0  0  0  0  0
   61.2900   33.1420   47.4780 C   0  0  0  0  0  0  0  0  0  0  0  0
   60.0640   32.9450   46.7580 N   0  0  0  0  0  0  0  0  0  0  0  0
   59.2290   33.9340   46.4500 N   0  0  0  0  0  0  0  0  0  0  0  0
   58.1890   33.4100   45.7590 C   0  0  0  0  0  0  0  0  0  0  0  0
   57.0280   34.2070   45.2630 C   0  0  0  0  0  0  0  0  0  0  0  0
   58.3700   32.0440   45.6430 C   0  0  0  0  0  0  0  0  0  0  0  0
   57.6100   31.0160   45.0910 C   0  0  0  0  0  0  0  0  0  0  0  0
   56.5200   31.2620   44.5040 O   0  0  0  0  0  0  0  0  0  0  0  0
   58.1030   29.6960   45.2220 C   0  0  0  0  0  0  0  0  0  0  0  0
   57.4070   28.5960   44.6910 C   0  0  0  0  0  0  0  0  0  0  0  0
   57.9110   27.3020   44.8480 C   0  0  0  0  0  0  0  0  0  0  0  0
   59.1090   27.0890   45.5350 C   0  0  0  0  0  0  0  0  0  0  0  0
   59.8160   28.1670   46.0710 C   0  0  0  0  0  0  0  0  0  0  0  0
   59.3320   29.4760   45.9230 C   0  0  0  0  0  0  0  0  0  0  0  0
   60.0290   30.5320   46.4520 N   0  0  0  0  0  0  0  0  0  0  0  0
   59.5500   31.7930   46.2800 C   0  0  0  0  0  0  0  0  0  0  0  0
   62.5280   32.9180   46.8600 C   0  0  0  0  0  0  0  0  0  0  0  0
   63.7150   33.1410   47.5600 C   0  0  0  0  0  0  0  0  0  0  0  0
   63.6860   33.6150   48.8750 C   0  0  0  0  0  0  0  0  0  0  0  0
   64.9050   33.8280   49.5340 O   0  0  0  0  0  0  0  0  0  0  0  0
   65.6350   32.8450   50.2190 C   0  0  0  0  0  0  0  0  0  0  0  0
   64.9890   31.6540   50.5750 C   0  0  0  0  0  0  0  0  0  0  0  0
   65.6850   30.6470   51.2510 C   0  0  0  0  0  0  0  0  0  0  0  0
   67.0350   30.8190   51.5660 C   0  0  0  0  0  0  0  0  0  0  0  0
   67.6930   31.9970   51.2000 C   0  0  0  0  0  0  0  0  0  0  0  0
   67.0000   33.0060   50.5240 C   0  0  0  0  0  0  0  0  0  0  0  0
   62.3911   33.9356   52.9051 H   0  0  0  0  0  0  0  0  0  0  0  0
   61.3117   32.8784   51.9335 H   0  0  0  0  0  0  0  0  0  0  0  0
   63.0853   32.5936   51.9335 H   0  0  0  0  0  0  0  0  0  0  0  0
   60.2862   33.8136   49.2789 H   0  0  0  0  0  0  0  0  0  0  0  0
   56.4588   34.5977   46.1194 H   0  0  0  0  0  0  0  0  0  0  0  0
   57.3932   35.0457   44.6521 H   0  0  0  0  0  0  0  0  0  0  0  0
   56.3766   33.5648   44.6521 H   0  0  0  0  0  0  0  0  0  0  0  0
   56.4624   28.7544   44.1500 H   0  0  0  0  0  0  0  0  0  0  0  0
   57.3616   26.4464   44.4284 H   0  0  0  0  0  0  0  0  0  0  0  0
   59.4971   26.0666   45.6541 H   0  0  0  0  0  0  0  0  0  0  0  0
   60.7571   27.9895   46.6120 H   0  0  0  0  0  0  0  0  0  0  0  0
   60.9040   30.3660   46.9980 H   0  0  0  0  0  0  0  0  0  0  0  0
   62.5644   32.5649   45.8188 H   0  0  0  0  0  0  0  0  0  0  0  0
   64.6811   32.9422   47.0730 H   0  0  0  0  0  0  0  0  0  0  0  0
   63.9284   31.5102   50.3214 H   0  0  0  0  0  0  0  0  0  0  0  0
   65.1687   29.7182   51.5351 H   0  0  0  0  0  0  0  0  0  0  0  0
   67.5801   30.0279   52.1018 H   0  0  0  0  0  0  0  0  0  0  0  0
   68.7573   32.1303   51.4441 H   0  0  0  0  0  0  0  0  0  0  0  0
   67.5227   33.9280   50.2297 H   0  0  0  0  0  0  0  0  0  0  0  0
  1  2  1  0
  2  3  1  0
  3  4  2  0
  4  5  1  0
  5  6  1  0
  6  7  1  0
  7  8  2  0
  8  9  1  0
  8 10  1  0
 10 11  1  0
 11 12  2  0
 11 13  1  0
 13 14  2  0
 14 15  1  0
 15 16  2  0
 16 17  1  0
 17 18  2  0
 18 19  1  0
 19 20  1  0
  5 21  2  0
 21 22  1  0
 22 23  2  0
 23 24  1  0
 24 25  1  0
 25 26  2  0
 26 27  1  0
 27 28  2  0
 28 29  1  0
 29 30  2  0
 23  3  1  0
 30 25  1  0
 20  6  1  0
 20 10  2  0
 18 13  1  0
  1 31  1  0
  1 32  1  0
  1 33  1  0
  4 34  1  0
  9 35  1  0
  9 36  1  0
  9 37  1  0
 14 38  1  0
 15 39  1  0
 16 40  1  0
 17 41  1  0
 19 42  1  0
 21 43  1  0
 22 44  1  0
 26 45  1  0
 27 46  1  0
 28 47  1  0
 29 48  1  0
 30 49  1  0
M  END
>  <UniqueID>  (1) 
1

>  <SMILES>  (1) 
COc1cc(-n2nc(C)c3c(=O)c4ccccc4[nH]c32)ccc1Oc1ccccc1

>  <Energy>  (1) 
111.46963537338758

>  <Genealogy>  (1) 
COc1cc(-n2nc(C)c3c(=O)c4ccccc4[nH]c32)ccc1Oc1ccccc1 (3D coordinates assigned)
COc1cc(-n2nc(C)c3c(=O)c4ccccc4[nH]c32)ccc1Oc1ccccc1 (optimized conformer: 111.46963537338758 kcal/mol)

>  <smiles>  (1) 
COc1cc(-n2nc(C)c3c(=O)c4ccccc4[nH]c32)ccc1Oc1ccccc1

>  <score_type>  (1) 
oracle

>  <origin>  (1) 
adg

>  <m_score__min__energy>  (1) 
-9.1600000000000001

>  <m_primary>  (1) 
energy

$$$$
1:0
     RDKit          3D

 59 61  0  0  0  0  0  0  0  0999 V2000
   59.9680   27.1950   46.5300 C   0  0  0  0  0  0  0  0  0  0  0  0
   58.6100   27.4100   47.1960 C   0  0  0  0  0  0  0  0  0  0  0  0
   57.5070   27.4160   46.2080 N   0  0  0  0  0  0  0  0  0  0  0  0
   56.6380   26.2120   46.2670 C   0  0  0  0  0  0  0  0  0  0  0  0
   56.9350   25.1730   45.1730 C   0  0  0  0  0  0  0  0  0  0  0  0
   57.9910   27.6960   44.8370 C   0  0  0  0  0  0  0  0  0  0  0  0
   57.0620   28.6880   44.1390 C   0  0  0  0  0  0  0  0  0  0  0  0
   56.7480   29.7640   45.0160 O   0  0  0  0  0  0  0  0  0  0  0  0
   57.2270   31.0630   44.8310 C   0  0  0  0  0  0  0  0  0  0  0  0
   56.6500   31.8400   44.0190 O   0  0  0  0  0  0  0  0  0  0  0  0
   58.3880   31.5470   45.6130 C   0  0  0  0  0  0  0  0  0  0  0  0
   59.2960   30.6080   46.1370 C   0  0  0  0  0  0  0  0  0  0  0  0
   60.4150   31.0220   46.8610 C   0  0  0  0  0  0  0  0  0  0  0  0
   60.6480   32.3860   47.0920 C   0  0  0  0  0  0  0  0  0  0  0  0
   61.7980   32.8130   47.8460 N   0  0  0  0  0  0  0  0  0  0  0  0
   61.6200   33.4680   49.1520 C   0  0  0  0  0  0  0  0  0  0  0  0
   62.7320   33.0390   50.1250 C   0  0  0  0  0  0  0  0  0  0  0  0
   64.0510   33.0200   49.4730 N   0  0  0  0  0  0  0  0  0  0  0  0
   65.1790   32.4540   50.1700 C   0  0  0  0  0  0  0  0  0  0  0  0
   65.0590   31.2300   50.8500 C   0  0  0  0  0  0  0  0  0  0  0  0
   66.1610   30.6720   51.5070 C   0  0  0  0  0  0  0  0  0  0  0  0
   67.3910   31.3330   51.4930 C   0  0  0  0  0  0  0  0  0  0  0  0
   67.5230   32.5460   50.8170 C   0  0  0  0  0  0  0  0  0  0  0  0
   66.4260   33.1040   50.1540 C   0  0  0  0  0  0  0  0  0  0  0  0
   64.1750   33.4730   48.0810 C   0  0  0  0  0  0  0  0  0  0  0  0
   63.1290   32.7580   47.2220 C   0  0  0  0  0  0  0  0  0  0  0  0
   59.7360   33.3290   46.5870 C   0  0  0  0  0  0  0  0  0  0  0  0
   58.6160   32.9240   45.8500 C   0  0  0  0  0  0  0  0  0  0  0  0
   57.5010   34.1770   45.3080 Cl  0  0  0  0  0  0  0  0  0  0  0  0
   60.7405   27.0727   47.3035 H   0  0  0  0  0  0  0  0  0  0  0  0
   59.9302   26.2917   45.9035 H   0  0  0  0  0  0  0  0  0  0  0  0
   60.2111   28.0658   45.9035 H   0  0  0  0  0  0  0  0  0  0  0  0
   58.4358   26.5995   47.9190 H   0  0  0  0  0  0  0  0  0  0  0  0
   58.6260   28.3896   47.6961 H   0  0  0  0  0  0  0  0  0  0  0  0
   56.7776   25.7322   47.2470 H   0  0  0  0  0  0  0  0  0  0  0  0
   55.6055   26.5562   46.1076 H   0  0  0  0  0  0  0  0  0  0  0  0
   57.2086   24.2158   45.6409 H   0  0  0  0  0  0  0  0  0  0  0  0
   56.0409   25.0331   44.5477 H   0  0  0  0  0  0  0  0  0  0  0  0
   57.7680   25.5268   44.5477 H   0  0  0  0  0  0  0  0  0  0  0  0
   59.0036   28.1225   44.8897 H   0  0  0  0  0  0  0  0  0  0  0  0
   58.0069   26.7569   44.2644 H   0  0  0  0  0  0  0  0  0  0  0  0
   57.5602   29.0836   43.2416 H   0  0  0  0  0  0  0  0  0  0  0  0
   56.1329   28.1724   43.8546 H   0  0  0  0  0  0  0  0  0  0  0  0
   59.1215   29.5343   45.9739 H   0  0  0  0  0  0  0  0  0  0  0  0
   61.1192   30.2736   47.2533 H   0  0  0  0  0  0  0  0  0  0  0  0
   61.6572   34.5592   49.0180 H   0  0  0  0  0  0  0  0  0  0  0  0
   60.6469   33.1706   49.5699 H   0  0  0  0  0  0  0  0  0  0  0  0
   62.7611   33.7465   50.9668 H   0  0  0  0  0  0  0  0  0  0  0  0
   62.5077   32.0198   50.4728 H   0  0  0  0  0  0  0  0  0  0  0  0
   64.0915   30.7068   50.8658 H   0  0  0  0  0  0  0  0  0  0  0  0
   66.0585   29.7123   52.0347 H   0  0  0  0  0  0  0  0  0  0  0  0
   68.2557   30.8972   52.0150 H   0  0  0  0  0  0  0  0  0  0  0  0
   68.4929   33.0649   50.8056 H   0  0  0  0  0  0  0  0  0  0  0  0
   66.5389   34.0571   49.6166 H   0  0  0  0  0  0  0  0  0  0  0  0
   64.0105   34.5595   48.0320 H   0  0  0  0  0  0  0  0  0  0  0  0
   65.1823   33.2398   47.7056 H   0  0  0  0  0  0  0  0  0  0  0  0
   63.0829   33.2429   46.2357 H   0  0  0  0  0  0  0  0  0  0  0  0
   63.4231   31.7027   47.1229 H   0  0  0  0  0  0  0  0  0  0  0  0
   59.9043   34.4000   46.7733 H   0  0  0  0  0  0  0  0  0  0  0  0
  1  2  1  0
  2  3  1  0
  3  4  1  0
  4  5  1  0
  3  6  1  0
  6  7  1  0
  7  8  1  0
  8  9  1  0
  9 10  2  0
  9 11  1  0
 11 12  2  0
 12 13  1  0
 13 14  2  0
 14 15  1  0
 15 16  1  0
 16 17  1  0
 17 18  1  0
 18 19  1  0
 19 20  2  0
 20 21  1  0
 21 22  2  0
 22 23  1  0
 23 24  2  0
 18 25  1  0
 25 26  1  0
 14 27  1  0
 27 28  2  0
 28 29  1  0
 28 11  1  0
 26 15  1  0
 24 19  1  0
  1 30  1  0
  1 31  1  0
  1 32  1  0
  2 33  1  0
  2 34  1  0
  4 35  1  0
  4 36  1  0
  5 37  1  0
  5 38  1  0
  5 39  1  0
  6 40  1  0
  6 41  1  0
  7 42  1  0
  7 43  1  0
 12 44  1  0
 13 45  1  0
 16 46  1  0
 16 47  1  0
 17 48  1  0
 17 49  1  0
 20 50  1  0
 21 51  1  0
 22 52  1  0
 23 53  1  0
 24 54  1  0
 25 55  1  0
 25 56  1  0
 26 57  1  0
 26 58  1  0
 27 59  1  0
M  END
>  <UniqueID>  (2) 
2

>  <SMILES>  (2) 
CCN(CC)CCOC(=O)c1ccc(N2CCN(c3ccccc3)CC2)cc1Cl

>  <Energy>  (2) 
70.42723604041456

>  <Genealogy>  (2) 
CCN(CC)CCOC(=O)c1ccc(N2CCN(c3ccccc3)CC2)cc1Cl (3D coordinates assigned)
CCN(CC)CCOC(=O)c1ccc(N2CCN(c3ccccc3)CC2)cc1Cl (nonaromatic ring conformer: 70.42723604041456 kcal/mol)

>  <smiles>  (2) 
CCN(CC)CCOC(=O)c1ccc(N2CCN(c3ccccc3)CC2)cc1Cl

>  <score_type>  (2) 
oracle

>  <origin>  (2) 
adg

>  <m_score__min__energy>  (2) 
-7.71

>  <m_primary>  (2) 
energy

$$$$
2:0
     RDKit          3D

 52 53  0  0  0  0  0  0  0  0999 V2000
   58.8980   31.4620   48.2250 C   0  0  0  0  0  0  0  0  0  0  0  0
   58.2290   32.7340   47.6920 C   0  0  0  0  0  0  0  0  0  0  0  0
   58.7010   33.1650   46.3540 N   0  0  0  0  0  0  0  0  0  0  0  0
   59.9640   33.9280   46.2660 C   0  0  0  0  0  0  0  0  0  0  0  0
   59.6760   35.4090   46.0290 C   0  0  0  0  0  0  0  0  0  0  0  0
   57.6590   33.4970   45.3570 C   0  0  0  0  0  0  0  0  0  0  0  0
   57.9870   33.0800   43.9080 C   0  0  0  0  0  0  0  0  0  0  0  0
   57.4050   31.7280   43.4780 C   0  0  0  0  0  0  0  0  0  0  0  0
   56.5920   31.1250   44.5320 N   0  0  0  0  0  0  0  0  0  0  0  0
   56.6060   29.7280   44.8510 C   0  0  0  0  0  0  0  0  0  0  0  0
   55.5240   29.0810   44.8820 O   0  0  0  0  0  0  0  0  0  0  0  0
   57.8890   29.0400   45.1200 C   0  0  0  0  0  0  0  0  0  0  0  0
   59.0960   29.7570   45.1460 C   0  0  0  0  0  0  0  0  0  0  0  0
   60.2940   29.0830   45.3840 C   0  0  0  0  0  0  0  0  0  0  0  0
   60.2980   27.7400   45.6020 N   0  0  0  0  0  0  0  0  0  0  0  0
   59.1410   27.0120   45.5950 C   0  0  0  0  0  0  0  0  0  0  0  0
   59.1080   25.6240   45.8250 O   0  0  0  0  0  0  0  0  0  0  0  0
   57.9840   24.7340   45.7840 C   0  0  2  0  0  0  0  0  0  0  0  0
   57.3600   24.6020   44.3990 C   0  0  0  0  0  0  0  0  0  0  0  0
   55.8900   24.3060   44.6550 C   0  0  0  0  0  0  0  0  0  0  0  0
   55.5480   24.9370   46.0030 C   0  0  2  0  0  0  0  0  0  0  0  0
   54.9500   26.1700   45.8100 F   0  0  0  0  0  0  0  0  0  0  0  0
   56.8650   25.1010   46.7640 C   0  0  0  0  0  0  0  0  0  0  0  0
   57.9230   27.6570   45.3520 C   0  0  0  0  0  0  0  0  0  0  0  0
   58.8902   31.4769   49.3249 H   0  0  0  0  0  0  0  0  0  0  0  0
   58.3471   30.5801   47.8663 H   0  0  0  0  0  0  0  0  0  0  0  0
   59.9369   31.4162   47.8663 H   0  0  0  0  0  0  0  0  0  0  0  0
   57.1457   32.5526   47.6317 H   0  0  0  0  0  0  0  0  0  0  0  0
   58.4928   33.5415   48.3909 H   0  0  0  0  0  0  0  0  0  0  0  0
   60.5229   33.8134   47.2065 H   0  0  0  0  0  0  0  0  0  0  0  0
   60.5569   33.5407   45.4243 H   0  0  0  0  0  0  0  0  0  0  0  0
   59.5761   35.9225   46.9966 H   0  0  0  0  0  0  0  0  0  0  0  0
   60.5038   35.8570   45.4598 H   0  0  0  0  0  0  0  0  0  0  0  0
   58.7406   35.5141   45.4598 H   0  0  0  0  0  0  0  0  0  0  0  0
   56.7282   32.9922   45.6551 H   0  0  0  0  0  0  0  0  0  0  0  0
   57.5779   34.5940   45.3505 H   0  0  0  0  0  0  0  0  0  0  0  0
   57.5917   33.8527   43.2322 H   0  0  0  0  0  0  0  0  0  0  0  0
   59.0808   32.9753   43.8571 H   0  0  0  0  0  0  0  0  0  0  0  0
   56.7778   31.8780   42.5869 H   0  0  0  0  0  0  0  0  0  0  0  0
   58.2431   31.0488   43.2631 H   0  0  0  0  0  0  0  0  0  0  0  0
   59.0969   30.8443   44.9796 H   0  0  0  0  0  0  0  0  0  0  0  0
   61.2418   29.6411   45.3955 H   0  0  0  0  0  0  0  0  0  0  0  0
   61.2200   27.2900   45.7730 H   0  0  0  0  0  0  0  0  0  0  0  0
   58.4266   23.7722   46.0825 H   0  0  0  0  0  0  0  0  0  0  0  0
   57.4728   25.5387   43.8334 H   0  0  0  0  0  0  0  0  0  0  0  0
   57.8421   23.8135   43.8025 H   0  0  0  0  0  0  0  0  0  0  0  0
   55.2698   24.7471   43.8608 H   0  0  0  0  0  0  0  0  0  0  0  0
   55.6983   23.2229   44.6632 H   0  0  0  0  0  0  0  0  0  0  0  0
   54.8452   24.3071   46.5680 H   0  0  0  0  0  0  0  0  0  0  0  0
   56.9817   26.1415   47.1013 H   0  0  0  0  0  0  0  0  0  0  0  0
   56.8912   24.4576   47.6558 H   0  0  0  0  0  0  0  0  0  0  0  0
   56.9884   27.0770   45.3429 H   0  0  0  0  0  0  0  0  0  0  0  0
  1  2  1  0
  2  3  1  0
  3  4  1  0
  4  5  1  0
  3  6  1  0
  6  7  1  0
  7  8  1  0
  8  9  1  0
  9 10  1  0
 10 11  2  0
 10 12  1  0
 12 13  2  0
 13 14  1  0
 14 15  2  0
 15 16  1  0
 16 17  1  0
 17 18  1  0
 18 19  1  0
 19 20  1  0
 20 21  1  0
 21 22  1  0
 21 23  1  0
 16 24  2  0
 24 12  1  0
 23 18  1  0
  1 25  1  0
  1 26  1  0
  1 27  1  0
  2 28  1  0
  2 29  1  0
  4 30  1  0
  4 31  1  0
  5 32  1  0
  5 33  1  0
  5 34  1  0
  6 35  1  0
  6 36  1  0
  7 37  1  0
  7 38  1  0
  8 39  1  0
  8 40  1  0
 13 41  1  0
 14 42  1  0
 15 43  1  0
 18 44  1  1
 19 45  1  0
 19 46  1  0
 20 47  1  0
 20 48  1  0
 21 49  1  1
 23 50  1  0
 23 51  1  0
 24 52  1  0
M  CHG  2   9  -1  15   1
M  END
>  <UniqueID>  (3) 
3

>  <SMILES>  (3) 
CCN(CC)CCC[N-]C(=O)c1cc[nH+]c(O[C@@H]2CC[C@H](F)C2)c1

>  <Energy>  (3) 
59.77357906695995

>  <Genealogy>  (3) 
CCN(CC)CCC[N-]C(=O)c1cc[nH+]c(OC2CCC(F)C2)c1 (protonated)
CCN(CC)CCC[N-]C(=O)c1cc[nH+]c(O[C@@H]2CC[C@H](F)C2)c1 (chirality)
CCN(CC)CCC[N-]C(=O)c1cc[nH+]c(O[C@@H]2CC[C@H](F)C2)c1 (3D coordinates assigned)
CCN(CC)CCC[N-]C(=O)c1cc[nH+]c(O[C@@H]2CC[C@H](F)C2)c1 (nonaromatic ring conformer: 59.77357906695995 kcal/mol)

>  <smiles>  (3) 
CCN(CC)CCCNC(=O)c1ccnc(OC2CCC(F)C2)c1

>  <score_type>  (3) 
oracle

>  <origin>  (3) 
adg

>  <m_score__min__energy>  (3) 
-7.5

>  <m_primary>  (3) 
energy

$$$$
3:0
     RDKit          3D

 37 38  0  0  0  0  0  0  0  0999 V2000
   59.7059   28.3644   46.5934 H   0  0  0  0  0  0  0  0  0  0  0  0
   59.0110   28.5860   45.7700 C   0  0  0  0  0  0  0  0  0  0  0  0
   58.2730   27.5420   45.1660 C   0  0  0  0  0  0  0  0  0  0  0  0
   58.3986   26.5091   45.5228 H   0  0  0  0  0  0  0  0  0  0  0  0
   57.4050   27.8040   44.1430 N   0  0  0  0  0  0  0  0  0  0  0  0
   56.8640   27.0300   43.6980 H   0  0  0  0  0  0  0  0  0  0  0  0
   57.2600   29.0830   43.7130 C   0  0  0  0  0  0  0  0  0  0  0  0
   57.9520   30.1220   44.2680 C   0  0  0  0  0  0  0  0  0  0  0  0
   57.5750   31.2640   43.5900 C   0  0  0  0  0  0  0  0  0  0  0  0
   57.9294   32.2908   43.7631 H   0  0  0  0  0  0  0  0  0  0  0  0
   56.6500   30.8380   42.6400 C   0  0  0  0  0  0  0  0  0  0  0  0
   56.1426   31.4991   41.9220 H   0  0  0  0  0  0  0  0  0  0  0  0
   56.4600   29.5000   42.7200 N   0  0  0  0  0  0  0  0  0  0  0  0
   55.8270   28.9170   42.1280 H   0  0  0  0  0  0  0  0  0  0  0  0
   58.8540   29.9180   45.3130 C   0  0  0  0  0  0  0  0  0  0  0  0
   59.5050   30.9330   45.8120 N   0  0  0  0  0  0  0  0  0  0  0  0
   59.7580   31.2080   47.2270 C   0  0  0  0  0  0  0  0  0  0  0  0
   60.8072   31.5149   47.3498 H   0  0  0  0  0  0  0  0  0  0  0  0
   59.5491   30.2925   47.8000 H   0  0  0  0  0  0  0  0  0  0  0  0
   58.8480   32.3230   47.7520 C   0  0  0  0  0  0  0  0  0  0  0  0
   59.2908   32.7573   48.6605 H   0  0  0  0  0  0  0  0  0  0  0  0
   57.8583   31.9026   47.9841 H   0  0  0  0  0  0  0  0  0  0  0  0
   58.6990   33.3810   46.7240 N   0  0  0  0  0  0  0  0  0  0  0  0
   57.3120   33.4850   46.2060 C   0  0  0  0  0  0  0  0  0  0  0  0
   56.7008   34.0077   46.9565 H   0  0  0  0  0  0  0  0  0  0  0  0
   56.9650   32.4583   46.0175 H   0  0  0  0  0  0  0  0  0  0  0  0
   57.1970   34.2440   44.8760 C   0  0  0  0  0  0  0  0  0  0  0  0
   57.0350   35.3133   45.0769 H   0  0  0  0  0  0  0  0  0  0  0  0
   58.1248   34.1157   44.2992 H   0  0  0  0  0  0  0  0  0  0  0  0
   56.3488   33.8466   44.2992 H   0  0  0  0  0  0  0  0  0  0  0  0
   59.2880   34.6690   47.1580 C   0  0  0  0  0  0  0  0  0  0  0  0
   60.0438   34.9812   46.4223 H   0  0  0  0  0  0  0  0  0  0  0  0
   58.4778   35.4096   47.2296 H   0  0  0  0  0  0  0  0  0  0  0  0
   59.9500   34.5540   48.5290 C   0  0  0  0  0  0  0  0  0  0  0  0
   59.1915   34.6858   49.3147 H   0  0  0  0  0  0  0  0  0  0  0  0
   60.4140   33.5618   48.6300 H   0  0  0  0  0  0  0  0  0  0  0  0
   60.7215   35.3316   48.6300 H   0  0  0  0  0  0  0  0  0  0  0  0
  1  2  1  0
  2  3  2  0
  3  4  1  0
  3  5  1  0
  5  6  1  0
  5  7  1  0
  7  8  2  0
  8  9  1  0
  9 10  1  0
  9 11  2  0
 11 12  1  0
 11 13  1  0
 13 14  1  0
  8 15  1  0
 15 16  2  0
 16 17  1  0
 17 18  1  0
 17 19  1  0
 17 20  1  0
 20 21  1  0
 20 22  1  0
 20 23  1  0
 23 24  1  0
 24 25  1  0
 24 26  1  0
 24 27  1  0
 27 28  1  0
 27 29  1  0
 27 30  1  0
 23 31  1  0
 31 32  1  0
 31 33  1  0
 31 34  1  0
 34 35  1  0
 34 36  1  0
 34 37  1  0
 15  2  1  0
 13  7  1  0
M  END
>  <UniqueID>  (4) 
4

>  <SMILES>  (4) 
CCN(CC)CC/N=c1\cc[nH]c2[nH]ccc12

>  <Energy>  (4) 
72.59011578690952

>  <Genealogy>  (4) 
CCN(CC)CC/N=c1\cc[nH]c2[nH]ccc12 (cis-trans isomerization)
CCN(CC)CC/N=c1\cc[nH]c2[nH]ccc12 (3D coordinates assigned)
CCN(CC)CC/N=c1\cc[nH]c2[nH]ccc12 (optimized conformer: 72.59011578690952 kcal/mol)

>  <smiles>  (4) 
CCN(CC)CCN=c1cc[nH]c2[nH]ccc12

>  <score_type>  (4) 
oracle

>  <origin>  (4) 
adg

>  <m_score__min__energy>  (4) 
-5.5899999999999999

>  <m_primary>  (4) 
energy

$$$$
4:0
     RDKit          3D

 27 27  0  0  0  0  0  0  0  0999 V2000
   60.0700   28.9250   44.6430 C   0  0  0  0  0  0  0  0  0  0  0  0
   60.2580   28.0250   45.8640 C   0  0  0  0  0  0  0  0  0  0  0  0
   58.9940   27.2290   46.1940 C   0  0  0  0  0  0  0  0  0  0  0  0
   57.8430   27.2110   44.7740 S   0  0  0  0  0  0  0  0  0  0  0  0
   56.8670   28.5830   45.3940 C   0  0  0  0  0  0  0  0  0  0  0  0
   57.3420   29.3180   46.2980 O   0  0  0  0  0  0  0  0  0  0  0  0
   55.5620   28.8600   44.8800 N   0  0  0  0  0  0  0  0  0  0  0  0
   55.3150   29.7420   43.7470 C   0  0  0  0  0  0  0  0  0  0  0  0
   56.3520   30.8210   43.7230 C   0  0  0  0  0  0  0  0  0  0  0  0
   57.0040   31.1580   42.5270 C   0  0  0  0  0  0  0  0  0  0  0  0
   57.9440   32.1920   42.5280 C   0  0  0  0  0  0  0  0  0  0  0  0
   58.2180   32.8800   43.7100 C   0  0  0  0  0  0  0  0  0  0  0  0
   57.5410   32.5260   44.8800 C   0  0  0  0  0  0  0  0  0  0  0  0
   56.6290   31.5180   44.8600 N   0  0  0  0  0  0  0  0  0  0  0  0
   59.8555   29.9519   44.9739 H   0  0  0  0  0  0  0  0  0  0  0  0
   60.9888   28.9191   44.0382 H   0  0  0  0  0  0  0  0  0  0  0  0
   59.2304   28.5518   44.0382 H   0  0  0  0  0  0  0  0  0  0  0  0
   61.0780   27.3202   45.6619 H   0  0  0  0  0  0  0  0  0  0  0  0
   60.4871   28.6684   46.7263 H   0  0  0  0  0  0  0  0  0  0  0  0
   59.2746   26.1949   46.4429 H   0  0  0  0  0  0  0  0  0  0  0  0
   58.4910   27.7074   47.0473 H   0  0  0  0  0  0  0  0  0  0  0  0
   55.3658   29.1631   42.8131 H   0  0  0  0  0  0  0  0  0  0  0  0
   54.3165   30.1934   43.8431 H   0  0  0  0  0  0  0  0  0  0  0  0
   56.7775   30.6138   41.5982 H   0  0  0  0  0  0  0  0  0  0  0  0
   58.4667   32.4627   41.5987 H   0  0  0  0  0  0  0  0  0  0  0  0
   58.9592   33.6927   43.7210 H   0  0  0  0  0  0  0  0  0  0  0  0
   57.7461   33.0632   45.8177 H   0  0  0  0  0  0  0  0  0  0  0  0
  1  2  1  0
  2  3  1  0
  3  4  1  0
  4  5  1  0
  5  6  2  0
  5  7  1  0
  7  8  1  0
  8  9  1  0
  9 10  2  0
 10 11  1  0
 11 12  2  0
 12 13  1  0
 13 14  2  0
 14  9  1  0
  1 15  1  0
  1 16  1  0
  1 17  1  0
  2 18  1  0
  2 19  1  0
  3 20  1  0
  3 21  1  0
  8 22  1  0
  8 23  1  0
 10 24  1  0
 11 25  1  0
 12 26  1  0
 13 27  1  0
M  CHG  1   7  -1
M  END
>  <UniqueID>  (5) 
5

>  <SMILES>  (5) 
CCCSC(=O)[N-]Cc1ccccn1

>  <Energy>  (5) 
14.004332709217355

>  <Genealogy>  (5) 
CCCSC(=O)[N-]Cc1ccccn1 (protonated)
CCCSC(=O)[N-]Cc1ccccn1 (3D coordinates assigned)
CCCSC(=O)[N-]Cc1ccccn1 (optimized conformer: 14.004332709217355 kcal/mol)

>  <smiles>  (5) 
CCCSC(=O)NCc1ccccn1

>  <score_type>  (5) 
oracle

>  <origin>  (5) 
adg

>  <m_score__min__energy>  (5) 
-7.7000000000000002

>  <m_primary>  (5) 
energy

$$$$
5:0
     RDKit          3D

 50 51  0  0  0  0  0  0  0  0999 V2000
   55.3090   24.1240   44.6720 C   0  0  0  0  0  0  0  0  0  0  0  0
   54.3590   24.8530   45.6140 C   0  0  0  0  0  0  0  0  0  0  0  0
   54.8670   26.1460   45.9450 O   0  0  0  0  0  0  0  0  0  0  0  0
   56.2260   26.4970   46.0360 C   0  0  0  0  0  0  0  0  0  0  0  0
   57.1920   25.6350   46.5920 C   0  0  0  0  0  0  0  0  0  0  0  0
   58.5300   26.0240   46.6610 C   0  0  0  0  0  0  0  0  0  0  0  0
   58.9320   27.2720   46.1660 C   0  0  0  0  0  0  0  0  0  0  0  0
   60.3760   27.6930   46.2610 C   0  0  0  0  0  0  0  0  0  0  0  0
   60.6180   29.0200   45.5370 C   0  0  0  0  0  0  0  0  0  0  0  0
   60.2660   30.1360   46.4120 N   0  0  0  0  0  0  0  0  0  0  0  0
   59.0280   31.1030   45.6690 S   0  0  0  0  0  0  0  0  0  0  0  0
   58.8740   30.6900   44.2310 O   0  0  0  0  0  0  0  0  0  0  0  0
   57.7220   30.8990   46.3870 O   0  0  0  0  0  0  0  0  0  0  0  0
   59.4780   32.7860   45.7650 N   0  0  0  0  0  0  0  0  0  0  0  0
   58.8800   33.5360   44.6430 C   0  0  0  0  0  0  0  0  0  0  0  0
   58.9520   35.0580   44.8800 C   0  0  0  0  0  0  0  0  0  0  0  0
   59.8810   35.3690   45.8990 O   0  0  0  0  0  0  0  0  0  0  0  0
   59.4210   34.8550   47.1370 C   0  0  0  0  0  0  0  0  0  0  0  0
   59.0590   33.3540   47.0580 C   0  0  0  0  0  0  0  0  0  0  0  0
   57.9710   28.1400   45.6290 C   0  0  0  0  0  0  0  0  0  0  0  0
   56.6150   27.7600   45.5640 C   0  0  0  0  0  0  0  0  0  0  0  0
   55.6210   28.6020   45.0350 O   0  0  0  0  0  0  0  0  0  0  0  0
   55.8530   29.7920   44.2820 C   0  0  0  0  0  0  0  0  0  0  0  0
   56.4360   29.4570   42.9140 C   0  0  0  0  0  0  0  0  0  0  0  0
   56.0463   23.5582   45.2604 H   0  0  0  0  0  0  0  0  0  0  0  0
   54.7365   23.4312   44.0377 H   0  0  0  0  0  0  0  0  0  0  0  0
   55.8301   24.8563   44.0377 H   0  0  0  0  0  0  0  0  0  0  0  0
   53.3804   24.9644   45.1243 H   0  0  0  0  0  0  0  0  0  0  0  0
   54.2594   24.2657   46.5387 H   0  0  0  0  0  0  0  0  0  0  0  0
   56.8892   24.6490   46.9741 H   0  0  0  0  0  0  0  0  0  0  0  0
   59.2739   25.3472   47.1066 H   0  0  0  0  0  0  0  0  0  0  0  0
   60.6464   27.8088   47.3210 H   0  0  0  0  0  0  0  0  0  0  0  0
   60.9951   26.9193   45.7834 H   0  0  0  0  0  0  0  0  0  0  0  0
   61.6796   29.0954   45.2590 H   0  0  0  0  0  0  0  0  0  0  0  0
   59.9929   29.0581   44.6327 H   0  0  0  0  0  0  0  0  0  0  0  0
   60.5210   32.8350   45.6930 H   0  0  0  0  0  0  0  0  0  0  0  0
   59.4246   33.2918   43.7190 H   0  0  0  0  0  0  0  0  0  0  0  0
   57.8214   33.2488   44.5605 H   0  0  0  0  0  0  0  0  0  0  0  0
   59.2617   35.5529   43.9477 H   0  0  0  0  0  0  0  0  0  0  0  0
   57.9582   35.4113   45.1923 H   0  0  0  0  0  0  0  0  0  0  0  0
   60.2121   34.9878   47.8897 H   0  0  0  0  0  0  0  0  0  0  0  0
   58.5077   35.4049   47.4082 H   0  0  0  0  0  0  0  0  0  0  0  0
   59.5685   32.8161   47.8711 H   0  0  0  0  0  0  0  0  0  0  0  0
   57.9685   33.2470   47.1552 H   0  0  0  0  0  0  0  0  0  0  0  0
   58.2781   29.1276   45.2546 H   0  0  0  0  0  0  0  0  0  0  0  0
   54.9008   30.3263   44.1481 H   0  0  0  0  0  0  0  0  0  0  0  0
   56.5701   30.4226   44.8280 H   0  0  0  0  0  0  0  0  0  0  0  0
   57.3832   28.9127   43.0424 H   0  0  0  0  0  0  0  0  0  0  0  0
   55.7253   28.8295   42.3562 H   0  0  0  0  0  0  0  0  0  0  0  0
   56.6202   30.3870   42.3562 H   0  0  0  0  0  0  0  0  0  0  0  0
  1  2  1  0
  2  3  1  0
  3  4  1  0
  4  5  2  0
  5  6  1  0
  6  7  2  0
  7  8  1  0
  8  9  1  0
  9 10  1  0
 10 11  1  0
 11 12  2  0
 11 13  2  0
 11 14  1  0
 14 15  1  0
 15 16  1  0
 16 17  1  0
 17 18  1  0
 18 19  1  0
  7 20  1  0
 20 21  2  0
 21 22  1  0
 22 23  1  0
 23 24  1  0
 21  4  1  0
 19 14  1  0
  1 25  1  0
  1 26  1  0
  1 27  1  0
  2 28  1  0
  2 29  1  0
  5 30  1  0
  6 31  1  0
  8 32  1  0
  8 33  1  0
  9 34  1  0
  9 35  1  0
 14 36  1  0
 15 37  1  0
 15 38  1  0
 16 39  1  0
 16 40  1  0
 18 41  1  0
 18 42  1  0
 19 43  1  0
 19 44  1  0
 20 45  1  0
 23 46  1  0
 23 47  1  0
 24 48  1  0
 24 49  1  0
 24 50  1  0
M  CHG  2  10  -1  14   1
M  END
>  <UniqueID>  (6) 
6

>  <SMILES>  (6) 
CCOc1ccc(CC[N-]S(=O)(=O)[NH+]2CCOCC2)cc1OCC

>  <Energy>  (6) 
44.35185497666852

>  <Genealogy>  (6) 
CCOc1ccc(CC[N-]S(=O)(=O)[NH+]2CCOCC2)cc1OCC (protonated)
CCOc1ccc(CC[N-]S(=O)(=O)[NH+]2CCOCC2)cc1OCC (3D coordinates assigned)
CCOc1ccc(CC[N-]S(=O)(=O)[NH+]2CCOCC2)cc1OCC (nonaromatic ring conformer: 44.35185497666852 kcal/mol)

>  <smiles>  (6) 
CCOc1ccc(CCNS(=O)(=O)N2CCOCC2)cc1OCC

>  <score_type>  (6) 
oracle

>  <origin>  (6) 
adg

>  <m_score__min__energy>  (6) 
-7.8700000000000001

>  <m_primary>  (6) 
energy

$$$$
6:0
     RDKit          3D

 44 47  0  0  0  0  0  0  0  0999 V2000
   57.8030   27.8380   47.6480 H   0  0  0  0  0  0  0  0  0  0  0  0
   58.2870   26.9910   47.4780 O   0  0  0  0  0  0  0  0  0  0  0  0
   59.0830   27.1240   46.3210 C   0  0  2  0  0  0  0  0  0  0  0  0
   60.0146   26.7348   46.7576 H   0  0  0  0  0  0  0  0  0  0  0  0
   59.0650   28.5080   45.6470 C   0  0  2  0  0  0  0  0  0  0  0  0
   59.9832   29.1136   45.6362 H   0  0  0  0  0  0  0  0  0  0  0  0
   58.1240   29.4540   46.2430 N   0  0  0  0  0  0  0  0  0  0  0  0
   57.4030   30.4230   45.4770 C   0  0  0  0  0  0  0  0  0  0  0  0
   56.3490   30.0920   44.8690 O   0  0  0  0  0  0  0  0  0  0  0  0
   57.9070   31.8060   45.3990 C   0  0  0  0  0  0  0  0  0  0  0  0
   58.3180   32.4310   46.5370 N   0  0  0  0  0  0  0  0  0  0  0  0
   58.7970   33.7050   46.5340 C   0  0  0  0  0  0  0  0  0  0  0  0
   59.2320   34.3410   47.8150 C   0  0  0  0  0  0  0  0  0  0  0  0
   58.8370   33.7635   48.6638 H   0  0  0  0  0  0  0  0  0  0  0  0
   60.3309   34.3567   47.8619 H   0  0  0  0  0  0  0  0  0  0  0  0
   58.8482   35.3708   47.8619 H   0  0  0  0  0  0  0  0  0  0  0  0
   58.8780   34.4130   45.3280 C   0  0  0  0  0  0  0  0  0  0  0  0
   59.2636   35.4431   45.3127 H   0  0  0  0  0  0  0  0  0  0  0  0
   58.4640   33.7970   44.1460 C   0  0  0  0  0  0  0  0  0  0  0  0
   58.5217   34.3421   43.1923 H   0  0  0  0  0  0  0  0  0  0  0  0
   57.9770   32.4900   44.1740 C   0  0  0  0  0  0  0  0  0  0  0  0
   57.6507   31.9994   43.2451 H   0  0  0  0  0  0  0  0  0  0  0  0
   58.4990   27.8820   44.3720 C   0  0  0  0  0  0  0  0  0  0  0  0
   59.1674   27.9557   43.5015 H   0  0  0  0  0  0  0  0  0  0  0  0
   57.5789   28.2802   43.9194 H   0  0  0  0  0  0  0  0  0  0  0  0
   58.4970   26.5020   45.0440 C   0  0  2  0  0  0  0  0  0  0  0  0
   58.9933   25.6522   44.5526 H   0  0  0  0  0  0  0  0  0  0  0  0
   57.1660   25.8890   45.2220 N   0  0  0  0  0  0  0  0  0  0  0  0
   56.1370   26.2670   46.0260 C   0  0  0  0  0  0  0  0  0  0  0  0
   56.1588   27.1735   46.6488 H   0  0  0  0  0  0  0  0  0  0  0  0
   55.0810   25.4170   45.9850 N   0  0  0  0  0  0  0  0  0  0  0  0
   55.4790   24.4650   45.1210 C   0  0  0  0  0  0  0  0  0  0  0  0
   54.7990   23.3060   44.6990 C   0  0  0  0  0  0  0  0  0  0  0  0
   53.5980   22.9830   45.0900 N   0  0  0  0  0  0  0  0  0  0  0  0
   52.3800   23.7710   44.9330 C   0  0  0  0  0  0  0  0  0  0  0  0
   51.9802   24.0296   45.9246 H   0  0  0  0  0  0  0  0  0  0  0  0
   52.6086   24.6928   44.3780 H   0  0  0  0  0  0  0  0  0  0  0  0
   51.6329   23.1846   44.3780 H   0  0  0  0  0  0  0  0  0  0  0  0
   55.4510   22.4790   43.8290 N   0  0  0  0  0  0  0  0  0  0  0  0
   56.7160   22.7370   43.3720 C   0  0  0  0  0  0  0  0  0  0  0  0
   57.1979   22.0366   42.6740 H   0  0  0  0  0  0  0  0  0  0  0  0
   57.4020   23.8890   43.7880 C   0  0  0  0  0  0  0  0  0  0  0  0
   58.4202   24.1103   43.4354 H   0  0  0  0  0  0  0  0  0  0  0  0
   56.7350   24.7400   44.6680 C   0  0  0  0  0  0  0  0  0  0  0  0
  1  2  1  0
  2  3  1  0
  3  4  1  1
  3  5  1  0
  5  6  1  6
  5  7  1  0
  7  8  1  0
  8  9  2  0
  8 10  1  0
 10 11  2  0
 11 12  1  0
 12 13  1  0
 13 14  1  0
 13 15  1  0
 13 16  1  0
 12 17  2  0
 17 18  1  0
 17 19  1  0
 19 20  1  0
 19 21  2  0
 21 22  1  0
  5 23  1  0
 23 24  1  0
 23 25  1  0
 23 26  1  0
 26 27  1  6
 26 28  1  0
 28 29  1  0
 29 30  1  0
 29 31  2  0
 31 32  1  0
 32 33  1  0
 33 34  2  0
 34 35  1  0
 35 36  1  0
 35 37  1  0
 35 38  1  0
 33 39  1  0
 39 40  1  0
 40 41  1  0
 40 42  2  0
 42 43  1  0
 42 44  1  0
 26  3  1  0
 44 28  1  0
 21 10  1  0
 44 32  2  0
M  CHG  2   7  -1  39  -1
M  END
>  <UniqueID>  (7) 
7

>  <SMILES>  (7) 
C/N=c1/[n-]ccc2c1ncn2[C@H]1C[C@@H]([N-]C(=O)c2cccc(C)n2)C1O

>  <Energy>  (7) 
154.75576581716328

>  <Genealogy>  (7) 
CN=c1[n-]ccc2c1ncn2C1CC([N-]C(=O)c2cccc(C)n2)C1O (protonated)
CN=c1[n-]ccc2c1ncn2[C@H]1C[C@@H]([N-]C(=O)c2cccc(C)n2)C1O (chirality)
C/N=c1/[n-]ccc2c1ncn2[C@H]1C[C@@H]([N-]C(=O)c2cccc(C)n2)C1O (cis-trans isomerization)
C/N=c1/[n-]ccc2c1ncn2[C@H]1C[C@@H]([N-]C(=O)c2cccc(C)n2)C1O (3D coordinates assigned)
C/N=c1/[n-]ccc2c1ncn2[C@H]1C[C@@H]([N-]C(=O)c2cccc(C)n2)C1O (nonaromatic ring conformer: 154.75576581716328 kcal/mol)

>  <smiles>  (7) 
CN=c1[nH]ccc2c1ncn2C1CC(NC(=O)c2cccc(C)n2)C1O

>  <score_type>  (7) 
oracle

>  <origin>  (7) 
adg

>  <m_score__min__energy>  (7) 
-11.52

>  <m_primary>  (7) 
energy

$$$$
7:0
     RDKit          3D

 54 56  0  0  0  0  0  0  0  0999 V2000
   63.7720   33.4420   46.8140 C   0  0  0  0  0  0  0  0  0  0  0  0
   62.6030   33.5640   47.4490 C   0  0  0  0  0  0  0  0  0  0  0  0
   61.4180   33.4870   46.8120 N   0  0  0  0  0  0  0  0  0  0  0  0
   60.4530   33.5670   47.7530 C   0  0  0  0  0  0  0  0  0  0  0  0
   59.1360   33.4690   47.5010 C   0  0  0  0  0  0  0  0  0  0  0  0
   58.5510   32.4210   46.6440 C   0  0  0  0  0  0  0  0  0  0  0  0
   57.8010   32.6450   45.5070 C   0  0  0  0  0  0  0  0  0  0  0  0
   57.2860   34.1970   44.8740 Cl  0  0  0  0  0  0  0  0  0  0  0  0
   57.5250   31.4150   44.9540 C   0  0  0  0  0  0  0  0  0  0  0  0
   58.0900   30.4410   45.6980 N   0  0  0  0  0  0  0  0  0  0  0  0
   58.0260   29.0330   45.4060 C   0  0  0  0  0  0  0  0  0  0  0  0
   57.7470   28.1050   46.4180 C   0  0  0  0  0  0  0  0  0  0  0  0
   57.6760   26.7400   46.1280 C   0  0  0  0  0  0  0  0  0  0  0  0
   57.8730   26.2690   44.8140 C   0  0  0  0  0  0  0  0  0  0  0  0
   57.8050   24.8500   44.5190 N   0  0  0  0  0  0  0  0  0  0  0  0
   57.0090   24.3700   43.3830 C   0  0  0  0  0  0  0  0  0  0  0  0
   58.4950   23.8560   45.3560 C   0  0  0  0  0  0  0  0  0  0  0  0
   58.6240   22.5220   44.6220 C   0  0  0  0  0  0  0  0  0  0  0  0
   58.1410   27.2120   43.8010 C   0  0  0  0  0  0  0  0  0  0  0  0
   58.2110   28.5770   44.0940 C   0  0  0  0  0  0  0  0  0  0  0  0
   58.7440   31.0460   46.7210 C   0  0  0  0  0  0  0  0  0  0  0  0
   59.6390   30.3390   47.7000 C   0  0  0  0  0  0  0  0  0  0  0  0
   61.0280   33.7090   49.0120 C   0  0  0  0  0  0  0  0  0  0  0  0
   60.3060   33.8120   50.3250 C   0  0  0  0  0  0  0  0  0  0  0  0
   62.4060   33.7090   48.8210 C   0  0  0  0  0  0  0  0  0  0  0  0
   63.4300   33.8100   49.8850 C   0  0  0  0  0  0  0  0  0  0  0  0
   64.5430   32.8170   50.0050 C   0  0  0  0  0  0  0  0  0  0  0  0
   63.3750   34.7620   50.7090 O   0  0  0  0  0  0  0  0  0  0  0  0
   64.7140   33.5122   47.3776 H   0  0  0  0  0  0  0  0  0  0  0  0
   63.7925   33.2714   45.7275 H   0  0  0  0  0  0  0  0  0  0  0  0
   61.2870   33.3200   45.7880 H   0  0  0  0  0  0  0  0  0  0  0  0
   58.4607   34.2079   47.9571 H   0  0  0  0  0  0  0  0  0  0  0  0
   56.9325   31.2505   44.0419 H   0  0  0  0  0  0  0  0  0  0  0  0
   57.5827   28.4536   47.4483 H   0  0  0  0  0  0  0  0  0  0  0  0
   57.4637   26.0237   46.9354 H   0  0  0  0  0  0  0  0  0  0  0  0
   56.1228   23.8356   43.7560 H   0  0  0  0  0  0  0  0  0  0  0  0
   56.6900   25.2265   42.7708 H   0  0  0  0  0  0  0  0  0  0  0  0
   57.6176   23.6882   42.7708 H   0  0  0  0  0  0  0  0  0  0  0  0
   59.4995   24.2292   45.6045 H   0  0  0  0  0  0  0  0  0  0  0  0
   57.9068   23.6982   46.2721 H   0  0  0  0  0  0  0  0  0  0  0  0
   58.7029   21.7060   45.3555 H   0  0  0  0  0  0  0  0  0  0  0  0
   57.7370   22.3634   43.9911 H   0  0  0  0  0  0  0  0  0  0  0  0
   59.5250   22.5363   43.9911 H   0  0  0  0  0  0  0  0  0  0  0  0
   58.2969   26.8695   42.7674 H   0  0  0  0  0  0  0  0  0  0  0  0
   58.4128   29.2986   43.2886 H   0  0  0  0  0  0  0  0  0  0  0  0
   59.3273   30.5852   48.7258 H   0  0  0  0  0  0  0  0  0  0  0  0
   59.5656   29.2524   47.5453 H   0  0  0  0  0  0  0  0  0  0  0  0
   60.6791   30.6620   47.5453 H   0  0  0  0  0  0  0  0  0  0  0  0
   61.0273   33.7091   51.1491 H   0  0  0  0  0  0  0  0  0  0  0  0
   59.8078   34.7903   50.3937 H   0  0  0  0  0  0  0  0  0  0  0  0
   59.5541   33.0120   50.3937 H   0  0  0  0  0  0  0  0  0  0  0  0
   64.7537   32.6291   51.0682 H   0  0  0  0  0  0  0  0  0  0  0  0
   64.2488   31.8758   49.5175 H   0  0  0  0  0  0  0  0  0  0  0  0
   65.4447   33.2162   49.5175 H   0  0  0  0  0  0  0  0  0  0  0  0
  1  2  2  0
  2  3  1  0
  3  4  1  0
  4  5  2  3
  5  6  1  0
  6  7  1  0
  7  8  1  0
  7  9  2  0
  9 10  1  0
 10 11  1  0
 11 12  2  0
 12 13  1  0
 13 14  2  0
 14 15  1  0
 15 16  1  0
 15 17  1  0
 17 18  1  0
 14 19  1  0
 19 20  2  0
 10 21  1  0
 21 22  1  0
  4 23  1  0
 23 24  1  0
 23 25  2  0
 25 26  1  0
 26 27  1  0
 26 28  2  0
 25  2  1  0
 21  6  2  0
 20 11  1  0
  1 29  1  0
  1 30  1  0
  3 31  1  0
  5 32  1  0
  9 33  1  0
 12 34  1  0
 13 35  1  0
 16 36  1  0
 16 37  1  0
 16 38  1  0
 17 39  1  0
 17 40  1  0
 18 41  1  0
 18 42  1  0
 18 43  1  0
 19 44  1  0
 20 45  1  0
 22 46  1  0
 22 47  1  0
 22 48  1  0
 24 49  1  0
 24 50  1  0
 24 51  1  0
 27 52  1  0
 27 53  1  0
 27 54  1  0
M  END
>  <UniqueID>  (8) 
8

>  <SMILES>  (8) 
C=c1[nH]c(=Cc2c(Cl)cn(-c3ccc(N(C)CC)cc3)c2C)c(C)c1C(C)=O

>  <Energy>  (8) 
122.98379027290359

>  <Genealogy>  (8) 
C=c1[nH]c(=Cc2c(Cl)cn(-c3ccc(N(C)CC)cc3)c2C)c(C)c1C(C)=O (3D coordinates assigned)
C=c1[nH]c(=Cc2c(Cl)cn(-c3ccc(N(C)CC)cc3)c2C)c(C)c1C(C)=O (optimized conformer: 122.98379027290359 kcal/mol)

>  <smiles>  (8) 
C=c1[nH]c(=Cc2c(Cl)cn(-c3ccc(N(C)CC)cc3)c2C)c(C)c1C(C)=O

>  <score_type>  (8) 
oracle

>  <origin>  (8) 
adg

>  <m_score__min__energy>  (8) 
-8.4000000000000004

>  <m_primary>  (8) 
energy

$$$$
8:0
     RDKit          3D

 39 41  0  0  0  0  0  0  0  0999 V2000
   56.4870   34.7020   45.4510 H   0  0  0  0  0  0  0  0  0  0  0  0
   57.2210   34.1470   44.9590 N   0  0  0  0  0  0  0  0  0  0  0  0
   58.0270   33.3190   45.5530 C   0  0  0  0  0  0  0  0  0  0  0  0
   57.6830   32.0050   45.6010 N   0  0  0  0  0  0  0  0  0  0  0  0
   58.4560   31.0580   46.1960 C   0  0  0  0  0  0  0  0  0  0  0  0
   58.0020   29.6430   46.1920 C   0  0  0  0  0  0  0  0  0  0  0  0
   58.5210   28.7390   47.1330 C   0  0  0  0  0  0  0  0  0  0  0  0
   59.2589   29.0858   47.8715 H   0  0  0  0  0  0  0  0  0  0  0  0
   58.1100   27.4040   47.1410 C   0  0  0  0  0  0  0  0  0  0  0  0
   58.5223   26.7112   47.8893 H   0  0  0  0  0  0  0  0  0  0  0  0
   57.1740   26.9380   46.2010 C   0  0  0  0  0  0  0  0  0  0  0  0
   56.7490   25.5630   46.2050 N   0  0  0  0  0  0  0  0  0  0  0  0
   57.5860   24.6380   46.1720 O   0  0  0  0  0  0  0  0  0  0  0  0
   55.4100   25.2450   46.2490 O   0  0  0  0  0  0  0  0  0  0  0  0
   56.6630   27.8370   45.2510 C   0  0  0  0  0  0  0  0  0  0  0  0
   55.9338   27.4865   44.5058 H   0  0  0  0  0  0  0  0  0  0  0  0
   57.0730   29.1740   45.2440 C   0  0  0  0  0  0  0  0  0  0  0  0
   56.6661   29.8652   44.4912 H   0  0  0  0  0  0  0  0  0  0  0  0
   59.6710   31.4400   46.7820 C   0  0  0  0  0  0  0  0  0  0  0  0
   60.3166   30.6829   47.2510 H   0  0  0  0  0  0  0  0  0  0  0  0
   60.0640   32.7850   46.7710 C   0  0  0  0  0  0  0  0  0  0  0  0
   61.3500   33.1570   47.4070 C   0  0  0  0  0  0  0  0  0  0  0  0
   62.5560   32.8100   46.7750 C   0  0  0  0  0  0  0  0  0  0  0  0
   62.5362   32.2664   45.8189 H   0  0  0  0  0  0  0  0  0  0  0  0
   63.7800   33.1520   47.3550 C   0  0  0  0  0  0  0  0  0  0  0  0
   64.7207   32.8828   46.8524 H   0  0  0  0  0  0  0  0  0  0  0  0
   63.8100   33.8340   48.5700 C   0  0  0  0  0  0  0  0  0  0  0  0
   64.7753   34.1056   49.0221 H   0  0  0  0  0  0  0  0  0  0  0  0
   62.6190   34.1740   49.2160 C   0  0  0  0  0  0  0  0  0  0  0  0
   62.6510   34.7108   50.1756 H   0  0  0  0  0  0  0  0  0  0  0  0
   61.3770   33.8330   48.6450 C   0  0  0  0  0  0  0  0  0  0  0  0
   60.1600   34.1360   49.2790 O   0  0  0  0  0  0  0  0  0  0  0  0
   59.6620   33.4660   50.4330 C   0  0  0  0  0  0  0  0  0  0  0  0
   60.0351   33.9679   51.3379 H   0  0  0  0  0  0  0  0  0  0  0  0
   58.5623   33.4921   50.4262 H   0  0  0  0  0  0  0  0  0  0  0  0
   60.0040   32.4205   50.4262 H   0  0  0  0  0  0  0  0  0  0  0  0
   59.2390   33.7450   46.1430 C   0  0  0  0  0  0  0  0  0  0  0  0
   59.6560   35.1300   46.0730 C   0  0  0  0  0  0  0  0  0  0  0  0
   59.9900   36.2370   46.0160 N   0  0  0  0  0  0  0  0  0  0  0  0
  1  2  1  0
  2  3  2  0
  3  4  1  0
  4  5  1  0
  5  6  1  0
  6  7  2  0
  7  8  1  0
  7  9  1  0
  9 10  1  0
  9 11  2  0
 11 12  1  0
 12 13  2  0
 12 14  1  0
 11 15  1  0
 15 16  1  0
 15 17  2  0
 17 18  1  0
  5 19  2  0
 19 20  1  0
 19 21  1  0
 21 22  1  0
 22 23  2  0
 23 24  1  0
 23 25  1  0
 25 26  1  0
 25 27  2  0
 27 28  1  0
 27 29  1  0
 29 30  1  0
 29 31  2  0
 31 32  1  0
 32 33  1  0
 33 34  1  0
 33 35  1  0
 33 36  1  0
 21 37  2  0
 37 38  1  0
 38 39  3  0
 37  3  1  0
 17  6  1  0
 31 22  1  0
M  CHG  3   4  -1  12   1  14  -1
M  END
>  <UniqueID>  (9) 
9

>  <SMILES>  (9) 
[H]/N=c1/[n-]c(-c2ccc([N+](=O)[O-])cc2)cc(-c2ccccc2OC)c1C#N

>  <Energy>  (9) 
57.04536713680028

>  <Genealogy>  (9) 
COc1ccccc1-c1cc(-c2ccc([N+](=O)[O-])cc2)[n-]c(=N)c1C#N (protonated)
[H]/N=c1/[n-]c(-c2ccc([N+](=O)[O-])cc2)cc(-c2ccccc2OC)c1C#N (cis-trans isomerization)
[H]/N=c1/[n-]c(-c2ccc([N+](=O)[O-])cc2)cc(-c2ccccc2OC)c1C#N (3D coordinates assigned)
[H]/N=c1/[n-]c(-c2ccc([N+](=O)[O-])cc2)cc(-c2ccccc2OC)c1C#N (optimized conformer: 57.04536713680028 kcal/mol)

>  <smiles>  (9) 
COc1ccccc1-c1cc(-c2ccc([N+](=O)[O-])cc2)[nH]c(=N)c1C#N

>  <score_type>  (9) 
oracle

>  <origin>  (9) 
adg

>  <m_score__min__energy>  (9) 
-8.5

>  <m_primary>  (9) 
energy

$$$$
9:0
     RDKit          3D

 65 68  0  0  0  0  0  0  0  0999 V2000
   59.5510   34.6410   46.1930 C   0  0  0  0  0  0  0  0  0  0  0  0
   58.9630   33.8740   47.3750 C   0  0  0  0  0  0  0  0  0  0  0  0
   57.8940   32.8810   46.9220 C   0  0  0  0  0  0  0  0  0  0  0  0
   58.4240   32.0250   45.9150 O   0  0  0  0  0  0  0  0  0  0  0  0
   58.1810   30.6450   45.8280 C   0  0  0  0  0  0  0  0  0  0  0  0
   57.1600   30.1180   45.0150 C   0  0  0  0  0  0  0  0  0  0  0  0
   56.9430   28.7380   44.9580 C   0  0  0  0  0  0  0  0  0  0  0  0
   57.7360   27.8640   45.7150 C   0  0  0  0  0  0  0  0  0  0  0  0
   57.4930   26.3810   45.6590 C   0  0  0  0  0  0  0  0  0  0  0  0
   56.1710   26.0490   46.2760 C   0  0  0  0  0  0  0  0  0  0  0  0
   55.1510   26.7320   45.9930 O   0  0  0  0  0  0  0  0  0  0  0  0
   56.0610   24.9760   47.1490 O   0  0  0  0  0  0  0  0  0  0  0  0
   58.7430   28.3870   46.5370 C   0  0  0  0  0  0  0  0  0  0  0  0
   58.9870   29.7690   46.5750 C   0  0  0  0  0  0  0  0  0  0  0  0
   60.0950   30.2880   47.4050 C   0  0  0  0  0  0  0  0  0  0  0  0
   61.1830   30.8940   46.7640 C   0  0  0  0  0  0  0  0  0  0  0  0
   62.2380   31.4220   47.5060 C   0  0  0  0  0  0  0  0  0  0  0  0
   62.2240   31.3500   48.8980 C   0  0  0  0  0  0  0  0  0  0  0  0
   63.2520   31.8950   49.5950 F   0  0  0  0  0  0  0  0  0  0  0  0
   61.1600   30.7200   49.5690 C   0  0  0  0  0  0  0  0  0  0  0  0
   60.0730   30.1950   48.8180 C   0  0  0  0  0  0  0  0  0  0  0  0
   58.9740   29.4240   49.5230 C   0  0  0  0  0  0  0  0  0  0  0  0
   58.9140   29.8050   50.9330 N   0  0  0  0  0  0  0  0  0  0  0  0
   57.8460   30.6240   51.4410 C   0  0  0  0  0  0  0  0  0  0  0  0
   57.6100   31.7390   50.9040 O   0  0  0  0  0  0  0  0  0  0  0  0
   57.0240   30.1830   52.6220 C   0  0  0  0  0  0  0  0  0  0  0  0
   55.7250   29.7830   52.2290 O   0  0  0  0  0  0  0  0  0  0  0  0
   55.0210   30.8730   51.6680 C   0  0  0  0  0  0  0  0  0  0  0  0
   53.5920   30.8110   52.1250 C   0  0  0  0  0  0  0  0  0  0  0  0
   52.6520   31.7190   51.6120 C   0  0  0  0  0  0  0  0  0  0  0  0
   51.3230   31.6850   52.0490 C   0  0  0  0  0  0  0  0  0  0  0  0
   50.9280   30.7490   53.0130 C   0  0  0  0  0  0  0  0  0  0  0  0
   51.8610   29.8490   53.5370 C   0  0  0  0  0  0  0  0  0  0  0  0
   53.1890   29.8790   53.0970 C   0  0  0  0  0  0  0  0  0  0  0  0
   60.1670   29.7040   51.6740 C   0  0  0  0  0  0  0  0  0  0  0  0
   61.1610   30.7070   51.0880 C   0  0  0  0  0  0  0  0  0  0  0  0
   60.1807   35.4624   46.5656 H   0  0  0  0  0  0  0  0  0  0  0  0
   60.1608   33.9602   45.5809 H   0  0  0  0  0  0  0  0  0  0  0  0
   58.7352   35.0530   45.5809 H   0  0  0  0  0  0  0  0  0  0  0  0
   59.7700   33.3242   47.8814 H   0  0  0  0  0  0  0  0  0  0  0  0
   58.4943   34.5982   48.0576 H   0  0  0  0  0  0  0  0  0  0  0  0
   57.5702   32.2760   47.7818 H   0  0  0  0  0  0  0  0  0  0  0  0
   57.0358   33.4341   46.5126 H   0  0  0  0  0  0  0  0  0  0  0  0
   56.5292   30.7958   44.4211 H   0  0  0  0  0  0  0  0  0  0  0  0
   56.1457   28.3357   44.3157 H   0  0  0  0  0  0  0  0  0  0  0  0
   57.4968   26.0518   44.6094 H   0  0  0  0  0  0  0  0  0  0  0  0
   58.2886   25.8662   46.2176 H   0  0  0  0  0  0  0  0  0  0  0  0
   59.3474   27.7091   47.1577 H   0  0  0  0  0  0  0  0  0  0  0  0
   61.2050   30.9537   45.6658 H   0  0  0  0  0  0  0  0  0  0  0  0
   63.0855   31.8977   46.9908 H   0  0  0  0  0  0  0  0  0  0  0  0
   58.0090   29.6479   49.0448 H   0  0  0  0  0  0  0  0  0  0  0  0
   59.1882   28.3475   49.4511 H   0  0  0  0  0  0  0  0  0  0  0  0
   57.5265   29.3353   53.1108 H   0  0  0  0  0  0  0  0  0  0  0  0
   56.9290   31.0333   53.3133 H   0  0  0  0  0  0  0  0  0  0  0  0
   55.4753   31.8177   52.0012 H   0  0  0  0  0  0  0  0  0  0  0  0
   55.0654   30.8221   50.5701 H   0  0  0  0  0  0  0  0  0  0  0  0
   52.9621   32.4616   50.8621 H   0  0  0  0  0  0  0  0  0  0  0  0
   50.5893   32.3928   51.6357 H   0  0  0  0  0  0  0  0  0  0  0  0
   49.8838   30.7219   53.3579 H   0  0  0  0  0  0  0  0  0  0  0  0
   51.5506   29.1162   54.2963 H   0  0  0  0  0  0  0  0  0  0  0  0
   53.9203   29.1706   53.5133 H   0  0  0  0  0  0  0  0  0  0  0  0
   59.9899   29.9342   52.7350 H   0  0  0  0  0  0  0  0  0  0  0  0
   60.5704   28.6838   51.5938 H   0  0  0  0  0  0  0  0  0  0  0  0
   60.8985   31.7127   51.4480 H   0  0  0  0  0  0  0  0  0  0  0  0
   62.1669   30.4052   51.4153 H   0  0  0  0  0  0  0  0  0  0  0  0
  1  2  1  0
  2  3  1  0
  3  4  1  0
  4  5  1  0
  5  6  2  0
  6  7  1  0
  7  8  2  0
  8  9  1  0
  9 10  1  0
 10 11  2  0
 10 12  1  0
  8 13  1  0
 13 14  2  0
 14 15  1  0
 15 16  2  0
 16 17  1  0
 17 18  2  0
 18 19  1  0
 18 20  1  0
 20 21  2  0
 21 22  1  0
 22 23  1  0
 23 24  1  0
 24 25  2  0
 24 26  1  0
 26 27  1  0
 27 28  1  0
 28 29  1  0
 29 30  2  0
 30 31  1  0
 31 32  2  0
 32 33  1  0
 33 34  2  0
 23 35  1  0
 35 36  1  0
 14  5  1  0
 21 15  1  0
 34 29  1  0
 36 20  1  0
  1 37  1  0
  1 38  1  0
  1 39  1  0
  2 40  1  0
  2 41  1  0
  3 42  1  0
  3 43  1  0
  6 44  1  0
  7 45  1  0
  9 46  1  0
  9 47  1  0
 13 48  1  0
 16 49  1  0
 17 50  1  0
 22 51  1  0
 22 52  1  0
 26 53  1  0
 26 54  1  0
 28 55  1  0
 28 56  1  0
 30 57  1  0
 31 58  1  0
 32 59  1  0
 33 60  1  0
 34 61  1  0
 35 62  1  0
 35 63  1  0
 36 64  1  0
 36 65  1  0
M  CHG  1  12  -1
M  END
>  <UniqueID>  (10) 
10

>  <SMILES>  (10) 
CCCOc1ccc(CC(=O)[O-])cc1-c1ccc(F)c2c1CN(C(=O)COCc1ccccc1)CC2

>  <Energy>  (10) 
75.39809603925575

>  <Genealogy>  (10) 
CCCOc1ccc(CC(=O)[O-])cc1-c1ccc(F)c2c1CN(C(=O)COCc1ccccc1)CC2 (protonated)
CCCOc1ccc(CC(=O)[O-])cc1-c1ccc(F)c2c1CN(C(=O)COCc1ccccc1)CC2 (3D coordinates assigned)
CCCOc1ccc(CC(=O)[O-])cc1-c1ccc(F)c2c1CN(C(=O)COCc1ccccc1)CC2 (nonaromatic ring conformer: 75.39809603925575 kcal/mol)

>  <smiles>  (10) 
CCCOc1ccc(CC(=O)O)cc1-c1ccc(F)c2c1CN(C(=O)COCc1ccccc1)CC2

>  <score_type>  (10) 
oracle

>  <origin>  (10) 
adg

>  <m_score__min__energy>  (10) 
-11.58

>  <m_primary>  (10) 
energy

$$$$
10:0
     RDKit          3D

 30 31  0  0  0  0  0  0  0  0999 V2000
   57.6289   29.8490   43.2574 H   0  0  0  0  0  0  0  0  0  0  0  0
   57.9040   30.5800   44.0320 C   0  0  0  0  0  0  0  0  0  0  0  0
   57.3930   31.8790   43.9740 C   0  0  0  0  0  0  0  0  0  0  0  0
   56.7310   32.1690   43.1448 H   0  0  0  0  0  0  0  0  0  0  0  0
   57.7190   32.8180   44.9680 C   0  0  0  0  0  0  0  0  0  0  0  0
   57.1600   34.2110   44.8940 C   0  0  0  0  0  0  0  0  0  0  0  0
   57.0046   34.5983   45.9118 H   0  0  0  0  0  0  0  0  0  0  0  0
   57.8667   34.8617   44.3580 H   0  0  0  0  0  0  0  0  0  0  0  0
   56.1996   34.1927   44.3580 H   0  0  0  0  0  0  0  0  0  0  0  0
   58.5550   32.4280   46.0350 C   0  0  0  0  0  0  0  0  0  0  0  0
   59.0120   33.6370   47.4510 Br  0  0  0  0  0  0  0  0  0  0  0  0
   59.0620   31.1240   46.0860 C   0  0  0  0  0  0  0  0  0  0  0  0
   59.6991   30.8183   46.9290 H   0  0  0  0  0  0  0  0  0  0  0  0
   58.7630   30.2040   45.0690 C   0  0  0  0  0  0  0  0  0  0  0  0
   59.2460   28.8530   45.1210 N   0  0  0  0  0  0  0  0  0  0  0  0
   58.5450   27.7880   45.3950 C   0  0  0  0  0  0  0  0  0  0  0  0
   57.0360   27.7540   45.2450 C   0  0  0  0  0  0  0  0  0  0  0  0
   56.7978   27.6381   44.1774 H   0  0  0  0  0  0  0  0  0  0  0  0
   56.6547   28.6958   45.6664 H   0  0  0  0  0  0  0  0  0  0  0  0
   56.3640   26.6340   46.0050 C   0  0  0  0  0  0  0  0  0  0  0  0
   55.1440   26.5770   45.9980 O   0  0  0  0  0  0  0  0  0  0  0  0
   57.1310   25.5500   46.7230 C   0  0  0  0  0  0  0  0  0  0  0  0
   57.1945   24.6689   46.0675 H   0  0  0  0  0  0  0  0  0  0  0  0
   56.5943   25.3211   47.6555 H   0  0  0  0  0  0  0  0  0  0  0  0
   58.5470   25.9870   47.0960 C   0  0  0  0  0  0  0  0  0  0  0  0
   59.1073   25.1156   47.4657 H   0  0  0  0  0  0  0  0  0  0  0  0
   58.4824   26.7608   47.8751 H   0  0  0  0  0  0  0  0  0  0  0  0
   59.2720   26.5710   45.8880 C   0  0  0  0  0  0  0  0  0  0  0  0
   59.3094   25.8188   45.0863 H   0  0  0  0  0  0  0  0  0  0  0  0
   60.2940   26.8535   46.1808 H   0  0  0  0  0  0  0  0  0  0  0  0
  1  2  1  0
  2  3  2  0
  3  4  1  0
  3  5  1  0
  5  6  1  0
  6  7  1  0
  6  8  1  0
  6  9  1  0
  5 10  2  0
 10 11  1  0
 10 12  1  0
 12 13  1  0
 12 14  2  0
 14 15  1  0
 15 16  2  0
 16 17  1  0
 17 18  1  0
 17 19  1  0
 17 20  1  0
 20 21  2  0
 20 22  1  0
 22 23  1  0
 22 24  1  0
 22 25  1  0
 25 26  1  0
 25 27  1  0
 25 28  1  0
 28 29  1  0
 28 30  1  0
 14  2  1  0
 28 16  1  0
M  END
>  <UniqueID>  (11) 
11

>  <SMILES>  (11) 
Cc1ccc(/N=C2/CCCC(=O)C2)cc1Br

>  <Energy>  (11) 
34.879934464550075

>  <Genealogy>  (11) 
Cc1ccc(/N=C2/CCCC(=O)C2)cc1Br (cis-trans isomerization)
Cc1ccc(/N=C2/CCCC(=O)C2)cc1Br (3D coordinates assigned)
Cc1ccc(/N=C2/CCCC(=O)C2)cc1Br (nonaromatic ring conformer: 34.879934464550075 kcal/mol)

>  <smiles>  (11) 
Cc1ccc(N=C2CCCC(=O)C2)cc1Br

>  <score_type>  (11) 
oracle

>  <origin>  (11) 
adg

>  <m_score__min__energy>  (11) 
-7.25

>  <m_primary>  (11) 
energy

$$$$
11:0
     RDKit          3D

 37 39  0  0  0  0  0  0  0  0999 V2000
   57.0400   24.8440   46.3930 C   0  0  0  0  0  0  0  0  0  0  0  0
   56.6730   25.8910   45.3490 C   0  0  0  0  0  0  0  0  0  0  0  0
   56.2410   27.1270   45.9930 N   0  0  0  0  0  0  0  0  0  0  0  0
   56.4660   28.4320   45.4440 C   0  0  0  0  0  0  0  0  0  0  0  0
   55.5270   29.0320   44.8520 O   0  0  0  0  0  0  0  0  0  0  0  0
   57.7520   29.0670   45.5930 N   0  0  0  0  0  0  0  0  0  0  0  0
   57.9950   30.3890   45.0670 C   0  0  0  0  0  0  0  0  0  0  0  0
   57.6810   30.6320   43.7160 C   0  0  0  0  0  0  0  0  0  0  0  0
   57.8930   31.8840   43.1420 C   0  0  0  0  0  0  0  0  0  0  0  0
   58.4300   32.9160   43.9030 C   0  0  0  0  0  0  0  0  0  0  0  0
   58.7630   32.6990   45.2400 C   0  0  0  0  0  0  0  0  0  0  0  0
   58.5520   31.4470   45.8520 C   0  0  0  0  0  0  0  0  0  0  0  0
   59.0020   31.3410   47.3040 C   0  0  0  0  0  0  0  0  0  0  0  0
   58.5250   30.1220   48.0950 C   0  0  0  0  0  0  0  0  0  0  0  0
   59.1760   28.8770   47.5700 C   0  0  0  0  0  0  0  0  0  0  0  0
   60.1930   28.2260   48.2860 C   0  0  0  0  0  0  0  0  0  0  0  0
   60.7990   27.0820   47.7570 C   0  0  0  0  0  0  0  0  0  0  0  0
   60.4000   26.5910   46.5100 C   0  0  0  0  0  0  0  0  0  0  0  0
   60.9900   25.4820   45.9980 F   0  0  0  0  0  0  0  0  0  0  0  0
   59.3970   27.2440   45.7900 C   0  0  0  0  0  0  0  0  0  0  0  0
   58.7880   28.3920   46.3170 C   0  0  0  0  0  0  0  0  0  0  0  0
   56.8932   25.2627   47.3996 H   0  0  0  0  0  0  0  0  0  0  0  0
   56.3983   23.9595   46.2666 H   0  0  0  0  0  0  0  0  0  0  0  0
   58.0935   24.5537   46.2666 H   0  0  0  0  0  0  0  0  0  0  0  0
   57.5515   26.0985   44.7204 H   0  0  0  0  0  0  0  0  0  0  0  0
   55.8479   25.5043   44.7329 H   0  0  0  0  0  0  0  0  0  0  0  0
   57.2615   29.8202   43.1037 H   0  0  0  0  0  0  0  0  0  0  0  0
   57.6354   32.0557   42.0865 H   0  0  0  0  0  0  0  0  0  0  0  0
   58.5925   33.9052   43.4501 H   0  0  0  0  0  0  0  0  0  0  0  0
   59.1985   33.5205   45.8278 H   0  0  0  0  0  0  0  0  0  0  0  0
   60.1019   31.3299   47.3099 H   0  0  0  0  0  0  0  0  0  0  0  0
   58.5424   32.2042   47.8077 H   0  0  0  0  0  0  0  0  0  0  0  0
   58.7889   30.2507   49.1551 H   0  0  0  0  0  0  0  0  0  0  0  0
   57.4341   30.0291   47.9882 H   0  0  0  0  0  0  0  0  0  0  0  0
   60.5133   28.6158   49.2634 H   0  0  0  0  0  0  0  0  0  0  0  0
   61.5903   26.5680   48.3224 H   0  0  0  0  0  0  0  0  0  0  0  0
   59.0845   26.8574   44.8087 H   0  0  0  0  0  0  0  0  0  0  0  0
  1  2  1  0
  2  3  1  0
  3  4  1  0
  4  5  2  0
  4  6  1  0
  6  7  1  0
  7  8  2  0
  8  9  1  0
  9 10  2  0
 10 11  1  0
 11 12  2  0
 12 13  1  0
 13 14  1  0
 14 15  1  0
 15 16  2  0
 16 17  1  0
 17 18  2  0
 18 19  1  0
 18 20  1  0
 20 21  2  0
 21  6  1  0
 12  7  1  0
 21 15  1  0
  1 22  1  0
  1 23  1  0
  1 24  1  0
  2 25  1  0
  2 26  1  0
  8 27  1  0
  9 28  1  0
 10 29  1  0
 11 30  1  0
 13 31  1  0
 13 32  1  0
 14 33  1  0
 14 34  1  0
 16 35  1  0
 17 36  1  0
 20 37  1  0
M  CHG  1   3  -1
M  END
>  <UniqueID>  (12) 
12

>  <SMILES>  (12) 
CC[N-]C(=O)N1c2ccccc2CCc2ccc(F)cc21

>  <Energy>  (12) 
53.586610926761814

>  <Genealogy>  (12) 
CC[N-]C(=O)N1c2ccccc2CCc2ccc(F)cc21 (protonated)
CC[N-]C(=O)N1c2ccccc2CCc2ccc(F)cc21 (3D coordinates assigned)
CC[N-]C(=O)N1c2ccccc2CCc2ccc(F)cc21 (nonaromatic ring conformer: 53.586610926761814 kcal/mol)

>  <smiles>  (12) 
CCNC(=O)N1c2ccccc2CCc2ccc(F)cc21

>  <score_type>  (12) 
oracle

>  <origin>  (12) 
adg

>  <m_score__min__energy>  (12) 
-6.5300000000000002

>  <m_primary>  (12) 
energy

$$$$
12:0
     RDKit          3D

 59 63  0  0  0  0  0  0  0  0999 V2000
   59.6530   36.2100   45.6920 O   0  0  0  0  0  0  0  0  0  0  0  0
   59.4960   34.9670   45.8590 C   0  0  0  0  0  0  0  0  0  0  0  0
   60.4630   34.2400   46.7110 C   0  0  0  0  0  0  0  0  0  0  0  0
   61.7830   33.9220   46.4040 C   0  0  0  0  0  0  0  0  0  0  0  0
   62.2520   33.2170   47.4920 C   0  0  0  0  0  0  0  0  0  0  0  0
   63.5120   32.6500   47.6660 C   0  0  0  0  0  0  0  0  0  0  0  0
   63.7540   31.9460   48.8540 C   0  0  0  0  0  0  0  0  0  0  0  0
   62.7460   31.8290   49.8270 C   0  0  0  0  0  0  0  0  0  0  0  0
   61.4900   32.4240   49.6040 C   0  0  0  0  0  0  0  0  0  0  0  0
   60.4570   32.3370   50.5990 N   0  0  0  0  0  0  0  0  0  0  0  0
   60.2060   33.4850   51.4820 C   0  0  0  0  0  0  0  0  0  0  0  0
   59.0220   33.2200   52.4200 C   0  0  0  0  0  0  0  0  0  0  0  0
   57.8210   32.6820   51.6310 C   0  0  0  0  0  0  0  0  0  0  0  0
   58.1620   31.4520   50.7550 C   0  0  0  0  0  0  0  0  0  0  0  0
   59.6590   31.1120   50.7260 C   0  0  0  0  0  0  0  0  0  0  0  0
   61.2960   33.0970   48.4330 N   0  0  0  0  0  0  0  0  0  0  0  0
   60.1910   33.7100   47.9660 C   0  0  0  0  0  0  0  0  0  0  0  0
   58.3410   34.3010   45.2870 N   0  0  0  0  0  0  0  0  0  0  0  0
   57.5820   33.5370   46.3190 C   0  0  0  0  0  0  0  0  0  0  0  0
   57.7730   32.0210   46.1890 C   0  0  0  0  0  0  0  0  0  0  0  0
   57.3050   31.5630   44.8650 N   0  0  0  0  0  0  0  0  0  0  0  0
   57.5370   30.1070   44.6750 C   0  0  1  0  0  0  0  0  0  0  0  0
   58.5380   29.5390   45.6610 C   0  0  0  0  0  0  0  0  0  0  0  0
   57.7690   28.4310   46.3570 C   0  0  0  0  0  0  0  0  0  0  0  0
   56.6620   28.0770   45.5640 O   0  0  0  0  0  0  0  0  0  0  0  0
   56.2940   29.2350   44.8570 C   0  0  0  0  0  0  0  0  0  0  0  0
   57.7150   32.4440   43.7370 C   0  0  0  0  0  0  0  0  0  0  0  0
   58.7810   33.4770   44.1370 C   0  0  0  0  0  0  0  0  0  0  0  0
   62.3348   34.1787   45.4877 H   0  0  0  0  0  0  0  0  0  0  0  0
   64.2917   32.7512   46.8967 H   0  0  0  0  0  0  0  0  0  0  0  0
   64.7370   31.4831   49.0256 H   0  0  0  0  0  0  0  0  0  0  0  0
   62.9379   31.2753   50.7579 H   0  0  0  0  0  0  0  0  0  0  0  0
   61.1055   33.6757   52.0858 H   0  0  0  0  0  0  0  0  0  0  0  0
   59.9642   34.3570   50.8565 H   0  0  0  0  0  0  0  0  0  0  0  0
   59.3188   32.4793   53.1772 H   0  0  0  0  0  0  0  0  0  0  0  0
   58.7345   34.1643   52.9054 H   0  0  0  0  0  0  0  0  0  0  0  0
   57.0352   32.3945   52.3451 H   0  0  0  0  0  0  0  0  0  0  0  0
   57.4931   33.4832   50.9523 H   0  0  0  0  0  0  0  0  0  0  0  0
   57.6158   30.5824   51.1493 H   0  0  0  0  0  0  0  0  0  0  0  0
   57.8681   31.6995   49.7243 H   0  0  0  0  0  0  0  0  0  0  0  0
   59.9321   30.5960   51.6583 H   0  0  0  0  0  0  0  0  0  0  0  0
   59.8616   30.4617   49.8622 H   0  0  0  0  0  0  0  0  0  0  0  0
   59.2283   33.7797   48.4935 H   0  0  0  0  0  0  0  0  0  0  0  0
   57.6860   35.0290   44.9210 H   0  0  0  0  0  0  0  0  0  0  0  0
   57.9272   33.8515   47.3150 H   0  0  0  0  0  0  0  0  0  0  0  0
   56.5130   33.7519   46.1737 H   0  0  0  0  0  0  0  0  0  0  0  0
   58.8397   31.7775   46.3022 H   0  0  0  0  0  0  0  0  0  0  0  0
   57.1890   31.5157   46.9723 H   0  0  0  0  0  0  0  0  0  0  0  0
   57.8943   30.0671   43.6354 H   0  0  0  0  0  0  0  0  0  0  0  0
   59.4184   29.1369   45.1383 H   0  0  0  0  0  0  0  0  0  0  0  0
   58.9228   30.2953   46.3610 H   0  0  0  0  0  0  0  0  0  0  0  0
   58.4221   27.5561   46.4910 H   0  0  0  0  0  0  0  0  0  0  0  0
   57.4256   28.7780   47.3427 H   0  0  0  0  0  0  0  0  0  0  0  0
   55.8889   28.9561   43.8731 H   0  0  0  0  0  0  0  0  0  0  0  0
   55.5234   29.7881   45.4140 H   0  0  0  0  0  0  0  0  0  0  0  0
   58.1215   31.8151   42.9312 H   0  0  0  0  0  0  0  0  0  0  0  0
   56.8230   33.0007   43.4139 H   0  0  0  0  0  0  0  0  0  0  0  0
   59.7055   32.9475   44.4108 H   0  0  0  0  0  0  0  0  0  0  0  0
   58.9490   34.1459   43.2801 H   0  0  0  0  0  0  0  0  0  0  0  0
  1  2  2  0
  2  3  1  0
  3  4  1  0
  4  5  2  0
  5  6  1  0
  6  7  2  0
  7  8  1  0
  8  9  2  0
  9 10  1  0
 10 11  1  0
 11 12  1  0
 12 13  1  0
 13 14  1  0
 14 15  1  0
  9 16  1  0
 16 17  1  0
  2 18  1  0
 18 19  1  0
 19 20  1  0
 20 21  1  0
 21 22  1  0
 22 23  1  0
 23 24  1  0
 24 25  1  0
 25 26  1  0
 21 27  1  0
 27 28  1  0
 17  3  2  0
 28 18  1  0
 16  5  1  0
 26 22  1  0
 15 10  1  0
  4 29  1  0
  6 30  1  0
  7 31  1  0
  8 32  1  0
 11 33  1  0
 11 34  1  0
 12 35  1  0
 12 36  1  0
 13 37  1  0
 13 38  1  0
 14 39  1  0
 14 40  1  0
 15 41  1  0
 15 42  1  0
 17 43  1  0
 18 44  1  0
 19 45  1  0
 19 46  1  0
 20 47  1  0
 20 48  1  0
 22 49  1  6
 23 50  1  0
 23 51  1  0
 24 52  1  0
 24 53  1  0
 26 54  1  0
 26 55  1  0
 27 56  1  0
 27 57  1  0
 28 58  1  0
 28 59  1  0
M  CHG  1  18   1
M  END
>  <UniqueID>  (13) 
13

>  <SMILES>  (13) 
O=C(c1cc2cccc(N3CCCCC3)n2c1)[NH+]1CCN([C@H]2CCOC2)CC1

>  <Energy>  (13) 
118.52557468629512

>  <Genealogy>  (13) 
O=C(c1cc2cccc(N3CCCCC3)n2c1)[NH+]1CCN(C2CCOC2)CC1 (protonated)
O=C(c1cc2cccc(N3CCCCC3)n2c1)[NH+]1CCN([C@H]2CCOC2)CC1 (chirality)
O=C(c1cc2cccc(N3CCCCC3)n2c1)[NH+]1CCN([C@H]2CCOC2)CC1 (3D coordinates assigned)
O=C(c1cc2cccc(N3CCCCC3)n2c1)[NH+]1CCN([C@H]2CCOC2)CC1 (nonaromatic ring conformer: 118.52557468629512 kcal/mol)

>  <smiles>  (13) 
O=C(c1cc2cccc(N3CCCCC3)n2c1)N1CCN(C2CCOC2)CC1

>  <score_type>  (13) 
oracle

>  <origin>  (13) 
adg

>  <m_score__min__energy>  (13) 
-7.1900000000000004

>  <m_primary>  (13) 
energy

$$$$
13:0
     RDKit          3D

 92 94  0  0  0  0  0  0  0  0999 V2000
   61.3040   33.4670   52.8440 C   0  0  0  0  0  0  0  0  0  0  0  0
   60.9810   33.2010   51.3760 C   0  0  0  0  0  0  0  0  0  0  0  0
   59.6370   33.8350   50.9810 C   0  0  0  0  0  0  0  0  0  0  0  0
   58.6920   34.0250   52.1830 C   0  0  0  0  0  0  0  0  0  0  0  0
   57.9900   32.7420   52.6800 C   0  0  0  0  0  0  0  0  0  0  0  0
   57.2600   31.9340   51.5910 C   0  0  0  0  0  0  0  0  0  0  0  0
   58.0190   30.6640   51.1800 C   0  0  0  0  0  0  0  0  0  0  0  0
   58.7310   30.8570   49.8330 C   0  0  0  0  0  0  0  0  0  0  0  0
   59.2490   29.5260   49.2490 C   0  0  0  0  0  0  0  0  0  0  0  0
   60.3830   28.8910   50.0780 C   0  0  0  0  0  0  0  0  0  0  0  0
   61.3700   29.9250   50.6450 C   0  0  0  0  0  0  0  0  0  0  0  0
   62.6070   29.2250   51.2540 C   0  0  0  0  0  0  0  0  0  0  0  0
   63.1560   29.8420   52.5060 N   0  0  0  0  0  0  0  0  0  0  0  0
   62.1360   29.8970   53.5920 C   0  0  0  0  0  0  0  0  0  0  0  0
   64.2690   28.9860   53.0130 C   0  0  0  0  0  0  0  0  0  0  0  0
   63.7300   31.2250   52.2630 C   0  0  0  0  0  0  0  0  0  0  0  0
   65.0350   31.4270   51.3890 C   0  0  0  0  0  0  0  0  0  0  0  0
   65.1210   32.5940   50.4300 N   0  0  0  0  0  0  0  0  0  0  0  0
   66.5600   32.8180   50.1250 C   0  0  0  0  0  0  0  0  0  0  0  0
   64.5780   33.8350   51.0400 C   0  0  0  0  0  0  0  0  0  0  0  0
   64.4020   32.2570   49.1640 C   0  0  0  0  0  0  0  0  0  0  0  0
   63.8400   33.4410   48.3350 C   0  0  0  0  0  0  0  0  0  0  0  0
   62.3170   33.6540   48.5500 C   0  0  0  0  0  0  0  0  0  0  0  0
   61.4630   33.2250   47.4030 N   0  0  0  0  0  0  0  0  0  0  0  0
   60.1610   33.8760   47.3870 C   0  0  0  0  0  0  0  0  0  0  0  0
   59.9310   34.9050   48.0810 O   0  0  0  0  0  0  0  0  0  0  0  0
   59.0980   33.3500   46.4980 C   0  0  0  0  0  0  0  0  0  0  0  0
   58.0280   34.1570   46.0770 C   0  0  0  0  0  0  0  0  0  0  0  0
   57.0320   33.6310   45.2530 C   0  0  0  0  0  0  0  0  0  0  0  0
   57.0780   32.2900   44.8550 C   0  0  0  0  0  0  0  0  0  0  0  0
   58.1390   31.4720   45.2690 C   0  0  0  0  0  0  0  0  0  0  0  0
   58.1900   30.1190   44.8960 C   0  0  0  0  0  0  0  0  0  0  0  0
   59.2360   29.3090   45.3410 C   0  0  0  0  0  0  0  0  0  0  0  0
   60.2340   29.8310   46.1660 C   0  0  0  0  0  0  0  0  0  0  0  0
   60.2110   31.1860   46.5330 C   0  0  0  0  0  0  0  0  0  0  0  0
   59.1580   32.0060   46.0930 C   0  0  0  0  0  0  0  0  0  0  0  0
   61.2940   31.7790   47.3570 C   0  0  0  0  0  0  0  0  0  0  0  0
   62.1500   31.0120   47.8780 O   0  0  0  0  0  0  0  0  0  0  0  0
   60.6117   32.8969   53.4809 H   0  0  0  0  0  0  0  0  0  0  0  0
   62.3375   33.1546   53.0545 H   0  0  0  0  0  0  0  0  0  0  0  0
   61.1956   34.5412   53.0545 H   0  0  0  0  0  0  0  0  0  0  0  0
   61.7778   33.6286   50.7497 H   0  0  0  0  0  0  0  0  0  0  0  0
   60.9120   32.1136   51.2250 H   0  0  0  0  0  0  0  0  0  0  0  0
   59.8316   34.8182   50.5277 H   0  0  0  0  0  0  0  0  0  0  0  0
   59.1425   33.1517   50.2749 H   0  0  0  0  0  0  0  0  0  0  0  0
   59.2809   34.4349   53.0168 H   0  0  0  0  0  0  0  0  0  0  0  0
   57.8913   34.6954   51.8374 H   0  0  0  0  0  0  0  0  0  0  0  0
   58.7513   32.0911   53.1347 H   0  0  0  0  0  0  0  0  0  0  0  0
   57.2157   33.0710   53.3887 H   0  0  0  0  0  0  0  0  0  0  0  0
   56.2705   31.6433   51.9736 H   0  0  0  0  0  0  0  0  0  0  0  0
   57.1822   32.5750   50.7005 H   0  0  0  0  0  0  0  0  0  0  0  0
   58.7669   30.4271   51.9510 H   0  0  0  0  0  0  0  0  0  0  0  0
   57.2952   29.8420   51.0780 H   0  0  0  0  0  0  0  0  0  0  0  0
   58.0234   31.3048   49.1197 H   0  0  0  0  0  0  0  0  0  0  0  0
   59.5991   31.5112   50.0017 H   0  0  0  0  0  0  0  0  0  0  0  0
   58.4104   28.8155   49.2044 H   0  0  0  0  0  0  0  0  0  0  0  0
   59.6610   29.7479   48.2535 H   0  0  0  0  0  0  0  0  0  0  0  0
   59.9355   28.3380   50.9170 H   0  0  0  0  0  0  0  0  0  0  0  0
   60.9506   28.2316   49.4049 H   0  0  0  0  0  0  0  0  0  0  0  0
   61.6963   30.5943   49.8353 H   0  0  0  0  0  0  0  0  0  0  0  0
   60.8645   30.4993   51.4353 H   0  0  0  0  0  0  0  0  0  0  0  0
   62.3277   28.1862   51.4841 H   0  0  0  0  0  0  0  0  0  0  0  0
   63.4036   29.3180   50.5011 H   0  0  0  0  0  0  0  0  0  0  0  0
   62.6395   29.8699   54.5696 H   0  0  0  0  0  0  0  0  0  0  0  0
   61.5563   30.8277   53.5038 H   0  0  0  0  0  0  0  0  0  0  0  0
   61.4596   29.0340   53.5038 H   0  0  0  0  0  0  0  0  0  0  0  0
   64.2632   28.9905   54.1130 H   0  0  0  0  0  0  0  0  0  0  0  0
   64.1344   27.9564   52.6498 H   0  0  0  0  0  0  0  0  0  0  0  0
   65.2295   29.3803   52.6498 H   0  0  0  0  0  0  0  0  0  0  0  0
   62.9358   31.8120   51.7786 H   0  0  0  0  0  0  0  0  0  0  0  0
   64.0633   31.5272   53.2668 H   0  0  0  0  0  0  0  0  0  0  0  0
   65.8764   31.5277   52.0904 H   0  0  0  0  0  0  0  0  0  0  0  0
   65.0378   30.5494   50.7258 H   0  0  0  0  0  0  0  0  0  0  0  0
   67.1247   32.9059   51.0649 H   0  0  0  0  0  0  0  0  0  0  0  0
   66.9477   31.9694   49.5423 H   0  0  0  0  0  0  0  0  0  0  0  0
   66.6714   33.7443   49.5423 H   0  0  0  0  0  0  0  0  0  0  0  0
   64.6147   33.7512   52.1362 H   0  0  0  0  0  0  0  0  0  0  0  0
   65.1815   34.6964   50.7177 H   0  0  0  0  0  0  0  0  0  0  0  0
   63.5358   33.9763   50.7177 H   0  0  0  0  0  0  0  0  0  0  0  0
   65.1037   31.7056   48.5209 H   0  0  0  0  0  0  0  0  0  0  0  0
   63.5170   31.6865   49.4822 H   0  0  0  0  0  0  0  0  0  0  0  0
   64.3688   34.3594   48.6300 H   0  0  0  0  0  0  0  0  0  0  0  0
   63.9956   33.2054   47.2718 H   0  0  0  0  0  0  0  0  0  0  0  0
   62.0122   33.0812   49.4382 H   0  0  0  0  0  0  0  0  0  0  0  0
   62.1661   34.7376   48.6638 H   0  0  0  0  0  0  0  0  0  0  0  0
   61.9300   33.4650   46.5010 H   0  0  0  0  0  0  0  0  0  0  0  0
   57.9750   35.2078   46.3981 H   0  0  0  0  0  0  0  0  0  0  0  0
   56.2062   34.2740   44.9144 H   0  0  0  0  0  0  0  0  0  0  0  0
   56.2819   31.8778   44.2175 H   0  0  0  0  0  0  0  0  0  0  0  0
   57.4043   29.6969   44.2521 H   0  0  0  0  0  0  0  0  0  0  0  0
   59.2743   28.2518   45.0395 H   0  0  0  0  0  0  0  0  0  0  0  0
   61.0413   29.1783   46.5298 H   0  0  0  0  0  0  0  0  0  0  0  0
  1  2  1  0
  2  3  1  0
  3  4  1  0
  4  5  1  0
  5  6  1  0
  6  7  1  0
  7  8  1  0
  8  9  1  0
  9 10  1  0
 10 11  1  0
 11 12  1  0
 12 13  1  0
 13 14  1  0
 13 15  1  0
 13 16  1  0
 16 17  1  0
 17 18  1  0
 18 19  1  0
 18 20  1  0
 18 21  1  0
 21 22  1  0
 22 23  1  0
 23 24  1  0
 24 25  1  0
 25 26  2  0
 25 27  1  0
 27 28  1  0
 28 29  2  0
 29 30  1  0
 30 31  2  0
 31 32  1  0
 32 33  2  0
 33 34  1  0
 34 35  2  0
 35 36  1  0
 35 37  1  0
 37 38  2  0
 37 24  1  0
 36 27  2  0
 36 31  1  0
  1 39  1  0
  1 40  1  0
  1 41  1  0
  2 42  1  0
  2 43  1  0
  3 44  1  0
  3 45  1  0
  4 46  1  0
  4 47  1  0
  5 48  1  0
  5 49  1  0
  6 50  1  0
  6 51  1  0
  7 52  1  0
  7 53  1  0
  8 54  1  0
  8 55  1  0
  9 56  1  0
  9 57  1  0
 10 58  1  0
 10 59  1  0
 11 60  1  0
 11 61  1  0
 12 62  1  0
 12 63  1  0
 14 64  1  0
 14 65  1  0
 14 66  1  0
 15 67  1  0
 15 68  1  0
 15 69  1  0
 16 70  1  0
 16 71  1  0
 17 72  1  0
 17 73  1  0
 19 74  1  0
 19 75  1  0
 19 76  1  0
 20 77  1  0
 20 78  1  0
 20 79  1  0
 21 80  1  0
 21 81  1  0
 22 82  1  0
 22 83  1  0
 23 84  1  0
 23 85  1  0
 24 86  1  0
 28 87  1  0
 29 88  1  0
 30 89  1  0
 32 90  1  0
 33 91  1  0
 34 92  1  0
M  CHG  3  13   1  18   1  24   1
M  END
>  <UniqueID>  (14) 
14

>  <SMILES>  (14) 
CCCCCCCCCCCC[N+](C)(C)CC[N+](C)(C)CCC[NH+]1C(=O)c2cccc3cccc(c23)C1=O

>  <Energy>  (14) 
130.4347796787149

>  <Genealogy>  (14) 
CCCCCCCCCCCC[N+](C)(C)CC[N+](C)(C)CCC[NH+]1C(=O)c2cccc3cccc(c23)C1=O (protonated)
CCCCCCCCCCCC[N+](C)(C)CC[N+](C)(C)CCC[NH+]1C(=O)c2cccc3cccc(c23)C1=O (3D coordinates assigned)
CCCCCCCCCCCC[N+](C)(C)CC[N+](C)(C)CCC[NH+]1C(=O)c2cccc3cccc(c23)C1=O (nonaromatic ring conformer: 130.4347796787149 kcal/mol)

>  <smiles>  (14) 
CCCCCCCCCCCC[N+](C)(C)CC[N+](C)(C)CCCN1C(=O)c2cccc3cccc(c23)C1=O

>  <score_type>  (14) 
oracle

>  <origin>  (14) 
adg

>  <m_score__min__energy>  (14) 
-3.8500000000000001

>  <m_primary>  (14) 
energy

$$$$
14:0
     RDKit          3D

 54 57  0  0  1  0  0  0  0  0999 V2000
   57.0140   24.5150   47.9120 C   0  0  0  0  0  0  0  0  0  0  0  0
   58.1610   24.9980   47.2190 O   0  0  0  0  0  0  0  0  0  0  0  0
   58.2070   26.3470   46.9040 C   0  0  0  0  0  0  0  0  0  0  0  0
   59.2360   27.0820   47.4460 C   0  0  0  0  0  0  0  0  0  0  0  0
   59.2650   28.4200   47.1200 C   0  0  0  0  0  0  0  0  0  0  0  0
   60.2600   29.1500   47.6470 N   0  0  0  0  0  0  0  0  0  0  0  0
   60.2920   30.4540   47.3380 C   0  0  0  0  0  0  0  0  0  0  0  0
   61.3560   31.2290   47.9040 N   0  0  0  0  0  0  0  0  0  0  0  0
   61.2770   31.6760   49.2700 C   0  0  0  0  0  0  0  0  0  0  0  0
   62.3750   32.7150   49.4590 C   0  0  0  0  0  0  0  0  0  0  0  0
   62.2000   33.7450   48.3540 C   0  0  0  0  0  0  0  0  0  0  0  0
   62.6020   33.0970   47.0560 C   0  0  0  0  0  0  0  0  0  0  0  0
   62.5390   31.5940   47.1400 C   0  0  0  0  0  0  0  0  0  0  0  0
   59.3850   31.0210   46.5420 N   0  0  0  0  0  0  0  0  0  0  0  0
   58.3890   30.2770   46.0170 C   0  0  0  0  0  0  0  0  0  0  0  0
   57.5910   30.8300   45.2540 N   0  0  0  0  0  0  0  0  0  0  0  0
   57.0850   32.1030   45.1960 C   0  0  0  0  0  0  0  0  0  0  0  0
   57.9680   33.2130   45.6600 C   0  0  0  0  0  0  0  0  0  0  0  0
   58.7280   33.9730   44.7810 C   0  0  0  0  0  0  0  0  0  0  0  0
   59.5480   35.0120   45.2290 C   0  0  0  0  0  0  0  0  0  0  0  0
   59.6420   35.3340   46.5590 C   0  0  0  0  0  0  0  0  0  0  0  0
   58.8960   34.5910   47.4430 C   0  0  0  0  0  0  0  0  0  0  0  0
   58.0990   33.5790   46.9980 C   0  0  0  0  0  0  0  0  0  0  0  0
   58.2880   28.9370   46.2900 C   0  0  0  0  0  0  0  0  0  0  0  0
   57.2730   28.2050   45.7610 C   0  0  0  0  0  0  0  0  0  0  0  0
   57.2340   26.8310   46.0890 C   0  0  0  0  0  0  0  0  0  0  0  0
   56.2500   25.9890   45.6080 O   0  0  0  0  0  0  0  0  0  0  0  0
   56.6220   24.9390   44.7380 C   0  0  0  0  0  0  0  0  0  0  0  0
   57.1838   24.5865   48.9965 H   0  0  0  0  0  0  0  0  0  0  0  0
   56.1377   25.1205   47.6373 H   0  0  0  0  0  0  0  0  0  0  0  0
   56.8348   23.4650   47.6373 H   0  0  0  0  0  0  0  0  0  0  0  0
   59.9925   26.6271   48.1023 H   0  0  0  0  0  0  0  0  0  0  0  0
   60.9790   28.7360   48.2670 H   0  0  0  0  0  0  0  0  0  0  0  0
   60.2924   32.1263   49.4645 H   0  0  0  0  0  0  0  0  0  0  0  0
   61.4056   30.8354   49.9677 H   0  0  0  0  0  0  0  0  0  0  0  0
   62.2763   33.1954   50.4436 H   0  0  0  0  0  0  0  0  0  0  0  0
   63.3708   32.2501   49.4112 H   0  0  0  0  0  0  0  0  0  0  0  0
   61.1488   34.0649   48.3032 H   0  0  0  0  0  0  0  0  0  0  0  0
   62.8218   34.6307   48.5511 H   0  0  0  0  0  0  0  0  0  0  0  0
   61.9220   33.4384   46.2616 H   0  0  0  0  0  0  0  0  0  0  0  0
   63.6408   33.3847   46.8366 H   0  0  0  0  0  0  0  0  0  0  0  0
   62.4748   31.1672   46.1282 H   0  0  0  0  0  0  0  0  0  0  0  0
   63.4427   31.2034   47.6306 H   0  0  0  0  0  0  0  0  0  0  0  0
   56.8220   32.3064   44.1474 H   0  0  0  0  0  0  0  0  0  0  0  0
   56.2392   32.1027   45.8992 H   0  0  0  0  0  0  0  0  0  0  0  0
   58.6835   33.7515   43.7044 H   0  0  0  0  0  0  0  0  0  0  0  0
   60.1333   35.5866   44.4960 H   0  0  0  0  0  0  0  0  0  0  0  0
   60.2886   36.1541   46.9045 H   0  0  0  0  0  0  0  0  0  0  0  0
   58.9428   34.8153   48.5189 H   0  0  0  0  0  0  0  0  0  0  0  0
   57.5211   33.0140   47.7442 H   0  0  0  0  0  0  0  0  0  0  0  0
   56.5156   28.6614   45.1068 H   0  0  0  0  0  0  0  0  0  0  0  0
   56.9317   24.0649   45.3297 H   0  0  0  0  0  0  0  0  0  0  0  0
   55.7653   24.6675   44.1036 H   0  0  0  0  0  0  0  0  0  0  0  0
   57.4585   25.2674   44.1036 H   0  0  0  0  0  0  0  0  0  0  0  0
  1  2  1  0
  2  3  1  0
  3  4  2  0
  4  5  1  0
  5  6  1  0
  6  7  1  0
  7  8  1  0
  8  9  1  0
  9 10  1  0
 10 11  1  0
 11 12  1  0
 12 13  1  0
  7 14  2  0
 14 15  1  0
 15 16  2  0
 16 17  1  0
 17 18  1  0
 18 19  2  0
 19 20  1  0
 20 21  2  0
 21 22  1  0
 22 23  2  0
 15 24  1  0
 24 25  1  0
 25 26  2  0
 26 27  1  0
 27 28  1  0
 26  3  1  0
 24  5  2  0
 13  8  1  0
 23 18  1  0
  1 29  1  0
  1 30  1  0
  1 31  1  0
  4 32  1  0
  6 33  1  0
  9 34  1  0
  9 35  1  0
 10 36  1  0
 10 37  1  0
 11 38  1  0
 11 39  1  0
 12 40  1  0
 12 41  1  0
 13 42  1  0
 13 43  1  0
 17 44  1  0
 17 45  1  0
 19 46  1  0
 20 47  1  0
 21 48  1  0
 22 49  1  0
 23 50  1  0
 25 51  1  0
 28 52  1  0
 28 53  1  0
 28 54  1  0
M  END
>  <smiles>  (15) 
COc1cc2[nH]c(N3CCCCC3)nc(=NCc3ccccc3)c2cc1OC

>  <score_type>  (15) 
oracle

>  <origin>  (15) 
adg

>  <m_score__min__energy>  (15) 
-7.5899999999999999

>  <m_primary>  (15) 
energy

$$$$
15:0
     RDKit          3D

 35 37  0  0  0  0  0  0  0  0999 V2000
   56.1210   29.6620   44.2720 C   0  0  0  0  0  0  0  0  0  0  0  0
   55.7700   28.7280   45.2850 O   0  0  0  0  0  0  0  0  0  0  0  0
   56.6460   27.8570   45.9610 C   0  0  0  0  0  0  0  0  0  0  0  0
   56.2350   26.5180   46.1170 C   0  0  0  0  0  0  0  0  0  0  0  0
   55.0070   26.0800   45.6210 O   0  0  0  0  0  0  0  0  0  0  0  0
   57.0520   25.5980   46.7760 C   0  0  0  0  0  0  0  0  0  0  0  0
   58.2870   25.9870   47.2880 C   0  0  0  0  0  0  0  0  0  0  0  0
   58.7260   27.3120   47.1420 C   0  0  0  0  0  0  0  0  0  0  0  0
   59.9690   27.7350   47.6410 C   0  0  0  0  0  0  0  0  0  0  0  0
   60.7320   26.9370   48.2500 O   0  0  0  0  0  0  0  0  0  0  0  0
   60.3650   29.0590   47.4630 C   0  0  0  0  0  0  0  0  0  0  0  0
   59.5120   29.9440   46.7860 C   0  0  0  0  0  0  0  0  0  0  0  0
   59.8890   31.3610   46.5620 C   0  0  0  0  0  0  0  0  0  0  0  0
   61.1220   31.8360   47.0420 C   0  0  0  0  0  0  0  0  0  0  0  0
   61.4940   33.1680   46.8450 C   0  0  0  0  0  0  0  0  0  0  0  0
   60.6380   34.0460   46.1780 C   0  0  0  0  0  0  0  0  0  0  0  0
   59.3910   33.5990   45.7180 C   0  0  0  0  0  0  0  0  0  0  0  0
   58.4800   34.5340   44.9790 C   0  0  0  0  0  0  0  0  0  0  0  0
   59.0250   32.2550   45.9000 C   0  0  0  0  0  0  0  0  0  0  0  0
   58.3340   29.5100   46.3400 O   0  0  0  0  0  0  0  0  0  0  0  0
   57.9070   28.2570   46.4770 C   0  0  0  0  0  0  0  0  0  0  0  0
   56.4714   30.5945   44.7385 H   0  0  0  0  0  0  0  0  0  0  0  0
   56.9223   29.2411   43.6469 H   0  0  0  0  0  0  0  0  0  0  0  0
   55.2408   29.8730   43.6469 H   0  0  0  0  0  0  0  0  0  0  0  0
   54.3420   26.7070   45.1840 H   0  0  0  0  0  0  0  0  0  0  0  0
   56.7173   24.5566   46.8919 H   0  0  0  0  0  0  0  0  0  0  0  0
   58.9205   25.2536   47.8085 H   0  0  0  0  0  0  0  0  0  0  0  0
   61.3348   29.4064   47.8486 H   0  0  0  0  0  0  0  0  0  0  0  0
   61.7990   31.1536   47.5768 H   0  0  0  0  0  0  0  0  0  0  0  0
   62.4652   33.5264   47.2169 H   0  0  0  0  0  0  0  0  0  0  0  0
   60.9421   35.0902   46.0130 H   0  0  0  0  0  0  0  0  0  0  0  0
   57.9008   35.1285   45.7009 H   0  0  0  0  0  0  0  0  0  0  0  0
   59.0789   35.2064   44.3471 H   0  0  0  0  0  0  0  0  0  0  0  0
   57.7923   33.9528   44.3471 H   0  0  0  0  0  0  0  0  0  0  0  0
   58.0556   31.8978   45.5224 H   0  0  0  0  0  0  0  0  0  0  0  0
  1  2  1  0
  2  3  1  0
  3  4  2  0
  4  5  1  0
  4  6  1  0
  6  7  2  0
  7  8  1  0
  8  9  1  0
  9 10  2  0
  9 11  1  0
 11 12  2  0
 12 13  1  0
 13 14  2  0
 14 15  1  0
 15 16  2  0
 16 17  1  0
 17 18  1  0
 17 19  2  0
 12 20  1  0
 20 21  1  0
 21  3  1  0
 21  8  2  0
 19 13  1  0
  1 22  1  0
  1 23  1  0
  1 24  1  0
  5 25  1  0
  6 26  1  0
  7 27  1  0
 11 28  1  0
 14 29  1  0
 15 30  1  0
 16 31  1  0
 18 32  1  0
 18 33  1  0
 18 34  1  0
 19 35  1  0
M  END
>  <UniqueID>  (16) 
15

>  <SMILES>  (16) 
COc1c(O)ccc2c(=O)cc(-c3cccc(C)c3)oc12

>  <Energy>  (16) 
47.376590438414766

>  <Genealogy>  (16) 
COc1c(O)ccc2c(=O)cc(-c3cccc(C)c3)oc12 (3D coordinates assigned)
COc1c(O)ccc2c(=O)cc(-c3cccc(C)c3)oc12 (optimized conformer: 47.376590438414766 kcal/mol)

>  <smiles>  (16) 
COc1c(O)ccc2c(=O)cc(-c3cccc(C)c3)oc12

>  <score_type>  (16) 
oracle

>  <origin>  (16) 
adg

>  <m_score__min__energy>  (16) 
-7.6600000000000001

>  <m_primary>  (16) 
energy

$$$$
16:0
     RDKit          3D

 57 60  0  0  0  0  0  0  0  0999 V2000
   60.0070   28.1280   48.4700 C   0  0  0  0  0  0  0  0  0  0  0  0
   59.4910   27.6700   47.1100 C   0  0  0  0  0  0  0  0  0  0  0  0
   58.8380   28.8130   46.3730 C   0  0  0  0  0  0  0  0  0  0  0  0
   59.2700   30.0680   46.6790 N   0  0  0  0  0  0  0  0  0  0  0  0
   58.7610   31.1330   46.0270 C   0  0  0  0  0  0  0  0  0  0  0  0
   59.0910   32.4660   46.1870 C   0  0  0  0  0  0  0  0  0  0  0  0
   60.1010   33.0460   47.1020 C   0  0  0  0  0  0  0  0  0  0  0  0
   61.4710   32.9840   46.7920 C   0  0  0  0  0  0  0  0  0  0  0  0
   62.4180   33.5310   47.6630 C   0  0  0  0  0  0  0  0  0  0  0  0
   62.0070   34.1510   48.8450 C   0  0  0  0  0  0  0  0  0  0  0  0
   62.9270   34.6810   49.6890 F   0  0  0  0  0  0  0  0  0  0  0  0
   60.6480   34.2260   49.1580 C   0  0  0  0  0  0  0  0  0  0  0  0
   59.6970   33.6780   48.2920 C   0  0  0  0  0  0  0  0  0  0  0  0
   58.2780   33.1120   45.2500 C   0  0  0  0  0  0  0  0  0  0  0  0
   58.2390   34.5760   44.9450 C   0  0  0  0  0  0  0  0  0  0  0  0
   57.5140   32.1970   44.6100 N   0  0  0  0  0  0  0  0  0  0  0  0
   57.8150   30.9990   45.0910 N   0  0  0  0  0  0  0  0  0  0  0  0
   57.3010   29.7880   44.7300 C   0  0  0  0  0  0  0  0  0  0  0  0
   56.2320   29.7150   43.6640 C   0  0  0  0  0  0  0  0  0  0  0  0
   57.8540   28.6250   45.3470 C   0  0  0  0  0  0  0  0  0  0  0  0
   57.3950   27.2330   44.9510 C   0  0  0  0  0  0  0  0  0  0  0  0
   56.7490   26.5050   46.1450 C   0  0  0  0  0  0  0  0  0  0  0  0
   55.2850   26.4230   46.0300 N   0  0  0  0  0  0  0  0  0  0  0  0
   54.8310   25.0880   45.6180 C   0  0  0  0  0  0  0  0  0  0  0  0
   55.7350   24.0460   46.2140 C   0  0  0  0  0  0  0  0  0  0  0  0
   55.6280   23.7040   47.5700 C   0  0  0  0  0  0  0  0  0  0  0  0
   56.4570   22.7090   48.0940 C   0  0  0  0  0  0  0  0  0  0  0  0
   57.3500   22.0710   47.2920 N   0  0  0  0  0  0  0  0  0  0  0  0
   57.4630   22.3720   45.9720 C   0  0  0  0  0  0  0  0  0  0  0  0
   56.6540   23.3610   45.4050 C   0  0  0  0  0  0  0  0  0  0  0  0
   59.4394   27.6242   49.2662 H   0  0  0  0  0  0  0  0  0  0  0  0
   61.0731   27.8734   48.5624 H   0  0  0  0  0  0  0  0  0  0  0  0
   59.8807   29.2168   48.5624 H   0  0  0  0  0  0  0  0  0  0  0  0
   60.3337   27.2906   46.5135 H   0  0  0  0  0  0  0  0  0  0  0  0
   58.7443   26.8772   47.2646 H   0  0  0  0  0  0  0  0  0  0  0  0
   61.7995   32.5025   45.8591 H   0  0  0  0  0  0  0  0  0  0  0  0
   63.4885   33.4729   47.4169 H   0  0  0  0  0  0  0  0  0  0  0  0
   60.3252   34.7172   50.0878 H   0  0  0  0  0  0  0  0  0  0  0  0
   58.6278   33.7414   48.5424 H   0  0  0  0  0  0  0  0  0  0  0  0
   58.2238   35.1462   45.8855 H   0  0  0  0  0  0  0  0  0  0  0  0
   59.1301   34.8531   44.3626 H   0  0  0  0  0  0  0  0  0  0  0  0
   57.3344   34.8052   44.3626 H   0  0  0  0  0  0  0  0  0  0  0  0
   56.8310   32.3980   43.8470 H   0  0  0  0  0  0  0  0  0  0  0  0
   55.2429   29.6475   44.1406 H   0  0  0  0  0  0  0  0  0  0  0  0
   56.2763   30.6183   43.0378 H   0  0  0  0  0  0  0  0  0  0  0  0
   56.3987   28.8261   43.0378 H   0  0  0  0  0  0  0  0  0  0  0  0
   56.6585   27.3146   44.1380 H   0  0  0  0  0  0  0  0  0  0  0  0
   58.2710   26.6556   44.6204 H   0  0  0  0  0  0  0  0  0  0  0  0
   57.1563   25.4846   46.1982 H   0  0  0  0  0  0  0  0  0  0  0  0
   56.9811   27.0812   47.0529 H   0  0  0  0  0  0  0  0  0  0  0  0
   54.8490   26.6650   46.9500 H   0  0  0  0  0  0  0  0  0  0  0  0
   53.8018   24.9256   45.9705 H   0  0  0  0  0  0  0  0  0  0  0  0
   54.8586   25.0135   44.5209 H   0  0  0  0  0  0  0  0  0  0  0  0
   54.8979   24.2146   48.2151 H   0  0  0  0  0  0  0  0  0  0  0  0
   56.3869   22.4411   49.1586 H   0  0  0  0  0  0  0  0  0  0  0  0
   58.1931   21.8360   45.3477 H   0  0  0  0  0  0  0  0  0  0  0  0
   56.7372   23.5999   44.3345 H   0  0  0  0  0  0  0  0  0  0  0  0
  1  2  1  0
  2  3  1  0
  3  4  2  0
  4  5  1  0
  5  6  2  0
  6  7  1  0
  7  8  2  0
  8  9  1  0
  9 10  2  0
 10 11  1  0
 10 12  1  0
 12 13  2  0
  6 14  1  0
 14 15  1  0
 14 16  2  0
 16 17  1  0
 17 18  1  0
 18 19  1  0
 18 20  2  0
 20 21  1  0
 21 22  1  0
 22 23  1  0
 23 24  1  0
 24 25  1  0
 25 26  2  0
 26 27  1  0
 27 28  2  0
 28 29  1  0
 29 30  2  0
 20  3  1  0
 30 25  1  0
 17  5  1  0
 13  7  1  0
  1 31  1  0
  1 32  1  0
  1 33  1  0
  2 34  1  0
  2 35  1  0
  8 36  1  0
  9 37  1  0
 12 38  1  0
 13 39  1  0
 15 40  1  0
 15 41  1  0
 15 42  1  0
 16 43  1  0
 19 44  1  0
 19 45  1  0
 19 46  1  0
 21 47  1  0
 21 48  1  0
 22 49  1  0
 22 50  1  0
 23 51  1  0
 24 52  1  0
 24 53  1  0
 26 54  1  0
 27 55  1  0
 29 56  1  0
 30 57  1  0
M  CHG  1  16   1
M  END
>  <UniqueID>  (17) 
16

>  <SMILES>  (17) 
CCc1nc2c(-c3ccc(F)cc3)c(C)[nH+]n2c(C)c1CCNCc1ccncc1

>  <Energy>  (17) 
102.01899269144438

>  <Genealogy>  (17) 
CCc1nc2c(-c3ccc(F)cc3)c(C)[nH+]n2c(C)c1CCNCc1ccncc1 (protonated)
CCc1nc2c(-c3ccc(F)cc3)c(C)[nH+]n2c(C)c1CCNCc1ccncc1 (3D coordinates assigned)
CCc1nc2c(-c3ccc(F)cc3)c(C)[nH+]n2c(C)c1CCNCc1ccncc1 (optimized conformer: 102.01899269144438 kcal/mol)

>  <smiles>  (17) 
CCc1nc2c(-c3ccc(F)cc3)c(C)nn2c(C)c1CCNCc1ccncc1

>  <score_type>  (17) 
oracle

>  <origin>  (17) 
adg

>  <m_score__min__energy>  (17) 
-8.0999999999999996

>  <m_primary>  (17) 
energy

$$$$
17:0
     RDKit          3D

 60 64  0  0  0  0  0  0  0  0999 V2000
   58.4450   23.0860   45.0910 C   0  0  0  0  0  0  0  0  0  0  0  0
   58.2010   23.9490   46.1980 O   0  0  0  0  0  0  0  0  0  0  0  0
   58.3520   25.3430   46.1800 C   0  0  0  0  0  0  0  0  0  0  0  0
   59.6290   25.9320   46.0890 C   0  0  0  0  0  0  0  0  0  0  0  0
   59.7790   27.3180   46.0990 C   0  0  0  0  0  0  0  0  0  0  0  0
   58.6590   28.1520   46.1900 C   0  0  0  0  0  0  0  0  0  0  0  0
   58.8400   29.6240   46.2160 C   0  0  0  0  0  0  0  0  0  0  0  0
   57.8770   30.4020   45.6700 N   0  0  0  0  0  0  0  0  0  0  0  0
   57.9970   31.7460   45.6130 C   0  0  0  0  0  0  0  0  0  0  0  0
   57.0100   32.4990   44.9700 C   0  0  0  0  0  0  0  0  0  0  0  0
   57.1660   33.8380   44.8210 N   0  0  0  0  0  0  0  0  0  0  0  0
   58.2710   34.4790   45.2760 C   0  0  0  0  0  0  0  0  0  0  0  0
   59.2780   33.7700   45.9350 C   0  0  0  0  0  0  0  0  0  0  0  0
   59.1370   32.3780   46.1630 C   0  0  0  0  0  0  0  0  0  0  0  0
   60.0630   31.6170   46.8620 N   0  0  0  0  0  0  0  0  0  0  0  0
   61.1460   32.2530   47.6730 C   0  0  0  0  0  0  0  0  0  0  0  0
   60.5650   33.1100   48.8240 C   0  0  0  0  0  0  0  0  0  0  0  0
   61.5150   34.2370   49.2750 C   0  0  0  0  0  0  0  0  0  0  0  0
   62.9880   33.8300   49.1380 C   0  0  0  0  0  0  0  0  0  0  0  0
   63.3690   33.5000   47.6760 C   0  0  0  0  0  0  0  0  0  0  0  0
   62.1690   33.0440   46.8190 C   0  0  0  0  0  0  0  0  0  0  0  0
   59.9610   30.2390   46.8100 C   0  0  0  0  0  0  0  0  0  0  0  0
   60.8650   29.5090   47.3000 O   0  0  0  0  0  0  0  0  0  0  0  0
   57.3860   27.5730   46.2990 C   0  0  0  0  0  0  0  0  0  0  0  0
   57.2130   26.1830   46.2740 C   0  0  0  0  0  0  0  0  0  0  0  0
   55.8880   25.7150   46.3560 O   0  0  0  0  0  0  0  0  0  0  0  0
   55.3870   24.4390   45.9490 C   0  0  0  0  0  0  0  0  0  0  0  0
   53.9970   24.5500   45.3070 C   0  0  0  0  0  0  0  0  0  0  0  0
   53.1030   23.5220   45.9950 C   0  0  0  0  0  0  0  0  0  0  0  0
   54.0190   22.6640   46.8510 C   0  0  0  0  0  0  0  0  0  0  0  0
   55.2080   23.5470   47.1690 C   0  0  0  0  0  0  0  0  0  0  0  0
   58.7270   22.0885   45.4589 H   0  0  0  0  0  0  0  0  0  0  0  0
   57.5339   23.0073   44.4797 H   0  0  0  0  0  0  0  0  0  0  0  0
   59.2624   23.4960   44.4797 H   0  0  0  0  0  0  0  0  0  0  0  0
   60.5187   25.2901   46.0091 H   0  0  0  0  0  0  0  0  0  0  0  0
   60.7847   27.7590   46.0349 H   0  0  0  0  0  0  0  0  0  0  0  0
   56.1059   32.0049   44.5845 H   0  0  0  0  0  0  0  0  0  0  0  0
   58.3749   35.5637   45.1252 H   0  0  0  0  0  0  0  0  0  0  0  0
   60.1828   34.2932   46.2780 H   0  0  0  0  0  0  0  0  0  0  0  0
   61.7144   31.4272   48.1257 H   0  0  0  0  0  0  0  0  0  0  0  0
   59.6220   33.5621   48.4828 H   0  0  0  0  0  0  0  0  0  0  0  0
   60.4129   32.4435   49.6858 H   0  0  0  0  0  0  0  0  0  0  0  0
   61.3322   35.1264   48.6541 H   0  0  0  0  0  0  0  0  0  0  0  0
   61.3159   34.4476   50.3361 H   0  0  0  0  0  0  0  0  0  0  0  0
   63.6190   34.6595   49.4900 H   0  0  0  0  0  0  0  0  0  0  0  0
   63.1455   32.9236   49.7410 H   0  0  0  0  0  0  0  0  0  0  0  0
   63.8035   34.4003   47.2170 H   0  0  0  0  0  0  0  0  0  0  0  0
   64.0830   32.6638   47.7068 H   0  0  0  0  0  0  0  0  0  0  0  0
   61.6740   33.9292   46.3930 H   0  0  0  0  0  0  0  0  0  0  0  0
   62.5395   32.3872   46.0181 H   0  0  0  0  0  0  0  0  0  0  0  0
   56.5056   28.2237   46.4063 H   0  0  0  0  0  0  0  0  0  0  0  0
   56.1119   24.0311   45.2292 H   0  0  0  0  0  0  0  0  0  0  0  0
   53.5922   25.5620   45.4556 H   0  0  0  0  0  0  0  0  0  0  0  0
   54.0490   24.3623   44.2244 H   0  0  0  0  0  0  0  0  0  0  0  0
   52.3564   24.0277   46.6250 H   0  0  0  0  0  0  0  0  0  0  0  0
   52.5563   22.9126   45.2603 H   0  0  0  0  0  0  0  0  0  0  0  0
   53.5078   22.3577   47.7756 H   0  0  0  0  0  0  0  0  0  0  0  0
   54.3193   21.7408   46.3338 H   0  0  0  0  0  0  0  0  0  0  0  0
   55.0077   24.1545   48.0639 H   0  0  0  0  0  0  0  0  0  0  0  0
   56.1115   22.9561   47.3797 H   0  0  0  0  0  0  0  0  0  0  0  0
  1  2  1  0
  2  3  1  0
  3  4  2  0
  4  5  1  0
  5  6  2  0
  6  7  1  0
  7  8  2  0
  8  9  1  0
  9 10  2  0
 10 11  1  0
 11 12  2  0
 12 13  1  0
 13 14  2  0
 14 15  1  0
 15 16  1  0
 16 17  1  0
 17 18  1  0
 18 19  1  0
 19 20  1  0
 20 21  1  0
 15 22  1  0
 22 23  2  0
  6 24  1  0
 24 25  2  0
 25 26  1  0
 26 27  1  0
 27 28  1  0
 28 29  1  0
 29 30  1  0
 30 31  1  0
 25  3  1  0
 31 27  1  0
 22  7  1  0
 14  9  1  0
 21 16  1  0
  1 32  1  0
  1 33  1  0
  1 34  1  0
  4 35  1  0
  5 36  1  0
 10 37  1  0
 12 38  1  0
 13 39  1  0
 16 40  1  0
 17 41  1  0
 17 42  1  0
 18 43  1  0
 18 44  1  0
 19 45  1  0
 19 46  1  0
 20 47  1  0
 20 48  1  0
 21 49  1  0
 21 50  1  0
 24 51  1  0
 27 52  1  0
 28 53  1  0
 28 54  1  0
 29 55  1  0
 29 56  1  0
 30 57  1  0
 30 58  1  0
 31 59  1  0
 31 60  1  0
M  END
>  <UniqueID>  (18) 
17

>  <SMILES>  (18) 
COc1ccc(-c2nc3cnccc3n(C3CCCCC3)c2=O)cc1OC1CCCC1

>  <Energy>  (18) 
94.1100345004947

>  <Genealogy>  (18) 
COc1ccc(-c2nc3cnccc3n(C3CCCCC3)c2=O)cc1OC1CCCC1 (3D coordinates assigned)
COc1ccc(-c2nc3cnccc3n(C3CCCCC3)c2=O)cc1OC1CCCC1 (nonaromatic ring conformer: 94.1100345004947 kcal/mol)

>  <smiles>  (18) 
COc1ccc(-c2nc3cnccc3n(C3CCCCC3)c2=O)cc1OC1CCCC1

>  <score_type>  (18) 
oracle

>  <origin>  (18) 
adg

>  <m_score__min__energy>  (18) 
-9.0500000000000007

>  <m_primary>  (18) 
energy

$$$$
18:0
     RDKit          3D

 42 45  0  0  0  0  0  0  0  0999 V2000
   66.2230   33.0360   50.4590 C   0  0  0  0  0  0  0  0  0  0  0  0
   65.4370   32.0620   49.7820 O   0  0  0  0  0  0  0  0  0  0  0  0
   64.2360   32.3360   49.1090 C   0  0  0  0  0  0  0  0  0  0  0  0
   64.1470   33.3230   48.1110 C   0  0  0  0  0  0  0  0  0  0  0  0
   62.9360   33.5690   47.4630 C   0  0  0  0  0  0  0  0  0  0  0  0
   61.7870   32.8290   47.7910 C   0  0  0  0  0  0  0  0  0  0  0  0
   60.4880   33.0870   47.1180 C   0  0  0  0  0  0  0  0  0  0  0  0
   59.8910   32.0960   46.5170 N   0  0  0  0  0  0  0  0  0  0  0  0
   58.6490   32.2510   45.8830 N   0  0  0  0  0  0  0  0  0  0  0  0
   57.7880   31.3160   45.4310 C   0  0  0  0  0  0  0  0  0  0  0  0
   57.9550   29.8490   45.5470 C   0  0  0  0  0  0  0  0  0  0  0  0
   58.5080   29.3050   46.7200 C   0  0  0  0  0  0  0  0  0  0  0  0
   58.6740   27.9220   46.8500 C   0  0  0  0  0  0  0  0  0  0  0  0
   58.3000   27.0700   45.8060 C   0  0  0  0  0  0  0  0  0  0  0  0
   58.5290   25.1830   45.9850 Br  0  0  0  0  0  0  0  0  0  0  0  0
   57.7660   27.6020   44.6300 C   0  0  0  0  0  0  0  0  0  0  0  0
   57.5980   28.9840   44.4970 C   0  0  0  0  0  0  0  0  0  0  0  0
   56.7380   31.9070   44.8130 N   0  0  0  0  0  0  0  0  0  0  0  0
   56.9410   33.2160   44.8850 N   0  0  0  0  0  0  0  0  0  0  0  0
   58.1050   33.4140   45.5250 C   0  0  0  0  0  0  0  0  0  0  0  0
   58.9620   34.9650   45.7060 S   0  0  0  0  0  0  0  0  0  0  0  0
   59.7890   34.4350   47.2540 C   0  0  0  0  0  0  0  0  0  0  0  0
   61.8750   31.8490   48.7950 C   0  0  0  0  0  0  0  0  0  0  0  0
   63.0940   31.5970   49.4540 C   0  0  0  0  0  0  0  0  0  0  0  0
   63.2110   30.6230   50.4580 O   0  0  0  0  0  0  0  0  0  0  0  0
   63.3980   30.9080   51.8420 C   0  0  0  0  0  0  0  0  0  0  0  0
   66.1157   32.9030   51.5456 H   0  0  0  0  0  0  0  0  0  0  0  0
   67.2794   32.9149   50.1774 H   0  0  0  0  0  0  0  0  0  0  0  0
   65.8815   34.0430   50.1774 H   0  0  0  0  0  0  0  0  0  0  0  0
   65.0394   33.9058   47.8391 H   0  0  0  0  0  0  0  0  0  0  0  0
   62.8801   34.3486   46.6890 H   0  0  0  0  0  0  0  0  0  0  0  0
   58.8120   29.9713   47.5407 H   0  0  0  0  0  0  0  0  0  0  0  0
   59.0992   27.5042   47.7745 H   0  0  0  0  0  0  0  0  0  0  0  0
   57.4769   26.9324   43.8066 H   0  0  0  0  0  0  0  0  0  0  0  0
   57.1840   29.3971   43.5653 H   0  0  0  0  0  0  0  0  0  0  0  0
   56.3220   33.9430   44.4640 H   0  0  0  0  0  0  0  0  0  0  0  0
   60.5371   35.1927   47.5301 H   0  0  0  0  0  0  0  0  0  0  0  0
   59.0120   34.3291   48.0254 H   0  0  0  0  0  0  0  0  0  0  0  0
   60.9800   31.2714   49.0696 H   0  0  0  0  0  0  0  0  0  0  0  0
   62.8937   30.1394   52.4460 H   0  0  0  0  0  0  0  0  0  0  0  0
   64.4732   30.9096   52.0740 H   0  0  0  0  0  0  0  0  0  0  0  0
   62.9714   31.8950   52.0740 H   0  0  0  0  0  0  0  0  0  0  0  0
  1  2  1  0
  2  3  1  0
  3  4  2  0
  4  5  1  0
  5  6  2  0
  6  7  1  0
  7  8  2  0
  8  9  1  0
  9 10  1  0
 10 11  1  0
 11 12  2  0
 12 13  1  0
 13 14  2  0
 14 15  1  0
 14 16  1  0
 16 17  2  0
 10 18  2  0
 18 19  1  0
 19 20  2  0
 20 21  1  0
 21 22  1  0
  6 23  1  0
 23 24  2  0
 24 25  1  0
 25 26  1  0
 24  3  1  0
 22  7  1  0
 20  9  1  0
 17 11  1  0
  1 27  1  0
  1 28  1  0
  1 29  1  0
  4 30  1  0
  5 31  1  0
 12 32  1  0
 13 33  1  0
 16 34  1  0
 17 35  1  0
 19 36  1  0
 22 37  1  0
 22 38  1  0
 23 39  1  0
 26 40  1  0
 26 41  1  0
 26 42  1  0
M  CHG  1  19   1
M  END
>  <UniqueID>  (19) 
18

>  <SMILES>  (19) 
COc1ccc(C2=Nn3c(-c4ccc(Br)cc4)n[nH+]c3SC2)cc1OC

>  <Energy>  (19) 
95.7345708317487

>  <Genealogy>  (19) 
COc1ccc(C2=Nn3c(-c4ccc(Br)cc4)n[nH+]c3SC2)cc1OC (protonated)
COc1ccc(C2=Nn3c(-c4ccc(Br)cc4)n[nH+]c3SC2)cc1OC (3D coordinates assigned)
COc1ccc(C2=Nn3c(-c4ccc(Br)cc4)n[nH+]c3SC2)cc1OC (nonaromatic ring conformer: 95.7345708317487 kcal/mol)

>  <smiles>  (19) 
COc1ccc(C2=Nn3c(nnc3-c3ccc(Br)cc3)SC2)cc1OC

>  <score_type>  (19) 
oracle

>  <origin>  (19) 
adg

>  <m_score__min__energy>  (19) 
-7.3200000000000003

>  <m_primary>  (19) 
energy

$$$$
19:0
     RDKit          3D

 40 41  0  0  0  0  0  0  0  0999 V2000
   63.0260   33.1120   47.1340 C   0  0  0  0  0  0  0  0  0  0  0  0
   61.7790   32.4270   47.1680 O   0  0  0  0  0  0  0  0  0  0  0  0
   60.5520   32.9840   46.7710 C   0  0  0  0  0  0  0  0  0  0  0  0
   60.4820   34.2160   46.0900 C   0  0  0  0  0  0  0  0  0  0  0  0
   59.2460   34.7440   45.7060 C   0  0  0  0  0  0  0  0  0  0  0  0
   58.0700   34.0530   45.9950 C   0  0  0  0  0  0  0  0  0  0  0  0
   56.8730   34.5660   45.6170 F   0  0  0  0  0  0  0  0  0  0  0  0
   58.1240   32.8320   46.6710 C   0  0  0  0  0  0  0  0  0  0  0  0
   59.3590   32.2910   47.0670 C   0  0  0  0  0  0  0  0  0  0  0  0
   59.3950   30.9530   47.7730 C   0  0  0  0  0  0  0  0  0  0  0  0
   60.5750   30.1570   47.3910 N   0  0  0  0  0  0  0  0  0  0  0  0
   60.2500   28.7290   47.2360 C   0  0  0  0  0  0  0  0  0  0  0  0
   59.9520   28.3950   45.7680 C   0  0  0  0  0  0  0  0  0  0  0  0
   58.7210   29.1240   45.3010 C   0  0  0  0  0  0  0  0  0  0  0  0
   57.4450   28.6470   45.6350 C   0  0  0  0  0  0  0  0  0  0  0  0
   56.3150   29.3160   45.1600 C   0  0  0  0  0  0  0  0  0  0  0  0
   56.4530   30.4140   44.3720 N   0  0  0  0  0  0  0  0  0  0  0  0
   57.6760   30.8990   44.0240 C   0  0  0  0  0  0  0  0  0  0  0  0
   57.7770   32.0990   43.1370 C   0  0  0  0  0  0  0  0  0  0  0  0
   58.8350   30.2530   44.4760 C   0  0  0  0  0  0  0  0  0  0  0  0
   63.3690   33.3004   48.1620 H   0  0  0  0  0  0  0  0  0  0  0  0
   63.7688   32.4953   46.6068 H   0  0  0  0  0  0  0  0  0  0  0  0
   62.9040   34.0697   46.6068 H   0  0  0  0  0  0  0  0  0  0  0  0
   61.4063   34.7658   45.8591 H   0  0  0  0  0  0  0  0  0  0  0  0
   59.2011   35.7063   45.1749 H   0  0  0  0  0  0  0  0  0  0  0  0
   57.1933   32.2901   46.8950 H   0  0  0  0  0  0  0  0  0  0  0  0
   59.4198   31.1254   48.8591 H   0  0  0  0  0  0  0  0  0  0  0  0
   58.4967   30.3902   47.4790 H   0  0  0  0  0  0  0  0  0  0  0  0
   60.9810   30.5280   46.5000 H   0  0  0  0  0  0  0  0  0  0  0  0
   61.2920   30.2630   48.1470 H   0  0  0  0  0  0  0  0  0  0  0  0
   61.1041   28.1255   47.5771 H   0  0  0  0  0  0  0  0  0  0  0  0
   59.3573   28.5029   47.8377 H   0  0  0  0  0  0  0  0  0  0  0  0
   60.8086   28.6963   45.1471 H   0  0  0  0  0  0  0  0  0  0  0  0
   59.7802   27.3123   45.6773 H   0  0  0  0  0  0  0  0  0  0  0  0
   57.3352   27.7528   46.2662 H   0  0  0  0  0  0  0  0  0  0  0  0
   55.3108   28.9531   45.4245 H   0  0  0  0  0  0  0  0  0  0  0  0
   57.8533   33.0061   43.7546 H   0  0  0  0  0  0  0  0  0  0  0  0
   58.6709   32.0114   42.5020 H   0  0  0  0  0  0  0  0  0  0  0  0
   56.8810   32.1621   42.5020 H   0  0  0  0  0  0  0  0  0  0  0  0
   59.8273   30.6288   44.1858 H   0  0  0  0  0  0  0  0  0  0  0  0
  1  2  1  0
  2  3  1  0
  3  4  2  0
  4  5  1  0
  5  6  2  0
  6  7  1  0
  6  8  1  0
  8  9  2  0
  9 10  1  0
 10 11  1  0
 11 12  1  0
 12 13  1  0
 13 14  1  0
 14 15  2  0
 15 16  1  0
 16 17  2  0
 17 18  1  0
 18 19  1  0
 18 20  2  0
  9  3  1  0
 20 14  1  0
  1 21  1  0
  1 22  1  0
  1 23  1  0
  4 24  1  0
  5 25  1  0
  8 26  1  0
 10 27  1  0
 10 28  1  0
 11 29  1  0
 11 30  1  0
 12 31  1  0
 12 32  1  0
 13 33  1  0
 13 34  1  0
 15 35  1  0
 16 36  1  0
 19 37  1  0
 19 38  1  0
 19 39  1  0
 20 40  1  0
M  CHG  1  11   1
M  END
>  <UniqueID>  (20) 
19

>  <SMILES>  (20) 
COc1ccc(F)cc1C[NH2+]CCc1ccnc(C)c1

>  <Energy>  (20) 
36.036443747928736

>  <Genealogy>  (20) 
COc1ccc(F)cc1C[NH2+]CCc1ccnc(C)c1 (protonated)
COc1ccc(F)cc1C[NH2+]CCc1ccnc(C)c1 (3D coordinates assigned)
COc1ccc(F)cc1C[NH2+]CCc1ccnc(C)c1 (optimized conformer: 36.036443747928736 kcal/mol)

>  <smiles>  (20) 
COc1ccc(F)cc1CNCCc1ccnc(C)c1

>  <score_type>  (20) 
oracle

>  <origin>  (20) 
adg

>  <m_score__min__energy>  (20) 
-4.7999999999999998

>  <m_primary>  (20) 
energy

$$$$
20:0
     RDKit          3D

 33 34  0  0  0  0  0  0  0  0999 V2000
   61.1390   30.6820   47.8690 C   0  0  0  0  0  0  0  0  0  0  0  0
   61.2250   32.0720   47.5750 O   0  0  0  0  0  0  0  0  0  0  0  0
   60.1360   32.9390   47.6990 C   0  0  0  0  0  0  0  0  0  0  0  0
   60.0490   33.7090   48.6940 O   0  0  0  0  0  0  0  0  0  0  0  0
   59.0920   32.9410   46.6560 C   0  0  0  0  0  0  0  0  0  0  0  0
   58.1670   31.9230   46.4840 C   0  0  0  0  0  0  0  0  0  0  0  0
   57.3790   32.3160   45.4200 C   0  0  0  0  0  0  0  0  0  0  0  0
   56.2690   31.6060   44.8640 N   0  0  0  0  0  0  0  0  0  0  0  0
   56.4020   30.0080   44.2110 S   0  0  0  0  0  0  0  0  0  0  0  0
   56.5960   30.1020   42.7230 O   0  0  0  0  0  0  0  0  0  0  0  0
   55.1370   29.2510   44.4940 O   0  0  0  0  0  0  0  0  0  0  0  0
   57.7530   29.1630   44.9600 C   0  0  0  0  0  0  0  0  0  0  0  0
   59.0600   29.3930   44.5070 C   0  0  0  0  0  0  0  0  0  0  0  0
   60.1350   28.7200   45.0940 C   0  0  0  0  0  0  0  0  0  0  0  0
   59.9110   27.8180   46.1390 C   0  0  0  0  0  0  0  0  0  0  0  0
   60.9550   27.1670   46.7090 F   0  0  0  0  0  0  0  0  0  0  0  0
   58.6090   27.5880   46.5970 C   0  0  0  0  0  0  0  0  0  0  0  0
   57.5320   28.2610   46.0110 C   0  0  0  0  0  0  0  0  0  0  0  0
   57.8350   33.5370   44.9800 C   0  0  0  0  0  0  0  0  0  0  0  0
   58.8840   33.9170   45.7370 N   0  0  0  0  0  0  0  0  0  0  0  0
   59.6260   35.1660   45.5750 C   0  0  0  0  0  0  0  0  0  0  0  0
   61.1301   30.5377   48.9595 H   0  0  0  0  0  0  0  0  0  0  0  0
   60.2138   30.2725   47.4374 H   0  0  0  0  0  0  0  0  0  0  0  0
   62.0067   30.1616   47.4374 H   0  0  0  0  0  0  0  0  0  0  0  0
   58.0791   30.9971   47.0713 H   0  0  0  0  0  0  0  0  0  0  0  0
   59.2396   30.1048   43.6878 H   0  0  0  0  0  0  0  0  0  0  0  0
   61.1586   28.9000   44.7336 H   0  0  0  0  0  0  0  0  0  0  0  0
   58.4324   26.8777   47.4182 H   0  0  0  0  0  0  0  0  0  0  0  0
   56.5095   28.0825   46.3752 H   0  0  0  0  0  0  0  0  0  0  0  0
   57.4111   34.1120   44.1435 H   0  0  0  0  0  0  0  0  0  0  0  0
   59.8708   35.5781   46.5651 H   0  0  0  0  0  0  0  0  0  0  0  0
   60.5549   34.9712   45.0190 H   0  0  0  0  0  0  0  0  0  0  0  0
   59.0106   35.8886   45.0190 H   0  0  0  0  0  0  0  0  0  0  0  0
  1  2  1  0
  2  3  1  0
  3  4  2  0
  3  5  1  0
  5  6  2  0
  6  7  1  0
  7  8  1  0
  8  9  1  0
  9 10  2  0
  9 11  2  0
  9 12  1  0
 12 13  2  0
 13 14  1  0
 14 15  2  0
 15 16  1  0
 15 17  1  0
 17 18  2  0
  7 19  2  0
 19 20  1  0
 20 21  1  0
 20  5  1  0
 18 12  1  0
  1 22  1  0
  1 23  1  0
  1 24  1  0
  6 25  1  0
 13 26  1  0
 14 27  1  0
 17 28  1  0
 18 29  1  0
 19 30  1  0
 21 31  1  0
 21 32  1  0
 21 33  1  0
M  CHG  1   8  -1
M  END
>  <UniqueID>  (21) 
20

>  <SMILES>  (21) 
COC(=O)c1cc([N-]S(=O)(=O)c2ccc(F)cc2)cn1C

>  <Energy>  (21) 
59.453156196393564

>  <Genealogy>  (21) 
COC(=O)c1cc([N-]S(=O)(=O)c2ccc(F)cc2)cn1C (protonated)
COC(=O)c1cc([N-]S(=O)(=O)c2ccc(F)cc2)cn1C (3D coordinates assigned)
COC(=O)c1cc([N-]S(=O)(=O)c2ccc(F)cc2)cn1C (optimized conformer: 59.453156196393564 kcal/mol)

>  <smiles>  (21) 
COC(=O)c1cc(NS(=O)(=O)c2ccc(F)cc2)cn1C

>  <score_type>  (21) 
oracle

>  <origin>  (21) 
adg

>  <m_score__min__energy>  (21) 
-8.4299999999999997

>  <m_primary>  (21) 
energy

$$$$
21:0
     RDKit          3D

 47 49  0  0  0  0  0  0  0  0999 V2000
   56.9600   30.6750   43.7280 C   0  0  0  0  0  0  0  0  0  0  0  0
   56.7420   31.4280   44.9160 O   0  0  0  0  0  0  0  0  0  0  0  0
   57.5820   32.4580   45.3660 C   0  0  0  0  0  0  0  0  0  0  0  0
   57.8310   33.5360   44.5090 C   0  0  0  0  0  0  0  0  0  0  0  0
   58.6670   34.5810   44.9100 C   0  0  0  0  0  0  0  0  0  0  0  0
   59.2620   34.5600   46.1730 C   0  0  0  0  0  0  0  0  0  0  0  0
   59.0220   33.4890   47.0470 C   0  0  0  0  0  0  0  0  0  0  0  0
   59.6720   33.4460   48.4040 C   0  0  0  0  0  0  0  0  0  0  0  0
   61.0830   33.0330   48.2780 N   0  0  0  0  0  0  0  0  0  0  0  0
   61.9690   34.2100   48.1880 C   0  0  0  0  0  0  0  0  0  0  0  0
   63.3940   33.8300   47.7240 C   0  0  0  0  0  0  0  0  0  0  0  0
   63.6870   32.3870   47.9000 N   0  0  0  0  0  0  0  0  0  0  0  0
   63.7730   31.9740   49.3270 C   0  0  0  0  0  0  0  0  0  0  0  0
   64.7290   32.8380   50.1190 C   0  0  0  0  0  0  0  0  0  0  0  0
   66.1170   32.6850   49.9720 C   0  0  0  0  0  0  0  0  0  0  0  0
   66.9960   33.4730   50.7200 C   0  0  0  0  0  0  0  0  0  0  0  0
   66.4970   34.4190   51.6210 C   0  0  0  0  0  0  0  0  0  0  0  0
   67.6990   35.4940   52.6440 Br  0  0  0  0  0  0  0  0  0  0  0  0
   65.1160   34.5770   51.7730 C   0  0  0  0  0  0  0  0  0  0  0  0
   64.2340   33.7890   51.0270 C   0  0  0  0  0  0  0  0  0  0  0  0
   62.7120   31.5520   47.1470 C   0  0  0  0  0  0  0  0  0  0  0  0
   61.2870   32.1450   47.1210 C   0  0  0  0  0  0  0  0  0  0  0  0
   58.1800   32.4400   46.6410 C   0  0  0  0  0  0  0  0  0  0  0  0
   57.2569   29.6495   43.9932 H   0  0  0  0  0  0  0  0  0  0  0  0
   56.0331   30.6470   43.1364 H   0  0  0  0  0  0  0  0  0  0  0  0
   57.7585   31.1465   43.1364 H   0  0  0  0  0  0  0  0  0  0  0  0
   57.3653   33.5607   43.5128 H   0  0  0  0  0  0  0  0  0  0  0  0
   58.8571   35.4232   44.2284 H   0  0  0  0  0  0  0  0  0  0  0  0
   59.9203   35.3848   46.4834 H   0  0  0  0  0  0  0  0  0  0  0  0
   59.6249   34.4452   48.8617 H   0  0  0  0  0  0  0  0  0  0  0  0
   59.1394   32.7195   49.0352 H   0  0  0  0  0  0  0  0  0  0  0  0
   61.5399   34.9230   47.4686 H   0  0  0  0  0  0  0  0  0  0  0  0
   62.0462   34.6539   49.1915 H   0  0  0  0  0  0  0  0  0  0  0  0
   63.4962   34.0825   46.6583 H   0  0  0  0  0  0  0  0  0  0  0  0
   64.1068   34.3921   48.3452 H   0  0  0  0  0  0  0  0  0  0  0  0
   64.6280   32.2110   47.4720 H   0  0  0  0  0  0  0  0  0  0  0  0
   62.7724   32.0491   49.7777 H   0  0  0  0  0  0  0  0  0  0  0  0
   64.1507   30.9413   49.3558 H   0  0  0  0  0  0  0  0  0  0  0  0
   66.5142   31.9417   49.2651 H   0  0  0  0  0  0  0  0  0  0  0  0
   68.0824   33.3489   50.5998 H   0  0  0  0  0  0  0  0  0  0  0  0
   64.7229   35.3221   52.4803 H   0  0  0  0  0  0  0  0  0  0  0  0
   63.1483   33.9142   51.1516 H   0  0  0  0  0  0  0  0  0  0  0  0
   63.0666   31.4515   46.1106 H   0  0  0  0  0  0  0  0  0  0  0  0
   62.6502   30.5819   47.6618 H   0  0  0  0  0  0  0  0  0  0  0  0
   61.1499   32.7200   46.1933 H   0  0  0  0  0  0  0  0  0  0  0  0
   60.5563   31.3240   47.1662 H   0  0  0  0  0  0  0  0  0  0  0  0
   57.9866   31.5992   47.3234 H   0  0  0  0  0  0  0  0  0  0  0  0
  1  2  1  0
  2  3  1  0
  3  4  2  0
  4  5  1  0
  5  6  2  0
  6  7  1  0
  7  8  1  0
  8  9  1  0
  9 10  1  0
 10 11  1  0
 11 12  1  0
 12 13  1  0
 13 14  1  0
 14 15  2  0
 15 16  1  0
 16 17  2  0
 17 18  1  0
 17 19  1  0
 19 20  2  0
 12 21  1  0
 21 22  1  0
  7 23  2  0
 23  3  1  0
 22  9  1  0
 20 14  1  0
  1 24  1  0
  1 25  1  0
  1 26  1  0
  4 27  1  0
  5 28  1  0
  6 29  1  0
  8 30  1  0
  8 31  1  0
 10 32  1  0
 10 33  1  0
 11 34  1  0
 11 35  1  0
 12 36  1  0
 13 37  1  0
 13 38  1  0
 15 39  1  0
 16 40  1  0
 19 41  1  0
 20 42  1  0
 21 43  1  0
 21 44  1  0
 22 45  1  0
 22 46  1  0
 23 47  1  0
M  CHG  1  12   1
M  END
>  <UniqueID>  (22) 
21

>  <SMILES>  (22) 
COc1cccc(CN2CC[NH+](Cc3ccc(Br)cc3)CC2)c1

>  <Energy>  (22) 
58.698474678414144

>  <Genealogy>  (22) 
COc1cccc(CN2CC[NH+](Cc3ccc(Br)cc3)CC2)c1 (protonated)
COc1cccc(CN2CC[NH+](Cc3ccc(Br)cc3)CC2)c1 (3D coordinates assigned)
COc1cccc(CN2CC[NH+](Cc3ccc(Br)cc3)CC2)c1 (nonaromatic ring conformer: 58.698474678414144 kcal/mol)

>  <smiles>  (22) 
COc1cccc(CN2CCN(Cc3ccc(Br)cc3)CC2)c1

>  <score_type>  (22) 
oracle

>  <origin>  (22) 
adg

>  <m_score__min__energy>  (22) 
-6.7999999999999998

>  <m_primary>  (22) 
energy

$$$$
22:0
     RDKit          3D

 35 37  0  0  0  0  0  0  0  0999 V2000
   60.0220   33.8280   50.1520 C   0  0  0  0  0  0  0  0  0  0  0  0
   60.5620   33.6490   48.8480 O   0  0  0  0  0  0  0  0  0  0  0  0
   60.4880   32.4740   48.0730 C   0  0  0  0  0  0  0  0  0  0  0  0
   61.6280   31.6450   48.0210 C   0  0  0  0  0  0  0  0  0  0  0  0
   62.8690   32.0310   48.7310 C   0  0  0  0  0  0  0  0  0  0  0  0
   63.2670   31.4540   49.8870 N   0  0  0  0  0  0  0  0  0  0  0  0
   64.4150   32.1090   50.1670 C   0  0  0  0  0  0  0  0  0  0  0  0
   64.7030   33.0300   49.2320 N   0  0  0  0  0  0  0  0  0  0  0  0
   63.7450   32.9770   48.3270 N   0  0  0  0  0  0  0  0  0  0  0  0
   63.7020   33.8070   47.1260 C   0  0  0  0  0  0  0  0  0  0  0  0
   61.6020   30.4720   47.2560 C   0  0  0  0  0  0  0  0  0  0  0  0
   60.4510   30.0990   46.5660 C   0  0  0  0  0  0  0  0  0  0  0  0
   59.3000   30.8980   46.6180 C   0  0  0  0  0  0  0  0  0  0  0  0
   58.0830   30.4780   45.8820 C   0  0  0  0  0  0  0  0  0  0  0  0
   57.3790   31.3820   45.0740 C   0  0  0  0  0  0  0  0  0  0  0  0
   56.2700   30.9780   44.4020 N   0  0  0  0  0  0  0  0  0  0  0  0
   55.8260   29.6980   44.4910 C   0  0  0  0  0  0  0  0  0  0  0  0
   54.7670   29.3400   43.8410 N   0  0  0  0  0  0  0  0  0  0  0  0
   56.4940   28.8000   45.2620 N   0  0  0  0  0  0  0  0  0  0  0  0
   57.6060   29.1620   45.9540 C   0  0  0  0  0  0  0  0  0  0  0  0
   59.3220   32.0930   47.3650 C   0  0  0  0  0  0  0  0  0  0  0  0
   58.2220   32.8860   47.3610 F   0  0  0  0  0  0  0  0  0  0  0  0
   60.7851   33.5750   50.9028 H   0  0  0  0  0  0  0  0  0  0  0  0
   59.7143   34.8762   50.2807 H   0  0  0  0  0  0  0  0  0  0  0  0
   59.1491   33.1712   50.2807 H   0  0  0  0  0  0  0  0  0  0  0  0
   65.0377   31.9124   51.0522 H   0  0  0  0  0  0  0  0  0  0  0  0
   65.5320   33.6650   49.2070 H   0  0  0  0  0  0  0  0  0  0  0  0
   63.6471   34.8670   47.4146 H   0  0  0  0  0  0  0  0  0  0  0  0
   64.6102   33.6360   46.5294 H   0  0  0  0  0  0  0  0  0  0  0  0
   62.8163   33.5431   46.5294 H   0  0  0  0  0  0  0  0  0  0  0  0
   62.4998   29.8389   47.1996 H   0  0  0  0  0  0  0  0  0  0  0  0
   60.4450   29.1707   45.9759 H   0  0  0  0  0  0  0  0  0  0  0  0
   57.7260   32.4219   44.9840 H   0  0  0  0  0  0  0  0  0  0  0  0
   54.8030   29.1220   42.8200 H   0  0  0  0  0  0  0  0  0  0  0  0
   58.1331   28.4204   46.5722 H   0  0  0  0  0  0  0  0  0  0  0  0
  1  2  1  0
  2  3  1  0
  3  4  2  0
  4  5  1  0
  5  6  2  0
  6  7  1  0
  7  8  2  0
  8  9  1  0
  9 10  1  0
  4 11  1  0
 11 12  2  0
 12 13  1  0
 13 14  1  0
 14 15  1  0
 15 16  2  0
 16 17  1  0
 17 18  2  3
 17 19  1  0
 19 20  1  0
 13 21  2  0
 21 22  1  0
 21  3  1  0
  9  5  1  0
 20 14  2  0
  1 23  1  0
  1 24  1  0
  1 25  1  0
  7 26  1  0
  8 27  1  0
 10 28  1  0
 10 29  1  0
 10 30  1  0
 11 31  1  0
 12 32  1  0
 15 33  1  0
 18 34  1  0
 20 35  1  0
M  CHG  2   8   1  19  -1
M  END
>  <UniqueID>  (23) 
22

>  <SMILES>  (23) 
COc1c(-c2nc[nH+]n2C)ccc(-c2cnc(=N)[n-]c2)c1F

>  <Energy>  (23) 
85.07421303778503

>  <Genealogy>  (23) 
COc1c(-c2nc[nH+]n2C)ccc(-c2cnc(=N)[n-]c2)c1F (protonated)
COc1c(-c2nc[nH+]n2C)ccc(-c2cnc(=N)[n-]c2)c1F (3D coordinates assigned)
COc1c(-c2nc[nH+]n2C)ccc(-c2cnc(=N)[n-]c2)c1F (optimized conformer: 85.07421303778503 kcal/mol)

>  <smiles>  (23) 
COc1c(-c2ncnn2C)ccc(-c2cnc(=N)[nH]c2)c1F

>  <score_type>  (23) 
oracle

>  <origin>  (23) 
adg

>  <m_score__min__energy>  (23) 
-6.8700000000000001

>  <m_primary>  (23) 
energy

$$$$
23:0
     RDKit          3D

 36 38  0  0  0  0  0  0  0  0999 V2000
   62.9930   32.5560   50.8030 F   0  0  0  0  0  0  0  0  0  0  0  0
   63.7870   33.5350   50.2320 C   0  0  0  0  0  0  0  0  0  0  0  0
   62.9560   34.5510   49.7990 F   0  0  0  0  0  0  0  0  0  0  0  0
   64.6300   34.0240   51.2100 F   0  0  0  0  0  0  0  0  0  0  0  0
   64.5630   32.9080   49.0490 C   0  0  0  0  0  0  0  0  0  0  0  0
   63.7840   32.6370   47.8090 N   0  0  2  0  0  0  0  0  0  0  0  0
   63.4000   33.8900   47.0880 C   0  0  0  0  0  0  0  0  0  0  0  0
   62.0580   33.8360   46.4020 C   0  0  0  0  0  0  0  0  0  0  0  0
   61.0580   33.0920   46.8850 C   0  0  0  0  0  0  0  0  0  0  0  0
   59.7010   33.1580   46.3010 C   0  0  0  0  0  0  0  0  0  0  0  0
   58.8870   34.2880   46.2600 C   0  0  0  0  0  0  0  0  0  0  0  0
   57.7110   34.0050   45.6570 N   0  0  0  0  0  0  0  0  0  0  0  0
   57.7650   32.7040   45.3270 C   0  0  0  0  0  0  0  0  0  0  0  0
   56.7670   31.9510   44.7120 C   0  0  0  0  0  0  0  0  0  0  0  0
   57.0120   30.5840   44.4930 C   0  0  0  0  0  0  0  0  0  0  0  0
   58.2320   30.0010   44.9030 C   0  0  0  0  0  0  0  0  0  0  0  0
   58.5110   28.2890   44.6490 Cl  0  0  0  0  0  0  0  0  0  0  0  0
   59.2210   30.7850   45.5270 C   0  0  0  0  0  0  0  0  0  0  0  0
   58.9620   32.1470   45.7070 C   0  0  0  0  0  0  0  0  0  0  0  0
   61.3110   32.2440   48.0940 C   0  0  0  0  0  0  0  0  0  0  0  0
   62.7060   31.6230   47.9880 C   0  0  0  0  0  0  0  0  0  0  0  0
   65.3814   33.5942   48.7856 H   0  0  0  0  0  0  0  0  0  0  0  0
   64.8900   31.9208   49.4075 H   0  0  0  0  0  0  0  0  0  0  0  0
   64.4780   32.1690   47.1780 H   0  0  0  0  0  0  0  0  0  0  0  0
   63.3789   34.7126   47.8180 H   0  0  0  0  0  0  0  0  0  0  0  0
   64.1487   34.0342   46.2952 H   0  0  0  0  0  0  0  0  0  0  0  0
   61.8987   34.4214   45.4845 H   0  0  0  0  0  0  0  0  0  0  0  0
   59.1632   35.2737   46.6626 H   0  0  0  0  0  0  0  0  0  0  0  0
   56.9180   34.6640   45.4940 H   0  0  0  0  0  0  0  0  0  0  0  0
   55.8160   32.4121   44.4070 H   0  0  0  0  0  0  0  0  0  0  0  0
   56.2490   29.9643   43.9993 H   0  0  0  0  0  0  0  0  0  0  0  0
   60.1690   30.3393   45.8628 H   0  0  0  0  0  0  0  0  0  0  0  0
   61.2528   32.8664   48.9991 H   0  0  0  0  0  0  0  0  0  0  0  0
   60.5546   31.4475   48.1526 H   0  0  0  0  0  0  0  0  0  0  0  0
   62.9079   31.0558   48.9086 H   0  0  0  0  0  0  0  0  0  0  0  0
   62.7113   30.9771   47.0976 H   0  0  0  0  0  0  0  0  0  0  0  0
  1  2  1  0
  2  3  1  0
  2  4  1  0
  2  5  1  0
  5  6  1  0
  6  7  1  0
  7  8  1  0
  8  9  2  0
  9 10  1  0
 10 11  2  0
 11 12  1  0
 12 13  1  0
 13 14  2  0
 14 15  1  0
 15 16  2  0
 16 17  1  0
 16 18  1  0
 18 19  2  0
  9 20  1  0
 20 21  1  0
 21  6  1  0
 19 10  1  0
 19 13  1  0
  5 22  1  0
  5 23  1  0
  6 24  1  6
  7 25  1  0
  7 26  1  0
  8 27  1  0
 11 28  1  0
 12 29  1  0
 14 30  1  0
 15 31  1  0
 18 32  1  0
 20 33  1  0
 20 34  1  0
 21 35  1  0
 21 36  1  0
M  CHG  1   6   1
M  END
>  <UniqueID>  (24) 
23

>  <SMILES>  (24) 
FC(F)(F)C[N@@H+]1CC=C(c2c[nH]c3ccc(Cl)cc23)CC1

>  <Energy>  (24) 
89.29262961088578

>  <Genealogy>  (24) 
FC(F)(F)C[NH+]1CC=C(c2c[nH]c3ccc(Cl)cc23)CC1 (protonated)
FC(F)(F)C[N@@H+]1CC=C(c2c[nH]c3ccc(Cl)cc23)CC1 (chirality)
FC(F)(F)C[N@@H+]1CC=C(c2c[nH]c3ccc(Cl)cc23)CC1 (3D coordinates assigned)
FC(F)(F)C[N@@H+]1CC=C(c2c[nH]c3ccc(Cl)cc23)CC1 (nonaromatic ring conformer: 89.29262961088578 kcal/mol)

>  <smiles>  (24) 
FC(F)(F)CN1CC=C(c2c[nH]c3ccc(Cl)cc23)CC1

>  <score_type>  (24) 
oracle

>  <origin>  (24) 
adg

>  <m_score__min__energy>  (24) 
-5.4699999999999998

>  <m_primary>  (24) 
energy

$$$$
24:0
     RDKit          3D

 34 35  0  0  0  0  0  0  0  0999 V2000
   63.3930   33.4640   47.3500 C   0  0  0  0  0  0  0  0  0  0  0  0
   62.4500   33.8160   48.4970 C   0  0  0  0  0  0  0  0  0  0  0  0
   61.0400   33.7630   48.0770 N   0  0  0  0  0  0  0  0  0  0  0  0
   60.8570   33.2590   46.6910 C   0  0  2  0  0  0  0  0  0  0  0  0
   59.8780   34.1690   45.9070 C   0  0  0  0  0  0  0  0  0  0  0  0
   58.5560   34.5470   46.6000 C   0  0  0  0  0  0  0  0  0  0  0  0
   57.5060   33.4250   46.6290 C   0  0  0  0  0  0  0  0  0  0  0  0
   58.0280   32.1120   46.2030 N   0  0  0  0  0  0  0  0  0  0  0  0
   57.5420   31.5630   44.9600 C   0  0  0  0  0  0  0  0  0  0  0  0
   56.7170   30.4940   44.8960 N   0  0  0  0  0  0  0  0  0  0  0  0
   56.4330   30.1440   43.6130 C   0  0  0  0  0  0  0  0  0  0  0  0
   57.0380   30.9300   42.6380 C   0  0  0  0  0  0  0  0  0  0  0  0
   57.9600   32.1000   43.4170 S   0  0  0  0  0  0  0  0  0  0  0  0
   59.0220   31.3840   47.0090 C   0  0  0  0  0  0  0  0  0  0  0  0
   60.4790   31.7540   46.6530 C   0  0  0  0  0  0  0  0  0  0  0  0
   64.3499   33.1068   47.7585 H   0  0  0  0  0  0  0  0  0  0  0  0
   62.9404   32.6743   46.7324 H   0  0  0  0  0  0  0  0  0  0  0  0
   63.5685   34.3572   46.7324 H   0  0  0  0  0  0  0  0  0  0  0  0
   62.6047   33.1007   49.3182 H   0  0  0  0  0  0  0  0  0  0  0  0
   62.6731   34.8429   48.8222 H   0  0  0  0  0  0  0  0  0  0  0  0
   60.5640   33.1290   48.7590 H   0  0  0  0  0  0  0  0  0  0  0  0
   61.8258   33.3146   46.1730 H   0  0  0  0  0  0  0  0  0  0  0  0
   60.4092   35.1042   45.6763 H   0  0  0  0  0  0  0  0  0  0  0  0
   59.5779   33.5732   45.0324 H   0  0  0  0  0  0  0  0  0  0  0  0
   58.7820   34.8325   47.6380 H   0  0  0  0  0  0  0  0  0  0  0  0
   58.1193   35.3680   46.0124 H   0  0  0  0  0  0  0  0  0  0  0  0
   57.1269   33.3308   47.6573 H   0  0  0  0  0  0  0  0  0  0  0  0
   56.7176   33.7044   45.9146 H   0  0  0  0  0  0  0  0  0  0  0  0
   55.7725   29.3002   43.3643 H   0  0  0  0  0  0  0  0  0  0  0  0
   56.9320   30.8077   41.5500 H   0  0  0  0  0  0  0  0  0  0  0  0
   58.8509   31.6172   48.0703 H   0  0  0  0  0  0  0  0  0  0  0  0
   58.8946   30.3121   46.7972 H   0  0  0  0  0  0  0  0  0  0  0  0
   61.1365   31.2294   47.3619 H   0  0  0  0  0  0  0  0  0  0  0  0
   60.5982   31.4577   45.6004 H   0  0  0  0  0  0  0  0  0  0  0  0
  1  2  1  0
  2  3  1  0
  3  4  1  0
  4  5  1  0
  5  6  1  0
  6  7  1  0
  7  8  1  0
  8  9  1  0
  9 10  2  0
 10 11  1  0
 11 12  2  0
 12 13  1  0
  8 14  1  0
 14 15  1  0
 15  4  1  0
 13  9  1  0
  1 16  1  0
  1 17  1  0
  1 18  1  0
  2 19  1  0
  2 20  1  0
  3 21  1  0
  4 22  1  6
  5 23  1  0
  5 24  1  0
  6 25  1  0
  6 26  1  0
  7 27  1  0
  7 28  1  0
 11 29  1  0
 12 30  1  0
 14 31  1  0
 14 32  1  0
 15 33  1  0
 15 34  1  0
M  END
>  <UniqueID>  (25) 
24

>  <SMILES>  (25) 
CCN[C@@H]1CCCN(c2nccs2)CC1

>  <Energy>  (25) 
71.60856076662661

>  <Genealogy>  (25) 
CCN[C@@H]1CCCN(c2nccs2)CC1 (chirality)
CCN[C@@H]1CCCN(c2nccs2)CC1 (3D coordinates assigned)
CCN[C@@H]1CCCN(c2nccs2)CC1 (nonaromatic ring conformer: 71.60856076662661 kcal/mol)

>  <smiles>  (25) 
CCNC1CCCN(c2nccs2)CC1

>  <score_type>  (25) 
oracle

>  <origin>  (25) 
adg

>  <m_score__min__energy>  (25) 
-4.0899999999999999

>  <m_primary>  (25) 
energy

$$$$
25:0
     RDKit          3D

 50 53  0  0  0  0  0  0  0  0999 V2000
   57.4050   31.8390   42.2970 C   0  0  0  0  0  0  0  0  0  0  0  0
   57.8750   32.1310   43.6910 C   0  0  0  0  0  0  0  0  0  0  0  0
   58.1200   31.0810   44.5900 C   0  0  0  0  0  0  0  0  0  0  0  0
   58.5220   31.3560   45.9000 C   0  0  0  0  0  0  0  0  0  0  0  0
   58.6870   32.6790   46.3270 C   0  0  0  0  0  0  0  0  0  0  0  0
   59.0900   32.9260   47.6790 N   0  0  0  0  0  0  0  0  0  0  0  0
   59.8630   34.0460   48.1280 C   0  0  0  0  0  0  0  0  0  0  0  0
   59.2770   34.9640   48.7600 O   0  0  0  0  0  0  0  0  0  0  0  0
   61.3520   34.1750   47.8630 C   0  0  2  0  0  0  0  0  0  0  0  0
   61.8490   33.6570   46.5160 C   0  0  0  0  0  0  0  0  0  0  0  0
   63.3270   33.3920   46.7410 C   0  0  0  0  0  0  0  0  0  0  0  0
   63.5380   33.4600   48.2530 C   0  0  0  0  0  0  0  0  0  0  0  0
   62.2160   33.5590   48.8940 N   0  0  2  0  0  0  0  0  0  0  0  0
   61.6930   31.9790   49.4790 S   0  0  0  0  0  0  0  0  0  0  0  0
   62.7850   31.3590   50.3060 O   0  0  0  0  0  0  0  0  0  0  0  0
   61.4550   31.0690   48.3060 O   0  0  0  0  0  0  0  0  0  0  0  0
   60.2110   32.0460   50.4360 C   0  0  0  0  0  0  0  0  0  0  0  0
   59.8880   33.2100   51.1520 C   0  0  0  0  0  0  0  0  0  0  0  0
   58.7330   33.2570   51.9420 C   0  0  0  0  0  0  0  0  0  0  0  0
   57.8900   32.1450   52.0050 C   0  0  0  0  0  0  0  0  0  0  0  0
   58.2050   30.9830   51.2910 C   0  0  0  0  0  0  0  0  0  0  0  0
   59.3470   30.9420   50.4870 C   0  0  0  0  0  0  0  0  0  0  0  0
   57.3670   29.8690   51.4010 O   0  0  0  0  0  0  0  0  0  0  0  0
   56.3770   29.7920   52.4290 C   0  0  0  0  0  0  0  0  0  0  0  0
   55.7210   31.1640   52.6380 C   0  0  0  0  0  0  0  0  0  0  0  0
   56.7220   32.1760   52.7760 O   0  0  0  0  0  0  0  0  0  0  0  0
   58.4040   33.7320   45.4420 C   0  0  0  0  0  0  0  0  0  0  0  0
   58.0000   33.4580   44.1310 C   0  0  0  0  0  0  0  0  0  0  0  0
   56.4713   31.2589   42.3388 H   0  0  0  0  0  0  0  0  0  0  0  0
   57.2255   32.7849   41.7649 H   0  0  0  0  0  0  0  0  0  0  0  0
   58.1735   31.2591   41.7649 H   0  0  0  0  0  0  0  0  0  0  0  0
   57.9952   30.0384   44.2623 H   0  0  0  0  0  0  0  0  0  0  0  0
   58.7098   30.5281   46.5996 H   0  0  0  0  0  0  0  0  0  0  0  0
   61.4450   35.2710   47.8774 H   0  0  0  0  0  0  0  0  0  0  0  0
   61.3248   32.7312   46.2366 H   0  0  0  0  0  0  0  0  0  0  0  0
   61.6686   34.3699   45.6979 H   0  0  0  0  0  0  0  0  0  0  0  0
   63.5997   32.3965   46.3608 H   0  0  0  0  0  0  0  0  0  0  0  0
   63.9543   34.1245   46.2118 H   0  0  0  0  0  0  0  0  0  0  0  0
   64.0534   32.5519   48.5990 H   0  0  0  0  0  0  0  0  0  0  0  0
   64.1548   34.3328   48.5134 H   0  0  0  0  0  0  0  0  0  0  0  0
   62.2790   34.1970   49.7220 H   0  0  0  0  0  0  0  0  0  0  0  0
   60.5459   34.0895   51.0919 H   0  0  0  0  0  0  0  0  0  0  0  0
   58.4903   34.1665   52.5111 H   0  0  0  0  0  0  0  0  0  0  0  0
   59.5688   30.0429   49.8933 H   0  0  0  0  0  0  0  0  0  0  0  0
   55.6073   29.0619   52.1381 H   0  0  0  0  0  0  0  0  0  0  0  0
   56.8578   29.4777   53.3671 H   0  0  0  0  0  0  0  0  0  0  0  0
   55.0851   31.3981   51.7715 H   0  0  0  0  0  0  0  0  0  0  0  0
   55.1129   31.1344   53.5541 H   0  0  0  0  0  0  0  0  0  0  0  0
   58.5002   34.7743   45.7803 H   0  0  0  0  0  0  0  0  0  0  0  0
   57.7793   34.2864   43.4417 H   0  0  0  0  0  0  0  0  0  0  0  0
  1  2  1  0
  2  3  2  0
  3  4  1  0
  4  5  2  0
  5  6  1  0
  6  7  1  0
  7  8  2  0
  7  9  1  0
  9 10  1  0
 10 11  1  0
 11 12  1  0
 12 13  1  0
 13 14  1  0
 14 15  2  0
 14 16  2  0
 14 17  1  0
 17 18  2  0
 18 19  1  0
 19 20  2  0
 20 21  1  0
 21 22  2  0
 21 23  1  0
 23 24  1  0
 24 25  1  0
 25 26  1  0
  5 27  1  0
 27 28  2  0
 28  2  1  0
 13  9  1  0
 22 17  1  0
 26 20  1  0
  1 29  1  0
  1 30  1  0
  1 31  1  0
  3 32  1  0
  4 33  1  0
  9 34  1  6
 10 35  1  0
 10 36  1  0
 11 37  1  0
 11 38  1  0
 12 39  1  0
 12 40  1  0
 13 41  1  1
 18 42  1  0
 19 43  1  0
 22 44  1  0
 24 45  1  0
 24 46  1  0
 25 47  1  0
 25 48  1  0
 27 49  1  0
 28 50  1  0
M  CHG  2   6  -1  13   1
M  END
>  <UniqueID>  (26) 
25

>  <SMILES>  (26) 
Cc1ccc([N-]C(=O)[C@@H]2CCC[N@@H+]2S(=O)(=O)c2ccc3c(c2)OCCO3)cc1

>  <Energy>  (26) 
66.02227790006836

>  <Genealogy>  (26) 
Cc1ccc([N-]C(=O)C2CCC[NH+]2S(=O)(=O)c2ccc3c(c2)OCCO3)cc1 (protonated)
Cc1ccc([N-]C(=O)[C@@H]2CCC[N@@H+]2S(=O)(=O)c2ccc3c(c2)OCCO3)cc1 (chirality)
Cc1ccc([N-]C(=O)[C@@H]2CCC[N@@H+]2S(=O)(=O)c2ccc3c(c2)OCCO3)cc1 (3D coordinates assigned)
Cc1ccc([N-]C(=O)[C@@H]2CCC[N@@H+]2S(=O)(=O)c2ccc3c(c2)OCCO3)cc1 (nonaromatic ring conformer: 66.02227790006836 kcal/mol)

>  <smiles>  (26) 
Cc1ccc(NC(=O)C2CCCN2S(=O)(=O)c2ccc3c(c2)OCCO3)cc1

>  <score_type>  (26) 
oracle

>  <origin>  (26) 
adg

>  <m_score__min__energy>  (26) 
-8.3900000000000006

>  <m_primary>  (26) 
energy

$$$$
26:0
     RDKit          3D

 64 67  0  0  0  0  0  0  0  0999 V2000
   57.0030   32.4120   45.0700 C   0  0  0  0  0  0  0  0  0  0  0  0
   57.9860   32.0230   43.9680 C   0  0  0  0  0  0  0  0  0  0  0  0
   57.3850   31.0220   43.0610 N   0  0  0  0  0  0  0  0  0  0  0  0
   57.0160   31.5840   41.7410 C   0  0  0  0  0  0  0  0  0  0  0  0
   58.0700   32.5300   41.1400 C   0  0  0  0  0  0  0  0  0  0  0  0
   56.2890   30.2480   43.6880 C   0  0  0  0  0  0  0  0  0  0  0  0
   56.8560   29.0100   44.3840 C   0  0  0  0  0  0  0  0  0  0  0  0
   57.8380   28.3570   43.5010 N   0  0  0  0  0  0  0  0  0  0  0  0
   59.1710   28.2580   44.1130 C   0  0  0  0  0  0  0  0  0  0  0  0
   59.1260   28.6640   45.5640 C   0  0  0  0  0  0  0  0  0  0  0  0
   58.6100   27.7820   46.5260 C   0  0  0  0  0  0  0  0  0  0  0  0
   58.5320   28.1690   47.8670 C   0  0  0  0  0  0  0  0  0  0  0  0
   58.9640   29.4370   48.2700 C   0  0  0  0  0  0  0  0  0  0  0  0
   58.8510   29.7750   49.6280 O   0  0  0  0  0  0  0  0  0  0  0  0
   59.8450   30.4490   50.4010 C   0  0  0  0  0  0  0  0  0  0  0  0
   59.6180   31.9610   50.3700 C   0  0  0  0  0  0  0  0  0  0  0  0
   60.4240   32.5750   49.3110 N   0  0  0  0  0  0  0  0  0  0  0  0
   61.7780   32.6260   49.2260 C   0  0  0  0  0  0  0  0  0  0  0  0
   62.7190   32.0680   50.0990 C   0  0  0  0  0  0  0  0  0  0  0  0
   64.0830   32.2550   49.8110 C   0  0  0  0  0  0  0  0  0  0  0  0
   64.4830   32.9900   48.6750 C   0  0  0  0  0  0  0  0  0  0  0  0
   63.5240   33.5490   47.8120 C   0  0  0  0  0  0  0  0  0  0  0  0
   62.1810   33.3460   48.1180 C   0  0  0  0  0  0  0  0  0  0  0  0
   61.0300   33.7720   47.4940 C   0  0  0  0  0  0  0  0  0  0  0  0
   60.8320   34.5480   46.3540 C   0  0  0  0  0  0  0  0  0  0  0  0
   59.5080   34.8380   45.9810 C   0  0  0  0  0  0  0  0  0  0  0  0
   58.4250   34.3560   46.7490 C   0  0  0  0  0  0  0  0  0  0  0  0
   58.6540   33.5770   47.8990 C   0  0  0  0  0  0  0  0  0  0  0  0
   59.9770   33.2930   48.2500 C   0  0  0  0  0  0  0  0  0  0  0  0
   59.4940   30.3180   47.3060 C   0  0  0  0  0  0  0  0  0  0  0  0
   59.5680   29.9330   45.9650 C   0  0  0  0  0  0  0  0  0  0  0  0
   57.4629   32.2300   46.0525 H   0  0  0  0  0  0  0  0  0  0  0  0
   56.7495   33.4782   44.9756 H   0  0  0  0  0  0  0  0  0  0  0  0
   56.0885   31.8080   44.9756 H   0  0  0  0  0  0  0  0  0  0  0  0
   58.2535   32.9197   43.3897 H   0  0  0  0  0  0  0  0  0  0  0  0
   58.8828   31.5865   44.4320 H   0  0  0  0  0  0  0  0  0  0  0  0
   56.8632   30.7490   41.0413 H   0  0  0  0  0  0  0  0  0  0  0  0
   56.1064   32.1828   41.8961 H   0  0  0  0  0  0  0  0  0  0  0  0
   58.6227   33.0261   41.9515 H   0  0  0  0  0  0  0  0  0  0  0  0
   58.7704   31.9517   40.5194 H   0  0  0  0  0  0  0  0  0  0  0  0
   57.5705   33.2886   40.5194 H   0  0  0  0  0  0  0  0  0  0  0  0
   55.7745   30.8786   44.4280 H   0  0  0  0  0  0  0  0  0  0  0  0
   55.5787   29.9318   42.9099 H   0  0  0  0  0  0  0  0  0  0  0  0
   57.3477   29.3092   45.3214 H   0  0  0  0  0  0  0  0  0  0  0  0
   56.0390   28.3079   44.6065 H   0  0  0  0  0  0  0  0  0  0  0  0
   57.9350   28.9310   42.6300 H   0  0  0  0  0  0  0  0  0  0  0  0
   59.5249   27.2190   44.0402 H   0  0  0  0  0  0  0  0  0  0  0  0
   59.8549   28.9341   43.5790 H   0  0  0  0  0  0  0  0  0  0  0  0
   58.2655   26.7821   46.2235 H   0  0  0  0  0  0  0  0  0  0  0  0
   58.1268   27.4694   48.6129 H   0  0  0  0  0  0  0  0  0  0  0  0
   59.7935   30.0971   51.4419 H   0  0  0  0  0  0  0  0  0  0  0  0
   60.8348   30.2304   49.9737 H   0  0  0  0  0  0  0  0  0  0  0  0
   58.5538   32.1643   50.1800 H   0  0  0  0  0  0  0  0  0  0  0  0
   59.9161   32.3874   51.3392 H   0  0  0  0  0  0  0  0  0  0  0  0
   62.4009   31.4993   50.9852 H   0  0  0  0  0  0  0  0  0  0  0  0
   64.8448   31.8243   50.4775 H   0  0  0  0  0  0  0  0  0  0  0  0
   65.5536   33.1268   48.4628 H   0  0  0  0  0  0  0  0  0  0  0  0
   63.8245   34.1269   46.9255 H   0  0  0  0  0  0  0  0  0  0  0  0
   61.6831   34.9212   45.7655 H   0  0  0  0  0  0  0  0  0  0  0  0
   59.3140   35.4449   45.0843 H   0  0  0  0  0  0  0  0  0  0  0  0
   57.3941   34.5913   46.4460 H   0  0  0  0  0  0  0  0  0  0  0  0
   57.8155   33.2023   48.5044 H   0  0  0  0  0  0  0  0  0  0  0  0
   59.8509   31.3129   47.6107 H   0  0  0  0  0  0  0  0  0  0  0  0
   59.9759   30.6303   45.2184 H   0  0  0  0  0  0  0  0  0  0  0  0
  1  2  1  0
  2  3  1  0
  3  4  1  0
  4  5  1  0
  3  6  1  0
  6  7  1  0
  7  8  1  0
  8  9  1  0
  9 10  1  0
 10 11  2  0
 11 12  1  0
 12 13  2  0
 13 14  1  0
 14 15  1  0
 15 16  1  0
 16 17  1  0
 17 18  1  0
 18 19  2  0
 19 20  1  0
 20 21  2  0
 21 22  1  0
 22 23  2  0
 23 24  1  0
 24 25  2  0
 25 26  1  0
 26 27  2  0
 27 28  1  0
 28 29  2  0
 13 30  1  0
 30 31  2  0
 31 10  1  0
 29 17  1  0
 23 18  1  0
 29 24  1  0
  1 32  1  0
  1 33  1  0
  1 34  1  0
  2 35  1  0
  2 36  1  0
  4 37  1  0
  4 38  1  0
  5 39  1  0
  5 40  1  0
  5 41  1  0
  6 42  1  0
  6 43  1  0
  7 44  1  0
  7 45  1  0
  8 46  1  0
  9 47  1  0
  9 48  1  0
 11 49  1  0
 12 50  1  0
 15 51  1  0
 15 52  1  0
 16 53  1  0
 16 54  1  0
 19 55  1  0
 20 56  1  0
 21 57  1  0
 22 58  1  0
 25 59  1  0
 26 60  1  0
 27 61  1  0
 28 62  1  0
 30 63  1  0
 31 64  1  0
M  END
>  <UniqueID>  (27) 
26

>  <SMILES>  (27) 
CCN(CC)CCNCc1ccc(OCCn2c3ccccc3c3ccccc32)cc1

>  <Energy>  (27) 
104.46453014744381

>  <Genealogy>  (27) 
CCN(CC)CCNCc1ccc(OCCn2c3ccccc3c3ccccc32)cc1 (3D coordinates assigned)
CCN(CC)CCNCc1ccc(OCCn2c3ccccc3c3ccccc32)cc1 (optimized conformer: 104.46453014744381 kcal/mol)

>  <smiles>  (27) 
CCN(CC)CCNCc1ccc(OCCn2c3ccccc3c3ccccc32)cc1

>  <score_type>  (27) 
oracle

>  <origin>  (27) 
adg

>  <m_score__min__energy>  (27) 
-8.2799999999999994

>  <m_primary>  (27) 
energy

$$$$
27:0
     RDKit          3D

 39 41  0  0  0  0  0  0  0  0999 V2000
   63.2880   31.6360   47.7260 C   0  0  0  0  0  0  0  0  0  0  0  0
   63.7660   32.7070   46.7550 C   0  0  0  0  0  0  0  0  0  0  0  0
   62.4730   33.9680   46.4800 S   0  0  0  0  0  0  0  0  0  0  0  0
   61.7810   33.8430   48.1340 C   0  0  0  0  0  0  0  0  0  0  0  0
   62.3900   34.3460   49.2260 N   0  0  0  0  0  0  0  0  0  0  0  0
   61.5650   34.1320   50.2380 N   0  0  0  0  0  0  0  0  0  0  0  0
   60.4700   33.5050   49.7670 C   0  0  0  0  0  0  0  0  0  0  0  0
   59.3380   33.0780   50.6210 C   0  0  0  0  0  0  0  0  0  0  0  0
   58.6830   31.8570   50.3950 C   0  0  0  0  0  0  0  0  0  0  0  0
   57.6220   31.4810   51.2230 C   0  0  0  0  0  0  0  0  0  0  0  0
   57.2370   32.2880   52.2460 N   0  0  0  0  0  0  0  0  0  0  0  0
   57.8610   33.4690   52.4970 C   0  0  0  0  0  0  0  0  0  0  0  0
   58.9260   33.8820   51.6930 C   0  0  0  0  0  0  0  0  0  0  0  0
   60.5790   33.3020   48.4330 N   0  0  0  0  0  0  0  0  0  0  0  0
   59.5950   32.8020   47.5140 C   0  0  0  0  0  0  0  0  0  0  0  0
   59.6700   31.4810   47.0460 C   0  0  0  0  0  0  0  0  0  0  0  0
   58.7120   30.9950   46.1530 C   0  0  0  0  0  0  0  0  0  0  0  0
   57.6660   31.8150   45.7150 C   0  0  0  0  0  0  0  0  0  0  0  0
   56.7300   31.2800   44.8170 O   0  0  0  0  0  0  0  0  0  0  0  0
   57.0510   30.7940   43.5170 C   0  0  0  0  0  0  0  0  0  0  0  0
   57.5890   33.1400   46.1850 C   0  0  0  0  0  0  0  0  0  0  0  0
   58.5480   33.6270   47.0790 C   0  0  0  0  0  0  0  0  0  0  0  0
   63.4424   31.9820   48.7587 H   0  0  0  0  0  0  0  0  0  0  0  0
   62.2179   31.4422   47.5604 H   0  0  0  0  0  0  0  0  0  0  0  0
   63.8583   30.7101   47.5604 H   0  0  0  0  0  0  0  0  0  0  0  0
   64.6609   33.1942   47.1693 H   0  0  0  0  0  0  0  0  0  0  0  0
   63.9979   32.2280   45.7923 H   0  0  0  0  0  0  0  0  0  0  0  0
   61.7630   34.4010   51.2270 H   0  0  0  0  0  0  0  0  0  0  0  0
   59.0027   31.2009   49.5720 H   0  0  0  0  0  0  0  0  0  0  0  0
   57.0977   30.5303   51.0463 H   0  0  0  0  0  0  0  0  0  0  0  0
   57.5271   34.1001   53.3339 H   0  0  0  0  0  0  0  0  0  0  0  0
   59.4386   34.8330   51.8999 H   0  0  0  0  0  0  0  0  0  0  0  0
   60.4864   30.8257   47.3837 H   0  0  0  0  0  0  0  0  0  0  0  0
   58.7804   29.9586   45.7909 H   0  0  0  0  0  0  0  0  0  0  0  0
   57.6552   29.8792   43.6064 H   0  0  0  0  0  0  0  0  0  0  0  0
   56.1234   30.5688   42.9704 H   0  0  0  0  0  0  0  0  0  0  0  0
   57.6222   31.5588   42.9704 H   0  0  0  0  0  0  0  0  0  0  0  0
   56.7717   33.7945   45.8479 H   0  0  0  0  0  0  0  0  0  0  0  0
   58.4805   34.6629   47.4429 H   0  0  0  0  0  0  0  0  0  0  0  0
  1  2  1  0
  2  3  1  0
  3  4  1  0
  4  5  2  0
  5  6  1  0
  6  7  2  0
  7  8  1  0
  8  9  2  0
  9 10  1  0
 10 11  2  0
 11 12  1  0
 12 13  2  0
  7 14  1  0
 14 15  1  0
 15 16  2  0
 16 17  1  0
 17 18  2  0
 18 19  1  0
 19 20  1  0
 18 21  1  0
 21 22  2  0
 14  4  1  0
 22 15  1  0
 13  8  1  0
  1 23  1  0
  1 24  1  0
  1 25  1  0
  2 26  1  0
  2 27  1  0
  6 28  1  0
  9 29  1  0
 10 30  1  0
 12 31  1  0
 13 32  1  0
 16 33  1  0
 17 34  1  0
 20 35  1  0
 20 36  1  0
 20 37  1  0
 21 38  1  0
 22 39  1  0
M  CHG  1   6   1
M  END
>  <UniqueID>  (28) 
27

>  <SMILES>  (28) 
CCSc1n[nH+]c(-c2ccncc2)n1-c1ccc(OC)cc1

>  <Energy>  (28) 
79.71039037424646

>  <Genealogy>  (28) 
CCSc1n[nH+]c(-c2ccncc2)n1-c1ccc(OC)cc1 (protonated)
CCSc1n[nH+]c(-c2ccncc2)n1-c1ccc(OC)cc1 (3D coordinates assigned)
CCSc1n[nH+]c(-c2ccncc2)n1-c1ccc(OC)cc1 (optimized conformer: 79.71039037424646 kcal/mol)

>  <smiles>  (28) 
CCSc1nnc(-c2ccncc2)n1-c1ccc(OC)cc1

>  <score_type>  (28) 
oracle

>  <origin>  (28) 
adg

>  <m_score__min__energy>  (28) 
-5.2400000000000002

>  <m_primary>  (28) 
energy

$$$$
28:0
     RDKit          3D

 58 63  0  0  0  0  0  0  0  0999 V2000
   59.1360   21.5140   45.6210 F   0  0  0  0  0  0  0  0  0  0  0  0
   58.3200   22.3290   44.9050 C   0  0  0  0  0  0  0  0  0  0  0  0
   57.5210   21.7990   43.8890 C   0  0  0  0  0  0  0  0  0  0  0  0
   56.6810   22.6360   43.1530 C   0  0  0  0  0  0  0  0  0  0  0  0
   56.6380   24.0060   43.4290 C   0  0  0  0  0  0  0  0  0  0  0  0
   57.4420   24.5530   44.4460 C   0  0  0  0  0  0  0  0  0  0  0  0
   57.4030   26.0020   44.7350 C   0  0  0  0  0  0  0  0  0  0  0  0
   56.5620   26.5680   45.6230 N   0  0  0  0  0  0  0  0  0  0  0  0
   56.8310   27.8370   45.5810 O   0  0  0  0  0  0  0  0  0  0  0  0
   57.7920   28.0540   44.7160 C   0  0  0  0  0  0  0  0  0  0  0  0
   58.3470   29.4110   44.3850 C   0  0  0  0  0  0  0  0  0  0  0  0
   58.9270   30.1020   45.6450 C   0  0  0  0  0  0  0  0  0  0  0  0
   57.9050   31.0500   46.2900 C   0  0  0  0  0  0  0  0  0  0  0  0
   57.4320   32.1000   45.3520 N   0  0  0  0  0  0  0  0  0  0  0  0
   57.9000   33.4680   45.6700 C   0  0  0  0  0  0  0  0  0  0  0  0
   59.1470   33.5040   46.5300 C   0  0  0  0  0  0  0  0  0  0  0  0
   60.4230   33.4520   45.9460 C   0  0  0  0  0  0  0  0  0  0  0  0
   61.5700   33.4840   46.7430 C   0  0  0  0  0  0  0  0  0  0  0  0
   61.4680   33.5560   48.1430 C   0  0  0  0  0  0  0  0  0  0  0  0
   62.6970   33.5900   48.9730 C   0  0  0  0  0  0  0  0  0  0  0  0
   62.9000   34.3400   50.1320 C   0  0  0  0  0  0  0  0  0  0  0  0
   64.1420   34.0650   50.5460 N   0  0  0  0  0  0  0  0  0  0  0  0
   64.7950   34.5370   51.6070 N   0  0  0  0  0  0  0  0  0  0  0  0
   66.0710   34.1140   51.8400 C   0  0  0  0  0  0  0  0  0  0  0  0
   66.6730   33.1930   50.9610 C   0  0  0  0  0  0  0  0  0  0  0  0
   65.9580   32.7170   49.8520 C   0  0  0  0  0  0  0  0  0  0  0  0
   64.6640   33.1910   49.6780 C   0  0  0  0  0  0  0  0  0  0  0  0
   63.8130   32.8640   48.6860 N   0  0  0  0  0  0  0  0  0  0  0  0
   60.1890   33.5820   48.7270 C   0  0  0  0  0  0  0  0  0  0  0  0
   59.0430   33.5480   47.9300 C   0  0  0  0  0  0  0  0  0  0  0  0
   57.5280   31.7580   43.9140 C   0  0  0  0  0  0  0  0  0  0  0  0
   57.2660   30.2670   43.6860 C   0  0  0  0  0  0  0  0  0  0  0  0
   58.2020   26.9110   44.1330 N   0  0  0  0  0  0  0  0  0  0  0  0
   58.2830   23.6990   45.1840 C   0  0  0  0  0  0  0  0  0  0  0  0
   57.5539   20.7217   43.6690 H   0  0  0  0  0  0  0  0  0  0  0  0
   56.0515   22.2170   42.3541 H   0  0  0  0  0  0  0  0  0  0  0  0
   55.9716   24.6601   42.8476 H   0  0  0  0  0  0  0  0  0  0  0  0
   59.1857   29.2941   43.6829 H   0  0  0  0  0  0  0  0  0  0  0  0
   59.2103   29.3310   46.3766 H   0  0  0  0  0  0  0  0  0  0  0  0
   59.8023   30.6947   45.3406 H   0  0  0  0  0  0  0  0  0  0  0  0
   57.0390   30.4601   46.6249 H   0  0  0  0  0  0  0  0  0  0  0  0
   58.4016   31.5536   47.1325 H   0  0  0  0  0  0  0  0  0  0  0  0
   58.1151   33.9891   44.7255 H   0  0  0  0  0  0  0  0  0  0  0  0
   57.0993   33.9542   46.2467 H   0  0  0  0  0  0  0  0  0  0  0  0
   60.5202   33.3855   44.8523 H   0  0  0  0  0  0  0  0  0  0  0  0
   62.5627   33.4525   46.2702 H   0  0  0  0  0  0  0  0  0  0  0  0
   62.1815   35.0219   50.6103 H   0  0  0  0  0  0  0  0  0  0  0  0
   64.3400   35.2210   52.2530 H   0  0  0  0  0  0  0  0  0  0  0  0
   66.6273   34.4908   52.7109 H   0  0  0  0  0  0  0  0  0  0  0  0
   67.7013   32.8478   51.1436 H   0  0  0  0  0  0  0  0  0  0  0  0
   66.4038   31.9979   49.1490 H   0  0  0  0  0  0  0  0  0  0  0  0
   60.0905   33.6296   49.8215 H   0  0  0  0  0  0  0  0  0  0  0  0
   58.0498   33.5557   48.4028 H   0  0  0  0  0  0  0  0  0  0  0  0
   56.7837   32.3437   43.3545 H   0  0  0  0  0  0  0  0  0  0  0  0
   58.5445   31.9926   43.5651 H   0  0  0  0  0  0  0  0  0  0  0  0
   56.2786   30.0068   44.0951 H   0  0  0  0  0  0  0  0  0  0  0  0
   57.2963   30.0630   42.6055 H   0  0  0  0  0  0  0  0  0  0  0  0
   58.9146   24.1114   45.9846 H   0  0  0  0  0  0  0  0  0  0  0  0
  1  2  1  0
  2  3  2  0
  3  4  1  0
  4  5  2  0
  5  6  1  0
  6  7  1  0
  7  8  2  0
  8  9  1  0
  9 10  1  0
 10 11  1  0
 11 12  1  0
 12 13  1  0
 13 14  1  0
 14 15  1  0
 15 16  1  0
 16 17  2  0
 17 18  1  0
 18 19  2  0
 19 20  1  0
 20 21  2  0
 21 22  1  0
 22 23  1  0
 23 24  2  0
 24 25  1  0
 25 26  2  0
 26 27  1  0
 27 28  2  0
 19 29  1  0
 29 30  2  0
 14 31  1  0
 31 32  1  0
 10 33  2  0
  6 34  2  0
 34  2  1  0
 33  7  1  0
 32 11  1  0
 30 16  1  0
 28 20  1  0
 27 22  1  0
  3 35  1  0
  4 36  1  0
  5 37  1  0
 11 38  1  0
 12 39  1  0
 12 40  1  0
 13 41  1  0
 13 42  1  0
 15 43  1  0
 15 44  1  0
 17 45  1  0
 18 46  1  0
 21 47  1  0
 23 48  1  0
 24 49  1  0
 25 50  1  0
 26 51  1  0
 29 52  1  0
 30 53  1  0
 31 54  1  0
 31 55  1  0
 32 56  1  0
 32 57  1  0
 34 58  1  0
M  CHG  1  23   1
M  END
>  <UniqueID>  (29) 
28

>  <SMILES>  (29) 
Fc1cccc(-c2noc(C3CCN(Cc4ccc(-c5cn6[nH+]cccc6n5)cc4)CC3)n2)c1

>  <Energy>  (29) 
146.1757355976365

>  <Genealogy>  (29) 
Fc1cccc(-c2noc(C3CCN(Cc4ccc(-c5cn6[nH+]cccc6n5)cc4)CC3)n2)c1 (protonated)
Fc1cccc(-c2noc(C3CCN(Cc4ccc(-c5cn6[nH+]cccc6n5)cc4)CC3)n2)c1 (3D coordinates assigned)
Fc1cccc(-c2noc(C3CCN(Cc4ccc(-c5cn6[nH+]cccc6n5)cc4)CC3)n2)c1 (nonaromatic ring conformer: 146.1757355976365 kcal/mol)

>  <smiles>  (29) 
Fc1cccc(-c2noc(C3CCN(Cc4ccc(-c5cn6ncccc6n5)cc4)CC3)n2)c1

>  <score_type>  (29) 
oracle

>  <origin>  (29) 
adg

>  <m_score__min__energy>  (29) 
-9.8599999999999994

>  <m_primary>  (29) 
energy

$$$$
29:0
     RDKit          3D

 37 38  0  0  0  0  0  0  0  0999 V2000
   57.7670   32.2790   41.7770 C   0  0  0  0  0  0  0  0  0  0  0  0
   57.4710   31.5220   43.0710 C   0  0  0  0  0  0  0  0  0  0  0  0
   56.5830   30.2920   42.8390 C   0  0  0  0  0  0  0  0  0  0  0  0
   55.9380   29.8290   44.1080 C   0  0  0  0  0  0  0  0  0  0  0  0
   54.7760   29.3430   44.0760 O   0  0  0  0  0  0  0  0  0  0  0  0
   56.6620   29.9210   45.3400 N   0  0  0  0  0  0  0  0  0  0  0  0
   57.8280   29.1650   45.6960 C   0  0  0  0  0  0  0  0  0  0  0  0
   58.0630   27.8930   45.1430 C   0  0  0  0  0  0  0  0  0  0  0  0
   59.1550   27.1300   45.5610 C   0  0  0  0  0  0  0  0  0  0  0  0
   60.0110   27.6180   46.5510 C   0  0  0  0  0  0  0  0  0  0  0  0
   59.7770   28.8710   47.1210 C   0  0  0  0  0  0  0  0  0  0  0  0
   58.7020   29.6570   46.6910 C   0  0  0  0  0  0  0  0  0  0  0  0
   58.5100   30.9090   47.2960 O   0  0  0  0  0  0  0  0  0  0  0  0
   59.1060   32.1090   46.8770 C   0  0  0  0  0  0  0  0  0  0  0  0
   58.2960   33.1050   46.3250 C   0  0  0  0  0  0  0  0  0  0  0  0
   58.8710   34.3030   45.8950 C   0  0  0  0  0  0  0  0  0  0  0  0
   60.2100   34.5000   46.0220 N   0  0  0  0  0  0  0  0  0  0  0  0
   61.0240   33.5590   46.5720 C   0  0  0  0  0  0  0  0  0  0  0  0
   62.4920   33.8180   46.6880 C   0  0  0  0  0  0  0  0  0  0  0  0
   60.4820   32.3480   47.0220 C   0  0  0  0  0  0  0  0  0  0  0  0
   58.1578   33.2785   42.0181 H   0  0  0  0  0  0  0  0  0  0  0  0
   58.5146   31.7246   41.1907 H   0  0  0  0  0  0  0  0  0  0  0  0
   56.8416   32.3788   41.1907 H   0  0  0  0  0  0  0  0  0  0  0  0
   58.4228   31.1923   43.5130 H   0  0  0  0  0  0  0  0  0  0  0  0
   56.9298   32.2046   43.7427 H   0  0  0  0  0  0  0  0  0  0  0  0
   55.7977   30.5507   42.1135 H   0  0  0  0  0  0  0  0  0  0  0  0
   57.2171   29.4774   42.4590 H   0  0  0  0  0  0  0  0  0  0  0  0
   57.3816   27.4967   44.3758 H   0  0  0  0  0  0  0  0  0  0  0  0
   59.3413   26.1440   45.1104 H   0  0  0  0  0  0  0  0  0  0  0  0
   60.8696   27.0151   46.8817 H   0  0  0  0  0  0  0  0  0  0  0  0
   60.4426   29.2430   47.9139 H   0  0  0  0  0  0  0  0  0  0  0  0
   57.2117   32.9464   46.2297 H   0  0  0  0  0  0  0  0  0  0  0  0
   58.2397   35.0879   45.4531 H   0  0  0  0  0  0  0  0  0  0  0  0
   62.7728   33.8675   47.7504 H   0  0  0  0  0  0  0  0  0  0  0  0
   63.0477   33.0040   46.1995 H   0  0  0  0  0  0  0  0  0  0  0  0
   62.7356   34.7730   46.1995 H   0  0  0  0  0  0  0  0  0  0  0  0
   61.1300   31.5896   47.4857 H   0  0  0  0  0  0  0  0  0  0  0  0
  1  2  1  0
  2  3  1  0
  3  4  1  0
  4  5  2  0
  4  6  1  0
  6  7  1  0
  7  8  2  0
  8  9  1  0
  9 10  2  0
 10 11  1  0
 11 12  2  0
 12 13  1  0
 13 14  1  0
 14 15  2  0
 15 16  1  0
 16 17  2  0
 17 18  1  0
 18 19  1  0
 18 20  2  0
 12  7  1  0
 20 14  1  0
  1 21  1  0
  1 22  1  0
  1 23  1  0
  2 24  1  0
  2 25  1  0
  3 26  1  0
  3 27  1  0
  8 28  1  0
  9 29  1  0
 10 30  1  0
 11 31  1  0
 15 32  1  0
 16 33  1  0
 19 34  1  0
 19 35  1  0
 19 36  1  0
 20 37  1  0
M  CHG  1   6  -1
M  END
>  <UniqueID>  (30) 
29

>  <SMILES>  (30) 
CCCC(=O)[N-]c1ccccc1Oc1ccnc(C)c1

>  <Energy>  (30) 
41.02603628164705

>  <Genealogy>  (30) 
CCCC(=O)[N-]c1ccccc1Oc1ccnc(C)c1 (protonated)
CCCC(=O)[N-]c1ccccc1Oc1ccnc(C)c1 (3D coordinates assigned)
CCCC(=O)[N-]c1ccccc1Oc1ccnc(C)c1 (optimized conformer: 41.02603628164705 kcal/mol)

>  <smiles>  (30) 
CCCC(=O)Nc1ccccc1Oc1ccnc(C)c1

>  <score_type>  (30) 
oracle

>  <origin>  (30) 
adg

>  <m_score__min__energy>  (30) 
-9.2899999999999991

>  <m_primary>  (30) 
energy

$$$$
30:0
     RDKit          3D

 42 44  0  0  0  0  0  0  0  0999 V2000
   58.6850   25.2440   45.6740 C   0  0  0  0  0  0  0  0  0  0  0  0
   59.0560   25.8670   46.8980 O   0  0  0  0  0  0  0  0  0  0  0  0
   59.5760   27.1650   47.0000 C   0  0  0  0  0  0  0  0  0  0  0  0
   59.7460   28.0020   45.8810 C   0  0  0  0  0  0  0  0  0  0  0  0
   60.2690   29.2890   46.0350 C   0  0  0  0  0  0  0  0  0  0  0  0
   60.6320   29.7660   47.3070 C   0  0  0  0  0  0  0  0  0  0  0  0
   61.1860   31.1340   47.4700 C   0  0  0  0  0  0  0  0  0  0  0  0
   62.5350   31.3980   47.1730 C   0  0  0  0  0  0  0  0  0  0  0  0
   63.0580   32.6830   47.3380 C   0  0  0  0  0  0  0  0  0  0  0  0
   62.2430   33.7180   47.7990 C   0  0  0  0  0  0  0  0  0  0  0  0
   60.8930   33.4790   48.0910 C   0  0  0  0  0  0  0  0  0  0  0  0
   60.0210   34.5850   48.6360 C   0  0  0  0  0  0  0  0  0  0  0  0
   59.3480   35.3330   47.5610 N   0  0  0  0  0  0  0  0  0  0  0  0
   58.8650   34.4490   46.5260 C   0  0  0  0  0  0  0  0  0  0  0  0
   57.8790   33.4890   46.8140 C   0  0  0  0  0  0  0  0  0  0  0  0
   57.4410   32.6070   45.8210 C   0  0  0  0  0  0  0  0  0  0  0  0
   57.9860   32.6700   44.5360 C   0  0  0  0  0  0  0  0  0  0  0  0
   57.3910   31.4600   43.1840 Br  0  0  0  0  0  0  0  0  0  0  0  0
   58.9710   33.6180   44.2410 C   0  0  0  0  0  0  0  0  0  0  0  0
   59.4100   34.5040   45.2300 C   0  0  0  0  0  0  0  0  0  0  0  0
   60.3710   32.1850   47.9300 C   0  0  0  0  0  0  0  0  0  0  0  0
   60.4590   28.9270   48.4210 C   0  0  0  0  0  0  0  0  0  0  0  0
   59.9370   27.6410   48.2660 C   0  0  0  0  0  0  0  0  0  0  0  0
   58.1328   24.3168   45.8871 H   0  0  0  0  0  0  0  0  0  0  0  0
   58.0460   25.9263   45.0942 H   0  0  0  0  0  0  0  0  0  0  0  0
   59.5893   25.0072   45.0942 H   0  0  0  0  0  0  0  0  0  0  0  0
   59.4658   27.6413   44.8803 H   0  0  0  0  0  0  0  0  0  0  0  0
   60.3978   29.9343   45.1535 H   0  0  0  0  0  0  0  0  0  0  0  0
   63.1828   30.5873   46.8083 H   0  0  0  0  0  0  0  0  0  0  0  0
   64.1147   32.8795   47.1040 H   0  0  0  0  0  0  0  0  0  0  0  0
   62.6621   34.7261   47.9338 H   0  0  0  0  0  0  0  0  0  0  0  0
   59.2579   34.1446   49.2945 H   0  0  0  0  0  0  0  0  0  0  0  0
   60.6643   35.2859   49.1883 H   0  0  0  0  0  0  0  0  0  0  0  0
   60.0010   36.0470   47.1610 H   0  0  0  0  0  0  0  0  0  0  0  0
   58.5370   35.8530   47.9710 H   0  0  0  0  0  0  0  0  0  0  0  0
   57.4500   33.4314   47.8253 H   0  0  0  0  0  0  0  0  0  0  0  0
   56.6655   31.8619   46.0522 H   0  0  0  0  0  0  0  0  0  0  0  0
   59.4010   33.6668   43.2297 H   0  0  0  0  0  0  0  0  0  0  0  0
   60.1853   35.2476   44.9935 H   0  0  0  0  0  0  0  0  0  0  0  0
   59.3142   31.9911   48.1659 H   0  0  0  0  0  0  0  0  0  0  0  0
   60.7369   29.2860   49.4229 H   0  0  0  0  0  0  0  0  0  0  0  0
   59.8082   26.9957   49.1475 H   0  0  0  0  0  0  0  0  0  0  0  0
  1  2  1  0
  2  3  1  0
  3  4  2  0
  4  5  1  0
  5  6  2  0
  6  7  1  0
  7  8  2  0
  8  9  1  0
  9 10  2  0
 10 11  1  0
 11 12  1  0
 12 13  1  0
 13 14  1  0
 14 15  2  0
 15 16  1  0
 16 17  2  0
 17 18  1  0
 17 19  1  0
 19 20  2  0
 11 21  2  0
  6 22  1  0
 22 23  2  0
 23  3  1  0
 21  7  1  0
 20 14  1  0
  1 24  1  0
  1 25  1  0
  1 26  1  0
  4 27  1  0
  5 28  1  0
  8 29  1  0
  9 30  1  0
 10 31  1  0
 12 32  1  0
 12 33  1  0
 13 34  1  0
 13 35  1  0
 15 36  1  0
 16 37  1  0
 19 38  1  0
 20 39  1  0
 21 40  1  0
 22 41  1  0
 23 42  1  0
M  CHG  1  13   1
M  END
>  <UniqueID>  (31) 
30

>  <SMILES>  (31) 
COc1ccc(-c2cccc(C[NH2+]c3ccc(Br)cc3)c2)cc1

>  <Energy>  (31) 
48.7147792895225

>  <Genealogy>  (31) 
COc1ccc(-c2cccc(C[NH2+]c3ccc(Br)cc3)c2)cc1 (protonated)
COc1ccc(-c2cccc(C[NH2+]c3ccc(Br)cc3)c2)cc1 (3D coordinates assigned)
COc1ccc(-c2cccc(C[NH2+]c3ccc(Br)cc3)c2)cc1 (optimized conformer: 48.7147792895225 kcal/mol)

>  <smiles>  (31) 
COc1ccc(-c2cccc(CNc3ccc(Br)cc3)c2)cc1

>  <score_type>  (31) 
oracle

>  <origin>  (31) 
adg

>  <m_score__min__energy>  (31) 
-6.8799999999999999

>  <m_primary>  (31) 
energy

$$$$
31:0
     RDKit          3D

 62 64  0  0  0  0  0  0  0  0999 V2000
   63.7640   32.4760   47.1080 C   0  0  0  0  0  0  0  0  0  0  0  0
   64.0460   33.5850   48.1200 C   0  0  0  0  0  0  0  0  0  0  0  0
   62.8410   33.8950   49.0250 C   0  0  0  0  0  0  0  0  0  0  0  0
   61.9200   32.6790   49.2170 C   0  0  0  0  0  0  0  0  0  0  0  0
   60.3790   32.9420   49.4490 C   0  0  1  0  0  0  0  0  0  0  0  0
   60.2250   33.1330   51.0120 C   0  0  0  0  0  0  0  0  0  0  0  0
   61.4790   33.4880   51.8250 C   0  0  0  0  0  0  0  0  0  0  0  0
   59.9560   34.3120   48.8160 C   0  0  0  0  0  0  0  0  0  0  0  0
   60.1900   34.5380   47.0480 S   0  0  0  0  0  0  0  0  0  0  0  0
   59.7360   35.9420   46.7590 O   0  0  0  0  0  0  0  0  0  0  0  0
   61.6240   34.4210   46.6230 O   0  0  0  0  0  0  0  0  0  0  0  0
   59.2430   33.4360   46.0480 C   0  0  0  0  0  0  0  0  0  0  0  0
   58.5740   34.0130   44.9560 C   0  0  0  0  0  0  0  0  0  0  0  0
   57.8300   33.2410   44.0700 C   0  0  0  0  0  0  0  0  0  0  0  0
   57.7320   31.8540   44.2410 C   0  0  0  0  0  0  0  0  0  0  0  0
   56.9420   31.0470   43.3310 N   0  0  0  0  0  0  0  0  0  0  0  0
   56.0550   29.9960   43.8440 C   0  0  0  0  0  0  0  0  0  0  0  0
   57.0210   31.2640   41.8810 C   0  0  0  0  0  0  0  0  0  0  0  0
   58.4140   31.2670   45.3210 C   0  0  0  0  0  0  0  0  0  0  0  0
   59.1890   32.0270   46.2280 C   0  0  0  0  0  0  0  0  0  0  0  0
   59.8020   31.2470   47.3980 C   0  0  2  0  0  0  0  0  0  0  0  0
   59.7270   29.7450   47.1700 C   0  0  0  0  0  0  0  0  0  0  0  0
   60.4900   29.1590   46.1430 C   0  0  0  0  0  0  0  0  0  0  0  0
   60.4310   27.7820   45.9100 C   0  0  0  0  0  0  0  0  0  0  0  0
   59.6000   26.9740   46.6890 C   0  0  0  0  0  0  0  0  0  0  0  0
   59.5440   25.6400   46.4610 F   0  0  0  0  0  0  0  0  0  0  0  0
   58.8210   27.5440   47.6990 C   0  0  0  0  0  0  0  0  0  0  0  0
   58.8780   28.9190   47.9390 C   0  0  0  0  0  0  0  0  0  0  0  0
   59.5200   31.7500   48.8570 C   0  0  2  0  0  0  0  0  0  0  0  0
   58.1480   32.0510   48.9660 O   0  0  0  0  0  0  0  0  0  0  0  0
   63.5270   31.5440   47.6420 H   0  0  0  0  0  0  0  0  0  0  0  0
   62.9105   32.7641   46.4767 H   0  0  0  0  0  0  0  0  0  0  0  0
   64.6514   32.3214   46.4767 H   0  0  0  0  0  0  0  0  0  0  0  0
   64.8896   33.2745   48.7540 H   0  0  0  0  0  0  0  0  0  0  0  0
   64.2735   34.4987   47.5513 H   0  0  0  0  0  0  0  0  0  0  0  0
   63.2125   34.2150   50.0097 H   0  0  0  0  0  0  0  0  0  0  0  0
   62.2523   34.6863   48.5379 H   0  0  0  0  0  0  0  0  0  0  0  0
   62.0128   32.0536   48.3169 H   0  0  0  0  0  0  0  0  0  0  0  0
   62.2639   32.2206   50.1560 H   0  0  0  0  0  0  0  0  0  0  0  0
   59.4932   33.9386   51.1720 H   0  0  0  0  0  0  0  0  0  0  0  0
   59.9320   32.1392   51.3813 H   0  0  0  0  0  0  0  0  0  0  0  0
   61.2502   33.4232   52.8990 H   0  0  0  0  0  0  0  0  0  0  0  0
   62.2871   32.7833   51.5791 H   0  0  0  0  0  0  0  0  0  0  0  0
   61.7978   34.5117   51.5791 H   0  0  0  0  0  0  0  0  0  0  0  0
   58.8847   34.4505   49.0237 H   0  0  0  0  0  0  0  0  0  0  0  0
   60.6330   35.0463   49.2770 H   0  0  0  0  0  0  0  0  0  0  0  0
   58.6400   35.0996   44.7980 H   0  0  0  0  0  0  0  0  0  0  0  0
   57.3138   33.7240   43.2272 H   0  0  0  0  0  0  0  0  0  0  0  0
   56.0672   30.0105   44.9438 H   0  0  0  0  0  0  0  0  0  0  0  0
   55.0302   30.1742   43.4863 H   0  0  0  0  0  0  0  0  0  0  0  0
   56.4029   29.0157   43.4863 H   0  0  0  0  0  0  0  0  0  0  0  0
   57.3911   32.2806   41.6820 H   0  0  0  0  0  0  0  0  0  0  0  0
   57.7095   30.5298   41.4373 H   0  0  0  0  0  0  0  0  0  0  0  0
   56.0216   31.1442   41.4373 H   0  0  0  0  0  0  0  0  0  0  0  0
   58.3425   30.1789   45.4658 H   0  0  0  0  0  0  0  0  0  0  0  0
   60.8683   31.5156   47.3685 H   0  0  0  0  0  0  0  0  0  0  0  0
   61.1387   29.7902   45.5179 H   0  0  0  0  0  0  0  0  0  0  0  0
   61.0404   27.3339   45.1114 H   0  0  0  0  0  0  0  0  0  0  0  0
   58.1608   26.9081   48.3071 H   0  0  0  0  0  0  0  0  0  0  0  0
   58.2574   29.3613   48.7323 H   0  0  0  0  0  0  0  0  0  0  0  0
   59.8489   30.9070   49.4824 H   0  0  0  0  0  0  0  0  0  0  0  0
   57.9360   32.7810   48.3270 H   0  0  0  0  0  0  0  0  0  0  0  0
  1  2  1  0
  2  3  1  0
  3  4  1  0
  5  4  1  1
  5  6  1  0
  6  7  1  0
  5  8  1  0
  8  9  1  0
  9 10  2  0
  9 11  2  0
  9 12  1  0
 12 13  2  0
 13 14  1  0
 14 15  2  0
 15 16  1  0
 16 17  1  0
 16 18  1  0
 15 19  1  0
 19 20  2  0
 20 21  1  0
 21 22  1  0
 22 23  2  0
 23 24  1  0
 24 25  2  0
 25 26  1  0
 25 27  1  0
 27 28  2  0
 21 29  1  0
 29 30  1  0
 29  5  1  0
 20 12  1  0
 28 22  1  0
  1 31  1  0
  1 32  1  0
  1 33  1  0
  2 34  1  0
  2 35  1  0
  3 36  1  0
  3 37  1  0
  4 38  1  0
  4 39  1  0
  6 40  1  0
  6 41  1  0
  7 42  1  0
  7 43  1  0
  7 44  1  0
  8 45  1  0
  8 46  1  0
 13 47  1  0
 14 48  1  0
 17 49  1  0
 17 50  1  0
 17 51  1  0
 18 52  1  0
 18 53  1  0
 18 54  1  0
 19 55  1  0
 21 56  1  6
 23 57  1  0
 24 58  1  0
 27 59  1  0
 28 60  1  0
 29 61  1  1
 30 62  1  0
M  END
>  <UniqueID>  (32) 
31

>  <SMILES>  (32) 
CCCC[C@@]1(CC)CS(=O)(=O)c2ccc(N(C)C)cc2[C@H](c2ccc(F)cc2)C1O

>  <Energy>  (32) 
93.50741221583516

>  <Genealogy>  (32) 
CCCC[C@@]1(CC)CS(=O)(=O)c2ccc(N(C)C)cc2[C@H](c2ccc(F)cc2)C1O (chirality)
CCCC[C@@]1(CC)CS(=O)(=O)c2ccc(N(C)C)cc2[C@H](c2ccc(F)cc2)C1O (3D coordinates assigned)
CCCC[C@@]1(CC)CS(=O)(=O)c2ccc(N(C)C)cc2[C@H](c2ccc(F)cc2)C1O (nonaromatic ring conformer: 93.50741221583516 kcal/mol)

>  <smiles>  (32) 
CCCCC1(CC)CS(=O)(=O)c2ccc(N(C)C)cc2C(c2ccc(F)cc2)C1O

>  <score_type>  (32) 
oracle

>  <origin>  (32) 
adg

>  <m_score__min__energy>  (32) 
-6.5300000000000002

>  <m_primary>  (32) 
energy

$$$$
32:0
     RDKit          3D

 47 50  0  0  0  0  0  0  0  0999 V2000
   58.1340   26.9360   42.6180 C   0  0  0  0  0  0  0  0  0  0  0  0
   57.7810   27.3110   43.9460 O   0  0  0  0  0  0  0  0  0  0  0  0
   58.4770   28.2550   44.7150 C   0  0  0  0  0  0  0  0  0  0  0  0
   59.8550   28.3900   44.5170 C   0  0  0  0  0  0  0  0  0  0  0  0
   60.5920   29.3150   45.2600 C   0  0  0  0  0  0  0  0  0  0  0  0
   59.9630   30.1170   46.2250 C   0  0  0  0  0  0  0  0  0  0  0  0
   60.7260   31.1060   47.0180 C   0  0  0  0  0  0  0  0  0  0  0  0
   62.0740   31.0640   47.1460 N   0  0  0  0  0  0  0  0  0  0  0  0
   62.3620   32.1490   47.8910 C   0  0  0  0  0  0  0  0  0  0  0  0
   63.6450   32.5600   48.2520 C   0  0  0  0  0  0  0  0  0  0  0  0
   63.7710   33.7630   48.9620 C   0  0  0  0  0  0  0  0  0  0  0  0
   62.6310   34.5270   49.2680 C   0  0  0  0  0  0  0  0  0  0  0  0
   61.3650   34.0690   48.8760 C   0  0  0  0  0  0  0  0  0  0  0  0
   61.2800   32.8750   48.2280 N   0  0  0  0  0  0  0  0  0  0  0  0
   60.2300   32.2140   47.7010 C   0  0  0  0  0  0  0  0  0  0  0  0
   58.8750   32.6880   47.6700 N   0  0  0  0  0  0  0  0  0  0  0  0
   58.4820   33.9530   47.0340 C   0  0  0  0  0  0  0  0  0  0  0  0
   59.5920   34.4350   46.0630 C   0  0  0  0  0  0  0  0  0  0  0  0
   59.2610   34.2230   44.5750 C   0  0  0  0  0  0  0  0  0  0  0  0
   58.5230   32.9010   44.3500 C   0  0  0  0  0  0  0  0  0  0  0  0
   57.1850   32.8440   45.1140 C   0  0  0  0  0  0  0  0  0  0  0  0
   57.1240   33.7990   46.3250 C   0  0  0  0  0  0  0  0  0  0  0  0
   58.5760   29.9970   46.4110 C   0  0  0  0  0  0  0  0  0  0  0  0
   57.8380   29.0710   45.6680 C   0  0  0  0  0  0  0  0  0  0  0  0
   58.8876   26.1354   42.6511 H   0  0  0  0  0  0  0  0  0  0  0  0
   57.2395   26.5759   42.0886 H   0  0  0  0  0  0  0  0  0  0  0  0
   58.5475   27.8071   42.0886 H   0  0  0  0  0  0  0  0  0  0  0  0
   60.3626   27.7623   43.7698 H   0  0  0  0  0  0  0  0  0  0  0  0
   61.6737   29.4157   45.0875 H   0  0  0  0  0  0  0  0  0  0  0  0
   64.5288   31.9605   47.9886 H   0  0  0  0  0  0  0  0  0  0  0  0
   64.7651   34.1100   49.2805 H   0  0  0  0  0  0  0  0  0  0  0  0
   62.7316   35.4780   49.8115 H   0  0  0  0  0  0  0  0  0  0  0  0
   60.4620   34.6606   49.0871 H   0  0  0  0  0  0  0  0  0  0  0  0
   58.1660   32.1680   48.2320 H   0  0  0  0  0  0  0  0  0  0  0  0
   58.3624   34.7243   47.8091 H   0  0  0  0  0  0  0  0  0  0  0  0
   59.7549   35.5098   46.2309 H   0  0  0  0  0  0  0  0  0  0  0  0
   60.4858   33.8310   46.2782 H   0  0  0  0  0  0  0  0  0  0  0  0
   58.6255   35.0512   44.2282 H   0  0  0  0  0  0  0  0  0  0  0  0
   60.2050   34.1929   44.0112 H   0  0  0  0  0  0  0  0  0  0  0  0
   58.3222   32.7859   43.2746 H   0  0  0  0  0  0  0  0  0  0  0  0
   59.1621   32.0889   44.7269 H   0  0  0  0  0  0  0  0  0  0  0  0
   56.3758   33.1119   44.4187 H   0  0  0  0  0  0  0  0  0  0  0  0
   57.0796   31.8210   45.5042 H   0  0  0  0  0  0  0  0  0  0  0  0
   56.7961   34.7891   45.9754 H   0  0  0  0  0  0  0  0  0  0  0  0
   56.4190   33.3678   47.0510 H   0  0  0  0  0  0  0  0  0  0  0  0
   58.0666   30.6365   47.1469 H   0  0  0  0  0  0  0  0  0  0  0  0
   56.7536   28.9795   45.8285 H   0  0  0  0  0  0  0  0  0  0  0  0
  1  2  1  0
  2  3  1  0
  3  4  2  0
  4  5  1  0
  5  6  2  0
  6  7  1  0
  7  8  1  0
  8  9  2  0
  9 10  1  0
 10 11  2  0
 11 12  1  0
 12 13  2  0
 13 14  1  0
 14 15  1  0
 15 16  1  0
 16 17  1  0
 17 18  1  0
 18 19  1  0
 19 20  1  0
 20 21  1  0
 21 22  1  0
  6 23  1  0
 23 24  2  0
 24  3  1  0
 15  7  2  0
 22 17  1  0
 14  9  1  0
  1 25  1  0
  1 26  1  0
  1 27  1  0
  4 28  1  0
  5 29  1  0
 10 30  1  0
 11 31  1  0
 12 32  1  0
 13 33  1  0
 16 34  1  0
 17 35  1  0
 18 36  1  0
 18 37  1  0
 19 38  1  0
 19 39  1  0
 20 40  1  0
 20 41  1  0
 21 42  1  0
 21 43  1  0
 22 44  1  0
 22 45  1  0
 23 46  1  0
 24 47  1  0
M  END
>  <UniqueID>  (33) 
32

>  <SMILES>  (33) 
COc1ccc(-c2nc3ccccn3c2NC2CCCCC2)cc1

>  <Energy>  (33) 
93.80087317721566

>  <Genealogy>  (33) 
COc1ccc(-c2nc3ccccn3c2NC2CCCCC2)cc1 (3D coordinates assigned)
COc1ccc(-c2nc3ccccn3c2NC2CCCCC2)cc1 (nonaromatic ring conformer: 93.80087317721566 kcal/mol)

>  <smiles>  (33) 
COc1ccc(-c2nc3ccccn3c2NC2CCCCC2)cc1

>  <score_type>  (33) 
oracle

>  <origin>  (33) 
adg

>  <m_score__min__energy>  (33) 
-7.5700000000000003

>  <m_primary>  (33) 
energy

$$$$
33:0
     RDKit          3D

 36 38  0  0  0  0  0  0  0  0999 V2000
   60.2660   28.1550   45.6420 C   0  0  0  0  0  0  0  0  0  0  0  0
   59.0240   28.8370   46.1280 C   0  0  0  0  0  0  0  0  0  0  0  0
   58.4280   28.3760   47.1370 O   0  0  0  0  0  0  0  0  0  0  0  0
   58.5390   30.0390   45.5000 N   0  0  0  0  0  0  0  0  0  0  0  0
   57.3580   29.8960   44.6320 C   0  0  0  0  0  0  0  0  0  0  0  0
   57.0210   31.1920   43.8900 C   0  0  0  0  0  0  0  0  0  0  0  0
   56.9630   32.3640   44.8670 C   0  0  0  0  0  0  0  0  0  0  0  0
   58.2760   32.4980   45.5860 C   0  0  0  0  0  0  0  0  0  0  0  0
   58.7280   33.7610   45.9880 C   0  0  0  0  0  0  0  0  0  0  0  0
   59.9580   33.9010   46.6330 C   0  0  0  0  0  0  0  0  0  0  0  0
   60.3720   35.1450   46.9820 F   0  0  0  0  0  0  0  0  0  0  0  0
   60.7650   32.7740   46.8810 C   0  0  0  0  0  0  0  0  0  0  0  0
   62.0460   32.9180   47.5280 N   0  0  0  0  0  0  0  0  0  0  0  0
   62.2880   33.1060   48.8440 C   0  0  0  0  0  0  0  0  0  0  0  0
   63.6560   33.1870   48.9830 C   0  0  0  0  0  0  0  0  0  0  0  0
   64.4180   33.4650   50.2360 C   0  0  0  0  0  0  0  0  0  0  0  0
   64.1980   33.0670   47.7590 N   0  0  0  0  0  0  0  0  0  0  0  0
   63.2110   32.9000   46.8940 N   0  0  0  0  0  0  0  0  0  0  0  0
   60.2950   31.5050   46.4940 C   0  0  0  0  0  0  0  0  0  0  0  0
   59.0350   31.3490   45.8820 C   0  0  0  0  0  0  0  0  0  0  0  0
   60.8649   27.8261   46.5040 H   0  0  0  0  0  0  0  0  0  0  0  0
   59.9902   27.2818   45.0325 H   0  0  0  0  0  0  0  0  0  0  0  0
   60.8548   28.8563   45.0325 H   0  0  0  0  0  0  0  0  0  0  0  0
   57.5564   29.1064   43.8923 H   0  0  0  0  0  0  0  0  0  0  0  0
   56.4997   29.6417   45.2713 H   0  0  0  0  0  0  0  0  0  0  0  0
   57.7950   31.3885   43.1335 H   0  0  0  0  0  0  0  0  0  0  0  0
   56.0394   31.0816   43.4060 H   0  0  0  0  0  0  0  0  0  0  0  0
   56.7549   33.2909   44.3124 H   0  0  0  0  0  0  0  0  0  0  0  0
   56.1651   32.1826   45.6022 H   0  0  0  0  0  0  0  0  0  0  0  0
   58.1091   34.6495   45.7940 H   0  0  0  0  0  0  0  0  0  0  0  0
   61.5395   33.1799   49.6467 H   0  0  0  0  0  0  0  0  0  0  0  0
   63.7873   33.2349   51.1074 H   0  0  0  0  0  0  0  0  0  0  0  0
   65.3219   32.8387   50.2620 H   0  0  0  0  0  0  0  0  0  0  0  0
   64.7063   34.5262   50.2620 H   0  0  0  0  0  0  0  0  0  0  0  0
   65.2120   33.1060   47.5080 H   0  0  0  0  0  0  0  0  0  0  0  0
   60.9223   30.6192   46.6724 H   0  0  0  0  0  0  0  0  0  0  0  0
  1  2  1  0
  2  3  2  0
  2  4  1  0
  4  5  1  0
  5  6  1  0
  6  7  1  0
  7  8  1  0
  8  9  2  0
  9 10  1  0
 10 11  1  0
 10 12  2  0
 12 13  1  0
 13 14  1  0
 14 15  2  0
 15 16  1  0
 15 17  1  0
 17 18  2  0
 12 19  1  0
 19 20  2  0
 20  4  1  0
 20  8  1  0
 18 13  1  0
  1 21  1  0
  1 22  1  0
  1 23  1  0
  5 24  1  0
  5 25  1  0
  6 26  1  0
  6 27  1  0
  7 28  1  0
  7 29  1  0
  9 30  1  0
 14 31  1  0
 16 32  1  0
 16 33  1  0
 16 34  1  0
 17 35  1  0
 19 36  1  0
M  CHG  1  17   1
M  END
>  <UniqueID>  (34) 
33

>  <SMILES>  (34) 
CC(=O)N1CCCc2cc(F)c(-n3cc(C)[nH+]n3)cc21

>  <Energy>  (34) 
80.64991319965337

>  <Genealogy>  (34) 
CC(=O)N1CCCc2cc(F)c(-n3cc(C)[nH+]n3)cc21 (protonated)
CC(=O)N1CCCc2cc(F)c(-n3cc(C)[nH+]n3)cc21 (3D coordinates assigned)
CC(=O)N1CCCc2cc(F)c(-n3cc(C)[nH+]n3)cc21 (nonaromatic ring conformer: 80.64991319965337 kcal/mol)

>  <smiles>  (34) 
CC(=O)N1CCCc2cc(F)c(-n3cc(C)nn3)cc21

>  <score_type>  (34) 
oracle

>  <origin>  (34) 
adg

>  <m_score__min__energy>  (34) 
-5.9100000000000001

>  <m_primary>  (34) 
energy

$$$$
34:0
     RDKit          3D

 29 31  0  0  0  0  0  0  0  0999 V2000
   57.2370   30.4750   44.3470 C   0  0  0  0  0  0  0  0  0  0  0  0
   57.5150   31.0350   45.6260 O   0  0  0  0  0  0  0  0  0  0  0  0
   58.2810   32.1910   45.8350 C   0  0  0  0  0  0  0  0  0  0  0  0
   57.7880   33.4820   45.5680 C   0  0  0  0  0  0  0  0  0  0  0  0
   58.5900   34.6020   45.7920 C   0  0  0  0  0  0  0  0  0  0  0  0
   59.8890   34.4490   46.2850 C   0  0  0  0  0  0  0  0  0  0  0  0
   60.3960   33.1680   46.5570 C   0  0  0  0  0  0  0  0  0  0  0  0
   61.7670   32.9980   47.0770 C   0  0  0  0  0  0  0  0  0  0  0  0
   62.8890   33.2660   46.3750 N   0  0  0  0  0  0  0  0  0  0  0  0
   63.8920   32.9860   47.1880 N   0  0  0  0  0  0  0  0  0  0  0  0
   63.3630   32.5600   48.3490 C   0  0  0  0  0  0  0  0  0  0  0  0
   64.1330   32.1440   49.5280 C   0  0  0  0  0  0  0  0  0  0  0  0
   63.7330   31.2360   50.5020 C   0  0  0  0  0  0  0  0  0  0  0  0
   64.6900   31.0460   51.5040 C   0  0  0  0  0  0  0  0  0  0  0  0
   65.8420   31.8020   51.3270 C   0  0  0  0  0  0  0  0  0  0  0  0
   65.6690   32.7050   49.9190 S   0  0  0  0  0  0  0  0  0  0  0  0
   62.0540   32.5650   48.2860 O   0  0  0  0  0  0  0  0  0  0  0  0
   59.5840   32.0450   46.3280 C   0  0  0  0  0  0  0  0  0  0  0  0
   56.7511   29.4962   44.4730 H   0  0  0  0  0  0  0  0  0  0  0  0
   56.5681   31.1474   43.7899 H   0  0  0  0  0  0  0  0  0  0  0  0
   58.1770   30.3487   43.7899 H   0  0  0  0  0  0  0  0  0  0  0  0
   56.7661   33.6088   45.1811 H   0  0  0  0  0  0  0  0  0  0  0  0
   58.1988   35.6080   45.5800 H   0  0  0  0  0  0  0  0  0  0  0  0
   60.5164   35.3353   46.4606 H   0  0  0  0  0  0  0  0  0  0  0  0
   64.9020   33.0870   46.9430 H   0  0  0  0  0  0  0  0  0  0  0  0
   62.7620   30.7193   50.4861 H   0  0  0  0  0  0  0  0  0  0  0  0
   64.5442   30.3619   52.3529 H   0  0  0  0  0  0  0  0  0  0  0  0
   66.7171   31.8088   51.9935 H   0  0  0  0  0  0  0  0  0  0  0  0
   59.9760   31.0389   46.5383 H   0  0  0  0  0  0  0  0  0  0  0  0
  1  2  1  0
  2  3  1  0
  3  4  2  0
  4  5  1  0
  5  6  2  0
  6  7  1  0
  7  8  1  0
  8  9  2  0
  9 10  1  0
 10 11  2  0
 11 12  1  0
 12 13  2  0
 13 14  1  0
 14 15  2  0
 15 16  1  0
 11 17  1  0
  7 18  2  0
 18  3  1  0
 17  8  1  0
 16 12  1  0
  1 19  1  0
  1 20  1  0
  1 21  1  0
  4 22  1  0
  5 23  1  0
  6 24  1  0
 10 25  1  0
 13 26  1  0
 14 27  1  0
 15 28  1  0
 18 29  1  0
M  CHG  1  10   1
M  END
>  <UniqueID>  (35) 
34

>  <SMILES>  (35) 
COc1cccc(-c2n[nH+]c(-c3cccs3)o2)c1

>  <Energy>  (35) 
91.52749050917966

>  <Genealogy>  (35) 
COc1cccc(-c2n[nH+]c(-c3cccs3)o2)c1 (protonated)
COc1cccc(-c2n[nH+]c(-c3cccs3)o2)c1 (3D coordinates assigned)
COc1cccc(-c2n[nH+]c(-c3cccs3)o2)c1 (optimized conformer: 91.52749050917966 kcal/mol)

>  <smiles>  (35) 
COc1cccc(-c2nnc(-c3cccs3)o2)c1

>  <score_type>  (35) 
oracle

>  <origin>  (35) 
adg

>  <m_score__min__energy>  (35) 
-5.4400000000000004

>  <m_primary>  (35) 
energy

$$$$
35:0
     RDKit          3D

 38 40  0  0  0  0  0  0  0  0999 V2000
   57.0140   21.0930   43.2460 C   0  0  0  0  0  0  0  0  0  0  0  0
   56.1020   21.9690   43.9000 O   0  0  0  0  0  0  0  0  0  0  0  0
   56.3960   23.2920   44.2620 C   0  0  0  0  0  0  0  0  0  0  0  0
   55.9300   23.8690   45.4580 C   0  0  0  0  0  0  0  0  0  0  0  0
   56.2500   25.1920   45.7750 C   0  0  0  0  0  0  0  0  0  0  0  0
   57.0400   25.9640   44.9060 C   0  0  0  0  0  0  0  0  0  0  0  0
   57.3800   27.3690   45.2480 C   0  0  0  0  0  0  0  0  0  0  0  0
   58.1950   27.6600   46.3490 C   0  0  0  0  0  0  0  0  0  0  0  0
   58.5060   28.9850   46.6430 C   0  0  0  0  0  0  0  0  0  0  0  0
   57.9930   30.0090   45.8330 C   0  0  0  0  0  0  0  0  0  0  0  0
   58.2830   31.4010   46.0930 N   0  0  0  0  0  0  0  0  0  0  0  0
   59.1720   31.7970   47.1930 C   0  0  0  0  0  0  0  0  0  0  0  0
   58.8430   33.2180   47.6600 C   0  0  0  0  0  0  0  0  0  0  0  0
   58.8080   34.1130   46.5670 O   0  0  0  0  0  0  0  0  0  0  0  0
   57.7340   33.7720   45.7130 C   0  0  0  0  0  0  0  0  0  0  0  0
   57.9670   32.4030   45.0660 C   0  0  0  0  0  0  0  0  0  0  0  0
   57.2100   29.6690   44.7750 N   0  0  0  0  0  0  0  0  0  0  0  0
   56.9120   28.4000   44.4870 N   0  0  0  0  0  0  0  0  0  0  0  0
   57.5030   25.3830   43.7120 C   0  0  0  0  0  0  0  0  0  0  0  0
   57.1830   24.0600   43.3970 C   0  0  0  0  0  0  0  0  0  0  0  0
   57.5925   20.5374   43.9987 H   0  0  0  0  0  0  0  0  0  0  0  0
   56.4549   20.3847   42.6170 H   0  0  0  0  0  0  0  0  0  0  0  0
   57.6993   21.6801   42.6170 H   0  0  0  0  0  0  0  0  0  0  0  0
   55.3107   23.2757   46.1468 H   0  0  0  0  0  0  0  0  0  0  0  0
   55.8804   25.6328   46.7126 H   0  0  0  0  0  0  0  0  0  0  0  0
   58.5870   26.8469   46.9776 H   0  0  0  0  0  0  0  0  0  0  0  0
   59.1482   29.2266   47.5027 H   0  0  0  0  0  0  0  0  0  0  0  0
   59.0412   31.0998   48.0337 H   0  0  0  0  0  0  0  0  0  0  0  0
   60.2128   31.7700   46.8381 H   0  0  0  0  0  0  0  0  0  0  0  0
   57.8608   33.2159   48.1553 H   0  0  0  0  0  0  0  0  0  0  0  0
   59.6254   33.5479   48.3593 H   0  0  0  0  0  0  0  0  0  0  0  0
   56.8035   33.7404   46.2988 H   0  0  0  0  0  0  0  0  0  0  0  0
   57.6609   34.5295   44.9187 H   0  0  0  0  0  0  0  0  0  0  0  0
   57.0580   32.0966   44.5276 H   0  0  0  0  0  0  0  0  0  0  0  0
   58.8124   32.4771   44.3662 H   0  0  0  0  0  0  0  0  0  0  0  0
   56.2870   28.2130   43.6720 H   0  0  0  0  0  0  0  0  0  0  0  0
   58.1216   25.9745   43.0210 H   0  0  0  0  0  0  0  0  0  0  0  0
   57.5533   23.6181   42.4602 H   0  0  0  0  0  0  0  0  0  0  0  0
  1  2  1  0
  2  3  1  0
  3  4  2  0
  4  5  1  0
  5  6  2  0
  6  7  1  0
  7  8  2  0
  8  9  1  0
  9 10  2  0
 10 11  1  0
 11 12  1  0
 12 13  1  0
 13 14  1  0
 14 15  1  0
 15 16  1  0
 10 17  1  0
 17 18  2  0
  6 19  1  0
 19 20  2  0
 20  3  1  0
 18  7  1  0
 16 11  1  0
  1 21  1  0
  1 22  1  0
  1 23  1  0
  4 24  1  0
  5 25  1  0
  8 26  1  0
  9 27  1  0
 12 28  1  0
 12 29  1  0
 13 30  1  0
 13 31  1  0
 15 32  1  0
 15 33  1  0
 16 34  1  0
 16 35  1  0
 18 36  1  0
 19 37  1  0
 20 38  1  0
M  CHG  1  18   1
M  END
>  <UniqueID>  (36) 
35

>  <SMILES>  (36) 
COc1ccc(-c2ccc(N3CCOCC3)n[nH+]2)cc1

>  <Energy>  (36) 
48.14045097838886

>  <Genealogy>  (36) 
COc1ccc(-c2ccc(N3CCOCC3)n[nH+]2)cc1 (protonated)
COc1ccc(-c2ccc(N3CCOCC3)n[nH+]2)cc1 (3D coordinates assigned)
COc1ccc(-c2ccc(N3CCOCC3)n[nH+]2)cc1 (nonaromatic ring conformer: 48.14045097838886 kcal/mol)

>  <smiles>  (36) 
COc1ccc(-c2ccc(N3CCOCC3)nn2)cc1

>  <score_type>  (36) 
oracle

>  <origin>  (36) 
adg

>  <m_score__min__energy>  (36) 
-5.1399999999999997

>  <m_primary>  (36) 
energy

$$$$
36:0
     RDKit          3D

 45 47  0  0  0  0  0  0  0  0999 V2000
   57.8750   28.9450   46.0080 C   0  0  0  0  0  0  0  0  0  0  0  0
   57.1240   30.0960   45.6380 O   0  0  0  0  0  0  0  0  0  0  0  0
   57.3480   30.9040   44.5100 C   0  0  0  0  0  0  0  0  0  0  0  0
   56.7970   30.4600   43.3010 C   0  0  0  0  0  0  0  0  0  0  0  0
   56.9920   31.1720   42.1150 C   0  0  0  0  0  0  0  0  0  0  0  0
   57.7540   32.3390   42.1190 C   0  0  0  0  0  0  0  0  0  0  0  0
   58.3040   32.8080   43.3150 C   0  0  0  0  0  0  0  0  0  0  0  0
   58.0980   32.1150   44.5200 C   0  0  0  0  0  0  0  0  0  0  0  0
   58.6180   32.7290   45.7560 C   0  0  0  0  0  0  0  0  0  0  0  0
   58.1740   32.2820   47.0090 C   0  0  0  0  0  0  0  0  0  0  0  0
   58.6550   32.8780   48.1810 C   0  0  0  0  0  0  0  0  0  0  0  0
   59.5900   33.9300   48.1120 C   0  0  0  0  0  0  0  0  0  0  0  0
   60.1380   34.5330   49.2550 O   0  0  0  0  0  0  0  0  0  0  0  0
   60.8910   33.8640   50.2670 C   0  0  0  0  0  0  0  0  0  0  0  0
   62.3940   34.2040   50.1250 C   0  0  0  0  0  0  0  0  0  0  0  0
   63.1380   33.4060   49.1260 N   0  0  0  0  0  0  0  0  0  0  0  0
   62.5140   32.1300   48.7730 C   0  0  0  0  0  0  0  0  0  0  0  0
   63.0620   31.7540   47.4110 C   0  0  0  0  0  0  0  0  0  0  0  0
   63.3910   33.0780   46.7480 C   0  0  0  0  0  0  0  0  0  0  0  0
   63.4910   34.0970   47.8780 C   0  0  0  0  0  0  0  0  0  0  0  0
   60.0000   34.3950   46.8560 C   0  0  0  0  0  0  0  0  0  0  0  0
   59.5160   33.8030   45.6860 C   0  0  0  0  0  0  0  0  0  0  0  0
   57.9211   28.8743   47.1048 H   0  0  0  0  0  0  0  0  0  0  0  0
   57.3899   28.0448   45.6026 H   0  0  0  0  0  0  0  0  0  0  0  0
   58.8943   29.0264   45.6026 H   0  0  0  0  0  0  0  0  0  0  0  0
   56.2010   29.5356   43.2853 H   0  0  0  0  0  0  0  0  0  0  0  0
   56.5439   30.8114   41.1774 H   0  0  0  0  0  0  0  0  0  0  0  0
   57.9222   32.8901   41.1820 H   0  0  0  0  0  0  0  0  0  0  0  0
   58.9046   33.7295   43.3132 H   0  0  0  0  0  0  0  0  0  0  0  0
   57.4453   31.4603   47.0712 H   0  0  0  0  0  0  0  0  0  0  0  0
   58.3013   32.5234   49.1604 H   0  0  0  0  0  0  0  0  0  0  0  0
   60.5370   34.1871   51.2571 H   0  0  0  0  0  0  0  0  0  0  0  0
   60.7560   32.7779   50.1569 H   0  0  0  0  0  0  0  0  0  0  0  0
   62.4760   35.2635   49.8409 H   0  0  0  0  0  0  0  0  0  0  0  0
   62.8492   33.9681   51.0982 H   0  0  0  0  0  0  0  0  0  0  0  0
   62.7741   31.3602   49.5145 H   0  0  0  0  0  0  0  0  0  0  0  0
   61.4172   32.2114   48.7553 H   0  0  0  0  0  0  0  0  0  0  0  0
   63.9666   31.1366   47.5140 H   0  0  0  0  0  0  0  0  0  0  0  0
   62.3450   31.1618   46.8235 H   0  0  0  0  0  0  0  0  0  0  0  0
   64.3475   33.0090   46.2091 H   0  0  0  0  0  0  0  0  0  0  0  0
   62.6240   33.3635   46.0130 H   0  0  0  0  0  0  0  0  0  0  0  0
   64.5172   34.4878   47.9420 H   0  0  0  0  0  0  0  0  0  0  0  0
   62.8127   34.9441   47.6980 H   0  0  0  0  0  0  0  0  0  0  0  0
   60.7091   35.2334   46.7898 H   0  0  0  0  0  0  0  0  0  0  0  0
   59.8413   34.1817   44.7058 H   0  0  0  0  0  0  0  0  0  0  0  0
  1  2  1  0
  2  3  1  0
  3  4  2  0
  4  5  1  0
  5  6  2  0
  6  7  1  0
  7  8  2  0
  8  9  1  0
  9 10  2  0
 10 11  1  0
 11 12  2  0
 12 13  1  0
 13 14  1  0
 14 15  1  0
 15 16  1  0
 16 17  1  0
 17 18  1  0
 18 19  1  0
 19 20  1  0
 12 21  1  0
 21 22  2  0
  8  3  1  0
 22  9  1  0
 20 16  1  0
  1 23  1  0
  1 24  1  0
  1 25  1  0
  4 26  1  0
  5 27  1  0
  6 28  1  0
  7 29  1  0
 10 30  1  0
 11 31  1  0
 14 32  1  0
 14 33  1  0
 15 34  1  0
 15 35  1  0
 17 36  1  0
 17 37  1  0
 18 38  1  0
 18 39  1  0
 19 40  1  0
 19 41  1  0
 20 42  1  0
 20 43  1  0
 21 44  1  0
 22 45  1  0
M  END
>  <UniqueID>  (37) 
36

>  <SMILES>  (37) 
COc1ccccc1-c1ccc(OCCN2CCCC2)cc1

>  <Energy>  (37) 
65.38233528780732

>  <Genealogy>  (37) 
COc1ccccc1-c1ccc(OCCN2CCCC2)cc1 (3D coordinates assigned)
COc1ccccc1-c1ccc(OCCN2CCCC2)cc1 (nonaromatic ring conformer: 65.38233528780732 kcal/mol)

>  <smiles>  (37) 
COc1ccccc1-c1ccc(OCCN2CCCC2)cc1

>  <score_type>  (37) 
oracle

>  <origin>  (37) 
adg

>  <m_score__min__energy>  (37) 
-7.21

>  <m_primary>  (37) 
energy

$$$$
37:0
     RDKit          3D

 49 52  0  0  1  0  0  0  0  0999 V2000
   59.6290   35.0500   45.8590 C   0  0  0  0  0  0  0  0  0  0  0  0
   58.5300   34.5780   44.9630 C   0  0  0  0  0  0  0  0  0  0  0  0
   58.2170   33.1720   45.1650 N   0  0  0  0  0  0  0  0  0  0  0  0
   57.8620   32.3600   44.0050 C   0  0  0  0  0  0  0  0  0  0  0  0
   58.2450   32.5590   46.4550 C   0  0  0  0  0  0  0  0  0  0  0  0
   57.6940   33.0850   47.4560 O   0  0  0  0  0  0  0  0  0  0  0  0
   58.9480   31.2730   46.5690 C   0  0  0  0  0  0  0  0  0  0  0  0
   58.1500   30.1440   46.5220 C   0  0  0  0  0  0  0  0  0  0  0  0
   58.7460   28.9040   46.6240 C   0  0  0  0  0  0  0  0  0  0  0  0
   60.1320   28.8090   46.7720 C   0  0  0  0  0  0  0  0  0  0  0  0
   60.9000   29.9750   46.8140 C   0  0  0  0  0  0  0  0  0  0  0  0
   60.3270   31.2050   46.7150 C   0  0  0  0  0  0  0  0  0  0  0  0
   61.0340   32.4360   46.7490 N   0  0  0  0  0  0  0  0  0  0  0  0
   61.2320   32.9800   47.9030 C   0  0  0  0  0  0  0  0  0  0  0  0
   60.2910   33.0490   48.8620 N   0  0  0  0  0  0  0  0  0  0  0  0
   60.6010   33.6350   50.0230 C   0  0  0  0  0  0  0  0  0  0  0  0
   59.6610   33.6810   50.9250 N   0  0  0  0  0  0  0  0  0  0  0  0
   58.9220   32.5260   51.2850 C   0  0  0  0  0  0  0  0  0  0  0  0
   59.4440   31.2550   51.3250 C   0  0  0  0  0  0  0  0  0  0  0  0
   58.7750   30.1250   51.6620 C   0  0  0  0  0  0  0  0  0  0  0  0
   57.4200   30.2280   52.0070 C   0  0  0  0  0  0  0  0  0  0  0  0
   56.5810   29.2720   52.3640 N   0  0  0  0  0  0  0  0  0  0  0  0
   55.4980   29.3190   52.6450 C   0  0  0  0  0  0  0  0  0  0  0  0
   55.1800   31.2070   52.4620 S   0  0  0  0  0  0  0  0  0  0  0  0
   56.8770   31.4630   51.9760 C   0  0  0  0  0  0  0  0  0  0  0  0
   57.5690   32.6320   51.6280 C   0  0  0  0  0  0  0  0  0  0  0  0
   61.8000   34.1680   50.3080 N   0  0  0  0  0  0  0  0  0  0  0  0
   62.7770   34.1240   49.3800 C   0  0  0  0  0  0  0  0  0  0  0  0
   62.4690   33.5220   48.1770 C   0  0  0  0  0  0  0  0  0  0  0  0
   63.7250   33.4530   46.9540 Cl  0  0  0  0  0  0  0  0  0  0  0  0
   59.3273   34.9204   46.9089 H   0  0  0  0  0  0  0  0  0  0  0  0
   60.5387   34.4632   45.6638 H   0  0  0  0  0  0  0  0  0  0  0  0
   59.8299   36.1137   45.6638 H   0  0  0  0  0  0  0  0  0  0  0  0
   57.6279   35.1737   45.1661 H   0  0  0  0  0  0  0  0  0  0  0  0
   58.8678   34.7010   43.9234 H   0  0  0  0  0  0  0  0  0  0  0  0
   57.4427   31.4009   44.3432 H   0  0  0  0  0  0  0  0  0  0  0  0
   57.1150   32.8934   43.3988 H   0  0  0  0  0  0  0  0  0  0  0  0
   58.7608   32.1738   43.3988 H   0  0  0  0  0  0  0  0  0  0  0  0
   57.0599   30.2334   46.4054 H   0  0  0  0  0  0  0  0  0  0  0  0
   58.1315   27.9923   46.5889 H   0  0  0  0  0  0  0  0  0  0  0  0
   60.6145   27.8240   46.8548 H   0  0  0  0  0  0  0  0  0  0  0  0
   61.9911   29.8971   46.9296 H   0  0  0  0  0  0  0  0  0  0  0  0
   59.3610   32.6600   48.7010 H   0  0  0  0  0  0  0  0  0  0  0  0
   60.5054   31.1442   51.0582 H   0  0  0  0  0  0  0  0  0  0  0  0
   59.2837   29.1497   51.6647 H   0  0  0  0  0  0  0  0  0  0  0  0
   54.8105   28.5132   52.9418 H   0  0  0  0  0  0  0  0  0  0  0  0
   57.0613   33.6078   51.6246 H   0  0  0  0  0  0  0  0  0  0  0  0
   62.0200   34.6210   51.2240 H   0  0  0  0  0  0  0  0  0  0  0  0
   63.7734   34.5483   49.5728 H   0  0  0  0  0  0  0  0  0  0  0  0
  1  2  1  0
  2  3  1  0
  3  4  1  0
  3  5  1  0
  5  6  2  0
  5  7  1  0
  7  8  2  0
  8  9  1  0
  9 10  2  0
 10 11  1  0
 11 12  2  0
 12 13  1  0
 13 14  2  0
 14 15  1  0
 15 16  1  0
 16 17  2  0
 17 18  1  0
 18 19  2  0
 19 20  1  0
 20 21  2  0
 21 22  1  0
 22 23  2  0
 23 24  1  0
 24 25  1  0
 25 26  2  0
 16 27  1  0
 27 28  1  0
 28 29  2  0
 29 30  1  0
 12  7  1  0
 29 14  1  0
 26 18  1  0
 25 21  1  0
  1 31  1  0
  1 32  1  0
  1 33  1  0
  2 34  1  0
  2 35  1  0
  4 36  1  0
  4 37  1  0
  4 38  1  0
  8 39  1  0
  9 40  1  0
 10 41  1  0
 11 42  1  0
 15 43  1  0
 19 44  1  0
 20 45  1  0
 23 46  1  0
 26 47  1  0
 27 48  1  0
 28 49  1  0
M  END
>  <smiles>  (38) 
CCN(C)C(=O)c1ccccc1N=c1[nH]c(=Nc2ccc3ncsc3c2)[nH]cc1Cl

>  <score_type>  (38) 
oracle

>  <origin>  (38) 
adg

>  <m_score__min__energy>  (38) 
-9.0800000000000001

>  <m_primary>  (38) 
energy

$$$$
38:0
     RDKit          3D

 48 48  0  0  0  0  0  0  0  0999 V2000
   59.5020   29.7160   44.8810 C   0  0  0  0  0  0  0  0  0  0  0  0
   58.0510   29.7190   45.0920 N   0  0  0  0  0  0  0  0  0  0  0  0
   57.4280   28.6700   45.9070 C   0  0  0  0  0  0  0  0  0  0  0  0
   57.2080   30.7280   44.4910 C   0  0  0  0  0  0  0  0  0  0  0  0
   55.9560   30.5770   44.4960 O   0  0  0  0  0  0  0  0  0  0  0  0
   57.7640   32.0080   43.9160 C   0  0  0  0  0  0  0  0  0  0  0  0
   57.3940   33.2210   44.7800 C   0  0  0  0  0  0  0  0  0  0  0  0
   58.3480   33.4040   45.9330 C   0  0  0  0  0  0  0  0  0  0  0  0
   59.2170   34.4970   45.9580 C   0  0  0  0  0  0  0  0  0  0  0  0
   60.0710   34.6950   47.0390 C   0  0  0  0  0  0  0  0  0  0  0  0
   60.0950   33.7960   48.1260 C   0  0  0  0  0  0  0  0  0  0  0  0
   60.9940   34.0160   49.2400 N   0  0  0  0  0  0  0  0  0  0  0  0
   62.4110   34.3730   49.1150 C   0  0  0  0  0  0  0  0  0  0  0  0
   63.3140   33.1270   49.0220 C   0  0  0  0  0  0  0  0  0  0  0  0
   63.5680   32.7080   47.6150 N   0  0  0  0  0  0  0  0  0  0  0  0
   63.3940   33.8440   46.6910 C   0  0  0  0  0  0  0  0  0  0  0  0
   62.6690   31.6110   47.2140 C   0  0  0  0  0  0  0  0  0  0  0  0
   59.2100   32.6800   48.1080 C   0  0  0  0  0  0  0  0  0  0  0  0
   59.1750   31.6750   49.2450 C   0  0  0  0  0  0  0  0  0  0  0  0
   60.4450   31.3620   49.6970 F   0  0  0  0  0  0  0  0  0  0  0  0
   58.4620   32.1960   50.3120 F   0  0  0  0  0  0  0  0  0  0  0  0
   58.5740   30.5050   48.8150 F   0  0  0  0  0  0  0  0  0  0  0  0
   58.3380   32.5100   47.0100 C   0  0  0  0  0  0  0  0  0  0  0  0
   60.0141   29.7149   45.8545 H   0  0  0  0  0  0  0  0  0  0  0  0
   59.7884   28.8173   44.3151 H   0  0  0  0  0  0  0  0  0  0  0  0
   59.7921   30.6135   44.3151 H   0  0  0  0  0  0  0  0  0  0  0  0
   57.5665   28.9032   46.9731 H   0  0  0  0  0  0  0  0  0  0  0  0
   56.3530   28.6188   45.6795 H   0  0  0  0  0  0  0  0  0  0  0  0
   57.8975   27.7016   45.6795 H   0  0  0  0  0  0  0  0  0  0  0  0
   58.8598   31.9289   43.8617 H   0  0  0  0  0  0  0  0  0  0  0  0
   57.3314   32.1528   42.9151 H   0  0  0  0  0  0  0  0  0  0  0  0
   57.4173   34.1244   44.1528 H   0  0  0  0  0  0  0  0  0  0  0  0
   56.3892   33.0502   45.1937 H   0  0  0  0  0  0  0  0  0  0  0  0
   59.2266   35.2064   45.1174 H   0  0  0  0  0  0  0  0  0  0  0  0
   60.7395   35.5685   47.0460 H   0  0  0  0  0  0  0  0  0  0  0  0
   60.6290   33.9940   50.2170 H   0  0  0  0  0  0  0  0  0  0  0  0
   62.5460   34.9782   48.2064 H   0  0  0  0  0  0  0  0  0  0  0  0
   62.7003   34.9361   50.0145 H   0  0  0  0  0  0  0  0  0  0  0  0
   64.2776   33.3535   49.5017 H   0  0  0  0  0  0  0  0  0  0  0  0
   62.7940   32.2999   49.5275 H   0  0  0  0  0  0  0  0  0  0  0  0
   64.5530   32.3710   47.5060 H   0  0  0  0  0  0  0  0  0  0  0  0
   63.2523   34.7688   47.2695 H   0  0  0  0  0  0  0  0  0  0  0  0
   64.2877   33.9413   46.0571 H   0  0  0  0  0  0  0  0  0  0  0  0
   62.5121   33.6693   46.0571 H   0  0  0  0  0  0  0  0  0  0  0  0
   62.2665   31.1199   48.1122 H   0  0  0  0  0  0  0  0  0  0  0  0
   61.8401   32.0165   46.6153 H   0  0  0  0  0  0  0  0  0  0  0  0
   63.2294   30.8779   46.6153 H   0  0  0  0  0  0  0  0  0  0  0  0
   57.6391   31.6606   47.0011 H   0  0  0  0  0  0  0  0  0  0  0  0
  1  2  1  0
  2  3  1  0
  2  4  1  0
  4  5  2  0
  4  6  1  0
  6  7  1  0
  7  8  1  0
  8  9  2  0
  9 10  1  0
 10 11  2  0
 11 12  1  0
 12 13  1  0
 13 14  1  0
 14 15  1  0
 15 16  1  0
 15 17  1  0
 11 18  1  0
 18 19  1  0
 19 20  1  0
 19 21  1  0
 19 22  1  0
 18 23  2  0
 23  8  1  0
  1 24  1  0
  1 25  1  0
  1 26  1  0
  3 27  1  0
  3 28  1  0
  3 29  1  0
  6 30  1  0
  6 31  1  0
  7 32  1  0
  7 33  1  0
  9 34  1  0
 10 35  1  0
 12 36  1  0
 13 37  1  0
 13 38  1  0
 14 39  1  0
 14 40  1  0
 15 41  1  0
 16 42  1  0
 16 43  1  0
 16 44  1  0
 17 45  1  0
 17 46  1  0
 17 47  1  0
 23 48  1  0
M  CHG  1  15   1
M  END
>  <UniqueID>  (39) 
37

>  <SMILES>  (39) 
CN(C)C(=O)CCc1ccc(NCC[NH+](C)C)c(C(F)(F)F)c1

>  <Energy>  (39) 
43.31229252606634

>  <Genealogy>  (39) 
CN(C)C(=O)CCc1ccc(NCC[NH+](C)C)c(C(F)(F)F)c1 (protonated)
CN(C)C(=O)CCc1ccc(NCC[NH+](C)C)c(C(F)(F)F)c1 (3D coordinates assigned)
CN(C)C(=O)CCc1ccc(NCC[NH+](C)C)c(C(F)(F)F)c1 (optimized conformer: 43.31229252606634 kcal/mol)

>  <smiles>  (39) 
CN(C)CCNc1ccc(CCC(=O)N(C)C)cc1C(F)(F)F

>  <score_type>  (39) 
oracle

>  <origin>  (39) 
adg

>  <m_score__min__energy>  (39) 
-5.3200000000000003

>  <m_primary>  (39) 
energy

$$$$
39:0
     RDKit          3D

 42 45  0  0  0  0  0  0  0  0999 V2000
   54.7260   27.0860   46.7080 H   0  0  0  0  0  0  0  0  0  0  0  0
   54.7940   26.3150   46.0080 N   0  0  0  0  0  0  0  0  0  0  0  0
   56.0600   25.7800   45.6250 C   0  0  0  0  0  0  0  0  0  0  0  0
   56.1080   24.7080   44.9650 O   0  0  0  0  0  0  0  0  0  0  0  0
   57.3090   26.4370   46.0650 C   0  0  0  0  0  0  0  0  0  0  0  0
   58.3370   25.5960   46.5180 C   0  0  0  0  0  0  0  0  0  0  0  0
   58.2698   24.5129   46.3383 H   0  0  0  0  0  0  0  0  0  0  0  0
   59.4120   26.0990   47.1740 N   0  0  0  0  0  0  0  0  0  0  0  0
   60.1430   25.4290   47.5090 H   0  0  0  0  0  0  0  0  0  0  0  0
   59.5310   27.4270   47.4410 C   0  0  0  0  0  0  0  0  0  0  0  0
   60.6330   27.9000   48.1690 C   0  0  0  0  0  0  0  0  0  0  0  0
   61.3940   27.1919   48.5287 H   0  0  0  0  0  0  0  0  0  0  0  0
   60.7710   29.2600   48.4400 C   0  0  0  0  0  0  0  0  0  0  0  0
   61.6343   29.6167   49.0210 H   0  0  0  0  0  0  0  0  0  0  0  0
   59.8170   30.1760   47.9770 C   0  0  0  0  0  0  0  0  0  0  0  0
   59.9560   31.6190   48.2760 C   0  0  0  0  0  0  0  0  0  0  0  0
   60.6760   32.4350   47.3860 C   0  0  0  0  0  0  0  0  0  0  0  0
   61.1338   31.9935   46.4885 H   0  0  0  0  0  0  0  0  0  0  0  0
   60.8140   33.8040   47.6340 C   0  0  0  0  0  0  0  0  0  0  0  0
   61.3767   34.4356   46.9309 H   0  0  0  0  0  0  0  0  0  0  0  0
   60.2390   34.3700   48.7720 C   0  0  0  0  0  0  0  0  0  0  0  0
   60.3435   35.4484   48.9620 H   0  0  0  0  0  0  0  0  0  0  0  0
   59.5310   33.5690   49.6700 C   0  0  0  0  0  0  0  0  0  0  0  0
   59.0844   34.0188   50.5690 H   0  0  0  0  0  0  0  0  0  0  0  0
   59.3860   32.1960   49.4330 C   0  0  0  0  0  0  0  0  0  0  0  0
   58.5430   31.2280   50.6380 Cl  0  0  0  0  0  0  0  0  0  0  0  0
   58.7070   29.7100   47.2540 C   0  0  0  0  0  0  0  0  0  0  0  0
   57.9518   30.4259   46.8973 H   0  0  0  0  0  0  0  0  0  0  0  0
   58.5480   28.3340   46.9790 C   0  0  0  0  0  0  0  0  0  0  0  0
   57.4540   27.8470   46.2190 C   0  0  0  0  0  0  0  0  0  0  0  0
   56.6490   28.7240   45.6700 N   0  0  0  0  0  0  0  0  0  0  0  0
   56.9010   29.6800   44.6310 C   0  0  0  0  0  0  0  0  0  0  0  0
   57.4540   30.9390   44.9250 C   0  0  0  0  0  0  0  0  0  0  0  0
   57.7455   31.1831   45.9572 H   0  0  0  0  0  0  0  0  0  0  0  0
   57.6340   31.8810   43.9080 C   0  0  0  0  0  0  0  0  0  0  0  0
   58.0875   32.8567   44.1367 H   0  0  0  0  0  0  0  0  0  0  0  0
   57.2380   31.5840   42.6000 C   0  0  0  0  0  0  0  0  0  0  0  0
   57.3895   32.3218   41.7983 H   0  0  0  0  0  0  0  0  0  0  0  0
   56.6500   30.3500   42.3120 C   0  0  0  0  0  0  0  0  0  0  0  0
   56.3304   30.1206   41.2848 H   0  0  0  0  0  0  0  0  0  0  0  0
   56.4670   29.4060   43.3270 C   0  0  0  0  0  0  0  0  0  0  0  0
   55.9809   28.4454   43.1013 H   0  0  0  0  0  0  0  0  0  0  0  0
  1  2  1  0
  2  3  1  0
  3  4  2  0
  3  5  1  0
  5  6  2  0
  6  7  1  0
  6  8  1  0
  8  9  1  0
  8 10  1  0
 10 11  2  0
 11 12  1  0
 11 13  1  0
 13 14  1  0
 13 15  2  0
 15 16  1  0
 16 17  2  0
 17 18  1  0
 17 19  1  0
 19 20  1  0
 19 21  2  0
 21 22  1  0
 21 23  1  0
 23 24  1  0
 23 25  2  0
 25 26  1  0
 15 27  1  0
 27 28  1  0
 27 29  2  0
 29 30  1  0
 30 31  2  0
 31 32  1  0
 32 33  2  0
 33 34  1  0
 33 35  1  0
 35 36  1  0
 35 37  2  0
 37 38  1  0
 37 39  1  0
 39 40  1  0
 39 41  2  0
 41 42  1  0
 30  5  1  0
 41 32  1  0
 29 10  1  0
 25 16  1  0
M  CHG  1   2  -1
M  END
>  <UniqueID>  (40) 
38

>  <SMILES>  (40) 
[NH-]C(=O)c1c[nH]c2ccc(-c3ccccc3Cl)cc2/c1=N/c1ccccc1

>  <Energy>  (40) 
80.4415641757952

>  <Genealogy>  (40) 
[NH-]C(=O)c1c[nH]c2ccc(-c3ccccc3Cl)cc2c1=Nc1ccccc1 (protonated)
[NH-]C(=O)c1c[nH]c2ccc(-c3ccccc3Cl)cc2/c1=N/c1ccccc1 (cis-trans isomerization)
[NH-]C(=O)c1c[nH]c2ccc(-c3ccccc3Cl)cc2/c1=N/c1ccccc1 (3D coordinates assigned)
[NH-]C(=O)c1c[nH]c2ccc(-c3ccccc3Cl)cc2/c1=N/c1ccccc1 (optimized conformer: 80.4415641757952 kcal/mol)

>  <smiles>  (40) 
NC(=O)c1c[nH]c2ccc(-c3ccccc3Cl)cc2c1=Nc1ccccc1

>  <score_type>  (40) 
oracle

>  <origin>  (40) 
adg

>  <m_score__min__energy>  (40) 
-11.98

>  <m_primary>  (40) 
energy

$$$$
40:0
     RDKit          3D

 52 54  0  0  0  0  0  0  0  0999 V2000
   56.5670   22.6840   47.6620 C   0  0  0  0  0  0  0  0  0  0  0  0
   57.5850   23.1290   46.6910 N   0  0  1  0  0  0  0  0  0  0  0  0
   57.4510   22.4190   45.3880 C   0  0  0  0  0  0  0  0  0  0  0  0
   58.7970   22.2630   44.6550 C   0  0  0  0  0  0  0  0  0  0  0  0
   59.8650   21.9040   45.5830 N   0  0  0  0  0  0  0  0  0  0  0  0
   57.4750   24.5640   46.4930 C   0  0  0  0  0  0  0  0  0  0  0  0
   56.4410   25.1520   46.7900 O   0  0  0  0  0  0  0  0  0  0  0  0
   58.5980   25.3460   45.8540 C   0  0  0  0  0  0  0  0  0  0  0  0
   58.4470   26.8620   46.0830 C   0  0  1  0  0  0  0  0  0  0  0  0
   59.7710   27.6180   45.7900 C   0  0  0  0  0  0  0  0  0  0  0  0
   59.5590   29.0570   45.2790 C   0  0  0  0  0  0  0  0  0  0  0  0
   58.3100   29.7240   45.9130 C   0  0  1  0  0  0  0  0  0  0  0  0
   57.0330   28.9170   45.5090 C   0  0  0  0  0  0  0  0  0  0  0  0
   57.2930   27.4200   45.2290 C   0  0  0  0  0  0  0  0  0  0  0  0
   58.3940   29.6340   47.3410 O   0  0  0  0  0  0  0  0  0  0  0  0
   59.2070   30.6330   47.9260 C   0  0  0  0  0  0  0  0  0  0  0  0
   58.5510   31.9960   47.7630 C   0  0  0  0  0  0  0  0  0  0  0  0
   58.2930   32.2550   46.3120 C   0  0  0  0  0  0  0  0  0  0  0  0
   58.1520   33.5760   45.8550 C   0  0  0  0  0  0  0  0  0  0  0  0
   57.9450   33.8330   44.4980 C   0  0  0  0  0  0  0  0  0  0  0  0
   57.8800   32.7760   43.5900 C   0  0  0  0  0  0  0  0  0  0  0  0
   58.0010   31.4570   44.0380 C   0  0  0  0  0  0  0  0  0  0  0  0
   58.1790   31.1750   45.4110 C   0  0  0  0  0  0  0  0  0  0  0  0
   56.9394   22.8468   48.6842 H   0  0  0  0  0  0  0  0  0  0  0  0
   55.6416   23.2597   47.5128 H   0  0  0  0  0  0  0  0  0  0  0  0
   56.3611   21.6138   47.5128 H   0  0  0  0  0  0  0  0  0  0  0  0
   58.5200   22.9260   47.1150 H   0  0  0  0  0  0  0  0  0  0  0  0
   57.0333   21.4185   45.5737 H   0  0  0  0  0  0  0  0  0  0  0  0
   56.7915   23.0224   44.7470 H   0  0  0  0  0  0  0  0  0  0  0  0
   58.7021   21.4738   43.8946 H   0  0  0  0  0  0  0  0  0  0  0  0
   59.0518   23.2249   44.1861 H   0  0  0  0  0  0  0  0  0  0  0  0
   60.7790   22.1780   45.1510 H   0  0  0  0  0  0  0  0  0  0  0  0
   59.8870   20.8600   45.6580 H   0  0  0  0  0  0  0  0  0  0  0  0
   59.5532   25.0146   46.2872 H   0  0  0  0  0  0  0  0  0  0  0  0
   58.5679   25.1609   44.7701 H   0  0  0  0  0  0  0  0  0  0  0  0
   58.2071   27.0224   47.1445 H   0  0  0  0  0  0  0  0  0  0  0  0
   60.3595   27.6616   46.7183 H   0  0  0  0  0  0  0  0  0  0  0  0
   60.2889   27.0651   44.9924 H   0  0  0  0  0  0  0  0  0  0  0  0
   60.4466   29.6565   45.5293 H   0  0  0  0  0  0  0  0  0  0  0  0
   59.4023   29.0103   44.1912 H   0  0  0  0  0  0  0  0  0  0  0  0
   56.3031   28.9931   46.3284 H   0  0  0  0  0  0  0  0  0  0  0  0
   56.6657   29.3555   44.5694 H   0  0  0  0  0  0  0  0  0  0  0  0
   56.3781   26.8528   45.4553 H   0  0  0  0  0  0  0  0  0  0  0  0
   57.5750   27.3176   44.1707 H   0  0  0  0  0  0  0  0  0  0  0  0
   59.3371   30.4166   48.9966 H   0  0  0  0  0  0  0  0  0  0  0  0
   60.1869   30.6408   47.4263 H   0  0  0  0  0  0  0  0  0  0  0  0
   57.5988   32.0128   48.3135 H   0  0  0  0  0  0  0  0  0  0  0  0
   59.2186   32.7742   48.1614 H   0  0  0  0  0  0  0  0  0  0  0  0
   58.2049   34.4112   46.5689 H   0  0  0  0  0  0  0  0  0  0  0  0
   57.8332   34.8689   44.1452 H   0  0  0  0  0  0  0  0  0  0  0  0
   57.7332   32.9806   42.5192 H   0  0  0  0  0  0  0  0  0  0  0  0
   57.9571   30.6301   43.3139 H   0  0  0  0  0  0  0  0  0  0  0  0
  1  2  1  0
  2  3  1  0
  3  4  1  0
  4  5  1  0
  2  6  1  0
  6  7  2  0
  6  8  1  0
  8  9  1  0
  9 10  1  0
 10 11  1  0
 11 12  1  0
 12 13  1  0
 13 14  1  0
 12 15  1  1
 15 16  1  0
 16 17  1  0
 17 18  1  0
 18 19  2  0
 19 20  1  0
 20 21  2  0
 21 22  1  0
 22 23  2  0
 14  9  1  0
 23 18  1  0
 23 12  1  0
  1 24  1  0
  1 25  1  0
  1 26  1  0
  2 27  1  1
  3 28  1  0
  3 29  1  0
  4 30  1  0
  4 31  1  0
  5 32  1  0
  5 33  1  0
  8 34  1  0
  8 35  1  0
  9 36  1  1
 10 37  1  0
 10 38  1  0
 11 39  1  0
 11 40  1  0
 13 41  1  0
 13 42  1  0
 14 43  1  0
 14 44  1  0
 16 45  1  0
 16 46  1  0
 17 47  1  0
 17 48  1  0
 19 49  1  0
 20 50  1  0
 21 51  1  0
 22 52  1  0
M  CHG  1   2   1
M  END
>  <UniqueID>  (41) 
39

>  <SMILES>  (41) 
C[N@@H+](CCN)C(=O)CC1CCC2(CC1)OCCc1ccccc12

>  <Energy>  (41) 
64.55202696479786

>  <Genealogy>  (41) 
C[NH+](CCN)C(=O)CC1CCC2(CC1)OCCc1ccccc12 (protonated)
C[N@@H+](CCN)C(=O)CC1CCC2(CC1)OCCc1ccccc12 (chirality)
C[N@@H+](CCN)C(=O)CC1CCC2(CC1)OCCc1ccccc12 (3D coordinates assigned)
C[N@@H+](CCN)C(=O)CC1CCC2(CC1)OCCc1ccccc12 (nonaromatic ring conformer: 64.55202696479786 kcal/mol)

>  <smiles>  (41) 
CN(CCN)C(=O)CC1CCC2(CC1)OCCc1ccccc12

>  <score_type>  (41) 
oracle

>  <origin>  (41) 
adg

>  <m_score__min__energy>  (41) 
-7.7999999999999998

>  <m_primary>  (41) 
energy

$$$$
41:0
     RDKit          3D

 48 50  0  0  0  0  0  0  0  0999 V2000
   55.7780   25.8560   46.0500 C   0  0  0  0  0  0  0  0  0  0  0  0
   57.0930   26.5740   45.9160 C   0  0  0  0  0  0  0  0  0  0  0  0
   58.2940   25.8930   46.1760 C   0  0  0  0  0  0  0  0  0  0  0  0
   59.5190   26.5530   46.0560 C   0  0  0  0  0  0  0  0  0  0  0  0
   59.5560   27.8960   45.6790 C   0  0  0  0  0  0  0  0  0  0  0  0
   58.3690   28.5780   45.4070 C   0  0  0  0  0  0  0  0  0  0  0  0
   57.1340   27.9180   45.4930 C   0  0  0  0  0  0  0  0  0  0  0  0
   55.9090   28.6240   45.2440 N   0  0  0  0  0  0  0  0  0  0  0  0
   55.5880   29.4020   44.0830 C   0  0  0  0  0  0  0  0  0  0  0  0
   54.4150   29.3430   43.6320 O   0  0  0  0  0  0  0  0  0  0  0  0
   56.6290   30.1810   43.3200 C   0  0  0  0  0  0  0  0  0  0  0  0
   57.2770   31.2490   44.1580 C   0  0  0  0  0  0  0  0  0  0  0  0
   57.2210   31.2610   45.5040 N   0  0  0  0  0  0  0  0  0  0  0  0
   57.8690   32.3430   45.9150 N   0  0  0  0  0  0  0  0  0  0  0  0
   58.3150   32.9700   44.8130 C   0  0  0  0  0  0  0  0  0  0  0  0
   59.1740   34.5470   44.8430 S   0  0  0  0  0  0  0  0  0  0  0  0
   58.7410   34.9470   46.5760 C   0  0  0  0  0  0  0  0  0  0  0  0
   59.8030   34.5060   47.5420 C   0  0  0  0  0  0  0  0  0  0  0  0
   59.5490   34.5070   48.7760 O   0  0  0  0  0  0  0  0  0  0  0  0
   61.1000   34.1210   47.0510 N   0  0  0  0  0  0  0  0  0  0  0  0
   62.1860   33.6090   47.8490 C   0  0  0  0  0  0  0  0  0  0  0  0
   62.7730   32.3840   47.4900 C   0  0  0  0  0  0  0  0  0  0  0  0
   63.7860   31.8220   48.2720 C   0  0  0  0  0  0  0  0  0  0  0  0
   64.2200   32.4750   49.4280 C   0  0  0  0  0  0  0  0  0  0  0  0
   63.6420   33.6920   49.8010 C   0  0  0  0  0  0  0  0  0  0  0  0
   62.6270   34.2570   49.0200 C   0  0  0  0  0  0  0  0  0  0  0  0
   57.9900   32.2970   43.6920 N   0  0  0  0  0  0  0  0  0  0  0  0
   58.3470   32.6370   42.3160 C   0  0  0  0  0  0  0  0  0  0  0  0
   55.5385   25.7253   47.1156 H   0  0  0  0  0  0  0  0  0  0  0  0
   54.9865   26.4471   45.5662 H   0  0  0  0  0  0  0  0  0  0  0  0
   55.8473   24.8706   45.5662 H   0  0  0  0  0  0  0  0  0  0  0  0
   58.2694   24.8349   46.4755 H   0  0  0  0  0  0  0  0  0  0  0  0
   60.4558   26.0134   46.2589 H   0  0  0  0  0  0  0  0  0  0  0  0
   60.5210   28.4174   45.5961 H   0  0  0  0  0  0  0  0  0  0  0  0
   58.4021   29.6403   45.1233 H   0  0  0  0  0  0  0  0  0  0  0  0
   57.4065   29.4847   42.9726 H   0  0  0  0  0  0  0  0  0  0  0  0
   56.1249   30.6768   42.4773 H   0  0  0  0  0  0  0  0  0  0  0  0
   58.6098   36.0354   46.6663 H   0  0  0  0  0  0  0  0  0  0  0  0
   57.8138   34.4102   46.8251 H   0  0  0  0  0  0  0  0  0  0  0  0
   61.2990   34.3030   46.0410 H   0  0  0  0  0  0  0  0  0  0  0  0
   62.4317   31.8618   46.5840 H   0  0  0  0  0  0  0  0  0  0  0  0
   64.2416   30.8652   47.9770 H   0  0  0  0  0  0  0  0  0  0  0  0
   65.0160   32.0319   50.0444 H   0  0  0  0  0  0  0  0  0  0  0  0
   63.9856   34.2068   50.7103 H   0  0  0  0  0  0  0  0  0  0  0  0
   62.1714   35.2116   49.3219 H   0  0  0  0  0  0  0  0  0  0  0  0
   59.1435   33.3956   42.3206 H   0  0  0  0  0  0  0  0  0  0  0  0
   58.7025   31.7353   41.7959 H   0  0  0  0  0  0  0  0  0  0  0  0
   57.4637   33.0360   41.7959 H   0  0  0  0  0  0  0  0  0  0  0  0
  1  2  1  0
  2  3  2  0
  3  4  1  0
  4  5  2  0
  5  6  1  0
  6  7  2  0
  7  8  1  0
  8  9  1  0
  9 10  2  0
  9 11  1  0
 11 12  1  0
 12 13  2  0
 13 14  1  0
 14 15  2  0
 15 16  1  0
 16 17  1  0
 17 18  1  0
 18 19  2  0
 18 20  1  0
 20 21  1  0
 21 22  2  0
 22 23  1  0
 23 24  2  0
 24 25  1  0
 25 26  2  0
 15 27  1  0
 27 28  1  0
  7  2  1  0
 27 12  1  0
 26 21  1  0
  1 29  1  0
  1 30  1  0
  1 31  1  0
  3 32  1  0
  4 33  1  0
  5 34  1  0
  6 35  1  0
 11 36  1  0
 11 37  1  0
 17 38  1  0
 17 39  1  0
 20 40  1  0
 22 41  1  0
 23 42  1  0
 24 43  1  0
 25 44  1  0
 26 45  1  0
 28 46  1  0
 28 47  1  0
 28 48  1  0
M  CHG  1   8  -1
M  END
>  <UniqueID>  (42) 
40

>  <SMILES>  (42) 
Cc1ccccc1[N-]C(=O)Cc1nnc(SCC(=O)Nc2ccccc2)n1C

>  <Energy>  (42) 
82.74993687986806

>  <Genealogy>  (42) 
Cc1ccccc1[N-]C(=O)Cc1nnc(SCC(=O)Nc2ccccc2)n1C (protonated)
Cc1ccccc1[N-]C(=O)Cc1nnc(SCC(=O)Nc2ccccc2)n1C (3D coordinates assigned)
Cc1ccccc1[N-]C(=O)Cc1nnc(SCC(=O)Nc2ccccc2)n1C (optimized conformer: 82.74993687986806 kcal/mol)

>  <smiles>  (42) 
Cc1ccccc1NC(=O)Cc1nnc(SCC(=O)Nc2ccccc2)n1C

>  <score_type>  (42) 
oracle

>  <origin>  (42) 
adg

>  <m_score__min__energy>  (42) 
-10.640000000000001

>  <m_primary>  (42) 
energy

$$$$
42:0
     RDKit          3D

 61 64  0  0  0  0  0  0  0  0999 V2000
   57.0140   20.6150   47.9010 C   0  0  0  0  0  0  0  0  0  0  0  0
   56.8740   21.9310   47.2510 N   0  0  0  0  0  0  0  0  0  0  0  0
   56.6600   22.9630   48.2770 C   0  0  0  0  0  0  0  0  0  0  0  0
   55.7510   21.9310   46.2880 C   0  0  0  0  0  0  0  0  0  0  0  0
   55.7660   20.6820   45.3810 C   0  0  0  0  0  0  0  0  0  0  0  0
   55.9660   20.9830   43.9520 N   0  0  0  0  0  0  0  0  0  0  0  0
   57.3770   21.0970   43.5560 C   0  0  0  0  0  0  0  0  0  0  0  0
   58.0550   22.2260   44.2810 C   0  0  0  0  0  0  0  0  0  0  0  0
   59.1360   22.1010   45.1270 C   0  0  0  0  0  0  0  0  0  0  0  0
   59.4560   23.3130   45.6210 N   0  0  0  0  0  0  0  0  0  0  0  0
   58.5630   24.1590   45.0600 C   0  0  0  0  0  0  0  0  0  0  0  0
   58.5830   25.6120   45.3300 C   0  0  0  0  0  0  0  0  0  0  0  0
   58.2170   26.5120   44.3160 C   0  0  0  0  0  0  0  0  0  0  0  0
   58.2070   27.8890   44.5600 C   0  0  0  0  0  0  0  0  0  0  0  0
   58.5370   28.3860   45.8320 C   0  0  0  0  0  0  0  0  0  0  0  0
   58.5590   29.7990   46.1020 N   0  0  0  0  0  0  0  0  0  0  0  0
   57.7250   30.7570   45.4310 C   0  0  0  0  0  0  0  0  0  0  0  0
   56.6640   30.3810   44.8630 O   0  0  0  0  0  0  0  0  0  0  0  0
   58.0360   32.1560   45.4860 N   0  0  0  0  0  0  0  0  0  0  0  0
   57.6040   33.1250   44.4790 C   0  0  0  0  0  0  0  0  0  0  0  0
   57.9640   34.5200   45.0440 C   0  0  0  0  0  0  0  0  0  0  0  0
   58.6630   34.2040   46.3210 C   0  0  0  0  0  0  0  0  0  0  0  0
   59.2790   35.0940   47.2030 C   0  0  0  0  0  0  0  0  0  0  0  0
   59.9450   34.5730   48.3240 C   0  0  0  0  0  0  0  0  0  0  0  0
   59.9990   33.1830   48.5330 C   0  0  0  0  0  0  0  0  0  0  0  0
   59.3760   32.3070   47.6280 C   0  0  0  0  0  0  0  0  0  0  0  0
   58.6870   32.8530   46.5380 C   0  0  0  0  0  0  0  0  0  0  0  0
   58.9010   27.4860   46.8430 C   0  0  0  0  0  0  0  0  0  0  0  0
   58.9090   26.1110   46.6000 C   0  0  0  0  0  0  0  0  0  0  0  0
   57.6770   23.5200   44.2550 N   0  0  0  0  0  0  0  0  0  0  0  0
   56.5480   24.0900   43.5170 C   0  0  0  0  0  0  0  0  0  0  0  0
   57.0004   20.7424   48.9935 H   0  0  0  0  0  0  0  0  0  0  0  0
   56.1799   19.9654   47.5972 H   0  0  0  0  0  0  0  0  0  0  0  0
   57.9661   20.1554   47.5972 H   0  0  0  0  0  0  0  0  0  0  0  0
   56.7535   22.5119   49.2759 H   0  0  0  0  0  0  0  0  0  0  0  0
   57.4126   23.7568   48.1612 H   0  0  0  0  0  0  0  0  0  0  0  0
   55.6538   23.3921   48.1612 H   0  0  0  0  0  0  0  0  0  0  0  0
   54.8039   21.9524   46.8471 H   0  0  0  0  0  0  0  0  0  0  0  0
   55.8545   22.8181   45.6458 H   0  0  0  0  0  0  0  0  0  0  0  0
   56.5813   20.0226   45.7133 H   0  0  0  0  0  0  0  0  0  0  0  0
   54.7767   20.2098   45.4721 H   0  0  0  0  0  0  0  0  0  0  0  0
   55.5100   20.2440   43.3680 H   0  0  0  0  0  0  0  0  0  0  0  0
   57.8938   20.1557   43.7943 H   0  0  0  0  0  0  0  0  0  0  0  0
   57.4206   21.3003   42.4758 H   0  0  0  0  0  0  0  0  0  0  0  0
   59.6555   21.1602   45.3618 H   0  0  0  0  0  0  0  0  0  0  0  0
   57.9362   26.1312   43.3229 H   0  0  0  0  0  0  0  0  0  0  0  0
   57.9395   28.5862   43.7523 H   0  0  0  0  0  0  0  0  0  0  0  0
   59.1330   30.1390   46.9050 H   0  0  0  0  0  0  0  0  0  0  0  0
   58.1313   32.9499   43.5296 H   0  0  0  0  0  0  0  0  0  0  0  0
   56.5264   33.0397   44.2752 H   0  0  0  0  0  0  0  0  0  0  0  0
   58.6276   35.0643   44.3560 H   0  0  0  0  0  0  0  0  0  0  0  0
   57.0855   35.1672   45.1834 H   0  0  0  0  0  0  0  0  0  0  0  0
   59.2434   36.1787   47.0237 H   0  0  0  0  0  0  0  0  0  0  0  0
   60.4262   35.2542   49.0412 H   0  0  0  0  0  0  0  0  0  0  0  0
   60.5307   32.7804   49.4078 H   0  0  0  0  0  0  0  0  0  0  0  0
   59.4283   31.2178   47.7724 H   0  0  0  0  0  0  0  0  0  0  0  0
   59.1827   27.8660   47.8361 H   0  0  0  0  0  0  0  0  0  0  0  0
   59.1726   25.4145   47.4096 H   0  0  0  0  0  0  0  0  0  0  0  0
   55.7987   24.4683   44.2279 H   0  0  0  0  0  0  0  0  0  0  0  0
   56.9034   24.9167   42.8843 H   0  0  0  0  0  0  0  0  0  0  0  0
   56.0938   23.3132   42.8843 H   0  0  0  0  0  0  0  0  0  0  0  0
  1  2  1  0
  2  3  1  0
  2  4  1  0
  4  5  1  0
  5  6  1  0
  6  7  1  0
  7  8  1  0
  8  9  2  0
  9 10  1  0
 10 11  2  0
 11 12  1  0
 12 13  2  0
 13 14  1  0
 14 15  2  0
 15 16  1  0
 16 17  1  0
 17 18  2  0
 17 19  1  0
 19 20  1  0
 20 21  1  0
 21 22  1  0
 22 23  2  0
 23 24  1  0
 24 25  2  0
 25 26  1  0
 26 27  2  0
 15 28  1  0
 28 29  2  0
 11 30  1  0
 30 31  1  0
 30  8  1  0
 29 12  1  0
 27 19  1  0
 27 22  1  0
  1 32  1  0
  1 33  1  0
  1 34  1  0
  3 35  1  0
  3 36  1  0
  3 37  1  0
  4 38  1  0
  4 39  1  0
  5 40  1  0
  5 41  1  0
  6 42  1  0
  7 43  1  0
  7 44  1  0
  9 45  1  0
 13 46  1  0
 14 47  1  0
 16 48  1  0
 20 49  1  0
 20 50  1  0
 21 51  1  0
 21 52  1  0
 23 53  1  0
 24 54  1  0
 25 55  1  0
 26 56  1  0
 28 57  1  0
 29 58  1  0
 31 59  1  0
 31 60  1  0
 31 61  1  0
M  END
>  <UniqueID>  (43) 
41

>  <SMILES>  (43) 
CN(C)CCNCc1cnc(-c2ccc(NC(=O)N3CCc4ccccc43)cc2)n1C

>  <Energy>  (43) 
118.71282542743174

>  <Genealogy>  (43) 
CN(C)CCNCc1cnc(-c2ccc(NC(=O)N3CCc4ccccc43)cc2)n1C (3D coordinates assigned)
CN(C)CCNCc1cnc(-c2ccc(NC(=O)N3CCc4ccccc43)cc2)n1C (nonaromatic ring conformer: 118.71282542743174 kcal/mol)

>  <smiles>  (43) 
CN(C)CCNCc1cnc(-c2ccc(NC(=O)N3CCc4ccccc43)cc2)n1C

>  <score_type>  (43) 
oracle

>  <origin>  (43) 
adg

>  <m_score__min__energy>  (43) 
-8.3200000000000003

>  <m_primary>  (43) 
energy

$$$$
43:0
     RDKit          3D

 60 63  0  0  0  0  0  0  0  0999 V2000
   56.5160   33.8830   44.2351 H   0  0  0  0  0  0  0  0  0  0  0  0
   57.4130   33.6010   44.8060 C   0  0  0  0  0  0  0  0  0  0  0  0
   57.7110   32.1590   44.9330 C   0  0  0  0  0  0  0  0  0  0  0  0
   57.7380   31.4170   43.9130 O   0  0  0  0  0  0  0  0  0  0  0  0
   57.9920   31.6120   46.2300 N   0  0  0  0  0  0  0  0  0  0  0  0
   57.7180   32.1770   47.0670 H   0  0  0  0  0  0  0  0  0  0  0  0
   58.4650   30.2720   46.4460 C   0  0  0  0  0  0  0  0  0  0  0  0
   59.4490   29.9930   47.4050 C   0  0  0  0  0  0  0  0  0  0  0  0
   59.8746   30.8107   48.0052 H   0  0  0  0  0  0  0  0  0  0  0  0
   59.8920   28.6840   47.6030 C   0  0  0  0  0  0  0  0  0  0  0  0
   60.6674   28.4781   48.3556 H   0  0  0  0  0  0  0  0  0  0  0  0
   59.3540   27.6260   46.8470 C   0  0  0  0  0  0  0  0  0  0  0  0
   59.7930   26.3010   47.0080 O   0  0  0  0  0  0  0  0  0  0  0  0
   60.7510   25.6620   46.1720 C   0  0  0  0  0  0  0  0  0  0  0  0
   61.5047   25.1593   46.7958 H   0  0  0  0  0  0  0  0  0  0  0  0
   60.2460   24.9192   45.5370 H   0  0  0  0  0  0  0  0  0  0  0  0
   61.2428   26.4136   45.5370 H   0  0  0  0  0  0  0  0  0  0  0  0
   58.3440   27.8980   45.9030 C   0  0  0  0  0  0  0  0  0  0  0  0
   57.7570   26.7830   45.0720 C   0  0  0  0  0  0  0  0  0  0  0  0
   56.9823   27.1945   44.4083 H   0  0  0  0  0  0  0  0  0  0  0  0
   58.5582   26.3215   44.4761 H   0  0  0  0  0  0  0  0  0  0  0  0
   57.1550   25.7550   45.9440 N   0  0  0  0  0  0  0  0  0  0  0  0
   55.6730   25.8010   45.8670 C   0  0  0  0  0  0  0  0  0  0  0  0
   55.3804   25.9902   44.8237 H   0  0  0  0  0  0  0  0  0  0  0  0
   55.3299   26.6030   46.5372 H   0  0  0  0  0  0  0  0  0  0  0  0
   55.0400   24.5430   46.3150 N   0  0  0  0  0  0  0  0  0  0  0  0
   54.1170   24.7720   46.7530 H   0  0  0  0  0  0  0  0  0  0  0  0
   55.8610   23.8500   47.3110 C   0  0  0  0  0  0  0  0  0  0  0  0
   55.3177   22.9685   47.6821 H   0  0  0  0  0  0  0  0  0  0  0  0
   56.0728   24.5345   48.1456 H   0  0  0  0  0  0  0  0  0  0  0  0
   57.1850   23.4020   46.6760 C   0  0  0  0  0  0  0  0  0  0  0  0
   57.0426   22.4186   46.2041 H   0  0  0  0  0  0  0  0  0  0  0  0
   57.9494   23.3450   47.4650 H   0  0  0  0  0  0  0  0  0  0  0  0
   57.6550   24.4050   45.6130 C   0  0  0  0  0  0  0  0  0  0  0  0
   57.2672   24.1029   44.6289 H   0  0  0  0  0  0  0  0  0  0  0  0
   58.7546   24.4205   45.5889 H   0  0  0  0  0  0  0  0  0  0  0  0
   57.9020   29.2170   45.7140 C   0  0  0  0  0  0  0  0  0  0  0  0
   57.1058   29.4249   44.9841 H   0  0  0  0  0  0  0  0  0  0  0  0
   58.1470   34.5940   45.3300 C   0  0  0  0  0  0  0  0  0  0  0  0
   57.8627   35.6243   45.0697 H   0  0  0  0  0  0  0  0  0  0  0  0
   59.3070   34.4160   46.2290 C   0  0  0  0  0  0  0  0  0  0  0  0
   60.5640   34.1290   45.6830 C   0  0  0  0  0  0  0  0  0  0  0  0
   60.6849   34.0700   44.5913 H   0  0  0  0  0  0  0  0  0  0  0  0
   61.6660   33.9170   46.5160 C   0  0  0  0  0  0  0  0  0  0  0  0
   62.6525   33.7139   46.0737 H   0  0  0  0  0  0  0  0  0  0  0  0
   61.5250   33.9610   47.9160 C   0  0  0  0  0  0  0  0  0  0  0  0
   62.6840   33.7520   48.8220 C   0  0  0  0  0  0  0  0  0  0  0  0
   62.7000   34.3660   50.0390 N   0  0  0  0  0  0  0  0  0  0  0  0
   63.7280   34.2170   50.9160 C   0  0  0  0  0  0  0  0  0  0  0  0
   63.7009   34.7325   51.8874 H   0  0  0  0  0  0  0  0  0  0  0  0
   64.8170   33.4110   50.5850 C   0  0  0  0  0  0  0  0  0  0  0  0
   65.6555   33.2917   51.2869 H   0  0  0  0  0  0  0  0  0  0  0  0
   64.8290   32.7580   49.3520 C   0  0  0  0  0  0  0  0  0  0  0  0
   65.6784   32.1147   49.0787 H   0  0  0  0  0  0  0  0  0  0  0  0
   63.7630   32.9210   48.4650 C   0  0  0  0  0  0  0  0  0  0  0  0
   63.7662   32.4038   47.4942 H   0  0  0  0  0  0  0  0  0  0  0  0
   60.2560   34.2330   48.4590 C   0  0  0  0  0  0  0  0  0  0  0  0
   60.1290   34.2801   49.5506 H   0  0  0  0  0  0  0  0  0  0  0  0
   59.1550   34.4440   47.6240 C   0  0  0  0  0  0  0  0  0  0  0  0
   58.1641   34.6330   48.0626 H   0  0  0  0  0  0  0  0  0  0  0  0
  1  2  1  0
  2  3  1  0
  3  4  2  0
  3  5  1  0
  5  6  1  0
  5  7  1  0
  7  8  2  0
  8  9  1  0
  8 10  1  0
 10 11  1  0
 10 12  2  0
 12 13  1  0
 13 14  1  0
 14 15  1  0
 14 16  1  0
 14 17  1  0
 12 18  1  0
 18 19  1  0
 19 20  1  0
 19 21  1  0
 19 22  1  0
 22 23  1  0
 23 24  1  0
 23 25  1  0
 23 26  1  0
 26 27  1  0
 26 28  1  0
 28 29  1  0
 28 30  1  0
 28 31  1  0
 31 32  1  0
 31 33  1  0
 31 34  1  0
 34 35  1  0
 34 36  1  0
 18 37  2  0
 37 38  1  0
  2 39  2  0
 39 40  1  0
 39 41  1  0
 41 42  2  0
 42 43  1  0
 42 44  1  0
 44 45  1  0
 44 46  2  0
 46 47  1  0
 47 48  2  0
 48 49  1  0
 49 50  1  0
 49 51  2  0
 51 52  1  0
 51 53  1  0
 53 54  1  0
 53 55  2  0
 55 56  1  0
 46 57  1  0
 57 58  1  0
 57 59  2  0
 59 60  1  0
 37  7  1  0
 59 41  1  0
 34 22  1  0
 55 47  1  0
M  END
>  <UniqueID>  (44) 
42

>  <SMILES>  (44) 
COc1ccc(NC(=O)/C=C\c2ccc(-c3ccccn3)cc2)cc1CN1CCCNC1

>  <Energy>  (44) 
84.68437389220719

>  <Genealogy>  (44) 
COc1ccc(NC(=O)/C=C\c2ccc(-c3ccccn3)cc2)cc1CN1CCCNC1 (cis-trans isomerization)
COc1ccc(NC(=O)/C=C\c2ccc(-c3ccccn3)cc2)cc1CN1CCCNC1 (3D coordinates assigned)
COc1ccc(NC(=O)/C=C\c2ccc(-c3ccccn3)cc2)cc1CN1CCCNC1 (nonaromatic ring conformer: 84.68437389220719 kcal/mol)

>  <smiles>  (44) 
COc1ccc(NC(=O)C=Cc2ccc(-c3ccccn3)cc2)cc1CN1CCCNC1

>  <score_type>  (44) 
oracle

>  <origin>  (44) 
adg

>  <m_score__min__energy>  (44) 
-9.6199999999999992

>  <m_primary>  (44) 
energy

$$$$
44:0
     RDKit          3D

 38 39  0  0  0  0  0  0  0  0999 V2000
   57.8200   32.1970   42.9990 C   0  0  0  0  0  0  0  0  0  0  0  0
   58.4520   33.2850   43.8670 C   0  0  0  0  0  0  0  0  0  0  0  0
   57.4490   33.9150   44.8540 C   0  0  0  0  0  0  0  0  0  0  0  0
   57.4940   33.2980   46.2630 C   0  0  0  0  0  0  0  0  0  0  0  0
   58.5980   32.2720   46.4180 C   0  0  0  0  0  0  0  0  0  0  0  0
   59.8600   32.6680   46.9120 C   0  0  0  0  0  0  0  0  0  0  0  0
   60.0720   34.0210   47.2290 O   0  0  0  0  0  0  0  0  0  0  0  0
   60.0120   34.5650   48.5440 C   0  0  0  0  0  0  0  0  0  0  0  0
   60.8730   31.7060   47.0760 C   0  0  0  0  0  0  0  0  0  0  0  0
   60.6410   30.3680   46.7590 C   0  0  0  0  0  0  0  0  0  0  0  0
   59.3900   29.9610   46.2710 C   0  0  0  0  0  0  0  0  0  0  0  0
   59.1180   28.6200   45.9520 C   0  0  0  0  0  0  0  0  0  0  0  0
   60.0140   27.7410   46.0940 O   0  0  0  0  0  0  0  0  0  0  0  0
   57.8430   28.2610   45.4750 C   0  0  0  0  0  0  0  0  0  0  0  0
   57.5160   26.8300   45.1240 C   0  0  0  0  0  0  0  0  0  0  0  0
   56.8740   29.2790   45.3340 C   0  0  0  0  0  0  0  0  0  0  0  0
   55.5530   29.0000   44.8600 N   0  0  0  0  0  0  0  0  0  0  0  0
   57.1760   30.5350   45.6460 O   0  0  0  0  0  0  0  0  0  0  0  0
   58.3660   30.9160   46.1000 C   0  0  0  0  0  0  0  0  0  0  0  0
   57.3726   31.4268   43.6445 H   0  0  0  0  0  0  0  0  0  0  0  0
   57.0397   32.6418   42.3640 H   0  0  0  0  0  0  0  0  0  0  0  0
   58.5929   31.7395   42.3640 H   0  0  0  0  0  0  0  0  0  0  0  0
   59.2791   32.8415   44.4407 H   0  0  0  0  0  0  0  0  0  0  0  0
   58.8044   34.0826   43.1964 H   0  0  0  0  0  0  0  0  0  0  0  0
   57.6730   34.9887   44.9381 H   0  0  0  0  0  0  0  0  0  0  0  0
   56.4424   33.7253   44.4530 H   0  0  0  0  0  0  0  0  0  0  0  0
   57.6569   34.1032   46.9945 H   0  0  0  0  0  0  0  0  0  0  0  0
   56.5365   32.7831   46.4305 H   0  0  0  0  0  0  0  0  0  0  0  0
   60.1015   33.7533   49.2810 H   0  0  0  0  0  0  0  0  0  0  0  0
   60.8368   35.2794   48.6833 H   0  0  0  0  0  0  0  0  0  0  0  0
   59.0513   35.0824   48.6833 H   0  0  0  0  0  0  0  0  0  0  0  0
   61.8580   32.0122   47.4581 H   0  0  0  0  0  0  0  0  0  0  0  0
   61.4433   29.6274   46.8923 H   0  0  0  0  0  0  0  0  0  0  0  0
   57.3828   26.2472   46.0474 H   0  0  0  0  0  0  0  0  0  0  0  0
   56.5878   26.8000   44.5344 H   0  0  0  0  0  0  0  0  0  0  0  0
   58.3390   26.3998   44.5344 H   0  0  0  0  0  0  0  0  0  0  0  0
   54.9680   29.7770   44.4820 H   0  0  0  0  0  0  0  0  0  0  0  0
   55.1390   28.0420   44.8770 H   0  0  0  0  0  0  0  0  0  0  0  0
  1  2  1  0
  2  3  1  0
  3  4  1  0
  4  5  1  0
  5  6  2  0
  6  7  1  0
  7  8  1  0
  6  9  1  0
  9 10  2  0
 10 11  1  0
 11 12  1  0
 12 13  2  0
 12 14  1  0
 14 15  1  0
 14 16  2  0
 16 17  1  0
 16 18  1  0
 18 19  1  0
 19  5  1  0
 19 11  2  0
  1 20  1  0
  1 21  1  0
  1 22  1  0
  2 23  1  0
  2 24  1  0
  3 25  1  0
  3 26  1  0
  4 27  1  0
  4 28  1  0
  8 29  1  0
  8 30  1  0
  8 31  1  0
  9 32  1  0
 10 33  1  0
 15 34  1  0
 15 35  1  0
 15 36  1  0
 17 37  1  0
 17 38  1  0
M  END
>  <UniqueID>  (45) 
43

>  <SMILES>  (45) 
CCCCc1c(OC)ccc2c(=O)c(C)c(N)oc12

>  <Energy>  (45) 
39.26871543523421

>  <Genealogy>  (45) 
CCCCc1c(OC)ccc2c(=O)c(C)c(N)oc12 (3D coordinates assigned)
CCCCc1c(OC)ccc2c(=O)c(C)c(N)oc12 (optimized conformer: 39.26871543523421 kcal/mol)

>  <smiles>  (45) 
CCCCc1c(OC)ccc2c(=O)c(C)c(N)oc12

>  <score_type>  (45) 
oracle

>  <origin>  (45) 
adg

>  <m_score__min__energy>  (45) 
-6.7699999999999996

>  <m_primary>  (45) 
energy

$$$$
45:0
     RDKit          3D

 49 52  0  0  0  0  0  0  0  0999 V2000
   59.5983   25.1322   47.1801 H   0  0  0  0  0  0  0  0  0  0  0  0
   58.6650   25.5800   46.8080 C   0  0  0  0  0  0  0  0  0  0  0  0
   57.4820   24.8220   46.8090 C   0  0  0  0  0  0  0  0  0  0  0  0
   57.4460   23.4980   47.2730 O   0  0  0  0  0  0  0  0  0  0  0  0
   56.5590   23.0180   48.2790 C   0  0  0  0  0  0  0  0  0  0  0  0
   56.9748   23.2430   49.2722 H   0  0  0  0  0  0  0  0  0  0  0  0
   55.5812   23.5101   48.1708 H   0  0  0  0  0  0  0  0  0  0  0  0
   56.4361   21.9303   48.1708 H   0  0  0  0  0  0  0  0  0  0  0  0
   56.2940   25.3950   46.3380 C   0  0  0  0  0  0  0  0  0  0  0  0
   55.1310   24.6080   46.3540 O   0  0  0  0  0  0  0  0  0  0  0  0
   54.5820   23.9450   45.2190 C   0  0  0  0  0  0  0  0  0  0  0  0
   53.9137   23.1379   45.5535 H   0  0  0  0  0  0  0  0  0  0  0  0
   54.0124   24.6654   44.6135 H   0  0  0  0  0  0  0  0  0  0  0  0
   55.3960   23.5197   44.6135 H   0  0  0  0  0  0  0  0  0  0  0  0
   56.2930   26.7230   45.8660 C   0  0  0  0  0  0  0  0  0  0  0  0
   55.3561   27.1664   45.4976 H   0  0  0  0  0  0  0  0  0  0  0  0
   57.4770   27.4930   45.8590 C   0  0  0  0  0  0  0  0  0  0  0  0
   58.6690   26.8950   46.3400 C   0  0  0  0  0  0  0  0  0  0  0  0
   59.8330   27.5970   46.3550 N   0  0  0  0  0  0  0  0  0  0  0  0
   59.9100   28.8770   45.9180 C   0  0  0  0  0  0  0  0  0  0  0  0
   60.8721   29.4094   45.9469 H   0  0  0  0  0  0  0  0  0  0  0  0
   58.7740   29.5210   45.4320 C   0  0  0  0  0  0  0  0  0  0  0  0
   58.8650   30.8040   44.9980 N   0  0  0  0  0  0  0  0  0  0  0  0
   57.7800   31.4670   44.5200 C   0  0  0  0  0  0  0  0  0  0  0  0
   57.8730   32.6940   44.1040 N   0  0  0  0  0  0  0  0  0  0  0  0
   57.2880   33.8540   44.7780 C   0  0  0  0  0  0  0  0  0  0  0  0
   57.9780   34.7068   44.6965 H   0  0  0  0  0  0  0  0  0  0  0  0
   56.3278   34.0980   44.2999 H   0  0  0  0  0  0  0  0  0  0  0  0
   57.0400   33.5410   46.2690 C   0  0  0  0  0  0  0  0  0  0  0  0
   56.2264   34.1901   46.6251 H   0  0  0  0  0  0  0  0  0  0  0  0
   56.7942   32.4703   46.3261 H   0  0  0  0  0  0  0  0  0  0  0  0
   58.2130   33.7490   47.1450 N   0  0  0  0  0  0  0  0  0  0  0  0
   58.5360   32.6010   48.0060 C   0  0  0  0  0  0  0  0  0  0  0  0
   57.6288   32.2726   48.5343 H   0  0  0  0  0  0  0  0  0  0  0  0
   58.9200   31.7763   47.3876 H   0  0  0  0  0  0  0  0  0  0  0  0
   59.6100   33.0140   49.0360 C   0  0  0  0  0  0  0  0  0  0  0  0
   59.1356   33.0978   50.0249 H   0  0  0  0  0  0  0  0  0  0  0  0
   60.3946   32.2431   49.0255 H   0  0  0  0  0  0  0  0  0  0  0  0
   60.2230   34.2540   48.7200 O   0  0  0  0  0  0  0  0  0  0  0  0
   60.6300   34.2630   47.3660 C   0  0  0  0  0  0  0  0  0  0  0  0
   61.2174   35.1725   47.1716 H   0  0  0  0  0  0  0  0  0  0  0  0
   61.2386   33.3671   47.1739 H   0  0  0  0  0  0  0  0  0  0  0  0
   59.4070   34.2410   46.4290 C   0  0  0  0  0  0  0  0  0  0  0  0
   59.2143   35.2599   46.0621 H   0  0  0  0  0  0  0  0  0  0  0  0
   59.6181   33.5667   45.5859 H   0  0  0  0  0  0  0  0  0  0  0  0
   56.5800   30.8370   44.4700 N   0  0  0  0  0  0  0  0  0  0  0  0
   56.4320   29.5550   44.8900 C   0  0  0  0  0  0  0  0  0  0  0  0
   55.4450   29.0723   44.8364 H   0  0  0  0  0  0  0  0  0  0  0  0
   57.5370   28.8380   45.3950 C   0  0  0  0  0  0  0  0  0  0  0  0
  1  2  1  0
  2  3  2  0
  3  4  1  0
  4  5  1  0
  5  6  1  0
  5  7  1  0
  5  8  1  0
  3  9  1  0
  9 10  1  0
 10 11  1  0
 11 12  1  0
 11 13  1  0
 11 14  1  0
  9 15  2  0
 15 16  1  0
 15 17  1  0
 17 18  2  0
 18 19  1  0
 19 20  2  0
 20 21  1  0
 20 22  1  0
 22 23  1  0
 23 24  1  0
 24 25  2  0
 25 26  1  0
 26 27  1  0
 26 28  1  0
 26 29  1  0
 29 30  1  0
 29 31  1  0
 29 32  1  0
 32 33  1  0
 33 34  1  0
 33 35  1  0
 33 36  1  0
 36 37  1  0
 36 38  1  0
 36 39  1  0
 39 40  1  0
 40 41  1  0
 40 42  1  0
 40 43  1  0
 43 44  1  0
 43 45  1  0
 24 46  1  0
 46 47  2  0
 47 48  1  0
 47 49  1  0
 18  2  1  0
 49 22  2  0
 49 17  1  0
 43 32  1  0
M  CHG  1  23  -1
M  END
>  <UniqueID>  (46) 
44

>  <SMILES>  (46) 
COc1cc2ncc3[n-]/c(=N\CCN4CCOCC4)ncc3c2cc1OC

>  <Energy>  (46) 
73.33633906940837

>  <Genealogy>  (46) 
COc1cc2ncc3[n-]c(=NCCN4CCOCC4)ncc3c2cc1OC (protonated)
COc1cc2ncc3[n-]/c(=N\CCN4CCOCC4)ncc3c2cc1OC (cis-trans isomerization)
COc1cc2ncc3[n-]/c(=N\CCN4CCOCC4)ncc3c2cc1OC (3D coordinates assigned)
COc1cc2ncc3[n-]/c(=N\CCN4CCOCC4)ncc3c2cc1OC (nonaromatic ring conformer: 73.33633906940837 kcal/mol)

>  <smiles>  (46) 
COc1cc2ncc3[nH]c(=NCCN4CCOCC4)ncc3c2cc1OC

>  <score_type>  (46) 
oracle

>  <origin>  (46) 
adg

>  <m_score__min__energy>  (46) 
-9.1400000000000006

>  <m_primary>  (46) 
energy

$$$$
46:0
     RDKit          3D

 30 31  0  0  0  0  0  0  0  0999 V2000
   58.9850   34.1420   44.6690 C   0  0  0  0  0  0  0  0  0  0  0  0
   58.2860   32.8830   44.2270 C   0  0  0  0  0  0  0  0  0  0  0  0
   58.0270   32.6990   42.8590 C   0  0  0  0  0  0  0  0  0  0  0  0
   57.3740   31.5540   42.4080 C   0  0  0  0  0  0  0  0  0  0  0  0
   56.9860   30.5690   43.3120 C   0  0  0  0  0  0  0  0  0  0  0  0
   57.2420   30.7180   44.6800 C   0  0  0  0  0  0  0  0  0  0  0  0
   56.8530   29.6570   45.5660 N   0  0  0  0  0  0  0  0  0  0  0  0
   57.6210   28.4550   45.7580 C   0  0  0  0  0  0  0  0  0  0  0  0
   59.0220   28.5220   45.7340 C   0  0  0  0  0  0  0  0  0  0  0  0
   59.7910   27.3700   45.9230 C   0  0  0  0  0  0  0  0  0  0  0  0
   59.1660   26.1400   46.1450 C   0  0  0  0  0  0  0  0  0  0  0  0
   57.7720   26.0620   46.1830 C   0  0  0  0  0  0  0  0  0  0  0  0
   57.0000   27.2120   45.9950 C   0  0  0  0  0  0  0  0  0  0  0  0
   57.8500   31.9070   45.1600 C   0  0  0  0  0  0  0  0  0  0  0  0
   58.0480   32.1210   46.6430 C   0  0  0  0  0  0  0  0  0  0  0  0
   59.0074   34.1824   45.7680 H   0  0  0  0  0  0  0  0  0  0  0  0
   60.0142   34.1455   44.2809 H   0  0  0  0  0  0  0  0  0  0  0  0
   58.4438   35.0175   44.2809 H   0  0  0  0  0  0  0  0  0  0  0  0
   58.3427   33.4663   42.1368 H   0  0  0  0  0  0  0  0  0  0  0  0
   57.1646   31.4280   41.3355 H   0  0  0  0  0  0  0  0  0  0  0  0
   56.4739   29.6660   42.9482 H   0  0  0  0  0  0  0  0  0  0  0  0
   55.9040   29.7150   45.9990 H   0  0  0  0  0  0  0  0  0  0  0  0
   59.5193   29.4885   45.5652 H   0  0  0  0  0  0  0  0  0  0  0  0
   60.8890   27.4318   45.8970 H   0  0  0  0  0  0  0  0  0  0  0  0
   59.7718   25.2333   46.2898 H   0  0  0  0  0  0  0  0  0  0  0  0
   57.2809   25.0940   46.3612 H   0  0  0  0  0  0  0  0  0  0  0  0
   55.9026   27.1467   46.0322 H   0  0  0  0  0  0  0  0  0  0  0  0
   57.4049   31.4260   47.2028 H   0  0  0  0  0  0  0  0  0  0  0  0
   59.1008   31.9364   46.9028 H   0  0  0  0  0  0  0  0  0  0  0  0
   57.7823   33.1563   46.9028 H   0  0  0  0  0  0  0  0  0  0  0  0
  1  2  1  0
  2  3  2  0
  3  4  1  0
  4  5  2  0
  5  6  1  0
  6  7  1  0
  7  8  1  0
  8  9  2  0
  9 10  1  0
 10 11  2  0
 11 12  1  0
 12 13  2  0
  6 14  2  0
 14 15  1  0
 14  2  1  0
 13  8  1  0
  1 16  1  0
  1 17  1  0
  1 18  1  0
  3 19  1  0
  4 20  1  0
  5 21  1  0
  7 22  1  0
  9 23  1  0
 10 24  1  0
 11 25  1  0
 12 26  1  0
 13 27  1  0
 15 28  1  0
 15 29  1  0
 15 30  1  0
M  END
>  <UniqueID>  (47) 
45

>  <SMILES>  (47) 
Cc1cccc(Nc2ccccc2)c1C

>  <Energy>  (47) 
38.75384380838737

>  <Genealogy>  (47) 
Cc1cccc(Nc2ccccc2)c1C (3D coordinates assigned)
Cc1cccc(Nc2ccccc2)c1C (optimized conformer: 38.75384380838737 kcal/mol)

>  <smiles>  (47) 
Cc1cccc(Nc2ccccc2)c1C

>  <score_type>  (47) 
oracle

>  <origin>  (47) 
adg

>  <m_score__min__energy>  (47) 
-6.21

>  <m_primary>  (47) 
energy

$$$$
47:0
     RDKit          3D

 33 35  0  0  0  0  0  0  0  0999 V2000
   65.6790   34.8930   52.2880 C   0  0  0  0  0  0  0  0  0  0  0  0
   65.6970   33.9230   51.2460 O   0  0  0  0  0  0  0  0  0  0  0  0
   64.6030   33.6300   50.4180 C   0  0  0  0  0  0  0  0  0  0  0  0
   64.7040   32.7740   49.3060 C   0  0  0  0  0  0  0  0  0  0  0  0
   63.5840   32.5140   48.5120 C   0  0  0  0  0  0  0  0  0  0  0  0
   62.3420   33.0950   48.8160 C   0  0  0  0  0  0  0  0  0  0  0  0
   61.1970   32.8280   47.9860 N   0  0  0  0  0  0  0  0  0  0  0  0
   60.6840   31.3120   47.5060 S   0  0  0  0  0  0  0  0  0  0  0  0
   59.3570   31.7740   46.6090 C   0  0  0  0  0  0  0  0  0  0  0  0
   58.4400   31.0030   45.9060 C   0  0  0  0  0  0  0  0  0  0  0  0
   57.3910   31.6700   45.2310 C   0  0  0  0  0  0  0  0  0  0  0  0
   56.4180   30.9810   44.4930 O   0  0  0  0  0  0  0  0  0  0  0  0
   56.6840   30.2530   43.2980 C   0  0  0  0  0  0  0  0  0  0  0  0
   57.3080   33.0780   45.2940 C   0  0  0  0  0  0  0  0  0  0  0  0
   58.2520   33.8290   46.0180 C   0  0  0  0  0  0  0  0  0  0  0  0
   59.2840   33.1560   46.6760 C   0  0  0  0  0  0  0  0  0  0  0  0
   60.3150   33.7260   47.4530 C   0  0  0  0  0  0  0  0  0  0  0  0
   60.3980   34.9650   47.6640 O   0  0  0  0  0  0  0  0  0  0  0  0
   62.2480   33.9600   49.9200 C   0  0  0  0  0  0  0  0  0  0  0  0
   63.3690   34.2190   50.7140 C   0  0  0  0  0  0  0  0  0  0  0  0
   65.6884   34.3839   53.2631 H   0  0  0  0  0  0  0  0  0  0  0  0
   66.5653   35.5389   52.2030 H   0  0  0  0  0  0  0  0  0  0  0  0
   64.7693   35.5056   52.2030 H   0  0  0  0  0  0  0  0  0  0  0  0
   65.6693   32.3072   49.0605 H   0  0  0  0  0  0  0  0  0  0  0  0
   63.6759   31.8484   47.6411 H   0  0  0  0  0  0  0  0  0  0  0  0
   58.5270   29.9069   45.8751 H   0  0  0  0  0  0  0  0  0  0  0  0
   57.0511   29.2483   43.5547 H   0  0  0  0  0  0  0  0  0  0  0  0
   55.7596   30.1660   42.7082 H   0  0  0  0  0  0  0  0  0  0  0  0
   57.4468   30.7825   42.7082 H   0  0  0  0  0  0  0  0  0  0  0  0
   56.4922   33.5961   44.7686 H   0  0  0  0  0  0  0  0  0  0  0  0
   58.1787   34.9255   46.0650 H   0  0  0  0  0  0  0  0  0  0  0  0
   61.2861   34.4362   50.1607 H   0  0  0  0  0  0  0  0  0  0  0  0
   63.2800   34.8921   51.5795 H   0  0  0  0  0  0  0  0  0  0  0  0
  1  2  1  0
  2  3  1  0
  3  4  2  0
  4  5  1  0
  5  6  2  0
  6  7  1  0
  7  8  1  0
  8  9  1  0
  9 10  2  0
 10 11  1  0
 11 12  1  0
 12 13  1  0
 11 14  2  0
 14 15  1  0
 15 16  2  0
 16 17  1  0
 17 18  2  0
  6 19  1  0
 19 20  2  0
 20  3  1  0
 17  7  1  0
 16  9  1  0
  1 21  1  0
  1 22  1  0
  1 23  1  0
  4 24  1  0
  5 25  1  0
 10 26  1  0
 13 27  1  0
 13 28  1  0
 13 29  1  0
 14 30  1  0
 15 31  1  0
 19 32  1  0
 20 33  1  0
M  END
>  <UniqueID>  (48) 
46

>  <SMILES>  (48) 
COc1ccc(-n2sc3cc(OC)ccc3c2=O)cc1

>  <Energy>  (48) 
78.84581938636848

>  <Genealogy>  (48) 
COc1ccc(-n2sc3cc(OC)ccc3c2=O)cc1 (3D coordinates assigned)
COc1ccc(-n2sc3cc(OC)ccc3c2=O)cc1 (optimized conformer: 78.84581938636848 kcal/mol)

>  <smiles>  (48) 
COc1ccc(-n2sc3cc(OC)ccc3c2=O)cc1

>  <score_type>  (48) 
oracle

>  <origin>  (48) 
adg

>  <m_score__min__energy>  (48) 
-6.2000000000000002

>  <m_primary>  (48) 
energy

$$$$
