0:0
     RDKit          3D

 32 33  0  0  0  0  0  0  0  0999 V2000
   62.1690   33.6060   47.5220 C   0  0  0  0  0  0  0  0  0  0  0  0
   61.2010   34.2010   48.5400 C   0  0  0  0  0  0  0  0  0  0  0  0
   59.9750   34.5770   47.9120 O   0  0  0  0  0  0  0  0  0  0  0  0
   59.3430   33.8830   46.8650 C   0  0  0  0  0  0  0  0  0  0  0  0
   59.3030   34.3780   45.5460 C   0  0  0  0  0  0  0  0  0  0  0  0
   58.6640   33.6500   44.5390 C   0  0  0  0  0  0  0  0  0  0  0  0
   58.0660   32.4200   44.8300 C   0  0  0  0  0  0  0  0  0  0  0  0
   57.2540   31.4810   43.5350 S   0  0  0  0  0  0  0  0  0  0  0  0
   57.5650   29.9040   44.3470 C   0  0  0  0  0  0  0  0  0  0  0  0
   58.8880   29.4500   44.4370 C   0  0  0  0  0  0  0  0  0  0  0  0
   59.1740   28.2220   45.0360 C   0  0  0  0  0  0  0  0  0  0  0  0
   58.1410   27.4390   45.5550 C   0  0  0  0  0  0  0  0  0  0  0  0
   58.5340   25.7580   46.3720 Br  0  0  0  0  0  0  0  0  0  0  0  0
   56.8190   27.8880   45.4810 C   0  0  0  0  0  0  0  0  0  0  0  0
   56.5180   29.1230   44.8840 C   0  0  0  0  0  0  0  0  0  0  0  0
   55.1560   29.5660   44.8450 N   0  0  0  0  0  0  0  0  0  0  0  0
   58.0980   31.9260   46.1380 C   0  0  0  0  0  0  0  0  0  0  0  0
   58.7350   32.6490   47.1490 C   0  0  0  0  0  0  0  0  0  0  0  0
   58.7650   31.9350   48.9250 Br  0  0  0  0  0  0  0  0  0  0  0  0
   62.9912   33.1006   48.0498 H   0  0  0  0  0  0  0  0  0  0  0  0
   61.6366   32.8790   46.8911 H   0  0  0  0  0  0  0  0  0  0  0  0
   62.5772   34.4093   46.8911 H   0  0  0  0  0  0  0  0  0  0  0  0
   60.9927   33.4536   49.3197 H   0  0  0  0  0  0  0  0  0  0  0  0
   61.6605   35.0970   48.9827 H   0  0  0  0  0  0  0  0  0  0  0  0
   59.7770   35.3418   45.3082 H   0  0  0  0  0  0  0  0  0  0  0  0
   58.6313   34.0461   43.5133 H   0  0  0  0  0  0  0  0  0  0  0  0
   59.7058   30.0650   44.0332 H   0  0  0  0  0  0  0  0  0  0  0  0
   60.2145   27.8707   45.0992 H   0  0  0  0  0  0  0  0  0  0  0  0
   56.0085   27.2692   45.8935 H   0  0  0  0  0  0  0  0  0  0  0  0
   54.3800   28.9480   44.5240 H   0  0  0  0  0  0  0  0  0  0  0  0
   54.9110   30.5460   45.1120 H   0  0  0  0  0  0  0  0  0  0  0  0
   57.6193   30.9636   46.3716 H   0  0  0  0  0  0  0  0  0  0  0  0
  1  2  1  0
  2  3  1  0
  3  4  1  0
  4  5  2  0
  5  6  1  0
  6  7  2  0
  7  8  1  0
  8  9  1  0
  9 10  2  0
 10 11  1  0
 11 12  2  0
 12 13  1  0
 12 14  1  0
 14 15  2  0
 15 16  1  0
  7 17  1  0
 17 18  2  0
 18 19  1  0
 18  4  1  0
 15  9  1  0
  1 20  1  0
  1 21  1  0
  1 22  1  0
  2 23  1  0
  2 24  1  0
  5 25  1  0
  6 26  1  0
 10 27  1  0
 11 28  1  0
 14 29  1  0
 16 30  1  0
 16 31  1  0
 17 32  1  0
M  END
>  <UniqueID>  (1) 
1

>  <SMILES>  (1) 
CCOc1ccc(Sc2ccc(Br)cc2N)cc1Br

>  <Energy>  (1) 
26.196146764226324

>  <Genealogy>  (1) 
CCOc1ccc(Sc2ccc(Br)cc2N)cc1Br (3D coordinates assigned)
CCOc1ccc(Sc2ccc(Br)cc2N)cc1Br (optimized conformer: 26.196146764226324 kcal/mol)

>  <smiles>  (1) 
CCOc1ccc(Sc2ccc(Br)cc2N)cc1Br

>  <score_type>  (1) 
oracle

>  <origin>  (1) 
adg

>  <m_score__min__energy>  (1) 
-7.9900000000000002

>  <m_primary>  (1) 
energy

$$$$
1:0
     RDKit          3D

 53 56  0  0  0  0  0  0  0  0999 V2000
   59.2670   35.2970   44.8840 C   0  0  0  0  0  0  0  0  0  0  0  0
   58.0410   34.3930   44.8810 C   0  0  0  0  0  0  0  0  0  0  0  0
   58.2810   33.2080   45.7040 N   0  0  0  0  0  0  0  0  0  0  0  0
   58.9320   33.1890   46.8910 C   0  0  0  0  0  0  0  0  0  0  0  0
   59.0440   31.8830   47.3550 C   0  0  0  0  0  0  0  0  0  0  0  0
   59.7700   31.4300   48.5880 C   0  0  0  0  0  0  0  0  0  0  0  0
   61.2710   31.7480   48.4730 C   0  0  0  0  0  0  0  0  0  0  0  0
   61.5590   33.2080   48.4820 N   0  0  0  0  0  0  0  0  0  0  0  0
   62.5940   33.6010   49.4670 C   0  0  0  0  0  0  0  0  0  0  0  0
   63.9830   33.0180   49.1220 C   0  0  0  0  0  0  0  0  0  0  0  0
   64.1230   32.7110   47.6900 N   0  0  0  0  0  0  0  0  0  0  0  0
   63.4460   33.7140   46.8630 C   0  0  0  0  0  0  0  0  0  0  0  0
   61.9220   33.6960   47.1230 C   0  0  0  0  0  0  0  0  0  0  0  0
   58.4600   31.0870   46.3880 C   0  0  0  0  0  0  0  0  0  0  0  0
   58.3360   29.7010   46.3010 C   0  0  0  0  0  0  0  0  0  0  0  0
   57.7160   29.1530   45.1550 C   0  0  0  0  0  0  0  0  0  0  0  0
   57.5660   27.6820   45.0170 C   0  0  0  0  0  0  0  0  0  0  0  0
   57.9070   27.0370   43.8130 C   0  0  0  0  0  0  0  0  0  0  0  0
   57.7690   25.6510   43.6880 C   0  0  0  0  0  0  0  0  0  0  0  0
   57.2890   24.8950   44.7600 C   0  0  0  0  0  0  0  0  0  0  0  0
   56.9460   25.5230   45.9590 C   0  0  0  0  0  0  0  0  0  0  0  0
   57.0830   26.9080   46.0900 C   0  0  0  0  0  0  0  0  0  0  0  0
   57.2470   30.0240   44.1350 C   0  0  0  0  0  0  0  0  0  0  0  0
   57.3940   31.4180   44.2510 C   0  0  0  0  0  0  0  0  0  0  0  0
   58.0080   31.9210   45.3990 C   0  0  0  0  0  0  0  0  0  0  0  0
   59.5605   35.5134   45.9218 H   0  0  0  0  0  0  0  0  0  0  0  0
   60.0960   34.7923   44.3662 H   0  0  0  0  0  0  0  0  0  0  0  0
   59.0299   36.2381   44.3662 H   0  0  0  0  0  0  0  0  0  0  0  0
   57.1808   34.9470   45.2850 H   0  0  0  0  0  0  0  0  0  0  0  0
   57.8338   34.0751   43.8485 H   0  0  0  0  0  0  0  0  0  0  0  0
   59.3165   34.0778   47.4127 H   0  0  0  0  0  0  0  0  0  0  0  0
   59.3554   31.9496   49.4644 H   0  0  0  0  0  0  0  0  0  0  0  0
   59.6427   30.3430   48.6983 H   0  0  0  0  0  0  0  0  0  0  0  0
   61.7938   31.2825   49.3215 H   0  0  0  0  0  0  0  0  0  0  0  0
   61.6183   31.3503   47.5080 H   0  0  0  0  0  0  0  0  0  0  0  0
   60.6700   33.6950   48.7540 H   0  0  0  0  0  0  0  0  0  0  0  0
   62.6657   34.6985   49.4860 H   0  0  0  0  0  0  0  0  0  0  0  0
   62.2950   33.2011   50.4471 H   0  0  0  0  0  0  0  0  0  0  0  0
   64.7534   33.7511   49.4030 H   0  0  0  0  0  0  0  0  0  0  0  0
   64.0994   32.0769   49.6795 H   0  0  0  0  0  0  0  0  0  0  0  0
   65.1420   32.7220   47.4490 H   0  0  0  0  0  0  0  0  0  0  0  0
   63.8424   34.7107   47.1068 H   0  0  0  0  0  0  0  0  0  0  0  0
   63.6275   33.4806   45.8035 H   0  0  0  0  0  0  0  0  0  0  0  0
   61.5363   34.7194   47.0056 H   0  0  0  0  0  0  0  0  0  0  0  0
   61.4775   32.9981   46.3982 H   0  0  0  0  0  0  0  0  0  0  0  0
   58.7114   29.0500   47.1043 H   0  0  0  0  0  0  0  0  0  0  0  0
   58.2845   27.6272   42.9649 H   0  0  0  0  0  0  0  0  0  0  0  0
   58.0389   25.1553   42.7439 H   0  0  0  0  0  0  0  0  0  0  0  0
   57.1812   23.8049   44.6596 H   0  0  0  0  0  0  0  0  0  0  0  0
   56.5672   24.9267   46.8022 H   0  0  0  0  0  0  0  0  0  0  0  0
   56.8118   27.3966   47.0375 H   0  0  0  0  0  0  0  0  0  0  0  0
   56.7622   29.6022   43.2422 H   0  0  0  0  0  0  0  0  0  0  0  0
   57.0353   32.0925   43.4595 H   0  0  0  0  0  0  0  0  0  0  0  0
  1  2  1  0
  2  3  1  0
  3  4  1  0
  4  5  2  0
  5  6  1  0
  6  7  1  0
  7  8  1  0
  8  9  1  0
  9 10  1  0
 10 11  1  0
 11 12  1  0
 12 13  1  0
  5 14  1  0
 14 15  2  0
 15 16  1  0
 16 17  1  0
 17 18  2  0
 18 19  1  0
 19 20  2  0
 20 21  1  0
 21 22  2  0
 16 23  2  0
 23 24  1  0
 24 25  2  0
 25  3  1  0
 13  8  1  0
 25 14  1  0
 22 17  1  0
  1 26  1  0
  1 27  1  0
  1 28  1  0
  2 29  1  0
  2 30  1  0
  4 31  1  0
  6 32  1  0
  6 33  1  0
  7 34  1  0
  7 35  1  0
  8 36  1  0
  9 37  1  0
  9 38  1  0
 10 39  1  0
 10 40  1  0
 11 41  1  0
 12 42  1  0
 12 43  1  0
 13 44  1  0
 13 45  1  0
 15 46  1  0
 18 47  1  0
 19 48  1  0
 20 49  1  0
 21 50  1  0
 22 51  1  0
 23 52  1  0
 24 53  1  0
M  CHG  1   8   1
M  END
>  <UniqueID>  (2) 
2

>  <SMILES>  (2) 
CCn1cc(CC[NH+]2CCNCC2)c2cc(-c3ccccc3)ccc21

>  <Energy>  (2) 
99.2080043542398

>  <Genealogy>  (2) 
CCn1cc(CC[NH+]2CCNCC2)c2cc(-c3ccccc3)ccc21 (protonated)
CCn1cc(CC[NH+]2CCNCC2)c2cc(-c3ccccc3)ccc21 (3D coordinates assigned)
CCn1cc(CC[NH+]2CCNCC2)c2cc(-c3ccccc3)ccc21 (nonaromatic ring conformer: 99.2080043542398 kcal/mol)

>  <smiles>  (2) 
CCn1cc(CCN2CCNCC2)c2cc(-c3ccccc3)ccc21

>  <score_type>  (2) 
oracle

>  <origin>  (2) 
adg

>  <m_score__min__energy>  (2) 
-6.8300000000000001

>  <m_primary>  (2) 
energy

$$$$
2:0
     RDKit          3D

 41 43  0  0  0  0  0  0  0  0999 V2000
   56.2670   29.7510   42.6030 C   0  0  0  0  0  0  0  0  0  0  0  0
   55.5100   29.7780   43.9260 C   0  0  0  0  0  0  0  0  0  0  0  0
   56.1790   28.9840   44.9080 O   0  0  0  0  0  0  0  0  0  0  0  0
   57.3460   29.3510   45.5960 C   0  0  0  0  0  0  0  0  0  0  0  0
   57.7750   28.7060   46.7720 C   0  0  0  0  0  0  0  0  0  0  0  0
   58.9360   29.1280   47.4260 C   0  0  0  0  0  0  0  0  0  0  0  0
   59.6710   30.2150   46.9330 C   0  0  0  0  0  0  0  0  0  0  0  0
   61.0920   30.7950   47.8140 S   0  0  0  0  0  0  0  0  0  0  0  0
   62.2490   30.9050   46.8600 O   0  0  0  0  0  0  0  0  0  0  0  0
   61.4500   29.7680   48.8510 O   0  0  0  0  0  0  0  0  0  0  0  0
   60.8360   32.3340   48.6200 N   0  0  0  0  0  0  0  0  0  0  0  0
   61.7370   33.4040   48.1600 C   0  0  0  0  0  0  0  0  0  0  0  0
   61.4330   33.8670   46.7270 C   0  0  0  0  0  0  0  0  0  0  0  0
   59.9580   33.9330   46.4280 C   0  0  0  0  0  0  0  0  0  0  0  0
   59.5360   34.4830   45.2070 C   0  0  0  0  0  0  0  0  0  0  0  0
   58.1800   34.5000   44.8720 C   0  0  0  0  0  0  0  0  0  0  0  0
   57.2350   33.9690   45.7520 C   0  0  0  0  0  0  0  0  0  0  0  0
   57.6430   33.4140   46.9660 C   0  0  0  0  0  0  0  0  0  0  0  0
   59.0060   33.3690   47.3030 C   0  0  0  0  0  0  0  0  0  0  0  0
   59.4280   32.7590   48.6170 C   0  0  0  0  0  0  0  0  0  0  0  0
   59.2650   30.8340   45.7430 C   0  0  0  0  0  0  0  0  0  0  0  0
   58.1070   30.4100   45.0880 C   0  0  0  0  0  0  0  0  0  0  0  0
   57.3485   29.7124   42.8001 H   0  0  0  0  0  0  0  0  0  0  0  0
   55.9673   28.8630   42.0271 H   0  0  0  0  0  0  0  0  0  0  0  0
   56.0314   30.6581   42.0271 H   0  0  0  0  0  0  0  0  0  0  0  0
   55.4457   30.8161   44.2839 H   0  0  0  0  0  0  0  0  0  0  0  0
   54.5027   29.3662   43.7652 H   0  0  0  0  0  0  0  0  0  0  0  0
   57.1932   27.8654   47.1782 H   0  0  0  0  0  0  0  0  0  0  0  0
   59.2746   28.6044   48.3322 H   0  0  0  0  0  0  0  0  0  0  0  0
   61.6332   34.2652   48.8365 H   0  0  0  0  0  0  0  0  0  0  0  0
   62.7599   32.9994   48.1661 H   0  0  0  0  0  0  0  0  0  0  0  0
   61.8645   34.8687   46.5837 H   0  0  0  0  0  0  0  0  0  0  0  0
   61.8737   33.1271   46.0427 H   0  0  0  0  0  0  0  0  0  0  0  0
   60.2770   34.9026   44.5107 H   0  0  0  0  0  0  0  0  0  0  0  0
   57.8563   34.9323   43.9137 H   0  0  0  0  0  0  0  0  0  0  0  0
   56.1673   33.9881   45.4882 H   0  0  0  0  0  0  0  0  0  0  0  0
   56.8935   33.0098   47.6623 H   0  0  0  0  0  0  0  0  0  0  0  0
   59.2838   33.5041   49.4132 H   0  0  0  0  0  0  0  0  0  0  0  0
   58.8106   31.8635   48.7808 H   0  0  0  0  0  0  0  0  0  0  0  0
   59.8612   31.6575   45.3231 H   0  0  0  0  0  0  0  0  0  0  0  0
   57.7896   30.9136   44.1630 H   0  0  0  0  0  0  0  0  0  0  0  0
  1  2  1  0
  2  3  1  0
  3  4  1  0
  4  5  2  0
  5  6  1  0
  6  7  2  0
  7  8  1  0
  8  9  2  0
  8 10  2  0
  8 11  1  0
 11 12  1  0
 12 13  1  0
 13 14  1  0
 14 15  2  0
 15 16  1  0
 16 17  2  0
 17 18  1  0
 18 19  2  0
 19 20  1  0
  7 21  1  0
 21 22  2  0
 22  4  1  0
 20 11  1  0
 19 14  1  0
  1 23  1  0
  1 24  1  0
  1 25  1  0
  2 26  1  0
  2 27  1  0
  5 28  1  0
  6 29  1  0
 12 30  1  0
 12 31  1  0
 13 32  1  0
 13 33  1  0
 15 34  1  0
 16 35  1  0
 17 36  1  0
 18 37  1  0
 20 38  1  0
 20 39  1  0
 21 40  1  0
 22 41  1  0
M  END
>  <UniqueID>  (3) 
3

>  <SMILES>  (3) 
CCOc1ccc(S(=O)(=O)N2CCc3ccccc3C2)cc1

>  <Energy>  (3) 
43.7384407022265

>  <Genealogy>  (3) 
CCOc1ccc(S(=O)(=O)N2CCc3ccccc3C2)cc1 (3D coordinates assigned)
CCOc1ccc(S(=O)(=O)N2CCc3ccccc3C2)cc1 (nonaromatic ring conformer: 43.7384407022265 kcal/mol)

>  <smiles>  (3) 
CCOc1ccc(S(=O)(=O)N2CCc3ccccc3C2)cc1

>  <score_type>  (3) 
oracle

>  <origin>  (3) 
adg

>  <m_score__min__energy>  (3) 
-7.5999999999999996

>  <m_primary>  (3) 
energy

$$$$
3:0
     RDKit          3D

 79 82  0  0  0  0  0  0  0  0999 V2000
   59.6340   22.1220   44.5000 C   0  0  0  0  0  0  0  0  0  0  0  0
   58.8160   22.8420   45.5780 C   0  0  0  0  0  0  0  0  0  0  0  0
   57.5540   22.1130   45.9120 N   0  0  0  0  0  0  0  0  0  0  0  0
   56.9330   22.5910   47.1740 C   0  0  0  0  0  0  0  0  0  0  0  0
   55.4140   22.3870   47.1960 C   0  0  0  0  0  0  0  0  0  0  0  0
   57.7600   20.6410   45.9360 C   0  0  0  0  0  0  0  0  0  0  0  0
   56.6340   19.8300   45.2470 C   0  0  0  0  0  0  0  0  0  0  0  0
   55.8960   20.6390   44.2640 N   0  0  0  0  0  0  0  0  0  0  0  0
   56.6620   20.9100   43.0320 C   0  0  0  0  0  0  0  0  0  0  0  0
   56.6190   22.3920   42.6460 C   0  0  0  0  0  0  0  0  0  0  0  0
   56.1390   23.1590   43.7460 O   0  0  0  0  0  0  0  0  0  0  0  0
   56.5810   24.4540   44.0580 C   0  0  0  0  0  0  0  0  0  0  0  0
   57.4020   25.2010   43.1920 C   0  0  0  0  0  0  0  0  0  0  0  0
   57.8210   26.4860   43.5470 C   0  0  0  0  0  0  0  0  0  0  0  0
   57.4340   27.0470   44.7760 C   0  0  0  0  0  0  0  0  0  0  0  0
   57.8870   28.4110   45.1470 C   0  0  0  0  0  0  0  0  0  0  0  0
   59.0380   28.5730   45.9350 C   0  0  0  0  0  0  0  0  0  0  0  0
   59.4510   29.7820   46.3000 O   0  0  0  0  0  0  0  0  0  0  0  0
   58.8140   30.8920   45.9510 C   0  0  0  0  0  0  0  0  0  0  0  0
   59.3010   32.1310   46.3790 C   0  0  0  0  0  0  0  0  0  0  0  0
   58.6440   33.3170   46.0310 C   0  0  0  0  0  0  0  0  0  0  0  0
   59.1800   34.5270   46.5010 O   0  0  0  0  0  0  0  0  0  0  0  0
   59.3790   34.8740   47.8730 C   0  0  0  0  0  0  0  0  0  0  0  0
   60.7950   34.5190   48.3400 C   0  0  0  0  0  0  0  0  0  0  0  0
   60.8420   33.1220   48.9990 C   0  0  0  0  0  0  0  0  0  0  0  0
   61.9150   32.2360   48.4870 N   0  0  0  0  0  0  0  0  0  0  0  0
   63.1220   32.2240   49.3240 C   0  0  0  0  0  0  0  0  0  0  0  0
   64.1900   33.0520   48.6220 C   0  0  0  0  0  0  0  0  0  0  0  0
   63.7210   33.2050   47.1860 C   0  0  0  0  0  0  0  0  0  0  0  0
   62.3440   32.5540   47.1180 C   0  0  0  0  0  0  0  0  0  0  0  0
   57.4810   33.2530   45.2410 C   0  0  0  0  0  0  0  0  0  0  0  0
   56.9880   32.0180   44.8050 C   0  0  0  0  0  0  0  0  0  0  0  0
   57.6480   30.8290   45.1560 C   0  0  0  0  0  0  0  0  0  0  0  0
   57.1810   29.5640   44.7560 C   0  0  0  0  0  0  0  0  0  0  0  0
   56.1240   29.4630   44.0720 O   0  0  0  0  0  0  0  0  0  0  0  0
   56.6060   26.3040   45.6350 C   0  0  0  0  0  0  0  0  0  0  0  0
   56.1860   25.0190   45.2770 C   0  0  0  0  0  0  0  0  0  0  0  0
   60.3771   21.4679   44.9794 H   0  0  0  0  0  0  0  0  0  0  0  0
   58.9625   21.5165   43.8735 H   0  0  0  0  0  0  0  0  0  0  0  0
   60.1493   22.8649   43.8735 H   0  0  0  0  0  0  0  0  0  0  0  0
   59.4273   22.9270   46.4885 H   0  0  0  0  0  0  0  0  0  0  0  0
   58.5399   23.8322   45.1866 H   0  0  0  0  0  0  0  0  0  0  0  0
   56.8540   22.2680   45.1460 H   0  0  0  0  0  0  0  0  0  0  0  0
   57.3752   22.0382   48.0160 H   0  0  0  0  0  0  0  0  0  0  0  0
   57.1259   23.6711   47.2527 H   0  0  0  0  0  0  0  0  0  0  0  0
   55.0654   22.3402   48.2382 H   0  0  0  0  0  0  0  0  0  0  0  0
   54.9237   23.2274   46.6828 H   0  0  0  0  0  0  0  0  0  0  0  0
   55.1628   21.4471   46.6828 H   0  0  0  0  0  0  0  0  0  0  0  0
   58.7082   20.4172   45.4253 H   0  0  0  0  0  0  0  0  0  0  0  0
   57.7639   20.3399   46.9940 H   0  0  0  0  0  0  0  0  0  0  0  0
   57.0815   18.9668   44.7326 H   0  0  0  0  0  0  0  0  0  0  0  0
   55.9244   19.5061   46.0226 H   0  0  0  0  0  0  0  0  0  0  0  0
   55.5550   21.5180   44.7210 H   0  0  0  0  0  0  0  0  0  0  0  0
   57.7094   20.6147   43.1924 H   0  0  0  0  0  0  0  0  0  0  0  0
   56.2074   20.3317   42.2141 H   0  0  0  0  0  0  0  0  0  0  0  0
   57.6309   22.7299   42.3780 H   0  0  0  0  0  0  0  0  0  0  0  0
   55.9461   22.5260   41.7862 H   0  0  0  0  0  0  0  0  0  0  0  0
   57.7157   24.7704   42.2296 H   0  0  0  0  0  0  0  0  0  0  0  0
   58.4580   27.0622   42.8599 H   0  0  0  0  0  0  0  0  0  0  0  0
   59.6056   27.6866   46.2546 H   0  0  0  0  0  0  0  0  0  0  0  0
   60.2106   32.1741   46.9961 H   0  0  0  0  0  0  0  0  0  0  0  0
   59.2227   35.9560   47.9948 H   0  0  0  0  0  0  0  0  0  0  0  0
   58.6609   34.3049   48.4817 H   0  0  0  0  0  0  0  0  0  0  0  0
   61.4701   34.5271   47.4715 H   0  0  0  0  0  0  0  0  0  0  0  0
   61.1080   35.2631   49.0872 H   0  0  0  0  0  0  0  0  0  0  0  0
   60.9947   33.2571   50.0799 H   0  0  0  0  0  0  0  0  0  0  0  0
   59.8883   32.6300   48.7572 H   0  0  0  0  0  0  0  0  0  0  0  0
   62.8980   32.6610   50.3083 H   0  0  0  0  0  0  0  0  0  0  0  0
   63.4742   31.1924   49.4718 H   0  0  0  0  0  0  0  0  0  0  0  0
   64.2856   34.0379   49.1004 H   0  0  0  0  0  0  0  0  0  0  0  0
   65.1762   32.5678   48.6753 H   0  0  0  0  0  0  0  0  0  0  0  0
   63.6533   34.2697   46.9181 H   0  0  0  0  0  0  0  0  0  0  0  0
   64.4229   32.7339   46.4822 H   0  0  0  0  0  0  0  0  0  0  0  0
   61.6270   33.2482   46.6555 H   0  0  0  0  0  0  0  0  0  0  0  0
   62.3883   31.6368   46.5124 H   0  0  0  0  0  0  0  0  0  0  0  0
   56.9563   34.1794   44.9646 H   0  0  0  0  0  0  0  0  0  0  0  0
   56.0802   31.9783   44.1851 H   0  0  0  0  0  0  0  0  0  0  0  0
   56.2864   26.7359   46.5948 H   0  0  0  0  0  0  0  0  0  0  0  0
   55.5397   24.4470   45.9589 H   0  0  0  0  0  0  0  0  0  0  0  0
  1  2  1  0
  2  3  1  0
  3  4  1  0
  4  5  1  0
  3  6  1  0
  6  7  1  0
  7  8  1  0
  8  9  1  0
  9 10  1  0
 10 11  1  0
 11 12  1  0
 12 13  2  0
 13 14  1  0
 14 15  2  0
 15 16  1  0
 16 17  2  0
 17 18  1  0
 18 19  1  0
 19 20  2  0
 20 21  1  0
 21 22  1  0
 22 23  1  0
 23 24  1  0
 24 25  1  0
 25 26  1  0
 26 27  1  0
 27 28  1  0
 28 29  1  0
 29 30  1  0
 21 31  2  0
 31 32  1  0
 32 33  2  0
 33 34  1  0
 34 35  2  0
 15 36  1  0
 36 37  2  0
 37 12  1  0
 34 16  1  0
 33 19  1  0
 30 26  1  0
  1 38  1  0
  1 39  1  0
  1 40  1  0
  2 41  1  0
  2 42  1  0
  3 43  1  0
  4 44  1  0
  4 45  1  0
  5 46  1  0
  5 47  1  0
  5 48  1  0
  6 49  1  0
  6 50  1  0
  7 51  1  0
  7 52  1  0
  8 53  1  0
  9 54  1  0
  9 55  1  0
 10 56  1  0
 10 57  1  0
 13 58  1  0
 14 59  1  0
 17 60  1  0
 20 61  1  0
 23 62  1  0
 23 63  1  0
 24 64  1  0
 24 65  1  0
 25 66  1  0
 25 67  1  0
 27 68  1  0
 27 69  1  0
 28 70  1  0
 28 71  1  0
 29 72  1  0
 29 73  1  0
 30 74  1  0
 30 75  1  0
 31 76  1  0
 32 77  1  0
 36 78  1  0
 37 79  1  0
M  CHG  1   3   1
M  END
>  <UniqueID>  (4) 
4

>  <SMILES>  (4) 
CC[NH+](CC)CCNCCOc1ccc(-c2coc3cc(OCCCN4CCCC4)ccc3c2=O)cc1

>  <Energy>  (4) 
99.42117445899625

>  <Genealogy>  (4) 
CC[NH+](CC)CCNCCOc1ccc(-c2coc3cc(OCCCN4CCCC4)ccc3c2=O)cc1 (protonated)
CC[NH+](CC)CCNCCOc1ccc(-c2coc3cc(OCCCN4CCCC4)ccc3c2=O)cc1 (3D coordinates assigned)
CC[NH+](CC)CCNCCOc1ccc(-c2coc3cc(OCCCN4CCCC4)ccc3c2=O)cc1 (nonaromatic ring conformer: 99.42117445899625 kcal/mol)

>  <smiles>  (4) 
CCN(CC)CCNCCOc1ccc(-c2coc3cc(OCCCN4CCCC4)ccc3c2=O)cc1

>  <score_type>  (4) 
oracle

>  <origin>  (4) 
adg

>  <m_score__min__energy>  (4) 
-5.6500000000000004

>  <m_primary>  (4) 
energy

$$$$
4:0
     RDKit          3D

 53 55  0  0  0  0  0  0  0  0999 V2000
   62.9690   34.0390   46.3710 C   0  0  0  0  0  0  0  0  0  0  0  0
   63.5740   33.8570   47.7700 C   0  0  0  0  0  0  0  0  0  0  0  0
   63.8250   32.4510   48.1950 N   0  0  0  0  0  0  0  0  0  0  0  0
   64.1100   32.2540   49.6450 C   0  0  0  0  0  0  0  0  0  0  0  0
   65.5590   32.5040   50.0840 C   0  0  0  0  0  0  0  0  0  0  0  0
   62.9590   31.4170   47.5600 C   0  0  0  0  0  0  0  0  0  0  0  0
   61.8740   30.8140   48.4710 C   0  0  0  0  0  0  0  0  0  0  0  0
   60.8130   31.8560   48.8360 C   0  0  0  0  0  0  0  0  0  0  0  0
   59.4790   31.3300   48.5510 N   0  0  0  0  0  0  0  0  0  0  0  0
   58.9430   31.4030   47.2220 C   0  0  0  0  0  0  0  0  0  0  0  0
   58.9280   32.6040   46.4740 C   0  0  0  0  0  0  0  0  0  0  0  0
   59.3670   33.8140   47.0410 C   0  0  0  0  0  0  0  0  0  0  0  0
   59.3520   34.9930   46.2970 C   0  0  0  0  0  0  0  0  0  0  0  0
   58.8920   34.9870   44.9820 C   0  0  0  0  0  0  0  0  0  0  0  0
   58.4350   33.8060   44.3990 C   0  0  0  0  0  0  0  0  0  0  0  0
   58.4340   32.5910   45.1230 C   0  0  0  0  0  0  0  0  0  0  0  0
   57.9700   31.4130   44.5600 N   0  0  0  0  0  0  0  0  0  0  0  0
   57.4650   31.3500   43.1800 C   0  0  0  0  0  0  0  0  0  0  0  0
   57.9900   30.2800   45.3210 C   0  0  0  0  0  0  0  0  0  0  0  0
   57.6100   29.0800   44.9500 O   0  0  0  0  0  0  0  0  0  0  0  0
   57.8120   28.2690   45.9720 C   0  0  0  0  0  0  0  0  0  0  0  0
   57.5250   26.8070   45.9460 C   0  0  0  0  0  0  0  0  0  0  0  0
   58.3430   28.9620   47.0540 C   0  0  0  0  0  0  0  0  0  0  0  0
   58.4450   30.2620   46.6070 C   0  0  0  0  0  0  0  0  0  0  0  0
   61.9194   34.3548   46.4637 H   0  0  0  0  0  0  0  0  0  0  0  0
   63.5358   34.8064   45.8234 H   0  0  0  0  0  0  0  0  0  0  0  0
   63.0183   33.0863   45.8234 H   0  0  0  0  0  0  0  0  0  0  0  0
   64.5347   34.3923   47.7935 H   0  0  0  0  0  0  0  0  0  0  0  0
   62.8229   34.2493   48.4714 H   0  0  0  0  0  0  0  0  0  0  0  0
   64.7600   32.2520   47.7600 H   0  0  0  0  0  0  0  0  0  0  0  0
   63.4632   32.9399   50.2117 H   0  0  0  0  0  0  0  0  0  0  0  0
   63.9186   31.1891   49.8436 H   0  0  0  0  0  0  0  0  0  0  0  0
   65.6129   32.5133   51.1826 H   0  0  0  0  0  0  0  0  0  0  0  0
   66.2041   31.7039   49.6920 H   0  0  0  0  0  0  0  0  0  0  0  0
   65.8987   33.4740   49.6920 H   0  0  0  0  0  0  0  0  0  0  0  0
   62.4586   31.8777   46.6955 H   0  0  0  0  0  0  0  0  0  0  0  0
   63.6269   30.5849   47.2925 H   0  0  0  0  0  0  0  0  0  0  0  0
   61.3894   29.9776   47.9460 H   0  0  0  0  0  0  0  0  0  0  0  0
   62.3527   30.4659   49.3982 H   0  0  0  0  0  0  0  0  0  0  0  0
   60.8896   32.0946   49.9071 H   0  0  0  0  0  0  0  0  0  0  0  0
   60.9785   32.7652   48.2393 H   0  0  0  0  0  0  0  0  0  0  0  0
   59.1360   30.5580   49.1660 H   0  0  0  0  0  0  0  0  0  0  0  0
   59.7254   33.8302   48.0808 H   0  0  0  0  0  0  0  0  0  0  0  0
   59.7047   35.9313   46.7499 H   0  0  0  0  0  0  0  0  0  0  0  0
   58.8894   35.9203   44.3998 H   0  0  0  0  0  0  0  0  0  0  0  0
   58.0701   33.8193   43.3614 H   0  0  0  0  0  0  0  0  0  0  0  0
   56.3736   31.2138   43.1948 H   0  0  0  0  0  0  0  0  0  0  0  0
   57.7107   32.2858   42.6566 H   0  0  0  0  0  0  0  0  0  0  0  0
   57.9331   30.5033   42.6566 H   0  0  0  0  0  0  0  0  0  0  0  0
   57.4509   26.4295   46.9765 H   0  0  0  0  0  0  0  0  0  0  0  0
   56.5748   26.6291   45.4211 H   0  0  0  0  0  0  0  0  0  0  0  0
   58.3374   26.2831   45.4211 H   0  0  0  0  0  0  0  0  0  0  0  0
   58.6188   28.5637   48.0416 H   0  0  0  0  0  0  0  0  0  0  0  0
  1  2  1  0
  2  3  1  0
  3  4  1  0
  4  5  1  0
  3  6  1  0
  6  7  1  0
  7  8  1  0
  8  9  1  0
  9 10  1  0
 10 11  2  0
 11 12  1  0
 12 13  2  0
 13 14  1  0
 14 15  2  0
 15 16  1  0
 16 17  2  0
 17 18  1  0
 17 19  1  0
 19 20  1  0
 20 21  1  0
 21 22  1  0
 21 23  2  0
 23 24  1  0
 24 10  1  0
 16 11  1  0
 24 19  2  0
  1 25  1  0
  1 26  1  0
  1 27  1  0
  2 28  1  0
  2 29  1  0
  3 30  1  0
  4 31  1  0
  4 32  1  0
  5 33  1  0
  5 34  1  0
  5 35  1  0
  6 36  1  0
  6 37  1  0
  7 38  1  0
  7 39  1  0
  8 40  1  0
  8 41  1  0
  9 42  1  0
 12 43  1  0
 13 44  1  0
 14 45  1  0
 15 46  1  0
 18 47  1  0
 18 48  1  0
 18 49  1  0
 22 50  1  0
 22 51  1  0
 22 52  1  0
 23 53  1  0
M  CHG  2   3   1  17   1
M  END
>  <UniqueID>  (5) 
5

>  <SMILES>  (5) 
CC[NH+](CC)CCCNc1c2ccccc2[n+](C)c2oc(C)cc12

>  <Energy>  (5) 
108.19070534962714

>  <Genealogy>  (5) 
CC[NH+](CC)CCCNc1c2ccccc2[n+](C)c2oc(C)cc12 (protonated)
CC[NH+](CC)CCCNc1c2ccccc2[n+](C)c2oc(C)cc12 (3D coordinates assigned)
CC[NH+](CC)CCCNc1c2ccccc2[n+](C)c2oc(C)cc12 (optimized conformer: 108.19070534962714 kcal/mol)

>  <smiles>  (5) 
CCN(CC)CCCNc1c2ccccc2[n+](C)c2oc(C)cc12

>  <score_type>  (5) 
oracle

>  <origin>  (5) 
adg

>  <m_score__min__energy>  (5) 
-4.1500000000000004

>  <m_primary>  (5) 
energy

$$$$
5:0
     RDKit          3D

 65 69  0  0  0  0  0  0  0  0999 V2000
   65.4400   32.7000   49.8280 C   0  0  0  0  0  0  0  0  0  0  0  0
   63.9530   32.4230   50.0880 C   0  0  0  0  0  0  0  0  0  0  0  0
   63.0800   32.6460   48.9080 N   0  0  0  0  0  0  0  0  0  0  0  0
   63.7830   33.2190   47.7360 C   0  0  0  0  0  0  0  0  0  0  0  0
   62.8110   33.7800   46.6970 C   0  0  0  0  0  0  0  0  0  0  0  0
   62.3170   31.4300   48.5420 C   0  0  0  0  0  0  0  0  0  0  0  0
   61.1400   31.2210   49.5000 C   0  0  0  0  0  0  0  0  0  0  0  0
   59.9870   30.6460   48.8060 N   0  0  0  0  0  0  0  0  0  0  0  0
   59.6120   31.1330   47.5090 C   0  0  0  0  0  0  0  0  0  0  0  0
   59.4210   32.5150   47.3270 C   0  0  0  0  0  0  0  0  0  0  0  0
   59.7320   33.4320   48.3560 C   0  0  0  0  0  0  0  0  0  0  0  0
   59.5600   34.8020   48.1640 C   0  0  0  0  0  0  0  0  0  0  0  0
   59.0740   35.2800   46.9530 C   0  0  0  0  0  0  0  0  0  0  0  0
   58.7530   34.3920   45.9260 C   0  0  0  0  0  0  0  0  0  0  0  0
   58.9220   32.9950   46.0910 C   0  0  0  0  0  0  0  0  0  0  0  0
   58.5880   32.1080   45.0910 N   0  0  0  0  0  0  0  0  0  0  0  0
   58.5140   32.5970   43.6980 C   0  0  0  0  0  0  0  0  0  0  0  0
   58.5230   30.7530   45.3580 C   0  0  0  0  0  0  0  0  0  0  0  0
   57.7530   29.8490   44.5560 C   0  0  0  0  0  0  0  0  0  0  0  0
   56.6040   30.3000   43.6840 C   0  0  0  0  0  0  0  0  0  0  0  0
   57.9680   28.4760   44.7250 C   0  0  0  0  0  0  0  0  0  0  0  0
   57.3910   27.4760   44.0200 N   0  0  0  0  0  0  0  0  0  0  0  0
   57.8880   26.3390   44.5410 C   0  0  0  0  0  0  0  0  0  0  0  0
   57.5600   25.0390   44.1600 C   0  0  0  0  0  0  0  0  0  0  0  0
   58.1470   23.9760   44.8670 C   0  0  0  0  0  0  0  0  0  0  0  0
   59.0270   24.2320   45.9390 C   0  0  0  0  0  0  0  0  0  0  0  0
   59.3410   25.5520   46.3070 C   0  0  0  0  0  0  0  0  0  0  0  0
   58.7730   26.5980   45.5680 C   0  0  0  0  0  0  0  0  0  0  0  0
   58.8380   27.9840   45.6790 C   0  0  0  0  0  0  0  0  0  0  0  0
   59.5500   28.8360   46.5350 C   0  0  0  0  0  0  0  0  0  0  0  0
   60.7020   28.2930   47.3440 C   0  0  0  0  0  0  0  0  0  0  0  0
   59.2460   30.2330   46.4790 C   0  0  0  0  0  0  0  0  0  0  0  0
   65.9680   32.7984   50.7880 H   0  0  0  0  0  0  0  0  0  0  0  0
   65.8734   31.8671   49.2548 H   0  0  0  0  0  0  0  0  0  0  0  0
   65.5444   33.6330   49.2548 H   0  0  0  0  0  0  0  0  0  0  0  0
   63.8468   31.3745   50.4032 H   0  0  0  0  0  0  0  0  0  0  0  0
   63.6283   33.1340   50.8620 H   0  0  0  0  0  0  0  0  0  0  0  0
   64.4414   34.0304   48.0797 H   0  0  0  0  0  0  0  0  0  0  0  0
   64.3582   32.4116   47.2592 H   0  0  0  0  0  0  0  0  0  0  0  0
   61.9678   34.2667   47.2089 H   0  0  0  0  0  0  0  0  0  0  0  0
   63.3320   34.5163   46.0674 H   0  0  0  0  0  0  0  0  0  0  0  0
   62.4341   32.9605   46.0674 H   0  0  0  0  0  0  0  0  0  0  0  0
   61.9333   31.5393   47.5169 H   0  0  0  0  0  0  0  0  0  0  0  0
   62.9859   30.5593   48.6081 H   0  0  0  0  0  0  0  0  0  0  0  0
   61.4501   30.5393   50.3057 H   0  0  0  0  0  0  0  0  0  0  0  0
   60.8472   32.1989   49.9098 H   0  0  0  0  0  0  0  0  0  0  0  0
   59.5650   29.7500   49.1400 H   0  0  0  0  0  0  0  0  0  0  0  0
   60.1138   33.0610   49.3186 H   0  0  0  0  0  0  0  0  0  0  0  0
   59.8093   35.5055   48.9720 H   0  0  0  0  0  0  0  0  0  0  0  0
   58.9420   36.3618   46.8037 H   0  0  0  0  0  0  0  0  0  0  0  0
   58.3630   34.7821   44.9743 H   0  0  0  0  0  0  0  0  0  0  0  0
   58.3494   33.6846   43.6995 H   0  0  0  0  0  0  0  0  0  0  0  0
   59.4568   32.3695   43.1790 H   0  0  0  0  0  0  0  0  0  0  0  0
   57.6807   32.1007   43.1790 H   0  0  0  0  0  0  0  0  0  0  0  0
   55.7682   30.6281   44.3195 H   0  0  0  0  0  0  0  0  0  0  0  0
   56.9319   31.1361   43.0489 H   0  0  0  0  0  0  0  0  0  0  0  0
   56.2756   29.4641   43.0489 H   0  0  0  0  0  0  0  0  0  0  0  0
   56.7080   27.5510   43.2330 H   0  0  0  0  0  0  0  0  0  0  0  0
   56.8624   24.8508   43.3306 H   0  0  0  0  0  0  0  0  0  0  0  0
   57.9189   22.9381   44.5827 H   0  0  0  0  0  0  0  0  0  0  0  0
   59.4716   23.3914   46.4920 H   0  0  0  0  0  0  0  0  0  0  0  0
   60.0143   25.7580   47.1521 H   0  0  0  0  0  0  0  0  0  0  0  0
   60.4790   28.3981   48.4160 H   0  0  0  0  0  0  0  0  0  0  0  0
   60.8505   27.2301   47.1029 H   0  0  0  0  0  0  0  0  0  0  0  0
   61.6164   28.8549   47.1029 H   0  0  0  0  0  0  0  0  0  0  0  0
  1  2  1  0
  2  3  1  0
  3  4  1  0
  4  5  1  0
  3  6  1  0
  6  7  1  0
  7  8  1  0
  8  9  1  0
  9 10  2  0
 10 11  1  0
 11 12  2  0
 12 13  1  0
 13 14  2  0
 14 15  1  0
 15 16  2  0
 16 17  1  0
 16 18  1  0
 18 19  2  0
 19 20  1  0
 19 21  1  0
 21 22  1  0
 22 23  1  0
 23 24  2  0
 24 25  1  0
 25 26  2  0
 26 27  1  0
 27 28  2  0
 28 29  1  0
 29 30  1  0
 30 31  1  0
 30 32  2  0
 32  9  1  0
 15 10  1  0
 32 18  1  0
 29 21  2  0
 28 23  1  0
  1 33  1  0
  1 34  1  0
  1 35  1  0
  2 36  1  0
  2 37  1  0
  4 38  1  0
  4 39  1  0
  5 40  1  0
  5 41  1  0
  5 42  1  0
  6 43  1  0
  6 44  1  0
  7 45  1  0
  7 46  1  0
  8 47  1  0
 11 48  1  0
 12 49  1  0
 13 50  1  0
 14 51  1  0
 17 52  1  0
 17 53  1  0
 17 54  1  0
 20 55  1  0
 20 56  1  0
 20 57  1  0
 22 58  1  0
 24 59  1  0
 25 60  1  0
 26 61  1  0
 27 62  1  0
 31 63  1  0
 31 64  1  0
 31 65  1  0
M  CHG  1  16   1
M  END
>  <UniqueID>  (6) 
6

>  <SMILES>  (6) 
CCN(CC)CCNc1c2ccccc2[n+](C)c2c(C)c3[nH]c4ccccc4c3c(C)c12

>  <Energy>  (6) 
155.67259602791714

>  <Genealogy>  (6) 
CCN(CC)CCNc1c2ccccc2[n+](C)c2c(C)c3[nH]c4ccccc4c3c(C)c12 (3D coordinates assigned)
CCN(CC)CCNc1c2ccccc2[n+](C)c2c(C)c3[nH]c4ccccc4c3c(C)c12 (optimized conformer: 155.67259602791714 kcal/mol)

>  <smiles>  (6) 
CCN(CC)CCNc1c2ccccc2[n+](C)c2c(C)c3[nH]c4ccccc4c3c(C)c12

>  <score_type>  (6) 
oracle

>  <origin>  (6) 
adg

>  <m_score__min__energy>  (6) 
-7.5300000000000002

>  <m_primary>  (6) 
energy

$$$$
6:0
     RDKit          3D

 38 40  0  0  1  0  0  0  0  0999 V2000
   56.4750   23.3680   43.2740 C   0  0  0  0  0  0  0  0  0  0  0  0
   56.6090   23.7720   44.7300 C   0  0  0  0  0  0  0  0  0  0  0  0
   55.2650   24.3150   45.1820 C   0  0  0  0  0  0  0  0  0  0  0  0
   55.4110   25.2220   46.2970 N   0  0  0  0  0  0  0  0  0  0  0  0
   56.4480   25.9800   46.4050 C   0  0  0  0  0  0  0  0  0  0  0  0
   56.5300   27.1200   45.6780 N   0  0  0  0  0  0  0  0  0  0  0  0
   57.5970   27.9380   45.7630 C   0  0  0  0  0  0  0  0  0  0  0  0
   57.5750   29.1050   44.9560 N   0  0  0  0  0  0  0  0  0  0  0  0
   58.1430   30.3830   45.4250 C   0  0  0  0  0  0  0  0  0  0  0  0
   57.3600   31.5410   44.8430 C   0  0  0  0  0  0  0  0  0  0  0  0
   56.0820   31.2190   44.4930 O   0  0  0  0  0  0  0  0  0  0  0  0
   55.8870   30.1590   43.6660 C   0  0  0  0  0  0  0  0  0  0  0  0
   57.0010   29.1410   43.6210 C   0  0  0  0  0  0  0  0  0  0  0  0
   58.6380   27.6140   46.6090 C   0  0  0  0  0  0  0  0  0  0  0  0
   59.8160   28.2410   46.8910 C   0  0  0  0  0  0  0  0  0  0  0  0
   60.4580   27.4410   47.8200 C   0  0  0  0  0  0  0  0  0  0  0  0
   59.6520   26.3500   48.0800 C   0  0  0  0  0  0  0  0  0  0  0  0
   58.5300   26.4750   47.3200 N   0  0  0  0  0  0  0  0  0  0  0  0
   57.4730   25.6850   47.2230 N   0  0  0  0  0  0  0  0  0  0  0  0
   56.1292   22.3255   43.2131 H   0  0  0  0  0  0  0  0  0  0  0  0
   55.7468   24.0255   42.7766 H   0  0  0  0  0  0  0  0  0  0  0  0
   57.4518   23.4600   42.7766 H   0  0  0  0  0  0  0  0  0  0  0  0
   56.8838   22.8975   45.3380 H   0  0  0  0  0  0  0  0  0  0  0  0
   57.3930   24.5344   44.8485 H   0  0  0  0  0  0  0  0  0  0  0  0
   54.7953   24.8508   44.3440 H   0  0  0  0  0  0  0  0  0  0  0  0
   54.6401   23.4688   45.5036 H   0  0  0  0  0  0  0  0  0  0  0  0
   58.0916   30.4236   46.5231 H   0  0  0  0  0  0  0  0  0  0  0  0
   59.1909   30.4545   45.0982 H   0  0  0  0  0  0  0  0  0  0  0  0
   57.3224   32.3458   45.5919 H   0  0  0  0  0  0  0  0  0  0  0  0
   57.8774   31.8477   43.9220 H   0  0  0  0  0  0  0  0  0  0  0  0
   54.9719   29.6424   43.9911 H   0  0  0  0  0  0  0  0  0  0  0  0
   55.8296   30.5808   42.6517 H   0  0  0  0  0  0  0  0  0  0  0  0
   56.6024   28.1519   43.3510 H   0  0  0  0  0  0  0  0  0  0  0  0
   57.7568   29.4085   42.8679 H   0  0  0  0  0  0  0  0  0  0  0  0
   60.1809   29.1882   46.4670 H   0  0  0  0  0  0  0  0  0  0  0  0
   61.4405   27.6397   48.2731 H   0  0  0  0  0  0  0  0  0  0  0  0
   59.8765   25.5282   48.7759 H   0  0  0  0  0  0  0  0  0  0  0  0
   57.4440   24.8160   47.7970 H   0  0  0  0  0  0  0  0  0  0  0  0
  1  2  1  0
  2  3  1  0
  3  4  1  0
  4  5  2  0
  5  6  1  0
  6  7  2  0
  7  8  1  0
  8  9  1  0
  9 10  1  0
 10 11  1  0
 11 12  1  0
 12 13  1  0
  7 14  1  0
 14 15  2  0
 15 16  1  0
 16 17  2  0
 17 18  1  0
 18 19  1  0
 19  5  1  0
 13  8  1  0
 18 14  1  0
  1 20  1  0
  1 21  1  0
  1 22  1  0
  2 23  1  0
  2 24  1  0
  3 25  1  0
  3 26  1  0
  9 27  1  0
  9 28  1  0
 10 29  1  0
 10 30  1  0
 12 31  1  0
 12 32  1  0
 13 33  1  0
 13 34  1  0
 15 35  1  0
 16 36  1  0
 17 37  1  0
 19 38  1  0
M  END
>  <smiles>  (7) 
CCCN=c1nc(N2CCOCC2)c2cccn2[nH]1

>  <score_type>  (7) 
oracle

>  <origin>  (7) 
adg

>  <m_score__min__energy>  (7) 
-6.1900000000000004

>  <m_primary>  (7) 
energy

$$$$
7:0
     RDKit          3D

 37 38  0  0  0  0  0  0  0  0999 V2000
   56.2560   25.8080   46.3690 C   0  0  0  0  0  0  0  0  0  0  0  0
   56.7700   25.1620   45.0870 C   0  0  0  0  0  0  0  0  0  0  0  0
   58.1330   25.5200   44.8510 O   0  0  0  0  0  0  0  0  0  0  0  0
   58.7900   26.6530   45.3660 C   0  0  0  0  0  0  0  0  0  0  0  0
   59.7660   26.5520   46.3780 C   0  0  0  0  0  0  0  0  0  0  0  0
   60.4010   27.6940   46.8670 C   0  0  0  0  0  0  0  0  0  0  0  0
   60.0760   28.9490   46.3550 C   0  0  0  0  0  0  0  0  0  0  0  0
   60.6960   30.0550   46.8320 F   0  0  0  0  0  0  0  0  0  0  0  0
   59.1150   29.0670   45.3500 C   0  0  0  0  0  0  0  0  0  0  0  0
   58.4610   27.9240   44.8430 C   0  0  0  0  0  0  0  0  0  0  0  0
   57.4640   28.0370   43.8050 N   0  0  0  0  0  0  0  0  0  0  0  0
   56.9580   29.3210   43.3140 C   0  0  0  0  0  0  0  0  0  0  0  0
   56.1120   29.9880   44.3530 C   0  0  0  0  0  0  0  0  0  0  0  0
   55.1420   29.3660   44.8640 O   0  0  0  0  0  0  0  0  0  0  0  0
   56.4460   31.3080   44.7970 N   0  0  0  0  0  0  0  0  0  0  0  0
   57.4560   32.1410   44.1580 C   0  0  0  0  0  0  0  0  0  0  0  0
   58.0550   33.0830   45.1530 C   0  0  0  0  0  0  0  0  0  0  0  0
   58.8800   34.1620   44.8630 C   0  0  0  0  0  0  0  0  0  0  0  0
   59.3320   34.8310   46.0070 C   0  0  0  0  0  0  0  0  0  0  0  0
   58.8730   34.2780   47.1950 C   0  0  0  0  0  0  0  0  0  0  0  0
   57.9060   32.9530   46.8230 S   0  0  0  0  0  0  0  0  0  0  0  0
   56.6753   25.2810   47.2388 H   0  0  0  0  0  0  0  0  0  0  0  0
   56.5638   26.8637   46.3965 H   0  0  0  0  0  0  0  0  0  0  0  0
   55.1581   25.7453   46.3965 H   0  0  0  0  0  0  0  0  0  0  0  0
   56.6948   24.0684   45.1787 H   0  0  0  0  0  0  0  0  0  0  0  0
   56.1603   25.5177   44.2433 H   0  0  0  0  0  0  0  0  0  0  0  0
   60.0291   25.5647   46.7855 H   0  0  0  0  0  0  0  0  0  0  0  0
   61.1598   27.6038   47.6583 H   0  0  0  0  0  0  0  0  0  0  0  0
   58.8650   30.0604   44.9492 H   0  0  0  0  0  0  0  0  0  0  0  0
   57.0790   27.1610   43.3820 H   0  0  0  0  0  0  0  0  0  0  0  0
   57.8083   29.9737   43.0671 H   0  0  0  0  0  0  0  0  0  0  0  0
   56.3434   29.1405   42.4197 H   0  0  0  0  0  0  0  0  0  0  0  0
   58.2473   31.4989   43.7437 H   0  0  0  0  0  0  0  0  0  0  0  0
   56.9837   32.7228   43.3527 H   0  0  0  0  0  0  0  0  0  0  0  0
   59.1506   34.4604   43.8394 H   0  0  0  0  0  0  0  0  0  0  0  0
   59.9892   35.7122   45.9682 H   0  0  0  0  0  0  0  0  0  0  0  0
   59.1026   34.6439   48.2066 H   0  0  0  0  0  0  0  0  0  0  0  0
  1  2  1  0
  2  3  1  0
  3  4  1  0
  4  5  2  0
  5  6  1  0
  6  7  2  0
  7  8  1  0
  7  9  1  0
  9 10  2  0
 10 11  1  0
 11 12  1  0
 12 13  1  0
 13 14  2  0
 13 15  1  0
 15 16  1  0
 16 17  1  0
 17 18  2  0
 18 19  1  0
 19 20  2  0
 20 21  1  0
 10  4  1  0
 21 17  1  0
  1 22  1  0
  1 23  1  0
  1 24  1  0
  2 25  1  0
  2 26  1  0
  5 27  1  0
  6 28  1  0
  9 29  1  0
 11 30  1  0
 12 31  1  0
 12 32  1  0
 16 33  1  0
 16 34  1  0
 18 35  1  0
 19 36  1  0
 20 37  1  0
M  CHG  1  15  -1
M  END
>  <UniqueID>  (8) 
7

>  <SMILES>  (8) 
CCOc1ccc(F)cc1NCC(=O)[N-]Cc1cccs1

>  <Energy>  (8) 
57.388530333252874

>  <Genealogy>  (8) 
CCOc1ccc(F)cc1NCC(=O)[N-]Cc1cccs1 (protonated)
CCOc1ccc(F)cc1NCC(=O)[N-]Cc1cccs1 (3D coordinates assigned)
CCOc1ccc(F)cc1NCC(=O)[N-]Cc1cccs1 (optimized conformer: 57.388530333252874 kcal/mol)

>  <smiles>  (8) 
CCOc1ccc(F)cc1NCC(=O)NCc1cccs1

>  <score_type>  (8) 
oracle

>  <origin>  (8) 
adg

>  <m_score__min__energy>  (8) 
-8.5399999999999991

>  <m_primary>  (8) 
energy

$$$$
8:0
     RDKit          3D

 53 56  0  0  0  0  0  0  0  0999 V2000
   66.5810   32.5500   50.1780 C   0  0  0  0  0  0  0  0  0  0  0  0
   65.5580   33.4460   49.7550 O   0  0  0  0  0  0  0  0  0  0  0  0
   64.2400   33.0620   49.4670 C   0  0  0  0  0  0  0  0  0  0  0  0
   63.1450   33.4390   50.2850 C   0  0  0  0  0  0  0  0  0  0  0  0
   61.8490   33.0240   49.9470 C   0  0  0  0  0  0  0  0  0  0  0  0
   61.6840   32.2710   48.8280 N   0  0  0  0  0  0  0  0  0  0  0  0
   60.5800   31.7270   48.2870 C   0  0  0  0  0  0  0  0  0  0  0  0
   59.2820   31.7130   48.9220 N   0  0  0  0  0  0  0  0  0  0  0  0
   58.6430   33.0380   48.8710 C   0  0  0  0  0  0  0  0  0  0  0  0
   58.6080   33.5910   47.4660 C   0  0  0  0  0  0  0  0  0  0  0  0
   57.5400   33.2840   46.6050 C   0  0  0  0  0  0  0  0  0  0  0  0
   57.5240   33.7800   45.2980 C   0  0  0  0  0  0  0  0  0  0  0  0
   58.5760   34.5750   44.8370 C   0  0  0  0  0  0  0  0  0  0  0  0
   59.6470   34.8770   45.6830 C   0  0  0  0  0  0  0  0  0  0  0  0
   59.6640   34.3890   46.9930 C   0  0  0  0  0  0  0  0  0  0  0  0
   60.9800   31.0040   47.1600 C   0  0  0  0  0  0  0  0  0  0  0  0
   60.1450   30.1590   46.2850 C   0  0  0  0  0  0  0  0  0  0  0  0
   60.7240   29.0630   45.6310 C   0  0  0  0  0  0  0  0  0  0  0  0
   59.9440   28.2270   44.8300 C   0  0  0  0  0  0  0  0  0  0  0  0
   58.5720   28.4820   44.6580 C   0  0  0  0  0  0  0  0  0  0  0  0
   57.7510   27.6490   43.8830 O   0  0  0  0  0  0  0  0  0  0  0  0
   58.1500   27.0340   42.6620 C   0  0  0  0  0  0  0  0  0  0  0  0
   57.9930   29.6020   45.2750 C   0  0  0  0  0  0  0  0  0  0  0  0
   56.6250   29.8420   45.0720 O   0  0  0  0  0  0  0  0  0  0  0  0
   56.0310   30.0970   43.8020 C   0  0  0  0  0  0  0  0  0  0  0  0
   58.7890   30.4470   46.0740 C   0  0  0  0  0  0  0  0  0  0  0  0
   62.3240   31.1060   47.0110 N   0  0  0  0  0  0  0  0  0  0  0  0
   62.7030   31.8920   48.0390 C   0  0  0  0  0  0  0  0  0  0  0  0
   64.0120   32.2720   48.3270 C   0  0  0  0  0  0  0  0  0  0  0  0
   66.6127   32.5223   51.2772 H   0  0  0  0  0  0  0  0  0  0  0  0
   66.3685   31.5422   49.7918 H   0  0  0  0  0  0  0  0  0  0  0  0
   67.5520   32.8935   49.7918 H   0  0  0  0  0  0  0  0  0  0  0  0
   63.3115   34.0546   51.1813 H   0  0  0  0  0  0  0  0  0  0  0  0
   60.9873   33.3011   50.5721 H   0  0  0  0  0  0  0  0  0  0  0  0
   59.3480   31.3880   49.9100 H   0  0  0  0  0  0  0  0  0  0  0  0
   58.6740   31.0270   48.4210 H   0  0  0  0  0  0  0  0  0  0  0  0
   57.6122   32.9506   49.2449 H   0  0  0  0  0  0  0  0  0  0  0  0
   59.2331   33.7260   49.4943 H   0  0  0  0  0  0  0  0  0  0  0  0
   56.7137   32.6511   46.9610 H   0  0  0  0  0  0  0  0  0  0  0  0
   56.6814   33.5438   44.6314 H   0  0  0  0  0  0  0  0  0  0  0  0
   58.5616   34.9635   43.8080 H   0  0  0  0  0  0  0  0  0  0  0  0
   60.4773   35.4992   45.3176 H   0  0  0  0  0  0  0  0  0  0  0  0
   60.5075   34.6306   47.6565 H   0  0  0  0  0  0  0  0  0  0  0  0
   61.7987   28.8604   45.7495 H   0  0  0  0  0  0  0  0  0  0  0  0
   60.4059   27.3629   44.3300 H   0  0  0  0  0  0  0  0  0  0  0  0
   58.7367   26.1298   42.8815 H   0  0  0  0  0  0  0  0  0  0  0  0
   57.2573   26.7598   42.0807 H   0  0  0  0  0  0  0  0  0  0  0  0
   58.7642   27.7375   42.0807 H   0  0  0  0  0  0  0  0  0  0  0  0
   55.0289   30.5272   43.9457 H   0  0  0  0  0  0  0  0  0  0  0  0
   56.6571   30.8056   43.2400 H   0  0  0  0  0  0  0  0  0  0  0  0
   55.9485   29.1550   43.2400 H   0  0  0  0  0  0  0  0  0  0  0  0
   58.3428   31.3400   46.5360 H   0  0  0  0  0  0  0  0  0  0  0  0
   64.8452   31.9619   47.6793 H   0  0  0  0  0  0  0  0  0  0  0  0
  1  2  1  0
  2  3  1  0
  3  4  1  0
  4  5  2  0
  5  6  1  0
  6  7  1  0
  7  8  1  0
  8  9  1  0
  9 10  1  0
 10 11  2  0
 11 12  1  0
 12 13  2  0
 13 14  1  0
 14 15  2  0
  7 16  2  0
 16 17  1  0
 17 18  2  0
 18 19  1  0
 19 20  2  0
 20 21  1  0
 21 22  1  0
 20 23  1  0
 23 24  1  0
 24 25  1  0
 23 26  2  0
 16 27  1  0
 27 28  2  0
 28 29  1  0
 29  3  2  0
 28  6  1  0
 15 10  1  0
 26 17  1  0
  1 30  1  0
  1 31  1  0
  1 32  1  0
  4 33  1  0
  5 34  1  0
  8 35  1  0
  8 36  1  0
  9 37  1  0
  9 38  1  0
 11 39  1  0
 12 40  1  0
 13 41  1  0
 14 42  1  0
 15 43  1  0
 18 44  1  0
 19 45  1  0
 22 46  1  0
 22 47  1  0
 22 48  1  0
 25 49  1  0
 25 50  1  0
 25 51  1  0
 26 52  1  0
 29 53  1  0
M  CHG  1   8   1
M  END
>  <UniqueID>  (9) 
8

>  <SMILES>  (9) 
COc1ccn2c([NH2+]Cc3ccccc3)c(-c3ccc(OC)c(OC)c3)nc2c1

>  <Energy>  (9) 
91.81104143016138

>  <Genealogy>  (9) 
COc1ccn2c([NH2+]Cc3ccccc3)c(-c3ccc(OC)c(OC)c3)nc2c1 (protonated)
COc1ccn2c([NH2+]Cc3ccccc3)c(-c3ccc(OC)c(OC)c3)nc2c1 (3D coordinates assigned)
COc1ccn2c([NH2+]Cc3ccccc3)c(-c3ccc(OC)c(OC)c3)nc2c1 (optimized conformer: 91.81104143016138 kcal/mol)

>  <smiles>  (9) 
COc1ccn2c(NCc3ccccc3)c(-c3ccc(OC)c(OC)c3)nc2c1

>  <score_type>  (9) 
oracle

>  <origin>  (9) 
adg

>  <m_score__min__energy>  (9) 
-6.2599999999999998

>  <m_primary>  (9) 
energy

$$$$
9:0
     RDKit          3D

 47 48  0  0  0  0  0  0  0  0999 V2000
   55.5940   23.3510   43.0540 C   0  0  0  0  0  0  0  0  0  0  0  0
   56.6420   23.5400   44.0740 N   0  0  0  0  0  0  0  0  0  0  0  0
   57.5420   22.3760   44.0670 C   0  0  0  0  0  0  0  0  0  0  0  0
   57.4120   24.7780   43.8220 C   0  0  0  0  0  0  0  0  0  0  0  0
   58.5260   24.9530   44.8680 C   0  0  0  0  0  0  0  0  0  0  0  0
   58.1470   25.9650   45.8830 N   0  0  0  0  0  0  0  0  0  0  0  0
   57.4070   25.3480   47.0180 C   0  0  0  0  0  0  0  0  0  0  0  0
   55.8980   25.3760   46.7510 C   0  0  0  0  0  0  0  0  0  0  0  0
   55.5190   26.6010   46.0540 N   0  0  0  0  0  0  0  0  0  0  0  0
   59.3540   26.6950   46.3410 C   0  0  0  0  0  0  0  0  0  0  0  0
   59.1580   28.2120   46.2700 C   0  0  0  0  0  0  0  0  0  0  0  0
   57.7440   28.5290   46.4640 N   0  0  0  0  0  0  0  0  0  0  0  0
   57.0120   28.9210   44.9360 S   0  0  0  0  0  0  0  0  0  0  0  0
   55.5180   28.8580   45.0790 O   0  0  0  0  0  0  0  0  0  0  0  0
   57.4530   27.9180   43.9050 O   0  0  0  0  0  0  0  0  0  0  0  0
   57.4710   30.5530   44.4360 C   0  0  0  0  0  0  0  0  0  0  0  0
   57.4170   30.9100   43.0770 C   0  0  0  0  0  0  0  0  0  0  0  0
   57.7790   32.1990   42.6560 C   0  0  0  0  0  0  0  0  0  0  0  0
   58.2130   33.1550   43.5820 C   0  0  0  0  0  0  0  0  0  0  0  0
   58.2880   32.8110   44.9320 C   0  0  0  0  0  0  0  0  0  0  0  0
   58.7110   33.6790   45.8850 N   0  0  0  0  0  0  0  0  0  0  0  0
   58.5910   32.7200   47.2260 S   0  0  0  0  0  0  0  0  0  0  0  0
   58.0330   31.2570   46.6940 N   0  0  0  0  0  0  0  0  0  0  0  0
   57.9190   31.5060   45.3650 C   0  0  0  0  0  0  0  0  0  0  0  0
   54.6274   23.1767   43.5493 H   0  0  0  0  0  0  0  0  0  0  0  0
   55.5270   24.2515   42.4259 H   0  0  0  0  0  0  0  0  0  0  0  0
   55.8458   22.4838   42.4259 H   0  0  0  0  0  0  0  0  0  0  0  0
   57.7693   22.0820   45.1023 H   0  0  0  0  0  0  0  0  0  0  0  0
   57.0542   21.5385   43.5467 H   0  0  0  0  0  0  0  0  0  0  0  0
   58.4753   22.6373   43.5467 H   0  0  0  0  0  0  0  0  0  0  0  0
   57.8635   24.7239   42.8204 H   0  0  0  0  0  0  0  0  0  0  0  0
   56.7284   25.6372   43.8889 H   0  0  0  0  0  0  0  0  0  0  0  0
   58.7036   23.9900   45.3690 H   0  0  0  0  0  0  0  0  0  0  0  0
   59.4375   25.2946   44.3557 H   0  0  0  0  0  0  0  0  0  0  0  0
   57.7342   24.3048   47.1395 H   0  0  0  0  0  0  0  0  0  0  0  0
   57.6177   25.9197   47.9339 H   0  0  0  0  0  0  0  0  0  0  0  0
   55.6250   24.5091   46.1314 H   0  0  0  0  0  0  0  0  0  0  0  0
   55.3682   25.3394   47.7143 H   0  0  0  0  0  0  0  0  0  0  0  0
   56.1390   26.6950   45.2160 H   0  0  0  0  0  0  0  0  0  0  0  0
   55.7400   27.4120   46.6750 H   0  0  0  0  0  0  0  0  0  0  0  0
   59.5688   26.4114   47.3819 H   0  0  0  0  0  0  0  0  0  0  0  0
   60.1901   26.4254   45.6790 H   0  0  0  0  0  0  0  0  0  0  0  0
   59.7540   28.6962   47.0576 H   0  0  0  0  0  0  0  0  0  0  0  0
   59.4849   28.5789   45.2859 H   0  0  0  0  0  0  0  0  0  0  0  0
   57.0867   30.1692   42.3340 H   0  0  0  0  0  0  0  0  0  0  0  0
   57.7212   32.4604   41.5891 H   0  0  0  0  0  0  0  0  0  0  0  0
   58.4917   34.1657   43.2491 H   0  0  0  0  0  0  0  0  0  0  0  0
  1  2  1  0
  2  3  1  0
  2  4  1  0
  4  5  1  0
  5  6  1  0
  6  7  1  0
  7  8  1  0
  8  9  1  0
  6 10  1  0
 10 11  1  0
 11 12  1  0
 12 13  1  0
 13 14  2  0
 13 15  2  0
 13 16  1  0
 16 17  2  0
 17 18  1  0
 18 19  2  0
 19 20  1  0
 20 21  2  0
 21 22  1  0
 22 23  1  0
 23 24  2  0
 24 16  1  0
 24 20  1  0
  1 25  1  0
  1 26  1  0
  1 27  1  0
  3 28  1  0
  3 29  1  0
  3 30  1  0
  4 31  1  0
  4 32  1  0
  5 33  1  0
  5 34  1  0
  7 35  1  0
  7 36  1  0
  8 37  1  0
  8 38  1  0
  9 39  1  0
  9 40  1  0
 10 41  1  0
 10 42  1  0
 11 43  1  0
 11 44  1  0
 17 45  1  0
 18 46  1  0
 19 47  1  0
M  CHG  1  12  -1
M  END
>  <UniqueID>  (10) 
9

>  <SMILES>  (10) 
CN(C)CCN(CCN)CC[N-]S(=O)(=O)c1cccc2nsnc12

>  <Energy>  (10) 
81.7504579427779

>  <Genealogy>  (10) 
CN(C)CCN(CCN)CC[N-]S(=O)(=O)c1cccc2nsnc12 (protonated)
CN(C)CCN(CCN)CC[N-]S(=O)(=O)c1cccc2nsnc12 (3D coordinates assigned)
CN(C)CCN(CCN)CC[N-]S(=O)(=O)c1cccc2nsnc12 (optimized conformer: 81.7504579427779 kcal/mol)

>  <smiles>  (10) 
CN(C)CCN(CCN)CCNS(=O)(=O)c1cccc2nsnc12

>  <score_type>  (10) 
oracle

>  <origin>  (10) 
adg

>  <m_score__min__energy>  (10) 
-8.7200000000000006

>  <m_primary>  (10) 
energy

$$$$
10:0
     RDKit          3D

 50 52  0  0  0  0  0  0  0  0999 V2000
   57.7750   26.4760   45.0400 C   0  0  0  0  0  0  0  0  0  0  0  0
   56.6460   27.3110   45.6290 C   0  0  0  0  0  0  0  0  0  0  0  0
   56.6270   28.6360   45.0210 N   0  0  0  0  0  0  0  0  0  0  0  0
   57.7060   29.3820   44.7180 C   0  0  0  0  0  0  0  0  0  0  0  0
   57.2600   30.5860   44.2190 C   0  0  0  0  0  0  0  0  0  0  0  0
   58.0920   31.7530   43.7820 C   0  0  0  0  0  0  0  0  0  0  0  0
   57.7760   32.9550   44.5780 N   0  0  0  0  0  0  0  0  0  0  0  0
   58.8060   34.0080   44.4780 C   0  0  0  0  0  0  0  0  0  0  0  0
   59.0690   34.4880   45.9130 C   0  0  1  0  0  0  0  0  0  0  0  0
   57.7720   34.1340   46.6130 C   0  0  0  0  0  0  0  0  0  0  0  0
   57.5410   32.7560   46.0290 C   0  0  2  0  0  0  0  0  0  0  0  0
   58.5720   31.8020   46.7020 C   0  0  0  0  0  0  0  0  0  0  0  0
   59.9600   32.1970   46.3650 N   0  0  0  0  0  0  0  0  0  0  0  0
   60.9410   31.3730   47.0990 C   0  0  0  0  0  0  0  0  0  0  0  0
   60.2520   30.1900   47.7950 C   0  0  0  0  0  0  0  0  0  0  0  0
   59.9210   29.1120   46.8350 N   0  0  0  0  0  0  0  0  0  0  0  0
   60.7680   29.2270   45.6380 C   0  0  0  0  0  0  0  0  0  0  0  0
   60.1060   27.7830   47.4430 C   0  0  0  0  0  0  0  0  0  0  0  0
   60.2000   33.6510   46.5600 C   0  0  0  0  0  0  0  0  0  0  0  0
   55.8800   30.5140   44.2670 C   0  0  0  0  0  0  0  0  0  0  0  0
   55.5180   29.3150   44.7640 N   0  0  0  0  0  0  0  0  0  0  0  0
   58.3694   26.0364   45.8545 H   0  0  0  0  0  0  0  0  0  0  0  0
   57.3515   25.6721   44.4200 H   0  0  0  0  0  0  0  0  0  0  0  0
   58.4197   27.1163   44.4200 H   0  0  0  0  0  0  0  0  0  0  0  0
   55.6858   26.8098   45.4373 H   0  0  0  0  0  0  0  0  0  0  0  0
   56.8061   27.4164   46.7122 H   0  0  0  0  0  0  0  0  0  0  0  0
   58.7569   29.0832   44.8461 H   0  0  0  0  0  0  0  0  0  0  0  0
   59.1558   31.5051   43.9116 H   0  0  0  0  0  0  0  0  0  0  0  0
   57.8718   31.9644   42.7252 H   0  0  0  0  0  0  0  0  0  0  0  0
   59.7275   33.5994   44.0377 H   0  0  0  0  0  0  0  0  0  0  0  0
   58.4726   34.8348   43.8336 H   0  0  0  0  0  0  0  0  0  0  0  0
   59.3583   35.5479   45.9664 H   0  0  0  0  0  0  0  0  0  0  0  0
   57.8911   34.1018   47.7061 H   0  0  0  0  0  0  0  0  0  0  0  0
   56.9496   34.8493   46.4648 H   0  0  0  0  0  0  0  0  0  0  0  0
   56.5467   32.3149   46.1930 H   0  0  0  0  0  0  0  0  0  0  0  0
   58.4412   31.8433   47.7934 H   0  0  0  0  0  0  0  0  0  0  0  0
   58.3985   30.7810   46.3314 H   0  0  0  0  0  0  0  0  0  0  0  0
   61.6894   30.9879   46.3908 H   0  0  0  0  0  0  0  0  0  0  0  0
   61.4227   31.9990   47.8646 H   0  0  0  0  0  0  0  0  0  0  0  0
   60.9256   29.7875   48.5659 H   0  0  0  0  0  0  0  0  0  0  0  0
   59.3150   30.5520   48.2432 H   0  0  0  0  0  0  0  0  0  0  0  0
   61.8155   29.3692   45.9423 H   0  0  0  0  0  0  0  0  0  0  0  0
   60.6818   28.3089   45.0383 H   0  0  0  0  0  0  0  0  0  0  0  0
   60.4402   30.0889   45.0383 H   0  0  0  0  0  0  0  0  0  0  0  0
   60.0930   27.8762   48.5390 H   0  0  0  0  0  0  0  0  0  0  0  0
   59.2920   27.1164   47.1220 H   0  0  0  0  0  0  0  0  0  0  0  0
   61.0711   27.3641   47.1220 H   0  0  0  0  0  0  0  0  0  0  0  0
   60.2381   33.8687   47.6376 H   0  0  0  0  0  0  0  0  0  0  0  0
   61.1536   33.9178   46.0809 H   0  0  0  0  0  0  0  0  0  0  0  0
   55.1883   31.3085   43.9501 H   0  0  0  0  0  0  0  0  0  0  0  0
  1  2  1  0
  2  3  1  0
  3  4  1  0
  4  5  2  0
  5  6  1  0
  6  7  1  0
  7  8  1  0
  8  9  1  0
  9 10  1  0
 10 11  1  0
 11 12  1  0
 12 13  1  0
 13 14  1  0
 14 15  1  0
 15 16  1  0
 16 17  1  0
 16 18  1  0
 13 19  1  0
  5 20  1  0
 20 21  2  0
 21  3  1  0
 11  7  1  0
 19  9  1  0
  1 22  1  0
  1 23  1  0
  1 24  1  0
  2 25  1  0
  2 26  1  0
  4 27  1  0
  6 28  1  0
  6 29  1  0
  8 30  1  0
  8 31  1  0
  9 32  1  6
 10 33  1  0
 10 34  1  0
 11 35  1  6
 12 36  1  0
 12 37  1  0
 14 38  1  0
 14 39  1  0
 15 40  1  0
 15 41  1  0
 17 42  1  0
 17 43  1  0
 17 44  1  0
 18 45  1  0
 18 46  1  0
 18 47  1  0
 19 48  1  0
 19 49  1  0
 20 50  1  0
M  END
>  <UniqueID>  (11) 
10

>  <SMILES>  (11) 
CCn1cc(CN2C[C@H]3C[C@@H]2CN(CCN(C)C)C3)cn1

>  <Energy>  (11) 
90.88415806526856

>  <Genealogy>  (11) 
CCn1cc(CN2C[C@H]3C[C@@H]2CN(CCN(C)C)C3)cn1 (chirality)
CCn1cc(CN2C[C@H]3C[C@@H]2CN(CCN(C)C)C3)cn1 (3D coordinates assigned)
CCn1cc(CN2C[C@H]3C[C@@H]2CN(CCN(C)C)C3)cn1 (nonaromatic ring conformer: 90.88415806526856 kcal/mol)

>  <smiles>  (11) 
CCn1cc(CN2CC3CC2CN(CCN(C)C)C3)cn1

>  <score_type>  (11) 
oracle

>  <origin>  (11) 
adg

>  <m_score__min__energy>  (11) 
-7.1299999999999999

>  <m_primary>  (11) 
energy

$$$$
11:0
     RDKit          3D

 41 41  0  0  0  0  0  0  0  0999 V2000
   59.1100   30.0540   49.6760 C   0  0  0  0  0  0  0  0  0  0  0  0
   58.8600   29.3360   48.3540 C   0  0  0  0  0  0  0  0  0  0  0  0
   58.2030   30.1990   47.4450 O   0  0  0  0  0  0  0  0  0  0  0  0
   58.8000   31.4800   47.4560 C   0  0  0  0  0  0  0  0  0  0  0  0
   59.3360   31.8120   46.0620 C   0  0  0  0  0  0  0  0  0  0  0  0
   58.2230   32.2920   45.1230 C   0  0  0  0  0  0  0  0  0  0  0  0
   57.1630   31.2890   45.0170 N   0  0  0  0  0  0  0  0  0  0  0  0
   56.5970   30.9340   43.7480 C   0  0  0  0  0  0  0  0  0  0  0  0
   56.9400   31.5530   42.7050 O   0  0  0  0  0  0  0  0  0  0  0  0
   55.5920   29.8240   43.6480 C   0  0  0  0  0  0  0  0  0  0  0  0
   55.6280   28.9920   44.8520 N   0  0  0  0  0  0  0  0  0  0  0  0
   56.7400   28.1530   45.2330 C   0  0  0  0  0  0  0  0  0  0  0  0
   58.0710   28.5800   45.0510 C   0  0  0  0  0  0  0  0  0  0  0  0
   59.1390   27.7560   45.4160 C   0  0  0  0  0  0  0  0  0  0  0  0
   60.7890   28.3010   45.1740 Cl  0  0  0  0  0  0  0  0  0  0  0  0
   58.8950   26.5020   45.9720 C   0  0  0  0  0  0  0  0  0  0  0  0
   57.5840   26.0660   46.1680 C   0  0  0  0  0  0  0  0  0  0  0  0
   56.4960   26.8840   45.8020 C   0  0  0  0  0  0  0  0  0  0  0  0
   55.1670   26.4650   45.9820 O   0  0  0  0  0  0  0  0  0  0  0  0
   54.6690   25.1770   45.6310 C   0  0  0  0  0  0  0  0  0  0  0  0
   58.8745   29.3776   50.5109 H   0  0  0  0  0  0  0  0  0  0  0  0
   60.1661   30.3558   49.7353 H   0  0  0  0  0  0  0  0  0  0  0  0
   58.4697   30.9465   49.7353 H   0  0  0  0  0  0  0  0  0  0  0  0
   59.8222   29.0204   47.9244 H   0  0  0  0  0  0  0  0  0  0  0  0
   58.2242   28.4574   48.5377 H   0  0  0  0  0  0  0  0  0  0  0  0
   58.0502   32.2302   47.7475 H   0  0  0  0  0  0  0  0  0  0  0  0
   59.6309   31.4881   48.1768 H   0  0  0  0  0  0  0  0  0  0  0  0
   60.0931   32.6050   46.1513 H   0  0  0  0  0  0  0  0  0  0  0  0
   59.7711   30.8959   45.6360 H   0  0  0  0  0  0  0  0  0  0  0  0
   57.7970   33.2265   45.5171 H   0  0  0  0  0  0  0  0  0  0  0  0
   58.6522   32.4578   44.1239 H   0  0  0  0  0  0  0  0  0  0  0  0
   56.8220   30.8010   45.8760 H   0  0  0  0  0  0  0  0  0  0  0  0
   54.5862   30.2549   43.5353 H   0  0  0  0  0  0  0  0  0  0  0  0
   55.8360   29.1997   42.7758 H   0  0  0  0  0  0  0  0  0  0  0  0
   54.7660   28.9940   45.4440 H   0  0  0  0  0  0  0  0  0  0  0  0
   58.2708   29.5711   44.6176 H   0  0  0  0  0  0  0  0  0  0  0  0
   59.7373   25.8545   46.2570 H   0  0  0  0  0  0  0  0  0  0  0  0
   57.3982   25.0766   46.6114 H   0  0  0  0  0  0  0  0  0  0  0  0
   54.4487   24.6073   46.5458 H   0  0  0  0  0  0  0  0  0  0  0  0
   53.7492   25.2886   45.0381 H   0  0  0  0  0  0  0  0  0  0  0  0
   55.4246   24.6408   45.0381 H   0  0  0  0  0  0  0  0  0  0  0  0
  1  2  1  0
  2  3  1  0
  3  4  1  0
  4  5  1  0
  5  6  1  0
  6  7  1  0
  7  8  1  0
  8  9  2  0
  8 10  1  0
 10 11  1  0
 11 12  1  0
 12 13  2  0
 13 14  1  0
 14 15  1  0
 14 16  2  0
 16 17  1  0
 17 18  2  0
 18 19  1  0
 19 20  1  0
 18 12  1  0
  1 21  1  0
  1 22  1  0
  1 23  1  0
  2 24  1  0
  2 25  1  0
  4 26  1  0
  4 27  1  0
  5 28  1  0
  5 29  1  0
  6 30  1  0
  6 31  1  0
  7 32  1  0
 10 33  1  0
 10 34  1  0
 11 35  1  0
 13 36  1  0
 16 37  1  0
 17 38  1  0
 20 39  1  0
 20 40  1  0
 20 41  1  0
M  END
>  <UniqueID>  (12) 
11

>  <SMILES>  (12) 
CCOCCCNC(=O)CNc1cc(Cl)ccc1OC

>  <Energy>  (12) 
30.04709412917156

>  <Genealogy>  (12) 
CCOCCCNC(=O)CNc1cc(Cl)ccc1OC (3D coordinates assigned)
CCOCCCNC(=O)CNc1cc(Cl)ccc1OC (optimized conformer: 30.04709412917156 kcal/mol)

>  <smiles>  (12) 
CCOCCCNC(=O)CNc1cc(Cl)ccc1OC

>  <score_type>  (12) 
oracle

>  <origin>  (12) 
adg

>  <m_score__min__energy>  (12) 
-6.1799999999999997

>  <m_primary>  (12) 
energy

$$$$
12:0
     RDKit          3D

 59 62  0  0  0  0  0  0  0  0999 V2000
   65.6320   32.3920   50.0450 C   0  0  0  0  0  0  0  0  0  0  0  0
   64.1420   32.4370   49.6820 C   0  0  0  0  0  0  0  0  0  0  0  0
   63.9170   32.4580   48.2100 N   0  0  0  0  0  0  0  0  0  0  0  0
   63.6940   33.8440   47.7230 C   0  0  0  0  0  0  0  0  0  0  0  0
   63.0120   33.8890   46.3500 C   0  0  0  0  0  0  0  0  0  0  0  0
   62.8370   31.5130   47.8110 C   0  0  0  0  0  0  0  0  0  0  0  0
   61.8880   31.0710   48.9530 C   0  0  0  0  0  0  0  0  0  0  0  0
   60.5470   31.6370   48.8110 N   0  0  0  0  0  0  0  0  0  0  0  0
   59.7990   31.4210   47.6080 C   0  0  0  0  0  0  0  0  0  0  0  0
   59.3940   30.1360   47.2570 C   0  0  0  0  0  0  0  0  0  0  0  0
   58.6510   29.9180   46.1130 C   0  0  0  0  0  0  0  0  0  0  0  0
   58.3810   30.9230   45.2190 N   0  0  0  0  0  0  0  0  0  0  0  0
   57.8790   30.5990   43.8730 C   0  0  0  0  0  0  0  0  0  0  0  0
   58.6570   32.2290   45.5910 C   0  0  0  0  0  0  0  0  0  0  0  0
   58.2130   33.3330   44.8230 C   0  0  0  0  0  0  0  0  0  0  0  0
   58.5330   34.6400   45.1910 C   0  0  0  0  0  0  0  0  0  0  0  0
   59.2910   34.8830   46.3340 C   0  0  0  0  0  0  0  0  0  0  0  0
   59.7170   33.8230   47.1310 C   0  0  0  0  0  0  0  0  0  0  0  0
   59.3950   32.4950   46.7880 C   0  0  0  0  0  0  0  0  0  0  0  0
   58.2760   28.4970   46.0910 C   0  0  0  0  0  0  0  0  0  0  0  0
   57.3730   27.7860   45.2880 C   0  0  0  0  0  0  0  0  0  0  0  0
   57.1540   26.4270   45.5600 C   0  0  0  0  0  0  0  0  0  0  0  0
   57.7870   25.7950   46.6460 C   0  0  0  0  0  0  0  0  0  0  0  0
   57.5280   24.4340   46.8660 O   0  0  0  0  0  0  0  0  0  0  0  0
   56.3740   23.9340   47.5330 C   0  0  0  0  0  0  0  0  0  0  0  0
   58.6400   26.5460   47.4840 C   0  0  0  0  0  0  0  0  0  0  0  0
   58.8580   27.8930   47.1920 C   0  0  0  0  0  0  0  0  0  0  0  0
   59.6210   28.8690   48.0280 C   0  0  0  0  0  0  0  0  0  0  0  0
   65.7428   32.3887   51.1394 H   0  0  0  0  0  0  0  0  0  0  0  0
   66.0836   31.4798   49.6279 H   0  0  0  0  0  0  0  0  0  0  0  0
   66.1378   33.2753   49.6279 H   0  0  0  0  0  0  0  0  0  0  0  0
   63.6490   31.5479   50.1021 H   0  0  0  0  0  0  0  0  0  0  0  0
   63.7230   33.3648   50.0987 H   0  0  0  0  0  0  0  0  0  0  0  0
   64.7890   32.0980   47.7520 H   0  0  0  0  0  0  0  0  0  0  0  0
   63.0589   34.3735   48.4484 H   0  0  0  0  0  0  0  0  0  0  0  0
   64.6797   34.3211   47.6190 H   0  0  0  0  0  0  0  0  0  0  0  0
   61.9226   33.9609   46.4839 H   0  0  0  0  0  0  0  0  0  0  0  0
   63.3713   34.7654   45.7907 H   0  0  0  0  0  0  0  0  0  0  0  0
   63.2530   32.9730   45.7907 H   0  0  0  0  0  0  0  0  0  0  0  0
   62.2296   31.9999   47.0338 H   0  0  0  0  0  0  0  0  0  0  0  0
   63.3442   30.5997   47.4667 H   0  0  0  0  0  0  0  0  0  0  0  0
   61.8115   29.9737   48.9445 H   0  0  0  0  0  0  0  0  0  0  0  0
   62.3090   31.4372   49.9010 H   0  0  0  0  0  0  0  0  0  0  0  0
   60.2170   32.3820   49.4640 H   0  0  0  0  0  0  0  0  0  0  0  0
   56.9576   30.0043   43.9586 H   0  0  0  0  0  0  0  0  0  0  0  0
   57.6652   31.5300   43.3275 H   0  0  0  0  0  0  0  0  0  0  0  0
   58.6393   30.0207   43.3275 H   0  0  0  0  0  0  0  0  0  0  0  0
   57.6064   33.1572   43.9224 H   0  0  0  0  0  0  0  0  0  0  0  0
   58.1850   35.4827   44.5756 H   0  0  0  0  0  0  0  0  0  0  0  0
   59.5541   35.9153   46.6082 H   0  0  0  0  0  0  0  0  0  0  0  0
   60.3096   34.0244   48.0356 H   0  0  0  0  0  0  0  0  0  0  0  0
   56.8463   28.2840   44.4606 H   0  0  0  0  0  0  0  0  0  0  0  0
   56.4775   25.8473   44.9148 H   0  0  0  0  0  0  0  0  0  0  0  0
   56.5226   23.9984   48.6210 H   0  0  0  0  0  0  0  0  0  0  0  0
   55.4968   24.5327   47.2467 H   0  0  0  0  0  0  0  0  0  0  0  0
   56.2109   22.8845   47.2467 H   0  0  0  0  0  0  0  0  0  0  0  0
   59.1248   26.0768   48.3529 H   0  0  0  0  0  0  0  0  0  0  0  0
   59.2119   28.9362   49.0469 H   0  0  0  0  0  0  0  0  0  0  0  0
   60.6795   28.6105   48.1785 H   0  0  0  0  0  0  0  0  0  0  0  0
  1  2  1  0
  2  3  1  0
  3  4  1  0
  4  5  1  0
  3  6  1  0
  6  7  1  0
  7  8  1  0
  8  9  1  0
  9 10  2  0
 10 11  1  0
 11 12  2  0
 12 13  1  0
 12 14  1  0
 14 15  2  0
 15 16  1  0
 16 17  2  0
 17 18  1  0
 18 19  2  0
 11 20  1  0
 20 21  2  0
 21 22  1  0
 22 23  2  0
 23 24  1  0
 24 25  1  0
 23 26  1  0
 26 27  2  0
 27 28  1  0
 19  9  1  0
 27 20  1  0
 28 10  1  0
 19 14  1  0
  1 29  1  0
  1 30  1  0
  1 31  1  0
  2 32  1  0
  2 33  1  0
  3 34  1  0
  4 35  1  0
  4 36  1  0
  5 37  1  0
  5 38  1  0
  5 39  1  0
  6 40  1  0
  6 41  1  0
  7 42  1  0
  7 43  1  0
  8 44  1  0
 13 45  1  0
 13 46  1  0
 13 47  1  0
 15 48  1  0
 16 49  1  0
 17 50  1  0
 18 51  1  0
 21 52  1  0
 22 53  1  0
 25 54  1  0
 25 55  1  0
 25 56  1  0
 26 57  1  0
 28 58  1  0
 28 59  1  0
M  CHG  2   3   1  12   1
M  END
>  <UniqueID>  (13) 
12

>  <SMILES>  (13) 
CC[NH+](CC)CCNc1c2c([n+](C)c3ccccc13)-c1ccc(OC)cc1C2

>  <Energy>  (13) 
107.00391352297896

>  <Genealogy>  (13) 
CC[NH+](CC)CCNc1c2c([n+](C)c3ccccc13)-c1ccc(OC)cc1C2 (protonated)
CC[NH+](CC)CCNc1c2c([n+](C)c3ccccc13)-c1ccc(OC)cc1C2 (3D coordinates assigned)
CC[NH+](CC)CCNc1c2c([n+](C)c3ccccc13)-c1ccc(OC)cc1C2 (nonaromatic ring conformer: 107.00391352297896 kcal/mol)

>  <smiles>  (13) 
CCN(CC)CCNc1c2c([n+](C)c3ccccc13)-c1ccc(OC)cc1C2

>  <score_type>  (13) 
oracle

>  <origin>  (13) 
adg

>  <m_score__min__energy>  (13) 
-5.3600000000000003

>  <m_primary>  (13) 
energy

$$$$
13:0
     RDKit          3D

 40 42  0  0  0  0  0  0  0  0999 V2000
   59.8790   30.0240   48.9010 C   0  0  0  0  0  0  0  0  0  0  0  0
   58.7800   31.0400   49.2060 C   0  0  0  0  0  0  0  0  0  0  0  0
   58.9980   32.3000   48.4510 N   0  0  0  0  0  0  0  0  0  0  0  0
   59.4650   33.4270   49.1110 C   0  0  0  0  0  0  0  0  0  0  0  0
   59.7990   33.4480   50.5980 C   0  0  0  0  0  0  0  0  0  0  0  0
   61.1450   32.9110   50.8720 N   0  0  0  0  0  0  0  0  0  0  0  0
   62.2080   33.7800   50.3420 C   0  0  0  0  0  0  0  0  0  0  0  0
   62.7440   33.2270   49.0570 C   0  0  0  0  0  0  0  0  0  0  0  0
   63.0640   33.9660   47.9250 C   0  0  0  0  0  0  0  0  0  0  0  0
   63.4680   33.1710   46.8470 C   0  0  0  0  0  0  0  0  0  0  0  0
   63.4520   31.8100   47.1190 C   0  0  0  0  0  0  0  0  0  0  0  0
   62.9310   31.5940   48.7040 S   0  0  0  0  0  0  0  0  0  0  0  0
   59.6790   34.6190   48.4070 C   0  0  0  0  0  0  0  0  0  0  0  0
   59.4240   34.6950   47.0490 C   0  0  0  0  0  0  0  0  0  0  0  0
   59.6410   35.7800   46.4430 O   0  0  0  0  0  0  0  0  0  0  0  0
   58.9270   33.5760   46.3740 C   0  0  0  0  0  0  0  0  0  0  0  0
   58.6450   33.6440   44.9950 C   0  0  0  0  0  0  0  0  0  0  0  0
   58.1240   32.5420   44.3230 C   0  0  0  0  0  0  0  0  0  0  0  0
   57.8690   31.3630   45.0140 C   0  0  0  0  0  0  0  0  0  0  0  0
   57.1900   29.9850   44.1630 Cl  0  0  0  0  0  0  0  0  0  0  0  0
   58.1440   31.2720   46.3800 C   0  0  0  0  0  0  0  0  0  0  0  0
   58.6950   32.3710   47.0960 C   0  0  0  0  0  0  0  0  0  0  0  0
   60.2949   29.6395   49.8440 H   0  0  0  0  0  0  0  0  0  0  0  0
   59.4571   29.1909   48.3197 H   0  0  0  0  0  0  0  0  0  0  0  0
   60.6765   30.5099   48.3197 H   0  0  0  0  0  0  0  0  0  0  0  0
   57.8066   30.6137   48.9217 H   0  0  0  0  0  0  0  0  0  0  0  0
   58.8007   31.2673   50.2821 H   0  0  0  0  0  0  0  0  0  0  0  0
   59.7515   34.4865   50.9575 H   0  0  0  0  0  0  0  0  0  0  0  0
   59.0681   32.8116   51.1183 H   0  0  0  0  0  0  0  0  0  0  0  0
   61.2480   31.9540   50.4610 H   0  0  0  0  0  0  0  0  0  0  0  0
   61.2590   32.8360   51.9110 H   0  0  0  0  0  0  0  0  0  0  0  0
   61.7980   34.7846   50.1610 H   0  0  0  0  0  0  0  0  0  0  0  0
   63.0254   33.8314   51.0763 H   0  0  0  0  0  0  0  0  0  0  0  0
   63.0057   35.0636   47.8808 H   0  0  0  0  0  0  0  0  0  0  0  0
   63.7703   33.5860   45.8742 H   0  0  0  0  0  0  0  0  0  0  0  0
   63.7320   31.0097   46.4182 H   0  0  0  0  0  0  0  0  0  0  0  0
   60.0542   35.5051   48.9400 H   0  0  0  0  0  0  0  0  0  0  0  0
   58.8384   34.5765   44.4446 H   0  0  0  0  0  0  0  0  0  0  0  0
   57.9140   32.6040   43.2450 H   0  0  0  0  0  0  0  0  0  0  0  0
   57.9307   30.3333   46.9123 H   0  0  0  0  0  0  0  0  0  0  0  0
  1  2  1  0
  2  3  1  0
  3  4  1  0
  4  5  1  0
  5  6  1  0
  6  7  1  0
  7  8  1  0
  8  9  2  0
  9 10  1  0
 10 11  2  0
 11 12  1  0
  4 13  2  0
 13 14  1  0
 14 15  2  0
 14 16  1  0
 16 17  2  0
 17 18  1  0
 18 19  2  0
 19 20  1  0
 19 21  1  0
 21 22  2  0
 22  3  1  0
 12  8  1  0
 22 16  1  0
  1 23  1  0
  1 24  1  0
  1 25  1  0
  2 26  1  0
  2 27  1  0
  5 28  1  0
  5 29  1  0
  6 30  1  0
  6 31  1  0
  7 32  1  0
  7 33  1  0
  9 34  1  0
 10 35  1  0
 11 36  1  0
 13 37  1  0
 17 38  1  0
 18 39  1  0
 21 40  1  0
M  CHG  1   6   1
M  END
>  <UniqueID>  (14) 
13

>  <SMILES>  (14) 
CCn1c(C[NH2+]Cc2cccs2)cc(=O)c2ccc(Cl)cc21

>  <Energy>  (14) 
79.37538615973388

>  <Genealogy>  (14) 
CCn1c(C[NH2+]Cc2cccs2)cc(=O)c2ccc(Cl)cc21 (protonated)
CCn1c(C[NH2+]Cc2cccs2)cc(=O)c2ccc(Cl)cc21 (3D coordinates assigned)
CCn1c(C[NH2+]Cc2cccs2)cc(=O)c2ccc(Cl)cc21 (optimized conformer: 79.37538615973388 kcal/mol)

>  <smiles>  (14) 
CCn1c(CNCc2cccs2)cc(=O)c2ccc(Cl)cc21

>  <score_type>  (14) 
oracle

>  <origin>  (14) 
adg

>  <m_score__min__energy>  (14) 
-5.8799999999999999

>  <m_primary>  (14) 
energy

$$$$
14:0
     RDKit          3D

 47 48  0  0  0  0  0  0  0  0999 V2000
   61.3530   30.6210   47.8570 C   0  0  0  0  0  0  0  0  0  0  0  0
   61.7360   31.7610   48.8050 C   0  0  0  0  0  0  0  0  0  0  0  0
   61.5750   33.0880   48.1650 N   0  0  0  0  0  0  0  0  0  0  0  0
   62.8520   33.8310   48.0810 C   0  0  0  0  0  0  0  0  0  0  0  0
   63.3820   33.8360   46.6450 C   0  0  0  0  0  0  0  0  0  0  0  0
   60.4790   33.9170   48.7370 C   0  0  0  0  0  0  0  0  0  0  0  0
   59.5060   34.5270   47.6840 C   0  0  0  0  0  0  0  0  0  0  0  0
   59.9180   34.2550   46.2920 N   0  0  0  0  0  0  0  0  0  0  0  0
   59.0720   33.2700   45.6490 C   0  0  0  0  0  0  0  0  0  0  0  0
   58.4980   33.5370   44.3960 C   0  0  0  0  0  0  0  0  0  0  0  0
   57.6940   32.5840   43.7660 C   0  0  0  0  0  0  0  0  0  0  0  0
   57.4520   31.3390   44.3730 C   0  0  0  0  0  0  0  0  0  0  0  0
   58.0120   31.0600   45.6440 C   0  0  0  0  0  0  0  0  0  0  0  0
   58.8310   32.0260   46.2590 C   0  0  0  0  0  0  0  0  0  0  0  0
   57.8230   29.7150   46.3310 C   0  0  0  0  0  0  0  0  0  0  0  0
   58.2860   28.4630   45.5360 C   0  0  0  0  0  0  0  0  0  0  0  0
   57.3800   28.0670   44.4440 N   0  0  0  0  0  0  0  0  0  0  0  0
   57.3360   29.0460   43.3400 C   0  0  0  0  0  0  0  0  0  0  0  0
   56.5640   30.3330   43.6830 C   0  0  0  0  0  0  0  0  0  0  0  0
   61.0568   29.7394   48.4445 H   0  0  0  0  0  0  0  0  0  0  0  0
   60.5121   30.9384   47.2228 H   0  0  0  0  0  0  0  0  0  0  0  0
   62.2149   30.3663   47.2228 H   0  0  0  0  0  0  0  0  0  0  0  0
   61.0919   31.7149   49.6955 H   0  0  0  0  0  0  0  0  0  0  0  0
   62.7951   31.6387   49.0757 H   0  0  0  0  0  0  0  0  0  0  0  0
   62.6885   34.8681   48.4091 H   0  0  0  0  0  0  0  0  0  0  0  0
   63.5914   33.3376   48.7290 H   0  0  0  0  0  0  0  0  0  0  0  0
   64.4818   33.8464   46.6601 H   0  0  0  0  0  0  0  0  0  0  0  0
   63.0310   32.9345   46.1215 H   0  0  0  0  0  0  0  0  0  0  0  0
   63.0140   34.7307   46.1215 H   0  0  0  0  0  0  0  0  0  0  0  0
   59.8923   33.2851   49.4200 H   0  0  0  0  0  0  0  0  0  0  0  0
   60.9630   34.7664   49.2412 H   0  0  0  0  0  0  0  0  0  0  0  0
   58.5048   34.1000   47.8431 H   0  0  0  0  0  0  0  0  0  0  0  0
   59.5136   35.6183   47.8222 H   0  0  0  0  0  0  0  0  0  0  0  0
   59.8570   35.1490   45.7490 H   0  0  0  0  0  0  0  0  0  0  0  0
   60.9240   33.9590   46.2700 H   0  0  0  0  0  0  0  0  0  0  0  0
   58.6828   34.5045   43.9063 H   0  0  0  0  0  0  0  0  0  0  0  0
   57.2465   32.8095   42.7868 H   0  0  0  0  0  0  0  0  0  0  0  0
   59.2903   31.8039   47.2335 H   0  0  0  0  0  0  0  0  0  0  0  0
   58.3866   29.7393   47.2753 H   0  0  0  0  0  0  0  0  0  0  0  0
   56.7359   29.5988   46.4526 H   0  0  0  0  0  0  0  0  0  0  0  0
   59.2744   28.6764   45.1029 H   0  0  0  0  0  0  0  0  0  0  0  0
   58.3026   27.6261   46.2496 H   0  0  0  0  0  0  0  0  0  0  0  0
   56.4160   27.8620   44.8050 H   0  0  0  0  0  0  0  0  0  0  0  0
   58.3685   29.3201   43.0778 H   0  0  0  0  0  0  0  0  0  0  0  0
   56.8040   28.5653   42.5058 H   0  0  0  0  0  0  0  0  0  0  0  0
   56.1756   30.7759   42.7541 H   0  0  0  0  0  0  0  0  0  0  0  0
   55.7408   30.0723   44.3645 H   0  0  0  0  0  0  0  0  0  0  0  0
  1  2  1  0
  2  3  1  0
  3  4  1  0
  4  5  1  0
  3  6  1  0
  6  7  1  0
  7  8  1  0
  8  9  1  0
  9 10  2  0
 10 11  1  0
 11 12  2  0
 12 13  1  0
 13 14  2  0
 13 15  1  0
 15 16  1  0
 16 17  1  0
 17 18  1  0
 18 19  1  0
 14  9  1  0
 19 12  1  0
  1 20  1  0
  1 21  1  0
  1 22  1  0
  2 23  1  0
  2 24  1  0
  4 25  1  0
  4 26  1  0
  5 27  1  0
  5 28  1  0
  5 29  1  0
  6 30  1  0
  6 31  1  0
  7 32  1  0
  7 33  1  0
  8 34  1  0
  8 35  1  0
 10 36  1  0
 11 37  1  0
 14 38  1  0
 15 39  1  0
 15 40  1  0
 16 41  1  0
 16 42  1  0
 17 43  1  0
 18 44  1  0
 18 45  1  0
 19 46  1  0
 19 47  1  0
M  CHG  1   8   1
M  END
>  <UniqueID>  (15) 
14

>  <SMILES>  (15) 
CCN(CC)CC[NH2+]c1ccc2c(c1)CCNCC2

>  <Energy>  (15) 
62.25809364303775

>  <Genealogy>  (15) 
CCN(CC)CC[NH2+]c1ccc2c(c1)CCNCC2 (protonated)
CCN(CC)CC[NH2+]c1ccc2c(c1)CCNCC2 (3D coordinates assigned)
CCN(CC)CC[NH2+]c1ccc2c(c1)CCNCC2 (nonaromatic ring conformer: 62.25809364303775 kcal/mol)

>  <smiles>  (15) 
CCN(CC)CCNc1ccc2c(c1)CCNCC2

>  <score_type>  (15) 
oracle

>  <origin>  (15) 
adg

>  <m_score__min__energy>  (15) 
-3.7599999999999998

>  <m_primary>  (15) 
energy

$$$$
15:0
     RDKit          3D

 62 64  0  0  0  0  0  0  0  0999 V2000
   59.2670   35.0660   45.1190 C   0  0  0  0  0  0  0  0  0  0  0  0
   59.8820   33.9150   45.9150 C   0  0  0  0  0  0  0  0  0  0  0  0
   58.8410   33.1430   46.6290 N   0  0  0  0  0  0  0  0  0  0  0  0
   58.8250   33.4440   48.0850 C   0  0  0  0  0  0  0  0  0  0  0  0
   59.8100   34.5670   48.3840 C   0  0  0  0  0  0  0  0  0  0  0  0
   57.5130   33.3570   46.0070 C   0  0  0  0  0  0  0  0  0  0  0  0
   57.2930   32.4120   44.8170 C   0  0  0  0  0  0  0  0  0  0  0  0
   58.0550   31.2160   44.9670 O   0  0  0  0  0  0  0  0  0  0  0  0
   57.4850   29.9520   45.1410 C   0  0  0  0  0  0  0  0  0  0  0  0
   56.2340   29.8060   45.1780 O   0  0  0  0  0  0  0  0  0  0  0  0
   58.3780   28.7570   45.2280 C   0  0  0  0  0  0  0  0  0  0  0  0
   59.6760   29.1220   45.9510 C   0  0  0  0  0  0  0  0  0  0  0  0
   59.4220   30.0750   47.0310 N   0  0  0  0  0  0  0  0  0  0  0  0
   59.3680   29.6510   48.3980 C   0  0  0  0  0  0  0  0  0  0  0  0
   59.3040   28.4230   48.6740 O   0  0  0  0  0  0  0  0  0  0  0  0
   59.3240   30.6350   49.4930 C   0  0  0  0  0  0  0  0  0  0  0  0
   58.1450   31.0280   50.1190 C   0  0  0  0  0  0  0  0  0  0  0  0
   58.5330   31.8930   51.1140 C   0  0  0  0  0  0  0  0  0  0  0  0
   57.7670   32.5680   52.0620 C   0  0  0  0  0  0  0  0  0  0  0  0
   58.4390   33.3680   53.0000 C   0  0  0  0  0  0  0  0  0  0  0  0
   59.8470   33.4690   52.9750 C   0  0  0  0  0  0  0  0  0  0  0  0
   60.5970   32.7720   52.0100 C   0  0  0  0  0  0  0  0  0  0  0  0
   59.9040   31.9880   51.0760 C   0  0  0  0  0  0  0  0  0  0  0  0
   60.4070   31.2220   50.0780 N   0  0  0  0  0  0  0  0  0  0  0  0
   61.8240   30.9180   49.8320 C   0  0  0  0  0  0  0  0  0  0  0  0
   62.4370   31.9580   48.9320 C   0  0  0  0  0  0  0  0  0  0  0  0
   62.7450   31.6550   47.5940 C   0  0  0  0  0  0  0  0  0  0  0  0
   63.3160   32.6260   46.7660 C   0  0  0  0  0  0  0  0  0  0  0  0
   63.5880   33.9040   47.2670 C   0  0  0  0  0  0  0  0  0  0  0  0
   63.2850   34.2120   48.5960 C   0  0  0  0  0  0  0  0  0  0  0  0
   62.7090   33.2450   49.4250 C   0  0  0  0  0  0  0  0  0  0  0  0
   58.8650   35.8184   45.8134 H   0  0  0  0  0  0  0  0  0  0  0  0
   60.0389   35.5272   44.4854 H   0  0  0  0  0  0  0  0  0  0  0  0
   58.4546   34.6807   44.4854 H   0  0  0  0  0  0  0  0  0  0  0  0
   60.4150   33.2453   45.2241 H   0  0  0  0  0  0  0  0  0  0  0  0
   60.5750   34.3362   46.6582 H   0  0  0  0  0  0  0  0  0  0  0  0
   57.8131   33.7551   48.3837 H   0  0  0  0  0  0  0  0  0  0  0  0
   59.1140   32.5442   48.6479 H   0  0  0  0  0  0  0  0  0  0  0  0
   59.9129   34.6843   49.4729 H   0  0  0  0  0  0  0  0  0  0  0  0
   60.7894   34.3216   47.9475 H   0  0  0  0  0  0  0  0  0  0  0  0
   59.4390   35.5061   47.9475 H   0  0  0  0  0  0  0  0  0  0  0  0
   56.7317   33.1732   46.7592 H   0  0  0  0  0  0  0  0  0  0  0  0
   57.4655   34.3929   45.6399 H   0  0  0  0  0  0  0  0  0  0  0  0
   56.2256   32.1532   44.7556 H   0  0  0  0  0  0  0  0  0  0  0  0
   57.6190   32.9226   43.8988 H   0  0  0  0  0  0  0  0  0  0  0  0
   57.8643   27.9586   45.7835 H   0  0  0  0  0  0  0  0  0  0  0  0
   58.6171   28.4115   44.2114 H   0  0  0  0  0  0  0  0  0  0  0  0
   60.1217   28.2094   46.3735 H   0  0  0  0  0  0  0  0  0  0  0  0
   60.3627   29.5858   45.2275 H   0  0  0  0  0  0  0  0  0  0  0  0
   59.2340   31.0780   46.8050 H   0  0  0  0  0  0  0  0  0  0  0  0
   57.1207   30.7134   49.8704 H   0  0  0  0  0  0  0  0  0  0  0  0
   56.6708   32.4771   52.0752 H   0  0  0  0  0  0  0  0  0  0  0  0
   57.8649   33.9195   53.7591 H   0  0  0  0  0  0  0  0  0  0  0  0
   60.3619   34.0979   53.7162 H   0  0  0  0  0  0  0  0  0  0  0  0
   61.6947   32.8399   51.9887 H   0  0  0  0  0  0  0  0  0  0  0  0
   62.3634   30.9053   50.7906 H   0  0  0  0  0  0  0  0  0  0  0  0
   61.8978   29.9355   49.3428 H   0  0  0  0  0  0  0  0  0  0  0  0
   62.5360   30.6505   47.1974 H   0  0  0  0  0  0  0  0  0  0  0  0
   63.5519   32.3850   45.7190 H   0  0  0  0  0  0  0  0  0  0  0  0
   64.0401   34.6659   46.6150 H   0  0  0  0  0  0  0  0  0  0  0  0
   63.4999   35.2162   48.9901 H   0  0  0  0  0  0  0  0  0  0  0  0
   62.4674   33.4932   50.4690 H   0  0  0  0  0  0  0  0  0  0  0  0
  1  2  1  0
  2  3  1  0
  3  4  1  0
  4  5  1  0
  3  6  1  0
  6  7  1  0
  7  8  1  0
  8  9  1  0
  9 10  2  0
  9 11  1  0
 11 12  1  0
 12 13  1  0
 13 14  1  0
 14 15  2  0
 14 16  1  0
 16 17  2  0
 17 18  1  0
 18 19  2  0
 19 20  1  0
 20 21  2  0
 21 22  1  0
 22 23  2  0
 23 24  1  0
 24 25  1  0
 25 26  1  0
 26 27  2  0
 27 28  1  0
 28 29  2  0
 29 30  1  0
 30 31  2  0
 24 16  1  0
 31 26  1  0
 23 18  1  0
  1 32  1  0
  1 33  1  0
  1 34  1  0
  2 35  1  0
  2 36  1  0
  4 37  1  0
  4 38  1  0
  5 39  1  0
  5 40  1  0
  5 41  1  0
  6 42  1  0
  6 43  1  0
  7 44  1  0
  7 45  1  0
 11 46  1  0
 11 47  1  0
 12 48  1  0
 12 49  1  0
 13 50  1  0
 17 51  1  0
 19 52  1  0
 20 53  1  0
 21 54  1  0
 22 55  1  0
 25 56  1  0
 25 57  1  0
 27 58  1  0
 28 59  1  0
 29 60  1  0
 30 61  1  0
 31 62  1  0
M  END
>  <UniqueID>  (16) 
15

>  <SMILES>  (16) 
CCN(CC)CCOC(=O)CCNC(=O)c1cc2ccccc2n1Cc1ccccc1

>  <Energy>  (16) 
87.87318835197301

>  <Genealogy>  (16) 
CCN(CC)CCOC(=O)CCNC(=O)c1cc2ccccc2n1Cc1ccccc1 (3D coordinates assigned)
CCN(CC)CCOC(=O)CCNC(=O)c1cc2ccccc2n1Cc1ccccc1 (optimized conformer: 87.87318835197301 kcal/mol)

>  <smiles>  (16) 
CCN(CC)CCOC(=O)CCNC(=O)c1cc2ccccc2n1Cc1ccccc1

>  <score_type>  (16) 
oracle

>  <origin>  (16) 
adg

>  <m_score__min__energy>  (16) 
-7.5899999999999999

>  <m_primary>  (16) 
energy

$$$$
16:0
     RDKit          3D

 50 52  0  0  0  0  0  0  0  0999 V2000
   51.5840   23.6080   44.5300 C   0  0  0  0  0  0  0  0  0  0  0  0
   52.8550   22.9660   44.5220 O   0  0  0  0  0  0  0  0  0  0  0  0
   54.0820   23.6390   44.6120 C   0  0  0  0  0  0  0  0  0  0  0  0
   55.0680   23.3550   43.6600 C   0  0  0  0  0  0  0  0  0  0  0  0
   56.3070   24.0000   43.7050 C   0  0  0  0  0  0  0  0  0  0  0  0
   56.5790   24.9450   44.7070 C   0  0  0  0  0  0  0  0  0  0  0  0
   57.9190   25.6440   44.7480 C   0  0  0  0  0  0  0  0  0  0  0  0
   57.7810   27.1190   44.8340 N   0  0  2  0  0  0  0  0  0  0  0  0
   59.0330   27.7650   44.3560 C   0  0  0  0  0  0  0  0  0  0  0  0
   59.1430   29.2190   44.8290 C   0  0  0  0  0  0  0  0  0  0  0  0
   59.2040   29.3050   46.3720 C   0  0  1  0  0  0  0  0  0  0  0  0
   58.5340   30.4870   46.8230 O   0  0  0  0  0  0  0  0  0  0  0  0
   58.5190   31.7270   46.1630 C   0  0  0  0  0  0  0  0  0  0  0  0
   59.4310   32.7580   46.4680 C   0  0  0  0  0  0  0  0  0  0  0  0
   59.3760   33.9740   45.7830 C   0  0  0  0  0  0  0  0  0  0  0  0
   58.4150   34.1770   44.7930 C   0  0  0  0  0  0  0  0  0  0  0  0
   57.5030   33.1650   44.4840 C   0  0  0  0  0  0  0  0  0  0  0  0
   57.5490   31.9340   45.1680 C   0  0  0  0  0  0  0  0  0  0  0  0
   56.6500   30.8930   44.8860 O   0  0  0  0  0  0  0  0  0  0  0  0
   56.3360   30.4300   43.5770 C   0  0  0  0  0  0  0  0  0  0  0  0
   58.5480   28.0800   47.0390 C   0  0  0  0  0  0  0  0  0  0  0  0
   57.3710   27.5600   46.2020 C   0  0  0  0  0  0  0  0  0  0  0  0
   55.5940   25.2280   45.6670 C   0  0  0  0  0  0  0  0  0  0  0  0
   54.3540   24.5830   45.6210 C   0  0  0  0  0  0  0  0  0  0  0  0
   51.2619   23.7707   45.5691 H   0  0  0  0  0  0  0  0  0  0  0  0
   51.6591   24.5763   44.0135 H   0  0  0  0  0  0  0  0  0  0  0  0
   50.8492   22.9729   44.0135 H   0  0  0  0  0  0  0  0  0  0  0  0
   54.8659   22.6175   42.8693 H   0  0  0  0  0  0  0  0  0  0  0  0
   57.0732   23.7660   42.9513 H   0  0  0  0  0  0  0  0  0  0  0  0
   58.4768   25.2888   45.6271 H   0  0  0  0  0  0  0  0  0  0  0  0
   58.4504   25.4091   43.8140 H   0  0  0  0  0  0  0  0  0  0  0  0
   57.0240   27.4140   44.1710 H   0  0  0  0  0  0  0  0  0  0  0  0
   59.8943   27.1996   44.7413 H   0  0  0  0  0  0  0  0  0  0  0  0
   59.0182   27.7647   43.2561 H   0  0  0  0  0  0  0  0  0  0  0  0
   60.0569   29.6643   44.4089 H   0  0  0  0  0  0  0  0  0  0  0  0
   58.2513   29.7641   44.4859 H   0  0  0  0  0  0  0  0  0  0  0  0
   60.2662   29.3331   46.6565 H   0  0  0  0  0  0  0  0  0  0  0  0
   60.1897   32.6040   47.2494 H   0  0  0  0  0  0  0  0  0  0  0  0
   60.0921   34.7731   46.0249 H   0  0  0  0  0  0  0  0  0  0  0  0
   58.3751   35.1354   44.2546 H   0  0  0  0  0  0  0  0  0  0  0  0
   56.7457   33.3298   43.7034 H   0  0  0  0  0  0  0  0  0  0  0  0
   55.7198   29.5215   43.6474 H   0  0  0  0  0  0  0  0  0  0  0  0
   55.7794   31.2095   43.0360 H   0  0  0  0  0  0  0  0  0  0  0  0
   57.2661   30.2013   43.0360 H   0  0  0  0  0  0  0  0  0  0  0  0
   59.2977   27.2814   47.1400 H   0  0  0  0  0  0  0  0  0  0  0  0
   58.1687   28.3810   48.0267 H   0  0  0  0  0  0  0  0  0  0  0  0
   56.9185   26.7050   46.7256 H   0  0  0  0  0  0  0  0  0  0  0  0
   56.6588   28.3897   46.0821 H   0  0  0  0  0  0  0  0  0  0  0  0
   55.7991   25.9618   46.4604 H   0  0  0  0  0  0  0  0  0  0  0  0
   53.5880   24.8140   46.3760 H   0  0  0  0  0  0  0  0  0  0  0  0
  1  2  1  0
  2  3  1  0
  3  4  2  0
  4  5  1  0
  5  6  2  0
  6  7  1  0
  7  8  1  0
  8  9  1  0
  9 10  1  0
 10 11  1  0
 11 12  1  0
 12 13  1  0
 13 14  2  0
 14 15  1  0
 15 16  2  0
 16 17  1  0
 17 18  2  0
 18 19  1  0
 19 20  1  0
 11 21  1  0
 21 22  1  0
  6 23  1  0
 23 24  2  0
 24  3  1  0
 22  8  1  0
 18 13  1  0
  1 25  1  0
  1 26  1  0
  1 27  1  0
  4 28  1  0
  5 29  1  0
  7 30  1  0
  7 31  1  0
  8 32  1  6
  9 33  1  0
  9 34  1  0
 10 35  1  0
 10 36  1  0
 11 37  1  6
 14 38  1  0
 15 39  1  0
 16 40  1  0
 17 41  1  0
 20 42  1  0
 20 43  1  0
 20 44  1  0
 21 45  1  0
 21 46  1  0
 22 47  1  0
 22 48  1  0
 23 49  1  0
 24 50  1  0
M  CHG  1   8   1
M  END
>  <UniqueID>  (17) 
16

>  <SMILES>  (17) 
COc1ccc(C[NH+]2CCC(Oc3ccccc3OC)CC2)cc1

>  <Energy>  (17) 
59.57177669468567

>  <Genealogy>  (17) 
COc1ccc(C[NH+]2CCC(Oc3ccccc3OC)CC2)cc1 (protonated)
COc1ccc(C[NH+]2CCC(Oc3ccccc3OC)CC2)cc1 (3D coordinates assigned)
COc1ccc(C[NH+]2CCC(Oc3ccccc3OC)CC2)cc1 (nonaromatic ring conformer: 59.57177669468567 kcal/mol)

>  <smiles>  (17) 
COc1ccc(CN2CCC(Oc3ccccc3OC)CC2)cc1

>  <score_type>  (17) 
oracle

>  <origin>  (17) 
adg

>  <m_score__min__energy>  (17) 
-6.1299999999999999

>  <m_primary>  (17) 
energy

$$$$
17:0
     RDKit          3D

 45 47  0  0  0  0  0  0  0  0999 V2000
   65.7210   33.0790   51.2280 C   0  0  0  0  0  0  0  0  0  0  0  0
   65.3930   33.0190   49.8430 O   0  0  0  0  0  0  0  0  0  0  0  0
   64.1150   33.2680   49.3210 C   0  0  0  0  0  0  0  0  0  0  0  0
   63.7950   32.7380   48.0660 C   0  0  0  0  0  0  0  0  0  0  0  0
   62.5360   32.9570   47.5010 C   0  0  0  0  0  0  0  0  0  0  0  0
   61.5690   33.7090   48.1900 C   0  0  0  0  0  0  0  0  0  0  0  0
   60.2740   33.9460   47.6040 N   0  0  0  0  0  0  0  0  0  0  0  0
   60.0930   34.9860   46.5810 C   0  0  0  0  0  0  0  0  0  0  0  0
   59.4520   34.3760   45.3300 C   0  0  0  0  0  0  0  0  0  0  0  0
   58.3660   33.4470   45.6820 N   0  0  0  0  0  0  0  0  0  0  0  0
   57.8010   32.5940   44.6680 C   0  0  0  0  0  0  0  0  0  0  0  0
   57.9590   32.9060   43.3110 C   0  0  0  0  0  0  0  0  0  0  0  0
   57.4020   32.0520   42.3560 C   0  0  0  0  0  0  0  0  0  0  0  0
   57.5250   32.3640   40.8980 C   0  0  0  0  0  0  0  0  0  0  0  0
   56.7220   30.9470   42.7570 N   0  0  0  0  0  0  0  0  0  0  0  0
   56.5830   30.6450   44.0750 C   0  0  0  0  0  0  0  0  0  0  0  0
   55.8290   29.4190   44.4800 C   0  0  0  0  0  0  0  0  0  0  0  0
   57.1200   31.4660   45.0210 N   0  0  0  0  0  0  0  0  0  0  0  0
   57.9260   33.3380   47.0790 C   0  0  0  0  0  0  0  0  0  0  0  0
   59.1380   33.0910   47.9850 C   0  0  0  0  0  0  0  0  0  0  0  0
   61.8910   34.2470   49.4470 C   0  0  0  0  0  0  0  0  0  0  0  0
   63.1520   34.0290   50.0100 C   0  0  0  0  0  0  0  0  0  0  0  0
   64.8136   32.9130   51.8272 H   0  0  0  0  0  0  0  0  0  0  0  0
   66.4629   32.3017   51.4631 H   0  0  0  0  0  0  0  0  0  0  0  0
   66.1397   34.0686   51.4631 H   0  0  0  0  0  0  0  0  0  0  0  0
   64.5416   32.1434   47.5192 H   0  0  0  0  0  0  0  0  0  0  0  0
   62.3003   32.5385   46.5114 H   0  0  0  0  0  0  0  0  0  0  0  0
   59.4403   35.7781   46.9767 H   0  0  0  0  0  0  0  0  0  0  0  0
   61.0727   35.4110   46.3172 H   0  0  0  0  0  0  0  0  0  0  0  0
   59.0431   35.1849   44.7066 H   0  0  0  0  0  0  0  0  0  0  0  0
   60.2244   33.8148   44.7837 H   0  0  0  0  0  0  0  0  0  0  0  0
   58.5112   33.8063   43.0036 H   0  0  0  0  0  0  0  0  0  0  0  0
   57.9258   33.3807   40.7731 H   0  0  0  0  0  0  0  0  0  0  0  0
   58.2054   31.6409   40.4244 H   0  0  0  0  0  0  0  0  0  0  0  0
   56.5342   32.2997   40.4244 H   0  0  0  0  0  0  0  0  0  0  0  0
   55.7913   29.3576   45.5776 H   0  0  0  0  0  0  0  0  0  0  0  0
   54.8055   29.4692   44.0802 H   0  0  0  0  0  0  0  0  0  0  0  0
   56.3356   28.5282   44.0802 H   0  0  0  0  0  0  0  0  0  0  0  0
   57.0230   31.2110   46.0290 H   0  0  0  0  0  0  0  0  0  0  0  0
   57.4291   34.2721   47.3797 H   0  0  0  0  0  0  0  0  0  0  0  0
   57.2225   32.4978   47.1747 H   0  0  0  0  0  0  0  0  0  0  0  0
   58.8578   33.3103   49.0259 H   0  0  0  0  0  0  0  0  0  0  0  0
   59.4434   32.0397   47.8772 H   0  0  0  0  0  0  0  0  0  0  0  0
   61.1455   34.8443   49.9924 H   0  0  0  0  0  0  0  0  0  0  0  0
   63.3926   34.4540   50.9956 H   0  0  0  0  0  0  0  0  0  0  0  0
  1  2  1  0
  2  3  1  0
  3  4  2  0
  4  5  1  0
  5  6  2  0
  6  7  1  0
  7  8  1  0
  8  9  1  0
  9 10  1  0
 10 11  1  0
 11 12  2  0
 12 13  1  0
 13 14  1  0
 13 15  2  0
 15 16  1  0
 16 17  1  0
 16 18  2  0
 10 19  1  0
 19 20  1  0
  6 21  1  0
 21 22  2  0
 22  3  1  0
 20  7  1  0
 18 11  1  0
  1 23  1  0
  1 24  1  0
  1 25  1  0
  4 26  1  0
  5 27  1  0
  8 28  1  0
  8 29  1  0
  9 30  1  0
  9 31  1  0
 12 32  1  0
 14 33  1  0
 14 34  1  0
 14 35  1  0
 17 36  1  0
 17 37  1  0
 17 38  1  0
 18 39  1  0
 19 40  1  0
 19 41  1  0
 20 42  1  0
 20 43  1  0
 21 44  1  0
 22 45  1  0
M  CHG  1  18   1
M  END
>  <UniqueID>  (18) 
17

>  <SMILES>  (18) 
COc1ccc(N2CCN(c3cc(C)nc(C)[nH+]3)CC2)cc1

>  <Energy>  (18) 
51.69638304088073

>  <Genealogy>  (18) 
COc1ccc(N2CCN(c3cc(C)nc(C)[nH+]3)CC2)cc1 (protonated)
COc1ccc(N2CCN(c3cc(C)nc(C)[nH+]3)CC2)cc1 (3D coordinates assigned)
COc1ccc(N2CCN(c3cc(C)nc(C)[nH+]3)CC2)cc1 (nonaromatic ring conformer: 51.69638304088073 kcal/mol)

>  <smiles>  (18) 
COc1ccc(N2CCN(c3cc(C)nc(C)n3)CC2)cc1

>  <score_type>  (18) 
oracle

>  <origin>  (18) 
adg

>  <m_score__min__energy>  (18) 
-6.0899999999999999

>  <m_primary>  (18) 
energy

$$$$
18:0
     RDKit          3D

 36 38  0  0  0  0  0  0  0  0999 V2000
   57.9870   27.6390   46.8310 C   0  0  0  0  0  0  0  0  0  0  0  0
   57.9120   28.8980   46.0200 C   0  0  0  0  0  0  0  0  0  0  0  0
   57.1640   28.9170   44.8160 C   0  0  0  0  0  0  0  0  0  0  0  0
   57.0690   30.1020   44.0590 C   0  0  0  0  0  0  0  0  0  0  0  0
   56.3080   30.1490   42.7670 C   0  0  0  0  0  0  0  0  0  0  0  0
   57.7230   31.2290   44.5590 C   0  0  0  0  0  0  0  0  0  0  0  0
   57.8430   32.5120   44.0600 C   0  0  0  0  0  0  0  0  0  0  0  0
   58.6200   33.1920   44.9930 C   0  0  0  0  0  0  0  0  0  0  0  0
   58.9590   34.5890   44.8980 C   0  0  0  0  0  0  0  0  0  0  0  0
   59.2320   35.7100   44.8210 N   0  0  0  0  0  0  0  0  0  0  0  0
   58.9660   32.3810   46.0260 N   0  0  0  0  0  0  0  0  0  0  0  0
   59.7350   32.7360   47.1890 C   0  0  0  0  0  0  0  0  0  0  0  0
   59.1000   32.9390   48.4220 C   0  0  0  0  0  0  0  0  0  0  0  0
   59.8460   33.2930   49.5490 C   0  0  0  0  0  0  0  0  0  0  0  0
   61.2380   33.4550   49.4600 C   0  0  0  0  0  0  0  0  0  0  0  0
   62.0270   33.8380   50.6810 C   0  0  0  0  0  0  0  0  0  0  0  0
   61.8770   33.2570   48.2180 C   0  0  0  0  0  0  0  0  0  0  0  0
   63.7730   33.4600   48.0150 Br  0  0  0  0  0  0  0  0  0  0  0  0
   61.1240   32.9020   47.0940 C   0  0  0  0  0  0  0  0  0  0  0  0
   58.4110   31.1850   45.7420 C   0  0  0  0  0  0  0  0  0  0  0  0
   58.5200   30.0410   46.4690 N   0  0  0  0  0  0  0  0  0  0  0  0
   57.9720   27.8911   47.9016 H   0  0  0  0  0  0  0  0  0  0  0  0
   57.1255   26.9978   46.5932 H   0  0  0  0  0  0  0  0  0  0  0  0
   58.9186   27.1046   46.5932 H   0  0  0  0  0  0  0  0  0  0  0  0
   56.6562   28.0041   44.4715 H   0  0  0  0  0  0  0  0  0  0  0  0
   55.2305   30.2155   42.9783 H   0  0  0  0  0  0  0  0  0  0  0  0
   56.6231   31.0294   42.1877 H   0  0  0  0  0  0  0  0  0  0  0  0
   56.5124   29.2365   42.1877 H   0  0  0  0  0  0  0  0  0  0  0  0
   57.4166   32.9097   43.1272 H   0  0  0  0  0  0  0  0  0  0  0  0
   58.0095   32.8191   48.5027 H   0  0  0  0  0  0  0  0  0  0  0  0
   59.3392   33.4459   50.5132 H   0  0  0  0  0  0  0  0  0  0  0  0
   61.4617   33.5636   51.5838 H   0  0  0  0  0  0  0  0  0  0  0  0
   62.9905   33.3073   50.6763 H   0  0  0  0  0  0  0  0  0  0  0  0
   62.2061   34.9233   50.6763 H   0  0  0  0  0  0  0  0  0  0  0  0
   61.6260   32.7517   46.1269 H   0  0  0  0  0  0  0  0  0  0  0  0
   59.0720   30.0270   47.3560 H   0  0  0  0  0  0  0  0  0  0  0  0
  1  2  1  0
  2  3  2  0
  3  4  1  0
  4  5  1  0
  4  6  2  0
  6  7  1  0
  7  8  2  0
  8  9  1  0
  9 10  3  0
  8 11  1  0
 11 12  1  0
 12 13  2  0
 13 14  1  0
 14 15  2  0
 15 16  1  0
 15 17  1  0
 17 18  1  0
 17 19  2  0
 11 20  1  0
 20 21  2  0
 21  2  1  0
 20  6  1  0
 19 12  1  0
  1 22  1  0
  1 23  1  0
  1 24  1  0
  3 25  1  0
  5 26  1  0
  5 27  1  0
  5 28  1  0
  7 29  1  0
 13 30  1  0
 14 31  1  0
 16 32  1  0
 16 33  1  0
 16 34  1  0
 19 35  1  0
 21 36  1  0
M  CHG  1  21   1
M  END
>  <UniqueID>  (19) 
18

>  <SMILES>  (19) 
Cc1cc(C)c2cc(C#N)n(-c3ccc(C)c(Br)c3)c2[nH+]1

>  <Energy>  (19) 
77.3184037952259

>  <Genealogy>  (19) 
Cc1cc(C)c2cc(C#N)n(-c3ccc(C)c(Br)c3)c2[nH+]1 (protonated)
Cc1cc(C)c2cc(C#N)n(-c3ccc(C)c(Br)c3)c2[nH+]1 (3D coordinates assigned)
Cc1cc(C)c2cc(C#N)n(-c3ccc(C)c(Br)c3)c2[nH+]1 (optimized conformer: 77.3184037952259 kcal/mol)

>  <smiles>  (19) 
Cc1cc(C)c2cc(C#N)n(-c3ccc(C)c(Br)c3)c2n1

>  <score_type>  (19) 
oracle

>  <origin>  (19) 
adg

>  <m_score__min__energy>  (19) 
-6.0899999999999999

>  <m_primary>  (19) 
energy

$$$$
19:0
     RDKit          3D

 60 63  0  0  0  0  0  0  0  0999 V2000
   62.9890   33.4460   46.7720 C   0  0  0  0  0  0  0  0  0  0  0  0
   62.0970   33.7950   47.9570 C   0  0  0  0  0  0  0  0  0  0  0  0
   61.6320   32.5870   48.6510 N   0  0  0  0  0  0  0  0  0  0  0  0
   62.2160   31.2790   48.3100 C   0  0  0  0  0  0  0  0  0  0  0  0
   61.1420   30.3130   47.8760 C   0  0  0  0  0  0  0  0  0  0  0  0
   60.6370   30.3540   46.5630 C   0  0  0  0  0  0  0  0  0  0  0  0
   59.7080   29.4020   46.1360 C   0  0  0  0  0  0  0  0  0  0  0  0
   59.2610   28.3970   47.0130 C   0  0  0  0  0  0  0  0  0  0  0  0
   58.3210   27.3560   46.5230 C   0  0  0  0  0  0  0  0  0  0  0  0
   58.7110   26.0500   46.5780 N   0  0  0  0  0  0  0  0  0  0  0  0
   57.8960   25.0410   46.1800 C   0  0  0  0  0  0  0  0  0  0  0  0
   56.6220   25.3410   45.7010 C   0  0  0  0  0  0  0  0  0  0  0  0
   56.2250   26.6370   45.6240 N   0  0  0  0  0  0  0  0  0  0  0  0
   57.0390   27.6590   46.0110 C   0  0  0  0  0  0  0  0  0  0  0  0
   56.6510   28.8930   45.8810 N   0  0  0  0  0  0  0  0  0  0  0  0
   56.2520   29.6360   44.3650 S   0  0  0  0  0  0  0  0  0  0  0  0
   54.8220   29.3410   44.0230 O   0  0  0  0  0  0  0  0  0  0  0  0
   57.1470   29.1030   43.2880 O   0  0  0  0  0  0  0  0  0  0  0  0
   56.4710   31.3540   44.4800 N   0  0  0  0  0  0  0  0  0  0  0  0
   57.8640   31.6920   44.1730 C   0  0  0  0  0  0  0  0  0  0  0  0
   58.3320   32.7900   45.0880 C   0  0  0  0  0  0  0  0  0  0  0  0
   59.1150   33.8470   44.5950 C   0  0  0  0  0  0  0  0  0  0  0  0
   59.5170   34.8800   45.4450 C   0  0  0  0  0  0  0  0  0  0  0  0
   59.1370   34.8700   46.7900 C   0  0  0  0  0  0  0  0  0  0  0  0
   58.3480   33.8300   47.2860 C   0  0  0  0  0  0  0  0  0  0  0  0
   57.9380   32.7970   46.4360 C   0  0  0  0  0  0  0  0  0  0  0  0
   59.7730   28.3540   48.3230 C   0  0  0  0  0  0  0  0  0  0  0  0
   60.6960   29.3100   48.7540 C   0  0  0  0  0  0  0  0  0  0  0  0
   60.6870   32.7030   49.7350 C   0  0  0  0  0  0  0  0  0  0  0  0
   59.4130   32.1170   49.6430 C   0  0  0  0  0  0  0  0  0  0  0  0
   58.4930   32.2560   50.6850 C   0  0  0  0  0  0  0  0  0  0  0  0
   58.8360   32.9740   51.8320 C   0  0  0  0  0  0  0  0  0  0  0  0
   60.1040   33.5530   51.9390 C   0  0  0  0  0  0  0  0  0  0  0  0
   61.0260   33.4210   50.8950 C   0  0  0  0  0  0  0  0  0  0  0  0
   63.9548   33.0681   47.1388 H   0  0  0  0  0  0  0  0  0  0  0  0
   62.5008   32.6725   46.1609 H   0  0  0  0  0  0  0  0  0  0  0  0
   63.1553   34.3454   46.1609 H   0  0  0  0  0  0  0  0  0  0  0  0
   62.6669   34.4166   48.6632 H   0  0  0  0  0  0  0  0  0  0  0  0
   61.2178   34.3385   47.5806 H   0  0  0  0  0  0  0  0  0  0  0  0
   62.9380   31.4085   47.4903 H   0  0  0  0  0  0  0  0  0  0  0  0
   62.7185   30.8729   49.2003 H   0  0  0  0  0  0  0  0  0  0  0  0
   60.9751   31.1387   45.8702 H   0  0  0  0  0  0  0  0  0  0  0  0
   59.3231   29.4385   45.1062 H   0  0  0  0  0  0  0  0  0  0  0  0
   58.2373   23.9967   46.2348 H   0  0  0  0  0  0  0  0  0  0  0  0
   55.9434   24.5339   45.3878 H   0  0  0  0  0  0  0  0  0  0  0  0
   55.8610   31.7880   43.7440 H   0  0  0  0  0  0  0  0  0  0  0  0
   58.4960   30.8030   44.3154 H   0  0  0  0  0  0  0  0  0  0  0  0
   57.9351   32.0321   43.1293 H   0  0  0  0  0  0  0  0  0  0  0  0
   59.4125   33.8613   43.5361 H   0  0  0  0  0  0  0  0  0  0  0  0
   60.1339   35.7030   45.0550 H   0  0  0  0  0  0  0  0  0  0  0  0
   59.4597   35.6819   47.4583 H   0  0  0  0  0  0  0  0  0  0  0  0
   58.0489   33.8229   48.3445 H   0  0  0  0  0  0  0  0  0  0  0  0
   57.3042   31.9867   46.8253 H   0  0  0  0  0  0  0  0  0  0  0  0
   59.4443   27.5623   49.0123 H   0  0  0  0  0  0  0  0  0  0  0  0
   61.0757   29.2777   49.7859 H   0  0  0  0  0  0  0  0  0  0  0  0
   59.1384   31.5450   48.7444 H   0  0  0  0  0  0  0  0  0  0  0  0
   57.4961   31.7987   50.6015 H   0  0  0  0  0  0  0  0  0  0  0  0
   58.1095   33.0841   52.6506 H   0  0  0  0  0  0  0  0  0  0  0  0
   60.3772   34.1132   52.8454 H   0  0  0  0  0  0  0  0  0  0  0  0
   62.0212   33.8814   50.9823 H   0  0  0  0  0  0  0  0  0  0  0  0
  1  2  1  0
  2  3  1  0
  3  4  1  0
  4  5  1  0
  5  6  2  0
  6  7  1  0
  7  8  2  0
  8  9  1  0
  9 10  2  0
 10 11  1  0
 11 12  2  0
 12 13  1  0
 13 14  1  0
 14 15  2  3
 15 16  1  0
 16 17  2  0
 16 18  2  0
 16 19  1  0
 19 20  1  0
 20 21  1  0
 21 22  2  0
 22 23  1  0
 23 24  2  0
 24 25  1  0
 25 26  2  0
  8 27  1  0
 27 28  2  0
  3 29  1  0
 29 30  2  0
 30 31  1  0
 31 32  2  0
 32 33  1  0
 33 34  2  0
 28  5  1  0
 34 29  1  0
 14  9  1  0
 26 21  1  0
  1 35  1  0
  1 36  1  0
  1 37  1  0
  2 38  1  0
  2 39  1  0
  4 40  1  0
  4 41  1  0
  6 42  1  0
  7 43  1  0
 11 44  1  0
 12 45  1  0
 19 46  1  0
 20 47  1  0
 20 48  1  0
 22 49  1  0
 23 50  1  0
 24 51  1  0
 25 52  1  0
 26 53  1  0
 27 54  1  0
 28 55  1  0
 30 56  1  0
 31 57  1  0
 32 58  1  0
 33 59  1  0
 34 60  1  0
M  CHG  1  13  -1
M  END
>  <UniqueID>  (20) 
19

>  <SMILES>  (20) 
CCN(Cc1ccc(-c2ncc[n-]c2=NS(=O)(=O)NCc2ccccc2)cc1)c1ccccc1

>  <Energy>  (20) 
69.93470605006934

>  <Genealogy>  (20) 
CCN(Cc1ccc(-c2ncc[n-]c2=NS(=O)(=O)NCc2ccccc2)cc1)c1ccccc1 (protonated)
CCN(Cc1ccc(-c2ncc[n-]c2=NS(=O)(=O)NCc2ccccc2)cc1)c1ccccc1 (3D coordinates assigned)
CCN(Cc1ccc(-c2ncc[n-]c2=NS(=O)(=O)NCc2ccccc2)cc1)c1ccccc1 (optimized conformer: 69.93470605006934 kcal/mol)

>  <smiles>  (20) 
CCN(Cc1ccc(-c2ncc[nH]c2=NS(=O)(=O)NCc2ccccc2)cc1)c1ccccc1

>  <score_type>  (20) 
oracle

>  <origin>  (20) 
adg

>  <m_score__min__energy>  (20) 
-11.359999999999999

>  <m_primary>  (20) 
energy

$$$$
20:0
     RDKit          3D

 52 55  0  0  0  0  0  0  0  0999 V2000
   61.6030   33.7740   50.8970 C   0  0  0  0  0  0  0  0  0  0  0  0
   62.8970   34.0360   50.1120 C   0  0  0  0  0  0  0  0  0  0  0  0
   62.9280   33.3840   48.7820 N   0  0  0  0  0  0  0  0  0  0  0  0
   63.6990   34.1660   47.7900 C   0  0  0  0  0  0  0  0  0  0  0  0
   63.2530   33.8400   46.3670 C   0  0  0  0  0  0  0  0  0  0  0  0
   63.3240   31.9560   48.8500 C   0  0  0  0  0  0  0  0  0  0  0  0
   62.3110   31.0900   48.0990 C   0  0  0  0  0  0  0  0  0  0  0  0
   60.9790   31.6940   48.1350 N   0  0  0  0  0  0  0  0  0  0  0  0
   59.9840   31.3010   47.1770 C   0  0  0  0  0  0  0  0  0  0  0  0
   59.3290   32.2740   46.4040 C   0  0  0  0  0  0  0  0  0  0  0  0
   59.6160   33.6450   46.5690 C   0  0  0  0  0  0  0  0  0  0  0  0
   58.9580   34.6050   45.8030 C   0  0  0  0  0  0  0  0  0  0  0  0
   58.0110   34.2190   44.8620 C   0  0  0  0  0  0  0  0  0  0  0  0
   57.7280   32.8670   44.6660 C   0  0  0  0  0  0  0  0  0  0  0  0
   58.3930   31.8660   45.4190 C   0  0  0  0  0  0  0  0  0  0  0  0
   58.1570   30.5230   45.1990 N   0  0  0  0  0  0  0  0  0  0  0  0
   57.6020   30.1080   43.8940 C   0  0  0  0  0  0  0  0  0  0  0  0
   58.6030   29.5850   46.1120 C   0  0  0  0  0  0  0  0  0  0  0  0
   59.6190   29.9480   47.0480 C   0  0  0  0  0  0  0  0  0  0  0  0
   60.2330   28.9580   47.8550 C   0  0  0  0  0  0  0  0  0  0  0  0
   59.8180   27.6290   47.7990 C   0  0  0  0  0  0  0  0  0  0  0  0
   58.7500   27.3070   46.9820 C   0  0  0  0  0  0  0  0  0  0  0  0
   57.9580   25.8300   46.9130 S   0  0  0  0  0  0  0  0  0  0  0  0
   56.7400   26.3610   45.8830 C   0  0  0  0  0  0  0  0  0  0  0  0
   56.9440   27.7060   45.5920 C   0  0  0  0  0  0  0  0  0  0  0  0
   58.1120   28.2440   46.1750 C   0  0  0  0  0  0  0  0  0  0  0  0
   61.8136   33.8166   51.9758 H   0  0  0  0  0  0  0  0  0  0  0  0
   60.8561   34.5391   50.6387 H   0  0  0  0  0  0  0  0  0  0  0  0
   61.2126   32.7786   50.6387 H   0  0  0  0  0  0  0  0  0  0  0  0
   63.0031   35.1215   49.9694 H   0  0  0  0  0  0  0  0  0  0  0  0
   63.7223   33.6078   50.6997 H   0  0  0  0  0  0  0  0  0  0  0  0
   63.5434   35.2385   47.9785 H   0  0  0  0  0  0  0  0  0  0  0  0
   64.7631   33.9063   47.8909 H   0  0  0  0  0  0  0  0  0  0  0  0
   62.3654   33.1912   46.4005 H   0  0  0  0  0  0  0  0  0  0  0  0
   63.0061   34.7720   45.8375 H   0  0  0  0  0  0  0  0  0  0  0  0
   64.0661   33.3219   45.8375 H   0  0  0  0  0  0  0  0  0  0  0  0
   64.3170   31.8323   48.3932 H   0  0  0  0  0  0  0  0  0  0  0  0
   63.3532   31.6416   49.9037 H   0  0  0  0  0  0  0  0  0  0  0  0
   62.6315   30.9872   47.0518 H   0  0  0  0  0  0  0  0  0  0  0  0
   62.2630   30.1043   48.5849 H   0  0  0  0  0  0  0  0  0  0  0  0
   60.8780   32.6390   48.5680 H   0  0  0  0  0  0  0  0  0  0  0  0
   60.3664   33.9593   47.3094 H   0  0  0  0  0  0  0  0  0  0  0  0
   59.1887   35.6713   45.9435 H   0  0  0  0  0  0  0  0  0  0  0  0
   57.4832   34.9814   44.2702 H   0  0  0  0  0  0  0  0  0  0  0  0
   56.9783   32.5732   43.9166 H   0  0  0  0  0  0  0  0  0  0  0  0
   56.7307   29.4565   44.0566 H   0  0  0  0  0  0  0  0  0  0  0  0
   57.2932   30.9986   43.3270 H   0  0  0  0  0  0  0  0  0  0  0  0
   58.3689   29.5600   43.3270 H   0  0  0  0  0  0  0  0  0  0  0  0
   61.0490   29.2428   48.5354 H   0  0  0  0  0  0  0  0  0  0  0  0
   60.3279   26.8545   48.3907 H   0  0  0  0  0  0  0  0  0  0  0  0
   55.9139   25.7437   45.5004 H   0  0  0  0  0  0  0  0  0  0  0  0
   56.2587   28.2959   44.9656 H   0  0  0  0  0  0  0  0  0  0  0  0
  1  2  1  0
  2  3  1  0
  3  4  1  0
  4  5  1  0
  3  6  1  0
  6  7  1  0
  7  8  1  0
  8  9  1  0
  9 10  2  0
 10 11  1  0
 11 12  2  0
 12 13  1  0
 13 14  2  0
 14 15  1  0
 15 16  2  0
 16 17  1  0
 16 18  1  0
 18 19  2  0
 19 20  1  0
 20 21  2  0
 21 22  1  0
 22 23  1  0
 23 24  1  0
 24 25  2  0
 25 26  1  0
 19  9  1  0
 26 22  2  0
 15 10  1  0
 26 18  1  0
  1 27  1  0
  1 28  1  0
  1 29  1  0
  2 30  1  0
  2 31  1  0
  4 32  1  0
  4 33  1  0
  5 34  1  0
  5 35  1  0
  5 36  1  0
  6 37  1  0
  6 38  1  0
  7 39  1  0
  7 40  1  0
  8 41  1  0
 11 42  1  0
 12 43  1  0
 13 44  1  0
 14 45  1  0
 17 46  1  0
 17 47  1  0
 17 48  1  0
 20 49  1  0
 21 50  1  0
 24 51  1  0
 25 52  1  0
M  CHG  1  16   1
M  END
>  <UniqueID>  (21) 
20

>  <SMILES>  (21) 
CCN(CC)CCNc1c2ccccc2[n+](C)c2c1ccc1sccc12

>  <Energy>  (21) 
119.857169743847

>  <Genealogy>  (21) 
CCN(CC)CCNc1c2ccccc2[n+](C)c2c1ccc1sccc12 (3D coordinates assigned)
CCN(CC)CCNc1c2ccccc2[n+](C)c2c1ccc1sccc12 (optimized conformer: 119.857169743847 kcal/mol)

>  <smiles>  (21) 
CCN(CC)CCNc1c2ccccc2[n+](C)c2c1ccc1sccc12

>  <score_type>  (21) 
oracle

>  <origin>  (21) 
adg

>  <m_score__min__energy>  (21) 
-5.9699999999999998

>  <m_primary>  (21) 
energy

$$$$
21:0
     RDKit          3D

 83 86  0  0  0  0  0  0  0  0999 V2000
   65.2200   32.4170   49.7590 C   0  0  0  0  0  0  0  0  0  0  0  0
   63.7710   31.9980   49.4840 C   0  0  0  0  0  0  0  0  0  0  0  0
   62.9690   33.0780   48.8390 N   0  0  0  0  0  0  0  0  0  0  0  0
   62.7770   34.2610   49.7200 C   0  0  0  0  0  0  0  0  0  0  0  0
   62.7070   33.8900   51.2020 C   0  0  0  0  0  0  0  0  0  0  0  0
   63.5290   33.4790   47.5190 C   0  0  0  0  0  0  0  0  0  0  0  0
   62.4910   33.8370   46.4340 C   0  0  0  0  0  0  0  0  0  0  0  0
   61.1860   33.8220   46.9760 O   0  0  0  0  0  0  0  0  0  0  0  0
   60.2470   34.2430   46.0100 C   0  0  0  0  0  0  0  0  0  0  0  0
   59.0490   34.8850   46.7070 C   0  0  0  0  0  0  0  0  0  0  0  0
   58.0260   33.8900   47.0320 N   0  0  0  0  0  0  0  0  0  0  0  0
   58.2980   32.4770   47.0660 C   0  0  0  0  0  0  0  0  0  0  0  0
   57.9860   31.6630   45.9630 C   0  0  0  0  0  0  0  0  0  0  0  0
   57.4680   32.2210   44.7750 C   0  0  0  0  0  0  0  0  0  0  0  0
   57.1780   31.4160   43.6770 C   0  0  0  0  0  0  0  0  0  0  0  0
   57.4230   30.0500   43.7310 C   0  0  0  0  0  0  0  0  0  0  0  0
   57.9550   29.4780   44.8850 C   0  0  0  0  0  0  0  0  0  0  0  0
   58.2340   30.2650   46.0340 C   0  0  0  0  0  0  0  0  0  0  0  0
   58.7560   29.7080   47.1870 N   0  0  0  0  0  0  0  0  0  0  0  0
   58.7730   28.2380   47.3500 C   0  0  0  0  0  0  0  0  0  0  0  0
   59.2420   30.5270   48.1900 C   0  0  0  0  0  0  0  0  0  0  0  0
   60.0290   30.0180   49.2560 C   0  0  0  0  0  0  0  0  0  0  0  0
   60.4560   30.8350   50.3050 C   0  0  0  0  0  0  0  0  0  0  0  0
   61.2200   30.2500   51.3290 O   0  0  0  0  0  0  0  0  0  0  0  0
   60.7010   29.5320   52.4500 C   0  0  0  0  0  0  0  0  0  0  0  0
   60.1420   30.4890   53.5350 C   0  0  0  0  0  0  0  0  0  0  0  0
   58.6570   30.7170   53.5300 N   0  0  0  0  0  0  0  0  0  0  0  0
   58.1130   30.4720   54.8960 C   0  0  0  0  0  0  0  0  0  0  0  0
   58.0040   29.7870   52.5590 C   0  0  0  0  0  0  0  0  0  0  0  0
   56.4930   30.0450   52.3740 C   0  0  0  0  0  0  0  0  0  0  0  0
   56.1290   31.5350   52.3290 C   0  0  0  0  0  0  0  0  0  0  0  0
   57.3550   32.4000   52.0780 C   0  0  0  0  0  0  0  0  0  0  0  0
   58.4210   32.1660   53.1660 C   0  0  0  0  0  0  0  0  0  0  0  0
   60.1240   32.1960   50.2950 C   0  0  0  0  0  0  0  0  0  0  0  0
   59.4070   32.7330   49.2300 C   0  0  0  0  0  0  0  0  0  0  0  0
   58.9770   31.9200   48.1630 C   0  0  0  0  0  0  0  0  0  0  0  0
   65.3878   32.4655   50.8450 H   0  0  0  0  0  0  0  0  0  0  0  0
   65.9054   31.6802   49.3146 H   0  0  0  0  0  0  0  0  0  0  0  0
   65.4064   33.4058   49.3146 H   0  0  0  0  0  0  0  0  0  0  0  0
   63.7788   31.1215   48.8194 H   0  0  0  0  0  0  0  0  0  0  0  0
   63.3023   31.7715   50.4530 H   0  0  0  0  0  0  0  0  0  0  0  0
   62.0180   32.6990   48.6110 H   0  0  0  0  0  0  0  0  0  0  0  0
   63.6198   34.9517   49.5699 H   0  0  0  0  0  0  0  0  0  0  0  0
   61.8170   34.7243   49.4485 H   0  0  0  0  0  0  0  0  0  0  0  0
   62.8765   34.7886   51.8133 H   0  0  0  0  0  0  0  0  0  0  0  0
   61.7145   33.4738   51.4293 H   0  0  0  0  0  0  0  0  0  0  0  0
   63.4796   33.1407   51.4293 H   0  0  0  0  0  0  0  0  0  0  0  0
   64.1704   34.3586   47.6768 H   0  0  0  0  0  0  0  0  0  0  0  0
   64.0673   32.5975   47.1407 H   0  0  0  0  0  0  0  0  0  0  0  0
   62.7088   34.8412   46.0414 H   0  0  0  0  0  0  0  0  0  0  0  0
   62.5498   33.0938   45.6252 H   0  0  0  0  0  0  0  0  0  0  0  0
   60.7165   34.9768   45.3383 H   0  0  0  0  0  0  0  0  0  0  0  0
   59.9082   33.3743   45.4264 H   0  0  0  0  0  0  0  0  0  0  0  0
   59.3900   35.3648   47.6362 H   0  0  0  0  0  0  0  0  0  0  0  0
   58.6074   35.6266   46.0251 H   0  0  0  0  0  0  0  0  0  0  0  0
   57.0450   34.2120   47.1910 H   0  0  0  0  0  0  0  0  0  0  0  0
   57.2912   33.3051   44.7158 H   0  0  0  0  0  0  0  0  0  0  0  0
   56.7542   31.8624   42.7653 H   0  0  0  0  0  0  0  0  0  0  0  0
   57.1964   29.4175   42.8600 H   0  0  0  0  0  0  0  0  0  0  0  0
   58.1625   28.3980   44.9065 H   0  0  0  0  0  0  0  0  0  0  0  0
   58.7759   27.9879   48.4212 H   0  0  0  0  0  0  0  0  0  0  0  0
   57.8798   27.8061   46.8750 H   0  0  0  0  0  0  0  0  0  0  0  0
   59.6760   27.8268   46.8750 H   0  0  0  0  0  0  0  0  0  0  0  0
   60.3093   28.9543   49.2558 H   0  0  0  0  0  0  0  0  0  0  0  0
   59.8917   28.8710   52.1064 H   0  0  0  0  0  0  0  0  0  0  0  0
   61.5221   28.9510   52.8952 H   0  0  0  0  0  0  0  0  0  0  0  0
   60.4127   30.0745   54.5173 H   0  0  0  0  0  0  0  0  0  0  0  0
   60.5870   31.4703   53.3135 H   0  0  0  0  0  0  0  0  0  0  0  0
   58.8458   30.8020   55.6471 H   0  0  0  0  0  0  0  0  0  0  0  0
   57.1771   31.0355   55.0245 H   0  0  0  0  0  0  0  0  0  0  0  0
   57.9147   29.3977   55.0245 H   0  0  0  0  0  0  0  0  0  0  0  0
   58.4980   29.9010   51.5828 H   0  0  0  0  0  0  0  0  0  0  0  0
   58.1095   28.7706   52.9661 H   0  0  0  0  0  0  0  0  0  0  0  0
   56.1730   29.5795   51.4301 H   0  0  0  0  0  0  0  0  0  0  0  0
   55.9811   29.6124   53.2462 H   0  0  0  0  0  0  0  0  0  0  0  0
   55.4023   31.7013   51.5202 H   0  0  0  0  0  0  0  0  0  0  0  0
   55.7014   31.8158   53.3028 H   0  0  0  0  0  0  0  0  0  0  0  0
   57.7804   32.1466   51.0957 H   0  0  0  0  0  0  0  0  0  0  0  0
   57.0520   33.4572   52.1024 H   0  0  0  0  0  0  0  0  0  0  0  0
   59.3721   32.5869   52.8077 H   0  0  0  0  0  0  0  0  0  0  0  0
   58.0424   32.6535   54.0765 H   0  0  0  0  0  0  0  0  0  0  0  0
   60.4308   32.8417   51.1310 H   0  0  0  0  0  0  0  0  0  0  0  0
   59.1727   33.8077   49.2213 H   0  0  0  0  0  0  0  0  0  0  0  0
  1  2  1  0
  2  3  1  0
  3  4  1  0
  4  5  1  0
  3  6  1  0
  6  7  1  0
  7  8  1  0
  8  9  1  0
  9 10  1  0
 10 11  1  0
 11 12  1  0
 12 13  2  0
 13 14  1  0
 14 15  2  0
 15 16  1  0
 16 17  2  0
 17 18  1  0
 18 19  2  0
 19 20  1  0
 19 21  1  0
 21 22  2  0
 22 23  1  0
 23 24  1  0
 24 25  1  0
 25 26  1  0
 26 27  1  0
 27 28  1  0
 27 29  1  0
 29 30  1  0
 30 31  1  0
 31 32  1  0
 32 33  1  0
 23 34  2  0
 34 35  1  0
 35 36  2  0
 36 12  1  0
 18 13  1  0
 36 21  1  0
 33 27  1  0
  1 37  1  0
  1 38  1  0
  1 39  1  0
  2 40  1  0
  2 41  1  0
  3 42  1  0
  4 43  1  0
  4 44  1  0
  5 45  1  0
  5 46  1  0
  5 47  1  0
  6 48  1  0
  6 49  1  0
  7 50  1  0
  7 51  1  0
  9 52  1  0
  9 53  1  0
 10 54  1  0
 10 55  1  0
 11 56  1  0
 14 57  1  0
 15 58  1  0
 16 59  1  0
 17 60  1  0
 20 61  1  0
 20 62  1  0
 20 63  1  0
 22 64  1  0
 25 65  1  0
 25 66  1  0
 26 67  1  0
 26 68  1  0
 28 69  1  0
 28 70  1  0
 28 71  1  0
 29 72  1  0
 29 73  1  0
 30 74  1  0
 30 75  1  0
 31 76  1  0
 31 77  1  0
 32 78  1  0
 32 79  1  0
 33 80  1  0
 33 81  1  0
 34 82  1  0
 35 83  1  0
M  CHG  3   3   1  19   1  27   1
M  END
>  <UniqueID>  (22) 
21

>  <SMILES>  (22) 
CC[NH+](CC)CCOCCNc1c2ccccc2[n+](C)c2cc(OCC[N+]3(C)CCCCC3)ccc12

>  <Energy>  (22) 
123.7711262376009

>  <Genealogy>  (22) 
CC[NH+](CC)CCOCCNc1c2ccccc2[n+](C)c2cc(OCC[N+]3(C)CCCCC3)ccc12 (protonated)
CC[NH+](CC)CCOCCNc1c2ccccc2[n+](C)c2cc(OCC[N+]3(C)CCCCC3)ccc12 (3D coordinates assigned)
CC[NH+](CC)CCOCCNc1c2ccccc2[n+](C)c2cc(OCC[N+]3(C)CCCCC3)ccc12 (nonaromatic ring conformer: 123.7711262376009 kcal/mol)

>  <smiles>  (22) 
CCN(CC)CCOCCNc1c2ccccc2[n+](C)c2cc(OCC[N+]3(C)CCCCC3)ccc12

>  <score_type>  (22) 
oracle

>  <origin>  (22) 
adg

>  <m_score__min__energy>  (22) 
-3.5299999999999998

>  <m_primary>  (22) 
energy

$$$$
22:0
     RDKit          3D

 56 56  0  0  0  0  0  0  0  0999 V2000
   56.9470   34.2260   45.2860 C   0  0  0  0  0  0  0  0  0  0  0  0
   57.3900   33.1560   46.2790 C   0  0  0  0  0  0  0  0  0  0  0  0
   58.3680   32.2640   45.6490 N   0  0  0  0  0  0  0  0  0  0  0  0
   58.3600   32.4570   44.1960 C   0  0  0  0  0  0  0  0  0  0  0  0
   57.3930   31.4770   43.5300 C   0  0  0  0  0  0  0  0  0  0  0  0
   56.3450   31.0730   44.4770 N   0  0  0  0  0  0  0  0  0  0  0  0
   55.7550   29.7740   44.1270 C   0  0  0  0  0  0  0  0  0  0  0  0
   56.2820   28.6940   45.0700 C   0  0  0  0  0  0  0  0  0  0  0  0
   57.2460   29.2520   46.0190 N   0  0  0  0  0  0  0  0  0  0  0  0
   58.8890   28.8330   45.6210 S   0  0  0  0  0  0  0  0  0  0  0  0
   58.8710   27.7070   44.6290 O   0  0  0  0  0  0  0  0  0  0  0  0
   59.6380   29.9980   45.0340 O   0  0  0  0  0  0  0  0  0  0  0  0
   59.6810   28.3020   47.1300 C   0  0  0  0  0  0  0  0  0  0  0  0
   59.6180   29.3560   48.2370 C   0  0  0  0  0  0  0  0  0  0  0  0
   59.3530   30.6880   47.6740 N   0  0  0  0  0  0  0  0  0  0  0  0
   58.8730   31.6320   48.6970 C   0  0  0  0  0  0  0  0  0  0  0  0
   59.9850   32.5210   49.2830 C   0  0  0  0  0  0  0  0  0  0  0  0
   61.1900   32.6640   48.3850 C   0  0  0  0  0  0  0  0  0  0  0  0
   62.2830   31.7930   48.5480 C   0  0  0  0  0  0  0  0  0  0  0  0
   63.4370   31.9520   47.7770 C   0  0  0  0  0  0  0  0  0  0  0  0
   63.5180   32.9870   46.8440 C   0  0  0  0  0  0  0  0  0  0  0  0
   62.4360   33.8500   46.6580 C   0  0  0  0  0  0  0  0  0  0  0  0
   61.2510   33.6750   47.4010 C   0  0  0  0  0  0  0  0  0  0  0  0
   60.1210   34.4690   47.1730 O   0  0  0  0  0  0  0  0  0  0  0  0
   59.9340   35.3050   46.0370 C   0  0  0  0  0  0  0  0  0  0  0  0
   56.5823   35.1069   45.8346 H   0  0  0  0  0  0  0  0  0  0  0  0
   57.7995   34.5149   44.6537 H   0  0  0  0  0  0  0  0  0  0  0  0
   56.1398   33.8278   44.6537 H   0  0  0  0  0  0  0  0  0  0  0  0
   57.8480   33.6387   47.1549 H   0  0  0  0  0  0  0  0  0  0  0  0
   56.5144   32.5689   46.5930 H   0  0  0  0  0  0  0  0  0  0  0  0
   58.0710   31.2760   45.8500 H   0  0  0  0  0  0  0  0  0  0  0  0
   58.0452   33.4863   43.9694 H   0  0  0  0  0  0  0  0  0  0  0  0
   59.3731   32.2758   43.8078 H   0  0  0  0  0  0  0  0  0  0  0  0
   56.9279   31.9615   42.6588 H   0  0  0  0  0  0  0  0  0  0  0  0
   57.9510   30.5843   43.2110 H   0  0  0  0  0  0  0  0  0  0  0  0
   56.7830   30.9730   45.4230 H   0  0  0  0  0  0  0  0  0  0  0  0
   54.6603   29.8343   44.2167 H   0  0  0  0  0  0  0  0  0  0  0  0
   56.0292   29.5179   43.0930 H   0  0  0  0  0  0  0  0  0  0  0  0
   55.4386   28.2600   45.6271 H   0  0  0  0  0  0  0  0  0  0  0  0
   56.7864   27.9213   44.4712 H   0  0  0  0  0  0  0  0  0  0  0  0
   59.1819   27.3886   47.4859 H   0  0  0  0  0  0  0  0  0  0  0  0
   60.7425   28.1254   46.9017 H   0  0  0  0  0  0  0  0  0  0  0  0
   58.8126   29.0943   48.9390 H   0  0  0  0  0  0  0  0  0  0  0  0
   60.5866   29.3793   48.7578 H   0  0  0  0  0  0  0  0  0  0  0  0
   58.6590   30.6090   46.8990 H   0  0  0  0  0  0  0  0  0  0  0  0
   58.1117   32.2820   48.2410 H   0  0  0  0  0  0  0  0  0  0  0  0
   58.4680   31.0325   49.5256 H   0  0  0  0  0  0  0  0  0  0  0  0
   59.5680   33.5224   49.4653 H   0  0  0  0  0  0  0  0  0  0  0  0
   60.3307   32.0333   50.2064 H   0  0  0  0  0  0  0  0  0  0  0  0
   62.2284   30.9809   49.2880 H   0  0  0  0  0  0  0  0  0  0  0  0
   64.2829   31.2607   47.9053 H   0  0  0  0  0  0  0  0  0  0  0  0
   64.4363   33.1232   46.2539 H   0  0  0  0  0  0  0  0  0  0  0  0
   62.5088   34.6700   45.9284 H   0  0  0  0  0  0  0  0  0  0  0  0
   59.7051   36.3285   46.3687 H   0  0  0  0  0  0  0  0  0  0  0  0
   60.8527   35.3125   45.4320 H   0  0  0  0  0  0  0  0  0  0  0  0
   59.0997   34.9204   45.4320 H   0  0  0  0  0  0  0  0  0  0  0  0
  1  2  1  0
  2  3  1  0
  3  4  1  0
  4  5  1  0
  5  6  1  0
  6  7  1  0
  7  8  1  0
  8  9  1  0
  9 10  1  0
 10 11  2  0
 10 12  2  0
 10 13  1  0
 13 14  1  0
 14 15  1  0
 15 16  1  0
 16 17  1  0
 17 18  1  0
 18 19  2  0
 19 20  1  0
 20 21  2  0
 21 22  1  0
 22 23  2  0
 23 24  1  0
 24 25  1  0
 23 18  1  0
  1 26  1  0
  1 27  1  0
  1 28  1  0
  2 29  1  0
  2 30  1  0
  3 31  1  0
  4 32  1  0
  4 33  1  0
  5 34  1  0
  5 35  1  0
  6 36  1  0
  7 37  1  0
  7 38  1  0
  8 39  1  0
  8 40  1  0
 13 41  1  0
 13 42  1  0
 14 43  1  0
 14 44  1  0
 15 45  1  0
 16 46  1  0
 16 47  1  0
 17 48  1  0
 17 49  1  0
 19 50  1  0
 20 51  1  0
 21 52  1  0
 22 53  1  0
 25 54  1  0
 25 55  1  0
 25 56  1  0
M  CHG  1   9  -1
M  END
>  <UniqueID>  (23) 
22

>  <SMILES>  (23) 
CCNCCNCC[N-]S(=O)(=O)CCNCCc1ccccc1OC

>  <Energy>  (23) 
39.69828270771454

>  <Genealogy>  (23) 
CCNCCNCC[N-]S(=O)(=O)CCNCCc1ccccc1OC (protonated)
CCNCCNCC[N-]S(=O)(=O)CCNCCc1ccccc1OC (3D coordinates assigned)
CCNCCNCC[N-]S(=O)(=O)CCNCCc1ccccc1OC (optimized conformer: 39.69828270771454 kcal/mol)

>  <smiles>  (23) 
CCNCCNCCNS(=O)(=O)CCNCCc1ccccc1OC

>  <score_type>  (23) 
oracle

>  <origin>  (23) 
adg

>  <m_score__min__energy>  (23) 
-6.6399999999999997

>  <m_primary>  (23) 
energy

$$$$
23:0
     RDKit          3D

 35 36  0  0  0  0  0  0  0  0999 V2000
   56.6230   30.3950   42.7180 C   0  0  0  0  0  0  0  0  0  0  0  0
   55.5570   29.7130   43.5590 C   0  0  0  0  0  0  0  0  0  0  0  0
   56.0340   29.5590   44.8930 O   0  0  0  0  0  0  0  0  0  0  0  0
   57.0060   28.6270   45.2940 C   0  0  0  0  0  0  0  0  0  0  0  0
   56.6610   27.3080   45.6500 C   0  0  0  0  0  0  0  0  0  0  0  0
   57.6470   26.3970   46.0360 C   0  0  0  0  0  0  0  0  0  0  0  0
   58.9860   26.7870   46.0680 C   0  0  0  0  0  0  0  0  0  0  0  0
   59.3430   28.0900   45.7190 C   0  0  0  0  0  0  0  0  0  0  0  0
   58.3620   29.0230   45.3400 C   0  0  0  0  0  0  0  0  0  0  0  0
   58.7890   30.4240   44.9710 C   0  0  0  0  0  0  0  0  0  0  0  0
   57.9560   31.4110   45.6560 N   0  0  0  0  0  0  0  0  0  0  0  0
   58.3490   32.7820   45.8350 C   0  0  0  0  0  0  0  0  0  0  0  0
   58.5150   33.7160   44.8280 C   0  0  0  0  0  0  0  0  0  0  0  0
   58.9000   34.8880   45.4520 C   0  0  0  0  0  0  0  0  0  0  0  0
   58.9540   34.6210   46.8060 C   0  0  0  0  0  0  0  0  0  0  0  0
   58.6180   33.3370   47.0350 N   0  0  0  0  0  0  0  0  0  0  0  0
   58.5610   32.6840   48.3390 C   0  0  0  0  0  0  0  0  0  0  0  0
   57.3638   30.8689   43.3788 H   0  0  0  0  0  0  0  0  0  0  0  0
   57.1225   29.6483   42.0832 H   0  0  0  0  0  0  0  0  0  0  0  0
   56.1545   31.1615   42.0832 H   0  0  0  0  0  0  0  0  0  0  0  0
   54.6446   30.3274   43.5640 H   0  0  0  0  0  0  0  0  0  0  0  0
   55.3296   28.7245   43.1334 H   0  0  0  0  0  0  0  0  0  0  0  0
   55.6073   26.9934   45.6237 H   0  0  0  0  0  0  0  0  0  0  0  0
   57.3672   25.3705   46.3152 H   0  0  0  0  0  0  0  0  0  0  0  0
   59.7611   26.0667   46.3686 H   0  0  0  0  0  0  0  0  0  0  0  0
   60.4011   28.3898   45.7406 H   0  0  0  0  0  0  0  0  0  0  0  0
   59.8391   30.5711   45.2637 H   0  0  0  0  0  0  0  0  0  0  0  0
   58.6757   30.5557   43.8848 H   0  0  0  0  0  0  0  0  0  0  0  0
   57.0230   31.1000   46.0080 H   0  0  0  0  0  0  0  0  0  0  0  0
   58.3700   33.5580   43.7491 H   0  0  0  0  0  0  0  0  0  0  0  0
   59.1209   35.8487   44.9639 H   0  0  0  0  0  0  0  0  0  0  0  0
   59.2305   35.3493   47.5826 H   0  0  0  0  0  0  0  0  0  0  0  0
   58.6273   33.4430   49.1324 H   0  0  0  0  0  0  0  0  0  0  0  0
   57.6117   32.1365   48.4337 H   0  0  0  0  0  0  0  0  0  0  0  0
   59.4011   31.9803   48.4337 H   0  0  0  0  0  0  0  0  0  0  0  0
  1  2  1  0
  2  3  1  0
  3  4  1  0
  4  5  2  0
  5  6  1  0
  6  7  2  0
  7  8  1  0
  8  9  2  0
  9 10  1  0
 10 11  1  0
 11 12  1  0
 12 13  2  0
 13 14  1  0
 14 15  2  0
 15 16  1  0
 16 17  1  0
  9  4  1  0
 16 12  1  0
  1 18  1  0
  1 19  1  0
  1 20  1  0
  2 21  1  0
  2 22  1  0
  5 23  1  0
  6 24  1  0
  7 25  1  0
  8 26  1  0
 10 27  1  0
 10 28  1  0
 11 29  1  0
 13 30  1  0
 14 31  1  0
 15 32  1  0
 17 33  1  0
 17 34  1  0
 17 35  1  0
M  END
>  <UniqueID>  (24) 
23

>  <SMILES>  (24) 
CCOc1ccccc1CNc1cccn1C

>  <Energy>  (24) 
55.16397088094989

>  <Genealogy>  (24) 
CCOc1ccccc1CNc1cccn1C (3D coordinates assigned)
CCOc1ccccc1CNc1cccn1C (optimized conformer: 55.16397088094989 kcal/mol)

>  <smiles>  (24) 
CCOc1ccccc1CNc1cccn1C

>  <score_type>  (24) 
oracle

>  <origin>  (24) 
adg

>  <m_score__min__energy>  (24) 
-5.6100000000000003

>  <m_primary>  (24) 
energy

$$$$
24:0
     RDKit          3D

 54 57  0  0  0  0  0  0  0  0999 V2000
   59.0058   27.9188   47.4470 H   0  0  0  0  0  0  0  0  0  0  0  0
   58.2490   28.3060   46.7490 C   0  0  0  0  0  0  0  0  0  0  0  0
   58.1420   29.8890   46.1890 S   0  0  0  0  0  0  0  0  0  0  0  0
   56.7820   29.5710   45.2480 C   0  0  0  0  0  0  0  0  0  0  0  0
   56.1530   30.4280   44.5000 N   0  0  0  0  0  0  0  0  0  0  0  0
   56.7340   31.1570   43.3730 C   0  0  0  0  0  0  0  0  0  0  0  0
   56.0353   31.9457   43.0573 H   0  0  0  0  0  0  0  0  0  0  0  0
   56.9124   30.4460   42.5528 H   0  0  0  0  0  0  0  0  0  0  0  0
   58.0760   31.8010   43.7600 C   0  0  0  0  0  0  0  0  0  0  0  0
   58.7222   31.8387   42.8706 H   0  0  0  0  0  0  0  0  0  0  0  0
   58.5308   31.1910   44.5544 H   0  0  0  0  0  0  0  0  0  0  0  0
   57.8980   33.1750   44.2810 N   0  0  0  0  0  0  0  0  0  0  0  0
   59.2020   33.8540   44.4890 C   0  0  0  0  0  0  0  0  0  0  0  0
   59.5338   34.2874   43.5340 H   0  0  0  0  0  0  0  0  0  0  0  0
   59.9211   33.1069   44.8560 H   0  0  0  0  0  0  0  0  0  0  0  0
   59.1030   34.9740   45.5350 C   0  0  0  0  0  0  0  0  0  0  0  0
   58.3597   35.7109   45.1966 H   0  0  0  0  0  0  0  0  0  0  0  0
   60.0985   35.4304   45.6383 H   0  0  0  0  0  0  0  0  0  0  0  0
   58.6950   34.4590   46.8670 N   0  0  0  0  0  0  0  0  0  0  0  0
   59.8660   34.2590   47.7490 C   0  0  0  0  0  0  0  0  0  0  0  0
   59.5209   34.1898   48.7912 H   0  0  0  0  0  0  0  0  0  0  0  0
   60.5468   35.1130   47.6180 H   0  0  0  0  0  0  0  0  0  0  0  0
   60.6250   32.9810   47.3910 C   0  0  0  0  0  0  0  0  0  0  0  0
   60.9310   32.4657   48.3134 H   0  0  0  0  0  0  0  0  0  0  0  0
   59.9728   32.3203   46.8010 H   0  0  0  0  0  0  0  0  0  0  0  0
   61.5173   33.2375   46.8010 H   0  0  0  0  0  0  0  0  0  0  0  0
   57.8560   33.2360   46.7860 C   0  0  0  0  0  0  0  0  0  0  0  0
   57.1678   33.2190   47.6439 H   0  0  0  0  0  0  0  0  0  0  0  0
   58.5239   32.3621   46.7972 H   0  0  0  0  0  0  0  0  0  0  0  0
   57.0340   33.1920   45.4880 C   0  0  0  0  0  0  0  0  0  0  0  0
   56.3861   34.0800   45.4481 H   0  0  0  0  0  0  0  0  0  0  0  0
   56.4409   32.2656   45.4935 H   0  0  0  0  0  0  0  0  0  0  0  0
   56.4020   28.2810   45.3400 N   0  0  0  0  0  0  0  0  0  0  0  0
   57.2080   27.5660   46.1730 C   0  0  0  0  0  0  0  0  0  0  0  0
   56.9570   26.1270   46.4150 C   0  0  0  0  0  0  0  0  0  0  0  0
   55.7260   25.6240   46.1230 N   0  0  0  0  0  0  0  0  0  0  0  0
   55.4060   24.3160   46.3140 C   0  0  0  0  0  0  0  0  0  0  0  0
   54.1250   23.8610   45.9950 C   0  0  0  0  0  0  0  0  0  0  0  0
   53.3784   24.5602   45.5904 H   0  0  0  0  0  0  0  0  0  0  0  0
   53.7910   22.5200   46.1890 C   0  0  0  0  0  0  0  0  0  0  0  0
   52.7803   22.1655   45.9385 H   0  0  0  0  0  0  0  0  0  0  0  0
   54.7350   21.6260   46.7000 C   0  0  0  0  0  0  0  0  0  0  0  0
   54.4621   20.5707   46.8477 H   0  0  0  0  0  0  0  0  0  0  0  0
   56.0340   22.0640   47.0280 C   0  0  0  0  0  0  0  0  0  0  0  0
   57.0020   21.1860   47.5440 O   0  0  0  0  0  0  0  0  0  0  0  0
   57.4400   19.9950   46.8980 C   0  0  0  0  0  0  0  0  0  0  0  0
   57.7152   19.2467   47.6559 H   0  0  0  0  0  0  0  0  0  0  0  0
   56.6286   19.5991   46.2695 H   0  0  0  0  0  0  0  0  0  0  0  0
   58.3145   20.2191   46.2695 H   0  0  0  0  0  0  0  0  0  0  0  0
   56.3680   23.4210   46.8320 C   0  0  0  0  0  0  0  0  0  0  0  0
   57.6440   23.9180   47.1390 C   0  0  0  0  0  0  0  0  0  0  0  0
   58.4125   23.2431   47.5439 H   0  0  0  0  0  0  0  0  0  0  0  0
   57.9410   25.2670   46.9320 C   0  0  0  0  0  0  0  0  0  0  0  0
   58.9417   25.6550   47.1728 H   0  0  0  0  0  0  0  0  0  0  0  0
  1  2  1  0
  2  3  1  0
  3  4  1  0
  4  5  2  0
  5  6  1  0
  6  7  1  0
  6  8  1  0
  6  9  1  0
  9 10  1  0
  9 11  1  0
  9 12  1  0
 12 13  1  0
 13 14  1  0
 13 15  1  0
 13 16  1  0
 16 17  1  0
 16 18  1  0
 16 19  1  0
 19 20  1  0
 20 21  1  0
 20 22  1  0
 20 23  1  0
 23 24  1  0
 23 25  1  0
 23 26  1  0
 19 27  1  0
 27 28  1  0
 27 29  1  0
 27 30  1  0
 30 31  1  0
 30 32  1  0
  4 33  1  0
 33 34  1  0
 34 35  1  0
 35 36  2  0
 36 37  1  0
 37 38  2  0
 38 39  1  0
 38 40  1  0
 40 41  1  0
 40 42  2  0
 42 43  1  0
 42 44  1  0
 44 45  1  0
 45 46  1  0
 46 47  1  0
 46 48  1  0
 46 49  1  0
 44 50  2  0
 50 51  1  0
 51 52  1  0
 51 53  2  0
 53 54  1  0
 34  2  2  0
 53 35  1  0
 30 12  1  0
 50 37  1  0
M  CHG  1  33  -1
M  END
>  <UniqueID>  (25) 
24

>  <SMILES>  (25) 
CCN1CCN(CC/N=c2/[n-]c(-c3ccc4c(OC)cccc4n3)cs2)CC1

>  <Energy>  (25) 
102.37965531110764

>  <Genealogy>  (25) 
CCN1CCN(CCN=c2[n-]c(-c3ccc4c(OC)cccc4n3)cs2)CC1 (protonated)
CCN1CCN(CC/N=c2/[n-]c(-c3ccc4c(OC)cccc4n3)cs2)CC1 (cis-trans isomerization)
CCN1CCN(CC/N=c2/[n-]c(-c3ccc4c(OC)cccc4n3)cs2)CC1 (3D coordinates assigned)
CCN1CCN(CC/N=c2/[n-]c(-c3ccc4c(OC)cccc4n3)cs2)CC1 (nonaromatic ring conformer: 102.37965531110764 kcal/mol)

>  <smiles>  (25) 
CCN1CCN(CCN=c2[nH]c(-c3ccc4c(OC)cccc4n3)cs2)CC1

>  <score_type>  (25) 
oracle

>  <origin>  (25) 
adg

>  <m_score__min__energy>  (25) 
-9.8699999999999992

>  <m_primary>  (25) 
energy

$$$$
25:0
     RDKit          3D

 41 42  0  0  0  0  0  0  0  0999 V2000
   58.9860   34.2380   47.2670 C   0  0  0  0  0  0  0  0  0  0  0  0
   59.6180   34.8630   46.0290 C   0  0  0  0  0  0  0  0  0  0  0  0
   58.6910   34.8720   44.9440 O   0  0  0  0  0  0  0  0  0  0  0  0
   57.7630   33.8500   44.7160 C   0  0  0  0  0  0  0  0  0  0  0  0
   56.6640   33.8240   45.3350 O   0  0  0  0  0  0  0  0  0  0  0  0
   58.0600   32.8110   43.6850 C   0  0  0  0  0  0  0  0  0  0  0  0
   57.5840   31.4670   44.1620 C   0  0  0  0  0  0  0  0  0  0  0  0
   58.0060   30.9640   45.4020 C   0  0  0  0  0  0  0  0  0  0  0  0
   57.5340   29.7300   45.8600 C   0  0  0  0  0  0  0  0  0  0  0  0
   56.6140   28.9930   45.1000 C   0  0  0  0  0  0  0  0  0  0  0  0
   56.1610   27.7180   45.5850 N   0  0  0  0  0  0  0  0  0  0  0  0
   57.0240   26.7150   46.1380 C   0  0  0  0  0  0  0  0  0  0  0  0
   58.2720   26.7920   45.9750 O   0  0  0  0  0  0  0  0  0  0  0  0
   56.4360   25.5600   46.7600 N   0  0  0  0  0  0  0  0  0  0  0  0
   55.4610   24.8060   46.3340 C   0  0  0  0  0  0  0  0  0  0  0  0
   55.4310   23.4060   46.5190 C   0  0  0  0  0  0  0  0  0  0  0  0
   54.3470   22.6640   46.0260 C   0  0  0  0  0  0  0  0  0  0  0  0
   54.2830   21.1810   46.2450 C   0  0  0  0  0  0  0  0  0  0  0  0
   53.2890   23.3280   45.3950 C   0  0  0  0  0  0  0  0  0  0  0  0
   53.3390   24.7130   45.2490 C   0  0  0  0  0  0  0  0  0  0  0  0
   54.4090   25.4100   45.7170 N   0  0  0  0  0  0  0  0  0  0  0  0
   56.1970   29.4950   43.8550 C   0  0  0  0  0  0  0  0  0  0  0  0
   56.6710   30.7280   43.3940 C   0  0  0  0  0  0  0  0  0  0  0  0
   59.4330   34.6800   48.1697 H   0  0  0  0  0  0  0  0  0  0  0  0
   57.9029   34.4301   47.2624 H   0  0  0  0  0  0  0  0  0  0  0  0
   59.1660   33.1528   47.2624 H   0  0  0  0  0  0  0  0  0  0  0  0
   59.9170   35.8965   46.2580 H   0  0  0  0  0  0  0  0  0  0  0  0
   60.4973   34.2685   45.7402 H   0  0  0  0  0  0  0  0  0  0  0  0
   57.5448   33.0691   42.7480 H   0  0  0  0  0  0  0  0  0  0  0  0
   59.1458   32.7709   43.5131 H   0  0  0  0  0  0  0  0  0  0  0  0
   58.7112   31.5429   46.0165 H   0  0  0  0  0  0  0  0  0  0  0  0
   57.8869   29.3342   46.8237 H   0  0  0  0  0  0  0  0  0  0  0  0
   55.1530   27.4700   45.4610 H   0  0  0  0  0  0  0  0  0  0  0  0
   56.2530   22.9002   47.0467 H   0  0  0  0  0  0  0  0  0  0  0  0
   54.2739   20.9698   47.3245 H   0  0  0  0  0  0  0  0  0  0  0  0
   53.3668   20.7817   45.7855 H   0  0  0  0  0  0  0  0  0  0  0  0
   55.1614   20.7043   45.7855 H   0  0  0  0  0  0  0  0  0  0  0  0
   52.4251   22.7614   45.0174 H   0  0  0  0  0  0  0  0  0  0  0  0
   52.5118   25.2433   44.7545 H   0  0  0  0  0  0  0  0  0  0  0  0
   55.4937   28.9149   43.2394 H   0  0  0  0  0  0  0  0  0  0  0  0
   56.3266   31.1198   42.4256 H   0  0  0  0  0  0  0  0  0  0  0  0
  1  2  1  0
  2  3  1  0
  3  4  1  0
  4  5  2  0
  4  6  1  0
  6  7  1  0
  7  8  2  0
  8  9  1  0
  9 10  2  0
 10 11  1  0
 11 12  1  0
 12 13  2  0
 12 14  1  0
 14 15  2  3
 15 16  1  0
 16 17  2  0
 17 18  1  0
 17 19  1  0
 19 20  2  0
 20 21  1  0
 10 22  1  0
 22 23  2  0
 23  7  1  0
 21 15  1  0
  1 24  1  0
  1 25  1  0
  1 26  1  0
  2 27  1  0
  2 28  1  0
  6 29  1  0
  6 30  1  0
  8 31  1  0
  9 32  1  0
 11 33  1  0
 16 34  1  0
 18 35  1  0
 18 36  1  0
 18 37  1  0
 19 38  1  0
 20 39  1  0
 22 40  1  0
 23 41  1  0
M  CHG  1  21  -1
M  END
>  <UniqueID>  (26) 
25

>  <SMILES>  (26) 
CCOC(=O)Cc1ccc(NC(=O)N=c2cc(C)cc[n-]2)cc1

>  <Energy>  (26) 
45.25713746784508

>  <Genealogy>  (26) 
CCOC(=O)Cc1ccc(NC(=O)N=c2cc(C)cc[n-]2)cc1 (protonated)
CCOC(=O)Cc1ccc(NC(=O)N=c2cc(C)cc[n-]2)cc1 (3D coordinates assigned)
CCOC(=O)Cc1ccc(NC(=O)N=c2cc(C)cc[n-]2)cc1 (optimized conformer: 45.25713746784508 kcal/mol)

>  <smiles>  (26) 
CCOC(=O)Cc1ccc(NC(=O)N=c2cc(C)cc[nH]2)cc1

>  <score_type>  (26) 
oracle

>  <origin>  (26) 
adg

>  <m_score__min__energy>  (26) 
-9.1799999999999997

>  <m_primary>  (26) 
energy

$$$$
26:0
     RDKit          3D

 42 44  0  0  0  0  0  0  0  0999 V2000
   59.0470   26.0790   46.7380 C   0  0  0  0  0  0  0  0  0  0  0  0
   58.3800   27.3110   47.3390 C   0  0  0  0  0  0  0  0  0  0  0  0
   58.9950   28.5310   46.8110 N   0  0  0  0  0  0  0  0  0  0  0  0
   58.9680   29.0000   45.5360 C   0  0  0  0  0  0  0  0  0  0  0  0
   58.0290   28.2430   44.2040 S   0  0  0  0  0  0  0  0  0  0  0  0
   56.5980   29.3740   44.3520 C   0  0  0  0  0  0  0  0  0  0  0  0
   56.9380   30.7930   43.8910 C   0  0  0  0  0  0  0  0  0  0  0  0
   56.6300   31.7540   44.9030 O   0  0  0  0  0  0  0  0  0  0  0  0
   57.5290   32.6820   45.4520 C   0  0  0  0  0  0  0  0  0  0  0  0
   58.1820   33.5630   44.5800 C   0  0  0  0  0  0  0  0  0  0  0  0
   59.0880   34.5070   45.0710 C   0  0  0  0  0  0  0  0  0  0  0  0
   59.3470   34.5830   46.4420 C   0  0  0  0  0  0  0  0  0  0  0  0
   58.6980   33.7130   47.3220 C   0  0  0  0  0  0  0  0  0  0  0  0
   57.7900   32.7680   46.8350 C   0  0  0  0  0  0  0  0  0  0  0  0
   59.7500   30.0940   45.3420 N   0  0  0  0  0  0  0  0  0  0  0  0
   60.2790   30.3030   46.5620 C   0  0  0  0  0  0  0  0  0  0  0  0
   61.1760   31.2950   46.9400 C   0  0  0  0  0  0  0  0  0  0  0  0
   61.6240   31.2830   48.2790 C   0  0  0  0  0  0  0  0  0  0  0  0
   62.5610   32.3500   48.7610 C   0  0  0  0  0  0  0  0  0  0  0  0
   61.1560   30.3290   49.1540 N   0  0  0  0  0  0  0  0  0  0  0  0
   60.2760   29.3590   48.7630 C   0  0  0  0  0  0  0  0  0  0  0  0
   59.8380   29.3660   47.4410 C   0  0  0  0  0  0  0  0  0  0  0  0
   59.4021   25.4231   47.5465 H   0  0  0  0  0  0  0  0  0  0  0  0
   58.3203   25.5348   46.1169 H   0  0  0  0  0  0  0  0  0  0  0  0
   59.8999   26.3901   46.1169 H   0  0  0  0  0  0  0  0  0  0  0  0
   57.3099   27.3047   47.0845 H   0  0  0  0  0  0  0  0  0  0  0  0
   58.5079   27.2899   48.4313 H   0  0  0  0  0  0  0  0  0  0  0  0
   55.7745   28.9875   43.7335 H   0  0  0  0  0  0  0  0  0  0  0  0
   56.3109   29.4213   45.4128 H   0  0  0  0  0  0  0  0  0  0  0  0
   58.0121   30.8473   43.6599 H   0  0  0  0  0  0  0  0  0  0  0  0
   56.3367   31.0224   42.9989 H   0  0  0  0  0  0  0  0  0  0  0  0
   57.9799   33.5112   43.5000 H   0  0  0  0  0  0  0  0  0  0  0  0
   59.5981   35.1913   44.3771 H   0  0  0  0  0  0  0  0  0  0  0  0
   60.0603   35.3262   46.8277 H   0  0  0  0  0  0  0  0  0  0  0  0
   58.9021   33.7718   48.4013 H   0  0  0  0  0  0  0  0  0  0  0  0
   57.2776   32.0895   47.5329 H   0  0  0  0  0  0  0  0  0  0  0  0
   61.5222   32.0571   46.2264 H   0  0  0  0  0  0  0  0  0  0  0  0
   62.5701   32.3604   49.8609 H   0  0  0  0  0  0  0  0  0  0  0  0
   63.5750   32.1435   48.3878 H   0  0  0  0  0  0  0  0  0  0  0  0
   62.2252   33.3288   48.3878 H   0  0  0  0  0  0  0  0  0  0  0  0
   61.4780   30.3360   50.1490 H   0  0  0  0  0  0  0  0  0  0  0  0
   59.9240   28.5951   49.4719 H   0  0  0  0  0  0  0  0  0  0  0  0
  1  2  1  0
  2  3  1  0
  3  4  1  0
  4  5  1  0
  5  6  1  0
  6  7  1  0
  7  8  1  0
  8  9  1  0
  9 10  2  0
 10 11  1  0
 11 12  2  0
 12 13  1  0
 13 14  2  0
  4 15  2  0
 15 16  1  0
 16 17  2  0
 17 18  1  0
 18 19  1  0
 18 20  2  0
 20 21  1  0
 21 22  2  0
 22  3  1  0
 14  9  1  0
 22 16  1  0
  1 23  1  0
  1 24  1  0
  1 25  1  0
  2 26  1  0
  2 27  1  0
  6 28  1  0
  6 29  1  0
  7 30  1  0
  7 31  1  0
 10 32  1  0
 11 33  1  0
 12 34  1  0
 13 35  1  0
 14 36  1  0
 17 37  1  0
 19 38  1  0
 19 39  1  0
 19 40  1  0
 20 41  1  0
 21 42  1  0
M  CHG  1  20   1
M  END
>  <UniqueID>  (27) 
26

>  <SMILES>  (27) 
CCn1c(SCCOc2ccccc2)nc2cc(C)[nH+]cc21

>  <Energy>  (27) 
72.91722165784341

>  <Genealogy>  (27) 
CCn1c(SCCOc2ccccc2)nc2cc(C)[nH+]cc21 (protonated)
CCn1c(SCCOc2ccccc2)nc2cc(C)[nH+]cc21 (3D coordinates assigned)
CCn1c(SCCOc2ccccc2)nc2cc(C)[nH+]cc21 (optimized conformer: 72.91722165784341 kcal/mol)

>  <smiles>  (27) 
CCn1c(SCCOc2ccccc2)nc2cc(C)ncc21

>  <score_type>  (27) 
oracle

>  <origin>  (27) 
adg

>  <m_score__min__energy>  (27) 
-5.46

>  <m_primary>  (27) 
energy

$$$$
27:0
     RDKit          3D

 41 43  0  0  0  0  0  0  0  0999 V2000
   57.7480   32.3570   40.9550 C   0  0  0  0  0  0  0  0  0  0  0  0
   57.4920   32.0020   42.3860 C   0  0  0  0  0  0  0  0  0  0  0  0
   56.7250   30.8830   42.7120 C   0  0  0  0  0  0  0  0  0  0  0  0
   56.5320   30.5720   44.0620 C   0  0  0  0  0  0  0  0  0  0  0  0
   55.7580   29.3450   44.4460 C   0  0  0  0  0  0  0  0  0  0  0  0
   57.1150   31.3440   45.0230 N   0  0  0  0  0  0  0  0  0  0  0  0
   57.8530   32.4420   44.6890 C   0  0  0  0  0  0  0  0  0  0  0  0
   58.4710   33.2520   45.7040 N   0  0  0  0  0  0  0  0  0  0  0  0
   58.0100   33.2080   47.1010 C   0  0  0  0  0  0  0  0  0  0  0  0
   59.2140   33.0690   48.0390 C   0  0  0  0  0  0  0  0  0  0  0  0
   60.3210   33.9480   47.6270 N   0  0  0  0  0  0  0  0  0  0  0  0
   61.6120   33.8030   48.2510 C   0  0  0  0  0  0  0  0  0  0  0  0
   62.6930   33.2580   47.5350 C   0  0  0  0  0  0  0  0  0  0  0  0
   63.9420   33.1080   48.1440 C   0  0  0  0  0  0  0  0  0  0  0  0
   64.1230   33.4980   49.4740 C   0  0  0  0  0  0  0  0  0  0  0  0
   63.0560   34.0350   50.1960 C   0  0  0  0  0  0  0  0  0  0  0  0
   61.8040   34.1860   49.5900 C   0  0  0  0  0  0  0  0  0  0  0  0
   60.1170   34.9130   46.5390 C   0  0  0  0  0  0  0  0  0  0  0  0
   59.5270   34.2000   45.3170 C   0  0  0  0  0  0  0  0  0  0  0  0
   58.0450   32.7490   43.3770 N   0  0  0  0  0  0  0  0  0  0  0  0
   58.3908   33.2484   40.9077 H   0  0  0  0  0  0  0  0  0  0  0  0
   58.2492   31.5165   40.4527 H   0  0  0  0  0  0  0  0  0  0  0  0
   56.7922   32.5671   40.4527 H   0  0  0  0  0  0  0  0  0  0  0  0
   56.2810   30.2579   41.9232 H   0  0  0  0  0  0  0  0  0  0  0  0
   55.7105   29.2697   45.5424 H   0  0  0  0  0  0  0  0  0  0  0  0
   54.7385   29.4122   44.0385 H   0  0  0  0  0  0  0  0  0  0  0  0
   56.2577   28.4538   44.0385 H   0  0  0  0  0  0  0  0  0  0  0  0
   57.0190   31.0660   46.0250 H   0  0  0  0  0  0  0  0  0  0  0  0
   57.4684   34.1360   47.3366 H   0  0  0  0  0  0  0  0  0  0  0  0
   57.3415   32.3451   47.2366 H   0  0  0  0  0  0  0  0  0  0  0  0
   58.9050   33.3374   49.0600 H   0  0  0  0  0  0  0  0  0  0  0  0
   59.5657   32.0275   47.9984 H   0  0  0  0  0  0  0  0  0  0  0  0
   62.5545   32.9478   46.4888 H   0  0  0  0  0  0  0  0  0  0  0  0
   64.7829   32.6829   47.5764 H   0  0  0  0  0  0  0  0  0  0  0  0
   65.1069   33.3816   49.9519 H   0  0  0  0  0  0  0  0  0  0  0  0
   63.1996   34.3400   51.2431 H   0  0  0  0  0  0  0  0  0  0  0  0
   60.9654   34.6066   50.1643 H   0  0  0  0  0  0  0  0  0  0  0  0
   59.4239   35.6991   46.8732 H   0  0  0  0  0  0  0  0  0  0  0  0
   61.0831   35.3625   46.2661 H   0  0  0  0  0  0  0  0  0  0  0  0
   59.1008   34.9514   44.6360 H   0  0  0  0  0  0  0  0  0  0  0  0
   60.3328   33.6367   44.8236 H   0  0  0  0  0  0  0  0  0  0  0  0
  1  2  1  0
  2  3  2  0
  3  4  1  0
  4  5  1  0
  4  6  2  0
  6  7  1  0
  7  8  1  0
  8  9  1  0
  9 10  1  0
 10 11  1  0
 11 12  1  0
 12 13  2  0
 13 14  1  0
 14 15  2  0
 15 16  1  0
 16 17  2  0
 11 18  1  0
 18 19  1  0
  7 20  2  0
 20  2  1  0
 19  8  1  0
 17 12  1  0
  1 21  1  0
  1 22  1  0
  1 23  1  0
  3 24  1  0
  5 25  1  0
  5 26  1  0
  5 27  1  0
  6 28  1  0
  9 29  1  0
  9 30  1  0
 10 31  1  0
 10 32  1  0
 13 33  1  0
 14 34  1  0
 15 35  1  0
 16 36  1  0
 17 37  1  0
 18 38  1  0
 18 39  1  0
 19 40  1  0
 19 41  1  0
M  CHG  1   6   1
M  END
>  <UniqueID>  (28) 
27

>  <SMILES>  (28) 
Cc1cc(C)[nH+]c(N2CCN(c3ccccc3)CC2)n1

>  <Energy>  (28) 
47.955881511437326

>  <Genealogy>  (28) 
Cc1cc(C)[nH+]c(N2CCN(c3ccccc3)CC2)n1 (protonated)
Cc1cc(C)[nH+]c(N2CCN(c3ccccc3)CC2)n1 (3D coordinates assigned)
Cc1cc(C)[nH+]c(N2CCN(c3ccccc3)CC2)n1 (nonaromatic ring conformer: 47.955881511437326 kcal/mol)

>  <smiles>  (28) 
Cc1cc(C)nc(N2CCN(c3ccccc3)CC2)n1

>  <score_type>  (28) 
oracle

>  <origin>  (28) 
adg

>  <m_score__min__energy>  (28) 
-6.4000000000000004

>  <m_primary>  (28) 
energy

$$$$
28:0
     RDKit          3D

 44 47  0  0  0  0  0  0  0  0999 V2000
   58.8890   34.3510   53.4720 C   0  0  0  0  0  0  0  0  0  0  0  0
   59.0460   33.1070   52.7970 O   0  0  0  0  0  0  0  0  0  0  0  0
   59.2920   32.9760   51.4220 C   0  0  0  0  0  0  0  0  0  0  0  0
   58.3290   32.3440   50.6340 C   0  0  0  0  0  0  0  0  0  0  0  0
   58.5200   32.1940   49.2590 C   0  0  0  0  0  0  0  0  0  0  0  0
   59.6890   32.6760   48.6400 C   0  0  0  0  0  0  0  0  0  0  0  0
   60.6790   33.2940   49.4380 C   0  0  0  0  0  0  0  0  0  0  0  0
   60.4680   33.4560   50.8170 C   0  0  0  0  0  0  0  0  0  0  0  0
   61.9310   33.8530   48.8120 C   0  0  0  0  0  0  0  0  0  0  0  0
   62.2720   33.1400   47.5030 C   0  0  0  0  0  0  0  0  0  0  0  0
   61.0650   33.1470   46.5680 C   0  0  0  0  0  0  0  0  0  0  0  0
   59.9060   32.5210   47.2150 N   0  0  0  0  0  0  0  0  0  0  0  0
   58.9560   31.8250   46.3880 C   0  0  0  0  0  0  0  0  0  0  0  0
   57.9840   32.5450   45.6680 C   0  0  0  0  0  0  0  0  0  0  0  0
   57.9220   34.3410   45.7230 S   0  0  0  0  0  0  0  0  0  0  0  0
   59.2610   34.5530   44.5080 C   0  0  0  0  0  0  0  0  0  0  0  0
   57.0300   31.8510   44.9170 C   0  0  0  0  0  0  0  0  0  0  0  0
   57.0520   30.4950   44.8660 N   0  0  0  0  0  0  0  0  0  0  0  0
   57.9800   29.7660   45.5390 C   0  0  0  0  0  0  0  0  0  0  0  0
   57.9570   28.3680   45.4580 C   0  0  0  0  0  0  0  0  0  0  0  0
   58.9000   27.6090   46.1580 C   0  0  0  0  0  0  0  0  0  0  0  0
   58.8670   25.8580   46.0550 Cl  0  0  0  0  0  0  0  0  0  0  0  0
   59.8680   28.2450   46.9420 C   0  0  0  0  0  0  0  0  0  0  0  0
   59.8990   29.6400   47.0290 C   0  0  0  0  0  0  0  0  0  0  0  0
   58.9590   30.4160   46.3260 C   0  0  0  0  0  0  0  0  0  0  0  0
   58.9101   34.1836   54.5590 H   0  0  0  0  0  0  0  0  0  0  0  0
   59.7089   35.0276   53.1892 H   0  0  0  0  0  0  0  0  0  0  0  0
   57.9267   34.8027   53.1892 H   0  0  0  0  0  0  0  0  0  0  0  0
   57.4100   31.9601   51.1010 H   0  0  0  0  0  0  0  0  0  0  0  0
   57.7495   31.6943   48.6535 H   0  0  0  0  0  0  0  0  0  0  0  0
   61.2287   33.9625   51.4293 H   0  0  0  0  0  0  0  0  0  0  0  0
   61.7805   34.9232   48.6070 H   0  0  0  0  0  0  0  0  0  0  0  0
   62.7642   33.7011   49.5139 H   0  0  0  0  0  0  0  0  0  0  0  0
   63.1118   33.6571   47.0158 H   0  0  0  0  0  0  0  0  0  0  0  0
   62.5488   32.0985   47.7235 H   0  0  0  0  0  0  0  0  0  0  0  0
   60.8158   34.1862   46.3073 H   0  0  0  0  0  0  0  0  0  0  0  0
   61.3157   32.5766   45.6615 H   0  0  0  0  0  0  0  0  0  0  0  0
   60.2143   34.7039   45.0356 H   0  0  0  0  0  0  0  0  0  0  0  0
   59.3293   33.6545   43.8771 H   0  0  0  0  0  0  0  0  0  0  0  0
   59.0484   35.4287   43.8771 H   0  0  0  0  0  0  0  0  0  0  0  0
   56.2579   32.4070   44.3649 H   0  0  0  0  0  0  0  0  0  0  0  0
   57.1958   27.8662   44.8426 H   0  0  0  0  0  0  0  0  0  0  0  0
   60.6079   27.6452   47.4923 H   0  0  0  0  0  0  0  0  0  0  0  0
   60.6616   30.1331   47.6497 H   0  0  0  0  0  0  0  0  0  0  0  0
  1  2  1  0
  2  3  1  0
  3  4  2  0
  4  5  1  0
  5  6  2  0
  6  7  1  0
  7  8  2  0
  7  9  1  0
  9 10  1  0
 10 11  1  0
 11 12  1  0
 12 13  1  0
 13 14  2  0
 14 15  1  0
 15 16  1  0
 14 17  1  0
 17 18  2  0
 18 19  1  0
 19 20  2  0
 20 21  1  0
 21 22  1  0
 21 23  2  0
 23 24  1  0
 24 25  2  0
  8  3  1  0
 25 13  1  0
 12  6  1  0
 25 19  1  0
  1 26  1  0
  1 27  1  0
  1 28  1  0
  4 29  1  0
  5 30  1  0
  8 31  1  0
  9 32  1  0
  9 33  1  0
 10 34  1  0
 10 35  1  0
 11 36  1  0
 11 37  1  0
 16 38  1  0
 16 39  1  0
 16 40  1  0
 17 41  1  0
 20 42  1  0
 23 43  1  0
 24 44  1  0
M  END
>  <UniqueID>  (29) 
28

>  <SMILES>  (29) 
COc1ccc2c(c1)CCCN2c1c(SC)cnc2cc(Cl)ccc12

>  <Energy>  (29) 
53.50051188779921

>  <Genealogy>  (29) 
COc1ccc2c(c1)CCCN2c1c(SC)cnc2cc(Cl)ccc12 (3D coordinates assigned)
COc1ccc2c(c1)CCCN2c1c(SC)cnc2cc(Cl)ccc12 (nonaromatic ring conformer: 53.50051188779921 kcal/mol)

>  <smiles>  (29) 
COc1ccc2c(c1)CCCN2c1c(SC)cnc2cc(Cl)ccc12

>  <score_type>  (29) 
oracle

>  <origin>  (29) 
adg

>  <m_score__min__energy>  (29) 
-7.7800000000000002

>  <m_primary>  (29) 
energy

$$$$
29:0
     RDKit          3D

 36 36  0  0  0  0  0  0  0  0999 V2000
   58.0410   22.1660   44.3950 C   0  0  0  0  0  0  0  0  0  0  0  0
   56.9820   21.8300   43.3520 C   0  0  0  0  0  0  0  0  0  0  0  0
   55.8570   22.6960   43.4880 O   0  0  0  0  0  0  0  0  0  0  0  0
   55.9180   23.9390   44.1280 C   0  0  0  0  0  0  0  0  0  0  0  0
   56.7410   24.8170   43.7500 O   0  0  0  0  0  0  0  0  0  0  0  0
   55.0320   24.2070   45.3010 C   0  0  0  0  0  0  0  0  0  0  0  0
   55.4790   25.3910   46.0270 N   0  0  0  0  0  0  0  0  0  0  0  0
   56.7760   25.5950   46.6010 C   0  0  0  0  0  0  0  0  0  0  0  0
   57.0580   24.9950   47.6720 O   0  0  0  0  0  0  0  0  0  0  0  0
   57.7860   26.5540   46.0120 C   0  0  0  0  0  0  0  0  0  0  0  0
   57.3560   27.0760   44.7030 N   0  0  0  0  0  0  0  0  0  0  0  0
   57.5070   28.5110   44.6370 C   0  0  0  0  0  0  0  0  0  0  0  0
   56.6760   29.2790   43.8030 C   0  0  0  0  0  0  0  0  0  0  0  0
   56.8140   30.6690   43.7540 C   0  0  0  0  0  0  0  0  0  0  0  0
   57.7960   31.3110   44.5230 C   0  0  0  0  0  0  0  0  0  0  0  0
   57.9110   32.8060   44.5060 C   0  0  0  0  0  0  0  0  0  0  0  0
   58.6160   30.5490   45.3680 C   0  0  0  0  0  0  0  0  0  0  0  0
   58.4690   29.1600   45.4290 C   0  0  0  0  0  0  0  0  0  0  0  0
   57.6192   22.0322   45.4021 H   0  0  0  0  0  0  0  0  0  0  0  0
   58.9057   21.4981   44.2679 H   0  0  0  0  0  0  0  0  0  0  0  0
   58.3625   23.2103   44.2679 H   0  0  0  0  0  0  0  0  0  0  0  0
   57.4124   21.9503   42.3469 H   0  0  0  0  0  0  0  0  0  0  0  0
   56.6523   20.7911   43.5005 H   0  0  0  0  0  0  0  0  0  0  0  0
   54.0032   24.3681   44.9467 H   0  0  0  0  0  0  0  0  0  0  0  0
   55.0720   23.3414   45.9786 H   0  0  0  0  0  0  0  0  0  0  0  0
   57.9192   27.3984   46.7043 H   0  0  0  0  0  0  0  0  0  0  0  0
   58.7284   26.0059   45.8654 H   0  0  0  0  0  0  0  0  0  0  0  0
   57.9470   26.6340   43.9590 H   0  0  0  0  0  0  0  0  0  0  0  0
   56.3660   26.8060   44.4990 H   0  0  0  0  0  0  0  0  0  0  0  0
   55.9127   28.7832   43.1853 H   0  0  0  0  0  0  0  0  0  0  0  0
   56.1492   31.2625   43.1092 H   0  0  0  0  0  0  0  0  0  0  0  0
   57.9400   33.1833   45.5389 H   0  0  0  0  0  0  0  0  0  0  0  0
   58.8342   33.0968   43.9833 H   0  0  0  0  0  0  0  0  0  0  0  0
   57.0432   33.2346   43.9833 H   0  0  0  0  0  0  0  0  0  0  0  0
   59.3783   31.0465   45.9856 H   0  0  0  0  0  0  0  0  0  0  0  0
   59.1106   28.5715   46.1014 H   0  0  0  0  0  0  0  0  0  0  0  0
  1  2  1  0
  2  3  1  0
  3  4  1  0
  4  5  2  0
  4  6  1  0
  6  7  1  0
  7  8  1  0
  8  9  2  0
  8 10  1  0
 10 11  1  0
 11 12  1  0
 12 13  2  0
 13 14  1  0
 14 15  2  0
 15 16  1  0
 15 17  1  0
 17 18  2  0
 18 12  1  0
  1 19  1  0
  1 20  1  0
  1 21  1  0
  2 22  1  0
  2 23  1  0
  6 24  1  0
  6 25  1  0
 10 26  1  0
 10 27  1  0
 11 28  1  0
 11 29  1  0
 13 30  1  0
 14 31  1  0
 16 32  1  0
 16 33  1  0
 16 34  1  0
 17 35  1  0
 18 36  1  0
M  CHG  2   7  -1  11   1
M  END
>  <UniqueID>  (30) 
29

>  <SMILES>  (30) 
CCOC(=O)C[N-]C(=O)C[NH2+]c1ccc(C)cc1

>  <Energy>  (30) 
25.356922351544092

>  <Genealogy>  (30) 
CCOC(=O)C[N-]C(=O)C[NH2+]c1ccc(C)cc1 (protonated)
CCOC(=O)C[N-]C(=O)C[NH2+]c1ccc(C)cc1 (3D coordinates assigned)
CCOC(=O)C[N-]C(=O)C[NH2+]c1ccc(C)cc1 (optimized conformer: 25.356922351544092 kcal/mol)

>  <smiles>  (30) 
CCOC(=O)CNC(=O)CNc1ccc(C)cc1

>  <score_type>  (30) 
oracle

>  <origin>  (30) 
adg

>  <m_score__min__energy>  (30) 
-5.5999999999999996

>  <m_primary>  (30) 
energy

$$$$
30:0
     RDKit          3D

 74 77  0  0  0  0  0  0  0  0999 V2000
   60.4580   29.8960   47.2970 C   0  0  0  0  0  0  0  0  0  0  0  0
   59.1720   29.2770   47.8340 C   0  0  0  0  0  0  0  0  0  0  0  0
   58.2420   29.1000   46.7810 O   0  0  0  0  0  0  0  0  0  0  0  0
   58.3550   27.8030   46.2310 C   0  0  0  0  0  0  0  0  0  0  0  0
   59.0320   27.8790   44.8680 C   0  0  0  0  0  0  0  0  0  0  0  0
   58.5170   28.9850   44.1550 O   0  0  0  0  0  0  0  0  0  0  0  0
   57.3980   28.6090   43.3740 C   0  0  0  0  0  0  0  0  0  0  0  0
   56.3110   29.6880   43.4330 C   0  0  0  0  0  0  0  0  0  0  0  0
   56.5450   30.6600   44.5140 N   0  0  0  0  0  0  0  0  0  0  0  0
   57.2620   31.8750   44.0820 C   0  0  0  0  0  0  0  0  0  0  0  0
   57.9930   32.5530   45.2160 C   0  0  0  0  0  0  0  0  0  0  0  0
   57.9030   32.0410   46.5210 C   0  0  0  0  0  0  0  0  0  0  0  0
   58.5130   32.7090   47.5850 C   0  0  0  0  0  0  0  0  0  0  0  0
   59.2200   33.9020   47.3610 C   0  0  0  0  0  0  0  0  0  0  0  0
   59.8390   34.6350   48.5260 C   0  0  0  0  0  0  0  0  0  0  0  0
   60.4530   33.6830   49.4900 N   0  0  0  0  0  0  0  0  0  0  0  0
   59.8890   33.8440   50.8660 C   0  0  0  0  0  0  0  0  0  0  0  0
   58.9030   32.7670   51.2750 C   0  0  0  0  0  0  0  0  0  0  0  0
   57.9520   33.0100   52.2780 C   0  0  0  0  0  0  0  0  0  0  0  0
   57.0600   32.0010   52.6430 C   0  0  0  0  0  0  0  0  0  0  0  0
   57.1070   30.7680   51.9960 C   0  0  0  0  0  0  0  0  0  0  0  0
   58.0450   30.5640   50.9810 C   0  0  0  0  0  0  0  0  0  0  0  0
   58.9100   31.5560   50.6380 N   0  0  0  0  0  0  0  0  0  0  0  0
   61.9500   33.6030   49.4770 C   0  0  2  0  0  0  0  0  0  0  0  0
   62.5980   33.6360   48.0610 C   0  0  0  0  0  0  0  0  0  0  0  0
   64.1330   33.3780   48.0550 C   0  0  0  0  0  0  0  0  0  0  0  0
   64.7280   32.9950   49.4250 C   0  0  0  0  0  0  0  0  0  0  0  0
   63.8100   32.0510   50.1450 C   0  0  0  0  0  0  0  0  0  0  0  0
   64.2790   30.8890   50.7710 C   0  0  0  0  0  0  0  0  0  0  0  0
   63.3750   30.0160   51.3770 C   0  0  0  0  0  0  0  0  0  0  0  0
   62.0110   30.3130   51.3450 C   0  0  0  0  0  0  0  0  0  0  0  0
   61.5740   31.4500   50.7410 N   0  0  0  0  0  0  0  0  0  0  0  0
   62.4350   32.3350   50.1620 C   0  0  0  0  0  0  0  0  0  0  0  0
   59.3440   34.3920   46.0510 C   0  0  0  0  0  0  0  0  0  0  0  0
   58.7240   33.7300   44.9870 C   0  0  0  0  0  0  0  0  0  0  0  0
   61.0963   30.2032   48.1385 H   0  0  0  0  0  0  0  0  0  0  0  0
   60.9922   29.1564   46.6825 H   0  0  0  0  0  0  0  0  0  0  0  0
   60.2132   30.7749   46.6825 H   0  0  0  0  0  0  0  0  0  0  0  0
   59.3994   28.3007   48.2869 H   0  0  0  0  0  0  0  0  0  0  0  0
   58.7374   29.9475   48.5900 H   0  0  0  0  0  0  0  0  0  0  0  0
   58.9558   27.1723   46.9028 H   0  0  0  0  0  0  0  0  0  0  0  0
   57.3512   27.3684   46.1148 H   0  0  0  0  0  0  0  0  0  0  0  0
   60.1170   28.0006   45.0023 H   0  0  0  0  0  0  0  0  0  0  0  0
   58.8371   26.9536   44.3062 H   0  0  0  0  0  0  0  0  0  0  0  0
   57.7156   28.4727   42.3297 H   0  0  0  0  0  0  0  0  0  0  0  0
   56.9870   27.6698   43.7728 H   0  0  0  0  0  0  0  0  0  0  0  0
   56.2930   30.2246   42.4729 H   0  0  0  0  0  0  0  0  0  0  0  0
   55.3517   29.1880   43.6325 H   0  0  0  0  0  0  0  0  0  0  0  0
   57.1100   30.1910   45.2610 H   0  0  0  0  0  0  0  0  0  0  0  0
   57.9929   31.5963   43.3086 H   0  0  0  0  0  0  0  0  0  0  0  0
   56.5139   32.5838   43.6973 H   0  0  0  0  0  0  0  0  0  0  0  0
   57.3490   31.1088   46.7059 H   0  0  0  0  0  0  0  0  0  0  0  0
   58.4395   32.2991   48.6031 H   0  0  0  0  0  0  0  0  0  0  0  0
   60.6158   35.3171   48.1500 H   0  0  0  0  0  0  0  0  0  0  0  0
   59.0494   35.1983   49.0448 H   0  0  0  0  0  0  0  0  0  0  0  0
   60.7239   33.8344   51.5821 H   0  0  0  0  0  0  0  0  0  0  0  0
   59.3316   34.7923   50.8650 H   0  0  0  0  0  0  0  0  0  0  0  0
   57.9100   33.9910   52.7739 H   0  0  0  0  0  0  0  0  0  0  0  0
   56.3220   32.1785   53.4391 H   0  0  0  0  0  0  0  0  0  0  0  0
   56.4129   29.9637   52.2813 H   0  0  0  0  0  0  0  0  0  0  0  0
   58.0841   29.5975   50.4572 H   0  0  0  0  0  0  0  0  0  0  0  0
   59.6000   31.3750   49.8730 H   0  0  0  0  0  0  0  0  0  0  0  0
   62.2647   34.5098   50.0143 H   0  0  0  0  0  0  0  0  0  0  0  0
   62.1161   32.8640   47.4431 H   0  0  0  0  0  0  0  0  0  0  0  0
   62.4470   34.6523   47.6682 H   0  0  0  0  0  0  0  0  0  0  0  0
   64.3399   32.5588   47.3506 H   0  0  0  0  0  0  0  0  0  0  0  0
   64.6063   34.3279   47.7657 H   0  0  0  0  0  0  0  0  0  0  0  0
   65.7031   32.5088   49.2742 H   0  0  0  0  0  0  0  0  0  0  0  0
   64.8510   33.9058   50.0294 H   0  0  0  0  0  0  0  0  0  0  0  0
   65.3560   30.6656   50.7848 H   0  0  0  0  0  0  0  0  0  0  0  0
   63.7332   29.1029   51.8750 H   0  0  0  0  0  0  0  0  0  0  0  0
   61.2886   29.6257   51.8094 H   0  0  0  0  0  0  0  0  0  0  0  0
   59.9323   35.3018   45.8608 H   0  0  0  0  0  0  0  0  0  0  0  0
   58.8091   34.1325   43.9668 H   0  0  0  0  0  0  0  0  0  0  0  0
  1  2  1  0
  2  3  1  0
  3  4  1  0
  4  5  1  0
  5  6  1  0
  6  7  1  0
  7  8  1  0
  8  9  1  0
  9 10  1  0
 10 11  1  0
 11 12  2  0
 12 13  1  0
 13 14  2  0
 14 15  1  0
 15 16  1  0
 16 17  1  0
 17 18  1  0
 18 19  2  0
 19 20  1  0
 20 21  2  0
 21 22  1  0
 22 23  2  0
 16 24  1  0
 24 25  1  0
 25 26  1  0
 26 27  1  0
 27 28  1  0
 28 29  2  0
 29 30  1  0
 30 31  2  0
 31 32  1  0
 32 33  2  0
 14 34  1  0
 34 35  2  0
 35 11  1  0
 23 18  1  0
 33 24  1  0
 33 28  1  0
  1 36  1  0
  1 37  1  0
  1 38  1  0
  2 39  1  0
  2 40  1  0
  4 41  1  0
  4 42  1  0
  5 43  1  0
  5 44  1  0
  7 45  1  0
  7 46  1  0
  8 47  1  0
  8 48  1  0
  9 49  1  0
 10 50  1  0
 10 51  1  0
 12 52  1  0
 13 53  1  0
 15 54  1  0
 15 55  1  0
 17 56  1  0
 17 57  1  0
 19 58  1  0
 20 59  1  0
 21 60  1  0
 22 61  1  0
 23 62  1  0
 24 63  1  1
 25 64  1  0
 25 65  1  0
 26 66  1  0
 26 67  1  0
 27 68  1  0
 27 69  1  0
 29 70  1  0
 30 71  1  0
 31 72  1  0
 34 73  1  0
 35 74  1  0
M  CHG  1  23   1
M  END
>  <UniqueID>  (31) 
30

>  <SMILES>  (31) 
CCOCCOCCNCc1ccc(CN(Cc2cccc[nH+]2)[C@@H]2CCCc3cccnc32)cc1

>  <Energy>  (31) 
96.48912052618086

>  <Genealogy>  (31) 
CCOCCOCCNCc1ccc(CN(Cc2cccc[nH+]2)C2CCCc3cccnc32)cc1 (protonated)
CCOCCOCCNCc1ccc(CN(Cc2cccc[nH+]2)[C@@H]2CCCc3cccnc32)cc1 (chirality)
CCOCCOCCNCc1ccc(CN(Cc2cccc[nH+]2)[C@@H]2CCCc3cccnc32)cc1 (3D coordinates assigned)
CCOCCOCCNCc1ccc(CN(Cc2cccc[nH+]2)[C@@H]2CCCc3cccnc32)cc1 (nonaromatic ring conformer: 96.48912052618086 kcal/mol)

>  <smiles>  (31) 
CCOCCOCCNCc1ccc(CN(Cc2ccccn2)C2CCCc3cccnc32)cc1

>  <score_type>  (31) 
oracle

>  <origin>  (31) 
adg

>  <m_score__min__energy>  (31) 
-8.25

>  <m_primary>  (31) 
energy

$$$$
31:0
     RDKit          3D

 53 55  0  0  0  0  0  0  0  0999 V2000
   59.7840   34.2260   49.2410 C   0  0  0  0  0  0  0  0  0  0  0  0
   61.2460   33.7930   49.3090 C   0  0  0  0  0  0  0  0  0  0  0  0
   61.5860   32.9630   48.1340 N   0  0  0  0  0  0  0  0  0  0  0  0
   62.3710   33.6850   47.1050 C   0  0  0  0  0  0  0  0  0  0  0  0
   63.7740   33.0960   47.0310 C   0  0  0  0  0  0  0  0  0  0  0  0
   62.1780   31.6550   48.4980 C   0  0  0  0  0  0  0  0  0  0  0  0
   61.3020   30.4370   48.1030 C   0  0  0  0  0  0  0  0  0  0  0  0
   59.8690   30.7820   48.0960 N   0  0  0  0  0  0  0  0  0  0  0  0
   59.2710   30.4730   46.8060 C   0  0  0  0  0  0  0  0  0  0  0  0
   58.9230   31.5110   45.9010 C   0  0  0  0  0  0  0  0  0  0  0  0
   59.3080   32.8570   46.1170 C   0  0  0  0  0  0  0  0  0  0  0  0
   58.9230   33.8640   45.2330 C   0  0  0  0  0  0  0  0  0  0  0  0
   58.1580   33.5570   44.1160 C   0  0  0  0  0  0  0  0  0  0  0  0
   57.7760   32.2410   43.8730 C   0  0  0  0  0  0  0  0  0  0  0  0
   58.1470   31.1960   44.7550 C   0  0  0  0  0  0  0  0  0  0  0  0
   57.7640   29.8970   44.5150 N   0  0  0  0  0  0  0  0  0  0  0  0
   56.5480   29.6490   43.7120 C   0  0  0  0  0  0  0  0  0  0  0  0
   58.4010   28.8610   45.1660 C   0  0  0  0  0  0  0  0  0  0  0  0
   58.4280   27.5240   44.6470 C   0  0  0  0  0  0  0  0  0  0  0  0
   58.1340   27.1880   43.2050 C   0  0  0  0  0  0  0  0  0  0  0  0
   58.8800   26.4750   45.4590 C   0  0  0  0  0  0  0  0  0  0  0  0
   59.4040   26.7290   46.7160 C   0  0  0  0  0  0  0  0  0  0  0  0
   59.5360   28.0360   47.1680 C   0  0  0  0  0  0  0  0  0  0  0  0
   59.0700   29.1250   46.3960 C   0  0  0  0  0  0  0  0  0  0  0  0
   59.3885   34.3431   50.2607 H   0  0  0  0  0  0  0  0  0  0  0  0
   59.7100   35.1846   48.7066 H   0  0  0  0  0  0  0  0  0  0  0  0
   59.1999   33.4623   48.7066 H   0  0  0  0  0  0  0  0  0  0  0  0
   61.8893   34.6852   49.3224 H   0  0  0  0  0  0  0  0  0  0  0  0
   61.4042   33.2032   50.2239 H   0  0  0  0  0  0  0  0  0  0  0  0
   61.8776   33.5809   46.1274 H   0  0  0  0  0  0  0  0  0  0  0  0
   62.4340   34.7502   47.3722 H   0  0  0  0  0  0  0  0  0  0  0  0
   64.1581   32.9347   48.0491 H   0  0  0  0  0  0  0  0  0  0  0  0
   63.7408   32.1359   46.4953 H   0  0  0  0  0  0  0  0  0  0  0  0
   64.4361   33.7921   46.4953 H   0  0  0  0  0  0  0  0  0  0  0  0
   63.1498   31.5616   47.9912 H   0  0  0  0  0  0  0  0  0  0  0  0
   62.2702   31.6401   49.5940 H   0  0  0  0  0  0  0  0  0  0  0  0
   61.5931   30.0984   47.0977 H   0  0  0  0  0  0  0  0  0  0  0  0
   61.4619   29.6415   48.8457 H   0  0  0  0  0  0  0  0  0  0  0  0
   59.7370   31.7910   48.3290 H   0  0  0  0  0  0  0  0  0  0  0  0
   59.3690   30.2860   48.8650 H   0  0  0  0  0  0  0  0  0  0  0  0
   59.9197   33.1114   46.9951 H   0  0  0  0  0  0  0  0  0  0  0  0
   59.2262   34.9045   45.4211 H   0  0  0  0  0  0  0  0  0  0  0  0
   57.8535   34.3546   43.4224 H   0  0  0  0  0  0  0  0  0  0  0  0
   57.1758   32.0082   42.9810 H   0  0  0  0  0  0  0  0  0  0  0  0
   55.6943   29.4749   44.3835 H   0  0  0  0  0  0  0  0  0  0  0  0
   56.3429   30.5238   43.0775 H   0  0  0  0  0  0  0  0  0  0  0  0
   56.7019   28.7637   43.0775 H   0  0  0  0  0  0  0  0  0  0  0  0
   57.4102   26.3608   43.1615 H   0  0  0  0  0  0  0  0  0  0  0  0
   57.7129   28.0706   42.7014 H   0  0  0  0  0  0  0  0  0  0  0  0
   59.0647   26.8877   42.7014 H   0  0  0  0  0  0  0  0  0  0  0  0
   58.8181   25.4390   45.0944 H   0  0  0  0  0  0  0  0  0  0  0  0
   59.7167   25.8927   47.3586 H   0  0  0  0  0  0  0  0  0  0  0  0
   60.0106   28.2267   48.1419 H   0  0  0  0  0  0  0  0  0  0  0  0
  1  2  1  0
  2  3  1  0
  3  4  1  0
  4  5  1  0
  3  6  1  0
  6  7  1  0
  7  8  1  0
  8  9  1  0
  9 10  2  0
 10 11  1  0
 11 12  2  0
 12 13  1  0
 13 14  2  0
 14 15  1  0
 15 16  2  0
 16 17  1  0
 16 18  1  0
 18 19  2  0
 19 20  1  0
 19 21  1  0
 21 22  2  0
 22 23  1  0
 23 24  2  0
 24  9  1  0
 15 10  1  0
 24 18  1  0
  1 25  1  0
  1 26  1  0
  1 27  1  0
  2 28  1  0
  2 29  1  0
  4 30  1  0
  4 31  1  0
  5 32  1  0
  5 33  1  0
  5 34  1  0
  6 35  1  0
  6 36  1  0
  7 37  1  0
  7 38  1  0
  8 39  1  0
  8 40  1  0
 11 41  1  0
 12 42  1  0
 13 43  1  0
 14 44  1  0
 17 45  1  0
 17 46  1  0
 17 47  1  0
 20 48  1  0
 20 49  1  0
 20 50  1  0
 21 51  1  0
 22 52  1  0
 23 53  1  0
M  CHG  2   8   1  16   1
M  END
>  <UniqueID>  (32) 
31

>  <SMILES>  (32) 
CCN(CC)CC[NH2+]c1c2ccccc2[n+](C)c2c(C)cccc12

>  <Energy>  (32) 
92.88391239019484

>  <Genealogy>  (32) 
CCN(CC)CC[NH2+]c1c2ccccc2[n+](C)c2c(C)cccc12 (protonated)
CCN(CC)CC[NH2+]c1c2ccccc2[n+](C)c2c(C)cccc12 (3D coordinates assigned)
CCN(CC)CC[NH2+]c1c2ccccc2[n+](C)c2c(C)cccc12 (optimized conformer: 92.88391239019484 kcal/mol)

>  <smiles>  (32) 
CCN(CC)CCNc1c2ccccc2[n+](C)c2c(C)cccc12

>  <score_type>  (32) 
oracle

>  <origin>  (32) 
adg

>  <m_score__min__energy>  (32) 
-4.29

>  <m_primary>  (32) 
energy

$$$$
32:0
     RDKit          3D

 43 44  0  0  0  0  0  0  0  0999 V2000
   57.7400   31.9220   43.0040 C   0  0  0  0  0  0  0  0  0  0  0  0
   57.3840   31.9940   44.4840 C   0  0  0  0  0  0  0  0  0  0  0  0
   56.6970   30.8200   44.8800 O   0  0  0  0  0  0  0  0  0  0  0  0
   56.5850   29.9040   43.8060 C   0  0  0  0  0  0  0  0  0  0  0  0
   57.5720   28.7460   43.9870 C   0  0  0  0  0  0  0  0  0  0  0  0
   58.8960   29.2330   44.1210 O   0  0  0  0  0  0  0  0  0  0  0  0
   59.6740   28.3920   44.9570 C   0  0  0  0  0  0  0  0  0  0  0  0
   60.2460   29.1820   46.1330 C   0  0  0  0  0  0  0  0  0  0  0  0
   59.3000   30.2260   46.5510 N   0  0  0  0  0  0  0  0  0  0  0  0
   58.8980   30.0730   47.9570 C   0  0  0  0  0  0  0  0  0  0  0  0
   58.8980   31.4290   48.6750 C   0  0  0  0  0  0  0  0  0  0  0  0
   59.3650   32.5380   47.7660 C   0  0  0  0  0  0  0  0  0  0  0  0
   58.4430   33.4510   47.2170 C   0  0  0  0  0  0  0  0  0  0  0  0
   58.8810   34.5080   46.3970 C   0  0  0  0  0  0  0  0  0  0  0  0
   60.2470   34.6790   46.1240 C   0  0  0  0  0  0  0  0  0  0  0  0
   61.1620   33.7820   46.6790 C   0  0  0  0  0  0  0  0  0  0  0  0
   62.5520   33.8230   46.5130 C   0  0  0  0  0  0  0  0  0  0  0  0
   63.2060   32.7980   47.1930 C   0  0  0  0  0  0  0  0  0  0  0  0
   62.0600   31.8520   47.9940 S   0  0  0  0  0  0  0  0  0  0  0  0
   60.7240   32.7380   47.4810 C   0  0  0  0  0  0  0  0  0  0  0  0
   58.8129   31.7050   42.8951 H   0  0  0  0  0  0  0  0  0  0  0  0
   57.1540   31.1242   42.5243 H   0  0  0  0  0  0  0  0  0  0  0  0
   57.5101   32.8848   42.5243 H   0  0  0  0  0  0  0  0  0  0  0  0
   58.3064   32.0920   45.0752 H   0  0  0  0  0  0  0  0  0  0  0  0
   56.7340   32.8649   44.6547 H   0  0  0  0  0  0  0  0  0  0  0  0
   55.5602   29.5054   43.7749 H   0  0  0  0  0  0  0  0  0  0  0  0
   56.8159   30.4263   42.8658 H   0  0  0  0  0  0  0  0  0  0  0  0
   57.3024   28.1796   44.8906 H   0  0  0  0  0  0  0  0  0  0  0  0
   57.5219   28.0966   43.1005 H   0  0  0  0  0  0  0  0  0  0  0  0
   59.0406   27.5791   45.3417 H   0  0  0  0  0  0  0  0  0  0  0  0
   60.5069   27.9799   44.3684 H   0  0  0  0  0  0  0  0  0  0  0  0
   60.4285   28.4986   46.9754 H   0  0  0  0  0  0  0  0  0  0  0  0
   61.1891   29.6555   45.8225 H   0  0  0  0  0  0  0  0  0  0  0  0
   58.4410   30.1340   45.9580 H   0  0  0  0  0  0  0  0  0  0  0  0
   57.8862   29.6434   47.9980 H   0  0  0  0  0  0  0  0  0  0  0  0
   59.6170   29.4087   48.4587 H   0  0  0  0  0  0  0  0  0  0  0  0
   57.8762   31.6528   49.0154 H   0  0  0  0  0  0  0  0  0  0  0  0
   59.5910   31.3674   49.5270 H   0  0  0  0  0  0  0  0  0  0  0  0
   57.3702   33.3367   47.4313 H   0  0  0  0  0  0  0  0  0  0  0  0
   58.1470   35.2053   45.9669 H   0  0  0  0  0  0  0  0  0  0  0  0
   60.5908   35.5051   45.4841 H   0  0  0  0  0  0  0  0  0  0  0  0
   63.0714   34.5828   45.9105 H   0  0  0  0  0  0  0  0  0  0  0  0
   64.2933   32.6319   47.2059 H   0  0  0  0  0  0  0  0  0  0  0  0
  1  2  1  0
  2  3  1  0
  3  4  1  0
  4  5  1  0
  5  6  1  0
  6  7  1  0
  7  8  1  0
  8  9  1  0
  9 10  1  0
 10 11  1  0
 11 12  1  0
 12 13  2  0
 13 14  1  0
 14 15  2  0
 15 16  1  0
 16 17  1  0
 17 18  2  0
 18 19  1  0
 19 20  1  0
 20 12  1  0
 20 16  2  0
  1 21  1  0
  1 22  1  0
  1 23  1  0
  2 24  1  0
  2 25  1  0
  4 26  1  0
  4 27  1  0
  5 28  1  0
  5 29  1  0
  7 30  1  0
  7 31  1  0
  8 32  1  0
  8 33  1  0
  9 34  1  0
 10 35  1  0
 10 36  1  0
 11 37  1  0
 11 38  1  0
 13 39  1  0
 14 40  1  0
 15 41  1  0
 17 42  1  0
 18 43  1  0
M  END
>  <UniqueID>  (33) 
32

>  <SMILES>  (33) 
CCOCCOCCNCCc1cccc2ccsc12

>  <Energy>  (33) 
68.83395199422847

>  <Genealogy>  (33) 
CCOCCOCCNCCc1cccc2ccsc12 (3D coordinates assigned)
CCOCCOCCNCCc1cccc2ccsc12 (optimized conformer: 68.83395199422847 kcal/mol)

>  <smiles>  (33) 
CCOCCOCCNCCc1cccc2ccsc12

>  <score_type>  (33) 
oracle

>  <origin>  (33) 
adg

>  <m_score__min__energy>  (33) 
-6.79

>  <m_primary>  (33) 
energy

$$$$
