0:0
     RDKit          3D

 48 49  0  0  0  0  0  0  0  0999 V2000
   59.2480   34.2410   44.8250 C   0  0  0  0  0  0  0  0  0  0  0  0
   60.0040   34.8180   46.0180 C   0  0  0  0  0  0  0  0  0  0  0  0
   59.0720   35.0140   47.2220 C   0  0  0  0  0  0  0  0  0  0  0  0
   59.7460   34.5900   48.5330 C   0  0  0  0  0  0  0  0  0  0  0  0
   59.5640   33.1950   48.7820 O   0  0  0  0  0  0  0  0  0  0  0  0
   59.4770   32.1860   47.8070 C   0  0  0  0  0  0  0  0  0  0  0  0
   58.2670   31.8780   47.1580 C   0  0  0  0  0  0  0  0  0  0  0  0
   58.2080   30.8570   46.2040 C   0  0  0  0  0  0  0  0  0  0  0  0
   57.0510   30.6040   45.6110 O   0  0  0  0  0  0  0  0  0  0  0  0
   56.8970   29.6600   44.6950 C   0  0  0  0  0  0  0  0  0  0  0  0
   55.7560   29.4950   44.1870 O   0  0  0  0  0  0  0  0  0  0  0  0
   57.9860   28.8560   44.2950 C   0  0  0  0  0  0  0  0  0  0  0  0
   57.7660   27.7790   43.2420 C   0  0  0  0  0  0  0  0  0  0  0  0
   57.7760   26.3640   43.8440 C   0  0  0  0  0  0  0  0  0  0  0  0
   57.3630   26.3520   45.3150 C   0  0  0  0  0  0  0  0  0  0  0  0
   59.2480   29.0730   44.9170 C   0  0  0  0  0  0  0  0  0  0  0  0
   60.4700   28.2440   44.5670 C   0  0  0  0  0  0  0  0  0  0  0  0
   59.3590   30.1100   45.8820 C   0  0  0  0  0  0  0  0  0  0  0  0
   60.5700   30.4220   46.5340 C   0  0  0  0  0  0  0  0  0  0  0  0
   60.6370   31.4580   47.4800 C   0  0  0  0  0  0  0  0  0  0  0  0
   61.9460   31.7470   48.1720 C   0  0  0  0  0  0  0  0  0  0  0  0
   62.7920   32.7120   47.3480 C   0  0  0  0  0  0  0  0  0  0  0  0
   58.4217   33.6103   45.1848 H   0  0  0  0  0  0  0  0  0  0  0  0
   58.8437   35.0623   44.2151 H   0  0  0  0  0  0  0  0  0  0  0  0
   59.9335   33.6344   44.2151 H   0  0  0  0  0  0  0  0  0  0  0  0
   60.8128   34.1273   46.2987 H   0  0  0  0  0  0  0  0  0  0  0  0
   60.4137   35.7976   45.7308 H   0  0  0  0  0  0  0  0  0  0  0  0
   58.7956   36.0765   47.2901 H   0  0  0  0  0  0  0  0  0  0  0  0
   58.1818   34.3851   47.0738 H   0  0  0  0  0  0  0  0  0  0  0  0
   60.8228   34.8051   48.4683 H   0  0  0  0  0  0  0  0  0  0  0  0
   59.2859   35.1532   49.3583 H   0  0  0  0  0  0  0  0  0  0  0  0
   57.3578   32.4463   47.4036 H   0  0  0  0  0  0  0  0  0  0  0  0
   56.7932   27.9508   42.7581 H   0  0  0  0  0  0  0  0  0  0  0  0
   58.5915   27.8426   42.5178 H   0  0  0  0  0  0  0  0  0  0  0  0
   57.0761   25.7338   43.2758 H   0  0  0  0  0  0  0  0  0  0  0  0
   58.8055   25.9814   43.7823 H   0  0  0  0  0  0  0  0  0  0  0  0
   58.2619   26.3781   45.9484 H   0  0  0  0  0  0  0  0  0  0  0  0
   56.7388   27.2324   45.5278 H   0  0  0  0  0  0  0  0  0  0  0  0
   56.7910   25.4369   45.5278 H   0  0  0  0  0  0  0  0  0  0  0  0
   60.9632   27.9094   45.4916 H   0  0  0  0  0  0  0  0  0  0  0  0
   60.1621   27.3676   43.9779 H   0  0  0  0  0  0  0  0  0  0  0  0
   61.1705   28.8541   43.9779 H   0  0  0  0  0  0  0  0  0  0  0  0
   61.4763   29.8449   46.2980 H   0  0  0  0  0  0  0  0  0  0  0  0
   61.7427   32.1951   49.1558 H   0  0  0  0  0  0  0  0  0  0  0  0
   62.4994   30.8035   48.2883 H   0  0  0  0  0  0  0  0  0  0  0  0
   63.3648   33.3653   48.0226 H   0  0  0  0  0  0  0  0  0  0  0  0
   63.4861   32.1413   46.7135 H   0  0  0  0  0  0  0  0  0  0  0  0
   62.1353   33.3254   46.7135 H   0  0  0  0  0  0  0  0  0  0  0  0
  1  2  1  0
  2  3  1  0
  3  4  1  0
  4  5  1  0
  5  6  1  0
  6  7  2  0
  7  8  1  0
  8  9  1  0
  9 10  1  0
 10 11  2  0
 10 12  1  0
 12 13  1  0
 13 14  1  0
 14 15  1  0
 12 16  2  0
 16 17  1  0
 16 18  1  0
 18 19  1  0
 19 20  2  0
 20 21  1  0
 21 22  1  0
 20  6  1  0
 18  8  2  0
  1 23  1  0
  1 24  1  0
  1 25  1  0
  2 26  1  0
  2 27  1  0
  3 28  1  0
  3 29  1  0
  4 30  1  0
  4 31  1  0
  7 32  1  0
 13 33  1  0
 13 34  1  0
 14 35  1  0
 14 36  1  0
 15 37  1  0
 15 38  1  0
 15 39  1  0
 17 40  1  0
 17 41  1  0
 17 42  1  0
 19 43  1  0
 21 44  1  0
 21 45  1  0
 22 46  1  0
 22 47  1  0
 22 48  1  0
M  END
>  <UniqueID>  (1) 
1

>  <SMILES>  (1) 
CCCCOc1cc2oc(=O)c(CCC)c(C)c2cc1CC

>  <Energy>  (1) 
43.9916018476457

>  <Genealogy>  (1) 
CCCCOc1cc2oc(=O)c(CCC)c(C)c2cc1CC (3D coordinates assigned)
CCCCOc1cc2oc(=O)c(CCC)c(C)c2cc1CC (optimized conformer: 43.9916018476457 kcal/mol)

>  <smiles>  (1) 
CCCCOc1cc2oc(=O)c(CCC)c(C)c2cc1CC

>  <score_type>  (1) 
oracle

>  <origin>  (1) 
adg

>  <m_score__min__energy>  (1) 
-6.9100000000000001

>  <m_primary>  (1) 
energy

$$$$
1:0
     RDKit          3D

 39 41  0  0  0  0  0  0  0  0999 V2000
   62.2270   33.8520   48.1730 C   0  0  0  0  0  0  0  0  0  0  0  0
   60.6100   34.5900   48.5620 S   0  0  0  0  0  0  0  0  0  0  0  0
   59.6880   33.3260   47.6840 C   0  0  0  0  0  0  0  0  0  0  0  0
   58.6650   33.6990   46.7820 C   0  0  0  0  0  0  0  0  0  0  0  0
   57.9350   32.7170   46.0870 C   0  0  0  0  0  0  0  0  0  0  0  0
   58.2430   31.3790   46.3360 C   0  0  0  0  0  0  0  0  0  0  0  0
   57.7420   30.2100   45.8020 C   0  0  0  0  0  0  0  0  0  0  0  0
   56.7510   30.0950   44.7160 C   0  0  0  0  0  0  0  0  0  0  0  0
   55.6170   29.6120   44.9800 O   0  0  0  0  0  0  0  0  0  0  0  0
   57.0540   30.5270   43.3750 N   0  0  0  0  0  0  0  0  0  0  0  0
   56.2720   29.9910   42.2590 C   0  0  0  0  0  0  0  0  0  0  0  0
   58.0480   31.5810   43.1470 C   0  0  0  0  0  0  0  0  0  0  0  0
   58.5110   29.1920   46.3810 C   0  0  0  0  0  0  0  0  0  0  0  0
   58.4000   27.7360   46.1490 C   0  0  0  0  0  0  0  0  0  0  0  0
   57.1540   27.1190   45.9330 C   0  0  0  0  0  0  0  0  0  0  0  0
   57.0760   25.7370   45.7320 C   0  0  0  0  0  0  0  0  0  0  0  0
   58.2350   24.9590   45.7560 C   0  0  0  0  0  0  0  0  0  0  0  0
   59.4740   25.5590   45.9890 C   0  0  0  0  0  0  0  0  0  0  0  0
   59.5570   26.9400   46.1920 C   0  0  0  0  0  0  0  0  0  0  0  0
   59.4000   29.7170   47.2080 O   0  0  0  0  0  0  0  0  0  0  0  0
   59.2490   31.0190   47.1900 C   0  0  0  0  0  0  0  0  0  0  0  0
   59.9890   31.9660   47.8940 C   0  0  0  0  0  0  0  0  0  0  0  0
   62.7546   33.6112   49.1077 H   0  0  0  0  0  0  0  0  0  0  0  0
   62.0791   32.9322   47.5881 H   0  0  0  0  0  0  0  0  0  0  0  0
   62.8249   34.5664   47.5881 H   0  0  0  0  0  0  0  0  0  0  0  0
   58.4383   34.7635   46.6225 H   0  0  0  0  0  0  0  0  0  0  0  0
   57.1475   32.9950   45.3710 H   0  0  0  0  0  0  0  0  0  0  0  0
   55.4242   29.4099   42.6510 H   0  0  0  0  0  0  0  0  0  0  0  0
   55.8944   30.8210   41.6438 H   0  0  0  0  0  0  0  0  0  0  0  0
   56.9099   29.3394   41.6438 H   0  0  0  0  0  0  0  0  0  0  0  0
   58.4071   31.9618   44.1145 H   0  0  0  0  0  0  0  0  0  0  0  0
   58.8946   31.1696   42.5778 H   0  0  0  0  0  0  0  0  0  0  0  0
   57.5878   32.4021   42.5778 H   0  0  0  0  0  0  0  0  0  0  0  0
   56.2369   27.7264   45.9222 H   0  0  0  0  0  0  0  0  0  0  0  0
   56.0997   25.2623   45.5547 H   0  0  0  0  0  0  0  0  0  0  0  0
   58.1720   23.8732   45.5913 H   0  0  0  0  0  0  0  0  0  0  0  0
   60.3860   24.9445   46.0129 H   0  0  0  0  0  0  0  0  0  0  0  0
   60.5342   27.4061   46.3866 H   0  0  0  0  0  0  0  0  0  0  0  0
   60.7831   31.6616   48.5917 H   0  0  0  0  0  0  0  0  0  0  0  0
  1  2  1  0
  2  3  1  0
  3  4  2  0
  4  5  1  0
  5  6  2  0
  6  7  1  0
  7  8  1  0
  8  9  2  0
  8 10  1  0
 10 11  1  0
 10 12  1  0
  7 13  2  0
 13 14  1  0
 14 15  2  0
 15 16  1  0
 16 17  2  0
 17 18  1  0
 18 19  2  0
 13 20  1  0
 20 21  1  0
 21 22  2  0
 22  3  1  0
 21  6  1  0
 19 14  1  0
  1 23  1  0
  1 24  1  0
  1 25  1  0
  4 26  1  0
  5 27  1  0
 11 28  1  0
 11 29  1  0
 11 30  1  0
 12 31  1  0
 12 32  1  0
 12 33  1  0
 15 34  1  0
 16 35  1  0
 17 36  1  0
 18 37  1  0
 19 38  1  0
 22 39  1  0
M  END
>  <UniqueID>  (2) 
2

>  <SMILES>  (2) 
CSc1ccc2c(C(=O)N(C)C)c(-c3ccccc3)oc2c1

>  <Energy>  (2) 
77.27611708428645

>  <Genealogy>  (2) 
CSc1ccc2c(C(=O)N(C)C)c(-c3ccccc3)oc2c1 (3D coordinates assigned)
CSc1ccc2c(C(=O)N(C)C)c(-c3ccccc3)oc2c1 (optimized conformer: 77.27611708428645 kcal/mol)

>  <smiles>  (2) 
CSc1ccc2c(C(=O)N(C)C)c(-c3ccccc3)oc2c1

>  <score_type>  (2) 
oracle

>  <origin>  (2) 
adg

>  <m_score__min__energy>  (2) 
-7

>  <m_primary>  (2) 
energy

$$$$
2:0
     RDKit          3D

 29 31  0  0  0  0  0  0  0  0999 V2000
   56.5600   30.2470   43.7400 C   0  0  0  0  0  0  0  0  0  0  0  0
   56.7090   30.8460   45.0230 O   0  0  0  0  0  0  0  0  0  0  0  0
   57.9400   31.1970   45.5950 C   0  0  0  0  0  0  0  0  0  0  0  0
   58.2670   32.5250   45.9280 C   0  0  0  0  0  0  0  0  0  0  0  0
   59.5080   32.8250   46.4970 C   0  0  0  0  0  0  0  0  0  0  0  0
   60.4420   31.8070   46.7430 C   0  0  0  0  0  0  0  0  0  0  0  0
   61.7510   32.1300   47.3430 C   0  0  0  0  0  0  0  0  0  0  0  0
   62.9420   31.9030   46.7480 N   0  0  0  0  0  0  0  0  0  0  0  0
   63.8530   32.3280   47.6060 N   0  0  0  0  0  0  0  0  0  0  0  0
   63.2040   32.7970   48.6860 C   0  0  0  0  0  0  0  0  0  0  0  0
   63.8500   33.3630   49.8760 C   0  0  0  0  0  0  0  0  0  0  0  0
   63.2490   34.2140   50.7940 C   0  0  0  0  0  0  0  0  0  0  0  0
   64.1080   34.5970   51.8320 C   0  0  0  0  0  0  0  0  0  0  0  0
   65.3820   34.0520   51.7330 C   0  0  0  0  0  0  0  0  0  0  0  0
   65.4400   33.0920   50.3530 S   0  0  0  0  0  0  0  0  0  0  0  0
   61.9070   32.6780   48.5310 O   0  0  0  0  0  0  0  0  0  0  0  0
   60.1150   30.4830   46.4100 C   0  0  0  0  0  0  0  0  0  0  0  0
   58.8730   30.1830   45.8420 C   0  0  0  0  0  0  0  0  0  0  0  0
   56.2960   29.1858   43.8592 H   0  0  0  0  0  0  0  0  0  0  0  0
   55.7628   30.7630   43.1848 H   0  0  0  0  0  0  0  0  0  0  0  0
   57.5060   30.3294   43.1848 H   0  0  0  0  0  0  0  0  0  0  0  0
   57.5423   33.3308   45.7395 H   0  0  0  0  0  0  0  0  0  0  0  0
   59.7541   33.8660   46.7536 H   0  0  0  0  0  0  0  0  0  0  0  0
   64.8840   32.2930   47.4470 H   0  0  0  0  0  0  0  0  0  0  0  0
   62.2055   34.5526   50.7143 H   0  0  0  0  0  0  0  0  0  0  0  0
   63.8023   35.2668   52.6493 H   0  0  0  0  0  0  0  0  0  0  0  0
   66.2108   34.2195   52.4365 H   0  0  0  0  0  0  0  0  0  0  0  0
   60.8399   29.6770   46.5970 H   0  0  0  0  0  0  0  0  0  0  0  0
   58.6270   29.1416   45.5871 H   0  0  0  0  0  0  0  0  0  0  0  0
  1  2  1  0
  2  3  1  0
  3  4  2  0
  4  5  1  0
  5  6  2  0
  6  7  1  0
  7  8  2  0
  8  9  1  0
  9 10  2  0
 10 11  1  0
 11 12  2  0
 12 13  1  0
 13 14  2  0
 14 15  1  0
 10 16  1  0
  6 17  1  0
 17 18  2  0
 18  3  1  0
 16  7  1  0
 15 11  1  0
  1 19  1  0
  1 20  1  0
  1 21  1  0
  4 22  1  0
  5 23  1  0
  9 24  1  0
 12 25  1  0
 13 26  1  0
 14 27  1  0
 17 28  1  0
 18 29  1  0
M  CHG  1   9   1
M  END
>  <UniqueID>  (3) 
3

>  <SMILES>  (3) 
COc1ccc(-c2n[nH+]c(-c3cccs3)o2)cc1

>  <Energy>  (3) 
91.38813540654404

>  <Genealogy>  (3) 
COc1ccc(-c2n[nH+]c(-c3cccs3)o2)cc1 (protonated)
COc1ccc(-c2n[nH+]c(-c3cccs3)o2)cc1 (3D coordinates assigned)
COc1ccc(-c2n[nH+]c(-c3cccs3)o2)cc1 (optimized conformer: 91.38813540654404 kcal/mol)

>  <smiles>  (3) 
COc1ccc(-c2nnc(-c3cccs3)o2)cc1

>  <score_type>  (3) 
oracle

>  <origin>  (3) 
adg

>  <m_score__min__energy>  (3) 
-4.7199999999999998

>  <m_primary>  (3) 
energy

$$$$
3:0
     RDKit          3D

 51 54  0  0  0  0  0  0  0  0999 V2000
   57.9280   34.1630   44.8880 C   0  0  0  0  0  0  0  0  0  0  0  0
   59.3240   34.7360   45.1370 C   0  0  0  0  0  0  0  0  0  0  0  0
   59.6460   34.8180   46.5820 N   0  0  0  0  0  0  0  0  0  0  0  0
   60.9260   34.1680   46.9490 C   0  0  0  0  0  0  0  0  0  0  0  0
   60.8790   32.6510   46.7140 C   0  0  0  0  0  0  0  0  0  0  0  0
   59.5620   32.1040   47.0700 N   0  0  0  0  0  0  0  0  0  0  0  0
   59.1530   30.7910   46.6220 C   0  0  0  0  0  0  0  0  0  0  0  0
   58.0840   30.6240   45.7230 C   0  0  0  0  0  0  0  0  0  0  0  0
   57.7120   29.3400   45.3210 C   0  0  0  0  0  0  0  0  0  0  0  0
   58.3980   28.2180   45.8100 C   0  0  0  0  0  0  0  0  0  0  0  0
   58.0120   26.8460   45.3900 C   0  0  0  0  0  0  0  0  0  0  0  0
   57.9930   26.5000   44.0360 C   0  0  0  0  0  0  0  0  0  0  0  0
   57.6310   25.2140   43.6420 C   0  0  0  0  0  0  0  0  0  0  0  0
   57.2650   24.2290   44.5790 C   0  0  0  0  0  0  0  0  0  0  0  0
   57.2770   24.5720   45.9690 C   0  0  0  0  0  0  0  0  0  0  0  0
   57.6570   25.8800   46.3410 C   0  0  0  0  0  0  0  0  0  0  0  0
   56.9090   23.6570   47.0830 C   0  0  0  0  0  0  0  0  0  0  0  0
   56.1370   24.0740   47.9890 O   0  0  0  0  0  0  0  0  0  0  0  0
   57.3210   22.2910   47.1350 N   0  0  0  0  0  0  0  0  0  0  0  0
   57.7520   21.5350   45.9780 C   0  0  0  0  0  0  0  0  0  0  0  0
   56.6980   21.6740   44.8890 C   0  0  0  0  0  0  0  0  0  0  0  0
   56.9690   22.8630   43.9680 C   0  0  0  0  0  0  0  0  0  0  0  0
   59.4590   28.4260   46.7040 C   0  0  0  0  0  0  0  0  0  0  0  0
   59.8010   29.6850   47.0820 N   0  0  0  0  0  0  0  0  0  0  0  0
   58.7020   32.8970   47.9600 C   0  0  0  0  0  0  0  0  0  0  0  0
   58.5200   34.3340   47.4240 C   0  0  0  0  0  0  0  0  0  0  0  0
   57.4371   33.9615   45.8516 H   0  0  0  0  0  0  0  0  0  0  0  0
   57.3304   34.8886   44.3167 H   0  0  0  0  0  0  0  0  0  0  0  0
   58.0125   33.2268   44.3167 H   0  0  0  0  0  0  0  0  0  0  0  0
   60.0654   34.0893   44.6450 H   0  0  0  0  0  0  0  0  0  0  0  0
   59.3483   35.7565   44.7271 H   0  0  0  0  0  0  0  0  0  0  0  0
   61.7329   34.5988   46.3380 H   0  0  0  0  0  0  0  0  0  0  0  0
   61.1062   34.3443   48.0197 H   0  0  0  0  0  0  0  0  0  0  0  0
   61.0791   32.4450   45.6522 H   0  0  0  0  0  0  0  0  0  0  0  0
   61.6402   32.1740   47.3489 H   0  0  0  0  0  0  0  0  0  0  0  0
   57.5435   31.5015   45.3384 H   0  0  0  0  0  0  0  0  0  0  0  0
   56.8770   29.2072   44.6174 H   0  0  0  0  0  0  0  0  0  0  0  0
   58.2656   27.2479   43.2768 H   0  0  0  0  0  0  0  0  0  0  0  0
   57.6311   24.9615   42.5714 H   0  0  0  0  0  0  0  0  0  0  0  0
   57.6749   26.1483   47.4076 H   0  0  0  0  0  0  0  0  0  0  0  0
   58.7136   21.9275   45.6157 H   0  0  0  0  0  0  0  0  0  0  0  0
   57.8787   20.4758   46.2463 H   0  0  0  0  0  0  0  0  0  0  0  0
   56.6891   20.7542   44.2858 H   0  0  0  0  0  0  0  0  0  0  0  0
   55.7278   21.8423   45.3792 H   0  0  0  0  0  0  0  0  0  0  0  0
   57.8355   22.5955   43.3454 H   0  0  0  0  0  0  0  0  0  0  0  0
   56.0115   23.0126   43.4476 H   0  0  0  0  0  0  0  0  0  0  0  0
   60.0168   27.5650   47.1009 H   0  0  0  0  0  0  0  0  0  0  0  0
   57.7167   32.4132   48.0320 H   0  0  0  0  0  0  0  0  0  0  0  0
   59.1798   32.9516   48.9493 H   0  0  0  0  0  0  0  0  0  0  0  0
   57.6007   34.3632   46.8206 H   0  0  0  0  0  0  0  0  0  0  0  0
   58.4750   34.9953   48.3019 H   0  0  0  0  0  0  0  0  0  0  0  0
  1  2  1  0
  2  3  1  0
  3  4  1  0
  4  5  1  0
  5  6  1  0
  6  7  1  0
  7  8  2  0
  8  9  1  0
  9 10  2  0
 10 11  1  0
 11 12  2  0
 12 13  1  0
 13 14  2  0
 14 15  1  0
 15 16  2  0
 15 17  1  0
 17 18  2  0
 17 19  1  0
 19 20  1  0
 20 21  1  0
 21 22  1  0
 10 23  1  0
 23 24  2  0
  6 25  1  0
 25 26  1  0
 26  3  1  0
 24  7  1  0
 16 11  1  0
 22 14  1  0
  1 27  1  0
  1 28  1  0
  1 29  1  0
  2 30  1  0
  2 31  1  0
  4 32  1  0
  4 33  1  0
  5 34  1  0
  5 35  1  0
  8 36  1  0
  9 37  1  0
 12 38  1  0
 13 39  1  0
 16 40  1  0
 20 41  1  0
 20 42  1  0
 21 43  1  0
 21 44  1  0
 22 45  1  0
 22 46  1  0
 23 47  1  0
 25 48  1  0
 25 49  1  0
 26 50  1  0
 26 51  1  0
M  CHG  1  19  -1
M  END
>  <UniqueID>  (4) 
4

>  <SMILES>  (4) 
CCN1CCN(c2ccc(-c3ccc4c(c3)C(=O)[N-]CCC4)cn2)CC1

>  <Energy>  (4) 
83.4662390935159

>  <Genealogy>  (4) 
CCN1CCN(c2ccc(-c3ccc4c(c3)C(=O)[N-]CCC4)cn2)CC1 (protonated)
CCN1CCN(c2ccc(-c3ccc4c(c3)C(=O)[N-]CCC4)cn2)CC1 (3D coordinates assigned)
CCN1CCN(c2ccc(-c3ccc4c(c3)C(=O)[N-]CCC4)cn2)CC1 (nonaromatic ring conformer: 83.4662390935159 kcal/mol)

>  <smiles>  (4) 
CCN1CCN(c2ccc(-c3ccc4c(c3)C(=O)NCCC4)cn2)CC1

>  <score_type>  (4) 
oracle

>  <origin>  (4) 
adg

>  <m_score__min__energy>  (4) 
-8.6500000000000004

>  <m_primary>  (4) 
energy

$$$$
4:0
     RDKit          3D

 62 66  0  0  0  0  0  0  0  0999 V2000
   59.6370   35.3100   46.2400 C   0  0  0  0  0  0  0  0  0  0  0  0
   59.7250   34.0740   46.9440 O   0  0  0  0  0  0  0  0  0  0  0  0
   60.8790   33.2780   47.0280 C   0  0  0  0  0  0  0  0  0  0  0  0
   62.1640   33.8480   46.9170 C   0  0  0  0  0  0  0  0  0  0  0  0
   63.3030   33.0480   46.9700 C   0  0  0  0  0  0  0  0  0  0  0  0
   63.1820   31.6700   47.1240 C   0  0  0  0  0  0  0  0  0  0  0  0
   61.9210   31.0900   47.2490 C   0  0  0  0  0  0  0  0  0  0  0  0
   60.7510   31.8750   47.2180 C   0  0  0  0  0  0  0  0  0  0  0  0
   59.4010   31.1740   47.4130 C   0  0  2  0  0  0  0  0  0  0  0  0
   58.2940   31.6680   46.4890 C   0  0  0  0  0  0  0  0  0  0  0  0
   57.6250   32.8280   46.6570 N   0  0  0  0  0  0  0  0  0  0  0  0
   56.8720   32.9950   45.5830 N   0  0  0  0  0  0  0  0  0  0  0  0
   57.0840   31.9920   44.7470 N   0  0  0  0  0  0  0  0  0  0  0  0
   57.9650   31.1580   45.2770 N   0  0  0  0  0  0  0  0  0  0  0  0
   58.5990   30.0890   44.5020 C   0  0  0  0  0  0  0  0  0  0  0  0
   58.8390   28.8900   45.3790 C   0  0  0  0  0  0  0  0  0  0  0  0
   57.7570   28.2460   46.0030 C   0  0  0  0  0  0  0  0  0  0  0  0
   57.9710   27.1090   46.7900 C   0  0  0  0  0  0  0  0  0  0  0  0
   59.2630   26.6030   46.9510 C   0  0  0  0  0  0  0  0  0  0  0  0
   60.3430   27.2320   46.3260 C   0  0  0  0  0  0  0  0  0  0  0  0
   60.1330   28.3690   45.5410 C   0  0  0  0  0  0  0  0  0  0  0  0
   58.9850   31.1430   48.8390 N   0  0  0  0  0  0  0  0  0  0  0  0
   58.5730   32.4090   49.4910 C   0  0  0  0  0  0  0  0  0  0  0  0
   59.7220   33.1020   50.2540 C   0  0  0  0  0  0  0  0  0  0  0  0
   60.7270   32.1330   50.6980 N   0  0  0  0  0  0  0  0  0  0  0  0
   62.1240   32.4960   50.7620 C   0  0  0  0  0  0  0  0  0  0  0  0
   63.1300   31.5170   50.6550 C   0  0  0  0  0  0  0  0  0  0  0  0
   64.4790   31.8810   50.6740 C   0  0  0  0  0  0  0  0  0  0  0  0
   64.8410   33.2230   50.8020 C   0  0  0  0  0  0  0  0  0  0  0  0
   66.1500   33.5750   50.8150 F   0  0  0  0  0  0  0  0  0  0  0  0
   63.8530   34.2050   50.9110 C   0  0  0  0  0  0  0  0  0  0  0  0
   62.5020   33.8450   50.8920 C   0  0  0  0  0  0  0  0  0  0  0  0
   60.2630   30.7760   50.9810 C   0  0  0  0  0  0  0  0  0  0  0  0
   59.7010   30.1610   49.6950 C   0  0  0  0  0  0  0  0  0  0  0  0
   59.5780   36.1390   46.9606 H   0  0  0  0  0  0  0  0  0  0  0  0
   60.5284   35.4363   45.6080 H   0  0  0  0  0  0  0  0  0  0  0  0
   58.7367   35.3087   45.6080 H   0  0  0  0  0  0  0  0  0  0  0  0
   62.2679   34.9354   46.7872 H   0  0  0  0  0  0  0  0  0  0  0  0
   64.2999   33.5061   46.8900 H   0  0  0  0  0  0  0  0  0  0  0  0
   64.0823   31.0383   47.1471 H   0  0  0  0  0  0  0  0  0  0  0  0
   61.8374   30.0003   47.3741 H   0  0  0  0  0  0  0  0  0  0  0  0
   59.5735   30.1328   47.1029 H   0  0  0  0  0  0  0  0  0  0  0  0
   57.6990   33.5170   47.4370 H   0  0  0  0  0  0  0  0  0  0  0  0
   57.9408   29.8043   43.6679 H   0  0  0  0  0  0  0  0  0  0  0  0
   59.5622   30.4490   44.1112 H   0  0  0  0  0  0  0  0  0  0  0  0
   56.7374   28.6374   45.8722 H   0  0  0  0  0  0  0  0  0  0  0  0
   57.1213   26.6133   47.2822 H   0  0  0  0  0  0  0  0  0  0  0  0
   59.4303   25.7092   47.5699 H   0  0  0  0  0  0  0  0  0  0  0  0
   61.3598   26.8317   46.4520 H   0  0  0  0  0  0  0  0  0  0  0  0
   60.9856   28.8583   45.0475 H   0  0  0  0  0  0  0  0  0  0  0  0
   58.2028   33.0968   48.7165 H   0  0  0  0  0  0  0  0  0  0  0  0
   57.7953   32.1592   50.2277 H   0  0  0  0  0  0  0  0  0  0  0  0
   60.2013   33.8365   49.5900 H   0  0  0  0  0  0  0  0  0  0  0  0
   59.3006   33.5964   51.1417 H   0  0  0  0  0  0  0  0  0  0  0  0
   62.8520   30.4574   50.5557 H   0  0  0  0  0  0  0  0  0  0  0  0
   65.2572   31.1084   50.5879 H   0  0  0  0  0  0  0  0  0  0  0  0
   64.1383   35.2625   51.0119 H   0  0  0  0  0  0  0  0  0  0  0  0
   61.7287   34.6225   50.9794 H   0  0  0  0  0  0  0  0  0  0  0  0
   61.1042   30.1670   51.3437 H   0  0  0  0  0  0  0  0  0  0  0  0
   59.4788   30.8052   51.7518 H   0  0  0  0  0  0  0  0  0  0  0  0
   60.5352   29.7367   49.1171 H   0  0  0  0  0  0  0  0  0  0  0  0
   58.9709   29.3938   49.9922 H   0  0  0  0  0  0  0  0  0  0  0  0
  1  2  1  0
  2  3  1  0
  3  4  2  0
  4  5  1  0
  5  6  2  0
  6  7  1  0
  7  8  2  0
  8  9  1  0
  9 10  1  0
 10 11  2  0
 11 12  1  0
 12 13  2  0
 13 14  1  0
 14 15  1  0
 15 16  1  0
 16 17  2  0
 17 18  1  0
 18 19  2  0
 19 20  1  0
 20 21  2  0
  9 22  1  0
 22 23  1  0
 23 24  1  0
 24 25  1  0
 25 26  1  0
 26 27  2  0
 27 28  1  0
 28 29  2  0
 29 30  1  0
 29 31  1  0
 31 32  2  0
 25 33  1  0
 33 34  1  0
  8  3  1  0
 14 10  1  0
 21 16  1  0
 34 22  1  0
 32 26  1  0
  1 35  1  0
  1 36  1  0
  1 37  1  0
  4 38  1  0
  5 39  1  0
  6 40  1  0
  7 41  1  0
  9 42  1  6
 11 43  1  0
 15 44  1  0
 15 45  1  0
 17 46  1  0
 18 47  1  0
 19 48  1  0
 20 49  1  0
 21 50  1  0
 23 51  1  0
 23 52  1  0
 24 53  1  0
 24 54  1  0
 27 55  1  0
 28 56  1  0
 31 57  1  0
 32 58  1  0
 33 59  1  0
 33 60  1  0
 34 61  1  0
 34 62  1  0
M  CHG  1  11   1
M  END
>  <UniqueID>  (5) 
5

>  <SMILES>  (5) 
COc1ccccc1[C@H](c1[nH+]nnn1Cc1ccccc1)N1CCN(c2ccc(F)cc2)CC1

>  <Energy>  (5) 
128.10240173094607

>  <Genealogy>  (5) 
COc1ccccc1C(c1[nH+]nnn1Cc1ccccc1)N1CCN(c2ccc(F)cc2)CC1 (protonated)
COc1ccccc1[C@H](c1[nH+]nnn1Cc1ccccc1)N1CCN(c2ccc(F)cc2)CC1 (chirality)
COc1ccccc1[C@H](c1[nH+]nnn1Cc1ccccc1)N1CCN(c2ccc(F)cc2)CC1 (3D coordinates assigned)
COc1ccccc1[C@H](c1[nH+]nnn1Cc1ccccc1)N1CCN(c2ccc(F)cc2)CC1 (nonaromatic ring conformer: 128.10240173094607 kcal/mol)

>  <smiles>  (5) 
COc1ccccc1C(c1nnnn1Cc1ccccc1)N1CCN(c2ccc(F)cc2)CC1

>  <score_type>  (5) 
oracle

>  <origin>  (5) 
adg

>  <m_score__min__energy>  (5) 
-7.6100000000000003

>  <m_primary>  (5) 
energy

$$$$
5:0
     RDKit          3D

 32 34  0  0  0  0  0  0  0  0999 V2000
   57.1018   27.9457   43.3864 H   0  0  0  0  0  0  0  0  0  0  0  0
   57.5050   28.0220   44.4070 C   0  0  0  0  0  0  0  0  0  0  0  0
   58.0650   29.1960   44.7690 C   0  0  0  0  0  0  0  0  0  0  0  0
   57.2330   30.4260   44.8330 C   0  0  0  0  0  0  0  0  0  0  0  0
   56.0190   30.4000   44.4930 O   0  0  0  0  0  0  0  0  0  0  0  0
   57.8410   31.6930   45.3060 C   0  0  0  0  0  0  0  0  0  0  0  0
   57.1490   32.9100   45.1890 C   0  0  0  0  0  0  0  0  0  0  0  0
   56.1427   32.9270   44.7450 H   0  0  0  0  0  0  0  0  0  0  0  0
   57.7330   34.0990   45.6340 C   0  0  0  0  0  0  0  0  0  0  0  0
   57.1903   35.0494   45.5234 H   0  0  0  0  0  0  0  0  0  0  0  0
   59.0050   34.0880   46.2200 C   0  0  0  0  0  0  0  0  0  0  0  0
   59.6410   35.3700   46.6710 C   0  0  0  0  0  0  0  0  0  0  0  0
   59.6579   35.4040   47.7703 H   0  0  0  0  0  0  0  0  0  0  0  0
   60.6703   35.4238   46.2866 H   0  0  0  0  0  0  0  0  0  0  0  0
   59.0611   36.2221   46.2866 H   0  0  0  0  0  0  0  0  0  0  0  0
   59.7060   32.8780   46.3260 C   0  0  0  0  0  0  0  0  0  0  0  0
   60.7109   32.8673   46.7733 H   0  0  0  0  0  0  0  0  0  0  0  0
   59.1360   31.6800   45.8660 C   0  0  0  0  0  0  0  0  0  0  0  0
   59.8670   30.3750   46.0650 C   0  0  0  0  0  0  0  0  0  0  0  0
   60.9492   30.5715   46.0807 H   0  0  0  0  0  0  0  0  0  0  0  0
   59.5319   29.9361   47.0164 H   0  0  0  0  0  0  0  0  0  0  0  0
   59.5600   29.3760   44.9440 C   0  0  0  0  0  0  0  0  0  0  0  0
   59.9898   29.7489   44.0026 H   0  0  0  0  0  0  0  0  0  0  0  0
   60.0004   28.4041   45.2113 H   0  0  0  0  0  0  0  0  0  0  0  0
   57.3920   26.8360   45.2720 C   0  0  0  0  0  0  0  0  0  0  0  0
   55.9680   26.3320   46.0060 S   0  0  0  0  0  0  0  0  0  0  0  0
   56.6560   25.1080   46.9310 C   0  0  0  0  0  0  0  0  0  0  0  0
   56.1148   24.4275   47.6048 H   0  0  0  0  0  0  0  0  0  0  0  0
   58.0250   25.1040   46.6980 C   0  0  0  0  0  0  0  0  0  0  0  0
   58.7164   24.4005   47.1848 H   0  0  0  0  0  0  0  0  0  0  0  0
   58.4420   26.0800   45.7850 C   0  0  0  0  0  0  0  0  0  0  0  0
   59.4937   26.2339   45.5016 H   0  0  0  0  0  0  0  0  0  0  0  0
  1  2  1  0
  2  3  2  0
  3  4  1  0
  4  5  2  0
  4  6  1  0
  6  7  2  0
  7  8  1  0
  7  9  1  0
  9 10  1  0
  9 11  2  0
 11 12  1  0
 12 13  1  0
 12 14  1  0
 12 15  1  0
 11 16  1  0
 16 17  1  0
 16 18  2  0
 18 19  1  0
 19 20  1  0
 19 21  1  0
 19 22  1  0
 22 23  1  0
 22 24  1  0
  2 25  1  0
 25 26  1  0
 26 27  1  0
 27 28  1  0
 27 29  2  0
 29 30  1  0
 29 31  1  0
 31 32  1  0
 22  3  1  0
 31 25  2  0
 18  6  1  0
M  END
>  <UniqueID>  (6) 
6

>  <SMILES>  (6) 
Cc1ccc2c(c1)CC/C(=C\c1cccs1)C2=O

>  <Energy>  (6) 
68.89647892151773

>  <Genealogy>  (6) 
Cc1ccc2c(c1)CC/C(=C\c1cccs1)C2=O (cis-trans isomerization)
Cc1ccc2c(c1)CC/C(=C\c1cccs1)C2=O (3D coordinates assigned)
Cc1ccc2c(c1)CC/C(=C\c1cccs1)C2=O (nonaromatic ring conformer: 68.89647892151773 kcal/mol)

>  <smiles>  (6) 
Cc1ccc2c(c1)CCC(=Cc1cccs1)C2=O

>  <score_type>  (6) 
oracle

>  <origin>  (6) 
adg

>  <m_score__min__energy>  (6) 
-7.6299999999999999

>  <m_primary>  (6) 
energy

$$$$
6:0
     RDKit          3D

 45 46  0  0  0  0  0  0  0  0999 V2000
   60.6160   29.7410   46.1040 C   0  0  0  0  0  0  0  0  0  0  0  0
   60.9740   28.7320   45.0160 C   0  0  0  0  0  0  0  0  0  0  0  0
   59.7660   28.2310   44.1850 C   0  0  0  0  0  0  0  0  0  0  0  0
   58.4820   28.0530   44.9220 N   0  0  0  0  0  0  0  0  0  0  0  0
   58.2820   26.6490   45.3930 C   0  0  0  0  0  0  0  0  0  0  0  0
   58.0690   26.5480   46.9170 C   0  0  0  0  0  0  0  0  0  0  0  0
   59.2770   27.0460   47.7130 C   0  0  0  0  0  0  0  0  0  0  0  0
   57.3200   28.5680   44.1510 C   0  0  0  0  0  0  0  0  0  0  0  0
   56.7030   29.7880   44.7950 C   0  0  0  0  0  0  0  0  0  0  0  0
   55.5190   30.0980   44.5050 O   0  0  0  0  0  0  0  0  0  0  0  0
   57.3940   30.5580   45.7880 N   0  0  0  0  0  0  0  0  0  0  0  0
   57.9350   31.8720   45.5910 C   0  0  0  0  0  0  0  0  0  0  0  0
   57.8760   32.4720   44.3240 C   0  0  0  0  0  0  0  0  0  0  0  0
   58.4040   33.7480   44.1180 C   0  0  0  0  0  0  0  0  0  0  0  0
   58.9860   34.4470   45.1760 C   0  0  0  0  0  0  0  0  0  0  0  0
   59.0360   33.8780   46.4560 C   0  0  0  0  0  0  0  0  0  0  0  0
   59.6180   34.5800   47.5220 C   0  0  0  0  0  0  0  0  0  0  0  0
   59.6710   34.0090   48.7960 C   0  0  0  0  0  0  0  0  0  0  0  0
   59.1400   32.7370   49.0170 C   0  0  0  0  0  0  0  0  0  0  0  0
   58.5540   32.0270   47.9670 C   0  0  0  0  0  0  0  0  0  0  0  0
   58.4960   32.5830   46.6740 C   0  0  0  0  0  0  0  0  0  0  0  0
   60.7772   29.2867   47.0928 H   0  0  0  0  0  0  0  0  0  0  0  0
   61.2529   30.6320   46.0016 H   0  0  0  0  0  0  0  0  0  0  0  0
   59.5600   30.0314   46.0016 H   0  0  0  0  0  0  0  0  0  0  0  0
   61.6909   29.2062   44.3295 H   0  0  0  0  0  0  0  0  0  0  0  0
   61.3891   27.8517   45.5286 H   0  0  0  0  0  0  0  0  0  0  0  0
   59.5906   28.9576   43.3780 H   0  0  0  0  0  0  0  0  0  0  0  0
   60.0463   27.2250   43.8395 H   0  0  0  0  0  0  0  0  0  0  0  0
   58.5850   28.6710   45.7580 H   0  0  0  0  0  0  0  0  0  0  0  0
   57.3983   26.2324   44.8874 H   0  0  0  0  0  0  0  0  0  0  0  0
   59.1968   26.0879   45.1512 H   0  0  0  0  0  0  0  0  0  0  0  0
   57.1923   27.1531   47.1913 H   0  0  0  0  0  0  0  0  0  0  0  0
   57.9216   25.4862   47.1637 H   0  0  0  0  0  0  0  0  0  0  0  0
   59.0677   26.9597   48.7894 H   0  0  0  0  0  0  0  0  0  0  0  0
   60.1582   26.4378   47.4609 H   0  0  0  0  0  0  0  0  0  0  0  0
   59.4736   28.0985   47.4609 H   0  0  0  0  0  0  0  0  0  0  0  0
   57.6568   28.8342   43.1382 H   0  0  0  0  0  0  0  0  0  0  0  0
   56.5556   27.7774   44.1239 H   0  0  0  0  0  0  0  0  0  0  0  0
   57.4100   31.9327   43.4862 H   0  0  0  0  0  0  0  0  0  0  0  0
   58.3610   34.2039   43.1179 H   0  0  0  0  0  0  0  0  0  0  0  0
   59.4073   35.4486   45.0049 H   0  0  0  0  0  0  0  0  0  0  0  0
   60.0344   35.5842   47.3541 H   0  0  0  0  0  0  0  0  0  0  0  0
   60.1322   34.5630   49.6269 H   0  0  0  0  0  0  0  0  0  0  0  0
   59.1834   32.2923   50.0221 H   0  0  0  0  0  0  0  0  0  0  0  0
   58.1348   31.0267   48.1508 H   0  0  0  0  0  0  0  0  0  0  0  0
  1  2  1  0
  2  3  1  0
  3  4  1  0
  4  5  1  0
  5  6  1  0
  6  7  1  0
  4  8  1  0
  8  9  1  0
  9 10  2  0
  9 11  1  0
 11 12  1  0
 12 13  2  0
 13 14  1  0
 14 15  2  0
 15 16  1  0
 16 17  2  0
 17 18  1  0
 18 19  2  0
 19 20  1  0
 20 21  2  0
 21 12  1  0
 21 16  1  0
  1 22  1  0
  1 23  1  0
  1 24  1  0
  2 25  1  0
  2 26  1  0
  3 27  1  0
  3 28  1  0
  4 29  1  0
  5 30  1  0
  5 31  1  0
  6 32  1  0
  6 33  1  0
  7 34  1  0
  7 35  1  0
  7 36  1  0
  8 37  1  0
  8 38  1  0
 13 39  1  0
 14 40  1  0
 15 41  1  0
 17 42  1  0
 18 43  1  0
 19 44  1  0
 20 45  1  0
M  CHG  2   4   1  11  -1
M  END
>  <UniqueID>  (7) 
7

>  <SMILES>  (7) 
CCC[NH+](CCC)CC(=O)[N-]c1cccc2ccccc12

>  <Energy>  (7) 
55.474848271199726

>  <Genealogy>  (7) 
CCC[NH+](CCC)CC(=O)[N-]c1cccc2ccccc12 (protonated)
CCC[NH+](CCC)CC(=O)[N-]c1cccc2ccccc12 (3D coordinates assigned)
CCC[NH+](CCC)CC(=O)[N-]c1cccc2ccccc12 (optimized conformer: 55.474848271199726 kcal/mol)

>  <smiles>  (7) 
CCCN(CCC)CC(=O)Nc1cccc2ccccc12

>  <score_type>  (7) 
oracle

>  <origin>  (7) 
adg

>  <m_score__min__energy>  (7) 
-7.2800000000000002

>  <m_primary>  (7) 
energy

$$$$
7:0
     RDKit          3D

 44 45  0  0  0  0  0  0  0  0999 V2000
   56.9640   21.0180   43.0180 C   0  0  0  0  0  0  0  0  0  0  0  0
   55.9520   21.9510   43.3840 O   0  0  0  0  0  0  0  0  0  0  0  0
   56.1970   23.1710   44.0310 C   0  0  0  0  0  0  0  0  0  0  0  0
   57.1130   24.0580   43.4530 C   0  0  0  0  0  0  0  0  0  0  0  0
   57.3920   25.2870   44.0590 C   0  0  0  0  0  0  0  0  0  0  0  0
   56.7640   25.6410   45.2620 C   0  0  0  0  0  0  0  0  0  0  0  0
   57.0340   26.9750   45.8940 C   0  0  0  0  0  0  0  0  0  0  0  0
   55.9320   27.8810   45.5990 N   0  0  0  0  0  0  0  0  0  0  0  0
   56.0660   29.1110   44.8790 C   0  0  0  0  0  0  0  0  0  0  0  0
   55.1980   29.4070   44.0160 O   0  0  0  0  0  0  0  0  0  0  0  0
   57.2530   30.0160   45.0760 C   0  0  0  0  0  0  0  0  0  0  0  0
   56.9110   31.3750   44.8120 O   0  0  0  0  0  0  0  0  0  0  0  0
   57.3090   32.4400   45.6320 C   0  0  0  0  0  0  0  0  0  0  0  0
   56.4640   33.3010   46.0020 O   0  0  0  0  0  0  0  0  0  0  0  0
   58.7190   32.5490   46.0650 C   0  0  0  0  0  0  0  0  0  0  0  0
   59.3640   31.4670   46.6920 C   0  0  0  0  0  0  0  0  0  0  0  0
   60.6970   31.5760   47.0980 C   0  0  0  0  0  0  0  0  0  0  0  0
   61.4070   32.7630   46.8800 C   0  0  0  0  0  0  0  0  0  0  0  0
   63.0820   32.9050   47.4060 S   0  0  0  0  0  0  0  0  0  0  0  0
   63.7990   31.6040   47.1760 O   0  0  0  0  0  0  0  0  0  0  0  0
   63.7710   33.9810   46.6150 O   0  0  0  0  0  0  0  0  0  0  0  0
   63.1280   33.3160   49.1370 C   0  0  0  0  0  0  0  0  0  0  0  0
   62.6120   34.5830   49.3270 F   0  0  0  0  0  0  0  0  0  0  0  0
   62.3750   32.4020   49.8510 F   0  0  0  0  0  0  0  0  0  0  0  0
   60.7690   33.8460   46.2640 C   0  0  0  0  0  0  0  0  0  0  0  0
   59.4360   33.7400   45.8560 C   0  0  0  0  0  0  0  0  0  0  0  0
   55.8340   24.7620   45.8370 C   0  0  0  0  0  0  0  0  0  0  0  0
   55.5550   23.5330   45.2310 C   0  0  0  0  0  0  0  0  0  0  0  0
   57.4205   20.5972   43.9260 H   0  0  0  0  0  0  0  0  0  0  0  0
   56.5178   20.2078   42.4226 H   0  0  0  0  0  0  0  0  0  0  0  0
   57.7353   21.5285   42.4226 H   0  0  0  0  0  0  0  0  0  0  0  0
   57.6176   23.7859   42.5142 H   0  0  0  0  0  0  0  0  0  0  0  0
   58.1070   25.9790   43.5902 H   0  0  0  0  0  0  0  0  0  0  0  0
   57.1276   26.8531   46.9832 H   0  0  0  0  0  0  0  0  0  0  0  0
   57.9696   27.3903   45.4912 H   0  0  0  0  0  0  0  0  0  0  0  0
   57.6028   29.9288   46.1152 H   0  0  0  0  0  0  0  0  0  0  0  0
   58.0445   29.7121   44.3752 H   0  0  0  0  0  0  0  0  0  0  0  0
   58.8155   30.5291   46.8638 H   0  0  0  0  0  0  0  0  0  0  0  0
   61.1905   30.7255   47.5910 H   0  0  0  0  0  0  0  0  0  0  0  0
   64.1699   33.2879   49.4888 H   0  0  0  0  0  0  0  0  0  0  0  0
   61.3188   34.7845   46.1002 H   0  0  0  0  0  0  0  0  0  0  0  0
   58.9447   34.5947   45.3679 H   0  0  0  0  0  0  0  0  0  0  0  0
   55.3215   25.0410   46.7695 H   0  0  0  0  0  0  0  0  0  0  0  0
   54.8310   22.8461   45.6936 H   0  0  0  0  0  0  0  0  0  0  0  0
  1  2  1  0
  2  3  1  0
  3  4  2  0
  4  5  1  0
  5  6  2  0
  6  7  1  0
  7  8  1  0
  8  9  1  0
  9 10  2  0
  9 11  1  0
 11 12  1  0
 12 13  1  0
 13 14  2  0
 13 15  1  0
 15 16  2  0
 16 17  1  0
 17 18  2  0
 18 19  1  0
 19 20  2  0
 19 21  2  0
 19 22  1  0
 22 23  1  0
 22 24  1  0
 18 25  1  0
 25 26  2  0
  6 27  1  0
 27 28  2  0
 28  3  1  0
 26 15  1  0
  1 29  1  0
  1 30  1  0
  1 31  1  0
  4 32  1  0
  5 33  1  0
  7 34  1  0
  7 35  1  0
 11 36  1  0
 11 37  1  0
 16 38  1  0
 17 39  1  0
 22 40  1  0
 25 41  1  0
 26 42  1  0
 27 43  1  0
 28 44  1  0
M  CHG  1   8  -1
M  END
>  <UniqueID>  (8) 
8

>  <SMILES>  (8) 
COc1ccc(C[N-]C(=O)COC(=O)c2ccc(S(=O)(=O)C(F)F)cc2)cc1

>  <Energy>  (8) 
37.26066184764638

>  <Genealogy>  (8) 
COc1ccc(C[N-]C(=O)COC(=O)c2ccc(S(=O)(=O)C(F)F)cc2)cc1 (protonated)
COc1ccc(C[N-]C(=O)COC(=O)c2ccc(S(=O)(=O)C(F)F)cc2)cc1 (3D coordinates assigned)
COc1ccc(C[N-]C(=O)COC(=O)c2ccc(S(=O)(=O)C(F)F)cc2)cc1 (optimized conformer: 37.26066184764638 kcal/mol)

>  <smiles>  (8) 
COc1ccc(CNC(=O)COC(=O)c2ccc(S(=O)(=O)C(F)F)cc2)cc1

>  <score_type>  (8) 
oracle

>  <origin>  (8) 
adg

>  <m_score__min__energy>  (8) 
-9.8800000000000008

>  <m_primary>  (8) 
energy

$$$$
8:0
     RDKit          3D

 19 20  0  0  0  0  0  0  0  0999 V2000
   58.9410   34.1970   47.9020 F   0  0  0  0  0  0  0  0  0  0  0  0
   58.6650   33.6850   46.6760 C   0  0  0  0  0  0  0  0  0  0  0  0
   58.8470   34.4350   45.5280 C   0  0  0  0  0  0  0  0  0  0  0  0
   58.5640   33.9090   44.2710 C   0  0  0  0  0  0  0  0  0  0  0  0
   58.0870   32.6060   44.1360 C   0  0  0  0  0  0  0  0  0  0  0  0
   57.7270   31.9290   42.5750 Cl  0  0  0  0  0  0  0  0  0  0  0  0
   57.9030   31.8490   45.2920 C   0  0  0  0  0  0  0  0  0  0  0  0
   57.4040   30.4840   45.1490 C   0  0  0  0  0  0  0  0  0  0  0  0
   58.1880   29.3480   45.0480 C   0  0  0  0  0  0  0  0  0  0  0  0
   57.2800   28.2900   44.9310 C   0  0  0  0  0  0  0  0  0  0  0  0
   56.0370   28.7860   44.9610 N   0  0  0  0  0  0  0  0  0  0  0  0
   56.1200   30.0840   45.0910 N   0  0  0  0  0  0  0  0  0  0  0  0
   58.1900   32.3840   46.5490 C   0  0  0  0  0  0  0  0  0  0  0  0
   59.2222   35.4658   45.6101 H   0  0  0  0  0  0  0  0  0  0  0  0
   58.7183   34.5278   43.3747 H   0  0  0  0  0  0  0  0  0  0  0  0
   59.2864   29.2896   45.0576 H   0  0  0  0  0  0  0  0  0  0  0  0
   57.5438   27.2268   44.8309 H   0  0  0  0  0  0  0  0  0  0  0  0
   55.1550   28.2160   44.8910 H   0  0  0  0  0  0  0  0  0  0  0  0
   58.0388   31.7699   47.4490 H   0  0  0  0  0  0  0  0  0  0  0  0
  1  2  1  0
  2  3  2  0
  3  4  1  0
  4  5  2  0
  5  6  1  0
  5  7  1  0
  7  8  1  0
  8  9  1  0
  9 10  2  0
 10 11  1  0
 11 12  1  0
  7 13  2  0
 13  2  1  0
 12  8  2  0
  3 14  1  0
  4 15  1  0
  9 16  1  0
 10 17  1  0
 11 18  1  0
 13 19  1  0
M  END
>  <smiles>  (9) 
Fc1ccc(Cl)c(-c2cc[nH]n2)c1

>  <score_type>  (9) 
oracle

>  <origin>  (9) 
adg

>  <m_score__min__energy>  (9) 
-6.4900000000000002

>  <m_primary>  (9) 
energy

$$$$
9:0
     RDKit          3D

 42 44  0  0  0  0  0  0  0  0999 V2000
   57.4200   30.7060   43.8320 C   0  0  0  0  0  0  0  0  0  0  0  0
   57.3740   30.8510   45.2480 O   0  0  0  0  0  0  0  0  0  0  0  0
   58.2160   30.1960   46.1600 C   0  0  0  0  0  0  0  0  0  0  0  0
   58.1750   28.7890   46.2680 C   0  0  0  0  0  0  0  0  0  0  0  0
   59.1060   28.1040   47.0400 C   0  0  0  0  0  0  0  0  0  0  0  0
   60.1170   28.8030   47.6840 C   0  0  0  0  0  0  0  0  0  0  0  0
   60.1600   30.1940   47.6140 C   0  0  0  0  0  0  0  0  0  0  0  0
   59.1550   30.9410   46.9450 C   0  0  0  0  0  0  0  0  0  0  0  0
   59.2540   32.5010   46.9290 C   0  0  0  0  0  0  0  0  0  0  0  0
   60.3200   32.9270   47.9860 C   0  0  0  0  0  0  0  0  0  0  0  0
   61.6630   33.0660   47.4180 N   0  0  0  0  0  0  0  0  0  0  0  0
   62.6720   32.1810   47.5050 C   0  0  0  0  0  0  0  0  0  0  0  0
   63.7570   32.6460   46.8640 N   0  0  0  0  0  0  0  0  0  0  0  0
   63.3640   33.8470   46.3960 C   0  0  0  0  0  0  0  0  0  0  0  0
   62.0870   34.1160   46.7330 N   0  0  0  0  0  0  0  0  0  0  0  0
   59.6520   33.0710   45.5140 C   0  0  0  0  0  0  0  0  0  0  0  0
   59.1470   34.4980   45.2600 C   0  0  0  0  0  0  0  0  0  0  0  0
   57.6090   34.5410   45.2370 C   0  0  0  0  0  0  0  0  0  0  0  0
   56.9730   33.4740   46.1460 C   0  0  0  0  0  0  0  0  0  0  0  0
   57.8770   33.1660   47.3450 C   0  0  0  0  0  0  0  0  0  0  0  0
   57.7436   29.6858   43.5782 H   0  0  0  0  0  0  0  0  0  0  0  0
   56.4198   30.8885   43.4120 H   0  0  0  0  0  0  0  0  0  0  0  0
   58.1320   31.4317   43.4120 H   0  0  0  0  0  0  0  0  0  0  0  0
   57.3951   28.2267   45.7336 H   0  0  0  0  0  0  0  0  0  0  0  0
   59.0415   27.0105   47.1402 H   0  0  0  0  0  0  0  0  0  0  0  0
   60.8861   28.2579   48.2509 H   0  0  0  0  0  0  0  0  0  0  0  0
   60.9956   30.7280   48.0902 H   0  0  0  0  0  0  0  0  0  0  0  0
   60.0197   33.8933   48.4173 H   0  0  0  0  0  0  0  0  0  0  0  0
   60.3644   32.1345   48.7475 H   0  0  0  0  0  0  0  0  0  0  0  0
   62.6166   31.2142   48.0267 H   0  0  0  0  0  0  0  0  0  0  0  0
   64.6870   32.1850   46.7540 H   0  0  0  0  0  0  0  0  0  0  0  0
   64.0053   34.5234   45.8119 H   0  0  0  0  0  0  0  0  0  0  0  0
   60.7492   33.0717   45.4359 H   0  0  0  0  0  0  0  0  0  0  0  0
   59.1784   32.4234   44.7615 H   0  0  0  0  0  0  0  0  0  0  0  0
   59.5137   35.1575   46.0604 H   0  0  0  0  0  0  0  0  0  0  0  0
   59.5224   34.8345   44.2823 H   0  0  0  0  0  0  0  0  0  0  0  0
   57.2793   35.5342   45.5758 H   0  0  0  0  0  0  0  0  0  0  0  0
   57.2855   34.3358   44.2059 H   0  0  0  0  0  0  0  0  0  0  0  0
   56.0038   33.8440   46.5116 H   0  0  0  0  0  0  0  0  0  0  0  0
   56.8374   32.5514   45.5625 H   0  0  0  0  0  0  0  0  0  0  0  0
   58.0881   34.1064   47.8752 H   0  0  0  0  0  0  0  0  0  0  0  0
   57.3434   32.4455   47.9823 H   0  0  0  0  0  0  0  0  0  0  0  0
  1  2  1  0
  2  3  1  0
  3  4  2  0
  4  5  1  0
  5  6  2  0
  6  7  1  0
  7  8  2  0
  8  9  1  0
  9 10  1  0
 10 11  1  0
 11 12  1  0
 12 13  2  0
 13 14  1  0
 14 15  2  0
  9 16  1  0
 16 17  1  0
 17 18  1  0
 18 19  1  0
 19 20  1  0
  8  3  1  0
 20  9  1  0
 15 11  1  0
  1 21  1  0
  1 22  1  0
  1 23  1  0
  4 24  1  0
  5 25  1  0
  6 26  1  0
  7 27  1  0
 10 28  1  0
 10 29  1  0
 12 30  1  0
 13 31  1  0
 14 32  1  0
 16 33  1  0
 16 34  1  0
 17 35  1  0
 17 36  1  0
 18 37  1  0
 18 38  1  0
 19 39  1  0
 19 40  1  0
 20 41  1  0
 20 42  1  0
M  CHG  1  13   1
M  END
>  <UniqueID>  (10) 
9

>  <SMILES>  (10) 
COc1ccccc1C1(Cn2c[nH+]cn2)CCCCC1

>  <Energy>  (10) 
93.47874303599266

>  <Genealogy>  (10) 
COc1ccccc1C1(Cn2c[nH+]cn2)CCCCC1 (protonated)
COc1ccccc1C1(Cn2c[nH+]cn2)CCCCC1 (3D coordinates assigned)
COc1ccccc1C1(Cn2c[nH+]cn2)CCCCC1 (nonaromatic ring conformer: 93.47874303599266 kcal/mol)

>  <smiles>  (10) 
COc1ccccc1C1(Cn2cncn2)CCCCC1

>  <score_type>  (10) 
oracle

>  <origin>  (10) 
adg

>  <m_score__min__energy>  (10) 
-6.1799999999999997

>  <m_primary>  (10) 
energy

$$$$
10:0
     RDKit          3D

 51 53  0  0  0  0  0  0  0  0999 V2000
   57.3900   33.2530   45.2440 C   0  0  0  0  0  0  0  0  0  0  0  0
   57.9330   33.7280   46.5850 C   0  0  0  0  0  0  0  0  0  0  0  0
   59.3260   33.2960   46.7540 N   0  0  0  0  0  0  0  0  0  0  0  0
   60.4370   34.2320   46.5390 C   0  0  0  0  0  0  0  0  0  0  0  0
   61.6270   33.8170   47.3650 C   0  0  0  0  0  0  0  0  0  0  0  0
   61.6280   33.9890   48.7570 C   0  0  0  0  0  0  0  0  0  0  0  0
   62.7680   33.6740   49.4980 C   0  0  0  0  0  0  0  0  0  0  0  0
   63.9020   33.1960   48.8380 C   0  0  0  0  0  0  0  0  0  0  0  0
   63.8920   33.0410   47.4860 N   0  0  0  0  0  0  0  0  0  0  0  0
   62.7920   33.3450   46.7430 C   0  0  0  0  0  0  0  0  0  0  0  0
   59.6140   31.9700   47.2280 C   0  0  0  0  0  0  0  0  0  0  0  0
   59.0660   31.5170   48.4360 C   0  0  0  0  0  0  0  0  0  0  0  0
   59.2300   30.1870   48.8290 C   0  0  0  0  0  0  0  0  0  0  0  0
   59.9170   29.2850   48.0090 C   0  0  0  0  0  0  0  0  0  0  0  0
   59.9580   27.9340   48.3890 O   0  0  0  0  0  0  0  0  0  0  0  0
   59.1810   26.8970   47.7890 C   0  0  0  0  0  0  0  0  0  0  0  0
   58.6400   27.3340   46.4490 C   0  0  0  0  0  0  0  0  0  0  0  0
   59.3700   27.0890   45.2760 C   0  0  0  0  0  0  0  0  0  0  0  0
   58.8860   27.5280   44.0420 C   0  0  0  0  0  0  0  0  0  0  0  0
   57.6690   28.2100   43.9670 C   0  0  0  0  0  0  0  0  0  0  0  0
   56.9200   28.4540   45.1250 C   0  0  0  0  0  0  0  0  0  0  0  0
   55.7100   29.1520   45.0000 O   0  0  0  0  0  0  0  0  0  0  0  0
   55.4970   30.2350   44.1010 C   0  0  0  0  0  0  0  0  0  0  0  0
   57.4040   27.9990   46.3660 C   0  0  0  0  0  0  0  0  0  0  0  0
   60.5090   29.7510   46.8210 C   0  0  0  0  0  0  0  0  0  0  0  0
   60.3550   31.0840   46.4330 C   0  0  0  0  0  0  0  0  0  0  0  0
   56.5718   32.5373   45.4124 H   0  0  0  0  0  0  0  0  0  0  0  0
   57.0116   34.1153   44.6754 H   0  0  0  0  0  0  0  0  0  0  0  0
   58.1943   32.7633   44.6754 H   0  0  0  0  0  0  0  0  0  0  0  0
   57.8863   34.8262   46.6267 H   0  0  0  0  0  0  0  0  0  0  0  0
   57.3239   33.2934   47.3913 H   0  0  0  0  0  0  0  0  0  0  0  0
   60.7140   34.2304   45.4744 H   0  0  0  0  0  0  0  0  0  0  0  0
   60.1222   35.2419   46.8408 H   0  0  0  0  0  0  0  0  0  0  0  0
   60.7304   34.3721   49.2646 H   0  0  0  0  0  0  0  0  0  0  0  0
   62.7732   33.8010   50.5906 H   0  0  0  0  0  0  0  0  0  0  0  0
   64.8057   32.9441   49.4124 H   0  0  0  0  0  0  0  0  0  0  0  0
   64.7510   32.6880   47.0070 H   0  0  0  0  0  0  0  0  0  0  0  0
   62.8173   33.2198   45.6504 H   0  0  0  0  0  0  0  0  0  0  0  0
   58.5043   32.2122   49.0773 H   0  0  0  0  0  0  0  0  0  0  0  0
   58.8163   29.8462   49.7896 H   0  0  0  0  0  0  0  0  0  0  0  0
   59.8138   26.0082   47.6491 H   0  0  0  0  0  0  0  0  0  0  0  0
   58.3335   26.6658   48.4511 H   0  0  0  0  0  0  0  0  0  0  0  0
   60.3270   26.5492   45.3287 H   0  0  0  0  0  0  0  0  0  0  0  0
   59.4646   27.3363   43.1263 H   0  0  0  0  0  0  0  0  0  0  0  0
   57.2966   28.5576   42.9921 H   0  0  0  0  0  0  0  0  0  0  0  0
   55.3157   31.1566   44.6736 H   0  0  0  0  0  0  0  0  0  0  0  0
   56.3866   30.3660   43.4674 H   0  0  0  0  0  0  0  0  0  0  0  0
   54.6241   30.0193   43.4674 H   0  0  0  0  0  0  0  0  0  0  0  0
   56.8109   28.1649   47.2775 H   0  0  0  0  0  0  0  0  0  0  0  0
   61.0957   29.0627   46.1949 H   0  0  0  0  0  0  0  0  0  0  0  0
   60.8168   31.4400   45.5003 H   0  0  0  0  0  0  0  0  0  0  0  0
  1  2  1  0
  2  3  1  0
  3  4  1  0
  4  5  1  0
  5  6  2  0
  6  7  1  0
  7  8  2  0
  8  9  1  0
  9 10  2  0
  3 11  1  0
 11 12  2  0
 12 13  1  0
 13 14  2  0
 14 15  1  0
 15 16  1  0
 16 17  1  0
 17 18  2  0
 18 19  1  0
 19 20  2  0
 20 21  1  0
 21 22  1  0
 22 23  1  0
 21 24  2  0
 14 25  1  0
 25 26  2  0
 10  5  1  0
 26 11  1  0
 24 17  1  0
  1 27  1  0
  1 28  1  0
  1 29  1  0
  2 30  1  0
  2 31  1  0
  4 32  1  0
  4 33  1  0
  6 34  1  0
  7 35  1  0
  8 36  1  0
  9 37  1  0
 10 38  1  0
 12 39  1  0
 13 40  1  0
 16 41  1  0
 16 42  1  0
 18 43  1  0
 19 44  1  0
 20 45  1  0
 23 46  1  0
 23 47  1  0
 23 48  1  0
 24 49  1  0
 25 50  1  0
 26 51  1  0
M  CHG  1   9   1
M  END
>  <UniqueID>  (11) 
10

>  <SMILES>  (11) 
CCN(Cc1ccc[nH+]c1)c1ccc(OCc2cccc(OC)c2)cc1

>  <Energy>  (11) 
49.8623707157756

>  <Genealogy>  (11) 
CCN(Cc1ccc[nH+]c1)c1ccc(OCc2cccc(OC)c2)cc1 (protonated)
CCN(Cc1ccc[nH+]c1)c1ccc(OCc2cccc(OC)c2)cc1 (3D coordinates assigned)
CCN(Cc1ccc[nH+]c1)c1ccc(OCc2cccc(OC)c2)cc1 (optimized conformer: 49.8623707157756 kcal/mol)

>  <smiles>  (11) 
CCN(Cc1cccnc1)c1ccc(OCc2cccc(OC)c2)cc1

>  <score_type>  (11) 
oracle

>  <origin>  (11) 
adg

>  <m_score__min__energy>  (11) 
-6.54

>  <m_primary>  (11) 
energy

$$$$
11:0
     RDKit          3D

 27 28  0  0  0  0  0  0  0  0999 V2000
   57.0080   31.0080   42.6490 F   0  0  0  0  0  0  0  0  0  0  0  0
   56.5070   29.8530   43.2590 C   0  0  0  0  0  0  0  0  0  0  0  0
   56.2070   29.0000   42.2210 F   0  0  0  0  0  0  0  0  0  0  0  0
   55.3630   30.0670   43.9610 F   0  0  0  0  0  0  0  0  0  0  0  0
   57.5990   29.2260   44.0840 C   0  0  0  0  0  0  0  0  0  0  0  0
   57.8950   27.9210   43.8770 C   0  0  0  0  0  0  0  0  0  0  0  0
   58.8950   27.3480   44.6220 C   0  0  0  0  0  0  0  0  0  0  0  0
   59.5860   28.0560   45.5520 C   0  0  0  0  0  0  0  0  0  0  0  0
   59.2550   29.3850   45.7370 C   0  0  0  0  0  0  0  0  0  0  0  0
   58.2780   30.0400   45.0450 C   0  0  0  0  0  0  0  0  0  0  0  0
   57.8120   31.3330   45.0730 N   0  0  0  0  0  0  0  0  0  0  0  0
   57.3550   32.6000   45.1010 C   0  0  0  0  0  0  0  0  0  0  0  0
   58.2530   33.5200   45.9130 C   0  0  0  0  0  0  0  0  0  0  0  0
   58.8750   34.5880   45.4050 C   0  0  0  0  0  0  0  0  0  0  0  0
   59.6560   35.3410   46.2190 C   0  0  0  0  0  0  0  0  0  0  0  0
   59.6050   34.6250   47.8110 S   0  0  0  0  0  0  0  0  0  0  0  0
   58.4600   33.2640   47.2540 C   0  0  0  0  0  0  0  0  0  0  0  0
   57.3455   27.3325   43.1275 H   0  0  0  0  0  0  0  0  0  0  0  0
   59.1430   26.2884   44.4617 H   0  0  0  0  0  0  0  0  0  0  0  0
   60.3865   27.5851   46.1414 H   0  0  0  0  0  0  0  0  0  0  0  0
   59.8169   29.9531   46.4930 H   0  0  0  0  0  0  0  0  0  0  0  0
   56.6490   30.9160   45.6240 H   0  0  0  0  0  0  0  0  0  0  0  0
   57.3002   32.9791   44.0698 H   0  0  0  0  0  0  0  0  0  0  0  0
   56.3642   32.5897   45.5786 H   0  0  0  0  0  0  0  0  0  0  0  0
   58.7556   34.8522   44.3439 H   0  0  0  0  0  0  0  0  0  0  0  0
   60.2196   36.2400   45.9289 H   0  0  0  0  0  0  0  0  0  0  0  0
   58.0437   32.4433   47.8566 H   0  0  0  0  0  0  0  0  0  0  0  0
  1  2  1  0
  2  3  1  0
  2  4  1  0
  2  5  1  0
  5  6  2  0
  6  7  1  0
  7  8  2  0
  8  9  1  0
  9 10  2  0
 10 11  1  0
 11 12  1  0
 12 13  1  0
 13 14  1  0
 14 15  2  0
 15 16  1  0
 16 17  1  0
 10  5  1  0
 17 13  2  0
  6 18  1  0
  7 19  1  0
  8 20  1  0
  9 21  1  0
 11 22  1  0
 12 23  1  0
 12 24  1  0
 14 25  1  0
 15 26  1  0
 17 27  1  0
M  END
>  <UniqueID>  (12) 
11

>  <SMILES>  (12) 
FC(F)(F)c1ccccc1NCc1ccsc1

>  <Energy>  (12) 
231.64299580498462

>  <Genealogy>  (12) 
FC(F)(F)c1ccccc1NCc1ccsc1 (3D coordinates assigned)
FC(F)(F)c1ccccc1NCc1ccsc1 (optimized conformer: 231.64299580498462 kcal/mol)

>  <smiles>  (12) 
FC(F)(F)c1ccccc1NCc1ccsc1

>  <score_type>  (12) 
oracle

>  <origin>  (12) 
adg

>  <m_score__min__energy>  (12) 
-5.5999999999999996

>  <m_primary>  (12) 
energy

$$$$
12:0
     RDKit          3D

 57 58  0  0  0  0  0  0  0  0999 V2000
   61.0910   31.8650   47.7960 H   0  0  0  0  0  0  0  0  0  0  0  0
   60.7250   31.1230   48.3800 O   0  0  0  0  0  0  0  0  0  0  0  0
   60.1110   29.9930   47.8390 C   0  0  0  0  0  0  0  0  0  0  0  0
   60.4240   28.7400   48.3790 C   0  0  0  0  0  0  0  0  0  0  0  0
   61.1090   28.6732   49.2371 H   0  0  0  0  0  0  0  0  0  0  0  0
   59.8790   27.5800   47.8430 C   0  0  0  0  0  0  0  0  0  0  0  0
   60.1184   26.6044   48.2913 H   0  0  0  0  0  0  0  0  0  0  0  0
   59.0320   27.6470   46.7420 C   0  0  0  0  0  0  0  0  0  0  0  0
   58.6190   26.7207   46.3161 H   0  0  0  0  0  0  0  0  0  0  0  0
   58.6970   28.8890   46.1660 C   0  0  0  0  0  0  0  0  0  0  0  0
   57.8480   28.9530   45.0340 C   0  0  0  0  0  0  0  0  0  0  0  0
   57.3760   27.7590   44.3890 N   0  0  0  0  0  0  0  0  0  0  0  0
   56.4130   27.4090   44.6000 H   0  0  0  0  0  0  0  0  0  0  0  0
   58.1930   27.0060   43.4370 C   0  0  0  0  0  0  0  0  0  0  0  0
   58.0620   27.4272   42.4293 H   0  0  0  0  0  0  0  0  0  0  0  0
   59.2508   27.0739   43.7309 H   0  0  0  0  0  0  0  0  0  0  0  0
   57.7700   25.5700   43.4350 C   0  0  0  0  0  0  0  0  0  0  0  0
   58.1975   24.8717   42.7004 H   0  0  0  0  0  0  0  0  0  0  0  0
   56.9070   25.1530   44.2920 N   0  0  0  0  0  0  0  0  0  0  0  0
   57.2620   24.8760   45.6650 C   0  0  0  0  0  0  0  0  0  0  0  0
   57.4230   23.7947   45.7871 H   0  0  0  0  0  0  0  0  0  0  0  0
   58.1823   25.4246   45.9142 H   0  0  0  0  0  0  0  0  0  0  0  0
   56.1400   25.3300   46.6070 C   0  0  0  0  0  0  0  0  0  0  0  0
   55.5178   24.4599   46.8637 H   0  0  0  0  0  0  0  0  0  0  0  0
   56.6045   25.7652   47.5041 H   0  0  0  0  0  0  0  0  0  0  0  0
   55.2930   26.3520   45.9960 N   0  0  0  0  0  0  0  0  0  0  0  0
   55.2390   26.1820   44.9650 H   0  0  0  0  0  0  0  0  0  0  0  0
   54.3260   26.2700   46.3840 H   0  0  0  0  0  0  0  0  0  0  0  0
   57.5000   30.1990   44.5010 C   0  0  0  0  0  0  0  0  0  0  0  0
   56.8504   30.2494   43.6147 H   0  0  0  0  0  0  0  0  0  0  0  0
   57.9660   31.3730   45.0790 C   0  0  0  0  0  0  0  0  0  0  0  0
   57.6724   32.3418   44.6486 H   0  0  0  0  0  0  0  0  0  0  0  0
   58.8030   31.3430   46.2000 C   0  0  0  0  0  0  0  0  0  0  0  0
   59.1630   32.5930   46.8080 N   0  0  0  0  0  0  0  0  0  0  0  0
   59.5280   32.5940   47.7870 H   0  0  0  0  0  0  0  0  0  0  0  0
   59.1630   33.8470   46.0580 C   0  0  0  0  0  0  0  0  0  0  0  0
   58.2415   34.4036   46.2839 H   0  0  0  0  0  0  0  0  0  0  0  0
   59.2148   33.6180   44.9833 H   0  0  0  0  0  0  0  0  0  0  0  0
   60.3740   34.7020   46.4400 C   0  0  0  0  0  0  0  0  0  0  0  0
   60.0268   35.6098   46.9552 H   0  0  0  0  0  0  0  0  0  0  0  0
   60.9215   34.9682   45.5238 H   0  0  0  0  0  0  0  0  0  0  0  0
   61.2840   33.9520   47.3370 N   0  0  0  0  0  0  0  0  0  0  0  0
   62.6440   33.8090   46.7610 C   0  0  0  0  0  0  0  0  0  0  0  0
   63.1987   34.7399   46.9502 H   0  0  0  0  0  0  0  0  0  0  0  0
   62.5137   33.6020   45.6885 H   0  0  0  0  0  0  0  0  0  0  0  0
   63.4520   32.6400   47.3420 C   0  0  0  0  0  0  0  0  0  0  0  0
   63.4218   32.6837   48.4407 H   0  0  0  0  0  0  0  0  0  0  0  0
   63.0177   31.6887   47.0008 H   0  0  0  0  0  0  0  0  0  0  0  0
   64.4954   32.7100   47.0008 H   0  0  0  0  0  0  0  0  0  0  0  0
   61.2640   34.5050   48.7130 C   0  0  0  0  0  0  0  0  0  0  0  0
   62.1346   34.1184   49.2631 H   0  0  0  0  0  0  0  0  0  0  0  0
   61.2940   35.6020   48.6370 H   0  0  0  0  0  0  0  0  0  0  0  0
   59.9930   34.1210   49.4700 C   0  0  0  0  0  0  0  0  0  0  0  0
   60.1798   34.1774   50.5526 H   0  0  0  0  0  0  0  0  0  0  0  0
   59.1825   34.8144   49.2011 H   0  0  0  0  0  0  0  0  0  0  0  0
   59.7020   33.0948   49.2011 H   0  0  0  0  0  0  0  0  0  0  0  0
   59.2040   30.0930   46.7480 C   0  0  0  0  0  0  0  0  0  0  0  0
  1  2  1  0
  2  3  1  0
  3  4  2  0
  4  5  1  0
  4  6  1  0
  6  7  1  0
  6  8  2  0
  8  9  1  0
  8 10  1  0
 10 11  2  0
 11 12  1  0
 12 13  1  0
 12 14  1  0
 14 15  1  0
 14 16  1  0
 14 17  1  0
 17 18  1  0
 17 19  2  0
 19 20  1  0
 20 21  1  0
 20 22  1  0
 20 23  1  0
 23 24  1  0
 23 25  1  0
 23 26  1  0
 26 27  1  0
 26 28  1  0
 11 29  1  0
 29 30  1  0
 29 31  2  0
 31 32  1  0
 31 33  1  0
 33 34  1  0
 34 35  1  0
 34 36  1  0
 36 37  1  0
 36 38  1  0
 36 39  1  0
 39 40  1  0
 39 41  1  0
 39 42  1  0
 42 43  1  0
 43 44  1  0
 43 45  1  0
 43 46  1  0
 46 47  1  0
 46 48  1  0
 46 49  1  0
 42 50  1  0
 50 51  1  0
 50 52  1  0
 50 53  1  0
 53 54  1  0
 53 55  1  0
 53 56  1  0
 33 57  2  0
 57  3  1  0
 57 10  1  0
M  END
>  <UniqueID>  (13) 
12

>  <SMILES>  (13) 
CCN(CC)CCNc1ccc(NC/C=N/CCN)c2cccc(O)c12

>  <Energy>  (13) 
63.2404501836114

>  <Genealogy>  (13) 
CCN(CC)CCNc1ccc(NC/C=N/CCN)c2cccc(O)c12 (cis-trans isomerization)
CCN(CC)CCNc1ccc(NC/C=N/CCN)c2cccc(O)c12 (3D coordinates assigned)
CCN(CC)CCNc1ccc(NC/C=N/CCN)c2cccc(O)c12 (optimized conformer: 63.2404501836114 kcal/mol)

>  <smiles>  (13) 
CCN(CC)CCNc1ccc(NCC=NCCN)c2cccc(O)c12

>  <score_type>  (13) 
oracle

>  <origin>  (13) 
adg

>  <m_score__min__energy>  (13) 
-7

>  <m_primary>  (13) 
energy

$$$$
13:0
     RDKit          3D

 27 28  0  0  0  0  0  0  0  0999 V2000
   56.3840   30.1310   43.6850 C   0  0  0  0  0  0  0  0  0  0  0  0
   56.5320   30.9090   44.8680 O   0  0  0  0  0  0  0  0  0  0  0  0
   57.7640   31.3330   45.3870 C   0  0  0  0  0  0  0  0  0  0  0  0
   58.7300   30.4310   45.8710 C   0  0  0  0  0  0  0  0  0  0  0  0
   59.9440   30.9030   46.3800 C   0  0  0  0  0  0  0  0  0  0  0  0
   60.2190   32.2830   46.4150 C   0  0  0  0  0  0  0  0  0  0  0  0
   61.4710   32.7690   46.9400 N   0  0  0  0  0  0  0  0  0  0  0  0
   62.1790   33.8390   46.5140 C   0  0  0  0  0  0  0  0  0  0  0  0
   63.3140   34.0290   47.2190 N   0  0  0  0  0  0  0  0  0  0  0  0
   63.3020   33.0320   48.1230 C   0  0  0  0  0  0  0  0  0  0  0  0
   64.5780   32.7790   49.3530 S   0  0  0  0  0  0  0  0  0  0  0  0
   63.7640   33.8430   50.5830 C   0  0  0  0  0  0  0  0  0  0  0  0
   62.1820   32.2530   47.9600 C   0  0  0  0  0  0  0  0  0  0  0  0
   59.2480   33.1770   45.9300 C   0  0  0  0  0  0  0  0  0  0  0  0
   58.0340   32.7040   45.4220 C   0  0  0  0  0  0  0  0  0  0  0  0
   56.1848   29.0840   43.9572 H   0  0  0  0  0  0  0  0  0  0  0  0
   55.5441   30.5218   43.0918 H   0  0  0  0  0  0  0  0  0  0  0  0
   57.3087   30.1861   43.0918 H   0  0  0  0  0  0  0  0  0  0  0  0
   58.5291   29.3497   45.8488 H   0  0  0  0  0  0  0  0  0  0  0  0
   60.6912   30.1890   46.7566 H   0  0  0  0  0  0  0  0  0  0  0  0
   61.8637   34.4856   45.6818 H   0  0  0  0  0  0  0  0  0  0  0  0
   64.0261   33.5004   51.5949 H   0  0  0  0  0  0  0  0  0  0  0  0
   64.1001   34.8818   50.4490 H   0  0  0  0  0  0  0  0  0  0  0  0
   62.6735   33.7903   50.4490 H   0  0  0  0  0  0  0  0  0  0  0  0
   61.9146   31.3676   48.5554 H   0  0  0  0  0  0  0  0  0  0  0  0
   59.4453   34.2590   45.9504 H   0  0  0  0  0  0  0  0  0  0  0  0
   57.2851   33.4170   45.0467 H   0  0  0  0  0  0  0  0  0  0  0  0
  1  2  1  0
  2  3  1  0
  3  4  2  0
  4  5  1  0
  5  6  2  0
  6  7  1  0
  7  8  1  0
  8  9  2  0
  9 10  1  0
 10 11  1  0
 11 12  1  0
 10 13  2  0
  6 14  1  0
 14 15  2  0
 15  3  1  0
 13  7  1  0
  1 16  1  0
  1 17  1  0
  1 18  1  0
  4 19  1  0
  5 20  1  0
  8 21  1  0
 12 22  1  0
 12 23  1  0
 12 24  1  0
 13 25  1  0
 14 26  1  0
 15 27  1  0
M  END
>  <UniqueID>  (14) 
13

>  <SMILES>  (14) 
COc1ccc(-n2cnc(SC)c2)cc1

>  <Energy>  (14) 
55.488571528826675

>  <Genealogy>  (14) 
COc1ccc(-n2cnc(SC)c2)cc1 (3D coordinates assigned)
COc1ccc(-n2cnc(SC)c2)cc1 (optimized conformer: 55.488571528826675 kcal/mol)

>  <smiles>  (14) 
COc1ccc(-n2cnc(SC)c2)cc1

>  <score_type>  (14) 
oracle

>  <origin>  (14) 
adg

>  <m_score__min__energy>  (14) 
-4.9100000000000001

>  <m_primary>  (14) 
energy

$$$$
14:0
     RDKit          3D

 46 48  0  0  0  0  0  0  0  0999 V2000
   54.5302   29.6765   43.9467 H   0  0  0  0  0  0  0  0  0  0  0  0
   55.5190   29.7000   44.4280 C   0  0  0  0  0  0  0  0  0  0  0  0
   55.9990   28.5930   45.0380 N   0  0  0  0  0  0  0  0  0  0  0  0
   57.2240   28.5660   45.6210 C   0  0  0  0  0  0  0  0  0  0  0  0
   57.6490   27.3740   46.2170 C   0  0  0  0  0  0  0  0  0  0  0  0
   56.9826   26.4989   46.2266 H   0  0  0  0  0  0  0  0  0  0  0  0
   58.9090   27.2900   46.7970 C   0  0  0  0  0  0  0  0  0  0  0  0
   59.2333   26.3545   47.2762 H   0  0  0  0  0  0  0  0  0  0  0  0
   59.7580   28.3880   46.7710 C   0  0  0  0  0  0  0  0  0  0  0  0
   60.7577   28.3146   47.2240 H   0  0  0  0  0  0  0  0  0  0  0  0
   59.3540   29.5870   46.1740 C   0  0  0  0  0  0  0  0  0  0  0  0
   60.0515   30.4370   46.1420 H   0  0  0  0  0  0  0  0  0  0  0  0
   58.0620   29.7250   45.6100 C   0  0  0  0  0  0  0  0  0  0  0  0
   57.5360   30.9240   45.0150 C   0  0  0  0  0  0  0  0  0  0  0  0
   58.0940   32.1080   45.0210 N   0  0  0  0  0  0  0  0  0  0  0  0
   57.5580   33.4600   45.1320 C   0  0  0  0  0  0  0  0  0  0  0  0
   57.1627   33.6141   46.1469 H   0  0  0  0  0  0  0  0  0  0  0  0
   56.7511   33.5928   44.3963 H   0  0  0  0  0  0  0  0  0  0  0  0
   58.6680   34.4820   44.8570 C   0  0  0  0  0  0  0  0  0  0  0  0
   58.2251   35.3602   44.3644 H   0  0  0  0  0  0  0  0  0  0  0  0
   59.4193   33.9960   44.2172 H   0  0  0  0  0  0  0  0  0  0  0  0
   59.3740   34.9410   46.1400 C   0  0  0  0  0  0  0  0  0  0  0  0
   58.6321   35.3642   46.8332 H   0  0  0  0  0  0  0  0  0  0  0  0
   60.1245   35.7045   45.8872 H   0  0  0  0  0  0  0  0  0  0  0  0
   60.0430   33.7970   46.7800 N   0  0  0  0  0  0  0  0  0  0  0  0
   59.5470   32.9190   46.4910 H   0  0  0  0  0  0  0  0  0  0  0  0
   61.4460   33.7020   46.3690 C   0  0  0  0  0  0  0  0  0  0  0  0
   61.8285   34.7063   46.1344 H   0  0  0  0  0  0  0  0  0  0  0  0
   61.5251   33.0629   45.4772 H   0  0  0  0  0  0  0  0  0  0  0  0
   62.2560   33.1050   47.4890 C   0  0  0  0  0  0  0  0  0  0  0  0
   63.5500   33.5770   47.7420 C   0  0  0  0  0  0  0  0  0  0  0  0
   63.9597   34.3947   47.1309 H   0  0  0  0  0  0  0  0  0  0  0  0
   64.3250   33.0220   48.7600 C   0  0  0  0  0  0  0  0  0  0  0  0
   65.3349   33.4104   48.9580 H   0  0  0  0  0  0  0  0  0  0  0  0
   63.8170   31.9740   49.5260 C   0  0  0  0  0  0  0  0  0  0  0  0
   64.4278   31.5343   50.3283 H   0  0  0  0  0  0  0  0  0  0  0  0
   62.5340   31.4810   49.2770 C   0  0  0  0  0  0  0  0  0  0  0  0
   62.1411   30.6494   49.8804 H   0  0  0  0  0  0  0  0  0  0  0  0
   61.7400   32.0430   48.2570 C   0  0  0  0  0  0  0  0  0  0  0  0
   60.4490   31.5730   47.9790 O   0  0  0  0  0  0  0  0  0  0  0  0
   59.3840   31.5300   48.9250 C   0  0  0  0  0  0  0  0  0  0  0  0
   59.7979   31.5467   49.9440 H   0  0  0  0  0  0  0  0  0  0  0  0
   58.7298   32.4025   48.7806 H   0  0  0  0  0  0  0  0  0  0  0  0
   58.8023   30.6076   48.7806 H   0  0  0  0  0  0  0  0  0  0  0  0
   56.2730   30.8680   44.4080 C   0  0  0  0  0  0  0  0  0  0  0  0
   55.8725   31.7623   43.9082 H   0  0  0  0  0  0  0  0  0  0  0  0
  1  2  1  0
  2  3  1  0
  3  4  1  0
  4  5  2  0
  5  6  1  0
  5  7  1  0
  7  8  1  0
  7  9  2  0
  9 10  1  0
  9 11  1  0
 11 12  1  0
 11 13  2  0
 13 14  1  0
 14 15  2  0
 15 16  1  0
 16 17  1  0
 16 18  1  0
 16 19  1  0
 19 20  1  0
 19 21  1  0
 19 22  1  0
 22 23  1  0
 22 24  1  0
 22 25  1  0
 25 26  1  0
 25 27  1  0
 27 28  1  0
 27 29  1  0
 27 30  1  0
 30 31  2  0
 31 32  1  0
 31 33  1  0
 33 34  1  0
 33 35  2  0
 35 36  1  0
 35 37  1  0
 37 38  1  0
 37 39  2  0
 39 40  1  0
 40 41  1  0
 41 42  1  0
 41 43  1  0
 41 44  1  0
 14 45  1  0
 45 46  1  0
 45  2  2  0
 13  4  1  0
 39 30  1  0
M  CHG  1   3  -1
M  END
>  <UniqueID>  (15) 
14

>  <SMILES>  (15) 
COc1ccccc1CNCCC/N=c1/cc[n-]c2ccccc12

>  <Energy>  (15) 
58.59355554847827

>  <Genealogy>  (15) 
COc1ccccc1CNCCCN=c1cc[n-]c2ccccc12 (protonated)
COc1ccccc1CNCCC/N=c1/cc[n-]c2ccccc12 (cis-trans isomerization)
COc1ccccc1CNCCC/N=c1/cc[n-]c2ccccc12 (3D coordinates assigned)
COc1ccccc1CNCCC/N=c1/cc[n-]c2ccccc12 (optimized conformer: 58.59355554847827 kcal/mol)

>  <smiles>  (15) 
COc1ccccc1CNCCCN=c1cc[nH]c2ccccc12

>  <score_type>  (15) 
oracle

>  <origin>  (15) 
adg

>  <m_score__min__energy>  (15) 
-9.3200000000000003

>  <m_primary>  (15) 
energy

$$$$
15:0
     RDKit          3D

 42 43  0  0  0  0  0  0  0  0999 V2000
   56.1580   29.7290   43.0770 C   0  0  0  0  0  0  0  0  0  0  0  0
   56.0110   30.5470   44.2320 O   0  0  0  0  0  0  0  0  0  0  0  0
   57.0780   31.1450   44.9190 C   0  0  0  0  0  0  0  0  0  0  0  0
   57.0070   32.5150   45.1940 C   0  0  0  0  0  0  0  0  0  0  0  0
   58.0470   33.1590   45.8710 C   0  0  0  0  0  0  0  0  0  0  0  0
   59.1880   32.4420   46.2740 C   0  0  0  0  0  0  0  0  0  0  0  0
   60.2580   33.1030   46.9820 N   0  0  0  0  0  0  0  0  0  0  0  0
   59.8540   34.4180   47.4210 C   0  0  0  0  0  0  0  0  0  0  0  0
   59.8150   35.6580   46.3440 S   0  0  0  0  0  0  0  0  0  0  0  0
   59.4260   34.6680   48.7730 N   0  0  0  0  0  0  0  0  0  0  0  0
   59.5540   33.6840   49.8490 C   0  0  0  0  0  0  0  0  0  0  0  0
   61.0380   33.3850   50.1440 C   0  0  0  0  0  0  0  0  0  0  0  0
   61.8670   33.1440   48.9410 N   0  0  0  0  0  0  0  0  0  0  0  0
   62.8210   34.2330   48.6570 C   0  0  0  0  0  0  0  0  0  0  0  0
   63.7740   33.8370   47.5130 C   0  0  0  0  0  0  0  0  0  0  0  0
   63.2220   32.7840   46.7470 O   0  0  0  0  0  0  0  0  0  0  0  0
   63.1590   31.5980   47.5240 C   0  0  0  0  0  0  0  0  0  0  0  0
   62.5270   31.8290   48.9140 C   0  0  0  0  0  0  0  0  0  0  0  0
   59.2460   31.0600   46.0190 C   0  0  0  0  0  0  0  0  0  0  0  0
   58.2070   30.4180   45.3400 C   0  0  0  0  0  0  0  0  0  0  0  0
   56.3448   28.6897   43.3851 H   0  0  0  0  0  0  0  0  0  0  0  0
   55.2374   29.7736   42.4765 H   0  0  0  0  0  0  0  0  0  0  0  0
   57.0054   30.0913   42.4765 H   0  0  0  0  0  0  0  0  0  0  0  0
   56.1254   33.0903   44.8748 H   0  0  0  0  0  0  0  0  0  0  0  0
   57.9724   34.2344   46.0901 H   0  0  0  0  0  0  0  0  0  0  0  0
   60.5210   32.5120   47.8050 H   0  0  0  0  0  0  0  0  0  0  0  0
   61.1140   33.1900   46.3880 H   0  0  0  0  0  0  0  0  0  0  0  0
   59.0360   35.6130   48.9950 H   0  0  0  0  0  0  0  0  0  0  0  0
   59.0782   34.0800   50.7583 H   0  0  0  0  0  0  0  0  0  0  0  0
   59.0622   32.7517   49.5345 H   0  0  0  0  0  0  0  0  0  0  0  0
   61.4604   34.2441   50.6858 H   0  0  0  0  0  0  0  0  0  0  0  0
   61.0590   32.4542   50.7299 H   0  0  0  0  0  0  0  0  0  0  0  0
   62.2630   35.1353   48.3663 H   0  0  0  0  0  0  0  0  0  0  0  0
   63.4157   34.4273   49.5617 H   0  0  0  0  0  0  0  0  0  0  0  0
   63.9399   34.7086   46.8627 H   0  0  0  0  0  0  0  0  0  0  0  0
   64.7267   33.4985   47.9463 H   0  0  0  0  0  0  0  0  0  0  0  0
   62.5561   30.8542   46.9825 H   0  0  0  0  0  0  0  0  0  0  0  0
   64.1902   31.2490   47.6817 H   0  0  0  0  0  0  0  0  0  0  0  0
   61.7849   31.0422   49.1146 H   0  0  0  0  0  0  0  0  0  0  0  0
   63.3124   31.7974   49.6835 H   0  0  0  0  0  0  0  0  0  0  0  0
   60.1170   30.4794   46.3571 H   0  0  0  0  0  0  0  0  0  0  0  0
   58.2719   29.3395   45.1336 H   0  0  0  0  0  0  0  0  0  0  0  0
  1  2  1  0
  2  3  1  0
  3  4  2  0
  4  5  1  0
  5  6  2  0
  6  7  1  0
  7  8  1  0
  8  9  2  0
  8 10  1  0
 10 11  1  0
 11 12  1  0
 12 13  1  0
 13 14  1  0
 14 15  1  0
 15 16  1  0
 16 17  1  0
 17 18  1  0
  6 19  1  0
 19 20  2  0
 20  3  1  0
 18 13  1  0
  1 21  1  0
  1 22  1  0
  1 23  1  0
  4 24  1  0
  5 25  1  0
  7 26  1  0
  7 27  1  0
 10 28  1  0
 11 29  1  0
 11 30  1  0
 12 31  1  0
 12 32  1  0
 14 33  1  0
 14 34  1  0
 15 35  1  0
 15 36  1  0
 17 37  1  0
 17 38  1  0
 18 39  1  0
 18 40  1  0
 19 41  1  0
 20 42  1  0
M  CHG  1   7   1
M  END
>  <UniqueID>  (16) 
15

>  <SMILES>  (16) 
COc1ccc([NH2+]C(=S)NCCN2CCOCC2)cc1

>  <Energy>  (16) 
51.292202045711505

>  <Genealogy>  (16) 
COc1ccc([NH2+]C(=S)NCCN2CCOCC2)cc1 (protonated)
COc1ccc([NH2+]C(=S)NCCN2CCOCC2)cc1 (3D coordinates assigned)
COc1ccc([NH2+]C(=S)NCCN2CCOCC2)cc1 (nonaromatic ring conformer: 51.292202045711505 kcal/mol)

>  <smiles>  (16) 
COc1ccc(NC(=S)NCCN2CCOCC2)cc1

>  <score_type>  (16) 
oracle

>  <origin>  (16) 
adg

>  <m_score__min__energy>  (16) 
-5.1799999999999997

>  <m_primary>  (16) 
energy

$$$$
16:0
     RDKit          3D

 41 43  0  0  0  0  0  0  0  0999 V2000
   60.1530   26.7570   47.8760 C   0  0  0  0  0  0  0  0  0  0  0  0
   59.2020   27.8810   47.9770 N   0  0  0  0  0  0  0  0  0  0  0  0
   59.6560   28.8320   49.0040 C   0  0  0  0  0  0  0  0  0  0  0  0
   58.8970   28.5830   46.7010 C   0  0  1  0  0  0  0  0  0  0  0  0
   59.9820   28.5520   45.6320 C   0  0  0  0  0  0  0  0  0  0  0  0
   59.2140   28.6950   44.3240 C   0  0  0  0  0  0  0  0  0  0  0  0
   57.7980   28.3630   44.5710 N   0  0  0  0  0  0  0  0  0  0  0  0
   56.7440   29.6930   44.1350 S   0  0  0  0  0  0  0  0  0  0  0  0
   56.4370   29.6240   42.6650 O   0  0  0  0  0  0  0  0  0  0  0  0
   55.4470   29.5620   44.8860 O   0  0  0  0  0  0  0  0  0  0  0  0
   57.4740   31.2590   44.5060 C   0  0  0  0  0  0  0  0  0  0  0  0
   57.7750   32.1600   43.4750 C   0  0  0  0  0  0  0  0  0  0  0  0
   58.3860   33.3840   43.7580 C   0  0  0  0  0  0  0  0  0  0  0  0
   58.7000   33.7240   45.0810 C   0  0  0  0  0  0  0  0  0  0  0  0
   59.3210   34.9480   45.3780 C   0  0  0  0  0  0  0  0  0  0  0  0
   59.6290   35.2750   46.7010 C   0  0  0  0  0  0  0  0  0  0  0  0
   59.3220   34.3880   47.7350 C   0  0  0  0  0  0  0  0  0  0  0  0
   58.7020   33.1670   47.4540 C   0  0  0  0  0  0  0  0  0  0  0  0
   58.3880   32.8260   46.1290 C   0  0  0  0  0  0  0  0  0  0  0  0
   57.7690   31.6010   45.8330 C   0  0  0  0  0  0  0  0  0  0  0  0
   57.6690   28.0260   45.9960 C   0  0  0  0  0  0  0  0  0  0  0  0
   60.4351   26.4236   48.8856 H   0  0  0  0  0  0  0  0  0  0  0  0
   59.6807   25.9247   47.3336 H   0  0  0  0  0  0  0  0  0  0  0  0
   61.0520   27.0850   47.3336 H   0  0  0  0  0  0  0  0  0  0  0  0
   59.4573   28.4158   50.0026 H   0  0  0  0  0  0  0  0  0  0  0  0
   60.7356   29.0086   48.8886 H   0  0  0  0  0  0  0  0  0  0  0  0
   59.1145   29.7825   48.8886 H   0  0  0  0  0  0  0  0  0  0  0  0
   58.7651   29.6111   47.0693 H   0  0  0  0  0  0  0  0  0  0  0  0
   60.6863   29.3864   45.7653 H   0  0  0  0  0  0  0  0  0  0  0  0
   60.5876   27.6345   45.6695 H   0  0  0  0  0  0  0  0  0  0  0  0
   59.2938   29.7295   43.9586 H   0  0  0  0  0  0  0  0  0  0  0  0
   59.6325   28.0162   43.5663 H   0  0  0  0  0  0  0  0  0  0  0  0
   57.5281   31.9011   42.4348 H   0  0  0  0  0  0  0  0  0  0  0  0
   58.6211   34.0822   42.9411 H   0  0  0  0  0  0  0  0  0  0  0  0
   59.5654   35.6506   44.5676 H   0  0  0  0  0  0  0  0  0  0  0  0
   60.1153   36.2350   46.9290 H   0  0  0  0  0  0  0  0  0  0  0  0
   59.5689   34.6510   48.7742 H   0  0  0  0  0  0  0  0  0  0  0  0
   58.4599   32.4727   48.2721 H   0  0  0  0  0  0  0  0  0  0  0  0
   57.5142   30.9060   46.6467 H   0  0  0  0  0  0  0  0  0  0  0  0
   56.7573   28.4812   46.4102 H   0  0  0  0  0  0  0  0  0  0  0  0
   57.5978   26.9372   46.1357 H   0  0  0  0  0  0  0  0  0  0  0  0
  1  2  1  0
  2  3  1  0
  2  4  1  0
  4  5  1  0
  5  6  1  0
  6  7  1  0
  7  8  1  0
  8  9  2  0
  8 10  2  0
  8 11  1  0
 11 12  2  0
 12 13  1  0
 13 14  2  0
 14 15  1  0
 15 16  2  0
 16 17  1  0
 17 18  2  0
 18 19  1  0
 19 20  2  0
  7 21  1  0
 21  4  1  0
 20 11  1  0
 19 14  1  0
  1 22  1  0
  1 23  1  0
  1 24  1  0
  3 25  1  0
  3 26  1  0
  3 27  1  0
  4 28  1  1
  5 29  1  0
  5 30  1  0
  6 31  1  0
  6 32  1  0
 12 33  1  0
 13 34  1  0
 15 35  1  0
 16 36  1  0
 17 37  1  0
 18 38  1  0
 20 39  1  0
 21 40  1  0
 21 41  1  0
M  END
>  <UniqueID>  (17) 
16

>  <SMILES>  (17) 
CN(C)[C@H]1CCN(S(=O)(=O)c2ccc3ccccc3c2)C1

>  <Energy>  (17) 
53.16470296974718

>  <Genealogy>  (17) 
CN(C)[C@H]1CCN(S(=O)(=O)c2ccc3ccccc3c2)C1 (chirality)
CN(C)[C@H]1CCN(S(=O)(=O)c2ccc3ccccc3c2)C1 (3D coordinates assigned)
CN(C)[C@H]1CCN(S(=O)(=O)c2ccc3ccccc3c2)C1 (nonaromatic ring conformer: 53.16470296974718 kcal/mol)

>  <smiles>  (17) 
CN(C)C1CCN(S(=O)(=O)c2ccc3ccccc3c2)C1

>  <score_type>  (17) 
oracle

>  <origin>  (17) 
adg

>  <m_score__min__energy>  (17) 
-8.5600000000000005

>  <m_primary>  (17) 
energy

$$$$
17:0
     RDKit          3D

 45 48  0  0  1  0  0  0  0  0999 V2000
   55.2330   26.2810   45.9580 O   0  0  0  0  0  0  0  0  0  0  0  0
   56.6500   25.8330   46.1840 S   0  0  0  0  0  0  0  0  0  0  0  0
   56.6820   25.1100   47.4940 O   0  0  0  0  0  0  0  0  0  0  0  0
   57.7380   27.1790   46.3060 C   0  0  0  0  0  0  0  0  0  0  0  0
   58.1480   27.5560   47.5870 C   0  0  0  0  0  0  0  0  0  0  0  0
   59.0150   28.6190   47.7680 C   0  0  0  0  0  0  0  0  0  0  0  0
   59.4800   29.3190   46.6560 C   0  0  0  0  0  0  0  0  0  0  0  0
   60.3930   30.4310   46.9180 C   0  0  0  0  0  0  0  0  0  0  0  0
   61.7430   30.4470   46.7490 N   0  0  0  0  0  0  0  0  0  0  0  0
   62.2400   31.6030   47.0790 N   0  0  0  0  0  0  0  0  0  0  0  0
   61.2390   32.3820   47.4720 C   0  0  0  0  0  0  0  0  0  0  0  0
   61.3880   33.9310   47.9800 S   0  0  0  0  0  0  0  0  0  0  0  0
   60.0950   31.6710   47.3780 N   0  0  0  0  0  0  0  0  0  0  0  0
   58.8080   32.1220   47.6960 N   0  0  0  0  0  0  0  0  0  0  0  0
   58.0920   32.8610   46.9380 C   0  0  0  0  0  0  0  0  0  0  0  0
   57.8680   32.4310   45.5620 C   0  0  0  0  0  0  0  0  0  0  0  0
   58.2850   33.0490   44.4000 C   0  0  0  0  0  0  0  0  0  0  0  0
   57.8240   32.2510   43.3560 C   0  0  0  0  0  0  0  0  0  0  0  0
   57.1530   31.1920   43.9300 C   0  0  0  0  0  0  0  0  0  0  0  0
   56.2750   29.7290   43.0530 Br  0  0  0  0  0  0  0  0  0  0  0  0
   57.2010   31.3340   45.2290 O   0  0  0  0  0  0  0  0  0  0  0  0
   59.0880   28.9660   45.3730 C   0  0  0  0  0  0  0  0  0  0  0  0
   58.2100   27.8850   45.2270 C   0  0  0  0  0  0  0  0  0  0  0  0
   57.0700   24.7260   44.9610 N   0  0  0  0  0  0  0  0  0  0  0  0
   55.9210   24.0870   44.3930 C   0  0  0  0  0  0  0  0  0  0  0  0
   56.2370   22.9650   43.4690 C   0  0  0  0  0  0  0  0  0  0  0  0
   57.5820   22.7030   43.3680 O   0  0  0  0  0  0  0  0  0  0  0  0
   58.0610   22.4960   44.6740 C   0  0  0  0  0  0  0  0  0  0  0  0
   58.1590   23.8610   45.3050 C   0  0  0  0  0  0  0  0  0  0  0  0
   57.7774   27.0015   48.4618 H   0  0  0  0  0  0  0  0  0  0  0  0
   59.3343   28.9089   48.7799 H   0  0  0  0  0  0  0  0  0  0  0  0
   63.2650   31.8270   47.0240 H   0  0  0  0  0  0  0  0  0  0  0  0
   57.6554   33.7981   47.3138 H   0  0  0  0  0  0  0  0  0  0  0  0
   58.8631   33.9811   44.3160 H   0  0  0  0  0  0  0  0  0  0  0  0
   57.9675   32.4309   42.2803 H   0  0  0  0  0  0  0  0  0  0  0  0
   59.4560   29.5190   44.4962 H   0  0  0  0  0  0  0  0  0  0  0  0
   57.8884   27.5923   44.2166 H   0  0  0  0  0  0  0  0  0  0  0  0
   55.3048   23.6931   45.2147 H   0  0  0  0  0  0  0  0  0  0  0  0
   55.4007   24.8497   43.7950 H   0  0  0  0  0  0  0  0  0  0  0  0
   55.7319   22.0590   43.8352 H   0  0  0  0  0  0  0  0  0  0  0  0
   55.8879   23.2604   42.4686 H   0  0  0  0  0  0  0  0  0  0  0  0
   57.3626   21.8628   45.2408 H   0  0  0  0  0  0  0  0  0  0  0  0
   59.0352   21.9853   44.6683 H   0  0  0  0  0  0  0  0  0  0  0  0
   58.1760   23.7395   46.3981 H   0  0  0  0  0  0  0  0  0  0  0  0
   59.0787   24.3295   44.9246 H   0  0  0  0  0  0  0  0  0  0  0  0
  1  2  2  0
  2  3  2  0
  2  4  1  0
  4  5  2  0
  5  6  1  0
  6  7  2  0
  7  8  1  0
  8  9  2  0
  9 10  1  0
 10 11  1  0
 11 12  2  0
 11 13  1  0
 13 14  1  0
 14 15  2  0
 15 16  1  0
 16 17  2  0
 17 18  1  0
 18 19  2  0
 19 20  1  0
 19 21  1  0
  7 22  1  0
 22 23  2  0
  2 24  1  0
 24 25  1  0
 25 26  1  0
 26 27  1  0
 27 28  1  0
 28 29  1  0
 23  4  1  0
 29 24  1  0
 13  8  1  0
 21 16  1  0
  5 30  1  0
  6 31  1  0
 10 32  1  0
 15 33  1  0
 17 34  1  0
 18 35  1  0
 22 36  1  0
 23 37  1  0
 25 38  1  0
 25 39  1  0
 26 40  1  0
 26 41  1  0
 28 42  1  0
 28 43  1  0
 29 44  1  0
 29 45  1  0
M  END
>  <smiles>  (18) 
O=S(=O)(c1ccc(-c2n[nH]c(=S)n2N=Cc2ccc(Br)o2)cc1)N1CCOCC1

>  <score_type>  (18) 
oracle

>  <origin>  (18) 
adg

>  <m_score__min__energy>  (18) 
-9.3499999999999996

>  <m_primary>  (18) 
energy

$$$$
18:0
     RDKit          3D

 30 31  0  0  0  0  0  0  0  0999 V2000
   57.3900   27.4050   45.6940 C   0  0  0  0  0  0  0  0  0  0  0  0
   57.0650   28.6940   45.0190 C   0  0  0  0  0  0  0  0  0  0  0  0
   57.8790   29.3730   44.1390 C   0  0  0  0  0  0  0  0  0  0  0  0
   57.1420   30.4970   43.8260 C   0  0  0  0  0  0  0  0  0  0  0  0
   57.5330   31.5920   42.8800 C   0  0  0  0  0  0  0  0  0  0  0  0
   58.1380   32.8130   43.5950 C   0  0  0  0  0  0  0  0  0  0  0  0
   57.3610   33.2470   44.8530 C   0  0  0  0  0  0  0  0  0  0  0  0
   58.2670   33.5700   46.0150 C   0  0  0  0  0  0  0  0  0  0  0  0
   59.1930   34.6230   45.9200 C   0  0  0  0  0  0  0  0  0  0  0  0
   60.0010   34.9510   47.0120 C   0  0  0  0  0  0  0  0  0  0  0  0
   59.9000   34.2260   48.2020 C   0  0  0  0  0  0  0  0  0  0  0  0
   58.9930   33.1670   48.3000 C   0  0  0  0  0  0  0  0  0  0  0  0
   58.1810   32.8360   47.2110 C   0  0  0  0  0  0  0  0  0  0  0  0
   56.0160   30.4670   44.5000 O   0  0  0  0  0  0  0  0  0  0  0  0
   55.9350   29.3950   45.2330 N   0  0  0  0  0  0  0  0  0  0  0  0
   57.3551   27.5433   46.7847 H   0  0  0  0  0  0  0  0  0  0  0  0
   56.6564   26.6408   45.3977 H   0  0  0  0  0  0  0  0  0  0  0  0
   58.3982   27.0799   45.3977 H   0  0  0  0  0  0  0  0  0  0  0  0
   58.8766   29.0878   43.7737 H   0  0  0  0  0  0  0  0  0  0  0  0
   58.2761   31.1958   42.1723 H   0  0  0  0  0  0  0  0  0  0  0  0
   56.6192   31.9283   42.3683 H   0  0  0  0  0  0  0  0  0  0  0  0
   59.1679   32.5656   43.8920 H   0  0  0  0  0  0  0  0  0  0  0  0
   58.0937   33.6530   42.8862 H   0  0  0  0  0  0  0  0  0  0  0  0
   56.7687   34.1414   44.6095 H   0  0  0  0  0  0  0  0  0  0  0  0
   56.7212   32.4048   45.1550 H   0  0  0  0  0  0  0  0  0  0  0  0
   59.2821   35.1912   44.9824 H   0  0  0  0  0  0  0  0  0  0  0  0
   60.7179   35.7816   46.9345 H   0  0  0  0  0  0  0  0  0  0  0  0
   60.5341   34.4885   49.0616 H   0  0  0  0  0  0  0  0  0  0  0  0
   58.9179   32.5931   49.2354 H   0  0  0  0  0  0  0  0  0  0  0  0
   57.4724   31.9984   47.2903 H   0  0  0  0  0  0  0  0  0  0  0  0
  1  2  1  0
  2  3  1  0
  3  4  2  0
  4  5  1  0
  5  6  1  0
  6  7  1  0
  7  8  1  0
  8  9  2  0
  9 10  1  0
 10 11  2  0
 11 12  1  0
 12 13  2  0
  4 14  1  0
 14 15  1  0
 15  2  2  0
 13  8  1  0
  1 16  1  0
  1 17  1  0
  1 18  1  0
  3 19  1  0
  5 20  1  0
  5 21  1  0
  6 22  1  0
  6 23  1  0
  7 24  1  0
  7 25  1  0
  9 26  1  0
 10 27  1  0
 11 28  1  0
 12 29  1  0
 13 30  1  0
M  END
>  <UniqueID>  (19) 
17

>  <SMILES>  (19) 
Cc1cc(CCCc2ccccc2)on1

>  <Energy>  (19) 
52.587895642058214

>  <Genealogy>  (19) 
Cc1cc(CCCc2ccccc2)on1 (3D coordinates assigned)
Cc1cc(CCCc2ccccc2)on1 (optimized conformer: 52.587895642058214 kcal/mol)

>  <smiles>  (19) 
Cc1cc(CCCc2ccccc2)on1

>  <score_type>  (19) 
oracle

>  <origin>  (19) 
adg

>  <m_score__min__energy>  (19) 
-7.0599999999999996

>  <m_primary>  (19) 
energy

$$$$
19:0
     RDKit          3D

 26 28  0  0  0  0  0  0  0  0999 V2000
   55.5240   29.3460   44.1750 C   0  0  0  0  0  0  0  0  0  0  0  0
   56.4110   30.5340   43.9870 C   0  0  0  0  0  0  0  0  0  0  0  0
   56.8190   30.9150   42.6880 C   0  0  0  0  0  0  0  0  0  0  0  0
   57.6590   32.0330   42.5340 C   0  0  0  0  0  0  0  0  0  0  0  0
   58.1460   32.4600   41.1810 C   0  0  0  0  0  0  0  0  0  0  0  0
   58.0590   32.6810   43.6600 N   0  0  0  0  0  0  0  0  0  0  0  0
   58.8630   33.7360   43.7410 N   0  0  0  0  0  0  0  0  0  0  0  0
   58.9660   34.0140   45.0610 C   0  0  0  0  0  0  0  0  0  0  0  0
   59.6990   35.0340   45.6610 C   0  0  0  0  0  0  0  0  0  0  0  0
   59.6600   35.1320   47.0660 C   0  0  0  0  0  0  0  0  0  0  0  0
   58.8970   34.2190   47.8310 C   0  0  0  0  0  0  0  0  0  0  0  0
   58.1630   33.1960   47.2030 C   0  0  0  0  0  0  0  0  0  0  0  0
   58.2240   33.1290   45.8140 C   0  0  0  0  0  0  0  0  0  0  0  0
   57.6620   32.2960   44.8850 C   0  0  0  0  0  0  0  0  0  0  0  0
   56.8450   31.2330   45.0770 N   0  0  0  0  0  0  0  0  0  0  0  0
   55.3844   29.1591   45.2500 H   0  0  0  0  0  0  0  0  0  0  0  0
   54.5477   29.5396   43.7067 H   0  0  0  0  0  0  0  0  0  0  0  0
   55.9870   28.4649   43.7067 H   0  0  0  0  0  0  0  0  0  0  0  0
   56.4840   30.3446   41.8091 H   0  0  0  0  0  0  0  0  0  0  0  0
   58.9684   33.1811   41.2981 H   0  0  0  0  0  0  0  0  0  0  0  0
   58.5055   31.5807   40.6264 H   0  0  0  0  0  0  0  0  0  0  0  0
   57.3212   32.9313   40.6264 H   0  0  0  0  0  0  0  0  0  0  0  0
   60.2891   35.7401   45.0583 H   0  0  0  0  0  0  0  0  0  0  0  0
   60.2282   35.9259   47.5728 H   0  0  0  0  0  0  0  0  0  0  0  0
   58.8773   34.3097   48.9271 H   0  0  0  0  0  0  0  0  0  0  0  0
   57.5658   32.4790   47.7855 H   0  0  0  0  0  0  0  0  0  0  0  0
  1  2  1  0
  2  3  1  0
  3  4  2  0
  4  5  1  0
  4  6  1  0
  6  7  1  0
  7  8  2  0
  8  9  1  0
  9 10  2  0
 10 11  1  0
 11 12  2  0
 12 13  1  0
 13 14  2  0
 14 15  1  0
 15  2  2  0
 14  6  1  0
 13  8  1  0
  1 16  1  0
  1 17  1  0
  1 18  1  0
  3 19  1  0
  5 20  1  0
  5 21  1  0
  5 22  1  0
  9 23  1  0
 10 24  1  0
 11 25  1  0
 12 26  1  0
M  END
>  <UniqueID>  (20) 
18

>  <SMILES>  (20) 
Cc1cc(C)n2nc3ccccc3c2n1

>  <Energy>  (20) 
72.28230952237713

>  <Genealogy>  (20) 
Cc1cc(C)n2nc3ccccc3c2n1 (3D coordinates assigned)
Cc1cc(C)n2nc3ccccc3c2n1 (optimized conformer: 72.28230952237713 kcal/mol)

>  <smiles>  (20) 
Cc1cc(C)n2nc3ccccc3c2n1

>  <score_type>  (20) 
oracle

>  <origin>  (20) 
adg

>  <m_score__min__energy>  (20) 
-6.9400000000000004

>  <m_primary>  (20) 
energy

$$$$
20:0
     RDKit          3D

 39 42  0  0  0  0  0  0  0  0999 V2000
   55.3767   26.4661   45.1618 H   0  0  0  0  0  0  0  0  0  0  0  0
   56.3670   26.4900   45.6400 C   0  0  0  0  0  0  0  0  0  0  0  0
   56.8830   25.3860   46.0860 N   0  0  0  0  0  0  0  0  0  0  0  0
   57.1080   24.2160   45.2890 C   0  0  0  0  0  0  0  0  0  0  0  0
   58.0840   23.3200   45.6160 N   0  0  0  0  0  0  0  0  0  0  0  0
   58.3120   22.2050   44.8720 C   0  0  0  0  0  0  0  0  0  0  0  0
   59.1076   21.5033   45.1630 H   0  0  0  0  0  0  0  0  0  0  0  0
   57.5370   21.9500   43.7390 C   0  0  0  0  0  0  0  0  0  0  0  0
   57.7164   21.0492   43.1337 H   0  0  0  0  0  0  0  0  0  0  0  0
   56.5320   22.8510   43.3830 C   0  0  0  0  0  0  0  0  0  0  0  0
   55.9141   22.6640   42.4924 H   0  0  0  0  0  0  0  0  0  0  0  0
   56.3130   23.9900   44.1600 C   0  0  0  0  0  0  0  0  0  0  0  0
   55.5220   24.7039   43.8869 H   0  0  0  0  0  0  0  0  0  0  0  0
   57.0840   27.7850   45.7610 C   0  0  0  0  0  0  0  0  0  0  0  0
   56.4380   28.9860   45.3550 C   0  0  0  0  0  0  0  0  0  0  0  0
   55.1440   28.9560   44.8500 O   0  0  0  0  0  0  0  0  0  0  0  0
   57.0750   30.1880   45.4560 N   0  0  0  0  0  0  0  0  0  0  0  0
   58.3340   30.2250   45.9460 C   0  0  0  0  0  0  0  0  0  0  0  0
   59.1690   31.3060   46.1460 C   0  0  0  0  0  0  0  0  0  0  0  0
   60.3080   30.7660   46.6700 C   0  0  0  0  0  0  0  0  0  0  0  0
   61.3690   31.5820   47.0120 C   0  0  0  0  0  0  0  0  0  0  0  0
   62.4140   31.0870   47.5160 O   0  0  0  0  0  0  0  0  0  0  0  0
   61.2480   32.9370   46.7930 N   0  0  0  0  0  0  0  0  0  0  0  0
   62.3480   33.8390   47.1730 C   0  0  0  0  0  0  0  0  0  0  0  0
   62.4150   33.8939   48.2696 H   0  0  0  0  0  0  0  0  0  0  0  0
   63.2949   33.4540   46.7667 H   0  0  0  0  0  0  0  0  0  0  0  0
   62.1559   34.8430   46.7667 H   0  0  0  0  0  0  0  0  0  0  0  0
   60.0680   33.4650   46.2850 C   0  0  0  0  0  0  0  0  0  0  0  0
   59.9570   34.7150   46.1400 O   0  0  0  0  0  0  0  0  0  0  0  0
   59.0140   32.6420   45.9410 N   0  0  0  0  0  0  0  0  0  0  0  0
   57.7550   33.1660   45.3930 C   0  0  0  0  0  0  0  0  0  0  0  0
   57.0839   33.4453   46.2186 H   0  0  0  0  0  0  0  0  0  0  0  0
   57.9645   34.0516   44.7751 H   0  0  0  0  0  0  0  0  0  0  0  0
   57.2743   32.3932   44.7751 H   0  0  0  0  0  0  0  0  0  0  0  0
   60.1860   29.4240   46.7880 N   0  0  0  0  0  0  0  0  0  0  0  0
   60.8930   28.7510   47.1600 H   0  0  0  0  0  0  0  0  0  0  0  0
   58.9750   29.1120   46.3390 N   0  0  0  0  0  0  0  0  0  0  0  0
   58.4050   27.8830   46.2700 C   0  0  0  0  0  0  0  0  0  0  0  0
   59.0460   26.8670   46.6530 O   0  0  0  0  0  0  0  0  0  0  0  0
  1  2  1  0
  2  3  2  0
  3  4  1  0
  4  5  2  0
  5  6  1  0
  6  7  1  0
  6  8  2  0
  8  9  1  0
  8 10  1  0
 10 11  1  0
 10 12  2  0
 12 13  1  0
  2 14  1  0
 14 15  2  0
 15 16  1  0
 15 17  1  0
 17 18  1  0
 18 19  2  0
 19 20  1  0
 20 21  1  0
 21 22  2  0
 21 23  1  0
 23 24  1  0
 24 25  1  0
 24 26  1  0
 24 27  1  0
 23 28  1  0
 28 29  2  0
 28 30  1  0
 30 31  1  0
 31 32  1  0
 31 33  1  0
 31 34  1  0
 20 35  2  0
 35 36  1  0
 35 37  1  0
 37 38  1  0
 38 39  2  0
 12  4  1  0
 38 14  1  0
 37 18  1  0
 30 19  1  0
M  CHG  3  16  -1  17  -1  35   1
M  END
>  <UniqueID>  (21) 
19

>  <SMILES>  (21) 
Cn1c(=O)c2[nH+]n3c(=O)c(/C=N/c4ccccn4)c([O-])[n-]c3c2n(C)c1=O

>  <Energy>  (21) 
104.24434785288717

>  <Genealogy>  (21) 
Cn1c(=O)c2[nH+]n3c(=O)c(C=Nc4ccccn4)c([O-])[n-]c3c2n(C)c1=O (protonated)
Cn1c(=O)c2[nH+]n3c(=O)c(/C=N/c4ccccn4)c([O-])[n-]c3c2n(C)c1=O (cis-trans isomerization)
Cn1c(=O)c2[nH+]n3c(=O)c(/C=N/c4ccccn4)c([O-])[n-]c3c2n(C)c1=O (3D coordinates assigned)
Cn1c(=O)c2[nH+]n3c(=O)c(/C=N/c4ccccn4)c([O-])[n-]c3c2n(C)c1=O (optimized conformer: 104.24434785288717 kcal/mol)

>  <smiles>  (21) 
Cn1c(=O)c2nn3c(=O)c(C=Nc4ccccn4)c(O)[nH]c3c2n(C)c1=O

>  <score_type>  (21) 
oracle

>  <origin>  (21) 
adg

>  <m_score__min__energy>  (21) 
-10.869999999999999

>  <m_primary>  (21) 
energy

$$$$
21:0
     RDKit          3D

 37 39  0  0  0  0  0  0  0  0999 V2000
   59.2870   31.2420   48.8120 C   0  0  0  0  0  0  0  0  0  0  0  0
   59.1200   32.7030   49.2150 C   0  0  0  0  0  0  0  0  0  0  0  0
   59.4250   33.5870   48.0850 N   0  0  0  0  0  0  0  0  0  0  0  0
   60.6450   34.0010   47.6370 C   0  0  0  0  0  0  0  0  0  0  0  0
   61.9370   33.7460   48.3130 C   0  0  0  0  0  0  0  0  0  0  0  0
   62.1600   34.2220   49.6140 C   0  0  0  0  0  0  0  0  0  0  0  0
   63.3710   33.9670   50.2630 C   0  0  0  0  0  0  0  0  0  0  0  0
   64.3760   33.2180   49.6230 C   0  0  0  0  0  0  0  0  0  0  0  0
   65.6080   32.9360   50.2310 O   0  0  0  0  0  0  0  0  0  0  0  0
   65.9620   31.6720   50.7820 C   0  0  0  0  0  0  0  0  0  0  0  0
   64.1450   32.7310   48.3320 C   0  0  0  0  0  0  0  0  0  0  0  0
   62.9340   32.9860   47.6820 C   0  0  0  0  0  0  0  0  0  0  0  0
   60.5260   34.5940   46.3800 C   0  0  0  0  0  0  0  0  0  0  0  0
   59.1770   34.5740   46.1120 C   0  0  0  0  0  0  0  0  0  0  0  0
   58.5560   33.9750   47.1320 C   0  0  0  0  0  0  0  0  0  0  0  0
   57.2170   33.4600   46.7770 C   0  0  0  0  0  0  0  0  0  0  0  0
   57.0270   34.0000   45.3350 C   0  0  0  0  0  0  0  0  0  0  0  0
   58.3800   34.6010   44.8730 C   0  0  0  0  0  0  0  0  0  0  0  0
   59.3583   30.6183   49.7153 H   0  0  0  0  0  0  0  0  0  0  0  0
   58.4193   30.9248   48.2150 H   0  0  0  0  0  0  0  0  0  0  0  0
   60.2039   31.1288   48.2150 H   0  0  0  0  0  0  0  0  0  0  0  0
   58.0821   32.8730   49.5374 H   0  0  0  0  0  0  0  0  0  0  0  0
   59.8148   32.9261   50.0381 H   0  0  0  0  0  0  0  0  0  0  0  0
   61.3765   34.7996   50.1263 H   0  0  0  0  0  0  0  0  0  0  0  0
   63.5395   34.3535   51.2790 H   0  0  0  0  0  0  0  0  0  0  0  0
   65.9449   31.7330   51.8802 H   0  0  0  0  0  0  0  0  0  0  0  0
   65.2424   30.9110   50.4458 H   0  0  0  0  0  0  0  0  0  0  0  0
   66.9722   31.3954   50.4458 H   0  0  0  0  0  0  0  0  0  0  0  0
   64.9231   32.1423   47.8240 H   0  0  0  0  0  0  0  0  0  0  0  0
   62.7616   32.5890   46.6707 H   0  0  0  0  0  0  0  0  0  0  0  0
   61.3319   34.9897   45.7444 H   0  0  0  0  0  0  0  0  0  0  0  0
   57.1949   32.3604   46.7968 H   0  0  0  0  0  0  0  0  0  0  0  0
   56.4253   33.7743   47.4730 H   0  0  0  0  0  0  0  0  0  0  0  0
   56.7330   33.1797   44.6637 H   0  0  0  0  0  0  0  0  0  0  0  0
   56.2379   34.7660   45.3119 H   0  0  0  0  0  0  0  0  0  0  0  0
   58.8426   33.9839   44.0886 H   0  0  0  0  0  0  0  0  0  0  0  0
   58.2876   35.6042   44.4313 H   0  0  0  0  0  0  0  0  0  0  0  0
  1  2  1  0
  2  3  1  0
  3  4  1  0
  4  5  1  0
  5  6  2  0
  6  7  1  0
  7  8  2  0
  8  9  1  0
  9 10  1  0
  8 11  1  0
 11 12  2  0
  4 13  2  0
 13 14  1  0
 14 15  2  0
 15 16  1  0
 16 17  1  0
 17 18  1  0
 15  3  1  0
 12  5  1  0
 18 14  1  0
  1 19  1  0
  1 20  1  0
  1 21  1  0
  2 22  1  0
  2 23  1  0
  6 24  1  0
  7 25  1  0
 10 26  1  0
 10 27  1  0
 10 28  1  0
 11 29  1  0
 12 30  1  0
 13 31  1  0
 16 32  1  0
 16 33  1  0
 17 34  1  0
 17 35  1  0
 18 36  1  0
 18 37  1  0
M  END
>  <UniqueID>  (22) 
20

>  <SMILES>  (22) 
CCn1c(-c2ccc(OC)cc2)cc2c1CCC2

>  <Energy>  (22) 
86.53804083957331

>  <Genealogy>  (22) 
CCn1c(-c2ccc(OC)cc2)cc2c1CCC2 (3D coordinates assigned)
CCn1c(-c2ccc(OC)cc2)cc2c1CCC2 (nonaromatic ring conformer: 86.53804083957331 kcal/mol)

>  <smiles>  (22) 
CCn1c(-c2ccc(OC)cc2)cc2c1CCC2

>  <score_type>  (22) 
oracle

>  <origin>  (22) 
adg

>  <m_score__min__energy>  (22) 
-6.1900000000000004

>  <m_primary>  (22) 
energy

$$$$
22:0
     RDKit          3D

 42 45  0  0  0  0  0  0  0  0999 V2000
   56.6730   30.6850   44.8920 O   0  0  0  0  0  0  0  0  0  0  0  0
   57.7700   30.9040   45.4740 C   0  0  0  0  0  0  0  0  0  0  0  0
   58.2770   32.2920   45.5900 C   0  0  0  0  0  0  0  0  0  0  0  0
   57.8270   33.3120   44.7370 C   0  0  0  0  0  0  0  0  0  0  0  0
   58.3220   34.6120   44.8750 C   0  0  0  0  0  0  0  0  0  0  0  0
   59.2560   34.9100   45.8700 C   0  0  0  0  0  0  0  0  0  0  0  0
   59.7030   33.9060   46.7410 C   0  0  0  0  0  0  0  0  0  0  0  0
   60.6150   34.1970   47.7670 C   0  0  0  0  0  0  0  0  0  0  0  0
   61.0260   33.1930   48.6470 C   0  0  0  0  0  0  0  0  0  0  0  0
   60.5380   31.8890   48.5100 C   0  0  0  0  0  0  0  0  0  0  0  0
   59.6370   31.5770   47.4790 C   0  0  0  0  0  0  0  0  0  0  0  0
   59.2160   32.5850   46.5940 C   0  0  0  0  0  0  0  0  0  0  0  0
   59.1160   30.2000   47.2950 C   0  0  0  0  0  0  0  0  0  0  0  0
   59.2520   29.3470   48.2150 O   0  0  0  0  0  0  0  0  0  0  0  0
   58.5320   29.8020   46.0290 N   0  0  0  0  0  0  0  0  0  0  0  0
   59.6110   29.3770   45.0930 C   0  0  0  0  0  0  0  0  0  0  0  0
   59.6530   27.8410   44.8610 C   0  0  0  0  0  0  0  0  0  0  0  0
   58.3060   27.3340   44.2700 C   0  0  0  0  0  0  0  0  0  0  0  0
   57.3610   26.8150   45.3600 C   0  0  0  0  0  0  0  0  0  0  0  0
   57.9700   25.6160   46.1150 C   0  0  0  0  0  0  0  0  0  0  0  0
   59.5110   25.6390   46.1520 C   0  0  0  0  0  0  0  0  0  0  0  0
   60.0510   27.0720   46.1500 C   0  0  0  0  0  0  0  0  0  0  0  0
   57.0832   33.0878   43.9582 H   0  0  0  0  0  0  0  0  0  0  0  0
   57.9741   35.4047   44.1963 H   0  0  0  0  0  0  0  0  0  0  0  0
   59.6420   35.9351   45.9706 H   0  0  0  0  0  0  0  0  0  0  0  0
   61.0074   35.2186   47.8786 H   0  0  0  0  0  0  0  0  0  0  0  0
   61.7373   33.4290   49.4522 H   0  0  0  0  0  0  0  0  0  0  0  0
   60.8610   31.1060   49.2118 H   0  0  0  0  0  0  0  0  0  0  0  0
   57.8770   29.0070   46.2190 H   0  0  0  0  0  0  0  0  0  0  0  0
   59.4481   29.8722   44.1244 H   0  0  0  0  0  0  0  0  0  0  0  0
   60.5700   29.6642   45.5490 H   0  0  0  0  0  0  0  0  0  0  0  0
   60.4394   27.6342   44.1202 H   0  0  0  0  0  0  0  0  0  0  0  0
   57.8156   28.1640   43.7402 H   0  0  0  0  0  0  0  0  0  0  0  0
   58.5265   26.5012   43.5861 H   0  0  0  0  0  0  0  0  0  0  0  0
   57.1636   27.6255   46.0770 H   0  0  0  0  0  0  0  0  0  0  0  0
   56.4300   26.4816   44.8783 H   0  0  0  0  0  0  0  0  0  0  0  0
   57.5955   25.6277   47.1492 H   0  0  0  0  0  0  0  0  0  0  0  0
   57.6701   24.7049   45.5765 H   0  0  0  0  0  0  0  0  0  0  0  0
   59.8543   25.1289   47.0641 H   0  0  0  0  0  0  0  0  0  0  0  0
   59.8855   25.1277   45.2529 H   0  0  0  0  0  0  0  0  0  0  0  0
   59.6450   27.6059   47.0219 H   0  0  0  0  0  0  0  0  0  0  0  0
   61.1491   27.0217   46.1906 H   0  0  0  0  0  0  0  0  0  0  0  0
  1  2  2  0
  2  3  1  0
  3  4  1  0
  4  5  2  0
  5  6  1  0
  6  7  2  0
  7  8  1  0
  8  9  2  0
  9 10  1  0
 10 11  2  0
 11 12  1  0
 11 13  1  0
 13 14  2  0
 13 15  1  0
 15 16  1  0
 16 17  1  0
 17 18  1  0
 18 19  1  0
 19 20  1  0
 20 21  1  0
 21 22  1  0
 15  2  1  0
 22 17  1  0
 12  3  2  0
 12  7  1  0
  4 23  1  0
  5 24  1  0
  6 25  1  0
  8 26  1  0
  9 27  1  0
 10 28  1  0
 15 29  1  0
 16 30  1  0
 16 31  1  0
 17 32  1  0
 18 33  1  0
 18 34  1  0
 19 35  1  0
 19 36  1  0
 20 37  1  0
 20 38  1  0
 21 39  1  0
 21 40  1  0
 22 41  1  0
 22 42  1  0
M  CHG  1  15   1
M  END
>  <UniqueID>  (23) 
21

>  <SMILES>  (23) 
O=C1c2cccc3cccc(c23)C(=O)[NH+]1CC1CCCCC1

>  <Energy>  (23) 
61.22500611743717

>  <Genealogy>  (23) 
O=C1c2cccc3cccc(c23)C(=O)[NH+]1CC1CCCCC1 (protonated)
O=C1c2cccc3cccc(c23)C(=O)[NH+]1CC1CCCCC1 (3D coordinates assigned)
O=C1c2cccc3cccc(c23)C(=O)[NH+]1CC1CCCCC1 (nonaromatic ring conformer: 61.22500611743717 kcal/mol)

>  <smiles>  (23) 
O=C1c2cccc3cccc(c23)C(=O)N1CC1CCCCC1

>  <score_type>  (23) 
oracle

>  <origin>  (23) 
adg

>  <m_score__min__energy>  (23) 
-6.79

>  <m_primary>  (23) 
energy

$$$$
23:0
     RDKit          3D

 52 55  0  0  0  0  0  0  0  0999 V2000
   58.9650   32.7660   51.0670 C   0  0  0  0  0  0  0  0  0  0  0  0
   58.7750   32.2270   49.7630 O   0  0  0  0  0  0  0  0  0  0  0  0
   59.4560   31.1070   49.2550 C   0  0  0  0  0  0  0  0  0  0  0  0
   59.6130   29.9290   50.0120 C   0  0  0  0  0  0  0  0  0  0  0  0
   60.2600   28.8160   49.4680 C   0  0  0  0  0  0  0  0  0  0  0  0
   60.4040   27.6610   50.2350 O   0  0  0  0  0  0  0  0  0  0  0  0
   60.7540   28.8680   48.1600 C   0  0  0  0  0  0  0  0  0  0  0  0
   60.6110   30.0310   47.4020 C   0  0  0  0  0  0  0  0  0  0  0  0
   59.9830   31.1620   47.9470 C   0  0  0  0  0  0  0  0  0  0  0  0
   59.8700   32.3850   47.1220 C   0  0  0  0  0  0  0  0  0  0  0  0
   58.8670   32.4510   46.2060 N   0  0  0  0  0  0  0  0  0  0  0  0
   58.6610   33.5230   45.4370 N   0  0  0  0  0  0  0  0  0  0  0  0
   57.5310   33.4990   44.5050 C   0  0  0  0  0  0  0  0  0  0  0  0
   57.7810   32.4740   43.3950 C   0  0  0  0  0  0  0  0  0  0  0  0
   57.5410   31.0770   43.8980 C   0  0  0  0  0  0  0  0  0  0  0  0
   56.2310   30.6130   44.1080 C   0  0  0  0  0  0  0  0  0  0  0  0
   56.0120   29.3260   44.6060 C   0  0  0  0  0  0  0  0  0  0  0  0
   57.0950   28.4970   44.9080 C   0  0  0  0  0  0  0  0  0  0  0  0
   58.4020   28.9560   44.7160 C   0  0  0  0  0  0  0  0  0  0  0  0
   58.6260   30.2430   44.2180 C   0  0  0  0  0  0  0  0  0  0  0  0
   59.4570   34.6290   45.5670 C   0  0  0  0  0  0  0  0  0  0  0  0
   59.2530   35.6600   44.8670 O   0  0  0  0  0  0  0  0  0  0  0  0
   60.5100   34.6200   46.4780 C   0  0  0  0  0  0  0  0  0  0  0  0
   60.7450   33.4850   47.2620 C   0  0  0  0  0  0  0  0  0  0  0  0
   61.9140   33.4650   48.1750 C   0  0  0  0  0  0  0  0  0  0  0  0
   63.0760   32.7490   47.8390 C   0  0  0  0  0  0  0  0  0  0  0  0
   64.1650   32.7180   48.7140 C   0  0  0  0  0  0  0  0  0  0  0  0
   64.1070   33.4080   49.9280 C   0  0  0  0  0  0  0  0  0  0  0  0
   62.9620   34.1340   50.2660 C   0  0  0  0  0  0  0  0  0  0  0  0
   61.8710   34.1680   49.3920 C   0  0  0  0  0  0  0  0  0  0  0  0
   58.6981   32.0090   51.8191 H   0  0  0  0  0  0  0  0  0  0  0  0
   60.0189   33.0541   51.1947 H   0  0  0  0  0  0  0  0  0  0  0  0
   58.3248   33.6513   51.1947 H   0  0  0  0  0  0  0  0  0  0  0  0
   59.2231   29.8850   51.0396 H   0  0  0  0  0  0  0  0  0  0  0  0
   60.3430   27.6860   51.2460 H   0  0  0  0  0  0  0  0  0  0  0  0
   61.2564   27.9899   47.7280 H   0  0  0  0  0  0  0  0  0  0  0  0
   60.9928   30.0616   46.3709 H   0  0  0  0  0  0  0  0  0  0  0  0
   56.6157   33.2270   45.0510 H   0  0  0  0  0  0  0  0  0  0  0  0
   57.4175   34.4957   44.0536 H   0  0  0  0  0  0  0  0  0  0  0  0
   57.1001   32.6775   42.5554 H   0  0  0  0  0  0  0  0  0  0  0  0
   58.8274   32.5567   43.0661 H   0  0  0  0  0  0  0  0  0  0  0  0
   55.3752   31.2653   43.8795 H   0  0  0  0  0  0  0  0  0  0  0  0
   54.9845   28.9648   44.7606 H   0  0  0  0  0  0  0  0  0  0  0  0
   56.9198   27.4831   45.2969 H   0  0  0  0  0  0  0  0  0  0  0  0
   59.2545   28.3039   44.9570 H   0  0  0  0  0  0  0  0  0  0  0  0
   59.6553   30.6042   44.0761 H   0  0  0  0  0  0  0  0  0  0  0  0
   61.1564   35.5041   46.5813 H   0  0  0  0  0  0  0  0  0  0  0  0
   63.1284   32.2099   46.8816 H   0  0  0  0  0  0  0  0  0  0  0  0
   65.0685   32.1501   48.4471 H   0  0  0  0  0  0  0  0  0  0  0  0
   64.9633   33.3795   50.6179 H   0  0  0  0  0  0  0  0  0  0  0  0
   62.9188   34.6792   51.2204 H   0  0  0  0  0  0  0  0  0  0  0  0
   60.9747   34.7476   49.6578 H   0  0  0  0  0  0  0  0  0  0  0  0
  1  2  1  0
  2  3  1  0
  3  4  2  0
  4  5  1  0
  5  6  1  0
  5  7  2  0
  7  8  1  0
  8  9  2  0
  9 10  1  0
 10 11  2  0
 11 12  1  0
 12 13  1  0
 13 14  1  0
 14 15  1  0
 15 16  2  0
 16 17  1  0
 17 18  2  0
 18 19  1  0
 19 20  2  0
 12 21  1  0
 21 22  2  0
 21 23  1  0
 23 24  2  0
 24 25  1  0
 25 26  2  0
 26 27  1  0
 27 28  2  0
 28 29  1  0
 29 30  2  0
  9  3  1  0
 24 10  1  0
 30 25  1  0
 20 15  1  0
  1 31  1  0
  1 32  1  0
  1 33  1  0
  4 34  1  0
  6 35  1  0
  7 36  1  0
  8 37  1  0
 13 38  1  0
 13 39  1  0
 14 40  1  0
 14 41  1  0
 16 42  1  0
 17 43  1  0
 18 44  1  0
 19 45  1  0
 20 46  1  0
 23 47  1  0
 26 48  1  0
 27 49  1  0
 28 50  1  0
 29 51  1  0
 30 52  1  0
M  END
>  <UniqueID>  (24) 
22

>  <SMILES>  (24) 
COc1cc(O)ccc1-c1nn(CCc2ccccc2)c(=O)cc1-c1ccccc1

>  <Energy>  (24) 
66.1923059548352

>  <Genealogy>  (24) 
COc1cc(O)ccc1-c1nn(CCc2ccccc2)c(=O)cc1-c1ccccc1 (3D coordinates assigned)
COc1cc(O)ccc1-c1nn(CCc2ccccc2)c(=O)cc1-c1ccccc1 (optimized conformer: 66.1923059548352 kcal/mol)

>  <smiles>  (24) 
COc1cc(O)ccc1-c1nn(CCc2ccccc2)c(=O)cc1-c1ccccc1

>  <score_type>  (24) 
oracle

>  <origin>  (24) 
adg

>  <m_score__min__energy>  (24) 
-7.96

>  <m_primary>  (24) 
energy

$$$$
24:0
     RDKit          3D

 32 34  0  0  0  0  0  0  0  0999 V2000
   55.0180   25.0090   45.6540 C   0  0  0  0  0  0  0  0  0  0  0  0
   56.3000   25.7760   45.7150 C   0  0  0  0  0  0  0  0  0  0  0  0
   57.5200   25.1060   45.8490 C   0  0  0  0  0  0  0  0  0  0  0  0
   58.6960   25.8610   45.8870 C   0  0  0  0  0  0  0  0  0  0  0  0
   60.0250   25.1880   46.0130 C   0  0  0  0  0  0  0  0  0  0  0  0
   58.6290   27.2140   45.7790 N   0  0  0  0  0  0  0  0  0  0  0  0
   57.4360   27.8560   45.6530 C   0  0  0  0  0  0  0  0  0  0  0  0
   57.3750   29.3230   45.5160 C   0  0  0  0  0  0  0  0  0  0  0  0
   56.3780   29.9480   44.8610 N   0  0  0  0  0  0  0  0  0  0  0  0
   56.6420   31.2210   44.8730 O   0  0  0  0  0  0  0  0  0  0  0  0
   57.7660   31.4750   45.5010 C   0  0  0  0  0  0  0  0  0  0  0  0
   58.3230   32.8360   45.6230 C   0  0  0  0  0  0  0  0  0  0  0  0
   58.5450   33.6970   44.5550 C   0  0  0  0  0  0  0  0  0  0  0  0
   59.1370   34.9100   44.9290 C   0  0  0  0  0  0  0  0  0  0  0  0
   59.3950   35.0080   46.2900 C   0  0  0  0  0  0  0  0  0  0  0  0
   58.8890   33.5830   47.0220 S   0  0  0  0  0  0  0  0  0  0  0  0
   58.2830   30.2740   45.9710 C   0  0  0  0  0  0  0  0  0  0  0  0
   59.5260   30.0560   46.7840 C   0  0  0  0  0  0  0  0  0  0  0  0
   56.2860   27.1320   45.6130 N   0  0  0  0  0  0  0  0  0  0  0  0
   54.6673   24.7992   46.6753 H   0  0  0  0  0  0  0  0  0  0  0  0
   54.2606   25.6025   45.1209 H   0  0  0  0  0  0  0  0  0  0  0  0
   55.1829   24.0610   45.1209 H   0  0  0  0  0  0  0  0  0  0  0  0
   57.5537   24.0090   45.9229 H   0  0  0  0  0  0  0  0  0  0  0  0
   60.2730   25.0624   47.0773 H   0  0  0  0  0  0  0  0  0  0  0  0
   59.9842   24.2019   45.5272 H   0  0  0  0  0  0  0  0  0  0  0  0
   60.7957   25.8045   45.5272 H   0  0  0  0  0  0  0  0  0  0  0  0
   58.2812   33.4497   43.5161 H   0  0  0  0  0  0  0  0  0  0  0  0
   59.3751   35.7097   44.2122 H   0  0  0  0  0  0  0  0  0  0  0  0
   59.8514   35.8691   46.8002 H   0  0  0  0  0  0  0  0  0  0  0  0
   59.2764   30.0998   47.8544 H   0  0  0  0  0  0  0  0  0  0  0  0
   59.9511   29.0696   46.5467 H   0  0  0  0  0  0  0  0  0  0  0  0
   60.2614   30.8389   46.5467 H   0  0  0  0  0  0  0  0  0  0  0  0
  1  2  1  0
  2  3  2  0
  3  4  1  0
  4  5  1  0
  4  6  2  0
  6  7  1  0
  7  8  1  0
  8  9  2  0
  9 10  1  0
 10 11  1  0
 11 12  1  0
 12 13  2  0
 13 14  1  0
 14 15  2  0
 15 16  1  0
 11 17  2  0
 17 18  1  0
  7 19  2  0
 19  2  1  0
 17  8  1  0
 16 12  1  0
  1 20  1  0
  1 21  1  0
  1 22  1  0
  3 23  1  0
  5 24  1  0
  5 25  1  0
  5 26  1  0
 13 27  1  0
 14 28  1  0
 15 29  1  0
 18 30  1  0
 18 31  1  0
 18 32  1  0
M  END
>  <UniqueID>  (25) 
23

>  <SMILES>  (25) 
Cc1cc(C)nc(-c2noc(-c3cccs3)c2C)n1

>  <Energy>  (25) 
91.24590146628447

>  <Genealogy>  (25) 
Cc1cc(C)nc(-c2noc(-c3cccs3)c2C)n1 (3D coordinates assigned)
Cc1cc(C)nc(-c2noc(-c3cccs3)c2C)n1 (optimized conformer: 91.24590146628447 kcal/mol)

>  <smiles>  (25) 
Cc1cc(C)nc(-c2noc(-c3cccs3)c2C)n1

>  <score_type>  (25) 
oracle

>  <origin>  (25) 
adg

>  <m_score__min__energy>  (25) 
-7.3300000000000001

>  <m_primary>  (25) 
energy

$$$$
25:0
     RDKit          3D

 50 52  0  0  1  0  0  0  0  0999 V2000
   56.2680   24.5310   45.0330 C   0  0  0  0  0  0  0  0  0  0  0  0
   55.1510   25.3120   45.7010 C   0  0  0  0  0  0  0  0  0  0  0  0
   55.5860   26.5950   45.9940 O   0  0  0  0  0  0  0  0  0  0  0  0
   56.8840   26.8340   45.6150 C   0  0  0  0  0  0  0  0  0  0  0  0
   57.2950   28.2110   45.6510 N   0  0  0  0  0  0  0  0  0  0  0  0
   58.4560   28.5190   46.2890 C   0  0  0  0  0  0  0  0  0  0  0  0
   58.9030   29.8260   46.3650 C   0  0  0  0  0  0  0  0  0  0  0  0
   58.1980   30.8640   45.8020 C   0  0  0  0  0  0  0  0  0  0  0  0
   58.6420   32.2520   45.8640 C   0  0  0  0  0  0  0  0  0  0  0  0
   58.8220   32.9350   44.7150 N   0  0  0  0  0  0  0  0  0  0  0  0
   59.2290   34.2150   44.7050 C   0  0  0  0  0  0  0  0  0  0  0  0
   59.4820   34.8930   45.8860 C   0  0  0  0  0  0  0  0  0  0  0  0
   59.8920   36.1790   45.9080 F   0  0  0  0  0  0  0  0  0  0  0  0
   59.2950   34.1870   47.0610 C   0  0  0  0  0  0  0  0  0  0  0  0
   59.5210   34.7830   48.1810 N   0  0  0  0  0  0  0  0  0  0  0  0
   60.4550   34.1950   49.1520 C   0  0  0  0  0  0  0  0  0  0  0  0
   61.6080   33.7010   48.3030 C   0  0  0  0  0  0  0  0  0  0  0  0
   62.9540   34.1990   48.7750 C   0  0  0  0  0  0  0  0  0  0  0  0
   64.0490   33.2930   48.3120 C   0  0  0  0  0  0  0  0  0  0  0  0
   63.7210   32.5880   47.0900 N   0  0  0  0  0  0  0  0  0  0  0  0
   62.5410   31.7930   47.1460 C   0  0  0  0  0  0  0  0  0  0  0  0
   61.6880   32.1880   48.3570 C   0  0  0  0  0  0  0  0  0  0  0  0
   58.8830   32.8950   47.0030 N   0  0  0  0  0  0  0  0  0  0  0  0
   57.0200   30.5400   45.1570 C   0  0  0  0  0  0  0  0  0  0  0  0
   56.6040   29.2240   45.1000 C   0  0  0  0  0  0  0  0  0  0  0  0
   55.5270   28.9890   44.4990 O   0  0  0  0  0  0  0  0  0  0  0  0
   56.9119   24.0808   45.8029 H   0  0  0  0  0  0  0  0  0  0  0  0
   55.8362   23.7370   44.4060 H   0  0  0  0  0  0  0  0  0  0  0  0
   56.8655   25.2092   44.4060 H   0  0  0  0  0  0  0  0  0  0  0  0
   54.2865   25.3653   45.0230 H   0  0  0  0  0  0  0  0  0  0  0  0
   54.8601   24.8052   46.6329 H   0  0  0  0  0  0  0  0  0  0  0  0
   57.5436   26.2656   46.2873 H   0  0  0  0  0  0  0  0  0  0  0  0
   56.9530   26.5254   44.5614 H   0  0  0  0  0  0  0  0  0  0  0  0
   59.0488   27.7163   46.7518 H   0  0  0  0  0  0  0  0  0  0  0  0
   59.8461   30.0404   46.8890 H   0  0  0  0  0  0  0  0  0  0  0  0
   59.3635   34.7329   43.7439 H   0  0  0  0  0  0  0  0  0  0  0  0
   60.7972   34.9523   49.8727 H   0  0  0  0  0  0  0  0  0  0  0  0
   59.9952   33.3926   49.7476 H   0  0  0  0  0  0  0  0  0  0  0  0
   61.4048   34.0820   47.2913 H   0  0  0  0  0  0  0  0  0  0  0  0
   63.1265   35.2079   48.3721 H   0  0  0  0  0  0  0  0  0  0  0  0
   62.9557   34.2197   49.8748 H   0  0  0  0  0  0  0  0  0  0  0  0
   64.9524   33.8957   48.1373 H   0  0  0  0  0  0  0  0  0  0  0  0
   64.2049   32.5375   49.0962 H   0  0  0  0  0  0  0  0  0  0  0  0
   64.5340   31.9720   46.8650 H   0  0  0  0  0  0  0  0  0  0  0  0
   61.9572   31.9453   46.2262 H   0  0  0  0  0  0  0  0  0  0  0  0
   62.8274   30.7352   47.2408 H   0  0  0  0  0  0  0  0  0  0  0  0
   60.6839   31.7448   48.2839 H   0  0  0  0  0  0  0  0  0  0  0  0
   62.1217   31.8304   49.3025 H   0  0  0  0  0  0  0  0  0  0  0  0
   58.7620   32.4240   47.9250 H   0  0  0  0  0  0  0  0  0  0  0  0
   56.4137   31.3296   44.6891 H   0  0  0  0  0  0  0  0  0  0  0  0
  1  2  1  0
  2  3  1  0
  3  4  1  0
  4  5  1  0
  5  6  1  0
  6  7  2  0
  7  8  1  0
  8  9  1  0
  9 10  2  0
 10 11  1  0
 11 12  2  0
 12 13  1  0
 12 14  1  0
 14 15  2  0
 15 16  1  0
 16 17  1  0
 17 18  1  0
 18 19  1  0
 19 20  1  0
 20 21  1  0
 21 22  1  0
 14 23  1  0
  8 24  2  0
 24 25  1  0
 25 26  2  0
 25  5  1  0
 23  9  1  0
 22 17  1  0
  1 27  1  0
  1 28  1  0
  1 29  1  0
  2 30  1  0
  2 31  1  0
  4 32  1  0
  4 33  1  0
  6 34  1  0
  7 35  1  0
 11 36  1  0
 16 37  1  0
 16 38  1  0
 17 39  1  0
 18 40  1  0
 18 41  1  0
 19 42  1  0
 19 43  1  0
 20 44  1  0
 21 45  1  0
 21 46  1  0
 22 47  1  0
 22 48  1  0
 23 49  1  0
 24 50  1  0
M  END
>  <smiles>  (26) 
CCOCn1ccc(-c2ncc(F)c(=NCC3CCNCC3)[nH]2)cc1=O

>  <score_type>  (26) 
oracle

>  <origin>  (26) 
adg

>  <m_score__min__energy>  (26) 
-7.7800000000000002

>  <m_primary>  (26) 
energy

$$$$
26:0
     RDKit          3D

 44 45  0  0  0  0  0  0  0  0999 V2000
   59.2110   30.6880   50.4760 C   0  0  0  0  0  0  0  0  0  0  0  0
   60.3960   30.1010   50.2860 C   0  0  0  0  0  0  0  0  0  0  0  0
   60.9820   29.9340   48.9100 C   0  0  0  0  0  0  0  0  0  0  0  0
   59.9290   29.6190   47.9210 N   0  0  0  0  0  0  0  0  0  0  0  0
   59.4860   28.3250   47.8720 C   0  0  0  0  0  0  0  0  0  0  0  0
   58.4860   27.9240   46.9800 C   0  0  0  0  0  0  0  0  0  0  0  0
   58.0420   26.5090   46.9810 C   0  0  0  0  0  0  0  0  0  0  0  0
   58.8430   25.6130   47.3640 O   0  0  0  0  0  0  0  0  0  0  0  0
   56.7080   26.1540   46.5840 N   0  0  0  0  0  0  0  0  0  0  0  0
   56.2580   24.7650   46.4980 C   0  0  0  0  0  0  0  0  0  0  0  0
   54.9370   24.6640   45.7320 C   0  0  0  0  0  0  0  0  0  0  0  0
   54.3210   25.9210   45.6430 O   0  0  0  0  0  0  0  0  0  0  0  0
   57.9480   28.8690   46.0960 C   0  0  0  0  0  0  0  0  0  0  0  0
   57.0940   28.5150   45.2360 O   0  0  0  0  0  0  0  0  0  0  0  0
   58.3820   30.2070   46.1520 C   0  0  0  0  0  0  0  0  0  0  0  0
   57.8330   31.1750   45.2890 C   0  0  0  0  0  0  0  0  0  0  0  0
   58.2530   32.5140   45.3480 C   0  0  0  0  0  0  0  0  0  0  0  0
   57.7210   33.5000   44.5010 O   0  0  0  0  0  0  0  0  0  0  0  0
   56.8870   34.5720   44.9300 C   0  0  0  0  0  0  0  0  0  0  0  0
   59.2280   32.8930   46.2730 C   0  0  0  0  0  0  0  0  0  0  0  0
   59.6190   34.2430   46.3070 O   0  0  0  0  0  0  0  0  0  0  0  0
   59.9660   34.9580   47.4900 C   0  0  0  0  0  0  0  0  0  0  0  0
   59.7880   31.9320   47.1350 C   0  0  0  0  0  0  0  0  0  0  0  0
   59.3820   30.5770   47.0880 C   0  0  0  0  0  0  0  0  0  0  0  0
   58.8077   30.7962   51.4937 H   0  0  0  0  0  0  0  0  0  0  0  0
   58.6387   31.0631   49.6148 H   0  0  0  0  0  0  0  0  0  0  0  0
   60.9571   29.7307   51.1567 H   0  0  0  0  0  0  0  0  0  0  0  0
   61.4834   30.8681   48.6166 H   0  0  0  0  0  0  0  0  0  0  0  0
   61.7012   29.1020   48.9337 H   0  0  0  0  0  0  0  0  0  0  0  0
   59.9277   27.5813   48.5515 H   0  0  0  0  0  0  0  0  0  0  0  0
   56.0170   26.9050   46.3620 H   0  0  0  0  0  0  0  0  0  0  0  0
   57.0227   24.1705   45.9766 H   0  0  0  0  0  0  0  0  0  0  0  0
   56.1025   24.3828   47.5177 H   0  0  0  0  0  0  0  0  0  0  0  0
   55.1349   24.2857   44.7182 H   0  0  0  0  0  0  0  0  0  0  0  0
   54.2665   23.9776   46.2699 H   0  0  0  0  0  0  0  0  0  0  0  0
   53.6490   25.9630   46.3720 H   0  0  0  0  0  0  0  0  0  0  0  0
   57.0652   30.8786   44.5592 H   0  0  0  0  0  0  0  0  0  0  0  0
   56.8641   34.6014   46.0294 H   0  0  0  0  0  0  0  0  0  0  0  0
   57.2853   35.5227   44.5460 H   0  0  0  0  0  0  0  0  0  0  0  0
   55.8675   34.4197   44.5460 H   0  0  0  0  0  0  0  0  0  0  0  0
   59.6794   34.3675   48.3727 H   0  0  0  0  0  0  0  0  0  0  0  0
   61.0512   35.1371   47.5052 H   0  0  0  0  0  0  0  0  0  0  0  0
   59.4352   35.9213   47.5052 H   0  0  0  0  0  0  0  0  0  0  0  0
   60.5563   32.2399   47.8595 H   0  0  0  0  0  0  0  0  0  0  0  0
  1  2  2  0
  2  3  1  0
  3  4  1  0
  4  5  1  0
  5  6  2  0
  6  7  1  0
  7  8  2  0
  7  9  1  0
  9 10  1  0
 10 11  1  0
 11 12  1  0
  6 13  1  0
 13 14  2  0
 13 15  1  0
 15 16  2  0
 16 17  1  0
 17 18  1  0
 18 19  1  0
 17 20  2  0
 20 21  1  0
 21 22  1  0
 20 23  1  0
 23 24  2  0
 24  4  1  0
 24 15  1  0
  1 25  1  0
  1 26  1  0
  2 27  1  0
  3 28  1  0
  3 29  1  0
  5 30  1  0
  9 31  1  0
 10 32  1  0
 10 33  1  0
 11 34  1  0
 11 35  1  0
 12 36  1  0
 16 37  1  0
 19 38  1  0
 19 39  1  0
 19 40  1  0
 22 41  1  0
 22 42  1  0
 22 43  1  0
 23 44  1  0
M  END
>  <UniqueID>  (27) 
24

>  <SMILES>  (27) 
C=CCn1cc(C(=O)NCCO)c(=O)c2cc(OC)c(OC)cc21

>  <Energy>  (27) 
50.12434420971062

>  <Genealogy>  (27) 
C=CCn1cc(C(=O)NCCO)c(=O)c2cc(OC)c(OC)cc21 (3D coordinates assigned)
C=CCn1cc(C(=O)NCCO)c(=O)c2cc(OC)c(OC)cc21 (optimized conformer: 50.12434420971062 kcal/mol)

>  <smiles>  (27) 
C=CCn1cc(C(=O)NCCO)c(=O)c2cc(OC)c(OC)cc21

>  <score_type>  (27) 
oracle

>  <origin>  (27) 
adg

>  <m_score__min__energy>  (27) 
-6.7000000000000002

>  <m_primary>  (27) 
energy

$$$$
27:0
     RDKit          3D

 60 62  0  0  0  0  0  0  0  0999 V2000
   58.1370   26.9950   42.8340 C   0  0  0  0  0  0  0  0  0  0  0  0
   57.7300   25.6480   43.4090 C   0  0  0  0  0  0  0  0  0  0  0  0
   58.1120   25.5810   44.7800 O   0  0  0  0  0  0  0  0  0  0  0  0
   57.6610   26.4990   45.7350 C   0  0  0  0  0  0  0  0  0  0  0  0
   56.4250   26.6160   45.9630 O   0  0  0  0  0  0  0  0  0  0  0  0
   58.6070   27.3070   46.4610 N   0  0  0  0  0  0  0  0  0  0  0  0
   60.0390   27.2370   46.1450 C   0  0  0  0  0  0  0  0  0  0  0  0
   60.6750   28.6260   46.2620 C   0  0  0  0  0  0  0  0  0  0  0  0
   60.3290   29.2830   47.5340 N   0  0  0  0  0  0  0  0  0  0  0  0
   61.1110   30.3980   48.0160 C   0  0  0  0  0  0  0  0  0  0  0  0
   61.1400   30.6470   49.2520 O   0  0  0  0  0  0  0  0  0  0  0  0
   61.9420   31.2480   47.0860 C   0  0  0  0  0  0  0  0  0  0  0  0
   62.6730   32.3650   47.8500 C   0  0  0  0  0  0  0  0  0  0  0  0
   61.9990   33.7470   47.6760 C   0  0  0  0  0  0  0  0  0  0  0  0
   61.1260   34.0930   48.9110 C   0  0  0  0  0  0  0  0  0  0  0  0
   59.6640   33.6930   48.6840 C   0  0  0  0  0  0  0  0  0  0  0  0
   59.0710   34.4450   47.5530 N   0  0  0  0  0  0  0  0  0  0  0  0
   57.7790   33.8910   47.0860 C   0  0  0  0  0  0  0  0  0  0  0  0
   57.9190   32.8220   46.0210 C   0  0  0  0  0  0  0  0  0  0  0  0
   57.7690   33.1400   44.6620 C   0  0  0  0  0  0  0  0  0  0  0  0
   57.8900   32.1450   43.6900 C   0  0  0  0  0  0  0  0  0  0  0  0
   58.1790   30.8380   44.0830 C   0  0  0  0  0  0  0  0  0  0  0  0
   58.3530   30.5460   45.3990 N   0  0  0  0  0  0  0  0  0  0  0  0
   58.2370   31.4970   46.3640 C   0  0  0  0  0  0  0  0  0  0  0  0
   60.0150   34.8090   46.4680 C   0  0  0  0  0  0  0  0  0  0  0  0
   61.1820   33.8170   46.3580 C   0  0  0  0  0  0  0  0  0  0  0  0
   59.3080   28.6890   48.4080 C   0  0  0  0  0  0  0  0  0  0  0  0
   58.1400   28.1340   47.5840 C   0  0  0  0  0  0  0  0  0  0  0  0
   58.3486   27.6954   43.6553 H   0  0  0  0  0  0  0  0  0  0  0  0
   59.0382   26.8724   42.2153 H   0  0  0  0  0  0  0  0  0  0  0  0
   57.3187   27.3919   42.2153 H   0  0  0  0  0  0  0  0  0  0  0  0
   56.6397   25.5284   43.3261 H   0  0  0  0  0  0  0  0  0  0  0  0
   58.2310   24.8444   42.8494 H   0  0  0  0  0  0  0  0  0  0  0  0
   60.5332   26.5506   46.8483 H   0  0  0  0  0  0  0  0  0  0  0  0
   60.1619   26.8715   45.1148 H   0  0  0  0  0  0  0  0  0  0  0  0
   61.7684   28.5228   46.2009 H   0  0  0  0  0  0  0  0  0  0  0  0
   60.2890   29.2480   45.4409 H   0  0  0  0  0  0  0  0  0  0  0  0
   62.6859   30.6099   46.5865 H   0  0  0  0  0  0  0  0  0  0  0  0
   61.2705   31.7140   46.3498 H   0  0  0  0  0  0  0  0  0  0  0  0
   62.6835   32.1108   48.9202 H   0  0  0  0  0  0  0  0  0  0  0  0
   63.6908   32.4375   47.4392 H   0  0  0  0  0  0  0  0  0  0  0  0
   62.7922   34.5057   47.6039 H   0  0  0  0  0  0  0  0  0  0  0  0
   61.5140   33.5534   49.7875 H   0  0  0  0  0  0  0  0  0  0  0  0
   61.1690   35.1798   49.0753 H   0  0  0  0  0  0  0  0  0  0  0  0
   59.6169   32.6165   48.4628 H   0  0  0  0  0  0  0  0  0  0  0  0
   59.0937   33.9276   49.5949 H   0  0  0  0  0  0  0  0  0  0  0  0
   57.2573   33.4532   47.9498 H   0  0  0  0  0  0  0  0  0  0  0  0
   57.2199   34.7227   46.6324 H   0  0  0  0  0  0  0  0  0  0  0  0
   57.5554   34.1765   44.3619 H   0  0  0  0  0  0  0  0  0  0  0  0
   57.7588   32.3891   42.6255 H   0  0  0  0  0  0  0  0  0  0  0  0
   58.2661   30.0433   43.3274 H   0  0  0  0  0  0  0  0  0  0  0  0
   58.3930   31.2275   47.4190 H   0  0  0  0  0  0  0  0  0  0  0  0
   59.4693   34.8215   45.5130 H   0  0  0  0  0  0  0  0  0  0  0  0
   60.4338   35.7987   46.7025 H   0  0  0  0  0  0  0  0  0  0  0  0
   60.7810   32.8177   46.1331 H   0  0  0  0  0  0  0  0  0  0  0  0
   61.8517   34.1613   45.5561 H   0  0  0  0  0  0  0  0  0  0  0  0
   59.7611   27.8710   48.9873 H   0  0  0  0  0  0  0  0  0  0  0  0
   58.9241   29.4692   49.0817 H   0  0  0  0  0  0  0  0  0  0  0  0
   57.5035   27.5197   48.2378 H   0  0  0  0  0  0  0  0  0  0  0  0
   57.5786   28.9851   47.1711 H   0  0  0  0  0  0  0  0  0  0  0  0
  1  2  1  0
  2  3  1  0
  3  4  1  0
  4  5  2  0
  4  6  1  0
  6  7  1  0
  7  8  1  0
  8  9  1  0
  9 10  1  0
 10 11  2  0
 10 12  1  0
 12 13  1  0
 13 14  1  0
 14 15  1  0
 15 16  1  0
 16 17  1  0
 17 18  1  0
 18 19  1  0
 19 20  2  0
 20 21  1  0
 21 22  2  0
 22 23  1  0
 23 24  2  0
 17 25  1  0
 25 26  1  0
  9 27  1  0
 27 28  1  0
 28  6  1  0
 26 14  1  0
 24 19  1  0
  1 29  1  0
  1 30  1  0
  1 31  1  0
  2 32  1  0
  2 33  1  0
  7 34  1  0
  7 35  1  0
  8 36  1  0
  8 37  1  0
 12 38  1  0
 12 39  1  0
 13 40  1  0
 13 41  1  0
 14 42  1  0
 15 43  1  0
 15 44  1  0
 16 45  1  0
 16 46  1  0
 18 47  1  0
 18 48  1  0
 20 49  1  0
 21 50  1  0
 22 51  1  0
 24 52  1  0
 25 53  1  0
 25 54  1  0
 26 55  1  0
 26 56  1  0
 27 57  1  0
 27 58  1  0
 28 59  1  0
 28 60  1  0
M  END
>  <UniqueID>  (28) 
25

>  <SMILES>  (28) 
CCOC(=O)N1CCN(C(=O)CCC2CCN(Cc3cccnc3)CC2)CC1

>  <Energy>  (28) 
63.056671687813186

>  <Genealogy>  (28) 
CCOC(=O)N1CCN(C(=O)CCC2CCN(Cc3cccnc3)CC2)CC1 (3D coordinates assigned)
CCOC(=O)N1CCN(C(=O)CCC2CCN(Cc3cccnc3)CC2)CC1 (nonaromatic ring conformer: 63.056671687813186 kcal/mol)

>  <smiles>  (28) 
CCOC(=O)N1CCN(C(=O)CCC2CCN(Cc3cccnc3)CC2)CC1

>  <score_type>  (28) 
oracle

>  <origin>  (28) 
adg

>  <m_score__min__energy>  (28) 
-8.0700000000000003

>  <m_primary>  (28) 
energy

$$$$
28:0
     RDKit          3D

 55 56  0  0  0  0  0  0  0  0999 V2000
   57.8220   25.1000   46.8810 C   0  0  0  0  0  0  0  0  0  0  0  0
   58.6020   26.2660   47.4770 C   0  0  0  0  0  0  0  0  0  0  0  0
   60.0470   26.2840   46.9640 C   0  0  0  0  0  0  0  0  0  0  0  0
   60.3340   27.5090   46.0820 C   0  0  0  0  0  0  0  0  0  0  0  0
   59.4970   28.6620   46.4630 N   0  0  0  0  0  0  0  0  0  0  0  0
   59.5720   29.3000   47.7640 C   0  0  0  0  0  0  0  0  0  0  0  0
   58.5180   29.7620   48.2810 O   0  0  0  0  0  0  0  0  0  0  0  0
   60.8500   29.4320   48.5500 C   0  0  0  0  0  0  0  0  0  0  0  0
   60.8210   30.9040   49.6320 S   0  0  0  0  0  0  0  0  0  0  0  0
   61.7060   31.9730   48.4990 C   0  0  0  0  0  0  0  0  0  0  0  0
   63.1030   31.9570   48.4560 C   0  0  0  0  0  0  0  0  0  0  0  0
   63.7680   32.7830   47.5470 C   0  0  0  0  0  0  0  0  0  0  0  0
   63.0370   33.6090   46.6940 C   0  0  0  0  0  0  0  0  0  0  0  0
   61.6430   33.6020   46.7700 C   0  0  0  0  0  0  0  0  0  0  0  0
   61.0120   32.7900   47.6610 N   0  0  0  0  0  0  0  0  0  0  0  0
   58.6520   29.2560   45.4580 C   0  0  0  0  0  0  0  0  0  0  0  0
   58.6180   30.6510   45.2590 C   0  0  0  0  0  0  0  0  0  0  0  0
   59.4200   31.4970   46.1010 N   0  0  0  0  0  0  0  0  0  0  0  0
   57.8250   31.1790   44.2620 N   0  0  0  0  0  0  0  0  0  0  0  0
   57.7380   32.6380   44.0490 C   0  0  0  0  0  0  0  0  0  0  0  0
   57.0460   33.3110   45.2430 C   0  0  0  0  0  0  0  0  0  0  0  0
   57.9980   34.2060   46.0500 C   0  0  0  0  0  0  0  0  0  0  0  0
   59.0580   34.8700   45.1720 C   0  0  0  0  0  0  0  0  0  0  0  0
   57.1240   30.3380   43.4290 C   0  0  0  0  0  0  0  0  0  0  0  0
   56.4270   30.8020   42.4810 O   0  0  0  0  0  0  0  0  0  0  0  0
   57.1720   28.9940   43.6070 N   0  0  0  0  0  0  0  0  0  0  0  0
   57.9140   28.4390   44.5950 C   0  0  0  0  0  0  0  0  0  0  0  0
   57.9530   27.1850   44.7190 O   0  0  0  0  0  0  0  0  0  0  0  0
   57.4089   24.4824   47.6921 H   0  0  0  0  0  0  0  0  0  0  0  0
   57.0006   25.4874   46.2604 H   0  0  0  0  0  0  0  0  0  0  0  0
   58.4936   24.4887   46.2604 H   0  0  0  0  0  0  0  0  0  0  0  0
   58.1094   27.2086   47.1961 H   0  0  0  0  0  0  0  0  0  0  0  0
   58.6212   26.1504   48.5707 H   0  0  0  0  0  0  0  0  0  0  0  0
   60.7291   26.3009   47.8268 H   0  0  0  0  0  0  0  0  0  0  0  0
   60.1993   25.3833   46.3512 H   0  0  0  0  0  0  0  0  0  0  0  0
   61.3931   27.7859   46.1898 H   0  0  0  0  0  0  0  0  0  0  0  0
   60.1005   27.2444   45.0401 H   0  0  0  0  0  0  0  0  0  0  0  0
   60.9819   28.5340   49.1715 H   0  0  0  0  0  0  0  0  0  0  0  0
   61.6826   29.5420   47.8395 H   0  0  0  0  0  0  0  0  0  0  0  0
   63.6725   31.3010   49.1308 H   0  0  0  0  0  0  0  0  0  0  0  0
   64.8672   32.7819   47.5041 H   0  0  0  0  0  0  0  0  0  0  0  0
   63.5521   34.2579   45.9704 H   0  0  0  0  0  0  0  0  0  0  0  0
   61.0538   34.2540   46.1084 H   0  0  0  0  0  0  0  0  0  0  0  0
   60.1520   32.1340   45.7220 H   0  0  0  0  0  0  0  0  0  0  0  0
   59.3540   31.4400   47.1390 H   0  0  0  0  0  0  0  0  0  0  0  0
   58.7521   33.0496   43.9382 H   0  0  0  0  0  0  0  0  0  0  0  0
   57.1508   32.8322   43.1394 H   0  0  0  0  0  0  0  0  0  0  0  0
   56.2162   33.9278   44.8674 H   0  0  0  0  0  0  0  0  0  0  0  0
   56.6890   32.5150   45.9131 H   0  0  0  0  0  0  0  0  0  0  0  0
   57.4088   34.9908   46.5470 H   0  0  0  0  0  0  0  0  0  0  0  0
   58.5185   33.5692   46.7804 H   0  0  0  0  0  0  0  0  0  0  0  0
   59.8173   35.3456   45.8102 H   0  0  0  0  0  0  0  0  0  0  0  0
   59.5366   34.1100   44.5369 H   0  0  0  0  0  0  0  0  0  0  0  0
   58.5831   35.6323   44.5369 H   0  0  0  0  0  0  0  0  0  0  0  0
   56.6350   28.3720   42.9610 H   0  0  0  0  0  0  0  0  0  0  0  0
  1  2  1  0
  2  3  1  0
  3  4  1  0
  4  5  1  0
  5  6  1  0
  6  7  2  0
  6  8  1  0
  8  9  1  0
  9 10  1  0
 10 11  2  0
 11 12  1  0
 12 13  2  0
 13 14  1  0
 14 15  2  0
  5 16  1  0
 16 17  2  0
 17 18  1  0
 17 19  1  0
 19 20  1  0
 20 21  1  0
 21 22  1  0
 22 23  1  0
 19 24  1  0
 24 25  2  0
 24 26  1  0
 26 27  1  0
 27 28  2  0
 15 10  1  0
 27 16  1  0
  1 29  1  0
  1 30  1  0
  1 31  1  0
  2 32  1  0
  2 33  1  0
  3 34  1  0
  3 35  1  0
  4 36  1  0
  4 37  1  0
  8 38  1  0
  8 39  1  0
 11 40  1  0
 12 41  1  0
 13 42  1  0
 14 43  1  0
 18 44  1  0
 18 45  1  0
 20 46  1  0
 20 47  1  0
 21 48  1  0
 21 49  1  0
 22 50  1  0
 22 51  1  0
 23 52  1  0
 23 53  1  0
 23 54  1  0
 26 55  1  0
M  END
>  <UniqueID>  (29) 
26

>  <SMILES>  (29) 
CCCCN(C(=O)CSc1ccccn1)c1c(N)n(CCCC)c(=O)[nH]c1=O

>  <Energy>  (29) 
52.75589031330522

>  <Genealogy>  (29) 
CCCCN(C(=O)CSc1ccccn1)c1c(N)n(CCCC)c(=O)[nH]c1=O (3D coordinates assigned)
CCCCN(C(=O)CSc1ccccn1)c1c(N)n(CCCC)c(=O)[nH]c1=O (optimized conformer: 52.75589031330522 kcal/mol)

>  <smiles>  (29) 
CCCCN(C(=O)CSc1ccccn1)c1c(N)n(CCCC)c(=O)[nH]c1=O

>  <score_type>  (29) 
oracle

>  <origin>  (29) 
adg

>  <m_score__min__energy>  (29) 
-7.3200000000000003

>  <m_primary>  (29) 
energy

$$$$
29:0
     RDKit          3D

 39 42  0  0  0  0  0  0  0  0999 V2000
   63.4990   33.8570   50.1090 C   0  0  0  0  0  0  0  0  0  0  0  0
   64.4390   32.6660   49.9630 C   0  0  0  0  0  0  0  0  0  0  0  0
   64.2120   31.9960   48.7260 O   0  0  0  0  0  0  0  0  0  0  0  0
   63.4350   32.5270   47.6910 C   0  0  0  0  0  0  0  0  0  0  0  0
   63.8240   33.5470   47.0580 O   0  0  0  0  0  0  0  0  0  0  0  0
   62.1570   31.8980   47.3220 C   0  0  0  0  0  0  0  0  0  0  0  0
   61.9110   30.6150   47.5120 O   0  0  0  0  0  0  0  0  0  0  0  0
   60.6950   30.3680   47.0830 C   0  0  0  0  0  0  0  0  0  0  0  0
   60.1180   31.5090   46.5960 C   0  0  0  0  0  0  0  0  0  0  0  0
   58.8250   31.5110   46.0820 C   0  0  0  0  0  0  0  0  0  0  0  0
   58.1120   30.3010   46.0690 C   0  0  0  0  0  0  0  0  0  0  0  0
   58.6880   29.0930   46.5710 C   0  0  0  0  0  0  0  0  0  0  0  0
   57.9980   27.8420   46.5760 C   0  0  0  0  0  0  0  0  0  0  0  0
   56.6780   27.6870   46.0850 C   0  0  0  0  0  0  0  0  0  0  0  0
   56.0420   26.4420   46.1120 C   0  0  0  0  0  0  0  0  0  0  0  0
   54.7470   26.3140   45.6240 O   0  0  0  0  0  0  0  0  0  0  0  0
   56.7020   25.3270   46.6250 C   0  0  0  0  0  0  0  0  0  0  0  0
   57.9990   25.4480   47.1150 C   0  0  0  0  0  0  0  0  0  0  0  0
   58.6550   26.6900   47.0970 C   0  0  0  0  0  0  0  0  0  0  0  0
   59.9600   26.7820   47.5960 C   0  0  0  0  0  0  0  0  0  0  0  0
   60.6350   27.9950   47.5930 C   0  0  0  0  0  0  0  0  0  0  0  0
   60.0200   29.1440   47.0880 C   0  0  0  0  0  0  0  0  0  0  0  0
   61.0490   32.5190   46.7400 C   0  0  0  0  0  0  0  0  0  0  0  0
   60.9030   33.9600   46.3570 C   0  0  0  0  0  0  0  0  0  0  0  0
   63.3344   34.0655   51.1764 H   0  0  0  0  0  0  0  0  0  0  0  0
   63.9471   34.7389   49.6280 H   0  0  0  0  0  0  0  0  0  0  0  0
   62.5371   33.6260   49.6280 H   0  0  0  0  0  0  0  0  0  0  0  0
   65.4797   33.0208   49.9962 H   0  0  0  0  0  0  0  0  0  0  0  0
   64.2501   31.9623   50.7871 H   0  0  0  0  0  0  0  0  0  0  0  0
   58.3729   32.4364   45.6958 H   0  0  0  0  0  0  0  0  0  0  0  0
   57.0894   30.2826   45.6642 H   0  0  0  0  0  0  0  0  0  0  0  0
   56.1458   28.5588   45.6766 H   0  0  0  0  0  0  0  0  0  0  0  0
   56.1971   24.3499   46.6427 H   0  0  0  0  0  0  0  0  0  0  0  0
   58.5143   24.5643   47.5195 H   0  0  0  0  0  0  0  0  0  0  0  0
   60.4552   25.8842   47.9943 H   0  0  0  0  0  0  0  0  0  0  0  0
   61.6592   28.0522   47.9901 H   0  0  0  0  0  0  0  0  0  0  0  0
   60.8405   34.5765   47.2659 H   0  0  0  0  0  0  0  0  0  0  0  0
   61.7742   34.2713   45.7619 H   0  0  0  0  0  0  0  0  0  0  0  0
   59.9871   34.0903   45.7619 H   0  0  0  0  0  0  0  0  0  0  0  0
  1  2  1  0
  2  3  1  0
  3  4  1  0
  4  5  2  0
  4  6  1  0
  6  7  1  0
  7  8  1  0
  8  9  2  0
  9 10  1  0
 10 11  2  0
 11 12  1  0
 12 13  2  0
 13 14  1  0
 14 15  2  0
 15 16  1  0
 15 17  1  0
 17 18  2  0
 18 19  1  0
 19 20  2  0
 20 21  1  0
 21 22  2  0
  9 23  1  0
 23 24  1  0
 23  6  2  0
 22  8  1  0
 22 12  1  0
 19 13  1  0
  1 25  1  0
  1 26  1  0
  1 27  1  0
  2 28  1  0
  2 29  1  0
 10 30  1  0
 11 31  1  0
 14 32  1  0
 17 33  1  0
 18 34  1  0
 20 35  1  0
 21 36  1  0
 24 37  1  0
 24 38  1  0
 24 39  1  0
M  CHG  1  16  -1
M  END
>  <UniqueID>  (30) 
27

>  <SMILES>  (30) 
CCOC(=O)c1oc2c(ccc3c4cc([O-])ccc4ccc32)c1C

>  <Energy>  (30) 
83.30714796706546

>  <Genealogy>  (30) 
CCOC(=O)c1oc2c(ccc3c4cc([O-])ccc4ccc32)c1C (protonated)
CCOC(=O)c1oc2c(ccc3c4cc([O-])ccc4ccc32)c1C (3D coordinates assigned)
CCOC(=O)c1oc2c(ccc3c4cc([O-])ccc4ccc32)c1C (optimized conformer: 83.30714796706546 kcal/mol)

>  <smiles>  (30) 
CCOC(=O)c1oc2c(ccc3c4cc(O)ccc4ccc32)c1C

>  <score_type>  (30) 
oracle

>  <origin>  (30) 
adg

>  <m_score__min__energy>  (30) 
-10.48

>  <m_primary>  (30) 
energy

$$$$
30:0
     RDKit          3D

 48 51  0  0  1  0  0  0  0  0999 V2000
   59.7950   33.5350   50.7190 C   0  0  0  0  0  0  0  0  0  0  0  0
   60.6560   33.3640   49.6250 O   0  0  0  0  0  0  0  0  0  0  0  0
   60.3040   33.7290   48.3520 C   0  0  0  0  0  0  0  0  0  0  0  0
   59.1330   34.3960   48.0910 C   0  0  0  0  0  0  0  0  0  0  0  0
   58.7350   34.7850   46.8310 C   0  0  0  0  0  0  0  0  0  0  0  0
   59.5820   34.4740   45.7790 C   0  0  0  0  0  0  0  0  0  0  0  0
   60.7860   33.7980   45.9830 C   0  0  0  0  0  0  0  0  0  0  0  0
   61.1360   33.4320   47.2670 C   0  0  0  0  0  0  0  0  0  0  0  0
   62.3920   32.7070   47.5950 C   0  0  0  0  0  0  0  0  0  0  0  0
   62.1990   31.2860   47.3510 N   0  0  0  0  0  0  0  0  0  0  0  0
   61.2300   30.6180   47.8460 C   0  0  0  0  0  0  0  0  0  0  0  0
   60.8670   30.6870   49.1270 N   0  0  0  0  0  0  0  0  0  0  0  0
   59.8350   29.9630   49.6170 C   0  0  0  0  0  0  0  0  0  0  0  0
   59.1190   29.1340   48.8340 N   0  0  0  0  0  0  0  0  0  0  0  0
   59.4330   29.0190   47.5340 C   0  0  0  0  0  0  0  0  0  0  0  0
   60.4880   29.7570   47.0340 C   0  0  0  0  0  0  0  0  0  0  0  0
   60.5730   29.4470   45.7280 N   0  0  0  0  0  0  0  0  0  0  0  0
   59.6150   28.5620   45.4490 C   0  0  0  0  0  0  0  0  0  0  0  0
   58.8920   28.2830   46.5690 N   0  0  0  0  0  0  0  0  0  0  0  0
   57.7930   27.3700   46.5910 C   0  0  2  0  0  0  0  0  0  0  0  0
   58.2120   26.0260   46.6850 O   0  0  0  0  0  0  0  0  0  0  0  0
   56.9710   25.3850   46.7560 C   0  0  2  0  0  0  0  0  0  0  0  0
   57.0790   23.8980   46.7090 C   0  0  0  0  0  0  0  0  0  0  0  0
   56.2360   25.9740   45.5590 C   0  0  1  0  0  0  0  0  0  0  0  0
   54.9130   26.1540   45.9570 O   0  0  0  0  0  0  0  0  0  0  0  0
   56.9400   27.3250   45.3740 C   0  0  1  0  0  0  0  0  0  0  0  0
   55.9530   28.3140   45.4250 O   0  0  0  0  0  0  0  0  0  0  0  0
   60.3633   33.4221   51.6540 H   0  0  0  0  0  0  0  0  0  0  0  0
   59.3482   34.5394   50.6805 H   0  0  0  0  0  0  0  0  0  0  0  0
   58.9983   32.7776   50.6805 H   0  0  0  0  0  0  0  0  0  0  0  0
   58.4733   34.6340   48.9384 H   0  0  0  0  0  0  0  0  0  0  0  0
   57.7872   35.3187   46.6671 H   0  0  0  0  0  0  0  0  0  0  0  0
   59.2982   34.7673   44.7575 H   0  0  0  0  0  0  0  0  0  0  0  0
   61.4449   33.5609   45.1347 H   0  0  0  0  0  0  0  0  0  0  0  0
   63.2097   33.0817   46.9618 H   0  0  0  0  0  0  0  0  0  0  0  0
   62.6487   32.8700   48.6522 H   0  0  0  0  0  0  0  0  0  0  0  0
   61.4140   31.3320   49.7630 H   0  0  0  0  0  0  0  0  0  0  0  0
   59.5741   30.0537   50.6818 H   0  0  0  0  0  0  0  0  0  0  0  0
   59.4348   28.1211   44.4575 H   0  0  0  0  0  0  0  0  0  0  0  0
   57.2371   27.7582   47.4572 H   0  0  0  0  0  0  0  0  0  0  0  0
   56.4473   25.5517   47.7089 H   0  0  0  0  0  0  0  0  0  0  0  0
   57.1079   23.4999   47.7340 H   0  0  0  0  0  0  0  0  0  0  0  0
   56.2086   23.4837   46.1792 H   0  0  0  0  0  0  0  0  0  0  0  0
   58.0001   23.6138   46.1792 H   0  0  0  0  0  0  0  0  0  0  0  0
   56.2440   25.3713   44.6388 H   0  0  0  0  0  0  0  0  0  0  0  0
   54.3840   26.7180   45.3390 H   0  0  0  0  0  0  0  0  0  0  0  0
   57.5055   27.4616   44.4405 H   0  0  0  0  0  0  0  0  0  0  0  0
   55.1410   28.0320   44.9200 H   0  0  0  0  0  0  0  0  0  0  0  0
  1  2  1  0
  2  3  1  0
  3  4  2  0
  4  5  1  0
  5  6  2  0
  6  7  1  0
  7  8  2  0
  8  9  1  0
  9 10  1  0
 10 11  2  0
 11 12  1  0
 12 13  1  0
 13 14  2  0
 14 15  1  0
 15 16  2  0
 16 17  1  0
 17 18  2  0
 18 19  1  0
 19 20  1  0
 20 21  1  0
 21 22  1  0
 22 23  1  0
 22 24  1  0
 24 25  1  0
 24 26  1  0
 26 27  1  0
  8  3  1  0
 16 11  1  0
 26 20  1  0
 19 15  1  0
  1 28  1  0
  1 29  1  0
  1 30  1  0
  4 31  1  0
  5 32  1  0
  6 33  1  0
  7 34  1  0
  9 35  1  0
  9 36  1  0
 12 37  1  0
 13 38  1  0
 18 39  1  0
 20 40  1  1
 22 41  1  1
 23 42  1  0
 23 43  1  0
 23 44  1  0
 24 45  1  6
 25 46  1  0
 26 47  1  6
 27 48  1  0
M  END
>  <smiles>  (31) 
COc1ccccc1CN=c1[nH]cnc2c1ncn2C1OC(C)C(O)C1O

>  <score_type>  (31) 
oracle

>  <origin>  (31) 
adg

>  <m_score__min__energy>  (31) 
-8.3100000000000005

>  <m_primary>  (31) 
energy

$$$$
31:0
     RDKit          3D

 41 44  0  0  1  0  0  0  0  0999 V2000
   56.5680   20.9040   43.6240 N   0  0  0  0  0  0  0  0  0  0  0  0
   57.1480   21.8950   44.1840 C   0  0  0  0  0  0  0  0  0  0  0  0
   56.4820   23.0560   44.3910 N   0  0  0  0  0  0  0  0  0  0  0  0
   57.1780   24.0400   44.9850 C   0  0  0  0  0  0  0  0  0  0  0  0
   58.4990   23.9070   45.3770 C   0  0  0  0  0  0  0  0  0  0  0  0
   59.1390   22.7280   45.1550 C   0  0  0  0  0  0  0  0  0  0  0  0
   60.3710   22.6060   45.5200 N   0  0  0  0  0  0  0  0  0  0  0  0
   58.4450   21.7370   44.5570 N   0  0  0  0  0  0  0  0  0  0  0  0
   59.1180   25.0960   46.0240 C   0  0  0  0  0  0  0  0  0  0  0  0
   58.8750   26.3030   45.1430 C   0  0  2  0  0  0  0  0  0  0  0  0
   59.0850   27.5550   45.9810 C   0  0  0  0  0  0  0  0  0  0  0  0
   59.3170   27.9270   47.0320 N   0  0  0  0  0  0  0  0  0  0  0  0
   59.4480   29.1530   47.5020 C   0  0  0  0  0  0  0  0  0  0  0  0
   59.2820   30.1340   46.6070 C   0  0  0  0  0  0  0  0  0  0  0  0
   59.3340   31.5930   46.6760 C   0  0  0  0  0  0  0  0  0  0  0  0
   60.2940   32.2000   47.4480 C   0  0  0  0  0  0  0  0  0  0  0  0
   60.2870   33.5970   47.4680 C   0  0  0  0  0  0  0  0  0  0  0  0
   59.3520   34.3120   46.7400 C   0  0  0  0  0  0  0  0  0  0  0  0
   59.3030   35.6990   46.7270 O   0  0  0  0  0  0  0  0  0  0  0  0
   58.3890   33.6580   45.9650 C   0  0  0  0  0  0  0  0  0  0  0  0
   58.3970   32.2790   45.9450 C   0  0  0  0  0  0  0  0  0  0  0  0
   58.9280   29.2280   45.0460 S   0  0  0  0  0  0  0  0  0  0  0  0
   57.4860   26.3600   44.5730 C   0  0  0  0  0  0  0  0  0  0  0  0
   56.5610   25.3860   45.2750 C   0  0  0  0  0  0  0  0  0  0  0  0
   57.0190   19.9520   43.5920 H   0  0  0  0  0  0  0  0  0  0  0  0
   55.4900   23.1990   44.1130 H   0  0  0  0  0  0  0  0  0  0  0  0
   61.0370   22.2350   44.8040 H   0  0  0  0  0  0  0  0  0  0  0  0
   58.9150   20.8120   44.3730 H   0  0  0  0  0  0  0  0  0  0  0  0
   58.6628   25.2600   47.0119 H   0  0  0  0  0  0  0  0  0  0  0  0
   60.1985   24.9351   46.1533 H   0  0  0  0  0  0  0  0  0  0  0  0
   59.5764   26.2315   44.2987 H   0  0  0  0  0  0  0  0  0  0  0  0
   59.6782   29.3551   48.5585 H   0  0  0  0  0  0  0  0  0  0  0  0
   61.0301   31.6167   48.0207 H   0  0  0  0  0  0  0  0  0  0  0  0
   61.0340   34.1353   48.0699 H   0  0  0  0  0  0  0  0  0  0  0  0
   58.8970   36.1650   47.5280 H   0  0  0  0  0  0  0  0  0  0  0  0
   57.6459   34.2275   45.3875 H   0  0  0  0  0  0  0  0  0  0  0  0
   57.6551   31.7312   45.3454 H   0  0  0  0  0  0  0  0  0  0  0  0
   57.0909   27.3795   44.6938 H   0  0  0  0  0  0  0  0  0  0  0  0
   57.5363   26.0849   43.5091 H   0  0  0  0  0  0  0  0  0  0  0  0
   56.5337   25.5807   46.3573 H   0  0  0  0  0  0  0  0  0  0  0  0
   55.5190   25.4619   44.9308 H   0  0  0  0  0  0  0  0  0  0  0  0
  1  2  2  3
  2  3  1  0
  3  4  1  0
  4  5  2  0
  5  6  1  0
  6  7  2  3
  6  8  1  0
  5  9  1  0
  9 10  1  0
 10 11  1  0
 11 12  2  0
 12 13  1  0
 13 14  2  0
 14 15  1  0
 15 16  2  0
 16 17  1  0
 17 18  2  0
 18 19  1  0
 18 20  1  0
 20 21  2  0
 14 22  1  0
 10 23  1  0
 23 24  1  0
  8  2  1  0
 22 11  1  0
 24  4  1  0
 21 15  1  0
  1 25  1  0
  3 26  1  0
  7 27  1  0
  8 28  1  0
  9 29  1  0
  9 30  1  0
 10 31  1  6
 13 32  1  0
 16 33  1  0
 17 34  1  0
 19 35  1  0
 20 36  1  0
 21 37  1  0
 23 38  1  0
 23 39  1  0
 24 40  1  0
 24 41  1  0
M  END
>  <smiles>  (32) 
N=c1[nH]c2c(c(=N)[nH]1)CC(c1ncc(-c3ccc(O)cc3)s1)CC2

>  <score_type>  (32) 
oracle

>  <origin>  (32) 
adg

>  <m_score__min__energy>  (32) 
-8.1500000000000004

>  <m_primary>  (32) 
energy

$$$$
32:0
     RDKit          3D

 29 32  0  0  0  0  0  0  0  0999 V2000
   53.7972   23.5716   45.0729 H   0  0  0  0  0  0  0  0  0  0  0  0
   54.5000   24.3090   45.4880 C   0  0  0  0  0  0  0  0  0  0  0  0
   54.2360   25.6290   45.6200 N   0  0  0  0  0  0  0  0  0  0  0  0
   55.2430   26.3240   46.1460 N   0  0  0  0  0  0  0  0  0  0  0  0
   56.3190   25.5560   46.4280 C   0  0  0  0  0  0  0  0  0  0  0  0
   57.4100   25.9970   46.9770 N   0  0  0  0  0  0  0  0  0  0  0  0
   58.4640   26.6800   46.2860 C   0  0  0  0  0  0  0  0  0  0  0  0
   59.4160   26.0060   45.8140 O   0  0  0  0  0  0  0  0  0  0  0  0
   58.4270   28.1370   46.0530 C   0  0  0  0  0  0  0  0  0  0  0  0
   59.5860   29.2600   46.6490 S   0  0  0  0  0  0  0  0  0  0  0  0
   58.7580   30.5640   46.0080 C   0  0  0  0  0  0  0  0  0  0  0  0
   57.6370   30.1740   45.3760 C   0  0  0  0  0  0  0  0  0  0  0  0
   56.9550   31.2220   44.8700 N   0  0  0  0  0  0  0  0  0  0  0  0
   57.6850   32.2850   45.2030 N   0  0  0  0  0  0  0  0  0  0  0  0
   57.3920   33.5760   44.9060 C   0  0  0  0  0  0  0  0  0  0  0  0
   56.4843   33.8309   44.3394 H   0  0  0  0  0  0  0  0  0  0  0  0
   58.2730   34.5780   45.3380 C   0  0  0  0  0  0  0  0  0  0  0  0
   58.0624   35.6335   45.1109 H   0  0  0  0  0  0  0  0  0  0  0  0
   59.4290   34.2280   46.0640 C   0  0  0  0  0  0  0  0  0  0  0  0
   60.1185   35.0147   46.4041 H   0  0  0  0  0  0  0  0  0  0  0  0
   59.7090   32.8780   46.3580 C   0  0  0  0  0  0  0  0  0  0  0  0
   60.9340   32.4820   47.1290 C   0  0  0  0  0  0  0  0  0  0  0  0
   60.7263   32.5491   48.2071 H   0  0  0  0  0  0  0  0  0  0  0  0
   61.2106   31.4487   46.8725 H   0  0  0  0  0  0  0  0  0  0  0  0
   61.7631   33.1579   46.8725 H   0  0  0  0  0  0  0  0  0  0  0  0
   58.7920   31.9290   45.8980 C   0  0  0  0  0  0  0  0  0  0  0  0
   57.3920   28.8090   45.3750 C   0  0  0  0  0  0  0  0  0  0  0  0
   56.5194   28.3237   44.9134 H   0  0  0  0  0  0  0  0  0  0  0  0
   56.0490   23.9440   46.0440 S   0  0  0  0  0  0  0  0  0  0  0  0
  1  2  1  0
  2  3  2  0
  3  4  1  0
  4  5  1  0
  5  6  2  0
  6  7  1  0
  7  8  2  0
  7  9  1  0
  9 10  1  0
 10 11  1  0
 11 12  1  0
 12 13  2  0
 13 14  1  0
 14 15  1  0
 15 16  1  0
 15 17  2  0
 17 18  1  0
 17 19  1  0
 19 20  1  0
 19 21  2  0
 21 22  1  0
 22 23  1  0
 22 24  1  0
 22 25  1  0
 21 26  1  0
 12 27  1  0
 27 28  1  0
  5 29  1  0
 29  2  1  0
 27  9  2  0
 26 11  2  0
 26 14  1  0
M  CHG  1   4  -1
M  END
>  <UniqueID>  (33) 
28

>  <SMILES>  (33) 
Cc1cccn2nc3cc(C(=O)/N=c4\[n-]ncs4)sc3c12

>  <Energy>  (33) 
159.3106564137827

>  <Genealogy>  (33) 
Cc1cccn2nc3cc(C(=O)N=c4[n-]ncs4)sc3c12 (protonated)
Cc1cccn2nc3cc(C(=O)/N=c4\[n-]ncs4)sc3c12 (cis-trans isomerization)
Cc1cccn2nc3cc(C(=O)/N=c4\[n-]ncs4)sc3c12 (3D coordinates assigned)
Cc1cccn2nc3cc(C(=O)/N=c4\[n-]ncs4)sc3c12 (optimized conformer: 159.3106564137827 kcal/mol)

>  <smiles>  (33) 
Cc1cccn2nc3cc(C(=O)N=c4[nH]ncs4)sc3c12

>  <score_type>  (33) 
oracle

>  <origin>  (33) 
adg

>  <m_score__min__energy>  (33) 
-9.8699999999999992

>  <m_primary>  (33) 
energy

$$$$
33:0
     RDKit          3D

 39 41  0  0  0  0  0  0  0  0999 V2000
   55.5070   29.5170   45.0240 O   0  0  0  0  0  0  0  0  0  0  0  0
   56.6130   29.4170   44.4220 C   0  0  0  0  0  0  0  0  0  0  0  0
   57.0750   30.5670   43.6170 C   0  0  0  0  0  0  0  0  0  0  0  0
   56.8770   30.7760   42.2540 C   0  0  0  0  0  0  0  0  0  0  0  0
   57.4490   31.9650   41.7860 C   0  0  0  0  0  0  0  0  0  0  0  0
   58.1000   32.6980   42.7680 C   0  0  0  0  0  0  0  0  0  0  0  0
   57.9630   31.8640   44.2210 S   0  0  0  0  0  0  0  0  0  0  0  0
   57.4220   28.2160   44.5600 N   0  0  0  0  0  0  0  0  0  0  0  0
   58.8160   28.4660   44.1360 C   0  0  0  0  0  0  0  0  0  0  0  0
   59.5780   29.3980   45.1060 C   0  0  0  0  0  0  0  0  0  0  0  0
   58.9320   29.4770   46.4320 N   0  0  0  0  0  0  0  0  0  0  0  0
   59.8460   30.0810   47.4210 C   0  0  0  0  0  0  0  0  0  0  0  0
   59.7670   31.5880   47.3580 C   0  0  0  0  0  0  0  0  0  0  0  0
   58.5110   32.2140   47.2570 C   0  0  0  0  0  0  0  0  0  0  0  0
   58.4190   33.6050   47.1740 C   0  0  0  0  0  0  0  0  0  0  0  0
   59.5760   34.3860   47.1890 C   0  0  0  0  0  0  0  0  0  0  0  0
   60.8290   33.7770   47.2860 C   0  0  0  0  0  0  0  0  0  0  0  0
   60.9340   32.3830   47.3690 C   0  0  0  0  0  0  0  0  0  0  0  0
   62.5390   31.6690   47.4880 Cl  0  0  0  0  0  0  0  0  0  0  0  0
   58.4740   28.1450   46.8640 C   0  0  0  0  0  0  0  0  0  0  0  0
   57.3620   27.6280   45.9250 C   0  0  0  0  0  0  0  0  0  0  0  0
   56.3256   30.0759   41.6091 H   0  0  0  0  0  0  0  0  0  0  0  0
   57.3880   32.2884   40.7364 H   0  0  0  0  0  0  0  0  0  0  0  0
   58.6161   33.6582   42.6211 H   0  0  0  0  0  0  0  0  0  0  0  0
   57.0210   27.4950   43.9160 H   0  0  0  0  0  0  0  0  0  0  0  0
   59.3458   27.5034   44.0842 H   0  0  0  0  0  0  0  0  0  0  0  0
   58.7803   28.9647   43.1562 H   0  0  0  0  0  0  0  0  0  0  0  0
   60.6014   29.0153   45.2334 H   0  0  0  0  0  0  0  0  0  0  0  0
   59.5779   30.4084   44.6712 H   0  0  0  0  0  0  0  0  0  0  0  0
   59.5626   29.7449   48.4293 H   0  0  0  0  0  0  0  0  0  0  0  0
   60.8756   29.7675   47.1940 H   0  0  0  0  0  0  0  0  0  0  0  0
   57.5958   31.6039   47.2433 H   0  0  0  0  0  0  0  0  0  0  0  0
   57.4329   34.0862   47.0966 H   0  0  0  0  0  0  0  0  0  0  0  0
   59.5007   35.4815   47.1244 H   0  0  0  0  0  0  0  0  0  0  0  0
   61.7385   34.3957   47.2973 H   0  0  0  0  0  0  0  0  0  0  0  0
   59.3222   27.4450   46.8413 H   0  0  0  0  0  0  0  0  0  0  0  0
   58.0728   28.2193   47.8855 H   0  0  0  0  0  0  0  0  0  0  0  0
   57.4581   26.5356   45.8388 H   0  0  0  0  0  0  0  0  0  0  0  0
   56.3994   27.9267   46.3657 H   0  0  0  0  0  0  0  0  0  0  0  0
  1  2  2  0
  2  3  1  0
  3  4  2  0
  4  5  1  0
  5  6  2  0
  6  7  1  0
  2  8  1  0
  8  9  1  0
  9 10  1  0
 10 11  1  0
 11 12  1  0
 12 13  1  0
 13 14  2  0
 14 15  1  0
 15 16  2  0
 16 17  1  0
 17 18  2  0
 18 19  1  0
 11 20  1  0
 20 21  1  0
  7  3  1  0
 21  8  1  0
 18 13  1  0
  4 22  1  0
  5 23  1  0
  6 24  1  0
  8 25  1  0
  9 26  1  0
  9 27  1  0
 10 28  1  0
 10 29  1  0
 12 30  1  0
 12 31  1  0
 14 32  1  0
 15 33  1  0
 16 34  1  0
 17 35  1  0
 20 36  1  0
 20 37  1  0
 21 38  1  0
 21 39  1  0
M  CHG  1   8   1
M  END
>  <UniqueID>  (34) 
29

>  <SMILES>  (34) 
O=C(c1cccs1)[NH+]1CCN(Cc2ccccc2Cl)CC1

>  <Energy>  (34) 
79.59536901072995

>  <Genealogy>  (34) 
O=C(c1cccs1)[NH+]1CCN(Cc2ccccc2Cl)CC1 (protonated)
O=C(c1cccs1)[NH+]1CCN(Cc2ccccc2Cl)CC1 (3D coordinates assigned)
O=C(c1cccs1)[NH+]1CCN(Cc2ccccc2Cl)CC1 (nonaromatic ring conformer: 79.59536901072995 kcal/mol)

>  <smiles>  (34) 
O=C(c1cccs1)N1CCN(Cc2ccccc2Cl)CC1

>  <score_type>  (34) 
oracle

>  <origin>  (34) 
adg

>  <m_score__min__energy>  (34) 
-6.4500000000000002

>  <m_primary>  (34) 
energy

$$$$
34:0
     RDKit          3D

 50 54  0  0  1  0  0  0  0  0999 V2000
   55.3340   24.6880   46.6220 O   0  0  0  0  0  0  0  0  0  0  0  0
   56.6620   25.3200   46.4770 S   0  0  0  0  0  0  0  0  0  0  0  0
   57.5980   25.2190   47.6540 O   0  0  0  0  0  0  0  0  0  0  0  0
   56.9100   26.4610   45.2850 N   0  0  0  0  0  0  0  0  0  0  0  0
   57.1360   27.7060   45.4360 C   0  0  0  0  0  0  0  0  0  0  0  0
   56.1370   28.5460   45.1390 N   0  0  0  0  0  0  0  0  0  0  0  0
   56.3650   29.8640   45.1640 N   0  0  0  0  0  0  0  0  0  0  0  0
   57.5910   30.3330   45.4840 C   0  0  0  0  0  0  0  0  0  0  0  0
   57.7500   31.7830   45.4830 C   0  0  0  0  0  0  0  0  0  0  0  0
   57.5160   32.5820   44.3940 C   0  0  0  0  0  0  0  0  0  0  0  0
   57.6840   33.9430   44.4750 C   0  0  0  0  0  0  0  0  0  0  0  0
   58.0910   34.5760   45.6410 C   0  0  0  0  0  0  0  0  0  0  0  0
   58.3320   33.7810   46.7470 C   0  0  0  0  0  0  0  0  0  0  0  0
   58.1590   32.4230   46.6460 C   0  0  0  0  0  0  0  0  0  0  0  0
   58.6370   29.4660   45.7960 C   0  0  0  0  0  0  0  0  0  0  0  0
   58.4060   28.0640   45.7790 C   0  0  0  0  0  0  0  0  0  0  0  0
   59.4670   27.2500   46.3340 C   0  0  0  0  0  0  0  0  0  0  0  0
   59.6040   27.9750   47.7130 C   0  0  0  0  0  0  0  0  0  0  0  0
   60.7390   28.1080   48.4610 C   0  0  0  0  0  0  0  0  0  0  0  0
   60.3970   28.8230   49.6110 C   0  0  0  0  0  0  0  0  0  0  0  0
   59.0380   29.0880   49.4880 C   0  0  0  0  0  0  0  0  0  0  0  0
   58.6480   28.5670   48.3670 O   0  0  0  0  0  0  0  0  0  0  0  0
   57.4980   24.0000   45.5820 C   0  0  0  0  0  0  0  0  0  0  0  0
   58.7180   23.5670   45.9850 C   0  0  0  0  0  0  0  0  0  0  0  0
   59.3090   22.5520   45.2630 C   0  0  0  0  0  0  0  0  0  0  0  0
   58.6700   22.0070   44.1730 C   0  0  0  0  0  0  0  0  0  0  0  0
   57.4480   22.4120   43.7360 C   0  0  0  0  0  0  0  0  0  0  0  0
   56.8360   21.8500   42.6320 C   0  0  0  0  0  0  0  0  0  0  0  0
   55.6250   22.2970   42.2420 N   0  0  0  0  0  0  0  0  0  0  0  0
   55.0290   23.2840   42.9320 C   0  0  0  0  0  0  0  0  0  0  0  0
   55.6160   23.8770   44.0500 C   0  0  0  0  0  0  0  0  0  0  0  0
   56.8460   23.4430   44.4670 C   0  0  0  0  0  0  0  0  0  0  0  0
   55.1770   28.2100   44.8870 H   0  0  0  0  0  0  0  0  0  0  0  0
   57.1905   32.1289   43.4460 H   0  0  0  0  0  0  0  0  0  0  0  0
   57.4885   34.5543   43.5817 H   0  0  0  0  0  0  0  0  0  0  0  0
   58.2171   35.6679   45.6840 H   0  0  0  0  0  0  0  0  0  0  0  0
   58.6583   34.2315   47.6960 H   0  0  0  0  0  0  0  0  0  0  0  0
   58.3553   31.8070   47.5360 H   0  0  0  0  0  0  0  0  0  0  0  0
   59.6304   29.8628   46.0526 H   0  0  0  0  0  0  0  0  0  0  0  0
   59.1688   26.1971   46.4453 H   0  0  0  0  0  0  0  0  0  0  0  0
   60.3857   27.1813   45.7329 H   0  0  0  0  0  0  0  0  0  0  0  0
   61.7373   27.7233   48.2052 H   0  0  0  0  0  0  0  0  0  0  0  0
   61.0614   29.1143   50.4378 H   0  0  0  0  0  0  0  0  0  0  0  0
   58.4115   29.6366   50.2067 H   0  0  0  0  0  0  0  0  0  0  0  0
   59.2191   24.0104   46.8581 H   0  0  0  0  0  0  0  0  0  0  0  0
   60.2987   22.1751   45.5605 H   0  0  0  0  0  0  0  0  0  0  0  0
   59.1760   21.1987   43.6248 H   0  0  0  0  0  0  0  0  0  0  0  0
   57.3337   21.0428   42.0746 H   0  0  0  0  0  0  0  0  0  0  0  0
   54.0408   23.6378   42.6029 H   0  0  0  0  0  0  0  0  0  0  0  0
   55.0974   24.6830   44.5898 H   0  0  0  0  0  0  0  0  0  0  0  0
  1  2  2  0
  2  3  2  0
  2  4  1  0
  4  5  2  0
  5  6  1  0
  6  7  1  0
  7  8  2  0
  8  9  1  0
  9 10  2  0
 10 11  1  0
 11 12  2  0
 12 13  1  0
 13 14  2  0
  8 15  1  0
 15 16  2  0
 16 17  1  0
 17 18  1  0
 18 19  2  0
 19 20  1  0
 20 21  2  0
 21 22  1  0
  2 23  1  0
 23 24  2  0
 24 25  1  0
 25 26  2  0
 26 27  1  0
 27 28  2  0
 28 29  1  0
 29 30  2  0
 30 31  1  0
 31 32  2  0
 16  5  1  0
 22 18  1  0
 32 23  1  0
 14  9  1  0
 32 27  1  0
  6 33  1  0
 10 34  1  0
 11 35  1  0
 12 36  1  0
 13 37  1  0
 14 38  1  0
 15 39  1  0
 17 40  1  0
 17 41  1  0
 19 42  1  0
 20 43  1  0
 21 44  1  0
 24 45  1  0
 25 46  1  0
 26 47  1  0
 28 48  1  0
 30 49  1  0
 31 50  1  0
M  END
>  <smiles>  (35) 
O=S(=O)(N=c1[nH]nc(-c2ccccc2)cc1Cc1ccco1)c1cccc2cnccc12

>  <score_type>  (35) 
oracle

>  <origin>  (35) 
adg

>  <m_score__min__energy>  (35) 
-10.43

>  <m_primary>  (35) 
energy

$$$$
35:0
     RDKit          3D

 48 50  0  0  0  0  0  0  0  0999 V2000
   56.2460   30.0680   42.8760 C   0  0  0  0  0  0  0  0  0  0  0  0
   57.0970   29.8400   44.0930 C   0  0  0  0  0  0  0  0  0  0  0  0
   56.9100   28.6880   44.8760 C   0  0  0  0  0  0  0  0  0  0  0  0
   57.7290   28.4480   45.9850 C   0  0  0  0  0  0  0  0  0  0  0  0
   58.7490   29.3500   46.3140 C   0  0  0  0  0  0  0  0  0  0  0  0
   59.7980   29.0320   47.7350 S   0  0  0  0  0  0  0  0  0  0  0  0
   61.1520   30.1260   47.1720 C   0  0  0  0  0  0  0  0  0  0  0  0
   61.0010   31.5410   47.7670 C   0  0  1  0  0  0  0  0  0  0  0  0
   61.7550   31.6630   49.1170 C   0  0  0  0  0  0  0  0  0  0  0  0
   63.0890   32.4060   48.9860 C   0  0  1  0  0  0  0  0  0  0  0  0
   63.9720   31.6510   48.1940 O   0  0  0  0  0  0  0  0  0  0  0  0
   62.8840   33.8160   48.3780 C   0  0  0  0  0  0  0  0  0  0  0  0
   61.7760   33.9090   47.3890 N   0  0  0  0  0  0  0  0  0  0  0  0
   60.5720   34.5890   47.9180 C   0  0  0  0  0  0  0  0  0  0  0  0
   59.3980   34.3410   47.0060 C   0  0  0  0  0  0  0  0  0  0  0  0
   58.3130   33.5710   47.4550 C   0  0  0  0  0  0  0  0  0  0  0  0
   57.2240   33.3220   46.6100 C   0  0  0  0  0  0  0  0  0  0  0  0
   57.2150   33.8360   45.3100 C   0  0  0  0  0  0  0  0  0  0  0  0
   58.2940   34.5980   44.8540 C   0  0  0  0  0  0  0  0  0  0  0  0
   59.3830   34.8510   45.6960 C   0  0  0  0  0  0  0  0  0  0  0  0
   61.4620   32.6160   46.7450 C   0  0  0  0  0  0  0  0  0  0  0  0
   58.9560   30.4880   45.5230 C   0  0  0  0  0  0  0  0  0  0  0  0
   58.1360   30.7320   44.4130 C   0  0  0  0  0  0  0  0  0  0  0  0
   55.2269   30.3410   43.1871 H   0  0  0  0  0  0  0  0  0  0  0  0
   56.6765   30.8825   42.2749 H   0  0  0  0  0  0  0  0  0  0  0  0
   56.2116   29.1474   42.2749 H   0  0  0  0  0  0  0  0  0  0  0  0
   56.1165   27.9720   44.6160 H   0  0  0  0  0  0  0  0  0  0  0  0
   57.5715   27.5494   46.5995 H   0  0  0  0  0  0  0  0  0  0  0  0
   62.1148   29.7015   47.4927 H   0  0  0  0  0  0  0  0  0  0  0  0
   61.1105   30.2000   46.0753 H   0  0  0  0  0  0  0  0  0  0  0  0
   59.9358   31.7183   47.9767 H   0  0  0  0  0  0  0  0  0  0  0  0
   61.1171   32.2084   49.8280 H   0  0  0  0  0  0  0  0  0  0  0  0
   61.9760   30.6438   49.4667 H   0  0  0  0  0  0  0  0  0  0  0  0
   63.5211   32.5346   49.9894 H   0  0  0  0  0  0  0  0  0  0  0  0
   64.5260   32.2970   47.6820 H   0  0  0  0  0  0  0  0  0  0  0  0
   62.6706   34.5160   49.1992 H   0  0  0  0  0  0  0  0  0  0  0  0
   63.8088   34.0583   47.8339 H   0  0  0  0  0  0  0  0  0  0  0  0
   60.3436   34.1980   48.9205 H   0  0  0  0  0  0  0  0  0  0  0  0
   60.7635   35.6707   47.9744 H   0  0  0  0  0  0  0  0  0  0  0  0
   58.3183   33.1612   48.4758 H   0  0  0  0  0  0  0  0  0  0  0  0
   56.3753   32.7216   46.9696 H   0  0  0  0  0  0  0  0  0  0  0  0
   56.3595   33.6408   44.6467 H   0  0  0  0  0  0  0  0  0  0  0  0
   58.2874   35.0002   43.8302 H   0  0  0  0  0  0  0  0  0  0  0  0
   60.2300   35.4509   45.3316 H   0  0  0  0  0  0  0  0  0  0  0  0
   60.6579   32.7732   46.0110 H   0  0  0  0  0  0  0  0  0  0  0  0
   62.3810   32.2491   46.2645 H   0  0  0  0  0  0  0  0  0  0  0  0
   59.7638   31.1913   45.7738 H   0  0  0  0  0  0  0  0  0  0  0  0
   58.3055   31.6231   43.7908 H   0  0  0  0  0  0  0  0  0  0  0  0
  1  2  1  0
  2  3  2  0
  3  4  1  0
  4  5  2  0
  5  6  1  0
  6  7  1  0
  7  8  1  0
  8  9  1  0
  9 10  1  0
 10 11  1  0
 10 12  1  0
 12 13  1  0
 13 14  1  0
 14 15  1  0
 15 16  2  0
 16 17  1  0
 17 18  2  0
 18 19  1  0
 19 20  2  0
 13 21  1  0
  5 22  1  0
 22 23  2  0
 23  2  1  0
 21  8  1  0
 20 15  1  0
  1 24  1  0
  1 25  1  0
  1 26  1  0
  3 27  1  0
  4 28  1  0
  7 29  1  0
  7 30  1  0
  8 31  1  1
  9 32  1  0
  9 33  1  0
 10 34  1  1
 11 35  1  0
 12 36  1  0
 12 37  1  0
 14 38  1  0
 14 39  1  0
 16 40  1  0
 17 41  1  0
 18 42  1  0
 19 43  1  0
 20 44  1  0
 21 45  1  0
 21 46  1  0
 22 47  1  0
 23 48  1  0
M  END
>  <UniqueID>  (36) 
30

>  <SMILES>  (36) 
Cc1ccc(SC[C@H]2C[C@@H](O)CN(Cc3ccccc3)C2)cc1

>  <Energy>  (36) 
54.47419597515074

>  <Genealogy>  (36) 
Cc1ccc(SC[C@H]2C[C@@H](O)CN(Cc3ccccc3)C2)cc1 (chirality)
Cc1ccc(SC[C@H]2C[C@@H](O)CN(Cc3ccccc3)C2)cc1 (3D coordinates assigned)
Cc1ccc(SC[C@H]2C[C@@H](O)CN(Cc3ccccc3)C2)cc1 (nonaromatic ring conformer: 54.47419597515074 kcal/mol)

>  <smiles>  (36) 
Cc1ccc(SCC2CC(O)CN(Cc3ccccc3)C2)cc1

>  <score_type>  (36) 
oracle

>  <origin>  (36) 
adg

>  <m_score__min__energy>  (36) 
-8.4000000000000004

>  <m_primary>  (36) 
energy

$$$$
36:0
     RDKit          3D

 21 21  0  0  0  0  0  0  0  0999 V2000
   57.1210   21.1040   43.0370 C   0  0  0  0  0  0  0  0  0  0  0  0
   55.9550   21.8300   43.4110 O   0  0  0  0  0  0  0  0  0  0  0  0
   55.9710   23.0810   44.0460 C   0  0  0  0  0  0  0  0  0  0  0  0
   54.8530   23.4610   44.7960 C   0  0  0  0  0  0  0  0  0  0  0  0
   54.8200   24.6980   45.4470 C   0  0  0  0  0  0  0  0  0  0  0  0
   55.9130   25.5770   45.3530 C   0  0  0  0  0  0  0  0  0  0  0  0
   55.9230   26.8550   46.0040 N   0  0  0  0  0  0  0  0  0  0  0  0
   56.5170   28.3260   45.3070 S   0  0  0  0  0  0  0  0  0  0  0  0
   55.1900   29.3230   44.8250 N   0  0  0  0  0  0  0  0  0  0  0  0
   57.3740   29.0530   46.3050 O   0  0  0  0  0  0  0  0  0  0  0  0
   57.3460   27.9930   44.0980 O   0  0  0  0  0  0  0  0  0  0  0  0
   57.0310   25.1980   44.6030 C   0  0  0  0  0  0  0  0  0  0  0  0
   57.0660   23.9610   43.9530 C   0  0  0  0  0  0  0  0  0  0  0  0
   57.6526   20.7730   43.9413 H   0  0  0  0  0  0  0  0  0  0  0  0
   56.8310   20.2266   42.4403 H   0  0  0  0  0  0  0  0  0  0  0  0
   57.7804   21.7514   42.4403 H   0  0  0  0  0  0  0  0  0  0  0  0
   53.9922   22.7806   44.8743 H   0  0  0  0  0  0  0  0  0  0  0  0
   53.9355   24.9844   46.0349 H   0  0  0  0  0  0  0  0  0  0  0  0
   54.5240   29.3550   45.6300 H   0  0  0  0  0  0  0  0  0  0  0  0
   57.8907   25.8797   44.5239 H   0  0  0  0  0  0  0  0  0  0  0  0
   57.9517   23.6743   43.3671 H   0  0  0  0  0  0  0  0  0  0  0  0
  1  2  1  0
  2  3  1  0
  3  4  2  0
  4  5  1  0
  5  6  2  0
  6  7  1  0
  7  8  1  0
  8  9  1  0
  8 10  2  0
  8 11  2  0
  6 12  1  0
 12 13  2  0
 13  3  1  0
  1 14  1  0
  1 15  1  0
  1 16  1  0
  4 17  1  0
  5 18  1  0
  9 19  1  0
 12 20  1  0
 13 21  1  0
M  CHG  2   7  -1   9  -1
M  END
>  <UniqueID>  (37) 
31

>  <SMILES>  (37) 
COc1ccc([N-]S([NH-])(=O)=O)cc1

>  <Energy>  (37) 
19.765858654895702

>  <Genealogy>  (37) 
COc1ccc([N-]S([NH-])(=O)=O)cc1 (protonated)
COc1ccc([N-]S([NH-])(=O)=O)cc1 (3D coordinates assigned)
COc1ccc([N-]S([NH-])(=O)=O)cc1 (optimized conformer: 19.765858654895702 kcal/mol)

>  <smiles>  (37) 
COc1ccc(NS(N)(=O)=O)cc1

>  <score_type>  (37) 
oracle

>  <origin>  (37) 
adg

>  <m_score__min__energy>  (37) 
-9.4900000000000002

>  <m_primary>  (37) 
energy

$$$$
37:0
     RDKit          3D

 47 51  0  0  0  0  0  0  0  0999 V2000
   63.2670   33.8630   47.3180 C   0  0  0  0  0  0  0  0  0  0  0  0
   63.3550   33.2010   48.6660 C   0  0  0  0  0  0  0  0  0  0  0  0
   64.5450   32.5130   48.9870 C   0  0  0  0  0  0  0  0  0  0  0  0
   64.6570   31.8580   50.2210 C   0  0  0  0  0  0  0  0  0  0  0  0
   65.7170   31.2450   50.5150 O   0  0  0  0  0  0  0  0  0  0  0  0
   63.6250   31.8800   51.1030 N   0  0  0  0  0  0  0  0  0  0  0  0
   62.4910   32.5400   50.7730 C   0  0  0  0  0  0  0  0  0  0  0  0
   61.3620   32.6750   51.5330 C   0  0  0  0  0  0  0  0  0  0  0  0
   61.0250   32.2270   52.8070 C   0  0  0  0  0  0  0  0  0  0  0  0
   59.7630   32.5880   53.3090 C   0  0  0  0  0  0  0  0  0  0  0  0
   58.8870   33.3820   52.5370 C   0  0  0  0  0  0  0  0  0  0  0  0
   59.2600   33.8210   51.2510 C   0  0  0  0  0  0  0  0  0  0  0  0
   60.5180   33.4380   50.7650 C   0  0  0  0  0  0  0  0  0  0  0  0
   61.1140   33.7480   49.5810 N   0  0  0  0  0  0  0  0  0  0  0  0
   60.5100   34.5950   48.5380 C   0  0  0  0  0  0  0  0  0  0  0  0
   59.8100   33.7840   47.4700 C   0  0  0  0  0  0  0  0  0  0  0  0
   58.9360   34.3760   46.5420 C   0  0  0  0  0  0  0  0  0  0  0  0
   58.2730   33.5940   45.5930 C   0  0  0  0  0  0  0  0  0  0  0  0
   58.4530   32.2010   45.5620 C   0  0  0  0  0  0  0  0  0  0  0  0
   57.7500   31.3700   44.5510 C   0  0  0  0  0  0  0  0  0  0  0  0
   57.6670   31.7930   43.2110 C   0  0  0  0  0  0  0  0  0  0  0  0
   57.0060   31.0090   42.2600 C   0  0  0  0  0  0  0  0  0  0  0  0
   56.4180   29.7990   42.6360 C   0  0  0  0  0  0  0  0  0  0  0  0
   56.4920   29.3690   43.9620 C   0  0  0  0  0  0  0  0  0  0  0  0
   57.1540   30.1480   44.9170 C   0  0  0  0  0  0  0  0  0  0  0  0
   59.3040   31.6060   46.5090 C   0  0  0  0  0  0  0  0  0  0  0  0
   59.9670   32.3890   47.4590 C   0  0  0  0  0  0  0  0  0  0  0  0
   62.3380   33.1910   49.5970 N   0  0  0  0  0  0  0  0  0  0  0  0
   63.1231   34.9455   47.4498 H   0  0  0  0  0  0  0  0  0  0  0  0
   64.1971   33.6821   46.7592 H   0  0  0  0  0  0  0  0  0  0  0  0
   62.4165   33.4454   46.7592 H   0  0  0  0  0  0  0  0  0  0  0  0
   65.3806   32.4910   48.2719 H   0  0  0  0  0  0  0  0  0  0  0  0
   61.7203   31.6135   53.3987 H   0  0  0  0  0  0  0  0  0  0  0  0
   59.4557   32.2499   54.3096 H   0  0  0  0  0  0  0  0  0  0  0  0
   57.9036   33.6606   52.9435 H   0  0  0  0  0  0  0  0  0  0  0  0
   58.5849   34.4450   50.6470 H   0  0  0  0  0  0  0  0  0  0  0  0
   59.7769   35.2664   49.0089 H   0  0  0  0  0  0  0  0  0  0  0  0
   61.3204   35.1592   48.0533 H   0  0  0  0  0  0  0  0  0  0  0  0
   58.7727   35.4636   46.5631 H   0  0  0  0  0  0  0  0  0  0  0  0
   57.6039   34.0734   44.8633 H   0  0  0  0  0  0  0  0  0  0  0  0
   58.1251   32.7466   42.9098 H   0  0  0  0  0  0  0  0  0  0  0  0
   56.9491   31.3457   41.2144 H   0  0  0  0  0  0  0  0  0  0  0  0
   55.8965   29.1849   41.8871 H   0  0  0  0  0  0  0  0  0  0  0  0
   56.0289   28.4157   44.2566 H   0  0  0  0  0  0  0  0  0  0  0  0
   57.2092   29.8037   45.9603 H   0  0  0  0  0  0  0  0  0  0  0  0
   59.4497   30.5157   46.5028 H   0  0  0  0  0  0  0  0  0  0  0  0
   60.6173   31.9077   48.2043 H   0  0  0  0  0  0  0  0  0  0  0  0
  1  2  1  0
  2  3  2  0
  3  4  1  0
  4  5  2  0
  4  6  1  0
  6  7  2  0
  7  8  1  0
  8  9  2  0
  9 10  1  0
 10 11  2  0
 11 12  1  0
 12 13  2  0
 13 14  1  0
 14 15  1  0
 15 16  1  0
 16 17  2  0
 17 18  1  0
 18 19  2  0
 19 20  1  0
 20 21  2  0
 21 22  1  0
 22 23  2  0
 23 24  1  0
 24 25  2  0
 19 26  1  0
 26 27  2  0
 14 28  1  0
 28  2  1  0
 28  7  1  0
 13  8  1  0
 27 16  1  0
 25 20  1  0
  1 29  1  0
  1 30  1  0
  1 31  1  0
  3 32  1  0
  9 33  1  0
 10 34  1  0
 11 35  1  0
 12 36  1  0
 15 37  1  0
 15 38  1  0
 17 39  1  0
 18 40  1  0
 21 41  1  0
 22 42  1  0
 23 43  1  0
 24 44  1  0
 25 45  1  0
 26 46  1  0
 27 47  1  0
M  END
>  <UniqueID>  (38) 
32

>  <SMILES>  (38) 
Cc1cc(=O)nc2c3ccccc3n(Cc3ccc(-c4ccccc4)cc3)n12

>  <Energy>  (38) 
114.05315084069453

>  <Genealogy>  (38) 
Cc1cc(=O)nc2c3ccccc3n(Cc3ccc(-c4ccccc4)cc3)n12 (3D coordinates assigned)
Cc1cc(=O)nc2c3ccccc3n(Cc3ccc(-c4ccccc4)cc3)n12 (optimized conformer: 114.05315084069453 kcal/mol)

>  <smiles>  (38) 
Cc1cc(=O)nc2c3ccccc3n(Cc3ccc(-c4ccccc4)cc3)n12

>  <score_type>  (38) 
oracle

>  <origin>  (38) 
adg

>  <m_score__min__energy>  (38) 
-9.1799999999999997

>  <m_primary>  (38) 
energy

$$$$
38:0
     RDKit          3D

 34 36  0  0  0  0  0  0  0  0999 V2000
   59.2700   35.5130   44.9000 C   0  0  0  0  0  0  0  0  0  0  0  0
   59.6270   34.1740   45.5630 C   0  0  1  0  0  0  0  0  0  0  0  0
   60.1780   34.4180   47.0050 C   0  0  2  0  0  0  0  0  0  0  0  0
   61.4020   33.5720   47.2820 C   0  0  0  0  0  0  0  0  0  0  0  0
   62.6360   33.8640   46.6700 C   0  0  0  0  0  0  0  0  0  0  0  0
   63.7670   33.0940   46.9590 C   0  0  0  0  0  0  0  0  0  0  0  0
   63.6800   32.0340   47.8650 C   0  0  0  0  0  0  0  0  0  0  0  0
   62.4630   31.7450   48.4880 C   0  0  0  0  0  0  0  0  0  0  0  0
   61.3300   32.5130   48.2020 C   0  0  0  0  0  0  0  0  0  0  0  0
   59.1130   34.0430   47.8700 O   0  0  0  0  0  0  0  0  0  0  0  0
   58.1140   33.4440   47.1390 C   0  0  0  0  0  0  0  0  0  0  0  0
   57.0190   33.0860   47.6450 O   0  0  0  0  0  0  0  0  0  0  0  0
   58.4150   33.3680   45.7520 N   0  0  0  0  0  0  0  0  0  0  0  0
   57.9190   32.3770   44.8160 C   0  0  0  0  0  0  0  0  0  0  0  0
   57.9020   32.6470   43.4310 C   0  0  0  0  0  0  0  0  0  0  0  0
   57.4310   31.6940   42.5230 C   0  0  0  0  0  0  0  0  0  0  0  0
   56.9810   30.4550   42.9770 C   0  0  0  0  0  0  0  0  0  0  0  0
   57.0110   30.1610   44.3400 C   0  0  0  0  0  0  0  0  0  0  0  0
   57.4810   31.1090   45.2530 C   0  0  0  0  0  0  0  0  0  0  0  0
   59.0695   36.2651   45.6773 H   0  0  0  0  0  0  0  0  0  0  0  0
   60.1103   35.8477   44.2740 H   0  0  0  0  0  0  0  0  0  0  0  0
   58.3746   35.3850   44.2740 H   0  0  0  0  0  0  0  0  0  0  0  0
   60.3633   33.6745   44.9162 H   0  0  0  0  0  0  0  0  0  0  0  0
   60.4905   35.4633   47.1454 H   0  0  0  0  0  0  0  0  0  0  0  0
   62.7108   34.7018   45.9612 H   0  0  0  0  0  0  0  0  0  0  0  0
   64.7265   33.3232   46.4723 H   0  0  0  0  0  0  0  0  0  0  0  0
   64.5697   31.4268   48.0880 H   0  0  0  0  0  0  0  0  0  0  0  0
   62.3962   30.9126   49.2040 H   0  0  0  0  0  0  0  0  0  0  0  0
   60.3761   32.2864   48.7007 H   0  0  0  0  0  0  0  0  0  0  0  0
   58.2634   33.6181   43.0617 H   0  0  0  0  0  0  0  0  0  0  0  0
   57.4154   31.9224   41.4471 H   0  0  0  0  0  0  0  0  0  0  0  0
   56.6028   29.7103   42.2612 H   0  0  0  0  0  0  0  0  0  0  0  0
   56.6638   29.1803   44.6974 H   0  0  0  0  0  0  0  0  0  0  0  0
   57.5098   30.8637   46.3249 H   0  0  0  0  0  0  0  0  0  0  0  0
  1  2  1  0
  2  3  1  0
  3  4  1  0
  4  5  2  0
  5  6  1  0
  6  7  2  0
  7  8  1  0
  8  9  2  0
  3 10  1  0
 10 11  1  0
 11 12  2  0
 11 13  1  0
 13 14  1  0
 14 15  2  0
 15 16  1  0
 16 17  2  0
 17 18  1  0
 18 19  2  0
 13  2  1  0
 19 14  1  0
  9  4  1  0
  1 20  1  0
  1 21  1  0
  1 22  1  0
  2 23  1  6
  3 24  1  6
  5 25  1  0
  6 26  1  0
  7 27  1  0
  8 28  1  0
  9 29  1  0
 15 30  1  0
 16 31  1  0
 17 32  1  0
 18 33  1  0
 19 34  1  0
M  END
>  <UniqueID>  (39) 
33

>  <SMILES>  (39) 
C[C@H]1[C@H](c2ccccc2)OC(=O)N1c1ccccc1

>  <Energy>  (39) 
56.256301229653765

>  <Genealogy>  (39) 
C[C@H]1[C@H](c2ccccc2)OC(=O)N1c1ccccc1 (chirality)
C[C@H]1[C@H](c2ccccc2)OC(=O)N1c1ccccc1 (3D coordinates assigned)
C[C@H]1[C@H](c2ccccc2)OC(=O)N1c1ccccc1 (nonaromatic ring conformer: 56.256301229653765 kcal/mol)

>  <smiles>  (39) 
CC1C(c2ccccc2)OC(=O)N1c1ccccc1

>  <score_type>  (39) 
oracle

>  <origin>  (39) 
adg

>  <m_score__min__energy>  (39) 
-7.2199999999999998

>  <m_primary>  (39) 
energy

$$$$
39:0
     RDKit          3D

 54 56  0  0  0  0  0  0  0  0999 V2000
   63.4030   34.3950   50.9290 C   0  0  0  0  0  0  0  0  0  0  0  0
   63.4070   33.4190   49.7540 C   0  0  0  0  0  0  0  0  0  0  0  0
   62.4990   33.8740   48.6740 N   0  0  0  0  0  0  0  0  0  0  0  0
   62.5430   32.9740   47.4990 C   0  0  0  0  0  0  0  0  0  0  0  0
   63.4040   33.5780   46.3900 C   0  0  0  0  0  0  0  0  0  0  0  0
   61.1100   34.1330   49.1330 C   0  0  0  0  0  0  0  0  0  0  0  0
   60.0690   34.0550   48.0330 C   0  0  0  0  0  0  0  0  0  0  0  0
   58.9380   33.2310   48.1730 C   0  0  0  0  0  0  0  0  0  0  0  0
   57.9810   33.1630   47.1570 C   0  0  0  0  0  0  0  0  0  0  0  0
   58.1360   33.9190   45.9840 C   0  0  0  0  0  0  0  0  0  0  0  0
   57.1290   33.8180   44.8740 C   0  0  0  0  0  0  0  0  0  0  0  0
   57.5420   32.7760   43.9250 N   0  0  0  0  0  0  0  0  0  0  0  0
   57.3330   31.4230   44.4780 C   0  0  1  0  0  0  0  0  0  0  0  0
   56.6240   30.5120   43.4300 C   0  0  0  0  0  0  0  0  0  0  0  0
   57.0540   29.0260   43.4270 C   0  0  0  0  0  0  0  0  0  0  0  0
   57.6210   28.5700   44.7460 C   0  0  0  0  0  0  0  0  0  0  0  0
   57.4090   27.2620   45.2100 C   0  0  0  0  0  0  0  0  0  0  0  0
   58.0110   26.8350   46.3980 C   0  0  0  0  0  0  0  0  0  0  0  0
   58.8400   27.7010   47.1160 C   0  0  0  0  0  0  0  0  0  0  0  0
   59.0680   28.9990   46.6500 C   0  0  0  0  0  0  0  0  0  0  0  0
   58.4570   29.4380   45.4660 C   0  0  0  0  0  0  0  0  0  0  0  0
   58.6790   30.8270   44.9370 C   0  0  0  0  0  0  0  0  0  0  0  0
   59.2800   34.7160   45.8280 C   0  0  0  0  0  0  0  0  0  0  0  0
   60.2380   34.7840   46.8440 C   0  0  0  0  0  0  0  0  0  0  0  0
   63.4053   33.8315   51.8737 H   0  0  0  0  0  0  0  0  0  0  0  0
   64.2985   35.0318   50.8797 H   0  0  0  0  0  0  0  0  0  0  0  0
   62.5023   35.0245   50.8797 H   0  0  0  0  0  0  0  0  0  0  0  0
   64.4291   33.3428   49.3547 H   0  0  0  0  0  0  0  0  0  0  0  0
   63.0563   32.4404   50.1137 H   0  0  0  0  0  0  0  0  0  0  0  0
   62.9694   32.0060   47.8010 H   0  0  0  0  0  0  0  0  0  0  0  0
   61.5199   32.8374   47.1187 H   0  0  0  0  0  0  0  0  0  0  0  0
   64.2266   34.1551   46.8376 H   0  0  0  0  0  0  0  0  0  0  0  0
   63.8183   32.7716   45.7671 H   0  0  0  0  0  0  0  0  0  0  0  0
   62.7867   34.2421   45.7671 H   0  0  0  0  0  0  0  0  0  0  0  0
   60.8561   33.3887   49.9022 H   0  0  0  0  0  0  0  0  0  0  0  0
   61.0898   35.1640   49.5159 H   0  0  0  0  0  0  0  0  0  0  0  0
   58.8058   32.6359   49.0886 H   0  0  0  0  0  0  0  0  0  0  0  0
   57.1013   32.5136   47.2769 H   0  0  0  0  0  0  0  0  0  0  0  0
   56.1457   33.5607   45.2946 H   0  0  0  0  0  0  0  0  0  0  0  0
   57.0655   34.7834   44.3505 H   0  0  0  0  0  0  0  0  0  0  0  0
   58.5670   32.9150   43.7530 H   0  0  0  0  0  0  0  0  0  0  0  0
   56.6756   31.4870   45.3577 H   0  0  0  0  0  0  0  0  0  0  0  0
   55.5425   30.5497   43.6273 H   0  0  0  0  0  0  0  0  0  0  0  0
   56.9142   30.9083   42.4457 H   0  0  0  0  0  0  0  0  0  0  0  0
   56.1749   28.4081   43.1919 H   0  0  0  0  0  0  0  0  0  0  0  0
   57.8486   28.9170   42.6742 H   0  0  0  0  0  0  0  0  0  0  0  0
   56.7693   26.5729   44.6391 H   0  0  0  0  0  0  0  0  0  0  0  0
   57.8314   25.8148   46.7681 H   0  0  0  0  0  0  0  0  0  0  0  0
   59.3136   27.3609   48.0488 H   0  0  0  0  0  0  0  0  0  0  0  0
   59.7271   29.6768   47.2122 H   0  0  0  0  0  0  0  0  0  0  0  0
   59.1078   31.4573   45.7300 H   0  0  0  0  0  0  0  0  0  0  0  0
   59.3728   30.7882   44.0843 H   0  0  0  0  0  0  0  0  0  0  0  0
   59.4240   35.2906   44.9011 H   0  0  0  0  0  0  0  0  0  0  0  0
   61.1307   35.4129   46.7114 H   0  0  0  0  0  0  0  0  0  0  0  0
  1  2  1  0
  2  3  1  0
  3  4  1  0
  4  5  1  0
  3  6  1  0
  6  7  1  0
  7  8  2  0
  8  9  1  0
  9 10  2  0
 10 11  1  0
 11 12  1  0
 12 13  1  0
 13 14  1  0
 14 15  1  0
 15 16  1  0
 16 17  2  0
 17 18  1  0
 18 19  2  0
 19 20  1  0
 20 21  2  0
 21 22  1  0
 10 23  1  0
 23 24  2  0
 24  7  1  0
 22 13  1  0
 21 16  1  0
  1 25  1  0
  1 26  1  0
  1 27  1  0
  2 28  1  0
  2 29  1  0
  4 30  1  0
  4 31  1  0
  5 32  1  0
  5 33  1  0
  5 34  1  0
  6 35  1  0
  6 36  1  0
  8 37  1  0
  9 38  1  0
 11 39  1  0
 11 40  1  0
 12 41  1  0
 13 42  1  1
 14 43  1  0
 14 44  1  0
 15 45  1  0
 15 46  1  0
 17 47  1  0
 18 48  1  0
 19 49  1  0
 20 50  1  0
 22 51  1  0
 22 52  1  0
 23 53  1  0
 24 54  1  0
M  END
>  <UniqueID>  (40) 
34

>  <SMILES>  (40) 
CCN(CC)Cc1ccc(CN[C@H]2CCc3ccccc3C2)cc1

>  <Energy>  (40) 
60.99134567241774

>  <Genealogy>  (40) 
CCN(CC)Cc1ccc(CN[C@H]2CCc3ccccc3C2)cc1 (chirality)
CCN(CC)Cc1ccc(CN[C@H]2CCc3ccccc3C2)cc1 (3D coordinates assigned)
CCN(CC)Cc1ccc(CN[C@H]2CCc3ccccc3C2)cc1 (nonaromatic ring conformer: 60.99134567241774 kcal/mol)

>  <smiles>  (40) 
CCN(CC)Cc1ccc(CNC2CCc3ccccc3C2)cc1

>  <score_type>  (40) 
oracle

>  <origin>  (40) 
adg

>  <m_score__min__energy>  (40) 
-8.1600000000000001

>  <m_primary>  (40) 
energy

$$$$
40:0
     RDKit          3D

 47 50  0  0  0  0  0  0  0  0999 V2000
   58.9760   34.1890   46.6120 C   0  0  0  0  0  0  0  0  0  0  0  0
   59.7160   32.9730   46.6540 O   0  0  0  0  0  0  0  0  0  0  0  0
   61.0630   32.8720   47.0410 C   0  0  0  0  0  0  0  0  0  0  0  0
   61.8340   34.0110   47.3450 C   0  0  0  0  0  0  0  0  0  0  0  0
   63.1680   33.8820   47.7380 C   0  0  0  0  0  0  0  0  0  0  0  0
   63.7510   32.6170   47.8240 C   0  0  0  0  0  0  0  0  0  0  0  0
   63.0010   31.4790   47.5260 C   0  0  0  0  0  0  0  0  0  0  0  0
   61.6530   31.5940   47.1440 C   0  0  0  0  0  0  0  0  0  0  0  0
   60.8710   30.3770   46.8260 C   0  0  0  0  0  0  0  0  0  0  0  0
   60.9740   29.7180   45.6530 N   0  0  0  0  0  0  0  0  0  0  0  0
   60.1750   28.6640   45.7220 N   0  0  0  0  0  0  0  0  0  0  0  0
   59.5990   28.6900   46.9380 C   0  0  0  0  0  0  0  0  0  0  0  0
   58.3620   27.4990   47.4620 S   0  0  0  0  0  0  0  0  0  0  0  0
   57.8170   27.1410   45.7600 C   0  0  0  0  0  0  0  0  0  0  0  0
   56.3520   27.4500   45.6240 C   0  0  0  0  0  0  0  0  0  0  0  0
   55.5260   26.6130   46.0720 O   0  0  0  0  0  0  0  0  0  0  0  0
   55.8390   28.6420   44.9970 N   0  0  0  0  0  0  0  0  0  0  0  0
   56.4790   29.6730   44.5210 C   0  0  0  0  0  0  0  0  0  0  0  0
   56.4320   30.0000   43.1990 N   0  0  0  0  0  0  0  0  0  0  0  0
   57.1000   31.0780   42.7130 C   0  0  0  0  0  0  0  0  0  0  0  0
   57.8470   31.8770   43.5760 C   0  0  0  0  0  0  0  0  0  0  0  0
   57.8830   31.5390   44.9290 C   0  0  0  0  0  0  0  0  0  0  0  0
   57.2020   30.4500   45.3730 N   0  0  0  0  0  0  0  0  0  0  0  0
   60.0120   29.7510   47.6620 N   0  0  0  0  0  0  0  0  0  0  0  0
   59.5280   30.1770   48.9490 C   0  0  0  0  0  0  0  0  0  0  0  0
   59.6860   29.3530   50.0750 C   0  0  0  0  0  0  0  0  0  0  0  0
   59.2130   29.7680   51.3240 C   0  0  0  0  0  0  0  0  0  0  0  0
   58.5810   31.0070   51.4570 C   0  0  0  0  0  0  0  0  0  0  0  0
   58.4210   31.8330   50.3410 C   0  0  0  0  0  0  0  0  0  0  0  0
   58.8900   31.4210   49.0900 C   0  0  0  0  0  0  0  0  0  0  0  0
   58.7696   34.5282   47.6378 H   0  0  0  0  0  0  0  0  0  0  0  0
   59.5607   34.9559   46.0829 H   0  0  0  0  0  0  0  0  0  0  0  0
   58.0262   34.0221   46.0829 H   0  0  0  0  0  0  0  0  0  0  0  0
   61.3814   35.0109   47.2722 H   0  0  0  0  0  0  0  0  0  0  0  0
   63.7592   34.7776   47.9798 H   0  0  0  0  0  0  0  0  0  0  0  0
   64.8036   32.5170   48.1273 H   0  0  0  0  0  0  0  0  0  0  0  0
   63.4676   30.4850   47.5904 H   0  0  0  0  0  0  0  0  0  0  0  0
   58.3890   27.7613   45.0543 H   0  0  0  0  0  0  0  0  0  0  0  0
   57.9882   26.0774   45.5377 H   0  0  0  0  0  0  0  0  0  0  0  0
   57.0514   31.3196   41.6410 H   0  0  0  0  0  0  0  0  0  0  0  0
   58.3952   32.7532   43.1996 H   0  0  0  0  0  0  0  0  0  0  0  0
   58.4615   32.1528   45.6351 H   0  0  0  0  0  0  0  0  0  0  0  0
   60.1838   28.3773   49.9743 H   0  0  0  0  0  0  0  0  0  0  0  0
   59.3387   29.1182   52.2027 H   0  0  0  0  0  0  0  0  0  0  0  0
   58.2094   31.3323   52.4399 H   0  0  0  0  0  0  0  0  0  0  0  0
   57.9251   32.8091   50.4471 H   0  0  0  0  0  0  0  0  0  0  0  0
   58.7592   32.0726   48.2135 H   0  0  0  0  0  0  0  0  0  0  0  0
  1  2  1  0
  2  3  1  0
  3  4  2  0
  4  5  1  0
  5  6  2  0
  6  7  1  0
  7  8  2  0
  8  9  1  0
  9 10  2  0
 10 11  1  0
 11 12  2  0
 12 13  1  0
 13 14  1  0
 14 15  1  0
 15 16  2  0
 15 17  1  0
 17 18  2  3
 18 19  1  0
 19 20  2  0
 20 21  1  0
 21 22  2  0
 22 23  1  0
 12 24  1  0
 24 25  1  0
 25 26  2  0
 26 27  1  0
 27 28  2  0
 28 29  1  0
 29 30  2  0
  8  3  1  0
 24  9  1  0
 30 25  1  0
 23 18  1  0
  1 31  1  0
  1 32  1  0
  1 33  1  0
  4 34  1  0
  5 35  1  0
  6 36  1  0
  7 37  1  0
 14 38  1  0
 14 39  1  0
 20 40  1  0
 21 41  1  0
 22 42  1  0
 26 43  1  0
 27 44  1  0
 28 45  1  0
 29 46  1  0
 30 47  1  0
M  CHG  1  23  -1
M  END
>  <UniqueID>  (41) 
35

>  <SMILES>  (41) 
COc1ccccc1-c1nnc(SCC(=O)N=c2nccc[n-]2)n1-c1ccccc1

>  <Energy>  (41) 
96.51285579479907

>  <Genealogy>  (41) 
COc1ccccc1-c1nnc(SCC(=O)N=c2nccc[n-]2)n1-c1ccccc1 (protonated)
COc1ccccc1-c1nnc(SCC(=O)N=c2nccc[n-]2)n1-c1ccccc1 (3D coordinates assigned)
COc1ccccc1-c1nnc(SCC(=O)N=c2nccc[n-]2)n1-c1ccccc1 (optimized conformer: 96.51285579479907 kcal/mol)

>  <smiles>  (41) 
COc1ccccc1-c1nnc(SCC(=O)N=c2nccc[nH]2)n1-c1ccccc1

>  <score_type>  (41) 
oracle

>  <origin>  (41) 
adg

>  <m_score__min__energy>  (41) 
-10.640000000000001

>  <m_primary>  (41) 
energy

$$$$
41:0
     RDKit          3D

 34 35  0  0  0  0  0  0  0  0999 V2000
   57.3010   31.6770   41.8750 C   0  0  0  0  0  0  0  0  0  0  0  0
   58.1600   32.7140   42.5900 C   0  0  0  0  0  0  0  0  0  0  0  0
   58.1440   32.4850   44.0420 N   0  0  0  0  0  0  0  0  0  0  0  0
   58.3090   33.6350   44.9440 C   0  0  0  0  0  0  0  0  0  0  0  0
   57.0600   33.8290   45.7980 C   0  0  0  0  0  0  0  0  0  0  0  0
   57.9460   31.1470   44.5570 C   0  0  0  0  0  0  0  0  0  0  0  0
   56.7200   30.5680   44.5230 N   0  0  0  0  0  0  0  0  0  0  0  0
   56.3770   29.3180   44.9620 C   0  0  0  0  0  0  0  0  0  0  0  0
   55.1680   28.9890   44.8280 O   0  0  0  0  0  0  0  0  0  0  0  0
   57.3030   28.3910   45.5530 C   0  0  0  0  0  0  0  0  0  0  0  0
   56.8800   27.1000   45.9920 C   0  0  0  0  0  0  0  0  0  0  0  0
   55.5330   26.7170   45.8530 O   0  0  0  0  0  0  0  0  0  0  0  0
   55.0790   25.3880   45.6180 C   0  0  0  0  0  0  0  0  0  0  0  0
   57.8170   26.2140   46.5670 C   0  0  0  0  0  0  0  0  0  0  0  0
   59.1520   26.5800   46.7120 C   0  0  0  0  0  0  0  0  0  0  0  0
   59.5810   27.8320   46.2890 C   0  0  0  0  0  0  0  0  0  0  0  0
   58.6730   28.7250   45.7180 C   0  0  0  0  0  0  0  0  0  0  0  0
   59.2080   30.2390   45.2110 S   0  0  0  0  0  0  0  0  0  0  0  0
   56.7842   31.0531   42.6190 H   0  0  0  0  0  0  0  0  0  0  0  0
   56.5579   32.1878   41.2451 H   0  0  0  0  0  0  0  0  0  0  0  0
   57.9412   31.0419   41.2451 H   0  0  0  0  0  0  0  0  0  0  0  0
   59.1947   32.6413   42.2237 H   0  0  0  0  0  0  0  0  0  0  0  0
   57.7535   33.7151   42.3838 H   0  0  0  0  0  0  0  0  0  0  0  0
   59.1729   33.4581   45.6015 H   0  0  0  0  0  0  0  0  0  0  0  0
   58.4705   34.5400   44.3400 H   0  0  0  0  0  0  0  0  0  0  0  0
   57.3335   33.7865   46.8626 H   0  0  0  0  0  0  0  0  0  0  0  0
   56.6108   34.8077   45.5736 H   0  0  0  0  0  0  0  0  0  0  0  0
   56.3351   33.0327   45.5736 H   0  0  0  0  0  0  0  0  0  0  0  0
   54.9068   24.8838   46.5804 H   0  0  0  0  0  0  0  0  0  0  0  0
   54.1398   25.4171   45.0461 H   0  0  0  0  0  0  0  0  0  0  0  0
   55.8397   24.8364   45.0461 H   0  0  0  0  0  0  0  0  0  0  0  0
   57.4873   25.2205   46.9051 H   0  0  0  0  0  0  0  0  0  0  0  0
   59.8684   25.8771   47.1621 H   0  0  0  0  0  0  0  0  0  0  0  0
   60.6365   28.1195   46.4042 H   0  0  0  0  0  0  0  0  0  0  0  0
  1  2  1  0
  2  3  1  0
  3  4  1  0
  4  5  1  0
  3  6  1  0
  6  7  2  0
  7  8  1  0
  8  9  2  0
  8 10  1  0
 10 11  2  0
 11 12  1  0
 12 13  1  0
 11 14  1  0
 14 15  2  0
 15 16  1  0
 16 17  2  0
 17 18  1  0
 18  6  1  0
 17 10  1  0
  1 19  1  0
  1 20  1  0
  1 21  1  0
  2 22  1  0
  2 23  1  0
  4 24  1  0
  4 25  1  0
  5 26  1  0
  5 27  1  0
  5 28  1  0
 13 29  1  0
 13 30  1  0
 13 31  1  0
 14 32  1  0
 15 33  1  0
 16 34  1  0
M  END
>  <UniqueID>  (42) 
36

>  <SMILES>  (42) 
CCN(CC)c1nc(=O)c2c(OC)cccc2s1

>  <Energy>  (42) 
38.72742106515374

>  <Genealogy>  (42) 
CCN(CC)c1nc(=O)c2c(OC)cccc2s1 (3D coordinates assigned)
CCN(CC)c1nc(=O)c2c(OC)cccc2s1 (optimized conformer: 38.72742106515374 kcal/mol)

>  <smiles>  (42) 
CCN(CC)c1nc(=O)c2c(OC)cccc2s1

>  <score_type>  (42) 
oracle

>  <origin>  (42) 
adg

>  <m_score__min__energy>  (42) 
-7.0599999999999996

>  <m_primary>  (42) 
energy

$$$$
42:0
     RDKit          3D

 55 58  0  0  0  0  0  0  0  0999 V2000
   57.1900   34.0960   45.2160 C   0  0  0  0  0  0  0  0  0  0  0  0
   58.4210   33.8510   46.0380 C   0  0  0  0  0  0  0  0  0  0  0  0
   58.9050   34.8460   46.8960 C   0  0  0  0  0  0  0  0  0  0  0  0
   60.0320   34.6080   47.6820 C   0  0  0  0  0  0  0  0  0  0  0  0
   60.6770   33.3600   47.6590 C   0  0  0  0  0  0  0  0  0  0  0  0
   61.9390   33.2030   48.4240 C   0  0  0  0  0  0  0  0  0  0  0  0
   61.8660   32.8020   49.7290 N   0  0  0  0  0  0  0  0  0  0  0  0
   62.9780   32.5680   50.4750 C   0  0  0  0  0  0  0  0  0  0  0  0
   64.2430   32.7240   49.9140 C   0  0  0  0  0  0  0  0  0  0  0  0
   64.3580   33.1190   48.5850 C   0  0  0  0  0  0  0  0  0  0  0  0
   63.2110   33.3770   47.8200 C   0  0  0  0  0  0  0  0  0  0  0  0
   63.3820   33.7700   46.3760 C   0  0  0  0  0  0  0  0  0  0  0  0
   60.1760   32.3390   46.8100 C   0  0  0  0  0  0  0  0  0  0  0  0
   60.7720   30.9820   46.7450 C   0  0  0  0  0  0  0  0  0  0  0  0
   62.0260   30.8690   46.8200 O   0  0  0  0  0  0  0  0  0  0  0  0
   59.9670   29.7940   46.5860 N   0  0  0  0  0  0  0  0  0  0  0  0
   59.2280   29.6630   45.3170 C   0  0  0  0  0  0  0  0  0  0  0  0
   58.4030   28.3690   45.2530 C   0  0  0  0  0  0  0  0  0  0  0  0
   59.1870   27.2070   45.8650 C   0  0  0  0  0  0  0  0  0  0  0  0
   59.5490   27.4640   47.3410 C   0  0  0  0  0  0  0  0  0  0  0  0
   59.5270   28.9620   47.7320 C   0  0  1  0  0  0  0  0  0  0  0  0
   60.3100   29.2110   49.0410 C   0  0  0  0  0  0  0  0  0  0  0  0
   59.7200   30.3090   49.8040 N   0  0  0  0  0  0  0  0  0  0  0  0
   58.7360   31.1330   49.4100 C   0  0  0  0  0  0  0  0  0  0  0  0
   58.5230   32.0460   50.4170 C   0  0  0  0  0  0  0  0  0  0  0  0
   59.3710   31.8020   51.4370 N   0  0  0  0  0  0  0  0  0  0  0  0
   60.0890   30.7360   51.0280 C   0  0  0  0  0  0  0  0  0  0  0  0
   59.0560   32.6030   46.0030 C   0  0  0  0  0  0  0  0  0  0  0  0
   56.3319   34.2668   45.8827 H   0  0  0  0  0  0  0  0  0  0  0  0
   57.3431   34.9813   44.5813 H   0  0  0  0  0  0  0  0  0  0  0  0
   56.9925   33.2196   44.5813 H   0  0  0  0  0  0  0  0  0  0  0  0
   58.3945   35.8188   46.9502 H   0  0  0  0  0  0  0  0  0  0  0  0
   60.4213   35.4081   48.3287 H   0  0  0  0  0  0  0  0  0  0  0  0
   60.9330   32.6500   50.1740 H   0  0  0  0  0  0  0  0  0  0  0  0
   62.8784   32.2546   51.5247 H   0  0  0  0  0  0  0  0  0  0  0  0
   65.1439   32.5365   50.5167 H   0  0  0  0  0  0  0  0  0  0  0  0
   65.3541   33.2296   48.1316 H   0  0  0  0  0  0  0  0  0  0  0  0
   63.8203   34.7773   46.3196 H   0  0  0  0  0  0  0  0  0  0  0  0
   64.0488   33.0515   45.8769 H   0  0  0  0  0  0  0  0  0  0  0  0
   62.4017   33.7682   45.8769 H   0  0  0  0  0  0  0  0  0  0  0  0
   58.5480   30.5214   45.2136 H   0  0  0  0  0  0  0  0  0  0  0  0
   59.9646   29.6329   44.5006 H   0  0  0  0  0  0  0  0  0  0  0  0
   57.4659   28.5084   45.8119 H   0  0  0  0  0  0  0  0  0  0  0  0
   58.1838   28.1368   44.2004 H   0  0  0  0  0  0  0  0  0  0  0  0
   58.5749   26.2951   45.8037 H   0  0  0  0  0  0  0  0  0  0  0  0
   60.1249   27.0974   45.3008 H   0  0  0  0  0  0  0  0  0  0  0  0
   58.8268   26.9284   47.9747 H   0  0  0  0  0  0  0  0  0  0  0  0
   60.5791   27.1070   47.4877 H   0  0  0  0  0  0  0  0  0  0  0  0
   58.4957   29.2715   47.9570 H   0  0  0  0  0  0  0  0  0  0  0  0
   60.2892   28.2965   49.6520 H   0  0  0  0  0  0  0  0  0  0  0  0
   61.3453   29.4796   48.7841 H   0  0  0  0  0  0  0  0  0  0  0  0
   58.1962   31.0865   48.4527 H   0  0  0  0  0  0  0  0  0  0  0  0
   57.7750   32.8522   50.3937 H   0  0  0  0  0  0  0  0  0  0  0  0
   60.8853   30.2682   51.6255 H   0  0  0  0  0  0  0  0  0  0  0  0
   58.6726   31.8183   45.3343 H   0  0  0  0  0  0  0  0  0  0  0  0
  1  2  1  0
  2  3  2  0
  3  4  1  0
  4  5  2  0
  5  6  1  0
  6  7  2  0
  7  8  1  0
  8  9  2  0
  9 10  1  0
 10 11  2  0
 11 12  1  0
  5 13  1  0
 13 14  1  0
 14 15  2  0
 14 16  1  0
 16 17  1  0
 17 18  1  0
 18 19  1  0
 19 20  1  0
 20 21  1  0
 21 22  1  0
 22 23  1  0
 23 24  1  0
 24 25  2  0
 25 26  1  0
 26 27  2  0
 13 28  2  0
 28  2  1  0
 11  6  1  0
 21 16  1  0
 27 23  1  0
  1 29  1  0
  1 30  1  0
  1 31  1  0
  3 32  1  0
  4 33  1  0
  7 34  1  0
  8 35  1  0
  9 36  1  0
 10 37  1  0
 12 38  1  0
 12 39  1  0
 12 40  1  0
 17 41  1  0
 17 42  1  0
 18 43  1  0
 18 44  1  0
 19 45  1  0
 19 46  1  0
 20 47  1  0
 20 48  1  0
 21 49  1  1
 22 50  1  0
 22 51  1  0
 24 52  1  0
 25 53  1  0
 27 54  1  0
 28 55  1  0
M  CHG  1   7   1
M  END
>  <UniqueID>  (43) 
37

>  <SMILES>  (43) 
Cc1ccc(-c2[nH+]cccc2C)c(C(=O)N2CCCC[C@H]2Cn2ccnc2)c1

>  <Energy>  (43) 
101.64333737339689

>  <Genealogy>  (43) 
Cc1ccc(-c2[nH+]cccc2C)c(C(=O)N2CCCCC2Cn2ccnc2)c1 (protonated)
Cc1ccc(-c2[nH+]cccc2C)c(C(=O)N2CCCC[C@H]2Cn2ccnc2)c1 (chirality)
Cc1ccc(-c2[nH+]cccc2C)c(C(=O)N2CCCC[C@H]2Cn2ccnc2)c1 (3D coordinates assigned)
Cc1ccc(-c2[nH+]cccc2C)c(C(=O)N2CCCC[C@H]2Cn2ccnc2)c1 (nonaromatic ring conformer: 101.64333737339689 kcal/mol)

>  <smiles>  (43) 
Cc1ccc(-c2ncccc2C)c(C(=O)N2CCCCC2Cn2ccnc2)c1

>  <score_type>  (43) 
oracle

>  <origin>  (43) 
adg

>  <m_score__min__energy>  (43) 
-7.0099999999999998

>  <m_primary>  (43) 
energy

$$$$
43:0
     RDKit          3D

 39 41  0  0  0  0  0  0  0  0999 V2000
   59.7360   29.4070   44.8700 C   0  0  0  0  0  0  0  0  0  0  0  0
   58.4440   29.0660   44.2800 N   0  0  0  0  0  0  0  0  0  0  0  0
   58.0670   27.6870   44.1780 C   0  0  0  0  0  0  0  0  0  0  0  0
   58.1450   27.0460   42.9330 C   0  0  0  0  0  0  0  0  0  0  0  0
   57.7620   25.7090   42.8010 C   0  0  0  0  0  0  0  0  0  0  0  0
   57.2940   25.0030   43.9110 C   0  0  0  0  0  0  0  0  0  0  0  0
   56.8110   23.3250   43.7410 Cl  0  0  0  0  0  0  0  0  0  0  0  0
   57.2080   25.6330   45.1560 C   0  0  0  0  0  0  0  0  0  0  0  0
   57.5920   26.9770   45.3040 C   0  0  0  0  0  0  0  0  0  0  0  0
   57.4870   27.6350   46.6600 C   0  0  0  0  0  0  0  0  0  0  0  0
   58.7700   27.6100   47.3560 N   0  0  0  0  0  0  0  0  0  0  0  0
   59.7260   26.6700   47.2600 C   0  0  0  0  0  0  0  0  0  0  0  0
   60.7900   26.9830   48.0230 N   0  0  0  0  0  0  0  0  0  0  0  0
   60.4200   28.1620   48.5730 C   0  0  0  0  0  0  0  0  0  0  0  0
   59.1970   28.5560   48.1700 N   0  0  0  0  0  0  0  0  0  0  0  0
   57.2130   30.2870   44.1940 S   0  0  0  0  0  0  0  0  0  0  0  0
   56.8870   30.5780   42.7550 O   0  0  0  0  0  0  0  0  0  0  0  0
   55.9650   29.7940   44.8700 O   0  0  0  0  0  0  0  0  0  0  0  0
   57.7710   31.7630   44.9790 C   0  0  0  0  0  0  0  0  0  0  0  0
   58.1380   31.7580   46.3340 C   0  0  0  0  0  0  0  0  0  0  0  0
   58.5520   32.9400   46.9550 C   0  0  0  0  0  0  0  0  0  0  0  0
   58.6060   34.1320   46.2270 C   0  0  0  0  0  0  0  0  0  0  0  0
   58.2520   34.1410   44.8740 C   0  0  0  0  0  0  0  0  0  0  0  0
   57.8380   32.9600   44.2510 C   0  0  0  0  0  0  0  0  0  0  0  0
   59.6553   29.3857   45.9668 H   0  0  0  0  0  0  0  0  0  0  0  0
   60.4920   28.6776   44.5437 H   0  0  0  0  0  0  0  0  0  0  0  0
   60.0336   30.4145   44.5437 H   0  0  0  0  0  0  0  0  0  0  0  0
   58.5100   27.5993   42.0551 H   0  0  0  0  0  0  0  0  0  0  0  0
   57.8292   25.2121   41.8219 H   0  0  0  0  0  0  0  0  0  0  0  0
   56.8369   25.0725   46.0267 H   0  0  0  0  0  0  0  0  0  0  0  0
   57.1695   28.6800   46.5288 H   0  0  0  0  0  0  0  0  0  0  0  0
   56.7517   27.0807   47.2618 H   0  0  0  0  0  0  0  0  0  0  0  0
   59.6491   25.7647   46.6399 H   0  0  0  0  0  0  0  0  0  0  0  0
   61.0478   28.7349   49.2713 H   0  0  0  0  0  0  0  0  0  0  0  0
   58.0997   30.8210   46.9089 H   0  0  0  0  0  0  0  0  0  0  0  0
   58.8356   32.9320   48.0178 H   0  0  0  0  0  0  0  0  0  0  0  0
   58.9268   35.0626   46.7180 H   0  0  0  0  0  0  0  0  0  0  0  0
   58.2994   35.0780   44.2997 H   0  0  0  0  0  0  0  0  0  0  0  0
   57.5637   32.9695   43.1858 H   0  0  0  0  0  0  0  0  0  0  0  0
  1  2  1  0
  2  3  1  0
  3  4  2  0
  4  5  1  0
  5  6  2  0
  6  7  1  0
  6  8  1  0
  8  9  2  0
  9 10  1  0
 10 11  1  0
 11 12  1  0
 12 13  2  0
 13 14  1  0
 14 15  2  0
  2 16  1  0
 16 17  2  0
 16 18  2  0
 16 19  1  0
 19 20  2  0
 20 21  1  0
 21 22  2  0
 22 23  1  0
 23 24  2  0
  9  3  1  0
 15 11  1  0
 24 19  1  0
  1 25  1  0
  1 26  1  0
  1 27  1  0
  4 28  1  0
  5 29  1  0
  8 30  1  0
 10 31  1  0
 10 32  1  0
 12 33  1  0
 14 34  1  0
 20 35  1  0
 21 36  1  0
 22 37  1  0
 23 38  1  0
 24 39  1  0
M  END
>  <UniqueID>  (44) 
38

>  <SMILES>  (44) 
CN(c1ccc(Cl)cc1Cn1cncn1)S(=O)(=O)c1ccccc1

>  <Energy>  (44) 
77.53492451275885

>  <Genealogy>  (44) 
CN(c1ccc(Cl)cc1Cn1cncn1)S(=O)(=O)c1ccccc1 (3D coordinates assigned)
CN(c1ccc(Cl)cc1Cn1cncn1)S(=O)(=O)c1ccccc1 (optimized conformer: 77.53492451275885 kcal/mol)

>  <smiles>  (44) 
CN(c1ccc(Cl)cc1Cn1cncn1)S(=O)(=O)c1ccccc1

>  <score_type>  (44) 
oracle

>  <origin>  (44) 
adg

>  <m_score__min__energy>  (44) 
-7.8700000000000001

>  <m_primary>  (44) 
energy

$$$$
44:0
     RDKit          3D

 40 42  0  0  0  0  0  0  0  0999 V2000
   58.8320   26.9570   44.9970 C   0  0  0  0  0  0  0  0  0  0  0  0
   58.2750   28.2050   44.4920 N   0  0  0  0  0  0  0  0  0  0  0  0
   58.7880   29.4350   44.6810 C   0  0  0  0  0  0  0  0  0  0  0  0
   58.0060   30.3330   43.9790 C   0  0  0  0  0  0  0  0  0  0  0  0
   58.1530   31.8250   43.9430 C   0  0  0  0  0  0  0  0  0  0  0  0
   57.5020   32.4530   45.1130 N   0  0  0  0  0  0  0  0  0  0  0  0
   58.1540   32.0340   46.3820 C   0  0  0  0  0  0  0  0  0  0  0  0
   57.9410   33.0610   47.5040 C   0  0  0  0  0  0  0  0  0  0  0  0
   58.4900   34.3900   47.1440 N   0  0  0  0  0  0  0  0  0  0  0  0
   59.7360   34.7520   47.8560 C   0  0  0  0  0  0  0  0  0  0  0  0
   60.8140   33.6970   47.7750 C   0  0  0  0  0  0  0  0  0  0  0  0
   60.8380   32.5470   48.5830 C   0  0  0  0  0  0  0  0  0  0  0  0
   61.9200   31.7160   48.3370 C   0  0  0  0  0  0  0  0  0  0  0  0
   62.8540   32.4170   47.1310 S   0  0  0  0  0  0  0  0  0  0  0  0
   61.9000   33.7800   46.9070 C   0  0  0  0  0  0  0  0  0  0  0  0
   58.5480   34.6560   45.6890 C   0  0  0  0  0  0  0  0  0  0  0  0
   57.4160   33.9280   44.9530 C   0  0  0  0  0  0  0  0  0  0  0  0
   57.0190   29.5770   43.3740 C   0  0  0  0  0  0  0  0  0  0  0  0
   57.2200   28.2860   43.6960 N   0  0  0  0  0  0  0  0  0  0  0  0
   58.8257   26.9712   46.0969 H   0  0  0  0  0  0  0  0  0  0  0  0
   58.2253   26.1127   44.6377 H   0  0  0  0  0  0  0  0  0  0  0  0
   59.8656   26.8448   44.6377 H   0  0  0  0  0  0  0  0  0  0  0  0
   59.6725   29.6818   45.2866 H   0  0  0  0  0  0  0  0  0  0  0  0
   59.2229   32.0807   43.9471 H   0  0  0  0  0  0  0  0  0  0  0  0
   57.6687   32.2016   43.0300 H   0  0  0  0  0  0  0  0  0  0  0  0
   57.7296   31.0696   46.6979 H   0  0  0  0  0  0  0  0  0  0  0  0
   59.2353   31.9512   46.1976 H   0  0  0  0  0  0  0  0  0  0  0  0
   56.8624   33.1611   47.6953 H   0  0  0  0  0  0  0  0  0  0  0  0
   58.4695   32.7036   48.4001 H   0  0  0  0  0  0  0  0  0  0  0  0
   60.1276   35.6821   47.4183 H   0  0  0  0  0  0  0  0  0  0  0  0
   59.4763   34.8631   48.9191 H   0  0  0  0  0  0  0  0  0  0  0  0
   60.0703   32.3271   49.3395 H   0  0  0  0  0  0  0  0  0  0  0  0
   62.1301   30.7627   48.8440 H   0  0  0  0  0  0  0  0  0  0  0  0
   62.0982   34.5970   46.1977 H   0  0  0  0  0  0  0  0  0  0  0  0
   58.4518   35.7382   45.5168 H   0  0  0  0  0  0  0  0  0  0  0  0
   59.5106   34.2891   45.3031 H   0  0  0  0  0  0  0  0  0  0  0  0
   56.4521   34.2727   45.3556 H   0  0  0  0  0  0  0  0  0  0  0  0
   57.5064   34.1580   43.8811 H   0  0  0  0  0  0  0  0  0  0  0  0
   56.2088   29.9643   42.7387 H   0  0  0  0  0  0  0  0  0  0  0  0
   56.6460   27.4740   43.3760 H   0  0  0  0  0  0  0  0  0  0  0  0
  1  2  1  0
  2  3  1  0
  3  4  2  0
  4  5  1  0
  5  6  1  0
  6  7  1  0
  7  8  1  0
  8  9  1  0
  9 10  1  0
 10 11  1  0
 11 12  1  0
 12 13  2  0
 13 14  1  0
 14 15  1  0
  9 16  1  0
 16 17  1  0
  4 18  1  0
 18 19  2  0
 19  2  1  0
 17  6  1  0
 15 11  2  0
  1 20  1  0
  1 21  1  0
  1 22  1  0
  3 23  1  0
  5 24  1  0
  5 25  1  0
  7 26  1  0
  7 27  1  0
  8 28  1  0
  8 29  1  0
 10 30  1  0
 10 31  1  0
 12 32  1  0
 13 33  1  0
 15 34  1  0
 16 35  1  0
 16 36  1  0
 17 37  1  0
 17 38  1  0
 18 39  1  0
 19 40  1  0
M  CHG  1  19   1
M  END
>  <UniqueID>  (45) 
39

>  <SMILES>  (45) 
Cn1cc(CN2CCN(Cc3ccsc3)CC2)c[nH+]1

>  <Energy>  (45) 
109.24354911987072

>  <Genealogy>  (45) 
Cn1cc(CN2CCN(Cc3ccsc3)CC2)c[nH+]1 (protonated)
Cn1cc(CN2CCN(Cc3ccsc3)CC2)c[nH+]1 (3D coordinates assigned)
Cn1cc(CN2CCN(Cc3ccsc3)CC2)c[nH+]1 (nonaromatic ring conformer: 109.24354911987072 kcal/mol)

>  <smiles>  (45) 
Cn1cc(CN2CCN(Cc3ccsc3)CC2)cn1

>  <score_type>  (45) 
oracle

>  <origin>  (45) 
adg

>  <m_score__min__energy>  (45) 
-5.8099999999999996

>  <m_primary>  (45) 
energy

$$$$
45:0
     RDKit          3D

 82 86  0  0  0  0  0  0  0  0999 V2000
   57.7270   32.5080   44.7100 C   0  0  0  0  0  0  0  0  0  0  0  0
   56.7470   31.5050   44.8600 O   0  0  0  0  0  0  0  0  0  0  0  0
   56.6960   30.7180   43.6880 C   0  0  0  0  0  0  0  0  0  0  0  0
   55.5220   29.7490   43.7830 C   0  0  0  0  0  0  0  0  0  0  0  0
   55.6710   28.9530   44.9400 O   0  0  0  0  0  0  0  0  0  0  0  0
   57.0330   28.6390   45.1670 C   0  0  0  0  0  0  0  0  0  0  0  0
   57.1520   27.4030   46.0600 C   0  0  0  0  0  0  0  0  0  0  0  0
   57.9140   27.7180   47.2090 O   0  0  0  0  0  0  0  0  0  0  0  0
   58.6750   28.8830   46.9690 C   0  0  0  0  0  0  0  0  0  0  0  0
   59.8960   28.8910   47.8820 C   0  0  0  0  0  0  0  0  0  0  0  0
   60.1330   30.2040   48.3450 O   0  0  0  0  0  0  0  0  0  0  0  0
   58.9000   30.8490   48.5920 C   0  0  0  0  0  0  0  0  0  0  0  0
   58.5680   30.7570   50.0750 C   0  0  0  0  0  0  0  0  0  0  0  0
   58.0180   31.9860   50.4990 O   0  0  0  0  0  0  0  0  0  0  0  0
   57.8550   32.0150   51.9050 C   0  0  0  0  0  0  0  0  0  0  0  0
   57.7570   33.4670   52.3820 C   0  0  0  0  0  0  0  0  0  0  0  0
   59.0390   34.0660   52.4620 O   0  0  0  0  0  0  0  0  0  0  0  0
   60.0860   33.1530   52.1700 C   0  0  2  0  0  0  0  0  0  0  0  0
   61.1380   33.2520   53.3040 C   0  0  0  0  0  0  0  0  0  0  0  0
   62.4860   33.4300   53.1080 C   0  0  0  0  0  0  0  0  0  0  0  0
   63.0830   33.6210   51.7110 C   0  0  1  0  0  0  0  0  0  0  0  0
   64.4970   33.0470   51.3760 C   0  0  2  0  0  0  0  0  0  0  0  0
   64.8740   33.4490   49.8640 C   0  0  0  0  0  0  0  0  0  0  0  0
   63.7180   33.3740   48.8680 C   0  0  0  0  0  0  0  0  0  0  0  0
   63.8160   33.5570   47.4740 C   0  0  0  0  0  0  0  0  0  0  0  0
   62.6360   33.5970   46.6770 C   0  0  0  0  0  0  0  0  0  0  0  0
   61.3440   33.5130   47.2820 C   0  0  0  0  0  0  0  0  0  0  0  0
   60.1510   33.5620   46.5520 O   0  0  0  0  0  0  0  0  0  0  0  0
   59.0940   34.4770   46.8160 C   0  0  0  0  0  0  0  0  0  0  0  0
   61.2950   33.3790   48.6700 C   0  0  0  0  0  0  0  0  0  0  0  0
   62.4520   33.2930   49.3820 C   0  0  0  0  0  0  0  0  0  0  0  0
   62.1480   32.9390   50.7440 C   0  0  1  0  0  0  0  0  0  0  0  0
   62.2160   31.3650   50.8210 C   0  0  0  0  0  0  0  0  0  0  0  0
   63.2950   30.8400   51.7810 C   0  0  0  0  0  0  0  0  0  0  0  0
   64.5910   31.5770   51.7050 N   0  0  1  0  0  0  0  0  0  0  0  0
   65.5670   30.8280   50.8880 C   0  0  0  0  0  0  0  0  0  0  0  0
   60.7640   33.5750   50.8510 C   0  0  1  0  0  0  0  0  0  0  0  0
   60.1960   33.3560   49.5450 O   0  0  0  0  0  0  0  0  0  0  0  0
   58.0589   32.8477   45.7022 H   0  0  0  0  0  0  0  0  0  0  0  0
   58.5857   32.1017   44.1554 H   0  0  0  0  0  0  0  0  0  0  0  0
   57.3008   33.3570   44.1554 H   0  0  0  0  0  0  0  0  0  0  0  0
   56.5640   31.3707   42.8124 H   0  0  0  0  0  0  0  0  0  0  0  0
   57.6335   30.1523   43.5826 H   0  0  0  0  0  0  0  0  0  0  0  0
   54.5811   30.3155   43.8445 H   0  0  0  0  0  0  0  0  0  0  0  0
   55.5002   29.1054   42.8912 H   0  0  0  0  0  0  0  0  0  0  0  0
   57.5246   28.4390   44.2035 H   0  0  0  0  0  0  0  0  0  0  0  0
   57.5173   29.4900   45.6682 H   0  0  0  0  0  0  0  0  0  0  0  0
   56.1477   27.0745   46.3658 H   0  0  0  0  0  0  0  0  0  0  0  0
   57.6499   26.5964   45.5020 H   0  0  0  0  0  0  0  0  0  0  0  0
   59.0025   28.8969   45.9190 H   0  0  0  0  0  0  0  0  0  0  0  0
   58.0591   29.7712   47.1734 H   0  0  0  0  0  0  0  0  0  0  0  0
   59.7156   28.2272   48.7404 H   0  0  0  0  0  0  0  0  0  0  0  0
   60.7738   28.5375   47.3211 H   0  0  0  0  0  0  0  0  0  0  0  0
   58.9737   31.9063   48.2975 H   0  0  0  0  0  0  0  0  0  0  0  0
   58.1067   30.3603   48.0074 H   0  0  0  0  0  0  0  0  0  0  0  0
   57.8392   29.9499   50.2406 H   0  0  0  0  0  0  0  0  0  0  0  0
   59.4817   30.5408   50.6481 H   0  0  0  0  0  0  0  0  0  0  0  0
   56.9350   31.4773   52.1779 H   0  0  0  0  0  0  0  0  0  0  0  0
   58.7200   31.5316   52.3826 H   0  0  0  0  0  0  0  0  0  0  0  0
   57.1379   34.0368   51.6734 H   0  0  0  0  0  0  0  0  0  0  0  0
   57.3046   33.4753   53.3846 H   0  0  0  0  0  0  0  0  0  0  0  0
   59.6890   32.1307   52.0846 H   0  0  0  0  0  0  0  0  0  0  0  0
   60.7792   33.1741   54.3409 H   0  0  0  0  0  0  0  0  0  0  0  0
   63.1562   33.4355   53.9803 H   0  0  0  0  0  0  0  0  0  0  0  0
   63.2042   34.7123   51.6454 H   0  0  0  0  0  0  0  0  0  0  0  0
   65.2674   33.4988   52.0181 H   0  0  0  0  0  0  0  0  0  0  0  0
   65.2527   34.4817   49.8699 H   0  0  0  0  0  0  0  0  0  0  0  0
   65.6182   32.7125   49.5268 H   0  0  0  0  0  0  0  0  0  0  0  0
   64.8031   33.6689   47.0017 H   0  0  0  0  0  0  0  0  0  0  0  0
   62.7202   33.6936   45.5845 H   0  0  0  0  0  0  0  0  0  0  0  0
   58.9671   34.5869   47.9031 H   0  0  0  0  0  0  0  0  0  0  0  0
   59.3367   35.4548   46.3745 H   0  0  0  0  0  0  0  0  0  0  0  0
   58.1610   34.0967   46.3745 H   0  0  0  0  0  0  0  0  0  0  0  0
   61.2384   30.9912   51.1594 H   0  0  0  0  0  0  0  0  0  0  0  0
   62.4775   31.0047   49.8151 H   0  0  0  0  0  0  0  0  0  0  0  0
   62.9116   30.9210   52.8088 H   0  0  0  0  0  0  0  0  0  0  0  0
   63.5036   29.8012   51.4853 H   0  0  0  0  0  0  0  0  0  0  0  0
   64.9840   31.5350   52.6790 H   0  0  0  0  0  0  0  0  0  0  0  0
   66.2645   30.2928   51.5491 H   0  0  0  0  0  0  0  0  0  0  0  0
   65.0349   30.1042   50.2532 H   0  0  0  0  0  0  0  0  0  0  0  0
   66.1285   31.5292   50.2532 H   0  0  0  0  0  0  0  0  0  0  0  0
   60.6706   34.6599   51.0069 H   0  0  0  0  0  0  0  0  0  0  0  0
  1  2  1  0
  2  3  1  0
  3  4  1  0
  4  5  1  0
  5  6  1  0
  6  7  1  0
  7  8  1  0
  8  9  1  0
  9 10  1  0
 10 11  1  0
 11 12  1  0
 12 13  1  0
 13 14  1  0
 14 15  1  0
 15 16  1  0
 16 17  1  0
 17 18  1  0
 18 19  1  0
 19 20  2  0
 20 21  1  0
 21 22  1  0
 22 23  1  0
 23 24  1  0
 24 25  2  0
 25 26  1  0
 26 27  2  0
 27 28  1  0
 28 29  1  0
 27 30  1  0
 30 31  2  0
 31 32  1  0
 32 33  1  6
 33 34  1  0
 34 35  1  0
 35 36  1  0
 32 37  1  0
 37 38  1  0
 37 18  1  0
 32 21  1  0
 35 22  1  0
 31 24  1  0
 38 30  1  0
  1 39  1  0
  1 40  1  0
  1 41  1  0
  3 42  1  0
  3 43  1  0
  4 44  1  0
  4 45  1  0
  6 46  1  0
  6 47  1  0
  7 48  1  0
  7 49  1  0
  9 50  1  0
  9 51  1  0
 10 52  1  0
 10 53  1  0
 12 54  1  0
 12 55  1  0
 13 56  1  0
 13 57  1  0
 15 58  1  0
 15 59  1  0
 16 60  1  0
 16 61  1  0
 18 62  1  6
 19 63  1  0
 20 64  1  0
 21 65  1  6
 22 66  1  1
 23 67  1  0
 23 68  1  0
 25 69  1  0
 26 70  1  0
 29 71  1  0
 29 72  1  0
 29 73  1  0
 33 74  1  0
 33 75  1  0
 34 76  1  0
 34 77  1  0
 35 78  1  1
 36 79  1  0
 36 80  1  0
 36 81  1  0
 37 82  1  1
M  CHG  1  35   1
M  END
>  <UniqueID>  (46) 
40

>  <SMILES>  (46) 
COCCOCCOCCOCCOCCO[C@@H]1C=C[C@H]2C3Cc4ccc(OC)c5c4C2(CC[NH+]3C)C1O5

>  <Energy>  (46) 
166.44712863234935

>  <Genealogy>  (46) 
COCCOCCOCCOCCOCCOC1C=CC2C3Cc4ccc(OC)c5c4C2(CC[NH+]3C)C1O5 (protonated)
COCCOCCOCCOCCOCCO[C@@H]1C=C[C@H]2C3Cc4ccc(OC)c5c4C2(CC[NH+]3C)C1O5 (chirality)
COCCOCCOCCOCCOCCO[C@@H]1C=C[C@H]2C3Cc4ccc(OC)c5c4C2(CC[NH+]3C)C1O5 (3D coordinates assigned)
COCCOCCOCCOCCOCCO[C@@H]1C=C[C@H]2C3Cc4ccc(OC)c5c4C2(CC[NH+]3C)C1O5 (nonaromatic ring conformer: 166.44712863234935 kcal/mol)

>  <smiles>  (46) 
COCCOCCOCCOCCOCCOC1C=CC2C3Cc4ccc(OC)c5c4C2(CCN3C)C1O5

>  <score_type>  (46) 
oracle

>  <origin>  (46) 
adg

>  <m_score__min__energy>  (46) 
-7.71

>  <m_primary>  (46) 
energy

$$$$
46:0
     RDKit          3D

 47 50  0  0  0  0  0  0  0  0999 V2000
   56.8588   28.8407   44.9137 H   0  0  0  0  0  0  0  0  0  0  0  0
   57.1810   29.8710   45.1250 C   0  0  0  0  0  0  0  0  0  0  0  0
   56.7050   30.9790   44.4990 N   0  0  0  0  0  0  0  0  0  0  0  0
   57.3890   31.9840   45.0810 C   0  0  0  0  0  0  0  0  0  0  0  0
   57.2940   33.3330   44.7710 C   0  0  0  0  0  0  0  0  0  0  0  0
   56.5909   33.6950   44.0064 H   0  0  0  0  0  0  0  0  0  0  0  0
   58.1290   34.2180   45.4700 C   0  0  0  0  0  0  0  0  0  0  0  0
   58.0834   35.2972   45.2621 H   0  0  0  0  0  0  0  0  0  0  0  0
   59.0340   33.7200   46.4470 C   0  0  0  0  0  0  0  0  0  0  0  0
   59.8450   34.4810   47.1310 N   0  0  0  0  0  0  0  0  0  0  0  0
   61.1460   34.1860   47.7490 C   0  0  0  0  0  0  0  0  0  0  0  0
   61.5859   35.1490   48.0477 H   0  0  0  0  0  0  0  0  0  0  0  0
   62.1380   33.5680   46.7430 C   0  0  0  0  0  0  0  0  0  0  0  0
   61.7190   32.6239   46.3646 H   0  0  0  0  0  0  0  0  0  0  0  0
   62.2899   34.2896   45.9268 H   0  0  0  0  0  0  0  0  0  0  0  0
   63.5120   33.2810   47.3910 C   0  0  0  0  0  0  0  0  0  0  0  0
   63.8948   32.3302   46.9916 H   0  0  0  0  0  0  0  0  0  0  0  0
   64.1707   34.1276   47.1474 H   0  0  0  0  0  0  0  0  0  0  0  0
   63.4530   33.1810   48.8690 N   0  0  0  0  0  0  0  0  0  0  0  0
   64.6500   32.5020   49.3830 C   0  0  0  0  0  0  0  0  0  0  0  0
   64.6331   32.5116   50.4828 H   0  0  0  0  0  0  0  0  0  0  0  0
   64.6634   31.4618   49.0255 H   0  0  0  0  0  0  0  0  0  0  0  0
   65.5497   33.0242   49.0255 H   0  0  0  0  0  0  0  0  0  0  0  0
   62.2320   32.4860   49.3120 C   0  0  0  0  0  0  0  0  0  0  0  0
   62.1200   31.5482   48.7481 H   0  0  0  0  0  0  0  0  0  0  0  0
   62.3088   32.2639   50.3866 H   0  0  0  0  0  0  0  0  0  0  0  0
   61.0100   33.3790   49.0640 C   0  0  0  0  0  0  0  0  0  0  0  0
   60.1127   32.7458   49.0022 H   0  0  0  0  0  0  0  0  0  0  0  0
   60.9329   34.0929   49.8973 H   0  0  0  0  0  0  0  0  0  0  0  0
   59.0650   32.3770   46.6840 N   0  0  0  0  0  0  0  0  0  0  0  0
   58.2450   31.5660   46.0180 N   0  0  0  0  0  0  0  0  0  0  0  0
   58.1350   30.2290   46.0720 C   0  0  0  0  0  0  0  0  0  0  0  0
   58.9010   29.3160   46.9530 C   0  0  0  0  0  0  0  0  0  0  0  0
   59.2170   28.0170   46.5160 C   0  0  0  0  0  0  0  0  0  0  0  0
   58.8963   27.6836   45.5180 H   0  0  0  0  0  0  0  0  0  0  0  0
   59.9360   27.1460   47.3410 C   0  0  0  0  0  0  0  0  0  0  0  0
   60.1830   26.1346   46.9858 H   0  0  0  0  0  0  0  0  0  0  0  0
   60.3450   27.5570   48.6230 C   0  0  0  0  0  0  0  0  0  0  0  0
   61.0680   26.7210   49.4870 O   0  0  0  0  0  0  0  0  0  0  0  0
   61.1510   26.9040   50.8970 C   0  0  0  0  0  0  0  0  0  0  0  0
   60.7483   26.0161   51.4063 H   0  0  0  0  0  0  0  0  0  0  0  0
   62.2024   27.0476   51.1868 H   0  0  0  0  0  0  0  0  0  0  0  0
   60.5665   27.7896   51.1868 H   0  0  0  0  0  0  0  0  0  0  0  0
   60.0210   28.8450   49.0610 C   0  0  0  0  0  0  0  0  0  0  0  0
   60.3342   29.1748   50.0626 H   0  0  0  0  0  0  0  0  0  0  0  0
   59.3030   29.7170   48.2380 C   0  0  0  0  0  0  0  0  0  0  0  0
   59.0507   30.7249   48.5991 H   0  0  0  0  0  0  0  0  0  0  0  0
  1  2  1  0
  2  3  1  0
  3  4  2  0
  4  5  1  0
  5  6  1  0
  5  7  2  0
  7  8  1  0
  7  9  1  0
  9 10  2  0
 10 11  1  0
 11 12  1  0
 11 13  1  0
 13 14  1  0
 13 15  1  0
 13 16  1  0
 16 17  1  0
 16 18  1  0
 16 19  1  0
 19 20  1  0
 20 21  1  0
 20 22  1  0
 20 23  1  0
 19 24  1  0
 24 25  1  0
 24 26  1  0
 24 27  1  0
 27 28  1  0
 27 29  1  0
  9 30  1  0
 30 31  1  0
 31 32  1  0
 32 33  1  0
 33 34  2  0
 34 35  1  0
 34 36  1  0
 36 37  1  0
 36 38  2  0
 38 39  1  0
 39 40  1  0
 40 41  1  0
 40 42  1  0
 40 43  1  0
 38 44  1  0
 44 45  1  0
 44 46  2  0
 46 47  1  0
 32  2  2  0
 46 33  1  0
 31  4  1  0
 27 11  1  0
M  CHG  1  30  -1
M  END
>  <UniqueID>  (47) 
41

>  <SMILES>  (47) 
COc1ccc(-c2cnc3cc/c(=N\C4CCN(C)CC4)[n-]n23)cc1

>  <Energy>  (47) 
101.31230607002303

>  <Genealogy>  (47) 
COc1ccc(-c2cnc3ccc(=NC4CCN(C)CC4)[n-]n23)cc1 (protonated)
COc1ccc(-c2cnc3cc/c(=N\C4CCN(C)CC4)[n-]n23)cc1 (cis-trans isomerization)
COc1ccc(-c2cnc3cc/c(=N\C4CCN(C)CC4)[n-]n23)cc1 (3D coordinates assigned)
COc1ccc(-c2cnc3cc/c(=N\C4CCN(C)CC4)[n-]n23)cc1 (nonaromatic ring conformer: 101.31230607002303 kcal/mol)

>  <smiles>  (47) 
COc1ccc(-c2cnc3ccc(=NC4CCN(C)CC4)[nH]n23)cc1

>  <score_type>  (47) 
oracle

>  <origin>  (47) 
adg

>  <m_score__min__energy>  (47) 
-9.3399999999999999

>  <m_primary>  (47) 
energy

$$$$
47:0
     RDKit          3D

 48 50  0  0  0  0  0  0  0  0999 V2000
   58.5190   33.1450   51.5350 C   0  0  0  0  0  0  0  0  0  0  0  0
   58.0520   31.9190   50.7540 C   0  0  0  0  0  0  0  0  0  0  0  0
   58.7940   30.7100   51.1740 N   0  0  0  0  0  0  0  0  0  0  0  0
   57.9730   29.7180   51.9040 C   0  0  0  0  0  0  0  0  0  0  0  0
   57.0700   30.3340   52.9750 C   0  0  0  0  0  0  0  0  0  0  0  0
   60.1610   30.9130   51.7200 C   0  0  0  0  0  0  0  0  0  0  0  0
   61.3000   30.8190   50.6810 C   0  0  0  0  0  0  0  0  0  0  0  0
   60.8630   30.0550   49.4990 N   0  0  0  0  0  0  0  0  0  0  0  0
   60.4730   30.9340   48.4170 C   0  0  0  0  0  0  0  0  0  0  0  0
   59.2380   30.7920   47.8710 C   0  0  0  0  0  0  0  0  0  0  0  0
   58.7220   31.5770   46.7250 C   0  0  0  0  0  0  0  0  0  0  0  0
   58.1220   30.8990   45.6530 C   0  0  0  0  0  0  0  0  0  0  0  0
   57.6540   31.6080   44.5420 C   0  0  0  0  0  0  0  0  0  0  0  0
   56.9260   30.7490   43.1970 Cl  0  0  0  0  0  0  0  0  0  0  0  0
   57.7720   33.0010   44.5010 C   0  0  0  0  0  0  0  0  0  0  0  0
   58.3410   33.6870   45.5760 C   0  0  0  0  0  0  0  0  0  0  0  0
   58.7960   32.9830   46.6960 C   0  0  0  0  0  0  0  0  0  0  0  0
   59.4620   33.8790   48.0930 S   0  0  0  0  0  0  0  0  0  0  0  0
   61.1050   33.2910   47.7000 C   0  0  0  0  0  0  0  0  0  0  0  0
   62.0380   34.1930   47.1730 C   0  0  0  0  0  0  0  0  0  0  0  0
   63.3370   33.7730   46.8860 C   0  0  0  0  0  0  0  0  0  0  0  0
   63.7100   32.4490   47.1230 C   0  0  0  0  0  0  0  0  0  0  0  0
   62.7800   31.5390   47.6320 C   0  0  0  0  0  0  0  0  0  0  0  0
   61.4600   31.9380   47.9080 C   0  0  0  0  0  0  0  0  0  0  0  0
   58.4423   32.9437   52.6137 H   0  0  0  0  0  0  0  0  0  0  0  0
   59.5649   33.3676   51.2770 H   0  0  0  0  0  0  0  0  0  0  0  0
   57.8863   34.0070   51.2770 H   0  0  0  0  0  0  0  0  0  0  0  0
   56.9783   31.7637   50.9361 H   0  0  0  0  0  0  0  0  0  0  0  0
   58.2398   32.0920   49.6840 H   0  0  0  0  0  0  0  0  0  0  0  0
   57.3386   29.1900   51.1768 H   0  0  0  0  0  0  0  0  0  0  0  0
   58.6703   29.0428   52.4216 H   0  0  0  0  0  0  0  0  0  0  0  0
   57.4532   30.0726   53.9724 H   0  0  0  0  0  0  0  0  0  0  0  0
   57.0600   31.4281   52.8612 H   0  0  0  0  0  0  0  0  0  0  0  0
   56.0477   29.9442   52.8612 H   0  0  0  0  0  0  0  0  0  0  0  0
   60.2000   31.9117   52.1795 H   0  0  0  0  0  0  0  0  0  0  0  0
   60.3303   30.0955   52.4362 H   0  0  0  0  0  0  0  0  0  0  0  0
   61.5892   31.8334   50.3690 H   0  0  0  0  0  0  0  0  0  0  0  0
   62.1563   30.3030   51.1397 H   0  0  0  0  0  0  0  0  0  0  0  0
   60.0590   29.4340   49.7570 H   0  0  0  0  0  0  0  0  0  0  0  0
   61.6450   29.4370   49.1740 H   0  0  0  0  0  0  0  0  0  0  0  0
   58.5703   30.0375   48.3125 H   0  0  0  0  0  0  0  0  0  0  0  0
   58.0192   29.8043   45.6866 H   0  0  0  0  0  0  0  0  0  0  0  0
   57.4162   33.5568   43.6210 H   0  0  0  0  0  0  0  0  0  0  0  0
   58.4316   34.7827   45.5421 H   0  0  0  0  0  0  0  0  0  0  0  0
   61.7454   35.2365   46.9847 H   0  0  0  0  0  0  0  0  0  0  0  0
   64.0669   34.4849   46.4731 H   0  0  0  0  0  0  0  0  0  0  0  0
   64.7380   32.1215   46.9087 H   0  0  0  0  0  0  0  0  0  0  0  0
   63.0838   30.4985   47.8190 H   0  0  0  0  0  0  0  0  0  0  0  0
  1  2  1  0
  2  3  1  0
  3  4  1  0
  4  5  1  0
  3  6  1  0
  6  7  1  0
  7  8  1  0
  8  9  1  0
  9 10  2  0
 10 11  1  0
 11 12  2  0
 12 13  1  0
 13 14  1  0
 13 15  2  0
 15 16  1  0
 16 17  2  0
 17 18  1  0
 18 19  1  0
 19 20  2  0
 20 21  1  0
 21 22  2  0
 22 23  1  0
 23 24  2  0
 24  9  1  0
 17 11  1  0
 24 19  1  0
  1 25  1  0
  1 26  1  0
  1 27  1  0
  2 28  1  0
  2 29  1  0
  4 30  1  0
  4 31  1  0
  5 32  1  0
  5 33  1  0
  5 34  1  0
  6 35  1  0
  6 36  1  0
  7 37  1  0
  7 38  1  0
  8 39  1  0
  8 40  1  0
 10 41  1  0
 12 42  1  0
 15 43  1  0
 16 44  1  0
 20 45  1  0
 21 46  1  0
 22 47  1  0
 23 48  1  0
M  CHG  1   8   1
M  END
>  <UniqueID>  (48) 
42

>  <SMILES>  (48) 
CCN(CC)CC[NH2+]C1=Cc2cc(Cl)ccc2Sc2ccccc21

>  <Energy>  (48) 
68.51835098238057

>  <Genealogy>  (48) 
CCN(CC)CC[NH2+]C1=Cc2cc(Cl)ccc2Sc2ccccc21 (protonated)
CCN(CC)CC[NH2+]C1=Cc2cc(Cl)ccc2Sc2ccccc21 (3D coordinates assigned)
CCN(CC)CC[NH2+]C1=Cc2cc(Cl)ccc2Sc2ccccc21 (nonaromatic ring conformer: 68.51835098238057 kcal/mol)

>  <smiles>  (48) 
CCN(CC)CCNC1=Cc2cc(Cl)ccc2Sc2ccccc21

>  <score_type>  (48) 
oracle

>  <origin>  (48) 
adg

>  <m_score__min__energy>  (48) 
-4.6900000000000004

>  <m_primary>  (48) 
energy

$$$$
