0:0
     RDKit          3D

 66 68  0  0  0  0  0  0  0  0999 V2000
   63.1000   33.8110   46.7670 C   0  0  0  0  0  0  0  0  0  0  0  0
   63.4430   32.3630   47.0880 C   0  0  0  0  0  0  0  0  0  0  0  0
   62.7480   31.9460   48.2510 O   0  0  0  0  0  0  0  0  0  0  0  0
   63.5940   31.9590   49.3860 C   0  0  0  0  0  0  0  0  0  0  0  0
   63.0630   30.9820   50.4470 C   0  0  0  0  0  0  0  0  0  0  0  0
   61.5940   30.9850   50.5300 N   0  0  0  0  0  0  0  0  0  0  0  0
   61.0460   29.6350   50.3340 C   0  0  0  0  0  0  0  0  0  0  0  0
   60.3810   29.4950   48.9600 C   0  0  0  0  0  0  0  0  0  0  0  0
   60.8740   30.4690   47.9510 N   0  0  0  0  0  0  0  0  0  0  0  0
   59.9050   30.7070   46.8850 C   0  0  0  0  0  0  0  0  0  0  0  0
   59.4960   29.6040   46.0710 C   0  0  0  0  0  0  0  0  0  0  0  0
   59.9750   28.2870   46.3020 C   0  0  0  0  0  0  0  0  0  0  0  0
   59.5820   27.2190   45.5020 C   0  0  0  0  0  0  0  0  0  0  0  0
   58.7160   27.4270   44.4420 C   0  0  0  0  0  0  0  0  0  0  0  0
   58.2320   28.7030   44.1820 C   0  0  0  0  0  0  0  0  0  0  0  0
   58.5870   29.8090   44.9990 C   0  0  0  0  0  0  0  0  0  0  0  0
   58.0980   31.0670   44.7390 N   0  0  0  0  0  0  0  0  0  0  0  0
   56.9470   31.2360   43.8200 C   0  0  0  0  0  0  0  0  0  0  0  0
   58.6550   32.1670   45.3490 C   0  0  0  0  0  0  0  0  0  0  0  0
   58.4560   33.4570   44.8020 C   0  0  0  0  0  0  0  0  0  0  0  0
   58.9190   34.5890   45.4440 C   0  0  0  0  0  0  0  0  0  0  0  0
   59.5380   34.4800   46.6740 C   0  0  0  0  0  0  0  0  0  0  0  0
   59.7670   33.2220   47.2630 C   0  0  0  0  0  0  0  0  0  0  0  0
   60.2480   33.1600   48.5820 O   0  0  0  0  0  0  0  0  0  0  0  0
   60.2780   34.2290   49.5320 C   0  0  0  0  0  0  0  0  0  0  0  0
   59.6480   33.8240   50.8690 C   0  0  0  0  0  0  0  0  0  0  0  0
   59.3700   32.3700   50.8800 N   0  0  0  0  0  0  0  0  0  0  0  0
   59.2600   31.8550   52.2530 C   0  0  0  0  0  0  0  0  0  0  0  0
   58.1490   32.0500   50.1260 C   0  0  0  0  0  0  0  0  0  0  0  0
   59.4540   32.0260   46.5280 C   0  0  0  0  0  0  0  0  0  0  0  0
   62.9670   34.3726   47.7035 H   0  0  0  0  0  0  0  0  0  0  0  0
   63.9165   34.2604   46.1828 H   0  0  0  0  0  0  0  0  0  0  0  0
   62.1686   33.8464   46.1828 H   0  0  0  0  0  0  0  0  0  0  0  0
   63.1526   31.7236   46.2413 H   0  0  0  0  0  0  0  0  0  0  0  0
   64.5254   32.2793   47.2650 H   0  0  0  0  0  0  0  0  0  0  0  0
   64.6088   31.6569   49.0877 H   0  0  0  0  0  0  0  0  0  0  0  0
   63.6167   32.9744   49.8085 H   0  0  0  0  0  0  0  0  0  0  0  0
   63.3999   29.9665   50.1917 H   0  0  0  0  0  0  0  0  0  0  0  0
   63.4538   31.3039   51.4235 H   0  0  0  0  0  0  0  0  0  0  0  0
   61.2010   31.6310   49.8050 H   0  0  0  0  0  0  0  0  0  0  0  0
   61.8628   28.9024   50.4125 H   0  0  0  0  0  0  0  0  0  0  0  0
   60.2844   29.4551   51.1070 H   0  0  0  0  0  0  0  0  0  0  0  0
   60.5732   28.4793   48.5839 H   0  0  0  0  0  0  0  0  0  0  0  0
   59.3090   29.6966   49.1017 H   0  0  0  0  0  0  0  0  0  0  0  0
   61.7420   30.0860   47.5150 H   0  0  0  0  0  0  0  0  0  0  0  0
   61.2540   31.3300   48.3830 H   0  0  0  0  0  0  0  0  0  0  0  0
   60.6731   28.1073   47.1329 H   0  0  0  0  0  0  0  0  0  0  0  0
   59.9599   26.2075   45.7119 H   0  0  0  0  0  0  0  0  0  0  0  0
   58.4114   26.5826   43.8062 H   0  0  0  0  0  0  0  0  0  0  0  0
   57.5598   28.8599   43.3255 H   0  0  0  0  0  0  0  0  0  0  0  0
   56.0263   31.3712   44.4065 H   0  0  0  0  0  0  0  0  0  0  0  0
   57.1108   32.1197   43.1858 H   0  0  0  0  0  0  0  0  0  0  0  0
   56.8499   30.3425   43.1858 H   0  0  0  0  0  0  0  0  0  0  0  0
   57.9217   33.5603   43.8460 H   0  0  0  0  0  0  0  0  0  0  0  0
   58.7948   35.5767   44.9760 H   0  0  0  0  0  0  0  0  0  0  0  0
   59.8572   35.3908   47.2018 H   0  0  0  0  0  0  0  0  0  0  0  0
   61.3242   34.5208   49.7059 H   0  0  0  0  0  0  0  0  0  0  0  0
   59.6955   35.0666   49.1208 H   0  0  0  0  0  0  0  0  0  0  0  0
   60.3418   34.0681   51.6870 H   0  0  0  0  0  0  0  0  0  0  0  0
   58.7039   34.3723   51.0032 H   0  0  0  0  0  0  0  0  0  0  0  0
   59.4348   32.6735   52.9667 H   0  0  0  0  0  0  0  0  0  0  0  0
   58.2531   31.4407   52.4097 H   0  0  0  0  0  0  0  0  0  0  0  0
   60.0098   31.0655   52.4097 H   0  0  0  0  0  0  0  0  0  0  0  0
   57.3300   31.8354   50.8283 H   0  0  0  0  0  0  0  0  0  0  0  0
   57.8740   32.9064   49.4928 H   0  0  0  0  0  0  0  0  0  0  0  0
   58.3294   31.1688   49.4928 H   0  0  0  0  0  0  0  0  0  0  0  0
  1  2  1  0
  2  3  1  0
  3  4  1  0
  4  5  1  0
  5  6  1  0
  6  7  1  0
  7  8  1  0
  8  9  1  0
  9 10  1  0
 10 11  2  0
 11 12  1  0
 12 13  2  0
 13 14  1  0
 14 15  2  0
 15 16  1  0
 16 17  2  0
 17 18  1  0
 17 19  1  0
 19 20  2  0
 20 21  1  0
 21 22  2  0
 22 23  1  0
 23 24  1  0
 24 25  1  0
 25 26  1  0
 26 27  1  0
 27 28  1  0
 27 29  1  0
 23 30  2  0
 30 10  1  0
 16 11  1  0
 30 19  1  0
  1 31  1  0
  1 32  1  0
  1 33  1  0
  2 34  1  0
  2 35  1  0
  4 36  1  0
  4 37  1  0
  5 38  1  0
  5 39  1  0
  6 40  1  0
  7 41  1  0
  7 42  1  0
  8 43  1  0
  8 44  1  0
  9 45  1  0
  9 46  1  0
 12 47  1  0
 13 48  1  0
 14 49  1  0
 15 50  1  0
 18 51  1  0
 18 52  1  0
 18 53  1  0
 20 54  1  0
 21 55  1  0
 22 56  1  0
 25 57  1  0
 25 58  1  0
 26 59  1  0
 26 60  1  0
 28 61  1  0
 28 62  1  0
 28 63  1  0
 29 64  1  0
 29 65  1  0
 29 66  1  0
M  CHG  2   9   1  17   1
M  END
>  <UniqueID>  (1) 
1

>  <SMILES>  (1) 
CCOCCNCC[NH2+]c1c2ccccc2[n+](C)c2cccc(OCCN(C)C)c12

>  <Energy>  (1) 
104.32890823380289

>  <Genealogy>  (1) 
CCOCCNCC[NH2+]c1c2ccccc2[n+](C)c2cccc(OCCN(C)C)c12 (protonated)
CCOCCNCC[NH2+]c1c2ccccc2[n+](C)c2cccc(OCCN(C)C)c12 (3D coordinates assigned)
CCOCCNCC[NH2+]c1c2ccccc2[n+](C)c2cccc(OCCN(C)C)c12 (optimized conformer: 104.32890823380289 kcal/mol)

>  <smiles>  (1) 
CCOCCNCCNc1c2ccccc2[n+](C)c2cccc(OCCN(C)C)c12

>  <score_type>  (1) 
oracle

>  <origin>  (1) 
adg

>  <m_score__min__energy>  (1) 
-2.8900000000000001

>  <m_primary>  (1) 
energy

$$$$
1:0
     RDKit          3D

 41 44  0  0  0  0  0  0  0  0999 V2000
   64.1500   33.0250   48.6250 C   0  0  0  0  0  0  0  0  0  0  0  0
   62.8800   32.9340   47.7840 C   0  0  0  0  0  0  0  0  0  0  0  0
   61.7360   33.0780   48.6040 O   0  0  0  0  0  0  0  0  0  0  0  0
   61.1080   31.8280   48.8020 C   0  0  0  0  0  0  0  0  0  0  0  0
   61.4800   30.8940   47.6490 C   0  0  0  0  0  0  0  0  0  0  0  0
   60.3010   30.1400   47.1900 N   0  0  0  0  0  0  0  0  0  0  0  0
   59.3030   30.7310   46.4470 C   0  0  0  0  0  0  0  0  0  0  0  0
   58.2480   29.9850   45.9290 C   0  0  0  0  0  0  0  0  0  0  0  0
   58.1240   28.6180   46.2050 C   0  0  0  0  0  0  0  0  0  0  0  0
   57.0620   27.8350   45.7130 C   0  0  0  0  0  0  0  0  0  0  0  0
   56.9800   26.4790   46.0330 C   0  0  0  0  0  0  0  0  0  0  0  0
   57.9470   25.8890   46.8450 C   0  0  0  0  0  0  0  0  0  0  0  0
   59.0070   26.6500   47.3400 C   0  0  0  0  0  0  0  0  0  0  0  0
   59.1110   28.0210   47.0260 C   0  0  0  0  0  0  0  0  0  0  0  0
   60.1900   28.8030   47.5120 C   0  0  0  0  0  0  0  0  0  0  0  0
   61.0590   28.2580   48.2510 O   0  0  0  0  0  0  0  0  0  0  0  0
   57.4000   30.8790   45.1370 C   0  0  0  0  0  0  0  0  0  0  0  0
   56.3570   30.5770   44.4990 O   0  0  0  0  0  0  0  0  0  0  0  0
   57.9820   32.2030   45.2250 C   0  0  0  0  0  0  0  0  0  0  0  0
   57.5060   33.3970   44.6820 C   0  0  0  0  0  0  0  0  0  0  0  0
   58.2020   34.5790   44.9630 C   0  0  0  0  0  0  0  0  0  0  0  0
   59.3370   34.5520   45.7910 C   0  0  0  0  0  0  0  0  0  0  0  0
   59.7970   33.3410   46.3350 C   0  0  0  0  0  0  0  0  0  0  0  0
   59.1190   32.1500   46.0200 C   0  0  0  0  0  0  0  0  0  0  0  0
   63.8850   33.0060   49.6924 H   0  0  0  0  0  0  0  0  0  0  0  0
   64.8044   32.1714   48.3944 H   0  0  0  0  0  0  0  0  0  0  0  0
   64.6760   33.9631   48.3944 H   0  0  0  0  0  0  0  0  0  0  0  0
   62.8874   33.7331   47.0281 H   0  0  0  0  0  0  0  0  0  0  0  0
   62.8462   31.9504   47.2927 H   0  0  0  0  0  0  0  0  0  0  0  0
   61.4467   31.3920   49.7534 H   0  0  0  0  0  0  0  0  0  0  0  0
   60.0166   31.9619   48.8337 H   0  0  0  0  0  0  0  0  0  0  0  0
   61.8749   31.4908   46.8136 H   0  0  0  0  0  0  0  0  0  0  0  0
   62.2406   30.1818   48.0015 H   0  0  0  0  0  0  0  0  0  0  0  0
   56.2936   28.2941   45.0736 H   0  0  0  0  0  0  0  0  0  0  0  0
   56.1488   25.8734   45.6427 H   0  0  0  0  0  0  0  0  0  0  0  0
   57.8745   24.8206   47.0964 H   0  0  0  0  0  0  0  0  0  0  0  0
   59.7668   26.1771   47.9796 H   0  0  0  0  0  0  0  0  0  0  0  0
   56.6065   33.4094   44.0490 H   0  0  0  0  0  0  0  0  0  0  0  0
   57.8591   35.5321   44.5341 H   0  0  0  0  0  0  0  0  0  0  0  0
   59.8703   35.4876   46.0153 H   0  0  0  0  0  0  0  0  0  0  0  0
   60.6748   33.3248   46.9977 H   0  0  0  0  0  0  0  0  0  0  0  0
  1  2  1  0
  2  3  1  0
  3  4  1  0
  4  5  1  0
  5  6  1  0
  6  7  1  0
  7  8  2  0
  8  9  1  0
  9 10  2  0
 10 11  1  0
 11 12  2  0
 12 13  1  0
 13 14  2  0
 14 15  1  0
 15 16  2  0
  8 17  1  0
 17 18  2  0
 17 19  1  0
 19 20  2  0
 20 21  1  0
 21 22  2  0
 22 23  1  0
 23 24  2  0
 15  6  1  0
 24 19  1  0
 24  7  1  0
 14  9  1  0
  1 25  1  0
  1 26  1  0
  1 27  1  0
  2 28  1  0
  2 29  1  0
  4 30  1  0
  4 31  1  0
  5 32  1  0
  5 33  1  0
 10 34  1  0
 11 35  1  0
 12 36  1  0
 13 37  1  0
 20 38  1  0
 21 39  1  0
 22 40  1  0
 23 41  1  0
M  END
>  <UniqueID>  (2) 
2

>  <SMILES>  (2) 
CCOCCn1c2c(c3ccccc3c1=O)C(=O)c1ccccc1-2

>  <Energy>  (2) 
90.48984034992951

>  <Genealogy>  (2) 
CCOCCn1c2c(c3ccccc3c1=O)C(=O)c1ccccc1-2 (3D coordinates assigned)
CCOCCn1c2c(c3ccccc3c1=O)C(=O)c1ccccc1-2 (nonaromatic ring conformer: 90.48984034992951 kcal/mol)

>  <smiles>  (2) 
CCOCCn1c2c(c3ccccc3c1=O)C(=O)c1ccccc1-2

>  <score_type>  (2) 
oracle

>  <origin>  (2) 
adg

>  <m_score__min__energy>  (2) 
-7.9500000000000002

>  <m_primary>  (2) 
energy

$$$$
2:0
     RDKit          3D

 28 29  0  0  0  0  0  0  0  0999 V2000
   60.1050   27.2870   46.0060 C   0  0  0  0  0  0  0  0  0  0  0  0
   58.5990   27.3720   46.2230 C   0  0  0  0  0  0  0  0  0  0  0  0
   58.2350   28.6870   46.7460 N   0  0  0  0  0  0  0  0  0  0  0  0
   57.6510   29.7130   45.9310 C   0  0  0  0  0  0  0  0  0  0  0  0
   58.2260   30.9330   45.6140 C   0  0  0  0  0  0  0  0  0  0  0  0
   59.4910   31.5110   46.1230 C   0  0  0  0  0  0  0  0  0  0  0  0
   59.6760   32.9050   46.1350 C   0  0  0  0  0  0  0  0  0  0  0  0
   60.8650   33.4570   46.6210 C   0  0  0  0  0  0  0  0  0  0  0  0
   61.8780   32.6250   47.1070 C   0  0  0  0  0  0  0  0  0  0  0  0
   63.3680   33.3210   47.7170 Cl  0  0  0  0  0  0  0  0  0  0  0  0
   61.6980   31.2390   47.1120 C   0  0  0  0  0  0  0  0  0  0  0  0
   60.5110   30.6830   46.6260 C   0  0  0  0  0  0  0  0  0  0  0  0
   57.3540   31.5330   44.7190 C   0  0  0  0  0  0  0  0  0  0  0  0
   56.3310   30.7390   44.4880 O   0  0  0  0  0  0  0  0  0  0  0  0
   56.4850   29.6380   45.1850 C   0  0  0  0  0  0  0  0  0  0  0  0
   55.6070   28.5610   45.1030 O   0  0  0  0  0  0  0  0  0  0  0  0
   60.6148   27.2582   46.9803 H   0  0  0  0  0  0  0  0  0  0  0  0
   60.3430   26.3740   45.4405 H   0  0  0  0  0  0  0  0  0  0  0  0
   60.4442   28.1674   45.4405 H   0  0  0  0  0  0  0  0  0  0  0  0
   58.0845   27.2076   45.2647 H   0  0  0  0  0  0  0  0  0  0  0  0
   58.2983   26.6025   46.9493 H   0  0  0  0  0  0  0  0  0  0  0  0
   58.3580   28.8740   47.7660 H   0  0  0  0  0  0  0  0  0  0  0  0
   58.8802   33.5652   45.7597 H   0  0  0  0  0  0  0  0  0  0  0  0
   61.0038   34.5482   46.6210 H   0  0  0  0  0  0  0  0  0  0  0  0
   62.4923   30.5840   47.4993 H   0  0  0  0  0  0  0  0  0  0  0  0
   60.3738   29.5916   46.6370 H   0  0  0  0  0  0  0  0  0  0  0  0
   57.4964   32.5264   44.2685 H   0  0  0  0  0  0  0  0  0  0  0  0
   55.1430   28.1790   45.9150 H   0  0  0  0  0  0  0  0  0  0  0  0
  1  2  1  0
  2  3  1  0
  3  4  1  0
  4  5  1  0
  5  6  1  0
  6  7  2  0
  7  8  1  0
  8  9  2  0
  9 10  1  0
  9 11  1  0
 11 12  2  0
  5 13  2  0
 13 14  1  0
 14 15  1  0
 15 16  1  0
 15  4  2  0
 12  6  1  0
  1 17  1  0
  1 18  1  0
  1 19  1  0
  2 20  1  0
  2 21  1  0
  3 22  1  0
  7 23  1  0
  8 24  1  0
 11 25  1  0
 12 26  1  0
 13 27  1  0
 16 28  1  0
M  END
>  <UniqueID>  (3) 
3

>  <SMILES>  (3) 
CCNc1c(-c2ccc(Cl)cc2)coc1O

>  <Energy>  (3) 
60.33938523126785

>  <Genealogy>  (3) 
CCNc1c(-c2ccc(Cl)cc2)coc1O (3D coordinates assigned)
CCNc1c(-c2ccc(Cl)cc2)coc1O (optimized conformer: 60.33938523126785 kcal/mol)

>  <smiles>  (3) 
CCNc1c(-c2ccc(Cl)cc2)coc1O

>  <score_type>  (3) 
oracle

>  <origin>  (3) 
adg

>  <m_score__min__energy>  (3) 
-6.2199999999999998

>  <m_primary>  (3) 
energy

$$$$
3:0
     RDKit          3D

 60 62  0  0  0  0  0  0  0  0999 V2000
   58.5560   32.1590   50.9910 C   0  0  0  0  0  0  0  0  0  0  0  0
   59.6080   33.0900   50.3850 C   0  0  0  0  0  0  0  0  0  0  0  0
   59.4550   33.2190   48.9220 N   0  0  0  0  0  0  0  0  0  0  0  0
   59.6710   34.5880   48.4290 C   0  0  0  0  0  0  0  0  0  0  0  0
   59.2530   34.7530   46.9580 C   0  0  0  0  0  0  0  0  0  0  0  0
   60.3430   34.2360   46.0140 C   0  0  0  0  0  0  0  0  0  0  0  0
   61.1430   33.2660   46.6650 O   0  0  0  0  0  0  0  0  0  0  0  0
   62.5230   33.4880   46.4310 C   0  0  0  0  0  0  0  0  0  0  0  0
   63.3700   32.7990   47.5040 C   0  0  0  0  0  0  0  0  0  0  0  0
   62.5740   32.5010   48.6940 N   0  0  0  0  0  0  0  0  0  0  0  0
   63.0830   31.6040   49.6910 C   0  0  0  0  0  0  0  0  0  0  0  0
   64.3570   31.8410   50.2360 C   0  0  0  0  0  0  0  0  0  0  0  0
   65.1790   32.8720   49.7300 C   0  0  0  0  0  0  0  0  0  0  0  0
   66.4600   33.0750   50.2380 C   0  0  0  0  0  0  0  0  0  0  0  0
   66.9460   32.2520   51.2460 C   0  0  0  0  0  0  0  0  0  0  0  0
   66.1460   31.2380   51.7710 C   0  0  0  0  0  0  0  0  0  0  0  0
   64.8220   31.0330   51.3030 C   0  0  0  0  0  0  0  0  0  0  0  0
   63.9960   30.0750   51.8540 N   0  0  0  0  0  0  0  0  0  0  0  0
   64.3450   29.4620   53.1550 C   0  0  0  0  0  0  0  0  0  0  0  0
   62.8340   29.7030   51.2010 C   0  0  0  0  0  0  0  0  0  0  0  0
   62.1210   28.5420   51.5840 C   0  0  0  0  0  0  0  0  0  0  0  0
   60.9330   28.1890   50.9590 C   0  0  0  0  0  0  0  0  0  0  0  0
   60.4320   28.9560   49.9200 C   0  0  0  0  0  0  0  0  0  0  0  0
   61.1240   30.0920   49.4670 C   0  0  0  0  0  0  0  0  0  0  0  0
   60.6470   30.8300   48.3660 O   0  0  0  0  0  0  0  0  0  0  0  0
   60.4200   30.3330   47.0460 C   0  0  0  0  0  0  0  0  0  0  0  0
   59.0890   30.8350   46.4990 C   0  0  0  0  0  0  0  0  0  0  0  0
   62.3370   30.4770   50.1110 C   0  0  0  0  0  0  0  0  0  0  0  0
   58.6115   32.2081   52.0885 H   0  0  0  0  0  0  0  0  0  0  0  0
   57.5548   32.4723   50.6601 H   0  0  0  0  0  0  0  0  0  0  0  0
   58.7453   31.1272   50.6601 H   0  0  0  0  0  0  0  0  0  0  0  0
   59.5068   34.0855   50.8419 H   0  0  0  0  0  0  0  0  0  0  0  0
   60.5998   32.6590   50.5864 H   0  0  0  0  0  0  0  0  0  0  0  0
   60.0700   32.5500   48.4010 H   0  0  0  0  0  0  0  0  0  0  0  0
   59.0804   35.2826   49.0444 H   0  0  0  0  0  0  0  0  0  0  0  0
   60.7473   34.8042   48.4986 H   0  0  0  0  0  0  0  0  0  0  0  0
   58.3268   34.1863   46.7819 H   0  0  0  0  0  0  0  0  0  0  0  0
   59.0955   35.8230   46.7573 H   0  0  0  0  0  0  0  0  0  0  0  0
   59.8711   33.7821   45.1301 H   0  0  0  0  0  0  0  0  0  0  0  0
   60.9814   35.0792   45.7117 H   0  0  0  0  0  0  0  0  0  0  0  0
   62.7917   33.0839   45.4438 H   0  0  0  0  0  0  0  0  0  0  0  0
   62.7187   34.5699   46.4658 H   0  0  0  0  0  0  0  0  0  0  0  0
   63.7714   31.8596   47.0961 H   0  0  0  0  0  0  0  0  0  0  0  0
   64.1872   33.4768   47.7918 H   0  0  0  0  0  0  0  0  0  0  0  0
   61.5720   32.7900   48.7540 H   0  0  0  0  0  0  0  0  0  0  0  0
   64.8035   33.5219   48.9259 H   0  0  0  0  0  0  0  0  0  0  0  0
   67.0868   33.8871   49.8409 H   0  0  0  0  0  0  0  0  0  0  0  0
   67.9655   32.4008   51.6313 H   0  0  0  0  0  0  0  0  0  0  0  0
   66.5476   30.5862   52.5609 H   0  0  0  0  0  0  0  0  0  0  0  0
   63.9804   30.1024   53.9716 H   0  0  0  0  0  0  0  0  0  0  0  0
   63.8765   28.4696   53.2302 H   0  0  0  0  0  0  0  0  0  0  0  0
   65.4375   29.3583   53.2302 H   0  0  0  0  0  0  0  0  0  0  0  0
   62.5155   27.9079   52.3916 H   0  0  0  0  0  0  0  0  0  0  0  0
   60.3858   27.2944   51.2909 H   0  0  0  0  0  0  0  0  0  0  0  0
   59.4816   28.6726   49.4441 H   0  0  0  0  0  0  0  0  0  0  0  0
   61.2322   30.6747   46.3876 H   0  0  0  0  0  0  0  0  0  0  0  0
   60.3934   29.2340   47.0833 H   0  0  0  0  0  0  0  0  0  0  0  0
   58.4205   31.0871   47.3354 H   0  0  0  0  0  0  0  0  0  0  0  0
   59.2599   31.7305   45.8834 H   0  0  0  0  0  0  0  0  0  0  0  0
   58.6260   30.0497   45.8834 H   0  0  0  0  0  0  0  0  0  0  0  0
  1  2  1  0
  2  3  1  0
  3  4  1  0
  4  5  1  0
  5  6  1  0
  6  7  1  0
  7  8  1  0
  8  9  1  0
  9 10  1  0
 10 11  1  0
 11 12  2  0
 12 13  1  0
 13 14  2  0
 14 15  1  0
 15 16  2  0
 16 17  1  0
 17 18  2  0
 18 19  1  0
 18 20  1  0
 20 21  2  0
 21 22  1  0
 22 23  2  0
 23 24  1  0
 24 25  1  0
 25 26  1  0
 26 27  1  0
 24 28  2  0
 28 11  1  0
 17 12  1  0
 28 20  1  0
  1 29  1  0
  1 30  1  0
  1 31  1  0
  2 32  1  0
  2 33  1  0
  3 34  1  0
  4 35  1  0
  4 36  1  0
  5 37  1  0
  5 38  1  0
  6 39  1  0
  6 40  1  0
  8 41  1  0
  8 42  1  0
  9 43  1  0
  9 44  1  0
 10 45  1  0
 13 46  1  0
 14 47  1  0
 15 48  1  0
 16 49  1  0
 19 50  1  0
 19 51  1  0
 19 52  1  0
 21 53  1  0
 22 54  1  0
 23 55  1  0
 26 56  1  0
 26 57  1  0
 27 58  1  0
 27 59  1  0
 27 60  1  0
M  CHG  1  18   1
M  END
>  <UniqueID>  (4) 
4

>  <SMILES>  (4) 
CCNCCCOCCNc1c2ccccc2[n+](C)c2cccc(OCC)c12

>  <Energy>  (4) 
85.47365832532782

>  <Genealogy>  (4) 
CCNCCCOCCNc1c2ccccc2[n+](C)c2cccc(OCC)c12 (3D coordinates assigned)
CCNCCCOCCNc1c2ccccc2[n+](C)c2cccc(OCC)c12 (optimized conformer: 85.47365832532782 kcal/mol)

>  <smiles>  (4) 
CCNCCCOCCNc1c2ccccc2[n+](C)c2cccc(OCC)c12

>  <score_type>  (4) 
oracle

>  <origin>  (4) 
adg

>  <m_score__min__energy>  (4) 
-5.3399999999999999

>  <m_primary>  (4) 
energy

$$$$
4:0
     RDKit          3D

 60 63  0  0  0  0  0  0  0  0999 V2000
   62.9960   34.5240   49.9890 C   0  0  0  0  0  0  0  0  0  0  0  0
   63.0640   33.1590   50.6850 C   0  0  0  0  0  0  0  0  0  0  0  0
   61.7090   32.6500   51.0460 N   0  0  2  0  0  0  0  0  0  0  0  0
   61.8100   31.7070   52.1880 C   0  0  0  0  0  0  0  0  0  0  0  0
   61.8970   30.2790   51.6180 C   0  0  0  0  0  0  0  0  0  0  0  0
   61.6870   30.4480   50.1170 C   0  0  1  0  0  0  0  0  0  0  0  0
   60.8160   29.3720   49.4360 C   0  0  0  0  0  0  0  0  0  0  0  0
   60.1190   29.9060   48.1580 C   0  0  0  0  0  0  0  0  0  0  0  0
   60.8310   31.1320   47.5490 C   0  0  0  0  0  0  0  0  0  0  0  0
   60.9570   32.3290   48.5410 C   0  0  1  0  0  0  0  0  0  0  0  0
   59.7820   33.2750   48.3650 C   0  0  0  0  0  0  0  0  0  0  0  0
   59.3100   33.8590   49.3800 O   0  0  0  0  0  0  0  0  0  0  0  0
   59.1560   33.4820   47.0830 N   0  0  0  0  0  0  0  0  0  0  0  0
   57.7330   33.8310   47.0150 C   0  0  0  0  0  0  0  0  0  0  0  0
   57.1310   33.2470   45.7330 C   0  0  0  0  0  0  0  0  0  0  0  0
   57.8250   33.7150   44.5000 N   0  0  0  0  0  0  0  0  0  0  0  0
   57.7900   32.6920   43.4320 C   0  0  0  0  0  0  0  0  0  0  0  0
   57.5500   31.3210   44.0090 C   0  0  0  0  0  0  0  0  0  0  0  0
   58.5840   30.6250   44.6580 C   0  0  0  0  0  0  0  0  0  0  0  0
   58.3450   29.3630   45.2100 C   0  0  0  0  0  0  0  0  0  0  0  0
   57.0740   28.7880   45.1210 C   0  0  0  0  0  0  0  0  0  0  0  0
   56.0390   29.4760   44.4820 C   0  0  0  0  0  0  0  0  0  0  0  0
   56.2740   30.7390   43.9290 C   0  0  0  0  0  0  0  0  0  0  0  0
   59.2030   34.2220   44.7250 C   0  0  0  0  0  0  0  0  0  0  0  0
   59.9410   33.4730   45.8440 C   0  0  0  0  0  0  0  0  0  0  0  0
   61.0430   31.8170   50.0190 C   0  0  2  0  0  0  0  0  0  0  0  0
   62.9563   35.3204   50.7468 H   0  0  0  0  0  0  0  0  0  0  0  0
   63.8885   34.6600   49.3605 H   0  0  0  0  0  0  0  0  0  0  0  0
   62.0944   34.5706   49.3605 H   0  0  0  0  0  0  0  0  0  0  0  0
   63.5458   32.4383   50.0079 H   0  0  0  0  0  0  0  0  0  0  0  0
   63.6416   33.2784   51.6135 H   0  0  0  0  0  0  0  0  0  0  0  0
   61.0790   33.4510   51.2970 H   0  0  0  0  0  0  0  0  0  0  0  0
   62.7117   31.9295   52.7775 H   0  0  0  0  0  0  0  0  0  0  0  0
   60.9321   31.8045   52.8436 H   0  0  0  0  0  0  0  0  0  0  0  0
   62.8835   29.8383   51.8245 H   0  0  0  0  0  0  0  0  0  0  0  0
   61.1539   29.6048   52.0690 H   0  0  0  0  0  0  0  0  0  0  0  0
   62.6417   30.3418   49.5810 H   0  0  0  0  0  0  0  0  0  0  0  0
   61.4555   28.5202   49.1612 H   0  0  0  0  0  0  0  0  0  0  0  0
   60.0328   29.0712   50.1474 H   0  0  0  0  0  0  0  0  0  0  0  0
   60.1011   29.1025   47.4070 H   0  0  0  0  0  0  0  0  0  0  0  0
   59.1056   30.2235   48.4448 H   0  0  0  0  0  0  0  0  0  0  0  0
   61.8415   30.8294   47.2370 H   0  0  0  0  0  0  0  0  0  0  0  0
   60.2202   31.4750   46.7009 H   0  0  0  0  0  0  0  0  0  0  0  0
   61.8850   32.8761   48.3186 H   0  0  0  0  0  0  0  0  0  0  0  0
   57.2103   33.4156   47.8892 H   0  0  0  0  0  0  0  0  0  0  0  0
   57.6210   34.9253   47.0103 H   0  0  0  0  0  0  0  0  0  0  0  0
   57.2013   32.1503   45.7803 H   0  0  0  0  0  0  0  0  0  0  0  0
   56.0870   33.5885   45.6736 H   0  0  0  0  0  0  0  0  0  0  0  0
   56.9798   32.9335   42.7282 H   0  0  0  0  0  0  0  0  0  0  0  0
   58.7606   32.6907   42.9144 H   0  0  0  0  0  0  0  0  0  0  0  0
   59.5851   31.0748   44.7320 H   0  0  0  0  0  0  0  0  0  0  0  0
   59.1585   28.8216   45.7152 H   0  0  0  0  0  0  0  0  0  0  0  0
   56.8885   27.7939   45.5540 H   0  0  0  0  0  0  0  0  0  0  0  0
   55.0386   29.0238   44.4139 H   0  0  0  0  0  0  0  0  0  0  0  0
   55.4562   31.2789   43.4293 H   0  0  0  0  0  0  0  0  0  0  0  0
   59.7746   34.1103   43.7918 H   0  0  0  0  0  0  0  0  0  0  0  0
   59.1208   35.2752   45.0317 H   0  0  0  0  0  0  0  0  0  0  0  0
   60.1090   32.4319   45.5311 H   0  0  0  0  0  0  0  0  0  0  0  0
   60.9010   33.9763   46.0314 H   0  0  0  0  0  0  0  0  0  0  0  0
   59.9702   31.8347   50.2614 H   0  0  0  0  0  0  0  0  0  0  0  0
  1  2  1  0
  2  3  1  0
  3  4  1  0
  4  5  1  0
  5  6  1  0
  6  7  1  0
  7  8  1  0
  8  9  1  0
  9 10  1  0
 10 11  1  0
 11 12  2  0
 11 13  1  0
 13 14  1  0
 14 15  1  0
 15 16  1  0
 16 17  1  0
 17 18  1  0
 18 19  2  0
 19 20  1  0
 20 21  2  0
 21 22  1  0
 22 23  2  0
 16 24  1  0
 24 25  1  0
 10 26  1  0
 26  3  1  0
 26  6  1  0
 25 13  1  0
 23 18  1  0
  1 27  1  0
  1 28  1  0
  1 29  1  0
  2 30  1  0
  2 31  1  0
  3 32  1  1
  4 33  1  0
  4 34  1  0
  5 35  1  0
  5 36  1  0
  6 37  1  6
  7 38  1  0
  7 39  1  0
  8 40  1  0
  8 41  1  0
  9 42  1  0
  9 43  1  0
 10 44  1  6
 14 45  1  0
 14 46  1  0
 15 47  1  0
 15 48  1  0
 17 49  1  0
 17 50  1  0
 19 51  1  0
 20 52  1  0
 21 53  1  0
 22 54  1  0
 23 55  1  0
 24 56  1  0
 24 57  1  0
 25 58  1  0
 25 59  1  0
 26 60  1  1
M  CHG  1   3   1
M  END
>  <UniqueID>  (5) 
5

>  <SMILES>  (5) 
CC[N@@H+]1CC[C@H]2CCCC(C(=O)N3CCN(Cc4ccccc4)CC3)C21

>  <Energy>  (5) 
90.12742825578853

>  <Genealogy>  (5) 
CC[NH+]1CCC2CCCC(C(=O)N3CCN(Cc4ccccc4)CC3)C21 (protonated)
CC[N@@H+]1CC[C@H]2CCCC(C(=O)N3CCN(Cc4ccccc4)CC3)C21 (chirality)
CC[N@@H+]1CC[C@H]2CCCC(C(=O)N3CCN(Cc4ccccc4)CC3)C21 (3D coordinates assigned)
CC[N@@H+]1CC[C@H]2CCCC(C(=O)N3CCN(Cc4ccccc4)CC3)C21 (nonaromatic ring conformer: 90.12742825578853 kcal/mol)

>  <smiles>  (5) 
CCN1CCC2CCCC(C(=O)N3CCN(Cc4ccccc4)CC3)C21

>  <score_type>  (5) 
oracle

>  <origin>  (5) 
adg

>  <m_score__min__energy>  (5) 
-7.2300000000000004

>  <m_primary>  (5) 
energy

$$$$
5:0
     RDKit          3D

 28 29  0  0  0  0  0  0  0  0999 V2000
   56.0040   29.7580   43.0580 C   0  0  0  0  0  0  0  0  0  0  0  0
   55.4950   29.8450   44.4930 C   0  0  0  0  0  0  0  0  0  0  0  0
   55.8220   28.6600   45.2190 O   0  0  0  0  0  0  0  0  0  0  0  0
   57.0880   28.0500   45.2850 C   0  0  0  0  0  0  0  0  0  0  0  0
   58.2720   28.7850   45.0810 C   0  0  0  0  0  0  0  0  0  0  0  0
   59.5250   28.1620   45.1380 C   0  0  0  0  0  0  0  0  0  0  0  0
   60.7770   28.9700   44.9580 C   0  0  0  0  0  0  0  0  0  0  0  0
   59.6060   26.7970   45.4290 C   0  0  0  0  0  0  0  0  0  0  0  0
   58.4420   26.0410   45.6310 C   0  0  0  0  0  0  0  0  0  0  0  0
   57.1740   26.6620   45.5550 C   0  0  0  0  0  0  0  0  0  0  0  0
   55.9600   25.8240   45.7760 C   0  0  0  0  0  0  0  0  0  0  0  0
   54.8030   26.3200   45.7200 O   0  0  0  0  0  0  0  0  0  0  0  0
   56.0990   24.3860   46.0660 C   0  0  0  0  0  0  0  0  0  0  0  0
   57.3000   23.8090   46.1380 C   0  0  0  0  0  0  0  0  0  0  0  0
   58.5290   24.5900   45.9270 C   0  0  0  0  0  0  0  0  0  0  0  0
   59.6460   24.0130   46.0020 O   0  0  0  0  0  0  0  0  0  0  0  0
   57.0883   29.5727   43.0641 H   0  0  0  0  0  0  0  0  0  0  0  0
   55.4941   28.9340   42.5374 H   0  0  0  0  0  0  0  0  0  0  0  0
   55.7968   30.7046   42.5374 H   0  0  0  0  0  0  0  0  0  0  0  0
   55.9585   30.7110   44.9883 H   0  0  0  0  0  0  0  0  0  0  0  0
   54.4008   29.9560   44.4732 H   0  0  0  0  0  0  0  0  0  0  0  0
   58.2117   29.8637   44.8740 H   0  0  0  0  0  0  0  0  0  0  0  0
   61.1874   29.2348   45.9436 H   0  0  0  0  0  0  0  0  0  0  0  0
   61.5176   28.3790   44.3992 H   0  0  0  0  0  0  0  0  0  0  0  0
   60.5436   29.8883   44.3992 H   0  0  0  0  0  0  0  0  0  0  0  0
   60.5907   26.3119   45.5001 H   0  0  0  0  0  0  0  0  0  0  0  0
   55.1968   23.7774   46.2260 H   0  0  0  0  0  0  0  0  0  0  0  0
   57.3723   22.7337   46.3583 H   0  0  0  0  0  0  0  0  0  0  0  0
  1  2  1  0
  2  3  1  0
  3  4  1  0
  4  5  2  0
  5  6  1  0
  6  7  1  0
  6  8  2  0
  8  9  1  0
  9 10  2  0
 10 11  1  0
 11 12  2  0
 11 13  1  0
 13 14  2  0
 14 15  1  0
 15 16  2  0
 10  4  1  0
 15  9  1  0
  1 17  1  0
  1 18  1  0
  1 19  1  0
  2 20  1  0
  2 21  1  0
  5 22  1  0
  7 23  1  0
  7 24  1  0
  7 25  1  0
  8 26  1  0
 13 27  1  0
 14 28  1  0
M  END
>  <UniqueID>  (6) 
6

>  <SMILES>  (6) 
CCOc1cc(C)cc2c1C(=O)C=CC2=O

>  <Energy>  (6) 
27.937113814903963

>  <Genealogy>  (6) 
CCOc1cc(C)cc2c1C(=O)C=CC2=O (3D coordinates assigned)
CCOc1cc(C)cc2c1C(=O)C=CC2=O (nonaromatic ring conformer: 27.937113814903963 kcal/mol)

>  <smiles>  (6) 
CCOc1cc(C)cc2c1C(=O)C=CC2=O

>  <score_type>  (6) 
oracle

>  <origin>  (6) 
adg

>  <m_score__min__energy>  (6) 
-6.46

>  <m_primary>  (6) 
energy

$$$$
6:0
     RDKit          3D

 55 59  0  0  0  0  0  0  0  0999 V2000
   59.5450   21.8750   44.2360 C   0  0  0  0  0  0  0  0  0  0  0  0
   59.4700   22.6360   45.4370 O   0  0  0  0  0  0  0  0  0  0  0  0
   58.7520   23.8350   45.5730 C   0  0  0  0  0  0  0  0  0  0  0  0
   59.3470   25.0070   46.0980 C   0  0  0  0  0  0  0  0  0  0  0  0
   58.5750   26.1610   46.2130 C   0  0  0  0  0  0  0  0  0  0  0  0
   57.2500   26.1630   45.8220 C   0  0  0  0  0  0  0  0  0  0  0  0
   56.6370   25.0400   45.2790 C   0  0  0  0  0  0  0  0  0  0  0  0
   57.3960   23.8520   45.1600 C   0  0  0  0  0  0  0  0  0  0  0  0
   56.8470   22.6710   44.6370 O   0  0  0  0  0  0  0  0  0  0  0  0
   56.4430   22.5030   43.2810 C   0  0  0  0  0  0  0  0  0  0  0  0
   56.7420   27.4980   46.0190 C   0  0  0  0  0  0  0  0  0  0  0  0
   55.9090   28.1970   45.2310 N   0  0  0  0  0  0  0  0  0  0  0  0
   56.3250   29.4590   45.2500 N   0  0  0  0  0  0  0  0  0  0  0  0
   57.4580   29.5400   45.9900 C   0  0  0  0  0  0  0  0  0  0  0  0
   58.3050   30.7520   46.0760 C   0  0  0  0  0  0  0  0  0  0  0  0
   57.7530   32.0150   45.8070 C   0  0  0  0  0  0  0  0  0  0  0  0
   58.5410   33.1670   45.8920 C   0  0  0  0  0  0  0  0  0  0  0  0
   59.8910   33.0810   46.2670 C   0  0  0  0  0  0  0  0  0  0  0  0
   60.7390   34.3340   46.3630 C   0  0  0  0  0  0  0  0  0  0  0  0
   61.8620   34.2250   47.3230 N   0  0  0  0  0  0  0  0  0  0  0  0
   61.4610   33.6910   48.6470 C   0  0  0  0  0  0  0  0  0  0  0  0
   62.6880   33.3700   49.5050 C   0  0  0  0  0  0  0  0  0  0  0  0
   63.5570   32.2830   48.8420 C   0  0  0  0  0  0  0  0  0  0  0  0
   63.4130   32.2520   47.3100 C   0  0  0  0  0  0  0  0  0  0  0  0
   63.1060   33.6500   46.7540 C   0  0  0  0  0  0  0  0  0  0  0  0
   60.4470   31.8170   46.5200 C   0  0  0  0  0  0  0  0  0  0  0  0
   59.6610   30.6650   46.4360 C   0  0  0  0  0  0  0  0  0  0  0  0
   57.7330   28.2840   46.5030 C   0  0  0  0  0  0  0  0  0  0  0  0
   59.0200   27.5270   46.6720 C   0  0  0  0  0  0  0  0  0  0  0  0
   59.6501   20.8084   44.4837 H   0  0  0  0  0  0  0  0  0  0  0  0
   58.6276   22.0262   43.6482 H   0  0  0  0  0  0  0  0  0  0  0  0
   60.4152   22.2024   43.6482 H   0  0  0  0  0  0  0  0  0  0  0  0
   60.4018   25.0067   46.4101 H   0  0  0  0  0  0  0  0  0  0  0  0
   55.5879   25.0740   44.9500 H   0  0  0  0  0  0  0  0  0  0  0  0
   55.4277   22.0808   43.2505 H   0  0  0  0  0  0  0  0  0  0  0  0
   56.4498   23.4786   42.7728 H   0  0  0  0  0  0  0  0  0  0  0  0
   57.1396   21.8200   42.7728 H   0  0  0  0  0  0  0  0  0  0  0  0
   56.6925   32.0987   45.5272 H   0  0  0  0  0  0  0  0  0  0  0  0
   58.0996   34.1482   45.6632 H   0  0  0  0  0  0  0  0  0  0  0  0
   61.1539   34.5489   45.3672 H   0  0  0  0  0  0  0  0  0  0  0  0
   60.0825   35.1374   46.7285 H   0  0  0  0  0  0  0  0  0  0  0  0
   60.8458   34.4409   49.1658 H   0  0  0  0  0  0  0  0  0  0  0  0
   60.8900   32.7637   48.4920 H   0  0  0  0  0  0  0  0  0  0  0  0
   63.2881   34.2833   49.6304 H   0  0  0  0  0  0  0  0  0  0  0  0
   62.3449   32.9971   50.4813 H   0  0  0  0  0  0  0  0  0  0  0  0
   64.6108   32.4757   49.0915 H   0  0  0  0  0  0  0  0  0  0  0  0
   63.2167   31.3096   49.2250 H   0  0  0  0  0  0  0  0  0  0  0  0
   64.3525   31.8883   46.8684 H   0  0  0  0  0  0  0  0  0  0  0  0
   62.5791   31.5829   47.0515 H   0  0  0  0  0  0  0  0  0  0  0  0
   63.9461   34.3181   46.9946 H   0  0  0  0  0  0  0  0  0  0  0  0
   62.9648   33.5549   45.6673 H   0  0  0  0  0  0  0  0  0  0  0  0
   61.5109   31.7329   46.7867 H   0  0  0  0  0  0  0  0  0  0  0  0
   60.1064   29.6829   46.6531 H   0  0  0  0  0  0  0  0  0  0  0  0
   59.8199   27.9323   46.0350 H   0  0  0  0  0  0  0  0  0  0  0  0
   59.4510   27.5610   47.6835 H   0  0  0  0  0  0  0  0  0  0  0  0
  1  2  1  0
  2  3  1  0
  3  4  2  0
  4  5  1  0
  5  6  2  0
  6  7  1  0
  7  8  2  0
  8  9  1  0
  9 10  1  0
  6 11  1  0
 11 12  1  0
 12 13  1  0
 13 14  2  0
 14 15  1  0
 15 16  2  0
 16 17  1  0
 17 18  2  0
 18 19  1  0
 19 20  1  0
 20 21  1  0
 21 22  1  0
 22 23  1  0
 23 24  1  0
 24 25  1  0
 18 26  1  0
 26 27  2  0
 14 28  1  0
 28 29  1  0
  8  3  1  0
 28 11  2  0
 29  5  1  0
 27 15  1  0
 25 20  1  0
  1 30  1  0
  1 31  1  0
  1 32  1  0
  4 33  1  0
  7 34  1  0
 10 35  1  0
 10 36  1  0
 10 37  1  0
 16 38  1  0
 17 39  1  0
 19 40  1  0
 19 41  1  0
 21 42  1  0
 21 43  1  0
 22 44  1  0
 22 45  1  0
 23 46  1  0
 23 47  1  0
 24 48  1  0
 24 49  1  0
 25 50  1  0
 25 51  1  0
 26 52  1  0
 27 53  1  0
 29 54  1  0
 29 55  1  0
M  CHG  1  12  -1
M  END
>  <UniqueID>  (7) 
7

>  <SMILES>  (7) 
COc1cc2c(cc1OC)-c1[n-]nc(-c3ccc(CN4CCCCC4)cc3)c1C2

>  <Energy>  (7) 
140.0095970159116

>  <Genealogy>  (7) 
COc1cc2c(cc1OC)-c1[n-]nc(-c3ccc(CN4CCCCC4)cc3)c1C2 (protonated)
COc1cc2c(cc1OC)-c1[n-]nc(-c3ccc(CN4CCCCC4)cc3)c1C2 (3D coordinates assigned)
COc1cc2c(cc1OC)-c1[n-]nc(-c3ccc(CN4CCCCC4)cc3)c1C2 (nonaromatic ring conformer: 140.0095970159116 kcal/mol)

>  <smiles>  (7) 
COc1cc2c(cc1OC)-c1[nH]nc(-c3ccc(CN4CCCCC4)cc3)c1C2

>  <score_type>  (7) 
oracle

>  <origin>  (7) 
adg

>  <m_score__min__energy>  (7) 
-10.640000000000001

>  <m_primary>  (7) 
energy

$$$$
7:0
     RDKit          3D

 47 49  0  0  0  0  0  0  0  0999 V2000
   60.2920   34.0680   49.7280 C   0  0  0  0  0  0  0  0  0  0  0  0
   61.6720   34.3610   49.1460 C   0  0  0  0  0  0  0  0  0  0  0  0
   62.6250   33.2400   49.3420 N   0  0  0  0  0  0  0  0  0  0  0  0
   63.6390   33.6680   50.3240 C   0  0  0  0  0  0  0  0  0  0  0  0
   63.2840   32.8220   48.0760 C   0  0  0  0  0  0  0  0  0  0  0  0
   62.4120   31.8310   47.2720 C   0  0  0  0  0  0  0  0  0  0  0  0
   61.1610   31.4290   47.9460 N   0  0  0  0  0  0  0  0  0  0  0  0
   60.0530   31.1990   47.0280 C   0  0  0  0  0  0  0  0  0  0  0  0
   59.4240   32.2590   46.3040 C   0  0  0  0  0  0  0  0  0  0  0  0
   59.8640   33.6050   46.3980 C   0  0  0  0  0  0  0  0  0  0  0  0
   59.2330   34.6220   45.6840 C   0  0  0  0  0  0  0  0  0  0  0  0
   58.1590   34.3330   44.8570 C   0  0  0  0  0  0  0  0  0  0  0  0
   57.7110   33.0240   44.7270 C   0  0  0  0  0  0  0  0  0  0  0  0
   58.3280   31.9670   45.4350 C   0  0  0  0  0  0  0  0  0  0  0  0
   57.8720   30.6370   45.2800 C   0  0  0  0  0  0  0  0  0  0  0  0
   56.3980   30.2350   44.0830 Br  0  0  0  0  0  0  0  0  0  0  0  0
   58.4930   29.5950   45.9980 C   0  0  0  0  0  0  0  0  0  0  0  0
   58.0730   28.2530   45.8790 C   0  0  0  0  0  0  0  0  0  0  0  0
   58.7000   27.2450   46.6070 C   0  0  0  0  0  0  0  0  0  0  0  0
   59.7510   27.5700   47.4590 C   0  0  0  0  0  0  0  0  0  0  0  0
   60.3910   26.5620   48.1840 O   0  0  0  0  0  0  0  0  0  0  0  0
   60.7690   26.7200   49.5460 C   0  0  0  0  0  0  0  0  0  0  0  0
   60.1460   28.8650   47.5710 N   0  0  0  0  0  0  0  0  0  0  0  0
   59.5670   29.8810   46.8710 C   0  0  0  0  0  0  0  0  0  0  0  0
   60.3473   34.0797   50.8265 H   0  0  0  0  0  0  0  0  0  0  0  0
   59.5805   34.8351   49.3885 H   0  0  0  0  0  0  0  0  0  0  0  0
   59.9535   33.0780   49.3885 H   0  0  0  0  0  0  0  0  0  0  0  0
   61.5666   34.5490   48.0673 H   0  0  0  0  0  0  0  0  0  0  0  0
   62.0763   35.2375   49.6735 H   0  0  0  0  0  0  0  0  0  0  0  0
   63.2550   33.5059   51.3420 H   0  0  0  0  0  0  0  0  0  0  0  0
   64.5584   33.0812   50.1812 H   0  0  0  0  0  0  0  0  0  0  0  0
   63.8599   34.7361   50.1812 H   0  0  0  0  0  0  0  0  0  0  0  0
   63.4685   33.7143   47.4597 H   0  0  0  0  0  0  0  0  0  0  0  0
   64.2262   32.3159   48.3332 H   0  0  0  0  0  0  0  0  0  0  0  0
   62.1495   32.3036   46.3140 H   0  0  0  0  0  0  0  0  0  0  0  0
   63.0099   30.9157   47.1509 H   0  0  0  0  0  0  0  0  0  0  0  0
   61.3510   30.5340   48.4540 H   0  0  0  0  0  0  0  0  0  0  0  0
   60.9450   32.0980   48.7110 H   0  0  0  0  0  0  0  0  0  0  0  0
   60.7184   33.8499   47.0461 H   0  0  0  0  0  0  0  0  0  0  0  0
   59.5889   35.6586   45.7772 H   0  0  0  0  0  0  0  0  0  0  0  0
   57.6602   35.1415   44.3024 H   0  0  0  0  0  0  0  0  0  0  0  0
   56.8621   32.8065   44.0621 H   0  0  0  0  0  0  0  0  0  0  0  0
   57.2418   28.0006   45.2042 H   0  0  0  0  0  0  0  0  0  0  0  0
   58.3674   26.2011   46.5094 H   0  0  0  0  0  0  0  0  0  0  0  0
   59.9501   26.3777   50.1959 H   0  0  0  0  0  0  0  0  0  0  0  0
   61.6710   26.1236   49.7478 H   0  0  0  0  0  0  0  0  0  0  0  0
   60.9782   27.7809   49.7478 H   0  0  0  0  0  0  0  0  0  0  0  0
  1  2  1  0
  2  3  1  0
  3  4  1  0
  3  5  1  0
  5  6  1  0
  6  7  1  0
  7  8  1  0
  8  9  2  0
  9 10  1  0
 10 11  2  0
 11 12  1  0
 12 13  2  0
 13 14  1  0
 14 15  2  0
 15 16  1  0
 15 17  1  0
 17 18  2  0
 18 19  1  0
 19 20  2  0
 20 21  1  0
 21 22  1  0
 20 23  1  0
 23 24  2  0
 24  8  1  0
 14  9  1  0
 24 17  1  0
  1 25  1  0
  1 26  1  0
  1 27  1  0
  2 28  1  0
  2 29  1  0
  4 30  1  0
  4 31  1  0
  4 32  1  0
  5 33  1  0
  5 34  1  0
  6 35  1  0
  6 36  1  0
  7 37  1  0
  7 38  1  0
 10 39  1  0
 11 40  1  0
 12 41  1  0
 13 42  1  0
 18 43  1  0
 19 44  1  0
 22 45  1  0
 22 46  1  0
 22 47  1  0
M  CHG  1   7   1
M  END
>  <UniqueID>  (8) 
8

>  <SMILES>  (8) 
CCN(C)CC[NH2+]c1c2ccccc2c(Br)c2ccc(OC)nc12

>  <Energy>  (8) 
65.77369554165149

>  <Genealogy>  (8) 
CCN(C)CC[NH2+]c1c2ccccc2c(Br)c2ccc(OC)nc12 (protonated)
CCN(C)CC[NH2+]c1c2ccccc2c(Br)c2ccc(OC)nc12 (3D coordinates assigned)
CCN(C)CC[NH2+]c1c2ccccc2c(Br)c2ccc(OC)nc12 (optimized conformer: 65.77369554165149 kcal/mol)

>  <smiles>  (8) 
CCN(C)CCNc1c2ccccc2c(Br)c2ccc(OC)nc12

>  <score_type>  (8) 
oracle

>  <origin>  (8) 
adg

>  <m_score__min__energy>  (8) 
-5.6799999999999997

>  <m_primary>  (8) 
energy

$$$$
8:0
     RDKit          3D

 31 32  0  0  0  0  0  0  0  0999 V2000
   56.6680   29.3180   43.7640 C   0  0  0  0  0  0  0  0  0  0  0  0
   57.0240   30.7290   43.7940 N   0  0  0  0  0  0  0  0  0  0  0  0
   57.5670   31.4260   42.7780 C   0  0  0  0  0  0  0  0  0  0  0  0
   57.8020   32.7140   43.2100 C   0  0  0  0  0  0  0  0  0  0  0  0
   57.3860   32.7140   44.5290 C   0  0  0  0  0  0  0  0  0  0  0  0
   57.3740   33.9000   45.4470 C   0  0  0  0  0  0  0  0  0  0  0  0
   57.3290   33.4580   46.8550 N   0  0  0  0  0  0  0  0  0  0  0  0
   58.5900   33.6440   47.6140 C   0  0  0  0  0  0  0  0  0  0  0  0
   59.6070   32.5140   47.3800 C   0  0  0  0  0  0  0  0  0  0  0  0
   60.8280   33.1400   46.7100 C   0  0  0  0  0  0  0  0  0  0  0  0
   60.4670   34.5790   46.3700 C   0  0  0  0  0  0  0  0  0  0  0  0
   59.3150   34.9540   47.2860 C   0  0  0  0  0  0  0  0  0  0  0  0
   56.9100   31.4990   44.8640 N   0  0  0  0  0  0  0  0  0  0  0  0
   56.5731   28.9418   44.7933 H   0  0  0  0  0  0  0  0  0  0  0  0
   55.7101   29.1926   43.2380 H   0  0  0  0  0  0  0  0  0  0  0  0
   57.4518   28.7532   43.2380 H   0  0  0  0  0  0  0  0  0  0  0  0
   57.7860   31.0343   41.7737 H   0  0  0  0  0  0  0  0  0  0  0  0
   58.2245   33.5517   42.6358 H   0  0  0  0  0  0  0  0  0  0  0  0
   58.2842   34.4954   45.2825 H   0  0  0  0  0  0  0  0  0  0  0  0
   56.4823   34.5080   45.2343 H   0  0  0  0  0  0  0  0  0  0  0  0
   56.5700   33.9880   47.3460 H   0  0  0  0  0  0  0  0  0  0  0  0
   57.0740   32.4420   46.8920 H   0  0  0  0  0  0  0  0  0  0  0  0
   58.2512   33.6504   48.6605 H   0  0  0  0  0  0  0  0  0  0  0  0
   59.8945   32.0605   48.3400 H   0  0  0  0  0  0  0  0  0  0  0  0
   59.1756   31.7240   46.7477 H   0  0  0  0  0  0  0  0  0  0  0  0
   61.6868   33.1192   47.3970 H   0  0  0  0  0  0  0  0  0  0  0  0
   61.1044   32.5822   45.8031 H   0  0  0  0  0  0  0  0  0  0  0  0
   61.3274   35.2406   46.5489 H   0  0  0  0  0  0  0  0  0  0  0  0
   60.1877   34.6830   45.3111 H   0  0  0  0  0  0  0  0  0  0  0  0
   59.6954   35.4208   48.2065 H   0  0  0  0  0  0  0  0  0  0  0  0
   58.6398   35.6784   46.8071 H   0  0  0  0  0  0  0  0  0  0  0  0
  1  2  1  0
  2  3  1  0
  3  4  2  0
  4  5  1  0
  5  6  1  0
  6  7  1  0
  7  8  1  0
  8  9  1  0
  9 10  1  0
 10 11  1  0
 11 12  1  0
  5 13  2  0
 13  2  1  0
 12  8  1  0
  1 14  1  0
  1 15  1  0
  1 16  1  0
  3 17  1  0
  4 18  1  0
  6 19  1  0
  6 20  1  0
  7 21  1  0
  7 22  1  0
  8 23  1  0
  9 24  1  0
  9 25  1  0
 10 26  1  0
 10 27  1  0
 11 28  1  0
 11 29  1  0
 12 30  1  0
 12 31  1  0
M  CHG  1   7   1
M  END
>  <UniqueID>  (9) 
9

>  <SMILES>  (9) 
Cn1ccc(C[NH2+]C2CCCC2)n1

>  <Energy>  (9) 
61.36058802948742

>  <Genealogy>  (9) 
Cn1ccc(C[NH2+]C2CCCC2)n1 (protonated)
Cn1ccc(C[NH2+]C2CCCC2)n1 (3D coordinates assigned)
Cn1ccc(C[NH2+]C2CCCC2)n1 (nonaromatic ring conformer: 61.36058802948742 kcal/mol)

>  <smiles>  (9) 
Cn1ccc(CNC2CCCC2)n1

>  <score_type>  (9) 
oracle

>  <origin>  (9) 
adg

>  <m_score__min__energy>  (9) 
-4.5499999999999998

>  <m_primary>  (9) 
energy

$$$$
9:0
     RDKit          3D

 41 43  0  0  0  0  0  0  0  0999 V2000
   64.9650   33.4590   50.2340 C   0  0  0  0  0  0  0  0  0  0  0  0
   63.7770   33.3830   49.3280 C   0  0  0  0  0  0  0  0  0  0  0  0
   63.9300   33.0160   47.9870 C   0  0  0  0  0  0  0  0  0  0  0  0
   62.8060   32.9380   47.1660 C   0  0  0  0  0  0  0  0  0  0  0  0
   61.5360   33.2220   47.6820 C   0  0  0  0  0  0  0  0  0  0  0  0
   60.3930   33.1490   46.8160 N   0  0  0  0  0  0  0  0  0  0  0  0
   60.0740   34.2700   45.9330 C   0  0  0  0  0  0  0  0  0  0  0  0
   58.5500   34.4880   45.8690 C   0  0  0  0  0  0  0  0  0  0  0  0
   57.7710   33.2360   45.6970 N   0  0  0  0  0  0  0  0  0  0  0  0
   57.7970   32.7220   44.3390 C   0  0  0  0  0  0  0  0  0  0  0  0
   58.4790   33.2920   43.4440 O   0  0  0  0  0  0  0  0  0  0  0  0
   57.0750   31.4820   43.9980 C   0  0  0  0  0  0  0  0  0  0  0  0
   57.0650   30.8640   42.7620 C   0  0  0  0  0  0  0  0  0  0  0  0
   56.2710   29.7470   42.9120 C   0  0  0  0  0  0  0  0  0  0  0  0
   55.8470   29.7510   44.2250 C   0  0  0  0  0  0  0  0  0  0  0  0
   56.3430   30.7960   44.8460 O   0  0  0  0  0  0  0  0  0  0  0  0
   58.1520   32.1940   46.6760 C   0  0  0  0  0  0  0  0  0  0  0  0
   59.6540   31.8990   46.6560 C   0  0  0  0  0  0  0  0  0  0  0  0
   61.4160   33.5590   49.0470 C   0  0  0  0  0  0  0  0  0  0  0  0
   60.0850   33.8470   49.6740 C   0  0  0  0  0  0  0  0  0  0  0  0
   62.5340   33.6350   49.8200 N   0  0  0  0  0  0  0  0  0  0  0  0
   64.6294   33.4375   51.2813 H   0  0  0  0  0  0  0  0  0  0  0  0
   65.6269   32.6014   50.0434 H   0  0  0  0  0  0  0  0  0  0  0  0
   65.5122   34.3940   50.0434 H   0  0  0  0  0  0  0  0  0  0  0  0
   64.9284   32.7909   47.5838 H   0  0  0  0  0  0  0  0  0  0  0  0
   62.9174   32.6524   46.1096 H   0  0  0  0  0  0  0  0  0  0  0  0
   60.5546   35.1819   46.3172 H   0  0  0  0  0  0  0  0  0  0  0  0
   60.4444   34.0440   44.9222 H   0  0  0  0  0  0  0  0  0  0  0  0
   58.2293   34.9700   46.8043 H   0  0  0  0  0  0  0  0  0  0  0  0
   58.3530   35.1113   44.9843 H   0  0  0  0  0  0  0  0  0  0  0  0
   56.7780   33.4940   45.9070 H   0  0  0  0  0  0  0  0  0  0  0  0
   57.5824   31.1943   41.8492 H   0  0  0  0  0  0  0  0  0  0  0  0
   56.0251   29.0026   42.1404 H   0  0  0  0  0  0  0  0  0  0  0  0
   55.1929   28.9938   44.6820 H   0  0  0  0  0  0  0  0  0  0  0  0
   57.8721   32.5359   47.6834 H   0  0  0  0  0  0  0  0  0  0  0  0
   57.6237   31.2681   46.4046 H   0  0  0  0  0  0  0  0  0  0  0  0
   59.9053   31.2153   47.4803 H   0  0  0  0  0  0  0  0  0  0  0  0
   59.9251   31.4303   45.6985 H   0  0  0  0  0  0  0  0  0  0  0  0
   60.1834   33.8257   50.7694 H   0  0  0  0  0  0  0  0  0  0  0  0
   59.7375   34.8411   49.3563 H   0  0  0  0  0  0  0  0  0  0  0  0
   59.3576   33.0855   49.3563 H   0  0  0  0  0  0  0  0  0  0  0  0
  1  2  1  0
  2  3  2  0
  3  4  1  0
  4  5  2  0
  5  6  1  0
  6  7  1  0
  7  8  1  0
  8  9  1  0
  9 10  1  0
 10 11  2  0
 10 12  1  0
 12 13  2  0
 13 14  1  0
 14 15  2  0
 15 16  1  0
  9 17  1  0
 17 18  1  0
  5 19  1  0
 19 20  1  0
 19 21  2  0
 21  2  1  0
 18  6  1  0
 16 12  1  0
  1 22  1  0
  1 23  1  0
  1 24  1  0
  3 25  1  0
  4 26  1  0
  7 27  1  0
  7 28  1  0
  8 29  1  0
  8 30  1  0
  9 31  1  0
 13 32  1  0
 14 33  1  0
 15 34  1  0
 17 35  1  0
 17 36  1  0
 18 37  1  0
 18 38  1  0
 20 39  1  0
 20 40  1  0
 20 41  1  0
M  CHG  1   9   1
M  END
>  <UniqueID>  (10) 
10

>  <SMILES>  (10) 
Cc1ccc(N2CC[NH+](C(=O)c3ccco3)CC2)c(C)n1

>  <Energy>  (10) 
76.7814264151502

>  <Genealogy>  (10) 
Cc1ccc(N2CC[NH+](C(=O)c3ccco3)CC2)c(C)n1 (protonated)
Cc1ccc(N2CC[NH+](C(=O)c3ccco3)CC2)c(C)n1 (3D coordinates assigned)
Cc1ccc(N2CC[NH+](C(=O)c3ccco3)CC2)c(C)n1 (nonaromatic ring conformer: 76.7814264151502 kcal/mol)

>  <smiles>  (10) 
Cc1ccc(N2CCN(C(=O)c3ccco3)CC2)c(C)n1

>  <score_type>  (10) 
oracle

>  <origin>  (10) 
adg

>  <m_score__min__energy>  (10) 
-5.8499999999999996

>  <m_primary>  (10) 
energy

$$$$
10:0
     RDKit          3D

 77 80  0  0  0  0  0  0  0  0999 V2000
   55.7940   31.1160   51.9800 C   0  0  0  0  0  0  0  0  0  0  0  0
   57.3190   31.1850   51.9870 C   0  0  0  0  0  0  0  0  0  0  0  0
   57.8120   32.6250   51.7240 C   0  0  0  0  0  0  0  0  0  0  0  0
   59.2740   32.7150   51.5060 N   0  0  0  0  0  0  0  0  0  0  0  0
   60.0400   32.6620   52.7720 C   0  0  0  0  0  0  0  0  0  0  0  0
   59.2440   33.2560   53.9430 C   0  0  0  0  0  0  0  0  0  0  0  0
   59.2810   34.7850   53.9450 C   0  0  0  0  0  0  0  0  0  0  0  0
   59.6540   33.8490   50.6280 C   0  0  0  0  0  0  0  0  0  0  0  0
   59.7090   33.3740   49.1740 C   0  0  0  0  0  0  0  0  0  0  0  0
   58.7380   32.3050   48.9310 N   0  0  0  0  0  0  0  0  0  0  0  0
   58.8020   31.5470   47.7150 C   0  0  0  0  0  0  0  0  0  0  0  0
   58.4300   32.1840   46.5130 C   0  0  0  0  0  0  0  0  0  0  0  0
   58.1700   33.5740   46.4720 C   0  0  0  0  0  0  0  0  0  0  0  0
   57.8070   34.2000   45.2830 C   0  0  0  0  0  0  0  0  0  0  0  0
   57.7140   33.4640   44.1100 C   0  0  0  0  0  0  0  0  0  0  0  0
   57.9710   32.0950   44.1230 C   0  0  0  0  0  0  0  0  0  0  0  0
   58.3160   31.4250   45.3250 C   0  0  0  0  0  0  0  0  0  0  0  0
   58.5530   30.0680   45.3520 N   0  0  0  0  0  0  0  0  0  0  0  0
   58.1250   29.2260   44.2130 C   0  0  0  0  0  0  0  0  0  0  0  0
   59.1840   29.4980   46.4400 C   0  0  0  0  0  0  0  0  0  0  0  0
   59.7830   28.2230   46.3240 C   0  0  0  0  0  0  0  0  0  0  0  0
   60.3900   27.6100   47.4030 C   0  0  0  0  0  0  0  0  0  0  0  0
   60.4260   28.2420   48.6310 C   0  0  0  0  0  0  0  0  0  0  0  0
   59.8980   29.5340   48.8090 C   0  0  0  0  0  0  0  0  0  0  0  0
   59.9900   30.0940   50.1460 N   0  0  0  0  0  0  0  0  0  0  0  0
   61.2550   29.8690   50.8980 C   0  0  0  0  0  0  0  0  0  0  0  0
   62.1950   31.0890   51.0970 C   0  0  0  0  0  0  0  0  0  0  0  0
   62.5250   31.8750   49.8340 C   0  0  0  0  0  0  0  0  0  0  0  0
   62.4930   31.2170   48.5880 C   0  0  0  0  0  0  0  0  0  0  0  0
   62.7360   31.9280   47.4170 C   0  0  0  0  0  0  0  0  0  0  0  0
   63.0310   33.2830   47.4810 C   0  0  0  0  0  0  0  0  0  0  0  0
   63.1290   33.9010   48.7250 C   0  0  0  0  0  0  0  0  0  0  0  0
   62.9250   33.1960   49.8830 N   0  0  0  0  0  0  0  0  0  0  0  0
   63.1610   33.8870   51.1590 C   0  0  0  0  0  0  0  0  0  0  0  0
   59.2820   30.2040   47.6860 C   0  0  0  0  0  0  0  0  0  0  0  0
   55.4230   31.0992   53.0154 H   0  0  0  0  0  0  0  0  0  0  0  0
   55.3895   31.9968   51.4598 H   0  0  0  0  0  0  0  0  0  0  0  0
   55.4707   30.2023   51.4598 H   0  0  0  0  0  0  0  0  0  0  0  0
   57.6891   30.8521   52.9679 H   0  0  0  0  0  0  0  0  0  0  0  0
   57.7018   30.5334   51.1877 H   0  0  0  0  0  0  0  0  0  0  0  0
   57.3016   33.0104   50.8291 H   0  0  0  0  0  0  0  0  0  0  0  0
   57.5803   33.2168   52.6218 H   0  0  0  0  0  0  0  0  0  0  0  0
   60.2799   31.6129   52.9998 H   0  0  0  0  0  0  0  0  0  0  0  0
   60.9562   33.2570   52.6435 H   0  0  0  0  0  0  0  0  0  0  0  0
   58.1975   32.9264   53.8643 H   0  0  0  0  0  0  0  0  0  0  0  0
   59.7032   32.9042   54.8786 H   0  0  0  0  0  0  0  0  0  0  0  0
   59.2898   35.1502   54.9826 H   0  0  0  0  0  0  0  0  0  0  0  0
   60.1878   35.1305   53.4269 H   0  0  0  0  0  0  0  0  0  0  0  0
   58.3920   35.1740   53.4269 H   0  0  0  0  0  0  0  0  0  0  0  0
   58.9083   34.6520   50.7232 H   0  0  0  0  0  0  0  0  0  0  0  0
   60.6423   34.2283   50.9269 H   0  0  0  0  0  0  0  0  0  0  0  0
   59.4834   34.2218   48.5104 H   0  0  0  0  0  0  0  0  0  0  0  0
   60.7170   32.9825   48.9725 H   0  0  0  0  0  0  0  0  0  0  0  0
   58.3640   31.8010   49.7660 H   0  0  0  0  0  0  0  0  0  0  0  0
   58.2560   34.1688   47.3933 H   0  0  0  0  0  0  0  0  0  0  0  0
   57.5936   35.2791   45.2730 H   0  0  0  0  0  0  0  0  0  0  0  0
   57.4371   33.9622   43.1692 H   0  0  0  0  0  0  0  0  0  0  0  0
   57.9053   31.5237   43.1853 H   0  0  0  0  0  0  0  0  0  0  0  0
   57.6572   28.3057   44.5928 H   0  0  0  0  0  0  0  0  0  0  0  0
   57.3992   29.7802   43.5997 H   0  0  0  0  0  0  0  0  0  0  0  0
   59.0005   28.9662   43.5997 H   0  0  0  0  0  0  0  0  0  0  0  0
   59.7654   27.7072   45.3526 H   0  0  0  0  0  0  0  0  0  0  0  0
   60.8459   26.6160   47.2841 H   0  0  0  0  0  0  0  0  0  0  0  0
   60.8778   27.7232   49.4893 H   0  0  0  0  0  0  0  0  0  0  0  0
   59.7330   31.1000   50.1240 H   0  0  0  0  0  0  0  0  0  0  0  0
   59.2190   29.6950   50.7310 H   0  0  0  0  0  0  0  0  0  0  0  0
   60.9833   29.4955   51.8964 H   0  0  0  0  0  0  0  0  0  0  0  0
   61.8313   29.1686   50.2757 H   0  0  0  0  0  0  0  0  0  0  0  0
   61.7127   31.7762   51.8077 H   0  0  0  0  0  0  0  0  0  0  0  0
   63.1505   30.6790   51.4562 H   0  0  0  0  0  0  0  0  0  0  0  0
   62.2756   30.1397   48.5413 H   0  0  0  0  0  0  0  0  0  0  0  0
   62.6945   31.4179   46.4433 H   0  0  0  0  0  0  0  0  0  0  0  0
   63.1857   33.8623   46.5588 H   0  0  0  0  0  0  0  0  0  0  0  0
   63.3740   34.9720   48.7794 H   0  0  0  0  0  0  0  0  0  0  0  0
   62.9289   33.2075   51.9923 H   0  0  0  0  0  0  0  0  0  0  0  0
   64.2153   34.1950   51.2197 H   0  0  0  0  0  0  0  0  0  0  0  0
   62.5154   34.7755   51.2197 H   0  0  0  0  0  0  0  0  0  0  0  0
  1  2  1  0
  2  3  1  0
  3  4  1  0
  4  5  1  0
  5  6  1  0
  6  7  1  0
  4  8  1  0
  8  9  1  0
  9 10  1  0
 10 11  1  0
 11 12  2  0
 12 13  1  0
 13 14  2  0
 14 15  1  0
 15 16  2  0
 16 17  1  0
 17 18  2  0
 18 19  1  0
 18 20  1  0
 20 21  2  0
 21 22  1  0
 22 23  2  0
 23 24  1  0
 24 25  1  0
 25 26  1  0
 26 27  1  0
 27 28  1  0
 28 29  2  0
 29 30  1  0
 30 31  2  0
 31 32  1  0
 32 33  2  0
 33 34  1  0
 24 35  2  0
 35 11  1  0
 17 12  1  0
 35 20  1  0
 33 28  1  0
  1 36  1  0
  1 37  1  0
  1 38  1  0
  2 39  1  0
  2 40  1  0
  3 41  1  0
  3 42  1  0
  5 43  1  0
  5 44  1  0
  6 45  1  0
  6 46  1  0
  7 47  1  0
  7 48  1  0
  7 49  1  0
  8 50  1  0
  8 51  1  0
  9 52  1  0
  9 53  1  0
 10 54  1  0
 13 55  1  0
 14 56  1  0
 15 57  1  0
 16 58  1  0
 19 59  1  0
 19 60  1  0
 19 61  1  0
 21 62  1  0
 22 63  1  0
 23 64  1  0
 25 65  1  0
 25 66  1  0
 26 67  1  0
 26 68  1  0
 27 69  1  0
 27 70  1  0
 29 71  1  0
 30 72  1  0
 31 73  1  0
 32 74  1  0
 34 75  1  0
 34 76  1  0
 34 77  1  0
M  CHG  3  18   1  25   1  33   1
M  END
>  <UniqueID>  (11) 
11

>  <SMILES>  (11) 
CCCN(CCC)CCNc1c2ccccc2[n+](C)c2cccc([NH2+]CCc3cccc[n+]3C)c12

>  <Energy>  (11) 
123.03054258177842

>  <Genealogy>  (11) 
CCCN(CCC)CCNc1c2ccccc2[n+](C)c2cccc([NH2+]CCc3cccc[n+]3C)c12 (protonated)
CCCN(CCC)CCNc1c2ccccc2[n+](C)c2cccc([NH2+]CCc3cccc[n+]3C)c12 (3D coordinates assigned)
CCCN(CCC)CCNc1c2ccccc2[n+](C)c2cccc([NH2+]CCc3cccc[n+]3C)c12 (optimized conformer: 123.03054258177842 kcal/mol)

>  <smiles>  (11) 
CCCN(CCC)CCNc1c2ccccc2[n+](C)c2cccc(NCCc3cccc[n+]3C)c12

>  <score_type>  (11) 
oracle

>  <origin>  (11) 
adg

>  <m_score__min__energy>  (11) 
-3.8399999999999999

>  <m_primary>  (11) 
energy

$$$$
11:0
     RDKit          3D

 39 41  0  0  0  0  0  0  0  0999 V2000
   58.2930   34.1940   44.8780 C   0  0  0  0  0  0  0  0  0  0  0  0
   57.3340   33.2920   45.0710 C   0  0  0  0  0  0  0  0  0  0  0  0
   57.6240   31.9220   45.3850 N   0  0  0  0  0  0  0  0  0  0  0  0
   58.2710   31.5870   46.4900 N   0  0  0  0  0  0  0  0  0  0  0  0
   58.4250   30.2480   46.5010 C   0  0  0  0  0  0  0  0  0  0  0  0
   59.1030   29.5260   47.6000 C   0  0  0  0  0  0  0  0  0  0  0  0
   59.8770   28.3770   47.3520 C   0  0  0  0  0  0  0  0  0  0  0  0
   60.5120   27.7110   48.4030 C   0  0  0  0  0  0  0  0  0  0  0  0
   60.3950   28.1920   49.7110 C   0  0  0  0  0  0  0  0  0  0  0  0
   61.1950   27.3560   51.0290 Cl  0  0  0  0  0  0  0  0  0  0  0  0
   59.6460   29.3440   49.9650 C   0  0  0  0  0  0  0  0  0  0  0  0
   59.0080   30.0120   48.9150 C   0  0  0  0  0  0  0  0  0  0  0  0
   57.8670   29.7140   45.3440 C   0  0  0  0  0  0  0  0  0  0  0  0
   57.7080   28.2880   44.9980 C   0  0  0  0  0  0  0  0  0  0  0  0
   58.1630   27.8120   43.7590 C   0  0  0  0  0  0  0  0  0  0  0  0
   58.0090   26.4630   43.4230 C   0  0  0  0  0  0  0  0  0  0  0  0
   57.3970   25.5830   44.3210 C   0  0  0  0  0  0  0  0  0  0  0  0
   57.2030   23.8920   43.8980 Cl  0  0  0  0  0  0  0  0  0  0  0  0
   56.9360   26.0530   45.5550 C   0  0  0  0  0  0  0  0  0  0  0  0
   57.0880   27.4020   45.8930 C   0  0  0  0  0  0  0  0  0  0  0  0
   57.3690   30.8100   44.6510 C   0  0  0  0  0  0  0  0  0  0  0  0
   56.6590   30.7690   43.3200 C   0  0  0  0  0  0  0  0  0  0  0  0
   57.3950   31.6030   42.2730 C   0  0  0  0  0  0  0  0  0  0  0  0
   58.0291   35.2348   44.6389 H   0  0  0  0  0  0  0  0  0  0  0  0
   59.3497   33.8989   44.9575 H   0  0  0  0  0  0  0  0  0  0  0  0
   56.2834   33.6071   44.9870 H   0  0  0  0  0  0  0  0  0  0  0  0
   59.9826   28.0009   46.3237 H   0  0  0  0  0  0  0  0  0  0  0  0
   61.1050   26.8067   48.2015 H   0  0  0  0  0  0  0  0  0  0  0  0
   59.5581   29.7261   50.9927 H   0  0  0  0  0  0  0  0  0  0  0  0
   58.4280   30.9239   49.1199 H   0  0  0  0  0  0  0  0  0  0  0  0
   58.6425   28.5022   43.0493 H   0  0  0  0  0  0  0  0  0  0  0  0
   58.3696   26.0940   42.4515 H   0  0  0  0  0  0  0  0  0  0  0  0
   56.4532   25.3610   46.2607 H   0  0  0  0  0  0  0  0  0  0  0  0
   56.7207   27.7693   46.8626 H   0  0  0  0  0  0  0  0  0  0  0  0
   56.6053   29.7261   42.9744 H   0  0  0  0  0  0  0  0  0  0  0  0
   55.6503   31.1877   43.4513 H   0  0  0  0  0  0  0  0  0  0  0  0
   58.0420   32.3362   42.7769 H   0  0  0  0  0  0  0  0  0  0  0  0
   58.0099   30.9424   41.6441 H   0  0  0  0  0  0  0  0  0  0  0  0
   56.6631   32.1310   41.6441 H   0  0  0  0  0  0  0  0  0  0  0  0
  1  2  2  0
  2  3  1  0
  3  4  1  0
  4  5  2  0
  5  6  1  0
  6  7  2  0
  7  8  1  0
  8  9  2  0
  9 10  1  0
  9 11  1  0
 11 12  2  0
  5 13  1  0
 13 14  1  0
 14 15  2  0
 15 16  1  0
 16 17  2  0
 17 18  1  0
 17 19  1  0
 19 20  2  0
 13 21  2  0
 21 22  1  0
 22 23  1  0
 21  3  1  0
 12  6  1  0
 20 14  1  0
  1 24  1  0
  1 25  1  0
  2 26  1  0
  7 27  1  0
  8 28  1  0
 11 29  1  0
 12 30  1  0
 15 31  1  0
 16 32  1  0
 19 33  1  0
 20 34  1  0
 22 35  1  0
 22 36  1  0
 23 37  1  0
 23 38  1  0
 23 39  1  0
M  END
>  <UniqueID>  (12) 
12

>  <SMILES>  (12) 
C=Cn1nc(-c2ccc(Cl)cc2)c(-c2ccc(Cl)cc2)c1CC

>  <Energy>  (12) 
81.48695878428407

>  <Genealogy>  (12) 
C=Cn1nc(-c2ccc(Cl)cc2)c(-c2ccc(Cl)cc2)c1CC (3D coordinates assigned)
C=Cn1nc(-c2ccc(Cl)cc2)c(-c2ccc(Cl)cc2)c1CC (optimized conformer: 81.48695878428407 kcal/mol)

>  <smiles>  (12) 
C=Cn1nc(-c2ccc(Cl)cc2)c(-c2ccc(Cl)cc2)c1CC

>  <score_type>  (12) 
oracle

>  <origin>  (12) 
adg

>  <m_score__min__energy>  (12) 
-7.3899999999999997

>  <m_primary>  (12) 
energy

$$$$
12:0
     RDKit          3D

 63 65  0  0  0  0  0  0  0  0999 V2000
   60.7560   28.7350   44.9280 C   0  0  0  0  0  0  0  0  0  0  0  0
   59.5500   29.6450   45.1550 C   0  0  0  0  0  0  0  0  0  0  0  0
   59.2320   29.7410   46.6000 N   0  0  0  0  0  0  0  0  0  0  0  0
   60.4440   29.4650   47.3970 C   0  0  0  0  0  0  0  0  0  0  0  0
   58.1470   28.7970   46.9620 C   0  0  0  0  0  0  0  0  0  0  0  0
   57.4270   28.2650   45.7120 C   0  0  0  0  0  0  0  0  0  0  0  0
   56.4370   29.1810   45.2730 O   0  0  0  0  0  0  0  0  0  0  0  0
   56.4750   29.3470   43.8640 C   0  0  0  0  0  0  0  0  0  0  0  0
   56.8320   30.7880   43.5030 C   0  0  0  0  0  0  0  0  0  0  0  0
   56.2660   31.6660   44.4450 O   0  0  0  0  0  0  0  0  0  0  0  0
   57.2180   31.8560   45.3970 N   0  0  0  0  0  0  0  0  0  0  0  0
   57.0210   33.1860   45.9710 C   0  0  0  0  0  0  0  0  0  0  0  0
   58.0830   33.4500   47.0430 C   0  0  0  0  0  0  0  0  0  0  0  0
   58.8750   32.2380   47.3090 N   0  0  0  0  0  0  0  0  0  0  0  0
   59.8410   32.4750   48.3730 C   0  0  0  0  0  0  0  0  0  0  0  0
   61.1620   32.9010   48.0740 C   0  0  0  0  0  0  0  0  0  0  0  0
   61.5480   33.2740   46.7630 C   0  0  0  0  0  0  0  0  0  0  0  0
   62.8320   33.7440   46.4970 C   0  0  0  0  0  0  0  0  0  0  0  0
   63.7580   33.8660   47.5230 C   0  0  0  0  0  0  0  0  0  0  0  0
   63.4120   33.4960   48.8200 C   0  0  0  0  0  0  0  0  0  0  0  0
   62.1240   32.9810   49.1210 C   0  0  0  0  0  0  0  0  0  0  0  0
   61.7930   32.5780   50.3990 N   0  0  0  0  0  0  0  0  0  0  0  0
   62.8590   32.3360   51.3970 C   0  0  0  0  0  0  0  0  0  0  0  0
   60.4700   32.3940   50.7440 C   0  0  0  0  0  0  0  0  0  0  0  0
   60.0720   32.2900   52.1030 C   0  0  0  0  0  0  0  0  0  0  0  0
   58.7360   32.0960   52.4510 C   0  0  0  0  0  0  0  0  0  0  0  0
   58.2750   31.9740   54.1420 Cl  0  0  0  0  0  0  0  0  0  0  0  0
   57.7650   32.0140   51.4620 C   0  0  0  0  0  0  0  0  0  0  0  0
   58.1190   32.1350   50.1220 C   0  0  0  0  0  0  0  0  0  0  0  0
   59.4690   32.3280   49.7350 C   0  0  0  0  0  0  0  0  0  0  0  0
   61.1684   28.4238   45.8991 H   0  0  0  0  0  0  0  0  0  0  0  0
   60.4430   27.8461   44.3607 H   0  0  0  0  0  0  0  0  0  0  0  0
   61.5249   29.2799   44.3607 H   0  0  0  0  0  0  0  0  0  0  0  0
   59.7770   30.6491   44.7675 H   0  0  0  0  0  0  0  0  0  0  0  0
   58.6822   29.2207   44.6288 H   0  0  0  0  0  0  0  0  0  0  0  0
   60.1992   29.5208   48.4680 H   0  0  0  0  0  0  0  0  0  0  0  0
   60.8184   28.4586   47.1584 H   0  0  0  0  0  0  0  0  0  0  0  0
   61.2173   30.2100   47.1584 H   0  0  0  0  0  0  0  0  0  0  0  0
   58.5792   27.9495   47.5141 H   0  0  0  0  0  0  0  0  0  0  0  0
   57.4138   29.3333   47.5823 H   0  0  0  0  0  0  0  0  0  0  0  0
   58.1627   28.1163   44.9079 H   0  0  0  0  0  0  0  0  0  0  0  0
   56.9386   27.3124   45.9650 H   0  0  0  0  0  0  0  0  0  0  0  0
   57.2313   28.6699   43.4403 H   0  0  0  0  0  0  0  0  0  0  0  0
   55.4823   29.1132   43.4519 H   0  0  0  0  0  0  0  0  0  0  0  0
   57.9257   30.9053   43.5046 H   0  0  0  0  0  0  0  0  0  0  0  0
   56.4373   31.0220   42.5033 H   0  0  0  0  0  0  0  0  0  0  0  0
   57.0470   31.1470   46.1490 H   0  0  0  0  0  0  0  0  0  0  0  0
   57.1070   33.9428   45.1774 H   0  0  0  0  0  0  0  0  0  0  0  0
   56.0218   33.2405   46.4279 H   0  0  0  0  0  0  0  0  0  0  0  0
   58.7540   34.2495   46.6957 H   0  0  0  0  0  0  0  0  0  0  0  0
   57.5766   33.7494   47.9725 H   0  0  0  0  0  0  0  0  0  0  0  0
   59.3520   31.9150   46.4380 H   0  0  0  0  0  0  0  0  0  0  0  0
   58.2490   31.4400   47.5550 H   0  0  0  0  0  0  0  0  0  0  0  0
   60.8215   33.1911   45.9412 H   0  0  0  0  0  0  0  0  0  0  0  0
   63.1128   34.0194   45.4697 H   0  0  0  0  0  0  0  0  0  0  0  0
   64.7651   34.2549   47.3119 H   0  0  0  0  0  0  0  0  0  0  0  0
   64.1513   33.6049   49.6272 H   0  0  0  0  0  0  0  0  0  0  0  0
   62.4412   32.4309   52.4101 H   0  0  0  0  0  0  0  0  0  0  0  0
   63.2652   31.3228   51.2613 H   0  0  0  0  0  0  0  0  0  0  0  0
   63.6629   33.0745   51.2613 H   0  0  0  0  0  0  0  0  0  0  0  0
   60.8314   32.3638   52.8954 H   0  0  0  0  0  0  0  0  0  0  0  0
   56.7126   31.8529   51.7388 H   0  0  0  0  0  0  0  0  0  0  0  0
   57.3379   32.0800   49.3495 H   0  0  0  0  0  0  0  0  0  0  0  0
  1  2  1  0
  2  3  1  0
  3  4  1  0
  3  5  1  0
  5  6  1  0
  6  7  1  0
  7  8  1  0
  8  9  1  0
  9 10  1  0
 10 11  1  0
 11 12  1  0
 12 13  1  0
 13 14  1  0
 14 15  1  0
 15 16  2  0
 16 17  1  0
 17 18  2  0
 18 19  1  0
 19 20  2  0
 20 21  1  0
 21 22  2  0
 22 23  1  0
 22 24  1  0
 24 25  2  0
 25 26  1  0
 26 27  1  0
 26 28  2  0
 28 29  1  0
 29 30  2  0
 30 15  1  0
 21 16  1  0
 30 24  1  0
  1 31  1  0
  1 32  1  0
  1 33  1  0
  2 34  1  0
  2 35  1  0
  4 36  1  0
  4 37  1  0
  4 38  1  0
  5 39  1  0
  5 40  1  0
  6 41  1  0
  6 42  1  0
  8 43  1  0
  8 44  1  0
  9 45  1  0
  9 46  1  0
 11 47  1  0
 12 48  1  0
 12 49  1  0
 13 50  1  0
 13 51  1  0
 14 52  1  0
 14 53  1  0
 17 54  1  0
 18 55  1  0
 19 56  1  0
 20 57  1  0
 23 58  1  0
 23 59  1  0
 23 60  1  0
 25 61  1  0
 28 62  1  0
 29 63  1  0
M  CHG  2  14   1  22   1
M  END
>  <UniqueID>  (13) 
13

>  <SMILES>  (13) 
CCN(C)CCOCCONCC[NH2+]c1c2ccccc2[n+](C)c2cc(Cl)ccc12

>  <Energy>  (13) 
86.32916760465632

>  <Genealogy>  (13) 
CCN(C)CCOCCONCC[NH2+]c1c2ccccc2[n+](C)c2cc(Cl)ccc12 (protonated)
CCN(C)CCOCCONCC[NH2+]c1c2ccccc2[n+](C)c2cc(Cl)ccc12 (3D coordinates assigned)
CCN(C)CCOCCONCC[NH2+]c1c2ccccc2[n+](C)c2cc(Cl)ccc12 (optimized conformer: 86.32916760465632 kcal/mol)

>  <smiles>  (13) 
CCN(C)CCOCCONCCNc1c2ccccc2[n+](C)c2cc(Cl)ccc12

>  <score_type>  (13) 
oracle

>  <origin>  (13) 
adg

>  <m_score__min__energy>  (13) 
-5.0499999999999998

>  <m_primary>  (13) 
energy

$$$$
13:0
     RDKit          3D

 31 31  0  0  0  0  0  0  0  0999 V2000
   63.8910   32.3490   49.5260 C   0  0  0  0  0  0  0  0  0  0  0  0
   63.3870   31.9980   48.1240 C   0  0  0  0  0  0  0  0  0  0  0  0
   64.1420   32.6870   47.0600 N   0  0  0  0  0  0  0  0  0  0  0  0
   63.3690   33.7500   46.3860 C   0  0  0  0  0  0  0  0  0  0  0  0
   61.9990   33.8420   46.9160 C   0  0  0  0  0  0  0  0  0  0  0  0
   60.8790   33.9180   47.3510 C   0  0  0  0  0  0  0  0  0  0  0  0
   59.5050   34.0060   47.8840 C   0  0  0  0  0  0  0  0  0  0  0  0
   58.5120   34.4030   46.8620 N   0  0  0  0  0  0  0  0  0  0  0  0
   59.1010   34.6210   45.5280 C   0  0  0  0  0  0  0  0  0  0  0  0
   58.2310   33.8980   44.5140 C   0  0  0  0  0  0  0  0  0  0  0  0
   57.4970   32.8510   45.3180 C   0  0  0  0  0  0  0  0  0  0  0  0
   57.4060   33.4430   46.7120 C   0  0  0  0  0  0  0  0  0  0  0  0
   63.2322   31.8902   50.2780 H   0  0  0  0  0  0  0  0  0  0  0  0
   64.9148   31.9675   49.6538 H   0  0  0  0  0  0  0  0  0  0  0  0
   63.8882   33.4415   49.6538 H   0  0  0  0  0  0  0  0  0  0  0  0
   63.4826   30.9121   47.9770 H   0  0  0  0  0  0  0  0  0  0  0  0
   62.3394   32.3264   48.0549 H   0  0  0  0  0  0  0  0  0  0  0  0
   64.9720   33.1370   47.5150 H   0  0  0  0  0  0  0  0  0  0  0  0
   64.5140   31.9910   46.3710 H   0  0  0  0  0  0  0  0  0  0  0  0
   63.8770   34.7134   46.5403 H   0  0  0  0  0  0  0  0  0  0  0  0
   63.3082   33.5053   45.3153 H   0  0  0  0  0  0  0  0  0  0  0  0
   59.2210   33.0218   48.2848 H   0  0  0  0  0  0  0  0  0  0  0  0
   59.5037   34.7829   48.6627 H   0  0  0  0  0  0  0  0  0  0  0  0
   59.1255   35.6970   45.3008 H   0  0  0  0  0  0  0  0  0  0  0  0
   60.1311   34.2367   45.4947 H   0  0  0  0  0  0  0  0  0  0  0  0
   57.5212   34.5950   44.0445 H   0  0  0  0  0  0  0  0  0  0  0  0
   58.8214   33.4578   43.6969 H   0  0  0  0  0  0  0  0  0  0  0  0
   56.4935   32.6744   44.9036 H   0  0  0  0  0  0  0  0  0  0  0  0
   58.0098   31.8779   45.3077 H   0  0  0  0  0  0  0  0  0  0  0  0
   56.4425   33.9584   46.8383 H   0  0  0  0  0  0  0  0  0  0  0  0
   57.4761   32.6516   47.4727 H   0  0  0  0  0  0  0  0  0  0  0  0
  1  2  1  0
  2  3  1  0
  3  4  1  0
  4  5  1  0
  5  6  3  0
  6  7  1  0
  7  8  1  0
  8  9  1  0
  9 10  1  0
 10 11  1  0
 11 12  1  0
 12  8  1  0
  1 13  1  0
  1 14  1  0
  1 15  1  0
  2 16  1  0
  2 17  1  0
  3 18  1  0
  3 19  1  0
  4 20  1  0
  4 21  1  0
  7 22  1  0
  7 23  1  0
  9 24  1  0
  9 25  1  0
 10 26  1  0
 10 27  1  0
 11 28  1  0
 11 29  1  0
 12 30  1  0
 12 31  1  0
M  CHG  1   3   1
M  END
>  <UniqueID>  (14) 
14

>  <SMILES>  (14) 
CC[NH2+]CC#CCN1CCCC1

>  <Energy>  (14) 
25.535427745828038

>  <Genealogy>  (14) 
CC[NH2+]CC#CCN1CCCC1 (protonated)
CC[NH2+]CC#CCN1CCCC1 (3D coordinates assigned)
CC[NH2+]CC#CCN1CCCC1 (nonaromatic ring conformer: 25.535427745828038 kcal/mol)

>  <smiles>  (14) 
CCNCC#CCN1CCCC1

>  <score_type>  (14) 
oracle

>  <origin>  (14) 
adg

>  <m_score__min__energy>  (14) 
-3.4700000000000002

>  <m_primary>  (14) 
energy

$$$$
14:0
     RDKit          3D

 41 41  0  0  0  0  0  0  0  0999 V2000
   61.7250   33.8180   46.6330 C   0  0  0  0  0  0  0  0  0  0  0  0
   60.9150   33.6290   47.9150 C   0  0  0  0  0  0  0  0  0  0  0  0
   59.6410   34.4850   47.9280 C   0  0  0  0  0  0  0  0  0  0  0  0
   58.5550   33.8830   47.0840 C   0  0  0  0  0  0  0  0  0  0  0  0
   57.7170   33.1080   47.6130 O   0  0  0  0  0  0  0  0  0  0  0  0
   58.4670   34.2040   45.6880 N   0  0  0  0  0  0  0  0  0  0  0  0
   57.3450   33.7910   44.8440 C   0  0  0  0  0  0  0  0  0  0  0  0
   57.7970   32.7490   43.8190 C   0  0  0  0  0  0  0  0  0  0  0  0
   57.6070   31.3440   44.3320 C   0  0  0  0  0  0  0  0  0  0  0  0
   56.5640   30.5450   43.8370 C   0  0  0  0  0  0  0  0  0  0  0  0
   56.3860   29.2420   44.3130 C   0  0  0  0  0  0  0  0  0  0  0  0
   57.2520   28.7210   45.2840 C   0  0  0  0  0  0  0  0  0  0  0  0
   57.0260   27.0860   45.9010 S   0  0  0  0  0  0  0  0  0  0  0  0
   57.6880   26.1140   44.9650 O   0  0  0  0  0  0  0  0  0  0  0  0
   57.6660   26.9510   47.2540 O   0  0  0  0  0  0  0  0  0  0  0  0
   55.3340   26.7080   46.0020 N   0  0  0  0  0  0  0  0  0  0  0  0
   55.1130   25.3070   45.6520 C   0  0  0  0  0  0  0  0  0  0  0  0
   55.8800   24.4160   46.6180 C   0  0  0  0  0  0  0  0  0  0  0  0
   58.3060   29.5080   45.7640 C   0  0  0  0  0  0  0  0  0  0  0  0
   58.4850   30.8100   45.2890 C   0  0  0  0  0  0  0  0  0  0  0  0
   62.7666   34.0610   46.8899 H   0  0  0  0  0  0  0  0  0  0  0  0
   61.6998   32.8899   46.0432 H   0  0  0  0  0  0  0  0  0  0  0  0
   61.2916   34.6392   46.0432 H   0  0  0  0  0  0  0  0  0  0  0  0
   60.6309   32.5698   48.0015 H   0  0  0  0  0  0  0  0  0  0  0  0
   61.5430   33.9457   48.7608 H   0  0  0  0  0  0  0  0  0  0  0  0
   59.2805   34.5709   48.9637 H   0  0  0  0  0  0  0  0  0  0  0  0
   59.8889   35.4727   47.5120 H   0  0  0  0  0  0  0  0  0  0  0  0
   59.2340   34.7680   45.2510 H   0  0  0  0  0  0  0  0  0  0  0  0
   56.5570   33.3572   45.4771 H   0  0  0  0  0  0  0  0  0  0  0  0
   56.9611   34.6718   44.3085 H   0  0  0  0  0  0  0  0  0  0  0  0
   57.2080   32.8753   42.8986 H   0  0  0  0  0  0  0  0  0  0  0  0
   58.8689   32.9013   43.6246 H   0  0  0  0  0  0  0  0  0  0  0  0
   55.8836   30.9457   43.0712 H   0  0  0  0  0  0  0  0  0  0  0  0
   55.5634   28.6239   43.9239 H   0  0  0  0  0  0  0  0  0  0  0  0
   54.0390   25.0781   45.7160 H   0  0  0  0  0  0  0  0  0  0  0  0
   55.4661   25.1251   44.6262 H   0  0  0  0  0  0  0  0  0  0  0  0
   55.6353   24.7003   47.6521 H   0  0  0  0  0  0  0  0  0  0  0  0
   55.5989   23.3659   46.4501 H   0  0  0  0  0  0  0  0  0  0  0  0
   56.9603   24.5378   46.4501 H   0  0  0  0  0  0  0  0  0  0  0  0
   58.9956   29.0999   46.5177 H   0  0  0  0  0  0  0  0  0  0  0  0
   59.3186   31.4201   45.6670 H   0  0  0  0  0  0  0  0  0  0  0  0
  1  2  1  0
  2  3  1  0
  3  4  1  0
  4  5  2  0
  4  6  1  0
  6  7  1  0
  7  8  1  0
  8  9  1  0
  9 10  2  0
 10 11  1  0
 11 12  2  0
 12 13  1  0
 13 14  2  0
 13 15  2  0
 13 16  1  0
 16 17  1  0
 17 18  1  0
 12 19  1  0
 19 20  2  0
 20  9  1  0
  1 21  1  0
  1 22  1  0
  1 23  1  0
  2 24  1  0
  2 25  1  0
  3 26  1  0
  3 27  1  0
  6 28  1  0
  7 29  1  0
  7 30  1  0
  8 31  1  0
  8 32  1  0
 10 33  1  0
 11 34  1  0
 17 35  1  0
 17 36  1  0
 18 37  1  0
 18 38  1  0
 18 39  1  0
 19 40  1  0
 20 41  1  0
M  CHG  1  16  -1
M  END
>  <UniqueID>  (15) 
15

>  <SMILES>  (15) 
CCCC(=O)NCCc1ccc(S(=O)(=O)[N-]CC)cc1

>  <Energy>  (15) 
19.819880061122607

>  <Genealogy>  (15) 
CCCC(=O)NCCc1ccc(S(=O)(=O)[N-]CC)cc1 (protonated)
CCCC(=O)NCCc1ccc(S(=O)(=O)[N-]CC)cc1 (3D coordinates assigned)
CCCC(=O)NCCc1ccc(S(=O)(=O)[N-]CC)cc1 (optimized conformer: 19.819880061122607 kcal/mol)

>  <smiles>  (15) 
CCCC(=O)NCCc1ccc(S(=O)(=O)NCC)cc1

>  <score_type>  (15) 
oracle

>  <origin>  (15) 
adg

>  <m_score__min__energy>  (15) 
-8.7699999999999996

>  <m_primary>  (15) 
energy

$$$$
15:0
     RDKit          3D

 65 67  0  0  0  0  0  0  0  0999 V2000
   56.4177   29.3428   52.7588 H   0  0  0  0  0  0  0  0  0  0  0  0
   57.3760   29.7080   52.3610 C   0  0  0  0  0  0  0  0  0  0  0  0
   57.3890   30.3540   51.2360 N   0  0  0  0  0  0  0  0  0  0  0  0
   58.1360   31.5000   51.0770 O   0  0  0  0  0  0  0  0  0  0  0  0
   57.7700   32.7090   51.7230 C   0  0  0  0  0  0  0  0  0  0  0  0
   57.4028   32.4855   52.7355 H   0  0  0  0  0  0  0  0  0  0  0  0
   56.9782   33.2056   51.1430 H   0  0  0  0  0  0  0  0  0  0  0  0
   58.9850   33.6350   51.8160 C   0  0  0  0  0  0  0  0  0  0  0  0
   58.7915   34.3892   52.5930 H   0  0  0  0  0  0  0  0  0  0  0  0
   59.1261   34.0910   50.8250 H   0  0  0  0  0  0  0  0  0  0  0  0
   60.2890   32.8900   52.1690 C   0  0  0  0  0  0  0  0  0  0  0  0
   60.2001   32.4936   53.1913 H   0  0  0  0  0  0  0  0  0  0  0  0
   61.1143   33.6115   52.0776 H   0  0  0  0  0  0  0  0  0  0  0  0
   60.5820   31.7640   51.2500 N   0  0  0  0  0  0  0  0  0  0  0  0
   60.1360   31.9540   50.3210 H   0  0  0  0  0  0  0  0  0  0  0  0
   60.1550   30.8760   51.6060 H   0  0  0  0  0  0  0  0  0  0  0  0
   62.0270   31.5410   51.0470 C   0  0  0  0  0  0  0  0  0  0  0  0
   62.2041   30.4626   50.9221 H   0  0  0  0  0  0  0  0  0  0  0  0
   62.5548   31.9363   51.9275 H   0  0  0  0  0  0  0  0  0  0  0  0
   62.5630   32.2750   49.8110 C   0  0  0  0  0  0  0  0  0  0  0  0
   63.1838   33.1252   50.1300 H   0  0  0  0  0  0  0  0  0  0  0  0
   63.1701   31.5834   49.2084 H   0  0  0  0  0  0  0  0  0  0  0  0
   61.7194   32.6427   49.2084 H   0  0  0  0  0  0  0  0  0  0  0  0
   58.6390   29.4460   53.1350 C   0  0  0  0  0  0  0  0  0  0  0  0
   59.0424   30.4033   53.4968 H   0  0  0  0  0  0  0  0  0  0  0  0
   58.3978   28.7814   53.9777 H   0  0  0  0  0  0  0  0  0  0  0  0
   59.7010   28.7530   52.2580 C   0  0  0  0  0  0  0  0  0  0  0  0
   60.6905   29.1553   52.5209 H   0  0  0  0  0  0  0  0  0  0  0  0
   59.6348   27.6721   52.4508 H   0  0  0  0  0  0  0  0  0  0  0  0
   59.4770   28.9600   50.8180 N   0  0  0  0  0  0  0  0  0  0  0  0
   59.0770   29.9180   50.6760 H   0  0  0  0  0  0  0  0  0  0  0  0
   60.6900   28.8270   49.9950 C   0  0  0  0  0  0  0  0  0  0  0  0
   61.5484   29.2274   50.5544 H   0  0  0  0  0  0  0  0  0  0  0  0
   60.8386   27.7617   49.7648 H   0  0  0  0  0  0  0  0  0  0  0  0
   60.5530   29.5940   48.6730 C   0  0  0  0  0  0  0  0  0  0  0  0
   61.4194   30.2620   48.5583 H   0  0  0  0  0  0  0  0  0  0  0  0
   60.5075   28.8588   47.8561 H   0  0  0  0  0  0  0  0  0  0  0  0
   59.3310   30.3940   48.6300 N   0  0  0  0  0  0  0  0  0  0  0  0
   58.6070   30.2840   49.3760 H   0  0  0  0  0  0  0  0  0  0  0  0
   58.9480   31.0630   47.4180 C   0  0  0  0  0  0  0  0  0  0  0  0
   59.0990   32.4550   47.3080 C   0  0  0  0  0  0  0  0  0  0  0  0
   59.6240   33.2080   48.3820 C   0  0  0  0  0  0  0  0  0  0  0  0
   59.9543   32.6936   49.2965 H   0  0  0  0  0  0  0  0  0  0  0  0
   59.7280   34.5940   48.2960 C   0  0  0  0  0  0  0  0  0  0  0  0
   60.1542   35.1666   49.1329 H   0  0  0  0  0  0  0  0  0  0  0  0
   59.2930   35.2540   47.1520 C   0  0  0  0  0  0  0  0  0  0  0  0
   59.3568   36.3506   47.0945 H   0  0  0  0  0  0  0  0  0  0  0  0
   58.7760   34.5310   46.0770 C   0  0  0  0  0  0  0  0  0  0  0  0
   58.4226   35.0680   45.1844 H   0  0  0  0  0  0  0  0  0  0  0  0
   58.6980   33.1140   46.1150 C   0  0  0  0  0  0  0  0  0  0  0  0
   58.2310   32.3790   45.0400 N   0  0  0  0  0  0  0  0  0  0  0  0
   58.0610   33.0270   43.7190 C   0  0  0  0  0  0  0  0  0  0  0  0
   57.7842   34.0821   43.8611 H   0  0  0  0  0  0  0  0  0  0  0  0
   59.0050   32.9680   43.1574 H   0  0  0  0  0  0  0  0  0  0  0  0
   57.2675   32.5122   43.1574 H   0  0  0  0  0  0  0  0  0  0  0  0
   57.9490   31.0320   45.1900 C   0  0  0  0  0  0  0  0  0  0  0  0
   57.2420   30.2980   44.2000 C   0  0  0  0  0  0  0  0  0  0  0  0
   56.8551   30.8211   43.3131 H   0  0  0  0  0  0  0  0  0  0  0  0
   57.0300   28.9260   44.3330 C   0  0  0  0  0  0  0  0  0  0  0  0
   56.4776   28.3782   43.5553 H   0  0  0  0  0  0  0  0  0  0  0  0
   57.5150   28.2490   45.4460 C   0  0  0  0  0  0  0  0  0  0  0  0
   57.3801   27.1605   45.5289 H   0  0  0  0  0  0  0  0  0  0  0  0
   58.1720   28.9480   46.4570 C   0  0  0  0  0  0  0  0  0  0  0  0
   58.5489   28.4060   47.3369 H   0  0  0  0  0  0  0  0  0  0  0  0
   58.3590   30.3440   46.3640 C   0  0  0  0  0  0  0  0  0  0  0  0
  1  2  1  0
  2  3  2  0
  3  4  1  0
  4  5  1  0
  5  6  1  0
  5  7  1  0
  5  8  1  0
  8  9  1  0
  8 10  1  0
  8 11  1  0
 11 12  1  0
 11 13  1  0
 11 14  1  0
 14 15  1  0
 14 16  1  0
 14 17  1  0
 17 18  1  0
 17 19  1  0
 17 20  1  0
 20 21  1  0
 20 22  1  0
 20 23  1  0
  2 24  1  0
 24 25  1  0
 24 26  1  0
 24 27  1  0
 27 28  1  0
 27 29  1  0
 27 30  1  0
 30 31  1  0
 30 32  1  0
 32 33  1  0
 32 34  1  0
 32 35  1  0
 35 36  1  0
 35 37  1  0
 35 38  1  0
 38 39  1  0
 38 40  1  0
 40 41  2  0
 41 42  1  0
 42 43  1  0
 42 44  2  0
 44 45  1  0
 44 46  1  0
 46 47  1  0
 46 48  2  0
 48 49  1  0
 48 50  1  0
 50 51  2  0
 51 52  1  0
 52 53  1  0
 52 54  1  0
 52 55  1  0
 51 56  1  0
 56 57  2  0
 57 58  1  0
 57 59  1  0
 59 60  1  0
 59 61  2  0
 61 62  1  0
 61 63  1  0
 63 64  1  0
 63 65  2  0
 65 40  1  0
 50 41  1  0
 65 56  1  0
M  CHG  2  14   1  51   1
M  END
>  <UniqueID>  (16) 
16

>  <SMILES>  (16) 
CC[NH2+]CCCO/N=C\CCNCCNc1c2ccccc2[n+](C)c2ccccc12

>  <Energy>  (16) 
82.47763015223879

>  <Genealogy>  (16) 
CC[NH2+]CCCON=CCCNCCNc1c2ccccc2[n+](C)c2ccccc12 (protonated)
CC[NH2+]CCCO/N=C\CCNCCNc1c2ccccc2[n+](C)c2ccccc12 (cis-trans isomerization)
CC[NH2+]CCCO/N=C\CCNCCNc1c2ccccc2[n+](C)c2ccccc12 (3D coordinates assigned)
CC[NH2+]CCCO/N=C\CCNCCNc1c2ccccc2[n+](C)c2ccccc12 (optimized conformer: 82.47763015223879 kcal/mol)

>  <smiles>  (16) 
CCNCCCON=CCCNCCNc1c2ccccc2[n+](C)c2ccccc12

>  <score_type>  (16) 
oracle

>  <origin>  (16) 
adg

>  <m_score__min__energy>  (16) 
-3.3900000000000001

>  <m_primary>  (16) 
energy

$$$$
16:0
     RDKit          3D

 47 48  0  0  0  0  0  0  0  0999 V2000
   57.0300   33.8390   45.6030 C   0  0  0  0  0  0  0  0  0  0  0  0
   57.5250   32.8060   44.5970 C   0  0  0  0  0  0  0  0  0  0  0  0
   56.9550   31.5390   44.8710 O   0  0  0  0  0  0  0  0  0  0  0  0
   56.7430   30.8010   43.6810 C   0  0  0  0  0  0  0  0  0  0  0  0
   55.5190   29.8930   43.8290 C   0  0  0  0  0  0  0  0  0  0  0  0
   55.7180   28.9680   44.8820 O   0  0  0  0  0  0  0  0  0  0  0  0
   57.0080   28.3870   44.8200 C   0  0  0  0  0  0  0  0  0  0  0  0
   57.4880   28.0100   46.2240 C   0  0  0  0  0  0  0  0  0  0  0  0
   58.1420   29.1100   46.8300 O   0  0  0  0  0  0  0  0  0  0  0  0
   59.5410   29.0650   46.6120 C   0  0  0  0  0  0  0  0  0  0  0  0
   60.1250   30.4780   46.5250 C   0  0  0  0  0  0  0  0  0  0  0  0
   59.1060   31.4730   46.8490 N   0  0  0  0  0  0  0  0  0  0  0  0
   59.3410   32.4810   47.8390 C   0  0  0  0  0  0  0  0  0  0  0  0
   59.9220   33.7180   47.6230 C   0  0  0  0  0  0  0  0  0  0  0  0
   60.3990   34.2520   46.3130 C   0  0  0  0  0  0  0  0  0  0  0  0
   59.9780   34.4090   48.7880 N   0  0  0  0  0  0  0  0  0  0  0  0
   59.4350   33.5540   49.6850 C   0  0  0  0  0  0  0  0  0  0  0  0
   59.2910   33.7950   51.0490 C   0  0  0  0  0  0  0  0  0  0  0  0
   58.7420   32.7710   51.8380 C   0  0  0  0  0  0  0  0  0  0  0  0
   58.3680   31.5450   51.2540 C   0  0  0  0  0  0  0  0  0  0  0  0
   58.5380   31.3560   49.8760 C   0  0  0  0  0  0  0  0  0  0  0  0
   59.0470   32.3830   49.1450 N   0  0  0  0  0  0  0  0  0  0  0  0
   57.2067   33.4703   46.6242 H   0  0  0  0  0  0  0  0  0  0  0  0
   57.5730   34.7842   45.4553 H   0  0  0  0  0  0  0  0  0  0  0  0
   55.9531   34.0079   45.4553 H   0  0  0  0  0  0  0  0  0  0  0  0
   57.2382   33.1210   43.5828 H   0  0  0  0  0  0  0  0  0  0  0  0
   58.6197   32.7293   44.6730 H   0  0  0  0  0  0  0  0  0  0  0  0
   56.5787   31.4982   42.8462 H   0  0  0  0  0  0  0  0  0  0  0  0
   57.6282   30.1785   43.4838 H   0  0  0  0  0  0  0  0  0  0  0  0
   54.6347   30.5090   44.0494 H   0  0  0  0  0  0  0  0  0  0  0  0
   55.3683   29.3397   42.8903 H   0  0  0  0  0  0  0  0  0  0  0  0
   56.9693   27.4829   44.1946 H   0  0  0  0  0  0  0  0  0  0  0  0
   57.7084   29.1155   44.3856 H   0  0  0  0  0  0  0  0  0  0  0  0
   56.6227   27.7189   46.8376 H   0  0  0  0  0  0  0  0  0  0  0  0
   58.1946   27.1704   46.1479 H   0  0  0  0  0  0  0  0  0  0  0  0
   60.0185   28.5284   47.4451 H   0  0  0  0  0  0  0  0  0  0  0  0
   59.7326   28.5458   45.6613 H   0  0  0  0  0  0  0  0  0  0  0  0
   60.9593   30.5694   47.2360 H   0  0  0  0  0  0  0  0  0  0  0  0
   60.4805   30.6537   45.4990 H   0  0  0  0  0  0  0  0  0  0  0  0
   58.1120   31.2150   46.6540 H   0  0  0  0  0  0  0  0  0  0  0  0
   61.1224   35.0618   46.4887 H   0  0  0  0  0  0  0  0  0  0  0  0
   60.8829   33.4455   45.7426 H   0  0  0  0  0  0  0  0  0  0  0  0
   59.5432   34.6421   45.7426 H   0  0  0  0  0  0  0  0  0  0  0  0
   59.5966   34.7539   51.4930 H   0  0  0  0  0  0  0  0  0  0  0  0
   58.6033   32.9273   52.9180 H   0  0  0  0  0  0  0  0  0  0  0  0
   57.9455   30.7416   51.8753 H   0  0  0  0  0  0  0  0  0  0  0  0
   58.2670   30.4027   49.3988 H   0  0  0  0  0  0  0  0  0  0  0  0
  1  2  1  0
  2  3  1  0
  3  4  1  0
  4  5  1  0
  5  6  1  0
  6  7  1  0
  7  8  1  0
  8  9  1  0
  9 10  1  0
 10 11  1  0
 11 12  1  0
 12 13  1  0
 13 14  2  0
 14 15  1  0
 14 16  1  0
 16 17  2  0
 17 18  1  0
 18 19  2  0
 19 20  1  0
 20 21  2  0
 21 22  1  0
 22 13  1  0
 22 17  1  0
  1 23  1  0
  1 24  1  0
  1 25  1  0
  2 26  1  0
  2 27  1  0
  4 28  1  0
  4 29  1  0
  5 30  1  0
  5 31  1  0
  7 32  1  0
  7 33  1  0
  8 34  1  0
  8 35  1  0
 10 36  1  0
 10 37  1  0
 11 38  1  0
 11 39  1  0
 12 40  1  0
 15 41  1  0
 15 42  1  0
 15 43  1  0
 18 44  1  0
 19 45  1  0
 20 46  1  0
 21 47  1  0
M  END
>  <UniqueID>  (17) 
17

>  <SMILES>  (17) 
CCOCCOCCOCCNc1c(C)nc2ccccn12

>  <Energy>  (17) 
85.38636858955849

>  <Genealogy>  (17) 
CCOCCOCCOCCNc1c(C)nc2ccccn12 (3D coordinates assigned)
CCOCCOCCOCCNc1c(C)nc2ccccn12 (optimized conformer: 85.38636858955849 kcal/mol)

>  <smiles>  (17) 
CCOCCOCCOCCNc1c(C)nc2ccccn12

>  <score_type>  (17) 
oracle

>  <origin>  (17) 
adg

>  <m_score__min__energy>  (17) 
-6.3200000000000003

>  <m_primary>  (17) 
energy

$$$$
17:0
     RDKit          3D

 61 63  0  0  0  0  0  0  0  0999 V2000
   63.3130   33.8370   46.2590 C   0  0  0  0  0  0  0  0  0  0  0  0
   63.2000   34.0210   47.7680 C   0  0  0  0  0  0  0  0  0  0  0  0
   63.0530   32.7030   48.4220 N   0  0  0  0  0  0  0  0  0  0  0  0
   63.3970   31.5860   47.5280 C   0  0  0  0  0  0  0  0  0  0  0  0
   63.6900   32.6220   49.7600 C   0  0  0  0  0  0  0  0  0  0  0  0
   63.2690   33.7210   50.7630 C   0  0  0  0  0  0  0  0  0  0  0  0
   61.8700   33.9340   50.7510 O   0  0  0  0  0  0  0  0  0  0  0  0
   61.2430   33.1820   51.7710 C   0  0  0  0  0  0  0  0  0  0  0  0
   59.7620   32.9880   51.4270 C   0  0  0  0  0  0  0  0  0  0  0  0
   59.4560   33.2760   49.9490 C   0  0  0  0  0  0  0  0  0  0  0  0
   60.5210   32.8170   49.0250 N   0  0  0  0  0  0  0  0  0  0  0  0
   59.9980   31.9700   47.9550 C   0  0  0  0  0  0  0  0  0  0  0  0
   59.3370   32.6020   46.8530 C   0  0  0  0  0  0  0  0  0  0  0  0
   59.1710   34.0140   46.7830 C   0  0  0  0  0  0  0  0  0  0  0  0
   58.4910   34.6150   45.7290 C   0  0  0  0  0  0  0  0  0  0  0  0
   57.9480   33.8390   44.7200 C   0  0  0  0  0  0  0  0  0  0  0  0
   58.1090   32.4580   44.7440 C   0  0  0  0  0  0  0  0  0  0  0  0
   58.8320   31.8180   45.7850 C   0  0  0  0  0  0  0  0  0  0  0  0
   59.0260   30.4590   45.7740 N   0  0  0  0  0  0  0  0  0  0  0  0
   58.8170   29.6960   44.5200 C   0  0  0  0  0  0  0  0  0  0  0  0
   59.4380   29.8060   46.9150 C   0  0  0  0  0  0  0  0  0  0  0  0
   59.2530   28.4090   47.0270 C   0  0  0  0  0  0  0  0  0  0  0  0
   59.7290   27.7020   48.1120 C   0  0  0  0  0  0  0  0  0  0  0  0
   60.4270   28.3540   49.1060 C   0  0  0  0  0  0  0  0  0  0  0  0
   60.6150   29.7490   49.0730 C   0  0  0  0  0  0  0  0  0  0  0  0
   61.3970   30.3360   50.0810 O   0  0  0  0  0  0  0  0  0  0  0  0
   62.0790   29.6340   51.1200 C   0  0  0  0  0  0  0  0  0  0  0  0
   60.0350   30.5260   48.0030 C   0  0  0  0  0  0  0  0  0  0  0  0
   63.8774   32.9179   46.0429 H   0  0  0  0  0  0  0  0  0  0  0  0
   62.3062   33.7601   45.8226 H   0  0  0  0  0  0  0  0  0  0  0  0
   63.8369   34.7002   45.8226 H   0  0  0  0  0  0  0  0  0  0  0  0
   64.1068   34.5168   48.1447 H   0  0  0  0  0  0  0  0  0  0  0  0
   62.3191   34.6398   47.9942 H   0  0  0  0  0  0  0  0  0  0  0  0
   63.6682   30.7055   48.1290 H   0  0  0  0  0  0  0  0  0  0  0  0
   62.5316   31.3444   46.8934 H   0  0  0  0  0  0  0  0  0  0  0  0
   64.2484   31.8731   46.8934 H   0  0  0  0  0  0  0  0  0  0  0  0
   63.4346   31.6462   50.1989 H   0  0  0  0  0  0  0  0  0  0  0  0
   64.7679   32.7626   49.5914 H   0  0  0  0  0  0  0  0  0  0  0  0
   63.5742   33.4158   51.7748 H   0  0  0  0  0  0  0  0  0  0  0  0
   63.7608   34.6599   50.4686 H   0  0  0  0  0  0  0  0  0  0  0  0
   61.7314   32.2000   51.8553 H   0  0  0  0  0  0  0  0  0  0  0  0
   61.3297   33.7183   52.7275 H   0  0  0  0  0  0  0  0  0  0  0  0
   59.4823   31.9475   51.6484 H   0  0  0  0  0  0  0  0  0  0  0  0
   59.1832   33.7013   52.0322 H   0  0  0  0  0  0  0  0  0  0  0  0
   58.5190   32.7657   49.6814 H   0  0  0  0  0  0  0  0  0  0  0  0
   59.3815   34.3681   49.8405 H   0  0  0  0  0  0  0  0  0  0  0  0
   61.2220   32.2650   49.5680 H   0  0  0  0  0  0  0  0  0  0  0  0
   61.1270   33.5940   48.7130 H   0  0  0  0  0  0  0  0  0  0  0  0
   59.5902   34.6445   47.5810 H   0  0  0  0  0  0  0  0  0  0  0  0
   58.3846   35.7094   45.6974 H   0  0  0  0  0  0  0  0  0  0  0  0
   57.3897   34.3141   43.8999 H   0  0  0  0  0  0  0  0  0  0  0  0
   57.6677   31.8496   43.9409 H   0  0  0  0  0  0  0  0  0  0  0  0
   58.5336   28.6613   44.7632 H   0  0  0  0  0  0  0  0  0  0  0  0
   58.0149   30.1676   43.9332 H   0  0  0  0  0  0  0  0  0  0  0  0
   59.7474   29.6930   43.9332 H   0  0  0  0  0  0  0  0  0  0  0  0
   58.7168   27.8728   46.2301 H   0  0  0  0  0  0  0  0  0  0  0  0
   59.5516   26.6188   48.1838 H   0  0  0  0  0  0  0  0  0  0  0  0
   60.8452   27.7731   49.9412 H   0  0  0  0  0  0  0  0  0  0  0  0
   61.7282   29.9951   52.0980 H   0  0  0  0  0  0  0  0  0  0  0  0
   61.8730   28.5571   51.0313 H   0  0  0  0  0  0  0  0  0  0  0  0
   63.1614   29.8088   51.0313 H   0  0  0  0  0  0  0  0  0  0  0  0
  1  2  1  0
  2  3  1  0
  3  4  1  0
  3  5  1  0
  5  6  1  0
  6  7  1  0
  7  8  1  0
  8  9  1  0
  9 10  1  0
 10 11  1  0
 11 12  1  0
 12 13  2  0
 13 14  1  0
 14 15  2  0
 15 16  1  0
 16 17  2  0
 17 18  1  0
 18 19  2  0
 19 20  1  0
 19 21  1  0
 21 22  2  0
 22 23  1  0
 23 24  2  0
 24 25  1  0
 25 26  1  0
 26 27  1  0
 25 28  2  0
 28 12  1  0
 18 13  1  0
 28 21  1  0
  1 29  1  0
  1 30  1  0
  1 31  1  0
  2 32  1  0
  2 33  1  0
  4 34  1  0
  4 35  1  0
  4 36  1  0
  5 37  1  0
  5 38  1  0
  6 39  1  0
  6 40  1  0
  8 41  1  0
  8 42  1  0
  9 43  1  0
  9 44  1  0
 10 45  1  0
 10 46  1  0
 11 47  1  0
 11 48  1  0
 14 49  1  0
 15 50  1  0
 16 51  1  0
 17 52  1  0
 20 53  1  0
 20 54  1  0
 20 55  1  0
 22 56  1  0
 23 57  1  0
 24 58  1  0
 27 59  1  0
 27 60  1  0
 27 61  1  0
M  CHG  2  11   1  19   1
M  END
>  <UniqueID>  (18) 
18

>  <SMILES>  (18) 
CCN(C)CCOCCC[NH2+]c1c2ccccc2[n+](C)c2cccc(OC)c12

>  <Energy>  (18) 
105.475968791948

>  <Genealogy>  (18) 
CCN(C)CCOCCC[NH2+]c1c2ccccc2[n+](C)c2cccc(OC)c12 (protonated)
CCN(C)CCOCCC[NH2+]c1c2ccccc2[n+](C)c2cccc(OC)c12 (3D coordinates assigned)
CCN(C)CCOCCC[NH2+]c1c2ccccc2[n+](C)c2cccc(OC)c12 (optimized conformer: 105.475968791948 kcal/mol)

>  <smiles>  (18) 
CCN(C)CCOCCCNc1c2ccccc2[n+](C)c2cccc(OC)c12

>  <score_type>  (18) 
oracle

>  <origin>  (18) 
adg

>  <m_score__min__energy>  (18) 
-3.75

>  <m_primary>  (18) 
energy

$$$$
18:0
     RDKit          3D

 37 38  0  0  0  0  0  0  0  0999 V2000
   57.8200   32.0050   42.5720 C   0  0  0  0  0  0  0  0  0  0  0  0
   57.6740   30.8960   43.6090 C   0  0  0  0  0  0  0  0  0  0  0  0
   57.0780   31.3950   44.8060 O   0  0  0  0  0  0  0  0  0  0  0  0
   57.7680   31.9100   45.9200 C   0  0  0  0  0  0  0  0  0  0  0  0
   58.4160   31.0790   46.8520 C   0  0  0  0  0  0  0  0  0  0  0  0
   59.0960   31.6220   47.9540 C   0  0  0  0  0  0  0  0  0  0  0  0
   59.7580   30.6910   48.9360 C   0  0  0  0  0  0  0  0  0  0  0  0
   59.1450   33.0240   48.1260 C   0  0  0  0  0  0  0  0  0  0  0  0
   59.8580   33.6030   49.2420 N   0  0  0  0  0  0  0  0  0  0  0  0
   60.9290   34.5900   49.1040 C   0  0  0  0  0  0  0  0  0  0  0  0
   62.1090   33.9870   48.4080 C   0  0  0  0  0  0  0  0  0  0  0  0
   63.2180   33.4180   49.0220 C   0  0  0  0  0  0  0  0  0  0  0  0
   64.1450   32.9000   48.1100 C   0  0  0  0  0  0  0  0  0  0  0  0
   63.7690   33.0560   46.7820 C   0  0  0  0  0  0  0  0  0  0  0  0
   62.2790   33.8380   46.7420 S   0  0  0  0  0  0  0  0  0  0  0  0
   58.4940   33.8490   47.1920 C   0  0  0  0  0  0  0  0  0  0  0  0
   57.7980   33.3030   46.1040 C   0  0  0  0  0  0  0  0  0  0  0  0
   57.1200   34.2110   45.1150 C   0  0  0  0  0  0  0  0  0  0  0  0
   57.9471   32.9706   43.0833 H   0  0  0  0  0  0  0  0  0  0  0  0
   58.6995   31.8048   41.9424 H   0  0  0  0  0  0  0  0  0  0  0  0
   56.9186   32.0393   41.9424 H   0  0  0  0  0  0  0  0  0  0  0  0
   57.0396   30.0978   43.1962 H   0  0  0  0  0  0  0  0  0  0  0  0
   58.6737   30.5054   43.8499 H   0  0  0  0  0  0  0  0  0  0  0  0
   58.3896   29.9878   46.7154 H   0  0  0  0  0  0  0  0  0  0  0  0
   59.5274   31.0154   49.9615 H   0  0  0  0  0  0  0  0  0  0  0  0
   59.3831   29.6684   48.7818 H   0  0  0  0  0  0  0  0  0  0  0  0
   60.8470   30.7094   48.7818 H   0  0  0  0  0  0  0  0  0  0  0  0
   59.5660   33.3670   50.2170 H   0  0  0  0  0  0  0  0  0  0  0  0
   60.5606   35.4448   48.5179 H   0  0  0  0  0  0  0  0  0  0  0  0
   61.2380   34.9231   50.1058 H   0  0  0  0  0  0  0  0  0  0  0  0
   63.3536   33.3786   50.1129 H   0  0  0  0  0  0  0  0  0  0  0  0
   65.0835   32.4148   48.4164 H   0  0  0  0  0  0  0  0  0  0  0  0
   64.3463   32.7250   45.9061 H   0  0  0  0  0  0  0  0  0  0  0  0
   58.5313   34.9413   47.3169 H   0  0  0  0  0  0  0  0  0  0  0  0
   56.5467   34.9788   45.6553 H   0  0  0  0  0  0  0  0  0  0  0  0
   57.8784   34.6965   44.4832 H   0  0  0  0  0  0  0  0  0  0  0  0
   56.4391   33.6218   44.4832 H   0  0  0  0  0  0  0  0  0  0  0  0
  1  2  1  0
  2  3  1  0
  3  4  1  0
  4  5  2  0
  5  6  1  0
  6  7  1  0
  6  8  2  0
  8  9  1  0
  9 10  1  0
 10 11  1  0
 11 12  2  0
 12 13  1  0
 13 14  2  0
 14 15  1  0
  8 16  1  0
 16 17  2  0
 17 18  1  0
 17  4  1  0
 15 11  1  0
  1 19  1  0
  1 20  1  0
  1 21  1  0
  2 22  1  0
  2 23  1  0
  5 24  1  0
  7 25  1  0
  7 26  1  0
  7 27  1  0
  9 28  1  0
 10 29  1  0
 10 30  1  0
 12 31  1  0
 13 32  1  0
 14 33  1  0
 16 34  1  0
 18 35  1  0
 18 36  1  0
 18 37  1  0
M  END
>  <UniqueID>  (19) 
19

>  <SMILES>  (19) 
CCOc1cc(C)c(NCc2cccs2)cc1C

>  <Energy>  (19) 
60.06595617310442

>  <Genealogy>  (19) 
CCOc1cc(C)c(NCc2cccs2)cc1C (3D coordinates assigned)
CCOc1cc(C)c(NCc2cccs2)cc1C (optimized conformer: 60.06595617310442 kcal/mol)

>  <smiles>  (19) 
CCOc1cc(C)c(NCc2cccs2)cc1C

>  <score_type>  (19) 
oracle

>  <origin>  (19) 
adg

>  <m_score__min__energy>  (19) 
-6.2199999999999998

>  <m_primary>  (19) 
energy

$$$$
19:0
     RDKit          3D

 58 60  0  0  0  0  0  0  0  0999 V2000
   57.0670   33.4910   46.5080 C   0  0  0  0  0  0  0  0  0  0  0  0
   58.4840   33.3970   46.1330 N   0  0  0  0  0  0  0  0  0  0  0  0
   59.1930   34.6650   46.3740 C   0  0  0  0  0  0  0  0  0  0  0  0
   58.6920   32.8660   44.7670 C   0  0  0  0  0  0  0  0  0  0  0  0
   57.4130   32.3390   44.0660 C   0  0  0  0  0  0  0  0  0  0  0  0
   57.2460   30.8180   44.2100 C   0  0  0  0  0  0  0  0  0  0  0  0
   58.5630   30.1690   44.2820 N   0  0  0  0  0  0  0  0  0  0  0  0
   58.6070   29.1370   45.3300 C   0  0  0  0  0  0  0  0  0  0  0  0
   59.8720   29.2920   46.1840 C   0  0  0  0  0  0  0  0  0  0  0  0
   59.5760   29.9340   47.5580 C   0  0  0  0  0  0  0  0  0  0  0  0
   59.4540   31.4040   47.4650 N   0  0  0  0  0  0  0  0  0  0  0  0
   60.1570   32.0490   48.5700 C   0  0  0  0  0  0  0  0  0  0  0  0
   59.5550   32.1970   49.8570 C   0  0  0  0  0  0  0  0  0  0  0  0
   58.1640   32.0070   50.0850 C   0  0  0  0  0  0  0  0  0  0  0  0
   57.6010   32.2150   51.3400 C   0  0  0  0  0  0  0  0  0  0  0  0
   58.3910   32.6160   52.4040 C   0  0  0  0  0  0  0  0  0  0  0  0
   59.7570   32.8030   52.2230 C   0  0  0  0  0  0  0  0  0  0  0  0
   60.3710   32.5800   50.9620 C   0  0  0  0  0  0  0  0  0  0  0  0
   61.7300   32.7490   50.8020 N   0  0  0  0  0  0  0  0  0  0  0  0
   62.6170   32.7880   51.9860 C   0  0  0  0  0  0  0  0  0  0  0  0
   62.2640   32.8670   49.5370 C   0  0  0  0  0  0  0  0  0  0  0  0
   63.5760   33.3690   49.3410 C   0  0  0  0  0  0  0  0  0  0  0  0
   64.1380   33.4370   48.0700 C   0  0  0  0  0  0  0  0  0  0  0  0
   63.4110   33.0230   46.9650 C   0  0  0  0  0  0  0  0  0  0  0  0
   62.1070   32.5600   47.1190 C   0  0  0  0  0  0  0  0  0  0  0  0
   61.5000   32.4880   48.4000 C   0  0  0  0  0  0  0  0  0  0  0  0
   56.9775   33.4969   47.6043 H   0  0  0  0  0  0  0  0  0  0  0  0
   56.6406   34.4194   46.1003 H   0  0  0  0  0  0  0  0  0  0  0  0
   56.5217   32.6271   46.1003 H   0  0  0  0  0  0  0  0  0  0  0  0
   59.2867   34.8326   47.4571 H   0  0  0  0  0  0  0  0  0  0  0  0
   60.1949   34.6165   45.9225 H   0  0  0  0  0  0  0  0  0  0  0  0
   58.6270   35.4931   45.9225 H   0  0  0  0  0  0  0  0  0  0  0  0
   59.1126   33.6722   44.1480 H   0  0  0  0  0  0  0  0  0  0  0  0
   59.3629   32.0007   44.8728 H   0  0  0  0  0  0  0  0  0  0  0  0
   56.5374   32.8336   44.5117 H   0  0  0  0  0  0  0  0  0  0  0  0
   57.5032   32.5648   42.9932 H   0  0  0  0  0  0  0  0  0  0  0  0
   56.6821   30.5994   45.1288 H   0  0  0  0  0  0  0  0  0  0  0  0
   56.7019   30.4315   43.3356 H   0  0  0  0  0  0  0  0  0  0  0  0
   58.7520   29.7020   43.3640 H   0  0  0  0  0  0  0  0  0  0  0  0
   57.7209   29.2371   45.9741 H   0  0  0  0  0  0  0  0  0  0  0  0
   58.6190   28.1459   44.8530 H   0  0  0  0  0  0  0  0  0  0  0  0
   60.3138   28.2977   46.3458 H   0  0  0  0  0  0  0  0  0  0  0  0
   60.5637   29.9555   45.6442 H   0  0  0  0  0  0  0  0  0  0  0  0
   58.6327   29.5228   47.9468 H   0  0  0  0  0  0  0  0  0  0  0  0
   60.4160   29.7036   48.2298 H   0  0  0  0  0  0  0  0  0  0  0  0
   58.4520   31.6580   47.4160 H   0  0  0  0  0  0  0  0  0  0  0  0
   59.8250   31.7390   46.5470 H   0  0  0  0  0  0  0  0  0  0  0  0
   57.5201   31.6890   49.2518 H   0  0  0  0  0  0  0  0  0  0  0  0
   56.5221   32.0600   51.4879 H   0  0  0  0  0  0  0  0  0  0  0  0
   57.9383   32.7866   53.3919 H   0  0  0  0  0  0  0  0  0  0  0  0
   60.3739   33.1300   53.0730 H   0  0  0  0  0  0  0  0  0  0  0  0
   62.0078   32.7612   52.9015 H   0  0  0  0  0  0  0  0  0  0  0  0
   63.2907   31.9186   51.9683 H   0  0  0  0  0  0  0  0  0  0  0  0
   63.2118   33.7132   51.9683 H   0  0  0  0  0  0  0  0  0  0  0  0
   64.1593   33.7105   50.2089 H   0  0  0  0  0  0  0  0  0  0  0  0
   65.1612   33.8200   47.9419 H   0  0  0  0  0  0  0  0  0  0  0  0
   63.8653   33.0603   45.9639 H   0  0  0  0  0  0  0  0  0  0  0  0
   61.5373   32.2445   46.2325 H   0  0  0  0  0  0  0  0  0  0  0  0
  1  2  1  0
  2  3  1  0
  2  4  1  0
  4  5  1  0
  5  6  1  0
  6  7  1  0
  7  8  1  0
  8  9  1  0
  9 10  1  0
 10 11  1  0
 11 12  1  0
 12 13  2  0
 13 14  1  0
 14 15  2  0
 15 16  1  0
 16 17  2  0
 17 18  1  0
 18 19  2  0
 19 20  1  0
 19 21  1  0
 21 22  2  0
 22 23  1  0
 23 24  2  0
 24 25  1  0
 25 26  2  0
 26 12  1  0
 18 13  1  0
 26 21  1  0
  1 27  1  0
  1 28  1  0
  1 29  1  0
  3 30  1  0
  3 31  1  0
  3 32  1  0
  4 33  1  0
  4 34  1  0
  5 35  1  0
  5 36  1  0
  6 37  1  0
  6 38  1  0
  7 39  1  0
  8 40  1  0
  8 41  1  0
  9 42  1  0
  9 43  1  0
 10 44  1  0
 10 45  1  0
 11 46  1  0
 11 47  1  0
 14 48  1  0
 15 49  1  0
 16 50  1  0
 17 51  1  0
 20 52  1  0
 20 53  1  0
 20 54  1  0
 22 55  1  0
 23 56  1  0
 24 57  1  0
 25 58  1  0
M  CHG  2  11   1  19   1
M  END
>  <UniqueID>  (20) 
20

>  <SMILES>  (20) 
CN(C)CCCNCCC[NH2+]c1c2ccccc2[n+](C)c2ccccc12

>  <Energy>  (20) 
88.7685240578051

>  <Genealogy>  (20) 
CN(C)CCCNCCC[NH2+]c1c2ccccc2[n+](C)c2ccccc12 (protonated)
CN(C)CCCNCCC[NH2+]c1c2ccccc2[n+](C)c2ccccc12 (3D coordinates assigned)
CN(C)CCCNCCC[NH2+]c1c2ccccc2[n+](C)c2ccccc12 (optimized conformer: 88.7685240578051 kcal/mol)

>  <smiles>  (20) 
CN(C)CCCNCCCNc1c2ccccc2[n+](C)c2ccccc12

>  <score_type>  (20) 
oracle

>  <origin>  (20) 
adg

>  <m_score__min__energy>  (20) 
-3.4500000000000002

>  <m_primary>  (20) 
energy

$$$$
20:0
     RDKit          3D

 53 55  0  0  0  0  0  0  0  0999 V2000
   63.3740   34.1320   45.9990 C   0  0  0  0  0  0  0  0  0  0  0  0
   63.6170   33.6920   47.0950 C   0  0  0  0  0  0  0  0  0  0  0  0
   63.9150   33.1550   48.4250 C   0  0  0  0  0  0  0  0  0  0  0  0
   63.6500   31.7120   48.4450 N   0  0  0  0  0  0  0  0  0  0  0  0
   63.2880   31.2430   49.7950 C   0  0  0  0  0  0  0  0  0  0  0  0
   62.4520   32.3030   50.5230 C   0  0  0  0  0  0  0  0  0  0  0  0
   60.9710   32.2330   50.1350 C   0  0  0  0  0  0  0  0  0  0  0  0
   60.6900   31.0530   49.1930 C   0  0  0  0  0  0  0  0  0  0  0  0
   61.1610   31.3050   47.8160 N   0  0  0  0  0  0  0  0  0  0  0  0
   60.0980   31.1800   46.8270 C   0  0  0  0  0  0  0  0  0  0  0  0
   59.6170   29.8970   46.4550 C   0  0  0  0  0  0  0  0  0  0  0  0
   58.6120   29.7810   45.4740 C   0  0  0  0  0  0  0  0  0  0  0  0
   58.1780   30.8840   44.7770 N   0  0  0  0  0  0  0  0  0  0  0  0
   57.3960   30.7000   43.5360 C   0  0  0  0  0  0  0  0  0  0  0  0
   58.4920   32.1490   45.2300 C   0  0  0  0  0  0  0  0  0  0  0  0
   57.8180   33.2920   44.7280 C   0  0  0  0  0  0  0  0  0  0  0  0
   58.1550   34.5730   45.1510 C   0  0  0  0  0  0  0  0  0  0  0  0
   59.1590   34.7520   46.0890 C   0  0  0  0  0  0  0  0  0  0  0  0
   59.8160   33.6510   46.6300 C   0  0  0  0  0  0  0  0  0  0  0  0
   59.4850   32.3270   46.2390 C   0  0  0  0  0  0  0  0  0  0  0  0
   57.9990   28.3990   45.2870 C   0  0  0  0  0  0  0  0  0  0  0  0
   59.0940   27.3460   45.0760 C   0  0  0  0  0  0  0  0  0  0  0  0
   60.2980   27.5090   46.0340 C   0  0  0  0  0  0  0  0  0  0  0  0
   60.0930   28.5990   47.0990 C   0  0  0  0  0  0  0  0  0  0  0  0
   63.1523   34.5334   44.9991 H   0  0  0  0  0  0  0  0  0  0  0  0
   64.9734   33.3360   48.6640 H   0  0  0  0  0  0  0  0  0  0  0  0
   63.2782   33.6533   49.1708 H   0  0  0  0  0  0  0  0  0  0  0  0
   64.5270   31.2210   48.1470 H   0  0  0  0  0  0  0  0  0  0  0  0
   62.7035   30.3149   49.7116 H   0  0  0  0  0  0  0  0  0  0  0  0
   64.2090   31.0596   50.3679 H   0  0  0  0  0  0  0  0  0  0  0  0
   62.5428   32.1434   51.6076 H   0  0  0  0  0  0  0  0  0  0  0  0
   62.8325   33.2935   50.2330 H   0  0  0  0  0  0  0  0  0  0  0  0
   60.3680   32.1134   51.0472 H   0  0  0  0  0  0  0  0  0  0  0  0
   60.7079   33.1632   49.6102 H   0  0  0  0  0  0  0  0  0  0  0  0
   61.2012   30.1605   49.5831 H   0  0  0  0  0  0  0  0  0  0  0  0
   59.6002   30.9091   49.1528 H   0  0  0  0  0  0  0  0  0  0  0  0
   61.6570   32.2210   47.7700 H   0  0  0  0  0  0  0  0  0  0  0  0
   61.9280   30.6360   47.5880 H   0  0  0  0  0  0  0  0  0  0  0  0
   56.3546   30.4550   43.7918 H   0  0  0  0  0  0  0  0  0  0  0  0
   57.4201   31.6283   42.9464 H   0  0  0  0  0  0  0  0  0  0  0  0
   57.8315   29.8798   42.9464 H   0  0  0  0  0  0  0  0  0  0  0  0
   57.0130   33.1623   43.9896 H   0  0  0  0  0  0  0  0  0  0  0  0
   57.6242   35.4448   44.7407 H   0  0  0  0  0  0  0  0  0  0  0  0
   59.4376   35.7675   46.4070 H   0  0  0  0  0  0  0  0  0  0  0  0
   60.6084   33.8099   47.3762 H   0  0  0  0  0  0  0  0  0  0  0  0
   57.4149   28.1386   46.1820 H   0  0  0  0  0  0  0  0  0  0  0  0
   57.3489   28.4168   44.3998 H   0  0  0  0  0  0  0  0  0  0  0  0
   58.6548   26.3500   45.2347 H   0  0  0  0  0  0  0  0  0  0  0  0
   59.4747   27.4750   44.0521 H   0  0  0  0  0  0  0  0  0  0  0  0
   60.4678   26.5502   46.5457 H   0  0  0  0  0  0  0  0  0  0  0  0
   61.1592   27.8140   45.4214 H   0  0  0  0  0  0  0  0  0  0  0  0
   59.3398   28.2582   47.8246 H   0  0  0  0  0  0  0  0  0  0  0  0
   61.0520   28.7852   47.6046 H   0  0  0  0  0  0  0  0  0  0  0  0
  1  2  3  0
  2  3  1  0
  3  4  1  0
  4  5  1  0
  5  6  1  0
  6  7  1  0
  7  8  1  0
  8  9  1  0
  9 10  1  0
 10 11  2  0
 11 12  1  0
 12 13  2  0
 13 14  1  0
 13 15  1  0
 15 16  2  0
 16 17  1  0
 17 18  2  0
 18 19  1  0
 19 20  2  0
 12 21  1  0
 21 22  1  0
 22 23  1  0
 23 24  1  0
 20 10  1  0
 24 11  1  0
 20 15  1  0
  1 25  1  0
  3 26  1  0
  3 27  1  0
  4 28  1  0
  5 29  1  0
  5 30  1  0
  6 31  1  0
  6 32  1  0
  7 33  1  0
  7 34  1  0
  8 35  1  0
  8 36  1  0
  9 37  1  0
  9 38  1  0
 14 39  1  0
 14 40  1  0
 14 41  1  0
 16 42  1  0
 17 43  1  0
 18 44  1  0
 19 45  1  0
 21 46  1  0
 21 47  1  0
 22 48  1  0
 22 49  1  0
 23 50  1  0
 23 51  1  0
 24 52  1  0
 24 53  1  0
M  CHG  2   9   1  13   1
M  END
>  <UniqueID>  (21) 
21

>  <SMILES>  (21) 
C#CCNCCCC[NH2+]c1c2c([n+](C)c3ccccc13)CCCC2

>  <Energy>  (21) 
75.46925777548613

>  <Genealogy>  (21) 
C#CCNCCCC[NH2+]c1c2c([n+](C)c3ccccc13)CCCC2 (protonated)
C#CCNCCCC[NH2+]c1c2c([n+](C)c3ccccc13)CCCC2 (3D coordinates assigned)
C#CCNCCCC[NH2+]c1c2c([n+](C)c3ccccc13)CCCC2 (nonaromatic ring conformer: 75.46925777548613 kcal/mol)

>  <smiles>  (21) 
C#CCNCCCCNc1c2c([n+](C)c3ccccc13)CCCC2

>  <score_type>  (21) 
oracle

>  <origin>  (21) 
adg

>  <m_score__min__energy>  (21) 
-4.4400000000000004

>  <m_primary>  (21) 
energy

$$$$
21:0
     RDKit          3D

 57 59  0  0  0  0  0  0  0  0999 V2000
   63.3300   33.7340   47.0360 C   0  0  0  0  0  0  0  0  0  0  0  0
   63.4330   32.2170   47.1230 C   0  0  0  0  0  0  0  0  0  0  0  0
   62.9090   31.7670   48.3580 O   0  0  0  0  0  0  0  0  0  0  0  0
   63.7860   32.0960   49.4170 C   0  0  0  0  0  0  0  0  0  0  0  0
   63.3700   31.3440   50.6750 C   0  0  0  0  0  0  0  0  0  0  0  0
   62.3160   30.4570   50.3640 O   0  0  0  0  0  0  0  0  0  0  0  0
   61.5190   30.2430   51.5110 C   0  0  0  0  0  0  0  0  0  0  0  0
   60.0310   30.4190   51.1750 C   0  0  0  0  0  0  0  0  0  0  0  0
   59.6590   30.1520   49.7010 C   0  0  0  0  0  0  0  0  0  0  0  0
   60.5090   30.8440   48.7030 N   0  0  0  0  0  0  0  0  0  0  0  0
   59.8380   31.0860   47.4280 C   0  0  0  0  0  0  0  0  0  0  0  0
   59.5880   29.9770   46.5590 C   0  0  0  0  0  0  0  0  0  0  0  0
   60.0060   28.6560   46.8790 C   0  0  0  0  0  0  0  0  0  0  0  0
   59.7480   27.5840   46.0300 C   0  0  0  0  0  0  0  0  0  0  0  0
   59.0950   27.7930   44.8270 C   0  0  0  0  0  0  0  0  0  0  0  0
   58.6890   29.0740   44.4700 C   0  0  0  0  0  0  0  0  0  0  0  0
   58.9050   30.1830   45.3290 C   0  0  0  0  0  0  0  0  0  0  0  0
   58.4890   31.4420   44.9720 N   0  0  0  0  0  0  0  0  0  0  0  0
   57.5080   31.6110   43.8750 C   0  0  0  0  0  0  0  0  0  0  0  0
   58.9640   32.5430   45.6460 C   0  0  0  0  0  0  0  0  0  0  0  0
   58.8920   33.8210   45.0460 C   0  0  0  0  0  0  0  0  0  0  0  0
   59.2620   34.9610   45.7340 C   0  0  0  0  0  0  0  0  0  0  0  0
   59.6600   34.8710   47.0520 C   0  0  0  0  0  0  0  0  0  0  0  0
   59.7620   33.6250   47.6960 C   0  0  0  0  0  0  0  0  0  0  0  0
   60.0200   33.5970   49.0750 O   0  0  0  0  0  0  0  0  0  0  0  0
   61.1430   34.1840   49.7260 C   0  0  0  0  0  0  0  0  0  0  0  0
   59.5380   32.4130   46.9500 C   0  0  0  0  0  0  0  0  0  0  0  0
   63.3012   34.1583   48.0505 H   0  0  0  0  0  0  0  0  0  0  0  0
   64.2033   34.1305   46.4974 H   0  0  0  0  0  0  0  0  0  0  0  0
   62.4111   34.0088   46.4974 H   0  0  0  0  0  0  0  0  0  0  0  0
   62.8620   31.7651   46.2986 H   0  0  0  0  0  0  0  0  0  0  0  0
   64.4901   31.9218   47.0499 H   0  0  0  0  0  0  0  0  0  0  0  0
   64.8131   31.8127   49.1436 H   0  0  0  0  0  0  0  0  0  0  0  0
   63.7415   33.1787   49.6062 H   0  0  0  0  0  0  0  0  0  0  0  0
   64.2273   30.7739   51.0622 H   0  0  0  0  0  0  0  0  0  0  0  0
   63.0335   32.0616   51.4378 H   0  0  0  0  0  0  0  0  0  0  0  0
   61.6874   29.2216   51.8829 H   0  0  0  0  0  0  0  0  0  0  0  0
   61.7986   30.9785   52.2797 H   0  0  0  0  0  0  0  0  0  0  0  0
   59.4547   29.7242   51.8036 H   0  0  0  0  0  0  0  0  0  0  0  0
   59.7961   31.4768   51.3645 H   0  0  0  0  0  0  0  0  0  0  0  0
   59.7347   29.0695   49.5211 H   0  0  0  0  0  0  0  0  0  0  0  0
   58.6420   30.5485   49.5649 H   0  0  0  0  0  0  0  0  0  0  0  0
   60.9740   31.6660   49.1240 H   0  0  0  0  0  0  0  0  0  0  0  0
   61.3460   30.2480   48.5190 H   0  0  0  0  0  0  0  0  0  0  0  0
   60.5463   28.4772   47.8203 H   0  0  0  0  0  0  0  0  0  0  0  0
   60.0632   26.5694   46.3149 H   0  0  0  0  0  0  0  0  0  0  0  0
   58.8975   26.9457   44.1539 H   0  0  0  0  0  0  0  0  0  0  0  0
   58.1903   29.2311   43.5022 H   0  0  0  0  0  0  0  0  0  0  0  0
   56.5083   31.7832   44.3004 H   0  0  0  0  0  0  0  0  0  0  0  0
   57.7961   32.4727   43.2550 H   0  0  0  0  0  0  0  0  0  0  0  0
   57.4911   30.7025   43.2550 H   0  0  0  0  0  0  0  0  0  0  0  0
   58.5339   33.9099   44.0097 H   0  0  0  0  0  0  0  0  0  0  0  0
   59.2392   35.9392   45.2313 H   0  0  0  0  0  0  0  0  0  0  0  0
   59.9015   35.7888   47.6081 H   0  0  0  0  0  0  0  0  0  0  0  0
   61.0120   34.1155   50.8160 H   0  0  0  0  0  0  0  0  0  0  0  0
   62.0581   33.6489   49.4323 H   0  0  0  0  0  0  0  0  0  0  0  0
   61.2260   35.2408   49.4323 H   0  0  0  0  0  0  0  0  0  0  0  0
  1  2  1  0
  2  3  1  0
  3  4  1  0
  4  5  1  0
  5  6  1  0
  6  7  1  0
  7  8  1  0
  8  9  1  0
  9 10  1  0
 10 11  1  0
 11 12  2  0
 12 13  1  0
 13 14  2  0
 14 15  1  0
 15 16  2  0
 16 17  1  0
 17 18  2  0
 18 19  1  0
 18 20  1  0
 20 21  2  0
 21 22  1  0
 22 23  2  0
 23 24  1  0
 24 25  1  0
 25 26  1  0
 24 27  2  0
 27 11  1  0
 17 12  1  0
 27 20  1  0
  1 28  1  0
  1 29  1  0
  1 30  1  0
  2 31  1  0
  2 32  1  0
  4 33  1  0
  4 34  1  0
  5 35  1  0
  5 36  1  0
  7 37  1  0
  7 38  1  0
  8 39  1  0
  8 40  1  0
  9 41  1  0
  9 42  1  0
 10 43  1  0
 10 44  1  0
 13 45  1  0
 14 46  1  0
 15 47  1  0
 16 48  1  0
 19 49  1  0
 19 50  1  0
 19 51  1  0
 21 52  1  0
 22 53  1  0
 23 54  1  0
 26 55  1  0
 26 56  1  0
 26 57  1  0
M  CHG  2  10   1  18   1
M  END
>  <UniqueID>  (22) 
22

>  <SMILES>  (22) 
CCOCCOCCC[NH2+]c1c2ccccc2[n+](C)c2cccc(OC)c12

>  <Energy>  (22) 
92.38060162497662

>  <Genealogy>  (22) 
CCOCCOCCC[NH2+]c1c2ccccc2[n+](C)c2cccc(OC)c12 (protonated)
CCOCCOCCC[NH2+]c1c2ccccc2[n+](C)c2cccc(OC)c12 (3D coordinates assigned)
CCOCCOCCC[NH2+]c1c2ccccc2[n+](C)c2cccc(OC)c12 (optimized conformer: 92.38060162497662 kcal/mol)

>  <smiles>  (22) 
CCOCCOCCCNc1c2ccccc2[n+](C)c2cccc(OC)c12

>  <score_type>  (22) 
oracle

>  <origin>  (22) 
adg

>  <m_score__min__energy>  (22) 
-2.73

>  <m_primary>  (22) 
energy

$$$$
22:0
     RDKit          3D

 30 31  0  0  0  0  0  0  0  0999 V2000
   58.1440   27.0770   42.7690 C   0  0  0  0  0  0  0  0  0  0  0  0
   58.7710   27.6640   44.0240 C   0  0  0  0  0  0  0  0  0  0  0  0
   57.5470   27.7020   45.3730 S   0  0  0  0  0  0  0  0  0  0  0  0
   57.4000   29.4890   45.3360 C   0  0  0  0  0  0  0  0  0  0  0  0
   56.3700   30.1320   44.7530 N   0  0  0  0  0  0  0  0  0  0  0  0
   56.6190   31.4280   44.8560 N   0  0  0  0  0  0  0  0  0  0  0  0
   57.7930   31.5570   45.5070 C   0  0  0  0  0  0  0  0  0  0  0  0
   58.4290   32.8630   45.7580 C   0  0  0  0  0  0  0  0  0  0  0  0
   58.7350   33.2770   47.0610 C   0  0  0  0  0  0  0  0  0  0  0  0
   59.3200   34.5300   47.2660 C   0  0  0  0  0  0  0  0  0  0  0  0
   59.5750   35.3450   46.2080 N   0  0  0  0  0  0  0  0  0  0  0  0
   59.2690   34.9760   44.9340 C   0  0  0  0  0  0  0  0  0  0  0  0
   58.6820   33.7330   44.6870 C   0  0  0  0  0  0  0  0  0  0  0  0
   58.3110   30.3510   45.8310 N   0  0  0  0  0  0  0  0  0  0  0  0
   59.6530   30.0300   46.3290 C   0  0  0  0  0  0  0  0  0  0  0  0
   59.5850   29.5850   47.7860 C   0  0  0  0  0  0  0  0  0  0  0  0
   57.3680   26.3505   43.0521 H   0  0  0  0  0  0  0  0  0  0  0  0
   57.6914   27.8836   42.1735 H   0  0  0  0  0  0  0  0  0  0  0  0
   58.9190   26.5723   42.1735 H   0  0  0  0  0  0  0  0  0  0  0  0
   59.6279   27.0445   44.3270 H   0  0  0  0  0  0  0  0  0  0  0  0
   59.1081   28.6897   43.8133 H   0  0  0  0  0  0  0  0  0  0  0  0
   58.5165   32.6209   47.9165 H   0  0  0  0  0  0  0  0  0  0  0  0
   59.5744   34.8571   48.2849 H   0  0  0  0  0  0  0  0  0  0  0  0
   59.4843   35.6577   44.0979 H   0  0  0  0  0  0  0  0  0  0  0  0
   58.4200   33.4383   43.6601 H   0  0  0  0  0  0  0  0  0  0  0  0
   60.0810   29.2189   45.7216 H   0  0  0  0  0  0  0  0  0  0  0  0
   60.2848   30.9277   46.2584 H   0  0  0  0  0  0  0  0  0  0  0  0
   59.7183   30.4575   48.4425 H   0  0  0  0  0  0  0  0  0  0  0  0
   58.6060   29.1239   47.9833 H   0  0  0  0  0  0  0  0  0  0  0  0
   60.3816   28.8526   47.9833 H   0  0  0  0  0  0  0  0  0  0  0  0
  1  2  1  0
  2  3  1  0
  3  4  1  0
  4  5  2  0
  5  6  1  0
  6  7  2  0
  7  8  1  0
  8  9  2  0
  9 10  1  0
 10 11  2  0
 11 12  1  0
 12 13  2  0
  7 14  1  0
 14 15  1  0
 15 16  1  0
 14  4  1  0
 13  8  1  0
  1 17  1  0
  1 18  1  0
  1 19  1  0
  2 20  1  0
  2 21  1  0
  9 22  1  0
 10 23  1  0
 12 24  1  0
 13 25  1  0
 15 26  1  0
 15 27  1  0
 16 28  1  0
 16 29  1  0
 16 30  1  0
M  END
>  <UniqueID>  (23) 
23

>  <SMILES>  (23) 
CCSc1nnc(-c2ccncc2)n1CC

>  <Energy>  (23) 
60.92701096239839

>  <Genealogy>  (23) 
CCSc1nnc(-c2ccncc2)n1CC (3D coordinates assigned)
CCSc1nnc(-c2ccncc2)n1CC (optimized conformer: 60.92701096239839 kcal/mol)

>  <smiles>  (23) 
CCSc1nnc(-c2ccncc2)n1CC

>  <score_type>  (23) 
oracle

>  <origin>  (23) 
adg

>  <m_score__min__energy>  (23) 
-6.3499999999999996

>  <m_primary>  (23) 
energy

$$$$
23:0
     RDKit          3D

 66 69  0  0  0  0  0  0  0  0999 V2000
   62.0603   29.6344   50.3461 H   0  0  0  0  0  0  0  0  0  0  0  0
   61.7470   30.2120   49.4640 C   0  0  0  0  0  0  0  0  0  0  0  0
   60.6400   29.7960   48.8130 C   0  0  0  0  0  0  0  0  0  0  0  0
   59.8920   30.6440   47.8320 C   0  0  0  0  0  0  0  0  0  0  0  0
   59.5360   30.0350   46.6160 C   0  0  0  0  0  0  0  0  0  0  0  0
   59.0440   30.8230   45.5660 C   0  0  0  0  0  0  0  0  0  0  0  0
   58.7190   30.2150   44.3100 N   0  0  0  0  0  0  0  0  0  0  0  0
   59.2850   29.3910   44.0020 H   0  0  0  0  0  0  0  0  0  0  0  0
   57.4580   30.5340   43.6400 C   0  0  0  0  0  0  0  0  0  0  0  0
   57.6702   31.1324   42.7417 H   0  0  0  0  0  0  0  0  0  0  0  0
   56.8240   31.0977   44.3402 H   0  0  0  0  0  0  0  0  0  0  0  0
   56.7150   29.2640   43.2290 C   0  0  0  0  0  0  0  0  0  0  0  0
   56.5149   29.2896   42.1477 H   0  0  0  0  0  0  0  0  0  0  0  0
   55.7627   29.2024   43.7761 H   0  0  0  0  0  0  0  0  0  0  0  0
   57.5090   28.1350   43.5350 O   0  0  0  0  0  0  0  0  0  0  0  0
   57.2920   27.7220   44.8700 C   0  0  0  0  0  0  0  0  0  0  0  0
   56.2316   27.8624   45.1264 H   0  0  0  0  0  0  0  0  0  0  0  0
   57.9224   28.3249   45.5401 H   0  0  0  0  0  0  0  0  0  0  0  0
   57.6610   26.2420   45.0310 C   0  0  0  0  0  0  0  0  0  0  0  0
   57.1041   25.8222   45.8817 H   0  0  0  0  0  0  0  0  0  0  0  0
   58.7442   26.1664   45.2068 H   0  0  0  0  0  0  0  0  0  0  0  0
   57.3270   25.4830   43.8140 N   0  0  0  0  0  0  0  0  0  0  0  0
   56.8220   26.1020   43.1360 H   0  0  0  0  0  0  0  0  0  0  0  0
   58.2150   25.1610   43.3640 H   0  0  0  0  0  0  0  0  0  0  0  0
   56.5130   24.2900   44.1060 C   0  0  0  0  0  0  0  0  0  0  0  0
   55.4681   24.6026   44.2494 H   0  0  0  0  0  0  0  0  0  0  0  0
   56.9231   23.8198   45.0119 H   0  0  0  0  0  0  0  0  0  0  0  0
   56.5650   23.2530   42.9800 C   0  0  0  0  0  0  0  0  0  0  0  0
   56.6156   22.2433   43.4135 H   0  0  0  0  0  0  0  0  0  0  0  0
   55.6613   23.3405   42.3589 H   0  0  0  0  0  0  0  0  0  0  0  0
   57.4554   23.4305   42.3589 H   0  0  0  0  0  0  0  0  0  0  0  0
   58.8970   32.2100   45.7550 C   0  0  0  0  0  0  0  0  0  0  0  0
   58.5220   33.0510   44.6880 C   0  0  0  0  0  0  0  0  0  0  0  0
   58.3621   32.6232   43.6873 H   0  0  0  0  0  0  0  0  0  0  0  0
   58.3520   34.4190   44.8890 C   0  0  0  0  0  0  0  0  0  0  0  0
   58.0512   35.0640   44.0502 H   0  0  0  0  0  0  0  0  0  0  0  0
   58.5620   34.9710   46.1490 C   0  0  0  0  0  0  0  0  0  0  0  0
   58.4237   36.0512   46.3042 H   0  0  0  0  0  0  0  0  0  0  0  0
   58.9470   34.1600   47.2150 C   0  0  0  0  0  0  0  0  0  0  0  0
   59.1137   34.6096   48.2050 H   0  0  0  0  0  0  0  0  0  0  0  0
   59.1270   32.7650   47.0430 C   0  0  0  0  0  0  0  0  0  0  0  0
   59.5330   31.9520   48.0850 N   0  0  0  0  0  0  0  0  0  0  0  0
   59.4970   32.4620   49.4710 C   0  0  0  0  0  0  0  0  0  0  0  0
   59.5566   31.6180   50.1739 H   0  0  0  0  0  0  0  0  0  0  0  0
   60.3497   33.1371   49.6355 H   0  0  0  0  0  0  0  0  0  0  0  0
   58.5579   33.0106   49.6355 H   0  0  0  0  0  0  0  0  0  0  0  0
   59.6960   28.5350   46.4780 C   0  0  0  0  0  0  0  0  0  0  0  0
   60.7383   28.3001   46.2165 H   0  0  0  0  0  0  0  0  0  0  0  0
   59.0270   28.1666   45.6864 H   0  0  0  0  0  0  0  0  0  0  0  0
   59.3370   27.8570   47.8070 C   0  0  0  0  0  0  0  0  0  0  0  0
   59.4552   26.7691   47.6953 H   0  0  0  0  0  0  0  0  0  0  0  0
   58.2974   28.1178   48.0546 H   0  0  0  0  0  0  0  0  0  0  0  0
   60.2390   28.3410   48.9560 C   0  0  0  0  0  0  0  0  0  0  0  0
   61.1501   27.7249   48.9714 H   0  0  0  0  0  0  0  0  0  0  0  0
   59.6666   28.2448   49.8904 H   0  0  0  0  0  0  0  0  0  0  0  0
   62.5750   31.3820   49.0890 C   0  0  0  0  0  0  0  0  0  0  0  0
   62.8100   31.6420   47.7280 C   0  0  0  0  0  0  0  0  0  0  0  0
   62.3834   30.9772   46.9624 H   0  0  0  0  0  0  0  0  0  0  0  0
   63.5830   32.7410   47.3420 C   0  0  0  0  0  0  0  0  0  0  0  0
   63.7772   32.9287   46.2757 H   0  0  0  0  0  0  0  0  0  0  0  0
   64.1090   33.6010   48.3090 C   0  0  0  0  0  0  0  0  0  0  0  0
   64.7260   34.4591   48.0042 H   0  0  0  0  0  0  0  0  0  0  0  0
   63.8520   33.3720   49.6620 C   0  0  0  0  0  0  0  0  0  0  0  0
   64.2594   34.0554   50.4216 H   0  0  0  0  0  0  0  0  0  0  0  0
   63.0780   32.2760   50.0530 C   0  0  0  0  0  0  0  0  0  0  0  0
   62.8609   32.1112   51.1187 H   0  0  0  0  0  0  0  0  0  0  0  0
  1  2  1  0
  2  3  2  0
  3  4  1  0
  4  5  1  0
  5  6  2  0
  6  7  1  0
  7  8  1  0
  7  9  1  0
  9 10  1  0
  9 11  1  0
  9 12  1  0
 12 13  1  0
 12 14  1  0
 12 15  1  0
 15 16  1  0
 16 17  1  0
 16 18  1  0
 16 19  1  0
 19 20  1  0
 19 21  1  0
 19 22  1  0
 22 23  1  0
 22 24  1  0
 22 25  1  0
 25 26  1  0
 25 27  1  0
 25 28  1  0
 28 29  1  0
 28 30  1  0
 28 31  1  0
  6 32  1  0
 32 33  2  0
 33 34  1  0
 33 35  1  0
 35 36  1  0
 35 37  2  0
 37 38  1  0
 37 39  1  0
 39 40  1  0
 39 41  2  0
 41 42  1  0
 42 43  1  0
 43 44  1  0
 43 45  1  0
 43 46  1  0
  5 47  1  0
 47 48  1  0
 47 49  1  0
 47 50  1  0
 50 51  1  0
 50 52  1  0
 50 53  1  0
 53 54  1  0
 53 55  1  0
  2 56  1  0
 56 57  2  0
 57 58  1  0
 57 59  1  0
 59 60  1  0
 59 61  2  0
 61 62  1  0
 61 63  1  0
 63 64  1  0
 63 65  2  0
 65 66  1  0
 53  3  1  0
 65 56  1  0
 42  4  2  0
 41 32  1  0
M  CHG  2  22   1  42   1
M  END
>  <UniqueID>  (24) 
24

>  <SMILES>  (24) 
CC[NH2+]CCOCCNc1c2c([n+](C)c3ccccc13)/C(=C\c1ccccc1)CCC2

>  <Energy>  (24) 
97.58866876469837

>  <Genealogy>  (24) 
CC[NH2+]CCOCCNc1c2c([n+](C)c3ccccc13)C(=Cc1ccccc1)CCC2 (protonated)
CC[NH2+]CCOCCNc1c2c([n+](C)c3ccccc13)/C(=C\c1ccccc1)CCC2 (cis-trans isomerization)
CC[NH2+]CCOCCNc1c2c([n+](C)c3ccccc13)/C(=C\c1ccccc1)CCC2 (3D coordinates assigned)
CC[NH2+]CCOCCNc1c2c([n+](C)c3ccccc13)/C(=C\c1ccccc1)CCC2 (nonaromatic ring conformer: 97.58866876469837 kcal/mol)

>  <smiles>  (24) 
CCNCCOCCNc1c2c([n+](C)c3ccccc13)C(=Cc1ccccc1)CCC2

>  <score_type>  (24) 
oracle

>  <origin>  (24) 
adg

>  <m_score__min__energy>  (24) 
-5.3799999999999999

>  <m_primary>  (24) 
energy

$$$$
24:0
     RDKit          3D

 43 44  0  0  0  0  0  0  0  0999 V2000
   57.7690   33.8510   45.5360 C   0  0  0  0  0  0  0  0  0  0  0  0
   59.0850   34.4250   46.0350 C   0  0  0  0  0  0  0  0  0  0  0  0
   59.6810   33.5170   46.9580 O   0  0  0  0  0  0  0  0  0  0  0  0
   61.0490   33.2000   46.9970 C   0  0  0  0  0  0  0  0  0  0  0  0
   62.0370   34.1710   46.7500 C   0  0  0  0  0  0  0  0  0  0  0  0
   63.3860   33.8230   46.8280 C   0  0  0  0  0  0  0  0  0  0  0  0
   63.7470   32.5550   47.1530 N   0  0  0  0  0  0  0  0  0  0  0  0
   62.8180   31.5920   47.3920 C   0  0  0  0  0  0  0  0  0  0  0  0
   61.4470   31.8800   47.2930 C   0  0  0  0  0  0  0  0  0  0  0  0
   60.4380   30.7770   47.5180 C   0  0  0  0  0  0  0  0  0  0  0  0
   59.3130   30.8970   46.5730 N   0  0  0  0  0  0  0  0  0  0  0  0
   59.3590   29.8930   45.4980 C   0  0  0  0  0  0  0  0  0  0  0  0
   58.1450   29.0030   45.5240 C   0  0  0  0  0  0  0  0  0  0  0  0
   56.8870   29.2820   45.0140 C   0  0  0  0  0  0  0  0  0  0  0  0
   56.4870   30.4960   44.2400 C   0  0  0  0  0  0  0  0  0  0  0  0
   56.0640   28.2390   45.2410 N   0  0  0  0  0  0  0  0  0  0  0  0
   56.7560   27.3150   45.8880 N   0  0  0  0  0  0  0  0  0  0  0  0
   56.1880   26.0410   46.3160 C   0  0  0  0  0  0  0  0  0  0  0  0
   58.0210   27.7430   46.0870 C   0  0  0  0  0  0  0  0  0  0  0  0
   59.1230   26.9270   46.6960 C   0  0  0  0  0  0  0  0  0  0  0  0
   57.1395   33.5764   46.3952 H   0  0  0  0  0  0  0  0  0  0  0  0
   57.2485   34.6038   44.9258 H   0  0  0  0  0  0  0  0  0  0  0  0
   57.9667   32.9573   44.9258 H   0  0  0  0  0  0  0  0  0  0  0  0
   59.7636   34.5799   45.1833 H   0  0  0  0  0  0  0  0  0  0  0  0
   58.8987   35.3866   46.5357 H   0  0  0  0  0  0  0  0  0  0  0  0
   61.7468   35.2012   46.4962 H   0  0  0  0  0  0  0  0  0  0  0  0
   64.1596   34.5784   46.6255 H   0  0  0  0  0  0  0  0  0  0  0  0
   64.7610   32.3130   47.2180 H   0  0  0  0  0  0  0  0  0  0  0  0
   63.1431   30.5774   47.6656 H   0  0  0  0  0  0  0  0  0  0  0  0
   60.9291   29.8036   47.3725 H   0  0  0  0  0  0  0  0  0  0  0  0
   60.0480   30.8592   48.5433 H   0  0  0  0  0  0  0  0  0  0  0  0
   59.3810   31.8370   46.1180 H   0  0  0  0  0  0  0  0  0  0  0  0
   59.4032   30.4095   44.5278 H   0  0  0  0  0  0  0  0  0  0  0  0
   60.2505   29.2663   45.6481 H   0  0  0  0  0  0  0  0  0  0  0  0
   56.2207   31.3041   44.9372 H   0  0  0  0  0  0  0  0  0  0  0  0
   57.3259   30.8199   43.6065 H   0  0  0  0  0  0  0  0  0  0  0  0
   55.6199   30.2577   43.6065 H   0  0  0  0  0  0  0  0  0  0  0  0
   56.1691   25.9987   47.4150 H   0  0  0  0  0  0  0  0  0  0  0  0
   55.1630   25.9476   45.9278 H   0  0  0  0  0  0  0  0  0  0  0  0
   56.8036   25.2162   45.9278 H   0  0  0  0  0  0  0  0  0  0  0  0
   59.0540   26.9781   47.7926 H   0  0  0  0  0  0  0  0  0  0  0  0
   59.0270   25.8805   46.3709 H   0  0  0  0  0  0  0  0  0  0  0  0
   60.0959   27.3241   46.3709 H   0  0  0  0  0  0  0  0  0  0  0  0
  1  2  1  0
  2  3  1  0
  3  4  1  0
  4  5  2  0
  5  6  1  0
  6  7  2  0
  7  8  1  0
  8  9  2  0
  9 10  1  0
 10 11  1  0
 11 12  1  0
 12 13  1  0
 13 14  1  0
 14 15  1  0
 14 16  2  0
 16 17  1  0
 17 18  1  0
 17 19  1  0
 19 20  1  0
  9  4  1  0
 19 13  2  0
  1 21  1  0
  1 22  1  0
  1 23  1  0
  2 24  1  0
  2 25  1  0
  5 26  1  0
  6 27  1  0
  7 28  1  0
  8 29  1  0
 10 30  1  0
 10 31  1  0
 11 32  1  0
 12 33  1  0
 12 34  1  0
 15 35  1  0
 15 36  1  0
 15 37  1  0
 18 38  1  0
 18 39  1  0
 18 40  1  0
 20 41  1  0
 20 42  1  0
 20 43  1  0
M  CHG  1   7   1
M  END
>  <UniqueID>  (25) 
25

>  <SMILES>  (25) 
CCOc1cc[nH+]cc1CNCc1c(C)nn(C)c1C

>  <Energy>  (25) 
62.24277738635128

>  <Genealogy>  (25) 
CCOc1cc[nH+]cc1CNCc1c(C)nn(C)c1C (protonated)
CCOc1cc[nH+]cc1CNCc1c(C)nn(C)c1C (3D coordinates assigned)
CCOc1cc[nH+]cc1CNCc1c(C)nn(C)c1C (optimized conformer: 62.24277738635128 kcal/mol)

>  <smiles>  (25) 
CCOc1ccncc1CNCc1c(C)nn(C)c1C

>  <score_type>  (25) 
oracle

>  <origin>  (25) 
adg

>  <m_score__min__energy>  (25) 
-4.9100000000000001

>  <m_primary>  (25) 
energy

$$$$
25:0
     RDKit          3D

 50 51  0  0  0  0  0  0  0  0999 V2000
   57.0210   30.8400   42.9720 C   0  0  0  0  0  0  0  0  0  0  0  0
   56.2630   30.0420   44.0290 C   0  0  0  0  0  0  0  0  0  0  0  0
   57.1750   29.6900   45.2120 C   0  0  0  0  0  0  0  0  0  0  0  0
   58.5800   30.3050   45.0920 C   0  0  0  0  0  0  0  0  0  0  0  0
   58.8900   31.1800   46.2440 N   0  0  0  0  0  0  0  0  0  0  0  0
   59.0740   30.5490   47.4450 C   0  0  0  0  0  0  0  0  0  0  0  0
   59.4480   31.2490   48.5820 C   0  0  0  0  0  0  0  0  0  0  0  0
   59.6420   32.6260   48.5240 C   0  0  0  0  0  0  0  0  0  0  0  0
   60.1260   33.3190   49.6830 N   0  0  0  0  0  0  0  0  0  0  0  0
   61.4750   33.8850   49.7520 C   0  0  0  0  0  0  0  0  0  0  0  0
   62.5510   32.8060   49.5320 C   0  0  0  0  0  0  0  0  0  0  0  0
   63.7690   33.3240   48.7360 C   0  0  0  0  0  0  0  0  0  0  0  0
   63.7930   32.8220   47.3410 N   0  0  0  0  0  0  0  0  0  0  0  0
   63.3900   33.8670   46.3810 C   0  0  0  0  0  0  0  0  0  0  0  0
   62.8900   31.6640   47.2130 C   0  0  0  0  0  0  0  0  0  0  0  0
   59.4330   33.3000   47.3040 C   0  0  0  0  0  0  0  0  0  0  0  0
   59.6480   34.6900   47.2030 C   0  0  0  0  0  0  0  0  0  0  0  0
   59.4780   35.3470   45.9870 C   0  0  0  0  0  0  0  0  0  0  0  0
   59.1060   34.6330   44.8550 C   0  0  0  0  0  0  0  0  0  0  0  0
   58.9010   33.2540   44.9250 C   0  0  0  0  0  0  0  0  0  0  0  0
   59.0570   32.5530   46.1480 C   0  0  0  0  0  0  0  0  0  0  0  0
   57.6979   31.5526   43.4660 H   0  0  0  0  0  0  0  0  0  0  0  0
   57.6070   30.1528   42.3440 H   0  0  0  0  0  0  0  0  0  0  0  0
   56.3046   31.3899   42.3440 H   0  0  0  0  0  0  0  0  0  0  0  0
   55.4162   30.6419   44.3938 H   0  0  0  0  0  0  0  0  0  0  0  0
   55.9052   29.1074   43.5724 H   0  0  0  0  0  0  0  0  0  0  0  0
   56.7082   30.0602   46.1367 H   0  0  0  0  0  0  0  0  0  0  0  0
   57.2943   28.5965   45.2213 H   0  0  0  0  0  0  0  0  0  0  0  0
   59.3223   29.4944   45.0491 H   0  0  0  0  0  0  0  0  0  0  0  0
   58.6123   30.9150   44.1772 H   0  0  0  0  0  0  0  0  0  0  0  0
   58.9216   29.4615   47.5094 H   0  0  0  0  0  0  0  0  0  0  0  0
   59.5918   30.7145   49.5326 H   0  0  0  0  0  0  0  0  0  0  0  0
   59.4800   33.4700   50.4910 H   0  0  0  0  0  0  0  0  0  0  0  0
   61.5789   34.6571   48.9754 H   0  0  0  0  0  0  0  0  0  0  0  0
   61.6179   34.3159   50.7539 H   0  0  0  0  0  0  0  0  0  0  0  0
   62.8984   32.4517   50.5137 H   0  0  0  0  0  0  0  0  0  0  0  0
   62.0920   31.9979   48.9436 H   0  0  0  0  0  0  0  0  0  0  0  0
   63.7343   34.4232   48.7144 H   0  0  0  0  0  0  0  0  0  0  0  0
   64.6762   32.9568   49.2382 H   0  0  0  0  0  0  0  0  0  0  0  0
   64.7620   32.5000   47.1020 H   0  0  0  0  0  0  0  0  0  0  0  0
   63.0470   34.7565   46.9298 H   0  0  0  0  0  0  0  0  0  0  0  0
   64.2492   34.1351   45.7487 H   0  0  0  0  0  0  0  0  0  0  0  0
   62.5733   33.4887   45.7487 H   0  0  0  0  0  0  0  0  0  0  0  0
   62.6100   31.3049   48.2143 H   0  0  0  0  0  0  0  0  0  0  0  0
   61.9848   31.9637   46.6646 H   0  0  0  0  0  0  0  0  0  0  0  0
   63.4013   30.8592   46.6646 H   0  0  0  0  0  0  0  0  0  0  0  0
   59.9527   35.2605   48.0928 H   0  0  0  0  0  0  0  0  0  0  0  0
   59.6386   36.4333   45.9228 H   0  0  0  0  0  0  0  0  0  0  0  0
   58.9721   35.1576   43.8974 H   0  0  0  0  0  0  0  0  0  0  0  0
   58.6140   32.7025   44.0175 H   0  0  0  0  0  0  0  0  0  0  0  0
  1  2  1  0
  2  3  1  0
  3  4  1  0
  4  5  1  0
  5  6  2  0
  6  7  1  0
  7  8  2  0
  8  9  1  0
  9 10  1  0
 10 11  1  0
 11 12  1  0
 12 13  1  0
 13 14  1  0
 13 15  1  0
  8 16  1  0
 16 17  2  0
 17 18  1  0
 18 19  2  0
 19 20  1  0
 20 21  2  0
 21  5  1  0
 21 16  1  0
  1 22  1  0
  1 23  1  0
  1 24  1  0
  2 25  1  0
  2 26  1  0
  3 27  1  0
  3 28  1  0
  4 29  1  0
  4 30  1  0
  6 31  1  0
  7 32  1  0
  9 33  1  0
 10 34  1  0
 10 35  1  0
 11 36  1  0
 11 37  1  0
 12 38  1  0
 12 39  1  0
 13 40  1  0
 14 41  1  0
 14 42  1  0
 14 43  1  0
 15 44  1  0
 15 45  1  0
 15 46  1  0
 17 47  1  0
 18 48  1  0
 19 49  1  0
 20 50  1  0
M  CHG  2   5   1  13   1
M  END
>  <UniqueID>  (26) 
26

>  <SMILES>  (26) 
CCCC[n+]1ccc(NCCC[NH+](C)C)c2ccccc21

>  <Energy>  (26) 
52.631528863836856

>  <Genealogy>  (26) 
CCCC[n+]1ccc(NCCC[NH+](C)C)c2ccccc21 (protonated)
CCCC[n+]1ccc(NCCC[NH+](C)C)c2ccccc21 (3D coordinates assigned)
CCCC[n+]1ccc(NCCC[NH+](C)C)c2ccccc21 (optimized conformer: 52.631528863836856 kcal/mol)

>  <smiles>  (26) 
CCCC[n+]1ccc(NCCCN(C)C)c2ccccc21

>  <score_type>  (26) 
oracle

>  <origin>  (26) 
adg

>  <m_score__min__energy>  (26) 
-3.79

>  <m_primary>  (26) 
energy

$$$$
