0:0
     RDKit          3D

 34 36  0  0  0  0  0  0  0  0999 V2000
   59.6430   35.7300   46.3420 C   0  0  0  0  0  0  0  0  0  0  0  0
   59.2560   34.2910   46.2290 C   0  0  0  0  0  0  0  0  0  0  0  0
   58.5430   33.8030   45.2410 O   0  0  0  0  0  0  0  0  0  0  0  0
   58.3630   32.5150   45.4390 C   0  0  0  0  0  0  0  0  0  0  0  0
   57.6200   31.6620   44.4950 C   0  0  0  0  0  0  0  0  0  0  0  0
   57.6760   31.9330   43.1630 N   0  0  0  0  0  0  0  0  0  0  0  0
   57.0160   31.1590   42.2610 C   0  0  0  0  0  0  0  0  0  0  0  0
   56.2710   30.0640   42.6980 C   0  0  0  0  0  0  0  0  0  0  0  0
   56.2280   29.7950   44.0650 C   0  0  0  0  0  0  0  0  0  0  0  0
   56.9010   30.5920   44.9340 N   0  0  0  0  0  0  0  0  0  0  0  0
   58.9900   32.1350   46.6220 C   0  0  0  0  0  0  0  0  0  0  0  0
   58.9980   30.8040   47.2460 C   0  0  0  0  0  0  0  0  0  0  0  0
   58.5450   30.6550   48.4110 O   0  0  0  0  0  0  0  0  0  0  0  0
   59.5010   29.6730   46.5360 N   0  0  0  0  0  0  0  0  0  0  0  0
   59.9520   29.3450   45.1700 C   0  0  0  0  0  0  0  0  0  0  0  0
   60.1530   27.8860   45.4170 C   0  0  0  0  0  0  0  0  0  0  0  0
   59.6940   28.2360   46.7950 C   0  0  0  0  0  0  0  0  0  0  0  0
   59.5600   33.2900   47.1330 C   0  0  0  0  0  0  0  0  0  0  0  0
   60.3090   33.4530   48.4210 C   0  0  0  0  0  0  0  0  0  0  0  0
   59.7176   36.0073   47.4038 H   0  0  0  0  0  0  0  0  0  0  0  0
   60.6155   35.8877   45.8527 H   0  0  0  0  0  0  0  0  0  0  0  0
   58.8808   36.3542   45.8527 H   0  0  0  0  0  0  0  0  0  0  0  0
   57.0695   31.3960   41.1882 H   0  0  0  0  0  0  0  0  0  0  0  0
   55.7305   29.4281   41.9814 H   0  0  0  0  0  0  0  0  0  0  0  0
   55.6493   28.9377   44.4394 H   0  0  0  0  0  0  0  0  0  0  0  0
   59.1831   29.5451   44.4093 H   0  0  0  0  0  0  0  0  0  0  0  0
   60.8098   29.9097   44.7760 H   0  0  0  0  0  0  0  0  0  0  0  0
   59.4906   27.2132   44.8525 H   0  0  0  0  0  0  0  0  0  0  0  0
   61.0879   27.3490   45.1987 H   0  0  0  0  0  0  0  0  0  0  0  0
   58.7602   27.7258   47.0737 H   0  0  0  0  0  0  0  0  0  0  0  0
   60.3577   27.9622   47.6284 H   0  0  0  0  0  0  0  0  0  0  0  0
   59.6214   33.3034   49.2665 H   0  0  0  0  0  0  0  0  0  0  0  0
   61.1186   32.7100   48.4709 H   0  0  0  0  0  0  0  0  0  0  0  0
   60.7367   34.4652   48.4709 H   0  0  0  0  0  0  0  0  0  0  0  0
  1  2  1  0
  2  3  1  0
  3  4  1  0
  4  5  1  0
  5  6  2  0
  6  7  1  0
  7  8  2  0
  8  9  1  0
  9 10  2  0
  4 11  2  0
 11 12  1  0
 12 13  2  0
 12 14  1  0
 14 15  1  0
 15 16  1  0
 16 17  1  0
 11 18  1  0
 18 19  1  0
 18  2  2  0
 10  5  1  0
 17 14  1  0
  1 20  1  0
  1 21  1  0
  1 22  1  0
  7 23  1  0
  8 24  1  0
  9 25  1  0
 15 26  1  0
 15 27  1  0
 16 28  1  0
 16 29  1  0
 17 30  1  0
 17 31  1  0
 19 32  1  0
 19 33  1  0
 19 34  1  0
M  END
>  <UniqueID>  (1) 
1

>  <SMILES>  (1) 
Cc1oc(-c2ncccn2)c(C(=O)N2CCC2)c1C

>  <Energy>  (1) 
109.17424376650398

>  <Genealogy>  (1) 
Cc1oc(-c2ncccn2)c(C(=O)N2CCC2)c1C (3D coordinates assigned)
Cc1oc(-c2ncccn2)c(C(=O)N2CCC2)c1C (nonaromatic ring conformer: 109.17424376650398 kcal/mol)

>  <smiles>  (1) 
Cc1oc(-c2ncccn2)c(C(=O)N2CCC2)c1C

>  <score_type>  (1) 
oracle

>  <origin>  (1) 
adg

>  <m_score__min__energy>  (1) 
-6.4800000000000004

>  <m_primary>  (1) 
energy

$$$$
1:0
     RDKit          3D

 73 76  0  0  0  0  0  0  0  0999 V2000
   57.4780   31.0970   51.2410 C   0  0  0  0  0  0  0  0  0  0  0  0
   58.1660   32.3130   50.6020 C   0  0  0  0  0  0  0  0  0  0  0  0
   59.2240   32.9350   51.4370 N   0  0  0  0  0  0  0  0  0  0  0  0
   58.7990   34.2280   52.0010 C   0  0  0  0  0  0  0  0  0  0  0  0
   59.7730   32.0550   52.4940 C   0  0  0  0  0  0  0  0  0  0  0  0
   60.9220   31.1760   51.9750 C   0  0  0  0  0  0  0  0  0  0  0  0
   61.7820   31.9250   51.0470 N   0  0  0  0  0  0  0  0  0  0  0  0
   62.4860   31.0280   50.1230 C   0  0  0  0  0  0  0  0  0  0  0  0
   61.5060   30.0650   49.5140 C   0  0  0  0  0  0  0  0  0  0  0  0
   61.3700   28.7720   50.0420 C   0  0  0  0  0  0  0  0  0  0  0  0
   60.4800   27.8540   49.4710 C   0  0  0  0  0  0  0  0  0  0  0  0
   60.3840   26.5760   50.0420 O   0  0  0  0  0  0  0  0  0  0  0  0
   61.0290   26.1850   51.2480 C   0  0  0  0  0  0  0  0  0  0  0  0
   59.7180   28.2410   48.3530 C   0  0  0  0  0  0  0  0  0  0  0  0
   59.8530   29.5280   47.8120 C   0  0  0  0  0  0  0  0  0  0  0  0
   59.0780   29.9100   46.6130 C   0  0  0  0  0  0  0  0  0  0  0  0
   58.8090   28.9180   45.6590 C   0  0  0  0  0  0  0  0  0  0  0  0
   58.0850   29.2190   44.5080 C   0  0  0  0  0  0  0  0  0  0  0  0
   57.6090   30.5100   44.2940 C   0  0  0  0  0  0  0  0  0  0  0  0
   56.9160   30.7770   43.1570 F   0  0  0  0  0  0  0  0  0  0  0  0
   57.8360   31.5210   45.2450 C   0  0  0  0  0  0  0  0  0  0  0  0
   58.6000   31.2300   46.4100 C   0  0  0  0  0  0  0  0  0  0  0  0
   58.7650   32.2910   47.4810 C   0  0  0  0  0  0  0  0  0  0  0  0
   58.5930   33.6260   46.9020 N   0  0  0  0  0  0  0  0  0  0  0  0
   59.7390   34.4660   46.6510 C   0  0  0  0  0  0  0  0  0  0  0  0
   59.6310   35.7190   46.7630 O   0  0  0  0  0  0  0  0  0  0  0  0
   61.0800   33.8630   46.3130 C   0  0  0  0  0  0  0  0  0  0  0  0
   61.8370   33.3520   47.5510 C   0  0  1  0  0  0  0  0  0  0  0  0
   63.3300   33.6180   47.4470 C   0  0  0  0  0  0  0  0  0  0  0  0
   63.7280   33.7840   48.8780 C   0  0  0  0  0  0  0  0  0  0  0  0
   62.4580   34.2970   49.5290 C   0  0  0  0  0  0  0  0  0  0  0  0
   61.3490   33.9780   48.7180 O   0  0  0  0  0  0  0  0  0  0  0  0
   57.3370   33.8260   46.1770 C   0  0  0  0  0  0  0  0  0  0  0  0
   57.3350   32.9220   44.9450 C   0  0  0  0  0  0  0  0  0  0  0  0
   60.7650   30.4290   48.3810 C   0  0  0  0  0  0  0  0  0  0  0  0
   57.5262   31.1822   52.3366 H   0  0  0  0  0  0  0  0  0  0  0  0
   56.4259   31.0613   50.9219 H   0  0  0  0  0  0  0  0  0  0  0  0
   57.9893   30.1768   50.9219 H   0  0  0  0  0  0  0  0  0  0  0  0
   58.6223   31.9902   49.6546 H   0  0  0  0  0  0  0  0  0  0  0  0
   57.3861   33.0770   50.4676 H   0  0  0  0  0  0  0  0  0  0  0  0
   58.8172   34.1726   53.0995 H   0  0  0  0  0  0  0  0  0  0  0  0
   59.4845   35.0188   51.6623 H   0  0  0  0  0  0  0  0  0  0  0  0
   57.7780   34.4579   51.6623 H   0  0  0  0  0  0  0  0  0  0  0  0
   60.1489   32.6808   53.3168 H   0  0  0  0  0  0  0  0  0  0  0  0
   58.9654   31.3905   52.8350 H   0  0  0  0  0  0  0  0  0  0  0  0
   61.5262   30.8334   52.8280 H   0  0  0  0  0  0  0  0  0  0  0  0
   60.4913   30.3181   51.4379 H   0  0  0  0  0  0  0  0  0  0  0  0
   61.1640   32.5490   50.4740 H   0  0  0  0  0  0  0  0  0  0  0  0
   62.9604   31.6207   49.3269 H   0  0  0  0  0  0  0  0  0  0  0  0
   63.2568   30.4677   50.6725 H   0  0  0  0  0  0  0  0  0  0  0  0
   61.9699   28.4759   50.9152 H   0  0  0  0  0  0  0  0  0  0  0  0
   60.4433   26.5400   52.1088 H   0  0  0  0  0  0  0  0  0  0  0  0
   61.1056   25.0883   51.2839 H   0  0  0  0  0  0  0  0  0  0  0  0
   62.0368   26.6243   51.2839 H   0  0  0  0  0  0  0  0  0  0  0  0
   59.0118   27.5294   47.9004 H   0  0  0  0  0  0  0  0  0  0  0  0
   59.1732   27.8928   45.8213 H   0  0  0  0  0  0  0  0  0  0  0  0
   57.8882   28.4329   43.7641 H   0  0  0  0  0  0  0  0  0  0  0  0
   58.0102   32.1354   48.2659 H   0  0  0  0  0  0  0  0  0  0  0  0
   59.7748   32.2135   47.9102 H   0  0  0  0  0  0  0  0  0  0  0  0
   60.9219   33.0191   45.6254 H   0  0  0  0  0  0  0  0  0  0  0  0
   61.6918   34.6548   45.8561 H   0  0  0  0  0  0  0  0  0  0  0  0
   61.6720   32.2657   47.6039 H   0  0  0  0  0  0  0  0  0  0  0  0
   63.8541   32.7687   46.9843 H   0  0  0  0  0  0  0  0  0  0  0  0
   63.5786   34.4859   46.8186 H   0  0  0  0  0  0  0  0  0  0  0  0
   64.0366   32.8235   49.3163 H   0  0  0  0  0  0  0  0  0  0  0  0
   64.5868   34.4579   49.0133 H   0  0  0  0  0  0  0  0  0  0  0  0
   62.3370   33.8271   50.5162 H   0  0  0  0  0  0  0  0  0  0  0  0
   62.5228   35.3888   49.6466 H   0  0  0  0  0  0  0  0  0  0  0  0
   56.4885   33.5674   46.8276 H   0  0  0  0  0  0  0  0  0  0  0  0
   57.2438   34.8784   45.8706 H   0  0  0  0  0  0  0  0  0  0  0  0
   56.3066   32.8531   44.5609 H   0  0  0  0  0  0  0  0  0  0  0  0
   58.0168   33.3672   44.2054 H   0  0  0  0  0  0  0  0  0  0  0  0
   60.8994   31.4260   47.9361 H   0  0  0  0  0  0  0  0  0  0  0  0
  1  2  1  0
  2  3  1  0
  3  4  1  0
  3  5  1  0
  5  6  1  0
  6  7  1  0
  7  8  1  0
  8  9  1  0
  9 10  2  0
 10 11  1  0
 11 12  1  0
 12 13  1  0
 11 14  2  0
 14 15  1  0
 15 16  1  0
 16 17  2  0
 17 18  1  0
 18 19  2  0
 19 20  1  0
 19 21  1  0
 21 22  2  0
 22 23  1  0
 23 24  1  0
 24 25  1  0
 25 26  2  0
 25 27  1  0
 27 28  1  0
 28 29  1  0
 29 30  1  0
 30 31  1  0
 31 32  1  0
 24 33  1  0
 33 34  1  0
 15 35  2  0
 35  9  1  0
 22 16  1  0
 32 28  1  0
 34 21  1  0
  1 36  1  0
  1 37  1  0
  1 38  1  0
  2 39  1  0
  2 40  1  0
  4 41  1  0
  4 42  1  0
  4 43  1  0
  5 44  1  0
  5 45  1  0
  6 46  1  0
  6 47  1  0
  7 48  1  0
  8 49  1  0
  8 50  1  0
 10 51  1  0
 13 52  1  0
 13 53  1  0
 13 54  1  0
 14 55  1  0
 17 56  1  0
 18 57  1  0
 23 58  1  0
 23 59  1  0
 27 60  1  0
 27 61  1  0
 28 62  1  1
 29 63  1  0
 29 64  1  0
 30 65  1  0
 30 66  1  0
 31 67  1  0
 31 68  1  0
 33 69  1  0
 33 70  1  0
 34 71  1  0
 34 72  1  0
 35 73  1  0
M  END
>  <UniqueID>  (2) 
2

>  <SMILES>  (2) 
CCN(C)CCNCc1cc(OC)cc(-c2ccc(F)c3c2CN(C(=O)C[C@H]2CCCO2)CC3)c1

>  <Energy>  (2) 
85.85784851821862

>  <Genealogy>  (2) 
CCN(C)CCNCc1cc(OC)cc(-c2ccc(F)c3c2CN(C(=O)C[C@H]2CCCO2)CC3)c1 (chirality)
CCN(C)CCNCc1cc(OC)cc(-c2ccc(F)c3c2CN(C(=O)C[C@H]2CCCO2)CC3)c1 (3D coordinates assigned)
CCN(C)CCNCc1cc(OC)cc(-c2ccc(F)c3c2CN(C(=O)C[C@H]2CCCO2)CC3)c1 (nonaromatic ring conformer: 85.85784851821862 kcal/mol)

>  <smiles>  (2) 
CCN(C)CCNCc1cc(OC)cc(-c2ccc(F)c3c2CN(C(=O)CC2CCCO2)CC3)c1

>  <score_type>  (2) 
oracle

>  <origin>  (2) 
adg

>  <m_score__min__energy>  (2) 
-8.6999999999999993

>  <m_primary>  (2) 
energy

$$$$
2:0
     RDKit          3D

 78 81  0  0  0  0  0  0  0  0999 V2000
   61.9110   31.1040   47.2100 C   0  0  0  0  0  0  0  0  0  0  0  0
   62.9750   32.2020   47.3100 C   0  0  0  0  0  0  0  0  0  0  0  0
   63.7260   32.1440   48.5920 N   0  0  0  0  0  0  0  0  0  0  0  0
   63.1110   31.2020   49.5660 C   0  0  0  0  0  0  0  0  0  0  0  0
   63.8800   31.0390   50.8800 C   0  0  0  0  0  0  0  0  0  0  0  0
   64.0750   33.4660   49.1950 C   0  0  0  0  0  0  0  0  0  0  0  0
   63.0310   34.5900   49.0010 C   0  0  0  0  0  0  0  0  0  0  0  0
   62.0660   34.5990   50.1020 N   0  0  0  0  0  0  0  0  0  0  0  0
   61.0100   33.6260   50.1970 C   0  0  0  0  0  0  0  0  0  0  0  0
   60.8450   32.8870   51.3800 C   0  0  0  0  0  0  0  0  0  0  0  0
   61.6700   33.1240   52.5000 C   0  0  0  0  0  0  0  0  0  0  0  0
   61.5590   32.3400   53.6460 C   0  0  0  0  0  0  0  0  0  0  0  0
   60.6390   31.3000   53.6900 C   0  0  0  0  0  0  0  0  0  0  0  0
   59.8010   31.0580   52.6020 C   0  0  0  0  0  0  0  0  0  0  0  0
   59.8560   31.8680   51.4380 C   0  0  0  0  0  0  0  0  0  0  0  0
   58.9960   31.6730   50.3720 N   0  0  0  0  0  0  0  0  0  0  0  0
   57.7990   30.8170   50.5360 C   0  0  0  0  0  0  0  0  0  0  0  0
   59.2280   32.3130   49.1670 C   0  0  0  0  0  0  0  0  0  0  0  0
   58.5290   31.9540   47.9860 C   0  0  0  0  0  0  0  0  0  0  0  0
   58.6990   32.6630   46.7850 C   0  0  0  0  0  0  0  0  0  0  0  0
   57.9930   32.3080   45.6130 C   0  0  0  0  0  0  0  0  0  0  0  0
   57.1520   31.1900   45.5870 O   0  0  0  0  0  0  0  0  0  0  0  0
   57.2540   30.1840   44.5790 C   0  0  0  0  0  0  0  0  0  0  0  0
   57.4550   28.8050   45.2120 C   0  0  0  0  0  0  0  0  0  0  0  0
   58.6390   28.0660   44.5740 C   0  0  0  0  0  0  0  0  0  0  0  0
   59.8020   28.0550   45.4880 N   0  0  0  0  0  0  0  0  0  0  0  0
   60.9680   28.7130   44.8720 C   0  0  0  0  0  0  0  0  0  0  0  0
   59.4650   28.7400   46.7470 C   0  0  0  0  0  0  0  0  0  0  0  0
   58.1150   33.0850   44.4500 C   0  0  0  0  0  0  0  0  0  0  0  0
   57.3690   32.7180   43.3190 O   0  0  0  0  0  0  0  0  0  0  0  0
   57.9320   32.3350   42.0700 C   0  0  0  0  0  0  0  0  0  0  0  0
   58.9790   34.1950   44.4460 C   0  0  0  0  0  0  0  0  0  0  0  0
   59.7040   34.5280   45.5890 C   0  0  0  0  0  0  0  0  0  0  0  0
   59.5700   33.7720   46.7610 C   0  0  0  0  0  0  0  0  0  0  0  0
   60.3050   34.1050   47.9020 C   0  0  0  0  0  0  0  0  0  0  0  0
   60.1920   33.3510   49.0850 C   0  0  0  0  0  0  0  0  0  0  0  0
   61.6093   30.7926   48.2209 H   0  0  0  0  0  0  0  0  0  0  0  0
   61.0349   31.4906   46.6686 H   0  0  0  0  0  0  0  0  0  0  0  0
   62.3249   30.2405   46.6686 H   0  0  0  0  0  0  0  0  0  0  0  0
   63.6850   32.0835   46.4783 H   0  0  0  0  0  0  0  0  0  0  0  0
   62.4616   33.1737   47.2641 H   0  0  0  0  0  0  0  0  0  0  0  0
   64.6440   31.6940   48.3640 H   0  0  0  0  0  0  0  0  0  0  0  0
   62.1014   31.5679   49.8043 H   0  0  0  0  0  0  0  0  0  0  0  0
   63.1137   30.2138   49.0828 H   0  0  0  0  0  0  0  0  0  0  0  0
   63.1935   31.1845   51.7271 H   0  0  0  0  0  0  0  0  0  0  0  0
   64.3132   30.0291   50.9284 H   0  0  0  0  0  0  0  0  0  0  0  0
   64.6857   31.7863   50.9284 H   0  0  0  0  0  0  0  0  0  0  0  0
   64.2145   33.3177   50.2760 H   0  0  0  0  0  0  0  0  0  0  0  0
   64.9802   33.8047   48.6697 H   0  0  0  0  0  0  0  0  0  0  0  0
   63.5480   35.5603   48.9666 H   0  0  0  0  0  0  0  0  0  0  0  0
   62.4905   34.4105   48.0599 H   0  0  0  0  0  0  0  0  0  0  0  0
   62.2030   35.2730   50.8890 H   0  0  0  0  0  0  0  0  0  0  0  0
   62.4096   33.9376   52.4677 H   0  0  0  0  0  0  0  0  0  0  0  0
   62.1999   32.5444   54.5163 H   0  0  0  0  0  0  0  0  0  0  0  0
   60.5714   30.6654   54.5859 H   0  0  0  0  0  0  0  0  0  0  0  0
   59.0846   30.2245   52.6468 H   0  0  0  0  0  0  0  0  0  0  0  0
   57.5960   30.6718   51.6073 H   0  0  0  0  0  0  0  0  0  0  0  0
   56.9334   31.3022   50.0613 H   0  0  0  0  0  0  0  0  0  0  0  0
   57.9783   29.8411   50.0613 H   0  0  0  0  0  0  0  0  0  0  0  0
   57.8368   31.0995   48.0111 H   0  0  0  0  0  0  0  0  0  0  0  0
   56.3306   30.1762   43.9814 H   0  0  0  0  0  0  0  0  0  0  0  0
   58.1197   30.4099   43.9391 H   0  0  0  0  0  0  0  0  0  0  0  0
   57.6478   28.9292   46.2878 H   0  0  0  0  0  0  0  0  0  0  0  0
   56.5444   28.2106   45.0459 H   0  0  0  0  0  0  0  0  0  0  0  0
   58.3422   27.0297   44.3548 H   0  0  0  0  0  0  0  0  0  0  0  0
   58.9225   28.5859   43.6470 H   0  0  0  0  0  0  0  0  0  0  0  0
   61.6356   29.0897   45.6609 H   0  0  0  0  0  0  0  0  0  0  0  0
   61.5107   27.9880   44.2477 H   0  0  0  0  0  0  0  0  0  0  0  0
   60.6279   29.5524   44.2477 H   0  0  0  0  0  0  0  0  0  0  0  0
   59.7725   28.1149   47.5982 H   0  0  0  0  0  0  0  0  0  0  0  0
   59.9912   29.7049   46.7917 H   0  0  0  0  0  0  0  0  0  0  0  0
   58.3794   28.9120   46.7917 H   0  0  0  0  0  0  0  0  0  0  0  0
   58.8300   31.7241   42.2445 H   0  0  0  0  0  0  0  0  0  0  0  0
   57.1955   31.7498   41.4999 H   0  0  0  0  0  0  0  0  0  0  0  0
   58.2059   33.2350   41.4999 H   0  0  0  0  0  0  0  0  0  0  0  0
   59.0831   34.8037   43.5357 H   0  0  0  0  0  0  0  0  0  0  0  0
   60.3863   35.3906   45.5707 H   0  0  0  0  0  0  0  0  0  0  0  0
   60.9831   34.9707   47.8750 H   0  0  0  0  0  0  0  0  0  0  0  0
  1  2  1  0
  2  3  1  0
  3  4  1  0
  4  5  1  0
  3  6  1  0
  6  7  1  0
  7  8  1  0
  8  9  1  0
  9 10  2  0
 10 11  1  0
 11 12  2  0
 12 13  1  0
 13 14  2  0
 14 15  1  0
 15 16  2  0
 16 17  1  0
 16 18  1  0
 18 19  2  0
 19 20  1  0
 20 21  2  0
 21 22  1  0
 22 23  1  0
 23 24  1  0
 24 25  1  0
 25 26  1  0
 26 27  1  0
 26 28  1  0
 21 29  1  0
 29 30  1  0
 30 31  1  0
 29 32  2  0
 32 33  1  0
 33 34  2  0
 34 35  1  0
 35 36  2  0
 36  9  1  0
 15 10  1  0
 36 18  1  0
 34 20  1  0
  1 37  1  0
  1 38  1  0
  1 39  1  0
  2 40  1  0
  2 41  1  0
  3 42  1  0
  4 43  1  0
  4 44  1  0
  5 45  1  0
  5 46  1  0
  5 47  1  0
  6 48  1  0
  6 49  1  0
  7 50  1  0
  7 51  1  0
  8 52  1  0
 11 53  1  0
 12 54  1  0
 13 55  1  0
 14 56  1  0
 17 57  1  0
 17 58  1  0
 17 59  1  0
 19 60  1  0
 23 61  1  0
 23 62  1  0
 24 63  1  0
 24 64  1  0
 25 65  1  0
 25 66  1  0
 27 67  1  0
 27 68  1  0
 27 69  1  0
 28 70  1  0
 28 71  1  0
 28 72  1  0
 31 73  1  0
 31 74  1  0
 31 75  1  0
 32 76  1  0
 33 77  1  0
 35 78  1  0
M  CHG  2   3   1  16   1
M  END
>  <UniqueID>  (3) 
3

>  <SMILES>  (3) 
CC[NH+](CC)CCNc1c2ccccc2[n+](C)c2cc3c(OCCCN(C)C)c(OC)ccc3cc12

>  <Energy>  (3) 
118.32867492876109

>  <Genealogy>  (3) 
CC[NH+](CC)CCNc1c2ccccc2[n+](C)c2cc3c(OCCCN(C)C)c(OC)ccc3cc12 (protonated)
CC[NH+](CC)CCNc1c2ccccc2[n+](C)c2cc3c(OCCCN(C)C)c(OC)ccc3cc12 (3D coordinates assigned)
CC[NH+](CC)CCNc1c2ccccc2[n+](C)c2cc3c(OCCCN(C)C)c(OC)ccc3cc12 (optimized conformer: 118.32867492876109 kcal/mol)

>  <smiles>  (3) 
CCN(CC)CCNc1c2ccccc2[n+](C)c2cc3c(OCCCN(C)C)c(OC)ccc3cc12

>  <score_type>  (3) 
oracle

>  <origin>  (3) 
adg

>  <m_score__min__energy>  (3) 
-5.0300000000000002

>  <m_primary>  (3) 
energy

$$$$
3:0
     RDKit          3D

 34 35  0  0  0  0  0  0  0  0999 V2000
   57.7690   31.9750   42.7230 Br  0  0  0  0  0  0  0  0  0  0  0  0
   56.5310   30.4850   42.5870 C   0  0  0  0  0  0  0  0  0  0  0  0
   56.6600   29.5380   43.7880 C   0  0  0  0  0  0  0  0  0  0  0  0
   57.5700   28.4030   43.5230 N   0  0  0  0  0  0  0  0  0  0  0  0
   58.5530   28.1890   44.6050 C   0  0  0  0  0  0  0  0  0  0  0  0
   59.2050   29.5030   45.0610 C   0  0  0  0  0  0  0  0  0  0  0  0
   58.4960   30.0800   46.6450 S   0  0  0  0  0  0  0  0  0  0  0  0
   59.1010   31.7750   46.4970 C   0  0  0  0  0  0  0  0  0  0  0  0
   58.1860   32.7690   46.1270 C   0  0  0  0  0  0  0  0  0  0  0  0
   58.5960   34.0940   45.9770 C   0  0  0  0  0  0  0  0  0  0  0  0
   59.9260   34.4480   46.2060 C   0  0  0  0  0  0  0  0  0  0  0  0
   60.8580   33.4760   46.5970 C   0  0  0  0  0  0  0  0  0  0  0  0
   62.1930   33.8370   46.8370 C   0  0  0  0  0  0  0  0  0  0  0  0
   63.1210   32.8750   47.2380 C   0  0  0  0  0  0  0  0  0  0  0  0
   62.7260   31.5480   47.4070 C   0  0  0  0  0  0  0  0  0  0  0  0
   61.4010   31.1720   47.1740 C   0  0  0  0  0  0  0  0  0  0  0  0
   60.4490   32.1240   46.7570 C   0  0  0  0  0  0  0  0  0  0  0  0
   55.5035   30.8759   42.5482 H   0  0  0  0  0  0  0  0  0  0  0  0
   56.7685   29.9199   41.6736 H   0  0  0  0  0  0  0  0  0  0  0  0
   57.0478   30.1075   44.6455 H   0  0  0  0  0  0  0  0  0  0  0  0
   55.6621   29.1235   43.9937 H   0  0  0  0  0  0  0  0  0  0  0  0
   57.0000   27.5350   43.3890 H   0  0  0  0  0  0  0  0  0  0  0  0
   58.0860   28.5620   42.6280 H   0  0  0  0  0  0  0  0  0  0  0  0
   58.0411   27.7303   45.4638 H   0  0  0  0  0  0  0  0  0  0  0  0
   59.3467   27.5336   44.2171 H   0  0  0  0  0  0  0  0  0  0  0  0
   60.2855   29.3415   45.1895 H   0  0  0  0  0  0  0  0  0  0  0  0
   59.0151   30.2695   44.2952 H   0  0  0  0  0  0  0  0  0  0  0  0
   57.1332   32.5020   45.9529 H   0  0  0  0  0  0  0  0  0  0  0  0
   57.8682   34.8623   45.6771 H   0  0  0  0  0  0  0  0  0  0  0  0
   60.2446   35.4932   46.0794 H   0  0  0  0  0  0  0  0  0  0  0  0
   62.5091   34.8827   46.7084 H   0  0  0  0  0  0  0  0  0  0  0  0
   64.1664   33.1639   47.4212 H   0  0  0  0  0  0  0  0  0  0  0  0
   63.4612   30.7942   47.7252 H   0  0  0  0  0  0  0  0  0  0  0  0
   61.0981   30.1243   47.3172 H   0  0  0  0  0  0  0  0  0  0  0  0
  1  2  1  0
  2  3  1  0
  3  4  1  0
  4  5  1  0
  5  6  1  0
  6  7  1  0
  7  8  1  0
  8  9  2  0
  9 10  1  0
 10 11  2  0
 11 12  1  0
 12 13  2  0
 13 14  1  0
 14 15  2  0
 15 16  1  0
 16 17  2  0
 17  8  1  0
 17 12  1  0
  2 18  1  0
  2 19  1  0
  3 20  1  0
  3 21  1  0
  4 22  1  0
  4 23  1  0
  5 24  1  0
  5 25  1  0
  6 26  1  0
  6 27  1  0
  9 28  1  0
 10 29  1  0
 11 30  1  0
 13 31  1  0
 14 32  1  0
 15 33  1  0
 16 34  1  0
M  CHG  1   4   1
M  END
>  <UniqueID>  (4) 
4

>  <SMILES>  (4) 
BrCC[NH2+]CCSc1cccc2ccccc12

>  <Energy>  (4) 
33.221020218554514

>  <Genealogy>  (4) 
BrCC[NH2+]CCSc1cccc2ccccc12 (protonated)
BrCC[NH2+]CCSc1cccc2ccccc12 (3D coordinates assigned)
BrCC[NH2+]CCSc1cccc2ccccc12 (optimized conformer: 33.221020218554514 kcal/mol)

>  <smiles>  (4) 
BrCCNCCSc1cccc2ccccc12

>  <score_type>  (4) 
oracle

>  <origin>  (4) 
adg

>  <m_score__min__energy>  (4) 
-5.4100000000000001

>  <m_primary>  (4) 
energy

$$$$
4:0
     RDKit          3D

 54 57  0  0  0  0  0  0  0  0999 V2000
   62.7250   31.3090   50.3740 C   0  0  0  0  0  0  0  0  0  0  0  0
   63.7170   32.1550   49.8390 O   0  0  0  0  0  0  0  0  0  0  0  0
   63.6880   32.0830   48.4300 C   0  0  0  0  0  0  0  0  0  0  0  0
   62.3640   31.4680   47.9270 C   0  0  0  0  0  0  0  0  0  0  0  0
   61.4060   32.3680   47.2160 N   0  0  0  0  0  0  0  0  0  0  0  0
   61.6700   33.8200   47.3560 C   0  0  0  0  0  0  0  0  0  0  0  0
   60.8300   34.5250   48.4680 C   0  0  0  0  0  0  0  0  0  0  0  0
   59.9670   33.5960   49.2980 C   0  0  0  0  0  0  0  0  0  0  0  0
   59.6200   33.9580   50.6170 C   0  0  0  0  0  0  0  0  0  0  0  0
   58.9250   33.0320   51.3860 C   0  0  0  0  0  0  0  0  0  0  0  0
   58.5800   31.8120   50.9070 C   0  0  0  0  0  0  0  0  0  0  0  0
   58.8810   31.4160   49.6080 C   0  0  0  0  0  0  0  0  0  0  0  0
   59.5400   32.3470   48.7660 C   0  0  0  0  0  0  0  0  0  0  0  0
   59.9610   32.0660   47.3410 C   0  0  2  0  0  0  0  0  0  0  0  0
   59.5200   30.7500   46.6920 C   0  0  0  0  0  0  0  0  0  0  0  0
   60.4490   29.7690   46.2920 C   0  0  0  0  0  0  0  0  0  0  0  0
   60.0280   28.6110   45.6350 C   0  0  0  0  0  0  0  0  0  0  0  0
   58.6780   28.4390   45.2880 C   0  0  0  0  0  0  0  0  0  0  0  0
   58.2150   27.2800   44.6440 O   0  0  0  0  0  0  0  0  0  0  0  0
   58.1490   27.1140   43.2310 C   0  0  0  0  0  0  0  0  0  0  0  0
   57.7630   29.4640   45.5650 C   0  0  0  0  0  0  0  0  0  0  0  0
   56.3880   29.2900   45.1870 N   0  0  0  0  0  0  0  0  0  0  0  0
   55.7860   29.6810   43.9450 C   0  0  0  0  0  0  0  0  0  0  0  0
   56.5430   30.4390   42.8980 C   0  0  0  0  0  0  0  0  0  0  0  0
   54.5970   29.3410   43.7130 O   0  0  0  0  0  0  0  0  0  0  0  0
   58.1890   30.6100   46.2550 C   0  0  0  0  0  0  0  0  0  0  0  0
   57.9350   31.0940   51.8950 O   0  0  0  0  0  0  0  0  0  0  0  0
   57.8630   31.9190   53.0660 C   0  0  0  0  0  0  0  0  0  0  0  0
   58.5080   33.1460   52.6990 O   0  0  0  0  0  0  0  0  0  0  0  0
   62.7665   31.3444   51.4726 H   0  0  0  0  0  0  0  0  0  0  0  0
   61.7343   31.6445   50.0335 H   0  0  0  0  0  0  0  0  0  0  0  0
   62.8999   30.2778   50.0335 H   0  0  0  0  0  0  0  0  0  0  0  0
   63.7916   33.0973   48.0171 H   0  0  0  0  0  0  0  0  0  0  0  0
   64.5173   31.4411   48.0979 H   0  0  0  0  0  0  0  0  0  0  0  0
   62.6224   30.6518   47.2363 H   0  0  0  0  0  0  0  0  0  0  0  0
   61.8335   31.1641   48.8414 H   0  0  0  0  0  0  0  0  0  0  0  0
   62.7358   33.9545   47.5928 H   0  0  0  0  0  0  0  0  0  0  0  0
   61.3803   34.2848   46.4020 H   0  0  0  0  0  0  0  0  0  0  0  0
   61.5251   35.0427   49.1454 H   0  0  0  0  0  0  0  0  0  0  0  0
   60.1404   35.2072   47.9493 H   0  0  0  0  0  0  0  0  0  0  0  0
   59.8913   34.9432   51.0243 H   0  0  0  0  0  0  0  0  0  0  0  0
   58.6160   30.4119   49.2454 H   0  0  0  0  0  0  0  0  0  0  0  0
   59.3681   32.7460   46.7116 H   0  0  0  0  0  0  0  0  0  0  0  0
   61.5190   29.9172   46.4998 H   0  0  0  0  0  0  0  0  0  0  0  0
   60.7593   27.8275   45.3873 H   0  0  0  0  0  0  0  0  0  0  0  0
   57.7519   26.1152   42.9973 H   0  0  0  0  0  0  0  0  0  0  0  0
   57.4875   27.8811   42.8022 H   0  0  0  0  0  0  0  0  0  0  0  0
   59.1567   27.2175   42.8022 H   0  0  0  0  0  0  0  0  0  0  0  0
   57.2405   31.1375   43.3834 H   0  0  0  0  0  0  0  0  0  0  0  0
   57.1077   29.7334   42.2709 H   0  0  0  0  0  0  0  0  0  0  0  0
   55.8367   31.0028   42.2709 H   0  0  0  0  0  0  0  0  0  0  0  0
   57.4678   31.4153   46.4584 H   0  0  0  0  0  0  0  0  0  0  0  0
   56.8150   32.1022   53.3454 H   0  0  0  0  0  0  0  0  0  0  0  0
   58.3434   31.4446   53.9344 H   0  0  0  0  0  0  0  0  0  0  0  0
  1  2  1  0
  2  3  1  0
  3  4  1  0
  4  5  1  0
  5  6  1  0
  6  7  1  0
  7  8  1  0
  8  9  2  0
  9 10  1  0
 10 11  2  0
 11 12  1  0
 12 13  2  0
 13 14  1  0
 14 15  1  0
 15 16  2  0
 16 17  1  0
 17 18  2  0
 18 19  1  0
 19 20  1  0
 18 21  1  0
 21 22  1  0
 22 23  1  0
 23 24  1  0
 23 25  2  0
 21 26  2  0
 11 27  1  0
 27 28  1  0
 28 29  1  0
 14  5  1  0
 26 15  1  0
 13  8  1  0
 29 10  1  0
  1 30  1  0
  1 31  1  0
  1 32  1  0
  3 33  1  0
  3 34  1  0
  4 35  1  0
  4 36  1  0
  6 37  1  0
  6 38  1  0
  7 39  1  0
  7 40  1  0
  9 41  1  0
 12 42  1  0
 14 43  1  6
 16 44  1  0
 17 45  1  0
 20 46  1  0
 20 47  1  0
 20 48  1  0
 24 49  1  0
 24 50  1  0
 24 51  1  0
 26 52  1  0
 28 53  1  0
 28 54  1  0
M  CHG  1  22  -1
M  END
>  <UniqueID>  (5) 
5

>  <SMILES>  (5) 
COCCN1CCc2cc3c(cc2[C@@H]1c1ccc(OC)c([N-]C(C)=O)c1)OCO3

>  <Energy>  (5) 
117.79816425775316

>  <Genealogy>  (5) 
COCCN1CCc2cc3c(cc2C1c1ccc(OC)c([N-]C(C)=O)c1)OCO3 (protonated)
COCCN1CCc2cc3c(cc2[C@@H]1c1ccc(OC)c([N-]C(C)=O)c1)OCO3 (chirality)
COCCN1CCc2cc3c(cc2[C@@H]1c1ccc(OC)c([N-]C(C)=O)c1)OCO3 (3D coordinates assigned)
COCCN1CCc2cc3c(cc2[C@@H]1c1ccc(OC)c([N-]C(C)=O)c1)OCO3 (nonaromatic ring conformer: 117.79816425775316 kcal/mol)

>  <smiles>  (5) 
COCCN1CCc2cc3c(cc2C1c1ccc(OC)c(NC(C)=O)c1)OCO3

>  <score_type>  (5) 
oracle

>  <origin>  (5) 
adg

>  <m_score__min__energy>  (5) 
-10.02

>  <m_primary>  (5) 
energy

$$$$
5:0
     RDKit          3D

 35 36  0  0  0  0  0  0  0  0999 V2000
   63.4070   33.7460   47.2940 C   0  0  0  0  0  0  0  0  0  0  0  0
   62.4700   33.9080   48.4800 C   0  0  0  0  0  0  0  0  0  0  0  0
   61.2530   34.5110   48.0460 O   0  0  0  0  0  0  0  0  0  0  0  0
   60.2440   33.8380   47.3440 C   0  0  0  0  0  0  0  0  0  0  0  0
   59.1040   34.5700   46.9450 C   0  0  0  0  0  0  0  0  0  0  0  0
   58.0600   33.9510   46.2390 C   0  0  0  0  0  0  0  0  0  0  0  0
   58.1670   32.5940   45.9340 C   0  0  0  0  0  0  0  0  0  0  0  0
   57.2280   31.8840   45.2590 N   0  0  0  0  0  0  0  0  0  0  0  0
   57.6150   30.5950   45.1090 C   0  0  0  0  0  0  0  0  0  0  0  0
   56.6350   29.3780   44.3030 S   0  0  0  0  0  0  0  0  0  0  0  0
   56.5920   29.6850   42.8320 O   0  0  0  0  0  0  0  0  0  0  0  0
   55.2340   29.4700   44.8400 O   0  0  0  0  0  0  0  0  0  0  0  0
   57.2310   27.7530   44.5630 N   0  0  0  0  0  0  0  0  0  0  0  0
   57.3790   27.4510   45.9920 C   0  0  0  0  0  0  0  0  0  0  0  0
   58.4310   27.4250   43.7650 C   0  0  0  0  0  0  0  0  0  0  0  0
   58.1410   26.7190   42.4350 C   0  0  0  0  0  0  0  0  0  0  0  0
   59.1220   30.2850   45.8190 S   0  0  0  0  0  0  0  0  0  0  0  0
   59.2850   31.8770   46.3240 C   0  0  0  0  0  0  0  0  0  0  0  0
   60.3340   32.4620   47.0260 C   0  0  0  0  0  0  0  0  0  0  0  0
   64.4303   33.5691   47.6567 H   0  0  0  0  0  0  0  0  0  0  0  0
   63.0813   32.8908   46.6836 H   0  0  0  0  0  0  0  0  0  0  0  0
   63.3874   34.6609   46.6836 H   0  0  0  0  0  0  0  0  0  0  0  0
   62.2552   32.9208   48.9150 H   0  0  0  0  0  0  0  0  0  0  0  0
   62.9457   34.5474   49.2382 H   0  0  0  0  0  0  0  0  0  0  0  0
   59.0330   35.6399   47.1907 H   0  0  0  0  0  0  0  0  0  0  0  0
   57.1738   34.5257   45.9320 H   0  0  0  0  0  0  0  0  0  0  0  0
   56.9717   28.2821   46.5865 H   0  0  0  0  0  0  0  0  0  0  0  0
   56.8316   26.5271   46.2301 H   0  0  0  0  0  0  0  0  0  0  0  0
   58.4446   27.3176   46.2301 H   0  0  0  0  0  0  0  0  0  0  0  0
   58.9643   28.3620   43.5467 H   0  0  0  0  0  0  0  0  0  0  0  0
   59.0233   26.7213   44.3683 H   0  0  0  0  0  0  0  0  0  0  0  0
   57.7299   25.7181   42.6332 H   0  0  0  0  0  0  0  0  0  0  0  0
   57.4118   27.3075   41.8589 H   0  0  0  0  0  0  0  0  0  0  0  0
   59.0733   26.6249   41.8589 H   0  0  0  0  0  0  0  0  0  0  0  0
   61.2111   31.8700   47.3263 H   0  0  0  0  0  0  0  0  0  0  0  0
  1  2  1  0
  2  3  1  0
  3  4  1  0
  4  5  2  0
  5  6  1  0
  6  7  2  0
  7  8  1  0
  8  9  2  0
  9 10  1  0
 10 11  2  0
 10 12  2  0
 10 13  1  0
 13 14  1  0
 13 15  1  0
 15 16  1  0
  9 17  1  0
 17 18  1  0
 18 19  2  0
 19  4  1  0
 18  7  1  0
  1 20  1  0
  1 21  1  0
  1 22  1  0
  2 23  1  0
  2 24  1  0
  5 25  1  0
  6 26  1  0
 14 27  1  0
 14 28  1  0
 14 29  1  0
 15 30  1  0
 15 31  1  0
 16 32  1  0
 16 33  1  0
 16 34  1  0
 19 35  1  0
M  END
>  <UniqueID>  (6) 
6

>  <SMILES>  (6) 
CCOc1ccc2nc(S(=O)(=O)N(C)CC)sc2c1

>  <Energy>  (6) 
66.42676625843566

>  <Genealogy>  (6) 
CCOc1ccc2nc(S(=O)(=O)N(C)CC)sc2c1 (3D coordinates assigned)
CCOc1ccc2nc(S(=O)(=O)N(C)CC)sc2c1 (optimized conformer: 66.42676625843566 kcal/mol)

>  <smiles>  (6) 
CCOc1ccc2nc(S(=O)(=O)N(C)CC)sc2c1

>  <score_type>  (6) 
oracle

>  <origin>  (6) 
adg

>  <m_score__min__energy>  (6) 
-6.9500000000000002

>  <m_primary>  (6) 
energy

$$$$
6:0
     RDKit          3D

 44 45  0  0  0  0  0  0  0  0999 V2000
   56.1060   30.1030   43.7330 C   0  0  0  0  0  0  0  0  0  0  0  0
   57.4850   30.6060   44.1620 C   0  0  0  0  0  0  0  0  0  0  0  0
   57.8950   30.1030   45.5560 C   0  0  0  0  0  0  0  0  0  0  0  0
   59.4100   29.8740   45.6810 C   0  0  0  0  0  0  0  0  0  0  0  0
   59.9600   30.6410   46.8110 N   0  0  0  0  0  0  0  0  0  0  0  0
   61.4220   30.4940   46.9190 C   0  0  0  0  0  0  0  0  0  0  0  0
   62.0680   31.6960   47.5760 C   0  0  0  0  0  0  0  0  0  0  0  0
   63.4050   32.0110   47.2830 C   0  0  0  0  0  0  0  0  0  0  0  0
   64.0230   33.1050   47.8900 C   0  0  0  0  0  0  0  0  0  0  0  0
   63.3160   33.8930   48.7980 C   0  0  0  0  0  0  0  0  0  0  0  0
   61.9870   33.5890   49.1020 C   0  0  0  0  0  0  0  0  0  0  0  0
   61.3480   32.4900   48.4930 C   0  0  0  0  0  0  0  0  0  0  0  0
   60.0110   32.1550   48.7760 O   0  0  0  0  0  0  0  0  0  0  0  0
   58.9140   33.0690   48.8020 C   0  0  0  0  0  0  0  0  0  0  0  0
   58.6260   33.5960   47.4220 C   0  0  0  0  0  0  0  0  0  0  0  0
   59.5350   34.4530   46.7790 C   0  0  0  0  0  0  0  0  0  0  0  0
   59.2550   34.9470   45.5010 C   0  0  0  0  0  0  0  0  0  0  0  0
   58.0640   34.5960   44.8600 C   0  0  0  0  0  0  0  0  0  0  0  0
   57.1490   33.7540   45.4970 C   0  0  0  0  0  0  0  0  0  0  0  0
   57.4240   33.2580   46.7750 C   0  0  0  0  0  0  0  0  0  0  0  0
   55.5021   29.8827   44.6256 H   0  0  0  0  0  0  0  0  0  0  0  0
   55.6042   30.8760   43.1324 H   0  0  0  0  0  0  0  0  0  0  0  0
   56.2198   29.1885   43.1324 H   0  0  0  0  0  0  0  0  0  0  0  0
   58.2292   30.2589   43.4301 H   0  0  0  0  0  0  0  0  0  0  0  0
   57.4382   31.7041   44.2064 H   0  0  0  0  0  0  0  0  0  0  0  0
   57.5888   30.8494   46.3038 H   0  0  0  0  0  0  0  0  0  0  0  0
   57.3976   29.1357   45.7203 H   0  0  0  0  0  0  0  0  0  0  0  0
   59.6012   28.8031   45.8442 H   0  0  0  0  0  0  0  0  0  0  0  0
   59.8967   30.2113   44.7540 H   0  0  0  0  0  0  0  0  0  0  0  0
   59.7500   31.6570   46.6680 H   0  0  0  0  0  0  0  0  0  0  0  0
   59.5030   30.3350   47.7030 H   0  0  0  0  0  0  0  0  0  0  0  0
   61.6453   29.5992   47.5186 H   0  0  0  0  0  0  0  0  0  0  0  0
   61.8297   30.4041   45.9013 H   0  0  0  0  0  0  0  0  0  0  0  0
   63.9687   31.3912   46.5703 H   0  0  0  0  0  0  0  0  0  0  0  0
   65.0695   33.3463   47.6520 H   0  0  0  0  0  0  0  0  0  0  0  0
   63.8055   34.7548   49.2752 H   0  0  0  0  0  0  0  0  0  0  0  0
   61.4352   34.2116   49.8217 H   0  0  0  0  0  0  0  0  0  0  0  0
   58.0218   32.5511   49.1839 H   0  0  0  0  0  0  0  0  0  0  0  0
   59.1744   33.9146   49.4556 H   0  0  0  0  0  0  0  0  0  0  0  0
   60.4708   34.7365   47.2829 H   0  0  0  0  0  0  0  0  0  0  0  0
   59.9731   35.6126   44.9998 H   0  0  0  0  0  0  0  0  0  0  0  0
   57.8467   34.9828   43.8534 H   0  0  0  0  0  0  0  0  0  0  0  0
   56.2106   33.4808   44.9922 H   0  0  0  0  0  0  0  0  0  0  0  0
   56.6977   32.6012   47.2761 H   0  0  0  0  0  0  0  0  0  0  0  0
  1  2  1  0
  2  3  1  0
  3  4  1  0
  4  5  1  0
  5  6  1  0
  6  7  1  0
  7  8  2  0
  8  9  1  0
  9 10  2  0
 10 11  1  0
 11 12  2  0
 12 13  1  0
 13 14  1  0
 14 15  1  0
 15 16  2  0
 16 17  1  0
 17 18  2  0
 18 19  1  0
 19 20  2  0
 12  7  1  0
 20 15  1  0
  1 21  1  0
  1 22  1  0
  1 23  1  0
  2 24  1  0
  2 25  1  0
  3 26  1  0
  3 27  1  0
  4 28  1  0
  4 29  1  0
  5 30  1  0
  5 31  1  0
  6 32  1  0
  6 33  1  0
  8 34  1  0
  9 35  1  0
 10 36  1  0
 11 37  1  0
 14 38  1  0
 14 39  1  0
 16 40  1  0
 17 41  1  0
 18 42  1  0
 19 43  1  0
 20 44  1  0
M  CHG  1   5   1
M  END
>  <UniqueID>  (7) 
7

>  <SMILES>  (7) 
CCCC[NH2+]Cc1ccccc1OCc1ccccc1

>  <Energy>  (7) 
37.3209457588376

>  <Genealogy>  (7) 
CCCC[NH2+]Cc1ccccc1OCc1ccccc1 (protonated)
CCCC[NH2+]Cc1ccccc1OCc1ccccc1 (3D coordinates assigned)
CCCC[NH2+]Cc1ccccc1OCc1ccccc1 (optimized conformer: 37.3209457588376 kcal/mol)

>  <smiles>  (7) 
CCCCNCc1ccccc1OCc1ccccc1

>  <score_type>  (7) 
oracle

>  <origin>  (7) 
adg

>  <m_score__min__energy>  (7) 
-4.6200000000000001

>  <m_primary>  (7) 
energy

$$$$
7:0
     RDKit          3D

 40 42  0  0  0  0  0  0  0  0999 V2000
   59.0430   34.9720   47.1290 C   0  0  0  0  0  0  0  0  0  0  0  0
   58.7990   33.6390   46.4810 C   0  0  0  0  0  0  0  0  0  0  0  0
   59.4380   32.4430   46.8240 C   0  0  0  0  0  0  0  0  0  0  0  0
   60.4680   32.2110   47.8960 C   0  0  0  0  0  0  0  0  0  0  0  0
   61.3480   33.3920   48.0210 N   0  0  0  0  0  0  0  0  0  0  0  0
   61.9890   33.7770   46.7370 C   0  0  0  0  0  0  0  0  0  0  0  0
   63.4940   33.4450   46.6740 C   0  0  0  0  0  0  0  0  0  0  0  0
   63.7770   32.1760   47.3540 N   0  0  0  0  0  0  0  0  0  0  0  0
   63.4220   32.2090   48.7870 C   0  0  0  0  0  0  0  0  0  0  0  0
   62.3240   33.2440   49.1190 C   0  0  0  0  0  0  0  0  0  0  0  0
   58.9040   31.4840   45.9870 C   0  0  0  0  0  0  0  0  0  0  0  0
   59.1820   30.1200   45.8710 C   0  0  0  0  0  0  0  0  0  0  0  0
   58.4770   29.3840   44.9050 C   0  0  0  0  0  0  0  0  0  0  0  0
   57.5210   30.0170   44.0820 C   0  0  0  0  0  0  0  0  0  0  0  0
   57.2590   31.3920   44.2200 C   0  0  0  0  0  0  0  0  0  0  0  0
   57.9680   32.1040   45.1950 C   0  0  0  0  0  0  0  0  0  0  0  0
   57.8750   33.4150   45.5070 N   0  0  0  0  0  0  0  0  0  0  0  0
   57.0100   34.4120   44.8720 C   0  0  0  0  0  0  0  0  0  0  0  0
   59.0220   34.8573   48.2228 H   0  0  0  0  0  0  0  0  0  0  0  0
   60.0263   35.3557   46.8194 H   0  0  0  0  0  0  0  0  0  0  0  0
   58.2594   35.6791   46.8194 H   0  0  0  0  0  0  0  0  0  0  0  0
   59.9604   32.0327   48.8554 H   0  0  0  0  0  0  0  0  0  0  0  0
   61.0772   31.3359   47.6257 H   0  0  0  0  0  0  0  0  0  0  0  0
   61.4806   33.2429   45.9207 H   0  0  0  0  0  0  0  0  0  0  0  0
   61.8955   34.8691   46.6446 H   0  0  0  0  0  0  0  0  0  0  0  0
   63.8021   33.3663   45.6210 H   0  0  0  0  0  0  0  0  0  0  0  0
   64.0532   34.2471   47.1779 H   0  0  0  0  0  0  0  0  0  0  0  0
   63.2570   31.4050   46.8720 H   0  0  0  0  0  0  0  0  0  0  0  0
   64.7990   31.9690   47.2600 H   0  0  0  0  0  0  0  0  0  0  0  0
   63.0627   31.2118   49.0811 H   0  0  0  0  0  0  0  0  0  0  0  0
   64.3259   32.5028   49.3407 H   0  0  0  0  0  0  0  0  0  0  0  0
   61.7918   32.9179   50.0247 H   0  0  0  0  0  0  0  0  0  0  0  0
   62.8122   34.2179   49.2709 H   0  0  0  0  0  0  0  0  0  0  0  0
   59.9303   29.6372   46.5167 H   0  0  0  0  0  0  0  0  0  0  0  0
   58.6710   28.3075   44.7890 H   0  0  0  0  0  0  0  0  0  0  0  0
   56.9768   29.4306   43.3270 H   0  0  0  0  0  0  0  0  0  0  0  0
   56.5181   31.8937   43.5801 H   0  0  0  0  0  0  0  0  0  0  0  0
   56.4988   35.0012   45.6476 H   0  0  0  0  0  0  0  0  0  0  0  0
   57.6192   35.0804   44.2458 H   0  0  0  0  0  0  0  0  0  0  0  0
   56.2624   33.9032   44.2458 H   0  0  0  0  0  0  0  0  0  0  0  0
  1  2  1  0
  2  3  2  0
  3  4  1  0
  4  5  1  0
  5  6  1  0
  6  7  1  0
  7  8  1  0
  8  9  1  0
  9 10  1  0
  3 11  1  0
 11 12  2  0
 12 13  1  0
 13 14  2  0
 14 15  1  0
 15 16  2  0
 16 17  1  0
 17 18  1  0
 17  2  1  0
 10  5  1  0
 16 11  1  0
  1 19  1  0
  1 20  1  0
  1 21  1  0
  4 22  1  0
  4 23  1  0
  6 24  1  0
  6 25  1  0
  7 26  1  0
  7 27  1  0
  8 28  1  0
  8 29  1  0
  9 30  1  0
  9 31  1  0
 10 32  1  0
 10 33  1  0
 12 34  1  0
 13 35  1  0
 14 36  1  0
 15 37  1  0
 18 38  1  0
 18 39  1  0
 18 40  1  0
M  CHG  1   8   1
M  END
>  <UniqueID>  (8) 
8

>  <SMILES>  (8) 
Cc1c(CN2CC[NH2+]CC2)c2ccccc2n1C

>  <Energy>  (8) 
84.23814064300242

>  <Genealogy>  (8) 
Cc1c(CN2CC[NH2+]CC2)c2ccccc2n1C (protonated)
Cc1c(CN2CC[NH2+]CC2)c2ccccc2n1C (3D coordinates assigned)
Cc1c(CN2CC[NH2+]CC2)c2ccccc2n1C (nonaromatic ring conformer: 84.23814064300242 kcal/mol)

>  <smiles>  (8) 
Cc1c(CN2CCNCC2)c2ccccc2n1C

>  <score_type>  (8) 
oracle

>  <origin>  (8) 
adg

>  <m_score__min__energy>  (8) 
-5.6699999999999999

>  <m_primary>  (8) 
energy

$$$$
8:0
     RDKit          3D

 33 34  0  0  0  0  0  0  0  0999 V2000
   57.6170   25.4620   43.3510 C   0  0  0  0  0  0  0  0  0  0  0  0
   58.0400   26.7350   42.6130 C   0  0  0  0  0  0  0  0  0  0  0  0
   57.8640   27.9550   43.4240 N   0  0  0  0  0  0  0  0  0  0  0  0
   58.3020   27.8350   44.8290 C   0  0  0  0  0  0  0  0  0  0  0  0
   57.4230   28.6210   45.8190 C   0  0  0  0  0  0  0  0  0  0  0  0
   56.8130   29.7540   45.1980 O   0  0  0  0  0  0  0  0  0  0  0  0
   57.3910   31.0270   45.0700 C   0  0  0  0  0  0  0  0  0  0  0  0
   57.4610   31.7130   43.8420 C   0  0  0  0  0  0  0  0  0  0  0  0
   58.0480   32.9800   43.7700 C   0  0  0  0  0  0  0  0  0  0  0  0
   58.5760   33.5790   44.9200 C   0  0  0  0  0  0  0  0  0  0  0  0
   59.1660   34.8480   44.8660 C   0  0  0  0  0  0  0  0  0  0  0  0
   59.6840   35.4140   46.0330 C   0  0  0  0  0  0  0  0  0  0  0  0
   59.6150   34.7380   47.2110 N   0  0  0  0  0  0  0  0  0  0  0  0
   59.0490   33.5040   47.2980 C   0  0  0  0  0  0  0  0  0  0  0  0
   58.5150   32.8940   46.1540 C   0  0  0  0  0  0  0  0  0  0  0  0
   57.9260   31.6230   46.2190 C   0  0  0  0  0  0  0  0  0  0  0  0
   57.6733   25.6315   44.4364 H   0  0  0  0  0  0  0  0  0  0  0  0
   56.5846   25.2031   43.0734 H   0  0  0  0  0  0  0  0  0  0  0  0
   58.2892   24.6367   43.0734 H   0  0  0  0  0  0  0  0  0  0  0  0
   59.1017   26.6456   42.3395 H   0  0  0  0  0  0  0  0  0  0  0  0
   57.3954   26.8322   41.7269 H   0  0  0  0  0  0  0  0  0  0  0  0
   58.3990   28.7360   42.9770 H   0  0  0  0  0  0  0  0  0  0  0  0
   56.8530   28.2270   43.4010 H   0  0  0  0  0  0  0  0  0  0  0  0
   58.2779   26.7720   45.1110 H   0  0  0  0  0  0  0  0  0  0  0  0
   59.3143   28.2613   44.8884 H   0  0  0  0  0  0  0  0  0  0  0  0
   56.6344   27.9562   46.2014 H   0  0  0  0  0  0  0  0  0  0  0  0
   58.0646   28.9815   46.6366 H   0  0  0  0  0  0  0  0  0  0  0  0
   57.0509   31.2487   42.9330 H   0  0  0  0  0  0  0  0  0  0  0  0
   58.0951   33.5081   42.8062 H   0  0  0  0  0  0  0  0  0  0  0  0
   59.2209   35.3942   43.9128 H   0  0  0  0  0  0  0  0  0  0  0  0
   60.1494   36.4101   45.9992 H   0  0  0  0  0  0  0  0  0  0  0  0
   59.0102   32.9843   48.2667 H   0  0  0  0  0  0  0  0  0  0  0  0
   57.8838   31.0898   47.1802 H   0  0  0  0  0  0  0  0  0  0  0  0
  1  2  1  0
  2  3  1  0
  3  4  1  0
  4  5  1  0
  5  6  1  0
  6  7  1  0
  7  8  2  0
  8  9  1  0
  9 10  2  0
 10 11  1  0
 11 12  2  0
 12 13  1  0
 13 14  2  0
 14 15  1  0
 15 16  2  0
 16  7  1  0
 15 10  1  0
  1 17  1  0
  1 18  1  0
  1 19  1  0
  2 20  1  0
  2 21  1  0
  3 22  1  0
  3 23  1  0
  4 24  1  0
  4 25  1  0
  5 26  1  0
  5 27  1  0
  8 28  1  0
  9 29  1  0
 11 30  1  0
 12 31  1  0
 14 32  1  0
 16 33  1  0
M  CHG  1   3   1
M  END
>  <UniqueID>  (9) 
9

>  <SMILES>  (9) 
CC[NH2+]CCOc1ccc2ccncc2c1

>  <Energy>  (9) 
35.877884365772864

>  <Genealogy>  (9) 
CC[NH2+]CCOc1ccc2ccncc2c1 (protonated)
CC[NH2+]CCOc1ccc2ccncc2c1 (3D coordinates assigned)
CC[NH2+]CCOc1ccc2ccncc2c1 (optimized conformer: 35.877884365772864 kcal/mol)

>  <smiles>  (9) 
CCNCCOc1ccc2ccncc2c1

>  <score_type>  (9) 
oracle

>  <origin>  (9) 
adg

>  <m_score__min__energy>  (9) 
-4.6500000000000004

>  <m_primary>  (9) 
energy

$$$$
9:0
     RDKit          3D

 46 49  0  0  0  0  0  0  0  0999 V2000
   58.1370   32.4330   43.0500 C   0  0  0  0  0  0  0  0  0  0  0  0
   57.5580   32.3680   44.4730 C   0  0  0  0  0  0  0  0  0  0  0  0
   58.2000   33.2980   45.4310 N   0  0  0  0  0  0  0  0  0  0  0  0
   58.5000   34.6220   44.8490 C   0  0  0  0  0  0  0  0  0  0  0  0
   59.6470   35.2920   45.6010 C   0  0  0  0  0  0  0  0  0  0  0  0
   57.4960   33.3710   46.7340 C   0  0  0  0  0  0  0  0  0  0  0  0
   58.5080   33.3930   47.8820 C   0  0  0  0  0  0  0  0  0  0  0  0
   59.6160   32.4730   47.6130 N   0  0  0  0  0  0  0  0  0  0  0  0
   60.9500   32.7220   47.6860 C   0  0  0  0  0  0  0  0  0  0  0  0
   61.5840   33.8930   48.1130 C   0  0  0  0  0  0  0  0  0  0  0  0
   62.9900   33.9410   48.0600 C   0  0  0  0  0  0  0  0  0  0  0  0
   63.7320   32.8380   47.5790 C   0  0  0  0  0  0  0  0  0  0  0  0
   63.0780   31.6730   47.1430 C   0  0  0  0  0  0  0  0  0  0  0  0
   61.6880   31.6480   47.2140 C   0  0  0  0  0  0  0  0  0  0  0  0
   60.7680   30.7070   46.8290 C   0  0  0  0  0  0  0  0  0  0  0  0
   60.9350   29.5050   46.2280 N   0  0  0  0  0  0  0  0  0  0  0  0
   59.8150   28.8030   45.8770 C   0  0  0  0  0  0  0  0  0  0  0  0
   59.9280   27.5540   45.2590 C   0  0  0  0  0  0  0  0  0  0  0  0
   58.7780   26.8470   44.8940 C   0  0  0  0  0  0  0  0  0  0  0  0
   57.5090   27.3850   45.1410 C   0  0  0  0  0  0  0  0  0  0  0  0
   57.3770   28.6340   45.7570 C   0  0  0  0  0  0  0  0  0  0  0  0
   58.5180   29.3520   46.1300 C   0  0  0  0  0  0  0  0  0  0  0  0
   58.3980   30.5750   46.7270 N   0  0  0  0  0  0  0  0  0  0  0  0
   59.5290   31.2350   47.0760 C   0  0  0  0  0  0  0  0  0  0  0  0
   59.2288   32.5556   43.1036 H   0  0  0  0  0  0  0  0  0  0  0  0
   57.8984   31.5024   42.5142 H   0  0  0  0  0  0  0  0  0  0  0  0
   57.6980   33.2875   42.5142 H   0  0  0  0  0  0  0  0  0  0  0  0
   56.4864   32.6110   44.4212 H   0  0  0  0  0  0  0  0  0  0  0  0
   57.7457   31.3501   44.8453 H   0  0  0  0  0  0  0  0  0  0  0  0
   58.7838   34.4971   43.7936 H   0  0  0  0  0  0  0  0  0  0  0  0
   57.6047   35.2560   44.9298 H   0  0  0  0  0  0  0  0  0  0  0  0
   59.4813   35.1952   46.6841 H   0  0  0  0  0  0  0  0  0  0  0  0
   60.5961   34.8063   45.3304 H   0  0  0  0  0  0  0  0  0  0  0  0
   59.6901   36.3573   45.3304 H   0  0  0  0  0  0  0  0  0  0  0  0
   56.8885   34.2874   46.7678 H   0  0  0  0  0  0  0  0  0  0  0  0
   56.8499   32.4874   46.8425 H   0  0  0  0  0  0  0  0  0  0  0  0
   58.9046   34.4129   47.9943 H   0  0  0  0  0  0  0  0  0  0  0  0
   58.0018   33.0766   48.8059 H   0  0  0  0  0  0  0  0  0  0  0  0
   61.0014   34.7511   48.4794 H   0  0  0  0  0  0  0  0  0  0  0  0
   63.5167   34.8462   48.3964 H   0  0  0  0  0  0  0  0  0  0  0  0
   64.8302   32.8921   47.5457 H   0  0  0  0  0  0  0  0  0  0  0  0
   63.6443   30.8116   46.7593 H   0  0  0  0  0  0  0  0  0  0  0  0
   60.9221   27.1272   45.0598 H   0  0  0  0  0  0  0  0  0  0  0  0
   58.8707   25.8633   44.4105 H   0  0  0  0  0  0  0  0  0  0  0  0
   56.6103   26.8220   44.8488 H   0  0  0  0  0  0  0  0  0  0  0  0
   56.3771   29.0510   45.9478 H   0  0  0  0  0  0  0  0  0  0  0  0
  1  2  1  0
  2  3  1  0
  3  4  1  0
  4  5  1  0
  3  6  1  0
  6  7  1  0
  7  8  1  0
  8  9  1  0
  9 10  2  0
 10 11  1  0
 11 12  2  0
 12 13  1  0
 13 14  2  0
 14 15  1  0
 15 16  2  0
 16 17  1  0
 17 18  2  0
 18 19  1  0
 19 20  2  0
 20 21  1  0
 21 22  2  0
 22 23  1  0
 23 24  2  0
 24  8  1  0
 14  9  1  0
 24 15  1  0
 22 17  1  0
  1 25  1  0
  1 26  1  0
  1 27  1  0
  2 28  1  0
  2 29  1  0
  4 30  1  0
  4 31  1  0
  5 32  1  0
  5 33  1  0
  5 34  1  0
  6 35  1  0
  6 36  1  0
  7 37  1  0
  7 38  1  0
 10 39  1  0
 11 40  1  0
 12 41  1  0
 13 42  1  0
 18 43  1  0
 19 44  1  0
 20 45  1  0
 21 46  1  0
M  END
>  <UniqueID>  (10) 
10

>  <SMILES>  (10) 
CCN(CC)CCn1c2ccccc2c2nc3ccccc3nc21

>  <Energy>  (10) 
94.31507793005383

>  <Genealogy>  (10) 
CCN(CC)CCn1c2ccccc2c2nc3ccccc3nc21 (3D coordinates assigned)
CCN(CC)CCn1c2ccccc2c2nc3ccccc3nc21 (optimized conformer: 94.31507793005383 kcal/mol)

>  <smiles>  (10) 
CCN(CC)CCn1c2ccccc2c2nc3ccccc3nc21

>  <score_type>  (10) 
oracle

>  <origin>  (10) 
adg

>  <m_score__min__energy>  (10) 
-7.1900000000000004

>  <m_primary>  (10) 
energy

$$$$
10:0
     RDKit          3D

 46 48  0  0  0  0  0  0  0  0999 V2000
   57.1887   33.1699   44.4699 H   0  0  0  0  0  0  0  0  0  0  0  0
   57.8990   32.7060   45.1700 C   0  0  0  0  0  0  0  0  0  0  0  0
   58.8770   33.4680   45.8330 C   0  0  0  0  0  0  0  0  0  0  0  0
   58.9620   34.9430   45.6080 C   0  0  0  0  0  0  0  0  0  0  0  0
   58.9918   35.4608   46.5781 H   0  0  0  0  0  0  0  0  0  0  0  0
   59.8750   35.1753   45.0402 H   0  0  0  0  0  0  0  0  0  0  0  0
   58.0817   35.2786   45.0402 H   0  0  0  0  0  0  0  0  0  0  0  0
   59.7380   32.8640   46.7060 N   0  0  0  0  0  0  0  0  0  0  0  0
   59.6840   31.5210   46.9510 C   0  0  0  0  0  0  0  0  0  0  0  0
   60.5020   30.9580   47.7920 N   0  0  0  0  0  0  0  0  0  0  0  0
   60.2790   30.8270   49.2330 C   0  0  0  0  0  0  0  0  0  0  0  0
   61.0551   30.1733   49.6577 H   0  0  0  0  0  0  0  0  0  0  0  0
   59.2787   30.3978   49.3918 H   0  0  0  0  0  0  0  0  0  0  0  0
   60.3370   32.1900   49.9320 C   0  0  0  0  0  0  0  0  0  0  0  0
   60.2408   32.0338   51.0166 H   0  0  0  0  0  0  0  0  0  0  0  0
   59.5141   32.8026   49.5350 H   0  0  0  0  0  0  0  0  0  0  0  0
   61.6530   32.9430   49.6570 C   0  0  0  0  0  0  0  0  0  0  0  0
   62.4969   32.2973   49.9417 H   0  0  0  0  0  0  0  0  0  0  0  0
   61.6416   33.8704   50.2484 H   0  0  0  0  0  0  0  0  0  0  0  0
   61.7960   33.3130   48.2370 N   0  0  0  0  0  0  0  0  0  0  0  0
   61.0680   34.0190   47.9730 H   0  0  0  0  0  0  0  0  0  0  0  0
   61.6370   32.4530   47.6610 H   0  0  0  0  0  0  0  0  0  0  0  0
   63.1390   33.8360   47.9320 C   0  0  0  0  0  0  0  0  0  0  0  0
   63.7836   33.7105   48.8145 H   0  0  0  0  0  0  0  0  0  0  0  0
   63.0510   34.9006   47.6696 H   0  0  0  0  0  0  0  0  0  0  0  0
   63.7570   33.0910   46.7510 C   0  0  0  0  0  0  0  0  0  0  0  0
   64.4175   32.2948   47.1248 H   0  0  0  0  0  0  0  0  0  0  0  0
   62.9581   32.6474   46.1387 H   0  0  0  0  0  0  0  0  0  0  0  0
   64.3406   33.7942   46.1387 H   0  0  0  0  0  0  0  0  0  0  0  0
   58.7450   30.7860   46.2930 N   0  0  0  0  0  0  0  0  0  0  0  0
   58.4340   29.4780   46.3180 C   0  0  0  0  0  0  0  0  0  0  0  0
   57.3440   29.2950   45.4950 C   0  0  0  0  0  0  0  0  0  0  0  0
   56.9860   30.4610   44.9110 N   0  0  0  0  0  0  0  0  0  0  0  0
   57.8670   31.3420   45.4360 C   0  0  0  0  0  0  0  0  0  0  0  0
   56.7070   27.9640   45.2430 C   0  0  0  0  0  0  0  0  0  0  0  0
   57.0700   27.5637   44.2849 H   0  0  0  0  0  0  0  0  0  0  0  0
   55.6149   28.0909   45.2092 H   0  0  0  0  0  0  0  0  0  0  0  0
   57.0620   26.9780   46.3730 C   0  0  0  0  0  0  0  0  0  0  0  0
   56.7850   25.9607   46.0593 H   0  0  0  0  0  0  0  0  0  0  0  0
   56.5081   27.2752   47.2757 H   0  0  0  0  0  0  0  0  0  0  0  0
   58.5690   27.0080   46.7000 C   0  0  0  0  0  0  0  0  0  0  0  0
   59.1342   26.7402   45.7951 H   0  0  0  0  0  0  0  0  0  0  0  0
   58.7549   26.2898   47.5122 H   0  0  0  0  0  0  0  0  0  0  0  0
   59.0280   28.3990   47.1800 C   0  0  0  0  0  0  0  0  0  0  0  0
   60.1252   28.4562   47.1263 H   0  0  0  0  0  0  0  0  0  0  0  0
   58.6899   28.5463   48.2163 H   0  0  0  0  0  0  0  0  0  0  0  0
  1  2  1  0
  2  3  1  0
  3  4  1  0
  4  5  1  0
  4  6  1  0
  4  7  1  0
  3  8  2  0
  8  9  1  0
  9 10  2  0
 10 11  1  0
 11 12  1  0
 11 13  1  0
 11 14  1  0
 14 15  1  0
 14 16  1  0
 14 17  1  0
 17 18  1  0
 17 19  1  0
 17 20  1  0
 20 21  1  0
 20 22  1  0
 20 23  1  0
 23 24  1  0
 23 25  1  0
 23 26  1  0
 26 27  1  0
 26 28  1  0
 26 29  1  0
  9 30  1  0
 30 31  1  0
 31 32  2  0
 32 33  1  0
 33 34  1  0
 32 35  1  0
 35 36  1  0
 35 37  1  0
 35 38  1  0
 38 39  1  0
 38 40  1  0
 38 41  1  0
 41 42  1  0
 41 43  1  0
 41 44  1  0
 44 45  1  0
 44 46  1  0
 34  2  2  0
 34 30  1  0
 44 31  1  0
M  CHG  2  20   1  33  -1
M  END
>  <UniqueID>  (11) 
11

>  <SMILES>  (11) 
CC[NH2+]CCC/N=c1\nc(C)cc2[n-]c3c(n12)CCCC3

>  <Energy>  (11) 
76.61041649591964

>  <Genealogy>  (11) 
CC[NH2+]CCCN=c1nc(C)cc2[n-]c3c(n12)CCCC3 (protonated)
CC[NH2+]CCC/N=c1\nc(C)cc2[n-]c3c(n12)CCCC3 (cis-trans isomerization)
CC[NH2+]CCC/N=c1\nc(C)cc2[n-]c3c(n12)CCCC3 (3D coordinates assigned)
CC[NH2+]CCC/N=c1\nc(C)cc2[n-]c3c(n12)CCCC3 (nonaromatic ring conformer: 76.61041649591964 kcal/mol)

>  <smiles>  (11) 
CCNCCCN=c1nc(C)cc2[nH]c3c(n12)CCCC3

>  <score_type>  (11) 
oracle

>  <origin>  (11) 
adg

>  <m_score__min__energy>  (11) 
-5.75

>  <m_primary>  (11) 
energy

$$$$
11:0
     RDKit          3D

 38 39  0  0  0  0  0  0  0  0999 V2000
   66.7480   32.6720   50.1230 C   0  0  0  0  0  0  0  0  0  0  0  0
   65.2960   33.1400   50.1200 C   0  0  0  0  0  0  0  0  0  0  0  0
   64.4020   32.1710   49.3400 C   0  0  0  0  0  0  0  0  0  0  0  0
   63.2880   32.8970   48.7190 N   0  0  0  0  0  0  0  0  0  0  0  0
   63.2680   33.0800   47.3640 C   0  0  0  0  0  0  0  0  0  0  0  0
   62.2020   33.7400   46.7510 C   0  0  0  0  0  0  0  0  0  0  0  0
   61.1390   34.2190   47.5310 C   0  0  0  0  0  0  0  0  0  0  0  0
   60.0130   34.8720   46.9120 N   0  0  0  0  0  0  0  0  0  0  0  0
   59.1430   33.8840   46.3250 C   0  0  0  0  0  0  0  0  0  0  0  0
   58.3320   34.2110   45.2250 C   0  0  0  0  0  0  0  0  0  0  0  0
   57.4640   33.2630   44.6760 C   0  0  0  0  0  0  0  0  0  0  0  0
   57.3890   31.9680   45.2250 C   0  0  0  0  0  0  0  0  0  0  0  0
   56.5350   30.9810   44.7110 O   0  0  0  0  0  0  0  0  0  0  0  0
   56.6870   30.3740   43.4310 C   0  0  0  0  0  0  0  0  0  0  0  0
   58.1920   31.6460   46.3250 C   0  0  0  0  0  0  0  0  0  0  0  0
   59.0590   32.5930   46.8750 C   0  0  0  0  0  0  0  0  0  0  0  0
   61.1660   34.0040   48.9160 C   0  0  0  0  0  0  0  0  0  0  0  0
   62.2500   33.3380   49.4920 C   0  0  0  0  0  0  0  0  0  0  0  0
   67.0950   32.5601   51.1608 H   0  0  0  0  0  0  0  0  0  0  0  0
   66.8224   31.7044   49.6052 H   0  0  0  0  0  0  0  0  0  0  0  0
   67.3735   33.4140   49.6052 H   0  0  0  0  0  0  0  0  0  0  0  0
   64.9372   33.2024   51.1580 H   0  0  0  0  0  0  0  0  0  0  0  0
   65.2491   34.1252   49.6329 H   0  0  0  0  0  0  0  0  0  0  0  0
   64.9967   31.6788   48.5563 H   0  0  0  0  0  0  0  0  0  0  0  0
   63.9979   31.4186   50.0332 H   0  0  0  0  0  0  0  0  0  0  0  0
   64.1002   32.7033   46.7512 H   0  0  0  0  0  0  0  0  0  0  0  0
   62.1954   33.8840   45.6605 H   0  0  0  0  0  0  0  0  0  0  0  0
   59.4890   35.4360   47.6220 H   0  0  0  0  0  0  0  0  0  0  0  0
   60.3430   35.5430   46.1790 H   0  0  0  0  0  0  0  0  0  0  0  0
   58.3807   35.2212   44.7925 H   0  0  0  0  0  0  0  0  0  0  0  0
   56.8372   33.5292   43.8121 H   0  0  0  0  0  0  0  0  0  0  0  0
   56.9524   29.3140   43.5571 H   0  0  0  0  0  0  0  0  0  0  0  0
   55.7417   30.4515   42.8738 H   0  0  0  0  0  0  0  0  0  0  0  0
   57.4842   30.8879   42.8738 H   0  0  0  0  0  0  0  0  0  0  0  0
   58.1399   30.6373   46.7607 H   0  0  0  0  0  0  0  0  0  0  0  0
   59.6796   32.3271   47.7434 H   0  0  0  0  0  0  0  0  0  0  0  0
   60.3370   34.3583   49.5463 H   0  0  0  0  0  0  0  0  0  0  0  0
   62.2689   33.1665   50.5784 H   0  0  0  0  0  0  0  0  0  0  0  0
  1  2  1  0
  2  3  1  0
  3  4  1  0
  4  5  2  0
  5  6  1  0
  6  7  2  0
  7  8  1  0
  8  9  1  0
  9 10  2  0
 10 11  1  0
 11 12  2  0
 12 13  1  0
 13 14  1  0
 12 15  1  0
 15 16  2  0
  7 17  1  0
 17 18  2  0
 18  4  1  0
 16  9  1  0
  1 19  1  0
  1 20  1  0
  1 21  1  0
  2 22  1  0
  2 23  1  0
  3 24  1  0
  3 25  1  0
  5 26  1  0
  6 27  1  0
  8 28  1  0
  8 29  1  0
 10 30  1  0
 11 31  1  0
 14 32  1  0
 14 33  1  0
 14 34  1  0
 15 35  1  0
 16 36  1  0
 17 37  1  0
 18 38  1  0
M  CHG  2   4   1   8   1
M  END
>  <UniqueID>  (12) 
12

>  <SMILES>  (12) 
CCC[n+]1ccc([NH2+]c2ccc(OC)cc2)cc1

>  <Energy>  (12) 
34.44707383189809

>  <Genealogy>  (12) 
CCC[n+]1ccc([NH2+]c2ccc(OC)cc2)cc1 (protonated)
CCC[n+]1ccc([NH2+]c2ccc(OC)cc2)cc1 (3D coordinates assigned)
CCC[n+]1ccc([NH2+]c2ccc(OC)cc2)cc1 (optimized conformer: 34.44707383189809 kcal/mol)

>  <smiles>  (12) 
CCC[n+]1ccc(Nc2ccc(OC)cc2)cc1

>  <score_type>  (12) 
oracle

>  <origin>  (12) 
adg

>  <m_score__min__energy>  (12) 
-3.3799999999999999

>  <m_primary>  (12) 
energy

$$$$
12:0
     RDKit          3D

 49 48  0  0  0  0  0  0  0  0999 V2000
   55.8830   29.8270   43.5360 C   0  0  0  0  0  0  0  0  0  0  0  0
   56.8030   29.6950   44.4470 C   0  0  0  0  0  0  0  0  0  0  0  0
   57.7230   29.5590   45.3620 C   0  0  0  0  0  0  0  0  0  0  0  0
   59.1180   30.0590   45.1370 C   0  0  0  0  0  0  0  0  0  0  0  0
   59.5230   30.9750   46.2130 N   0  0  0  0  0  0  0  0  0  0  0  0
   58.9020   30.6420   47.5090 C   0  0  0  0  0  0  0  0  0  0  0  0
   59.8020   29.7170   48.3440 C   0  0  0  0  0  0  0  0  0  0  0  0
   61.1830   30.3330   48.6500 C   0  0  0  0  0  0  0  0  0  0  0  0
   61.5810   31.3060   47.6170 N   0  0  0  0  0  0  0  0  0  0  0  0
   62.8700   31.9270   47.9560 C   0  0  0  0  0  0  0  0  0  0  0  0
   62.8950   33.4330   47.6320 C   0  0  0  0  0  0  0  0  0  0  0  0
   62.0560   33.8400   46.4050 C   0  0  0  0  0  0  0  0  0  0  0  0
   60.6450   33.4440   46.5280 N   0  0  0  0  0  0  0  0  0  0  0  0
   59.7510   34.6080   46.5850 C   0  0  0  0  0  0  0  0  0  0  0  0
   58.2860   34.1600   46.6790 C   0  0  0  0  0  0  0  0  0  0  0  0
   57.6820   33.7920   45.3160 C   0  0  0  0  0  0  0  0  0  0  0  0
   58.7280   33.3640   44.3800 N   0  0  0  0  0  0  0  0  0  0  0  0
   58.1390   32.6180   43.2680 C   0  0  0  0  0  0  0  0  0  0  0  0
   54.8341   29.9775   43.8313 H   0  0  0  0  0  0  0  0  0  0  0  0
   56.1543   29.7881   42.4707 H   0  0  0  0  0  0  0  0  0  0  0  0
   57.4708   29.0694   46.3142 H   0  0  0  0  0  0  0  0  0  0  0  0
   59.8086   29.2031   45.1128 H   0  0  0  0  0  0  0  0  0  0  0  0
   59.1485   30.6021   44.1809 H   0  0  0  0  0  0  0  0  0  0  0  0
   59.2000   31.9320   45.9380 H   0  0  0  0  0  0  0  0  0  0  0  0
   58.7261   31.5715   48.0703 H   0  0  0  0  0  0  0  0  0  0  0  0
   57.9551   30.1175   47.3133 H   0  0  0  0  0  0  0  0  0  0  0  0
   59.2955   29.5019   49.2965 H   0  0  0  0  0  0  0  0  0  0  0  0
   59.9728   28.8046   47.7538 H   0  0  0  0  0  0  0  0  0  0  0  0
   61.1391   30.8431   49.6236 H   0  0  0  0  0  0  0  0  0  0  0  0
   61.9267   29.5226   48.6658 H   0  0  0  0  0  0  0  0  0  0  0  0
   61.6580   30.8110   46.6980 H   0  0  0  0  0  0  0  0  0  0  0  0
   60.8570   32.0530   47.5430 H   0  0  0  0  0  0  0  0  0  0  0  0
   63.0553   31.7933   49.0320 H   0  0  0  0  0  0  0  0  0  0  0  0
   63.6487   31.4391   47.3513 H   0  0  0  0  0  0  0  0  0  0  0  0
   62.5106   33.9784   48.5065 H   0  0  0  0  0  0  0  0  0  0  0  0
   63.9391   33.6826   47.3921 H   0  0  0  0  0  0  0  0  0  0  0  0
   62.1065   34.9329   46.2905 H   0  0  0  0  0  0  0  0  0  0  0  0
   62.4726   33.3206   45.5294 H   0  0  0  0  0  0  0  0  0  0  0  0
   60.4010   32.8940   45.6710 H   0  0  0  0  0  0  0  0  0  0  0  0
   60.0014   35.2132   47.4688 H   0  0  0  0  0  0  0  0  0  0  0  0
   59.8823   35.2012   45.6680 H   0  0  0  0  0  0  0  0  0  0  0  0
   58.2302   33.2797   47.3362 H   0  0  0  0  0  0  0  0  0  0  0  0
   57.7080   35.0071   47.0769 H   0  0  0  0  0  0  0  0  0  0  0  0
   56.9613   32.9720   45.4507 H   0  0  0  0  0  0  0  0  0  0  0  0
   57.1804   34.6791   44.9020 H   0  0  0  0  0  0  0  0  0  0  0  0
   59.3740   32.7160   44.8880 H   0  0  0  0  0  0  0  0  0  0  0  0
   57.5028   31.8123   43.6631 H   0  0  0  0  0  0  0  0  0  0  0  0
   57.5307   33.2969   42.6524 H   0  0  0  0  0  0  0  0  0  0  0  0
   58.9405   32.1838   42.6524 H   0  0  0  0  0  0  0  0  0  0  0  0
  1  2  2  0
  2  3  2  0
  3  4  1  0
  4  5  1  0
  5  6  1  0
  6  7  1  0
  7  8  1  0
  8  9  1  0
  9 10  1  0
 10 11  1  0
 11 12  1  0
 12 13  1  0
 13 14  1  0
 14 15  1  0
 15 16  1  0
 16 17  1  0
 17 18  1  0
  1 19  1  0
  1 20  1  0
  3 21  1  0
  4 22  1  0
  4 23  1  0
  5 24  1  0
  6 25  1  0
  6 26  1  0
  7 27  1  0
  7 28  1  0
  8 29  1  0
  8 30  1  0
  9 31  1  0
  9 32  1  0
 10 33  1  0
 10 34  1  0
 11 35  1  0
 11 36  1  0
 12 37  1  0
 12 38  1  0
 13 39  1  0
 14 40  1  0
 14 41  1  0
 15 42  1  0
 15 43  1  0
 16 44  1  0
 16 45  1  0
 17 46  1  0
 18 47  1  0
 18 48  1  0
 18 49  1  0
M  CHG  1   9   1
M  END
>  <UniqueID>  (13) 
13

>  <SMILES>  (13) 
C=C=CCNCCC[NH2+]CCCNCCCNC

>  <Energy>  (13) 
25.163973721821215

>  <Genealogy>  (13) 
C=C=CCNCCC[NH2+]CCCNCCCNC (protonated)
C=C=CCNCCC[NH2+]CCCNCCCNC (3D coordinates assigned)
C=C=CCNCCC[NH2+]CCCNCCCNC (optimized conformer: 25.163973721821215 kcal/mol)

>  <smiles>  (13) 
C=C=CCNCCCNCCCNCCCNC

>  <score_type>  (13) 
oracle

>  <origin>  (13) 
adg

>  <m_score__min__energy>  (13) 
-1.22

>  <m_primary>  (13) 
energy

$$$$
13:0
     RDKit          3D

 39 40  0  0  0  0  0  0  0  0999 V2000
   60.2110   30.8430   47.9340 C   0  0  0  0  0  0  0  0  0  0  0  0
   60.1060   30.3370   46.8450 C   0  0  0  0  0  0  0  0  0  0  0  0
   59.9770   29.7220   45.5190 C   0  0  0  0  0  0  0  0  0  0  0  0
   59.1560   28.4960   45.5910 N   0  0  0  0  0  0  0  0  0  0  0  0
   59.8730   27.2620   45.9880 C   0  0  0  0  0  0  0  0  0  0  0  0
   59.5470   26.7670   47.4050 C   0  0  0  0  0  0  0  0  0  0  0  0
   57.7970   28.6590   46.1650 C   0  0  0  0  0  0  0  0  0  0  0  0
   56.6420   28.2170   45.2440 C   0  0  0  0  0  0  0  0  0  0  0  0
   55.8000   29.3630   44.8500 N   0  0  0  0  0  0  0  0  0  0  0  0
   56.4050   30.1800   43.7880 C   0  0  0  0  0  0  0  0  0  0  0  0
   57.1620   31.3320   44.3680 C   0  0  0  0  0  0  0  0  0  0  0  0
   57.9760   32.2070   43.6520 C   0  0  0  0  0  0  0  0  0  0  0  0
   58.4140   33.1070   44.5950 C   0  0  0  0  0  0  0  0  0  0  0  0
   59.2480   34.2170   44.4810 C   0  0  0  0  0  0  0  0  0  0  0  0
   59.5110   34.9600   45.6460 C   0  0  0  0  0  0  0  0  0  0  0  0
   58.9400   34.5800   46.8820 C   0  0  0  0  0  0  0  0  0  0  0  0
   58.1000   33.4540   46.9630 C   0  0  0  0  0  0  0  0  0  0  0  0
   57.8580   32.7390   45.7930 C   0  0  0  0  0  0  0  0  0  0  0  0
   57.1090   31.6740   45.6430 O   0  0  0  0  0  0  0  0  0  0  0  0
   60.3068   31.3048   48.9278 H   0  0  0  0  0  0  0  0  0  0  0  0
   59.4987   30.4374   44.8339 H   0  0  0  0  0  0  0  0  0  0  0  0
   60.9796   29.4559   45.1530 H   0  0  0  0  0  0  0  0  0  0  0  0
   59.6084   26.4662   45.2762 H   0  0  0  0  0  0  0  0  0  0  0  0
   60.9457   27.5056   45.9795 H   0  0  0  0  0  0  0  0  0  0  0  0
   59.9954   27.4479   48.1435 H   0  0  0  0  0  0  0  0  0  0  0  0
   58.4560   26.7433   47.5432 H   0  0  0  0  0  0  0  0  0  0  0  0
   59.9561   25.7553   47.5432 H   0  0  0  0  0  0  0  0  0  0  0  0
   57.7434   28.0641   47.0887 H   0  0  0  0  0  0  0  0  0  0  0  0
   57.6614   29.7379   46.3311 H   0  0  0  0  0  0  0  0  0  0  0  0
   57.0627   27.7539   44.3392 H   0  0  0  0  0  0  0  0  0  0  0  0
   56.0154   27.4994   45.7939 H   0  0  0  0  0  0  0  0  0  0  0  0
   55.7000   29.9870   45.6850 H   0  0  0  0  0  0  0  0  0  0  0  0
   57.0940   29.5550   43.2009 H   0  0  0  0  0  0  0  0  0  0  0  0
   55.6027   30.5734   43.1465 H   0  0  0  0  0  0  0  0  0  0  0  0
   58.2139   32.1834   42.5783 H   0  0  0  0  0  0  0  0  0  0  0  0
   59.6858   34.5026   43.5131 H   0  0  0  0  0  0  0  0  0  0  0  0
   60.1654   35.8427   45.5949 H   0  0  0  0  0  0  0  0  0  0  0  0
   59.1537   35.1684   47.7865 H   0  0  0  0  0  0  0  0  0  0  0  0
   57.6495   33.1488   47.9190 H   0  0  0  0  0  0  0  0  0  0  0  0
  1  2  3  0
  2  3  1  0
  3  4  1  0
  4  5  1  0
  5  6  1  0
  4  7  1  0
  7  8  1  0
  8  9  1  0
  9 10  1  0
 10 11  1  0
 11 12  2  0
 12 13  1  0
 13 14  2  0
 14 15  1  0
 15 16  2  0
 16 17  1  0
 17 18  2  0
 18 19  1  0
 19 11  1  0
 18 13  1  0
  1 20  1  0
  3 21  1  0
  3 22  1  0
  5 23  1  0
  5 24  1  0
  6 25  1  0
  6 26  1  0
  6 27  1  0
  7 28  1  0
  7 29  1  0
  8 30  1  0
  8 31  1  0
  9 32  1  0
 10 33  1  0
 10 34  1  0
 12 35  1  0
 14 36  1  0
 15 37  1  0
 16 38  1  0
 17 39  1  0
M  END
>  <UniqueID>  (14) 
14

>  <SMILES>  (14) 
C#CCN(CC)CCNCc1cc2ccccc2o1

>  <Energy>  (14) 
77.77846482277198

>  <Genealogy>  (14) 
C#CCN(CC)CCNCc1cc2ccccc2o1 (3D coordinates assigned)
C#CCN(CC)CCNCc1cc2ccccc2o1 (optimized conformer: 77.77846482277198 kcal/mol)

>  <smiles>  (14) 
C#CCN(CC)CCNCc1cc2ccccc2o1

>  <score_type>  (14) 
oracle

>  <origin>  (14) 
adg

>  <m_score__min__energy>  (14) 
-6.5599999999999996

>  <m_primary>  (14) 
energy

$$$$
14:0
     RDKit          3D

 24 25  0  0  0  0  0  0  0  0999 V2000
   57.0060   32.7170   40.6260 C   0  0  0  0  0  0  0  0  0  0  0  0
   58.0620   32.3110   41.3260 C   0  0  0  0  0  0  0  0  0  0  0  0
   58.0810   32.3190   42.8040 C   0  0  0  0  0  0  0  0  0  0  0  0
   58.6470   33.3990   43.4030 N   0  0  0  0  0  0  0  0  0  0  0  0
   58.6820   33.5340   44.7480 C   0  0  0  0  0  0  0  0  0  0  0  0
   59.2670   34.6690   45.3240 C   0  0  0  0  0  0  0  0  0  0  0  0
   59.2840   34.8190   46.7140 C   0  0  0  0  0  0  0  0  0  0  0  0
   58.7160   33.8370   47.5310 C   0  0  0  0  0  0  0  0  0  0  0  0
   58.1310   32.7020   46.9630 C   0  0  0  0  0  0  0  0  0  0  0  0
   58.1110   32.5420   45.5640 C   0  0  0  0  0  0  0  0  0  0  0  0
   57.5480   31.4150   44.9420 C   0  0  0  0  0  0  0  0  0  0  0  0
   57.0220   30.5120   45.6520 O   0  0  0  0  0  0  0  0  0  0  0  0
   57.5750   31.2910   43.5730 N   0  0  0  0  0  0  0  0  0  0  0  0
   57.0590   30.0550   42.9540 C   0  0  0  0  0  0  0  0  0  0  0  0
   57.0333   32.6948   39.5266 H   0  0  0  0  0  0  0  0  0  0  0  0
   56.1055   33.0749   41.1467 H   0  0  0  0  0  0  0  0  0  0  0  0
   58.9524   31.9569   40.7858 H   0  0  0  0  0  0  0  0  0  0  0  0
   59.7134   35.4429   44.6822 H   0  0  0  0  0  0  0  0  0  0  0  0
   59.7446   35.7103   47.1650 H   0  0  0  0  0  0  0  0  0  0  0  0
   58.7296   33.9581   48.6242 H   0  0  0  0  0  0  0  0  0  0  0  0
   57.6853   31.9321   47.6100 H   0  0  0  0  0  0  0  0  0  0  0  0
   56.7632   29.3464   43.7416 H   0  0  0  0  0  0  0  0  0  0  0  0
   56.1858   30.2946   42.3295 H   0  0  0  0  0  0  0  0  0  0  0  0
   57.8434   29.6026   42.3295 H   0  0  0  0  0  0  0  0  0  0  0  0
  1  2  2  0
  2  3  1  0
  3  4  2  0
  4  5  1  0
  5  6  2  0
  6  7  1  0
  7  8  2  0
  8  9  1  0
  9 10  2  0
 10 11  1  0
 11 12  2  0
 11 13  1  0
 13 14  1  0
 13  3  1  0
 10  5  1  0
  1 15  1  0
  1 16  1  0
  2 17  1  0
  6 18  1  0
  7 19  1  0
  8 20  1  0
  9 21  1  0
 14 22  1  0
 14 23  1  0
 14 24  1  0
M  END
>  <UniqueID>  (15) 
15

>  <SMILES>  (15) 
C=Cc1nc2ccccc2c(=O)n1C

>  <Energy>  (15) 
37.83341620142187

>  <Genealogy>  (15) 
C=Cc1nc2ccccc2c(=O)n1C (3D coordinates assigned)
C=Cc1nc2ccccc2c(=O)n1C (optimized conformer: 37.83341620142187 kcal/mol)

>  <smiles>  (15) 
C=Cc1nc2ccccc2c(=O)n1C

>  <score_type>  (15) 
oracle

>  <origin>  (15) 
adg

>  <m_score__min__energy>  (15) 
-6.0800000000000001

>  <m_primary>  (15) 
energy

$$$$
15:0
     RDKit          3D

 54 56  0  0  0  0  0  0  0  0999 V2000
   62.7210   33.8240   46.7200 C   0  0  0  0  0  0  0  0  0  0  0  0
   63.5500   32.7200   47.3950 C   0  0  0  0  0  0  0  0  0  0  0  0
   63.5140   32.7460   48.8790 N   0  0  1  0  0  0  0  0  0  0  0  0
   64.8730   32.7160   49.4580 C   0  0  0  0  0  0  0  0  0  0  0  0
   62.7160   33.8910   49.3890 C   0  0  0  0  0  0  0  0  0  0  0  0
   61.4060   33.4570   50.0760 C   0  0  0  0  0  0  0  0  0  0  0  0
   61.2260   32.0540   50.0110 O   0  0  0  0  0  0  0  0  0  0  0  0
   59.9280   31.6760   50.4330 C   0  0  0  0  0  0  0  0  0  0  0  0
   59.2070   30.9210   49.3160 C   0  0  0  0  0  0  0  0  0  0  0  0
   59.9850   30.9860   48.0800 N   0  0  0  0  0  0  0  0  0  0  0  0
   59.3420   30.9590   46.7940 C   0  0  0  0  0  0  0  0  0  0  0  0
   59.1550   29.7390   46.1200 C   0  0  0  0  0  0  0  0  0  0  0  0
   59.6210   28.5260   46.6730 C   0  0  0  0  0  0  0  0  0  0  0  0
   59.4750   27.3260   45.9820 C   0  0  0  0  0  0  0  0  0  0  0  0
   58.8760   27.3140   44.7290 C   0  0  0  0  0  0  0  0  0  0  0  0
   58.3890   28.4950   44.1710 C   0  0  0  0  0  0  0  0  0  0  0  0
   58.4820   29.7260   44.8690 C   0  0  0  0  0  0  0  0  0  0  0  0
   57.9490   30.8950   44.3560 N   0  0  0  0  0  0  0  0  0  0  0  0
   57.0060   30.8410   43.2160 C   0  0  0  0  0  0  0  0  0  0  0  0
   58.2800   32.1120   44.9210 C   0  0  0  0  0  0  0  0  0  0  0  0
   57.9830   33.3410   44.2750 C   0  0  0  0  0  0  0  0  0  0  0  0
   58.2990   34.5620   44.8700 C   0  0  0  0  0  0  0  0  0  0  0  0
   58.9330   34.5950   46.1060 C   0  0  0  0  0  0  0  0  0  0  0  0
   59.2710   33.4070   46.7480 C   0  0  0  0  0  0  0  0  0  0  0  0
   58.9590   32.1590   46.1690 C   0  0  0  0  0  0  0  0  0  0  0  0
   62.2497   34.4517   47.4906 H   0  0  0  0  0  0  0  0  0  0  0  0
   63.3782   34.4446   46.0931 H   0  0  0  0  0  0  0  0  0  0  0  0
   61.9418   33.3660   46.0931 H   0  0  0  0  0  0  0  0  0  0  0  0
   63.1646   31.7462   47.0586 H   0  0  0  0  0  0  0  0  0  0  0  0
   64.5968   32.8911   47.1035 H   0  0  0  0  0  0  0  0  0  0  0  0
   63.0400   31.8570   49.1650 H   0  0  0  0  0  0  0  0  0  0  0  0
   64.8039   32.7175   50.5558 H   0  0  0  0  0  0  0  0  0  0  0  0
   65.3936   31.8061   49.1246 H   0  0  0  0  0  0  0  0  0  0  0  0
   65.4332   33.6020   49.1246 H   0  0  0  0  0  0  0  0  0  0  0  0
   63.3258   34.4460   50.1170 H   0  0  0  0  0  0  0  0  0  0  0  0
   62.4421   34.5114   48.5229 H   0  0  0  0  0  0  0  0  0  0  0  0
   61.4370   33.7649   51.1316 H   0  0  0  0  0  0  0  0  0  0  0  0
   60.5662   33.9373   49.5525 H   0  0  0  0  0  0  0  0  0  0  0  0
   60.0084   31.0265   51.3171 H   0  0  0  0  0  0  0  0  0  0  0  0
   59.3544   32.5810   50.6819 H   0  0  0  0  0  0  0  0  0  0  0  0
   59.0807   29.8689   49.6111 H   0  0  0  0  0  0  0  0  0  0  0  0
   58.2236   31.3836   49.1463 H   0  0  0  0  0  0  0  0  0  0  0  0
   61.0190   30.8510   48.1330 H   0  0  0  0  0  0  0  0  0  0  0  0
   60.1048   28.5292   47.6609 H   0  0  0  0  0  0  0  0  0  0  0  0
   59.8342   26.3871   46.4287 H   0  0  0  0  0  0  0  0  0  0  0  0
   58.7855   26.3683   44.1744 H   0  0  0  0  0  0  0  0  0  0  0  0
   57.9254   28.4717   43.1738 H   0  0  0  0  0  0  0  0  0  0  0  0
   55.9752   30.7820   43.5953 H   0  0  0  0  0  0  0  0  0  0  0  0
   57.1197   31.7471   42.6028 H   0  0  0  0  0  0  0  0  0  0  0  0
   57.2224   29.9538   42.6028 H   0  0  0  0  0  0  0  0  0  0  0  0
   57.4956   33.3298   43.2889 H   0  0  0  0  0  0  0  0  0  0  0  0
   58.0454   35.5025   44.3590 H   0  0  0  0  0  0  0  0  0  0  0  0
   59.1680   35.5606   46.5775 H   0  0  0  0  0  0  0  0  0  0  0  0
   59.7876   33.4418   47.7185 H   0  0  0  0  0  0  0  0  0  0  0  0
  1  2  1  0
  2  3  1  0
  3  4  1  0
  3  5  1  0
  5  6  1  0
  6  7  1  0
  7  8  1  0
  8  9  1  0
  9 10  1  0
 10 11  1  0
 11 12  2  0
 12 13  1  0
 13 14  2  0
 14 15  1  0
 15 16  2  0
 16 17  1  0
 17 18  2  0
 18 19  1  0
 18 20  1  0
 20 21  2  0
 21 22  1  0
 22 23  2  0
 23 24  1  0
 24 25  2  0
 25 11  1  0
 17 12  1  0
 25 20  1  0
  1 26  1  0
  1 27  1  0
  1 28  1  0
  2 29  1  0
  2 30  1  0
  3 31  1  1
  4 32  1  0
  4 33  1  0
  4 34  1  0
  5 35  1  0
  5 36  1  0
  6 37  1  0
  6 38  1  0
  8 39  1  0
  8 40  1  0
  9 41  1  0
  9 42  1  0
 10 43  1  0
 13 44  1  0
 14 45  1  0
 15 46  1  0
 16 47  1  0
 19 48  1  0
 19 49  1  0
 19 50  1  0
 21 51  1  0
 22 52  1  0
 23 53  1  0
 24 54  1  0
M  CHG  2   3   1  18   1
M  END
>  <UniqueID>  (16) 
16

>  <SMILES>  (16) 
CC[N@@H+](C)CCOCCNc1c2ccccc2[n+](C)c2ccccc12

>  <Energy>  (16) 
84.1222662403075

>  <Genealogy>  (16) 
CC[NH+](C)CCOCCNc1c2ccccc2[n+](C)c2ccccc12 (protonated)
CC[N@@H+](C)CCOCCNc1c2ccccc2[n+](C)c2ccccc12 (chirality)
CC[N@@H+](C)CCOCCNc1c2ccccc2[n+](C)c2ccccc12 (3D coordinates assigned)
CC[N@@H+](C)CCOCCNc1c2ccccc2[n+](C)c2ccccc12 (optimized conformer: 84.1222662403075 kcal/mol)

>  <smiles>  (16) 
CCN(C)CCOCCNc1c2ccccc2[n+](C)c2ccccc12

>  <score_type>  (16) 
oracle

>  <origin>  (16) 
adg

>  <m_score__min__energy>  (16) 
-3.54

>  <m_primary>  (16) 
energy

$$$$
16:0
     RDKit          3D

 51 54  0  0  0  0  0  0  0  0999 V2000
   63.0660   34.1740   50.3250 C   0  0  0  0  0  0  0  0  0  0  0  0
   62.2260   33.6490   49.1620 C   0  0  0  0  0  0  0  0  0  0  0  0
   62.9090   32.5280   48.4800 N   0  0  0  0  0  0  0  0  0  0  0  0
   63.7010   32.9310   47.2970 C   0  0  0  0  0  0  0  0  0  0  0  0
   62.9470   33.8520   46.3360 C   0  0  0  0  0  0  0  0  0  0  0  0
   62.1410   31.2660   48.3180 C   0  0  0  0  0  0  0  0  0  0  0  0
   61.4310   30.7680   49.5930 C   0  0  0  0  0  0  0  0  0  0  0  0
   59.9850   30.9360   49.4570 N   0  0  0  0  0  0  0  0  0  0  0  0
   59.2470   30.4570   48.3230 C   0  0  0  0  0  0  0  0  0  0  0  0
   58.9400   29.1650   48.1130 C   0  0  0  0  0  0  0  0  0  0  0  0
   58.4670   29.0560   46.7380 C   0  0  0  0  0  0  0  0  0  0  0  0
   58.1110   27.9550   45.9650 C   0  0  0  0  0  0  0  0  0  0  0  0
   57.7870   28.1790   44.6120 C   0  0  0  0  0  0  0  0  0  0  0  0
   57.8250   29.4850   44.0630 C   0  0  0  0  0  0  0  0  0  0  0  0
   58.1780   30.5960   44.8800 C   0  0  0  0  0  0  0  0  0  0  0  0
   58.5040   30.3040   46.1940 C   0  0  0  0  0  0  0  0  0  0  0  0
   58.9480   31.2220   47.0870 C   0  0  0  0  0  0  0  0  0  0  0  0
   59.0550   32.5620   46.6960 C   0  0  0  0  0  0  0  0  0  0  0  0
   59.4240   33.5770   47.5940 C   0  0  0  0  0  0  0  0  0  0  0  0
   59.5930   34.8860   47.1480 C   0  0  0  0  0  0  0  0  0  0  0  0
   59.3960   35.2000   45.8060 C   0  0  0  0  0  0  0  0  0  0  0  0
   58.9760   34.2200   44.9050 C   0  0  0  0  0  0  0  0  0  0  0  0
   58.7450   32.8880   45.3300 C   0  0  0  0  0  0  0  0  0  0  0  0
   58.2420   31.9130   44.4620 N   0  0  0  0  0  0  0  0  0  0  0  0
   57.7590   32.2850   43.1160 C   0  0  0  0  0  0  0  0  0  0  0  0
   62.5981   33.8816   51.2766 H   0  0  0  0  0  0  0  0  0  0  0  0
   64.0784   33.7476   50.2679 H   0  0  0  0  0  0  0  0  0  0  0  0
   63.1264   35.2709   50.2679 H   0  0  0  0  0  0  0  0  0  0  0  0
   61.2568   33.2992   49.5471 H   0  0  0  0  0  0  0  0  0  0  0  0
   62.0807   34.4642   48.4379 H   0  0  0  0  0  0  0  0  0  0  0  0
   64.6027   33.4560   47.6453 H   0  0  0  0  0  0  0  0  0  0  0  0
   63.9384   32.0119   46.7412 H   0  0  0  0  0  0  0  0  0  0  0  0
   62.3536   34.5768   46.9126 H   0  0  0  0  0  0  0  0  0  0  0  0
   63.6676   34.3896   45.7022 H   0  0  0  0  0  0  0  0  0  0  0  0
   62.2777   33.2518   45.7022 H   0  0  0  0  0  0  0  0  0  0  0  0
   61.3772   31.4282   47.5432 H   0  0  0  0  0  0  0  0  0  0  0  0
   62.8749   30.4911   48.0517 H   0  0  0  0  0  0  0  0  0  0  0  0
   61.6614   29.7034   49.7462 H   0  0  0  0  0  0  0  0  0  0  0  0
   61.7834   31.3533   50.4551 H   0  0  0  0  0  0  0  0  0  0  0  0
   59.5140   31.5860   50.1230 H   0  0  0  0  0  0  0  0  0  0  0  0
   59.0289   28.3451   48.8409 H   0  0  0  0  0  0  0  0  0  0  0  0
   58.0834   26.9433   46.3959 H   0  0  0  0  0  0  0  0  0  0  0  0
   57.5011   27.3297   43.9741 H   0  0  0  0  0  0  0  0  0  0  0  0
   57.5809   29.6407   43.0018 H   0  0  0  0  0  0  0  0  0  0  0  0
   59.5805   33.3369   48.6560 H   0  0  0  0  0  0  0  0  0  0  0  0
   59.8830   35.6741   47.8585 H   0  0  0  0  0  0  0  0  0  0  0  0
   59.5724   36.2269   45.4534 H   0  0  0  0  0  0  0  0  0  0  0  0
   58.8220   34.4858   43.8488 H   0  0  0  0  0  0  0  0  0  0  0  0
   56.8907   32.9538   43.2099 H   0  0  0  0  0  0  0  0  0  0  0  0
   58.5614   32.8007   42.5681 H   0  0  0  0  0  0  0  0  0  0  0  0
   57.4653   31.3775   42.5681 H   0  0  0  0  0  0  0  0  0  0  0  0
  1  2  1  0
  2  3  1  0
  3  4  1  0
  4  5  1  0
  3  6  1  0
  6  7  1  0
  7  8  1  0
  8  9  1  0
  9 10  2  0
 10 11  1  0
 11 12  2  0
 12 13  1  0
 13 14  2  0
 14 15  1  0
 15 16  2  0
 16 17  1  0
 17 18  2  0
 18 19  1  0
 19 20  2  0
 20 21  1  0
 21 22  2  0
 22 23  1  0
 23 24  2  0
 24 25  1  0
 17  9  1  0
 23 18  1  0
 16 11  1  0
 24 15  1  0
  1 26  1  0
  1 27  1  0
  1 28  1  0
  2 29  1  0
  2 30  1  0
  4 31  1  0
  4 32  1  0
  5 33  1  0
  5 34  1  0
  5 35  1  0
  6 36  1  0
  6 37  1  0
  7 38  1  0
  7 39  1  0
  8 40  1  0
 10 41  1  0
 12 42  1  0
 13 43  1  0
 14 44  1  0
 19 45  1  0
 20 46  1  0
 21 47  1  0
 22 48  1  0
 25 49  1  0
 25 50  1  0
 25 51  1  0
M  CHG  1  24   1
M  END
>  <UniqueID>  (17) 
17

>  <SMILES>  (17) 
CCN(CC)CCNC1=Cc2cccc3c2c1c1ccccc1[n+]3C

>  <Energy>  (17) 
115.06457729141509

>  <Genealogy>  (17) 
CCN(CC)CCNC1=Cc2cccc3c2c1c1ccccc1[n+]3C (3D coordinates assigned)
CCN(CC)CCNC1=Cc2cccc3c2c1c1ccccc1[n+]3C (nonaromatic ring conformer: 115.06457729141509 kcal/mol)

>  <smiles>  (17) 
CCN(CC)CCNC1=Cc2cccc3c2c1c1ccccc1[n+]3C

>  <score_type>  (17) 
oracle

>  <origin>  (17) 
adg

>  <m_score__min__energy>  (17) 
-6.5899999999999999

>  <m_primary>  (17) 
energy

$$$$
17:0
     RDKit          3D

 27 27  0  0  0  0  0  0  0  0999 V2000
   58.1220   26.9090   42.6220 C   0  0  0  0  0  0  0  0  0  0  0  0
   58.3550   27.6960   43.9150 C   0  0  0  0  0  0  0  0  0  0  0  0
   58.0500   29.1320   43.7590 N   0  0  0  0  0  0  0  0  0  0  0  0
   56.7130   29.3860   43.1880 C   0  0  0  0  0  0  0  0  0  0  0  0
   55.9150   30.4630   43.9460 C   0  0  0  0  0  0  0  0  0  0  0  0
   56.6580   30.9790   45.0530 O   0  0  0  0  0  0  0  0  0  0  0  0
   57.3990   32.1740   45.0830 C   0  0  0  0  0  0  0  0  0  0  0  0
   57.4150   32.9090   46.2730 C   0  0  0  0  0  0  0  0  0  0  0  0
   58.1350   34.1020   46.3560 C   0  0  0  0  0  0  0  0  0  0  0  0
   58.8410   34.5520   45.2400 C   0  0  0  0  0  0  0  0  0  0  0  0
   58.8220   33.8320   44.0890 N   0  0  0  0  0  0  0  0  0  0  0  0
   58.1280   32.6660   43.9810 C   0  0  0  0  0  0  0  0  0  0  0  0
   57.8177   25.8810   42.8682 H   0  0  0  0  0  0  0  0  0  0  0  0
   57.3293   27.3953   42.0345 H   0  0  0  0  0  0  0  0  0  0  0  0
   59.0517   26.8854   42.0345 H   0  0  0  0  0  0  0  0  0  0  0  0
   57.7096   27.2808   44.7031 H   0  0  0  0  0  0  0  0  0  0  0  0
   59.4192   27.6044   44.1778 H   0  0  0  0  0  0  0  0  0  0  0  0
   58.7670   29.5740   43.1370 H   0  0  0  0  0  0  0  0  0  0  0  0
   58.1390   29.6070   44.6850 H   0  0  0  0  0  0  0  0  0  0  0  0
   56.8364   29.7137   42.1452 H   0  0  0  0  0  0  0  0  0  0  0  0
   56.1445   28.4476   43.2663 H   0  0  0  0  0  0  0  0  0  0  0  0
   55.6814   31.2873   43.2562 H   0  0  0  0  0  0  0  0  0  0  0  0
   54.9927   30.0039   44.3315 H   0  0  0  0  0  0  0  0  0  0  0  0
   56.8571   32.5449   47.1483 H   0  0  0  0  0  0  0  0  0  0  0  0
   58.1456   34.6810   47.2912 H   0  0  0  0  0  0  0  0  0  0  0  0
   59.4130   35.4901   45.2926 H   0  0  0  0  0  0  0  0  0  0  0  0
   58.1359   32.1073   43.0335 H   0  0  0  0  0  0  0  0  0  0  0  0
  1  2  1  0
  2  3  1  0
  3  4  1  0
  4  5  1  0
  5  6  1  0
  6  7  1  0
  7  8  2  0
  8  9  1  0
  9 10  2  0
 10 11  1  0
 11 12  2  0
 12  7  1  0
  1 13  1  0
  1 14  1  0
  1 15  1  0
  2 16  1  0
  2 17  1  0
  3 18  1  0
  3 19  1  0
  4 20  1  0
  4 21  1  0
  5 22  1  0
  5 23  1  0
  8 24  1  0
  9 25  1  0
 10 26  1  0
 12 27  1  0
M  CHG  1   3   1
M  END
>  <UniqueID>  (18) 
18

>  <SMILES>  (18) 
CC[NH2+]CCOc1cccnc1

>  <Energy>  (18) 
26.601740766042283

>  <Genealogy>  (18) 
CC[NH2+]CCOc1cccnc1 (protonated)
CC[NH2+]CCOc1cccnc1 (3D coordinates assigned)
CC[NH2+]CCOc1cccnc1 (optimized conformer: 26.601740766042283 kcal/mol)

>  <smiles>  (18) 
CCNCCOc1cccnc1

>  <score_type>  (18) 
oracle

>  <origin>  (18) 
adg

>  <m_score__min__energy>  (18) 
-3.0800000000000001

>  <m_primary>  (18) 
energy

$$$$
18:0
     RDKit          3D

 25 27  0  0  0  0  0  0  0  0999 V2000
   57.7210   34.2010   44.8560 C   0  0  0  0  0  0  0  0  0  0  0  0
   58.7320   34.3040   45.9000 N   0  0  0  0  0  0  0  0  0  0  0  0
   60.0150   33.9150   45.7920 C   0  0  0  0  0  0  0  0  0  0  0  0
   60.6220   34.1090   47.0150 C   0  0  0  0  0  0  0  0  0  0  0  0
   62.0090   33.7540   47.3720 C   0  0  0  0  0  0  0  0  0  0  0  0
   63.0230   33.4630   46.4670 C   0  0  0  0  0  0  0  0  0  0  0  0
   64.1480   33.1560   47.1500 N   0  0  0  0  0  0  0  0  0  0  0  0
   63.8070   33.2760   48.4450 C   0  0  0  0  0  0  0  0  0  0  0  0
   64.6400   33.0900   49.5440 C   0  0  0  0  0  0  0  0  0  0  0  0
   64.1200   33.3040   50.7870 N   0  0  0  0  0  0  0  0  0  0  0  0
   62.8230   33.6980   50.9610 C   0  0  0  0  0  0  0  0  0  0  0  0
   61.9940   33.8850   49.8440 C   0  0  0  0  0  0  0  0  0  0  0  0
   62.5240   33.6410   48.6160 N   0  0  0  0  0  0  0  0  0  0  0  0
   59.6210   34.5930   47.8420 C   0  0  0  0  0  0  0  0  0  0  0  0
   58.4770   34.6960   47.1380 N   0  0  0  0  0  0  0  0  0  0  0  0
   56.7272   34.0998   45.3166 H   0  0  0  0  0  0  0  0  0  0  0  0
   57.7452   35.1063   44.2316 H   0  0  0  0  0  0  0  0  0  0  0  0
   57.9273   33.3192   44.2316 H   0  0  0  0  0  0  0  0  0  0  0  0
   60.4953   33.5131   44.8877 H   0  0  0  0  0  0  0  0  0  0  0  0
   62.9255   33.4799   45.3715 H   0  0  0  0  0  0  0  0  0  0  0  0
   65.0770   32.8920   46.7540 H   0  0  0  0  0  0  0  0  0  0  0  0
   65.6873   32.7795   49.4143 H   0  0  0  0  0  0  0  0  0  0  0  0
   62.4297   33.8682   51.9741 H   0  0  0  0  0  0  0  0  0  0  0  0
   60.9517   34.2174   49.9582 H   0  0  0  0  0  0  0  0  0  0  0  0
   59.7413   34.8519   48.9043 H   0  0  0  0  0  0  0  0  0  0  0  0
  1  2  1  0
  2  3  1  0
  3  4  2  0
  4  5  1  0
  5  6  2  0
  6  7  1  0
  7  8  2  0
  8  9  1  0
  9 10  2  0
 10 11  1  0
 11 12  2  0
 12 13  1  0
  4 14  1  0
 14 15  2  0
 15  2  1  0
 13  5  1  0
 13  8  1  0
  1 16  1  0
  1 17  1  0
  1 18  1  0
  3 19  1  0
  6 20  1  0
  7 21  1  0
  9 22  1  0
 11 23  1  0
 12 24  1  0
 14 25  1  0
M  CHG  1   7   1
M  END
>  <UniqueID>  (19) 
19

>  <SMILES>  (19) 
Cn1cc(-c2c[nH+]c3cnccn23)cn1

>  <Energy>  (19) 
97.86924205142029

>  <Genealogy>  (19) 
Cn1cc(-c2c[nH+]c3cnccn23)cn1 (protonated)
Cn1cc(-c2c[nH+]c3cnccn23)cn1 (3D coordinates assigned)
Cn1cc(-c2c[nH+]c3cnccn23)cn1 (optimized conformer: 97.86924205142029 kcal/mol)

>  <smiles>  (19) 
Cn1cc(-c2cnc3cnccn23)cn1

>  <score_type>  (19) 
oracle

>  <origin>  (19) 
adg

>  <m_score__min__energy>  (19) 
-4.1100000000000003

>  <m_primary>  (19) 
energy

$$$$
19:0
     RDKit          3D

 49 51  0  0  0  0  0  0  0  0999 V2000
   63.3860   33.4220   46.7840 C   0  0  0  0  0  0  0  0  0  0  0  0
   62.8120   32.1810   47.4670 C   0  0  0  0  0  0  0  0  0  0  0  0
   61.6050   32.5200   48.2540 N   0  0  0  0  0  0  0  0  0  0  0  0
   61.0300   33.8050   47.7960 C   0  0  0  0  0  0  0  0  0  0  0  0
   59.8400   34.2150   48.6620 C   0  0  0  0  0  0  0  0  0  0  0  0
   60.6020   31.4230   48.2210 C   0  0  0  0  0  0  0  0  0  0  0  0
   61.1410   30.2650   47.3810 C   0  0  0  0  0  0  0  0  0  0  0  0
   60.0730   29.6920   46.5630 N   0  0  0  0  0  0  0  0  0  0  0  0
   59.2270   30.3880   45.7680 C   0  0  0  0  0  0  0  0  0  0  0  0
   58.3860   29.5180   45.0900 C   0  0  0  0  0  0  0  0  0  0  0  0
   57.0770   29.9630   44.0060 S   0  0  0  0  0  0  0  0  0  0  0  0
   56.9940   28.9670   42.8850 O   0  0  0  0  0  0  0  0  0  0  0  0
   55.7780   29.9570   44.7610 O   0  0  0  0  0  0  0  0  0  0  0  0
   57.3750   31.5860   43.3280 C   0  0  0  0  0  0  0  0  0  0  0  0
   57.6250   32.5630   44.4290 C   0  0  0  0  0  0  0  0  0  0  0  0
   58.5170   33.6160   44.3870 C   0  0  0  0  0  0  0  0  0  0  0  0
   58.3770   34.2670   45.5930 C   0  0  0  0  0  0  0  0  0  0  0  0
   57.4100   33.5730   46.2930 C   0  0  0  0  0  0  0  0  0  0  0  0
   56.9790   32.5650   45.5720 O   0  0  0  0  0  0  0  0  0  0  0  0
   58.7420   28.2470   45.4910 C   0  0  0  0  0  0  0  0  0  0  0  0
   58.2330   26.9970   45.1400 C   0  0  0  0  0  0  0  0  0  0  0  0
   58.8190   25.8610   45.7270 C   0  0  0  0  0  0  0  0  0  0  0  0
   59.8880   25.9990   46.6390 C   0  0  0  0  0  0  0  0  0  0  0  0
   60.3800   27.2730   46.9760 C   0  0  0  0  0  0  0  0  0  0  0  0
   59.7780   28.3860   46.3820 C   0  0  0  0  0  0  0  0  0  0  0  0
   63.7183   34.1403   47.5479 H   0  0  0  0  0  0  0  0  0  0  0  0
   64.2416   33.1324   46.1563 H   0  0  0  0  0  0  0  0  0  0  0  0
   62.6113   33.8864   46.1563 H   0  0  0  0  0  0  0  0  0  0  0  0
   62.5448   31.4392   46.6999 H   0  0  0  0  0  0  0  0  0  0  0  0
   63.5723   31.7727   48.1491 H   0  0  0  0  0  0  0  0  0  0  0  0
   61.8028   34.5856   47.8547 H   0  0  0  0  0  0  0  0  0  0  0  0
   60.6821   33.6824   46.7597 H   0  0  0  0  0  0  0  0  0  0  0  0
   60.1102   34.1219   49.7242 H   0  0  0  0  0  0  0  0  0  0  0  0
   59.5691   35.2583   48.4426 H   0  0  0  0  0  0  0  0  0  0  0  0
   58.9839   33.5600   48.4426 H   0  0  0  0  0  0  0  0  0  0  0  0
   60.4073   31.0732   49.2456 H   0  0  0  0  0  0  0  0  0  0  0  0
   59.6669   31.7943   47.7764 H   0  0  0  0  0  0  0  0  0  0  0  0
   61.9423   30.6350   46.7245 H   0  0  0  0  0  0  0  0  0  0  0  0
   61.5336   29.4876   48.0530 H   0  0  0  0  0  0  0  0  0  0  0  0
   59.2091   31.4838   45.6734 H   0  0  0  0  0  0  0  0  0  0  0  0
   58.2540   31.5489   42.6677 H   0  0  0  0  0  0  0  0  0  0  0  0
   56.4913   31.9056   42.7563 H   0  0  0  0  0  0  0  0  0  0  0  0
   59.1968   33.8798   43.5634 H   0  0  0  0  0  0  0  0  0  0  0  0
   58.9248   35.1593   45.9302 H   0  0  0  0  0  0  0  0  0  0  0  0
   57.0547   33.8269   47.3026 H   0  0  0  0  0  0  0  0  0  0  0  0
   57.4004   26.9025   44.4273 H   0  0  0  0  0  0  0  0  0  0  0  0
   58.4422   24.8590   45.4740 H   0  0  0  0  0  0  0  0  0  0  0  0
   60.3398   25.1030   47.0896 H   0  0  0  0  0  0  0  0  0  0  0  0
   61.2128   27.3898   47.6851 H   0  0  0  0  0  0  0  0  0  0  0  0
  1  2  1  0
  2  3  1  0
  3  4  1  0
  4  5  1  0
  3  6  1  0
  6  7  1  0
  7  8  1  0
  8  9  1  0
  9 10  2  0
 10 11  1  0
 11 12  2  0
 11 13  2  0
 11 14  1  0
 14 15  1  0
 15 16  2  0
 16 17  1  0
 17 18  2  0
 18 19  1  0
 10 20  1  0
 20 21  2  0
 21 22  1  0
 22 23  2  0
 23 24  1  0
 24 25  2  0
 25  8  1  0
 19 15  1  0
 25 20  1  0
  1 26  1  0
  1 27  1  0
  1 28  1  0
  2 29  1  0
  2 30  1  0
  4 31  1  0
  4 32  1  0
  5 33  1  0
  5 34  1  0
  5 35  1  0
  6 36  1  0
  6 37  1  0
  7 38  1  0
  7 39  1  0
  9 40  1  0
 14 41  1  0
 14 42  1  0
 16 43  1  0
 17 44  1  0
 18 45  1  0
 21 46  1  0
 22 47  1  0
 23 48  1  0
 24 49  1  0
M  END
>  <UniqueID>  (20) 
20

>  <SMILES>  (20) 
CCN(CC)CCn1cc(S(=O)(=O)Cc2ccco2)c2ccccc21

>  <Energy>  (20) 
101.22937068093783

>  <Genealogy>  (20) 
CCN(CC)CCn1cc(S(=O)(=O)Cc2ccco2)c2ccccc21 (3D coordinates assigned)
CCN(CC)CCn1cc(S(=O)(=O)Cc2ccco2)c2ccccc21 (optimized conformer: 101.22937068093783 kcal/mol)

>  <smiles>  (20) 
CCN(CC)CCn1cc(S(=O)(=O)Cc2ccco2)c2ccccc21

>  <score_type>  (20) 
oracle

>  <origin>  (20) 
adg

>  <m_score__min__energy>  (20) 
-8.2899999999999991

>  <m_primary>  (20) 
energy

$$$$
20:0
     RDKit          3D

 50 52  0  0  0  0  0  0  0  0999 V2000
   63.3660   33.9040   46.3070 C   0  0  0  0  0  0  0  0  0  0  0  0
   63.0960   33.8490   47.8150 C   0  0  0  0  0  0  0  0  0  0  0  0
   63.7400   32.6900   48.4970 N   0  0  0  0  0  0  0  0  0  0  0  0
   64.3570   33.0900   49.7900 C   0  0  0  0  0  0  0  0  0  0  0  0
   65.8440   32.7190   49.8900 C   0  0  0  0  0  0  0  0  0  0  0  0
   62.8500   31.5080   48.6800 C   0  0  0  0  0  0  0  0  0  0  0  0
   62.0820   31.0540   47.4160 C   0  0  0  0  0  0  0  0  0  0  0  0
   60.6470   30.9290   47.6690 N   0  0  0  0  0  0  0  0  0  0  0  0
   59.7200   30.9470   46.5770 C   0  0  0  0  0  0  0  0  0  0  0  0
   59.2390   32.1600   46.0270 C   0  0  0  0  0  0  0  0  0  0  0  0
   59.6170   33.4010   46.5760 C   0  0  0  0  0  0  0  0  0  0  0  0
   59.1520   34.5940   46.0240 C   0  0  0  0  0  0  0  0  0  0  0  0
   58.3010   34.5720   44.9240 C   0  0  0  0  0  0  0  0  0  0  0  0
   57.8990   33.3570   44.3660 C   0  0  0  0  0  0  0  0  0  0  0  0
   58.3500   32.1240   44.9000 C   0  0  0  0  0  0  0  0  0  0  0  0
   57.9460   30.9090   44.3620 N   0  0  0  0  0  0  0  0  0  0  0  0
   57.0370   30.8530   43.2020 C   0  0  0  0  0  0  0  0  0  0  0  0
   58.4050   29.7580   44.9500 C   0  0  0  0  0  0  0  0  0  0  0  0
   58.1380   28.4260   44.6570 C   0  0  0  0  0  0  0  0  0  0  0  0
   58.8120   27.6670   45.4980 O   0  0  0  0  0  0  0  0  0  0  0  0
   59.4990   28.4310   46.3250 C   0  0  0  0  0  0  0  0  0  0  0  0
   60.3750   27.8930   47.4080 C   0  0  0  0  0  0  0  0  0  0  0  0
   59.2670   29.7600   46.0120 C   0  0  0  0  0  0  0  0  0  0  0  0
   64.4303   34.1208   46.1327 H   0  0  0  0  0  0  0  0  0  0  0  0
   63.1100   32.9353   45.8531 H   0  0  0  0  0  0  0  0  0  0  0  0
   62.7515   34.6954   45.8531 H   0  0  0  0  0  0  0  0  0  0  0  0
   63.4768   34.7752   48.2701 H   0  0  0  0  0  0  0  0  0  0  0  0
   62.0095   33.7345   47.9432 H   0  0  0  0  0  0  0  0  0  0  0  0
   64.5150   32.3610   47.8710 H   0  0  0  0  0  0  0  0  0  0  0  0
   64.2602   34.1801   49.9014 H   0  0  0  0  0  0  0  0  0  0  0  0
   63.8294   32.5453   50.5868 H   0  0  0  0  0  0  0  0  0  0  0  0
   66.1335   32.6468   50.9488 H   0  0  0  0  0  0  0  0  0  0  0  0
   66.0144   31.7508   49.3964 H   0  0  0  0  0  0  0  0  0  0  0  0
   66.4492   33.4937   49.3964 H   0  0  0  0  0  0  0  0  0  0  0  0
   63.4700   30.6659   49.0212 H   0  0  0  0  0  0  0  0  0  0  0  0
   62.0834   31.8152   49.4066 H   0  0  0  0  0  0  0  0  0  0  0  0
   62.2398   31.7946   46.6181 H   0  0  0  0  0  0  0  0  0  0  0  0
   62.4646   30.0662   47.1194 H   0  0  0  0  0  0  0  0  0  0  0  0
   60.2660   31.1190   48.6210 H   0  0  0  0  0  0  0  0  0  0  0  0
   60.2857   33.4292   47.4489 H   0  0  0  0  0  0  0  0  0  0  0  0
   59.4593   35.5560   46.4600 H   0  0  0  0  0  0  0  0  0  0  0  0
   57.9426   35.5176   44.4911 H   0  0  0  0  0  0  0  0  0  0  0  0
   57.2221   33.3566   43.4989 H   0  0  0  0  0  0  0  0  0  0  0  0
   55.9968   30.7889   43.5540 H   0  0  0  0  0  0  0  0  0  0  0  0
   57.1629   31.7606   42.5934 H   0  0  0  0  0  0  0  0  0  0  0  0
   57.2733   29.9677   42.5934 H   0  0  0  0  0  0  0  0  0  0  0  0
   57.4749   28.0653   43.8569 H   0  0  0  0  0  0  0  0  0  0  0  0
   59.9492   28.1545   48.3879 H   0  0  0  0  0  0  0  0  0  0  0  0
   60.4405   26.7987   47.3169 H   0  0  0  0  0  0  0  0  0  0  0  0
   61.3806   28.3294   47.3169 H   0  0  0  0  0  0  0  0  0  0  0  0
  1  2  1  0
  2  3  1  0
  3  4  1  0
  4  5  1  0
  3  6  1  0
  6  7  1  0
  7  8  1  0
  8  9  1  0
  9 10  2  0
 10 11  1  0
 11 12  2  0
 12 13  1  0
 13 14  2  0
 14 15  1  0
 15 16  2  0
 16 17  1  0
 16 18  1  0
 18 19  2  0
 19 20  1  0
 20 21  1  0
 21 22  1  0
 21 23  2  0
 23  9  1  0
 15 10  1  0
 23 18  1  0
  1 24  1  0
  1 25  1  0
  1 26  1  0
  2 27  1  0
  2 28  1  0
  3 29  1  0
  4 30  1  0
  4 31  1  0
  5 32  1  0
  5 33  1  0
  5 34  1  0
  6 35  1  0
  6 36  1  0
  7 37  1  0
  7 38  1  0
  8 39  1  0
 11 40  1  0
 12 41  1  0
 13 42  1  0
 14 43  1  0
 17 44  1  0
 17 45  1  0
 17 46  1  0
 19 47  1  0
 22 48  1  0
 22 49  1  0
 22 50  1  0
M  CHG  2   3   1  16   1
M  END
>  <UniqueID>  (21) 
21

>  <SMILES>  (21) 
CC[NH+](CC)CCNc1c2ccccc2[n+](C)c2coc(C)c12

>  <Energy>  (21) 
106.54619832290523

>  <Genealogy>  (21) 
CC[NH+](CC)CCNc1c2ccccc2[n+](C)c2coc(C)c12 (protonated)
CC[NH+](CC)CCNc1c2ccccc2[n+](C)c2coc(C)c12 (3D coordinates assigned)
CC[NH+](CC)CCNc1c2ccccc2[n+](C)c2coc(C)c12 (optimized conformer: 106.54619832290523 kcal/mol)

>  <smiles>  (21) 
CCN(CC)CCNc1c2ccccc2[n+](C)c2coc(C)c12

>  <score_type>  (21) 
oracle

>  <origin>  (21) 
adg

>  <m_score__min__energy>  (21) 
-4.0300000000000002

>  <m_primary>  (21) 
energy

$$$$
21:0
     RDKit          3D

 54 56  0  0  0  0  0  0  0  0999 V2000
   62.7660   30.8340   50.0970 C   0  0  0  0  0  0  0  0  0  0  0  0
   63.0100   31.5900   48.7820 C   0  0  0  0  0  0  0  0  0  0  0  0
   63.5030   32.9830   48.9550 N   0  0  0  0  0  0  0  0  0  0  0  0
   63.7720   33.6770   47.6670 C   0  0  0  0  0  0  0  0  0  0  0  0
   62.5610   33.6880   46.7270 C   0  0  0  0  0  0  0  0  0  0  0  0
   64.7030   33.0220   49.8390 C   0  0  0  0  0  0  0  0  0  0  0  0
   64.5050   33.9130   51.0840 C   0  0  0  0  0  0  0  0  0  0  0  0
   63.1290   33.7130   51.7340 C   0  0  0  0  0  0  0  0  0  0  0  0
   62.0930   34.0950   50.8320 O   0  0  0  0  0  0  0  0  0  0  0  0
   60.8220   33.5060   50.8190 C   0  0  0  0  0  0  0  0  0  0  0  0
   60.2880   33.1340   51.9010 O   0  0  0  0  0  0  0  0  0  0  0  0
   60.1040   33.3300   49.5380 C   0  0  0  0  0  0  0  0  0  0  0  0
   59.7140   34.4430   48.7770 C   0  0  0  0  0  0  0  0  0  0  0  0
   59.0410   34.2770   47.5630 C   0  0  0  0  0  0  0  0  0  0  0  0
   58.7430   32.9880   47.0780 C   0  0  0  0  0  0  0  0  0  0  0  0
   58.0700   32.7750   45.8490 C   0  0  0  0  0  0  0  0  0  0  0  0
   57.5550   34.1810   44.8290 S   0  0  0  0  0  0  0  0  0  0  0  0
   59.2610   34.7200   44.4970 C   0  0  0  0  0  0  0  0  0  0  0  0
   57.7990   31.4490   45.4290 C   0  0  0  0  0  0  0  0  0  0  0  0
   57.1280   31.1590   44.2220 C   0  0  0  0  0  0  0  0  0  0  0  0
   56.8870   29.8340   43.8450 C   0  0  0  0  0  0  0  0  0  0  0  0
   57.3070   28.7830   44.6610 C   0  0  0  0  0  0  0  0  0  0  0  0
   57.9700   29.0510   45.8600 C   0  0  0  0  0  0  0  0  0  0  0  0
   58.2180   30.3720   46.2480 C   0  0  0  0  0  0  0  0  0  0  0  0
   58.8650   30.6120   47.4150 N   0  0  0  0  0  0  0  0  0  0  0  0
   59.1350   31.8680   47.8490 C   0  0  0  0  0  0  0  0  0  0  0  0
   59.8070   32.0440   49.0630 C   0  0  0  0  0  0  0  0  0  0  0  0
   62.9804   31.4983   50.9471 H   0  0  0  0  0  0  0  0  0  0  0  0
   61.7167   30.5070   50.1427 H   0  0  0  0  0  0  0  0  0  0  0  0
   63.4262   29.9553   50.1427 H   0  0  0  0  0  0  0  0  0  0  0  0
   63.7559   31.0314   48.1976 H   0  0  0  0  0  0  0  0  0  0  0  0
   62.0355   31.6629   48.2769 H   0  0  0  0  0  0  0  0  0  0  0  0
   62.7270   33.5010   49.4280 H   0  0  0  0  0  0  0  0  0  0  0  0
   64.0577   34.7172   47.8825 H   0  0  0  0  0  0  0  0  0  0  0  0
   64.5773   33.1263   47.1589 H   0  0  0  0  0  0  0  0  0  0  0  0
   61.6355   33.6964   47.3214 H   0  0  0  0  0  0  0  0  0  0  0  0
   62.5975   34.5859   46.0925 H   0  0  0  0  0  0  0  0  0  0  0  0
   62.5811   32.7896   46.0925 H   0  0  0  0  0  0  0  0  0  0  0  0
   64.9263   31.9979   50.1726 H   0  0  0  0  0  0  0  0  0  0  0  0
   65.5293   33.4521   49.2540 H   0  0  0  0  0  0  0  0  0  0  0  0
   65.2832   33.6673   51.8216 H   0  0  0  0  0  0  0  0  0  0  0  0
   64.5735   34.9620   50.7600 H   0  0  0  0  0  0  0  0  0  0  0  0
   63.0048   32.6531   52.0007 H   0  0  0  0  0  0  0  0  0  0  0  0
   63.0659   34.3396   52.6359 H   0  0  0  0  0  0  0  0  0  0  0  0
   59.9403   35.4565   49.1397 H   0  0  0  0  0  0  0  0  0  0  0  0
   58.7413   35.1609   46.9809 H   0  0  0  0  0  0  0  0  0  0  0  0
   59.7852   34.8856   45.4498 H   0  0  0  0  0  0  0  0  0  0  0  0
   59.7851   33.9437   43.9203 H   0  0  0  0  0  0  0  0  0  0  0  0
   59.2440   35.6565   43.9203 H   0  0  0  0  0  0  0  0  0  0  0  0
   56.7920   31.9811   43.5729 H   0  0  0  0  0  0  0  0  0  0  0  0
   56.3642   29.6195   42.9013 H   0  0  0  0  0  0  0  0  0  0  0  0
   57.1156   27.7426   44.3594 H   0  0  0  0  0  0  0  0  0  0  0  0
   58.2986   28.2204   46.5020 H   0  0  0  0  0  0  0  0  0  0  0  0
   60.1059   31.1642   49.6518 H   0  0  0  0  0  0  0  0  0  0  0  0
  1  2  1  0
  2  3  1  0
  3  4  1  0
  4  5  1  0
  3  6  1  0
  6  7  1  0
  7  8  1  0
  8  9  1  0
  9 10  1  0
 10 11  2  0
 10 12  1  0
 12 13  2  0
 13 14  1  0
 14 15  2  0
 15 16  1  0
 16 17  1  0
 17 18  1  0
 16 19  2  0
 19 20  1  0
 20 21  2  0
 21 22  1  0
 22 23  2  0
 23 24  1  0
 24 25  2  0
 25 26  1  0
 26 27  2  0
 27 12  1  0
 26 15  1  0
 24 19  1  0
  1 28  1  0
  1 29  1  0
  1 30  1  0
  2 31  1  0
  2 32  1  0
  3 33  1  0
  4 34  1  0
  4 35  1  0
  5 36  1  0
  5 37  1  0
  5 38  1  0
  6 39  1  0
  6 40  1  0
  7 41  1  0
  7 42  1  0
  8 43  1  0
  8 44  1  0
 13 45  1  0
 14 46  1  0
 18 47  1  0
 18 48  1  0
 18 49  1  0
 20 50  1  0
 21 51  1  0
 22 52  1  0
 23 53  1  0
 27 54  1  0
M  CHG  1   3   1
M  END
>  <UniqueID>  (22) 
22

>  <SMILES>  (22) 
CC[NH+](CC)CCCOC(=O)c1ccc2c(SC)c3ccccc3nc2c1

>  <Energy>  (22) 
61.33542507167027

>  <Genealogy>  (22) 
CC[NH+](CC)CCCOC(=O)c1ccc2c(SC)c3ccccc3nc2c1 (protonated)
CC[NH+](CC)CCCOC(=O)c1ccc2c(SC)c3ccccc3nc2c1 (3D coordinates assigned)
CC[NH+](CC)CCCOC(=O)c1ccc2c(SC)c3ccccc3nc2c1 (optimized conformer: 61.33542507167027 kcal/mol)

>  <smiles>  (22) 
CCN(CC)CCCOC(=O)c1ccc2c(SC)c3ccccc3nc2c1

>  <score_type>  (22) 
oracle

>  <origin>  (22) 
adg

>  <m_score__min__energy>  (22) 
-6.3799999999999999

>  <m_primary>  (22) 
energy

$$$$
22:0
     RDKit          3D

 51 53  0  0  0  0  0  0  0  0999 V2000
   52.0560   31.8810   50.9200 C   0  0  0  0  0  0  0  0  0  0  0  0
   52.8140   30.9990   51.9040 C   0  0  0  0  0  0  0  0  0  0  0  0
   54.2060   30.8360   51.4620 N   0  0  0  0  0  0  0  0  0  0  0  0
   54.9700   29.9840   52.3860 C   0  0  0  0  0  0  0  0  0  0  0  0
   56.4780   30.2720   52.2890 C   0  0  0  0  0  0  0  0  0  0  0  0
   56.7830   31.4030   51.3930 N   0  0  0  0  0  0  0  0  0  0  0  0
   57.3480   32.5620   52.1000 C   0  0  0  0  0  0  0  0  0  0  0  0
   58.5960   33.0930   51.3810 C   0  0  0  0  0  0  0  0  0  0  0  0
   58.8960   32.3190   50.1710 N   0  0  0  0  0  0  0  0  0  0  0  0
   59.8890   32.7350   49.2160 C   0  0  0  0  0  0  0  0  0  0  0  0
   59.5050   33.2440   47.9620 C   0  0  0  0  0  0  0  0  0  0  0  0
   58.1530   33.2330   47.5590 C   0  0  0  0  0  0  0  0  0  0  0  0
   57.7640   33.8160   46.3550 C   0  0  0  0  0  0  0  0  0  0  0  0
   58.7130   34.4150   45.5350 C   0  0  0  0  0  0  0  0  0  0  0  0
   60.0610   34.3930   45.8880 C   0  0  0  0  0  0  0  0  0  0  0  0
   60.4950   33.7600   47.0830 C   0  0  0  0  0  0  0  0  0  0  0  0
   61.8360   33.6490   47.4010 N   0  0  0  0  0  0  0  0  0  0  0  0
   62.8660   33.9270   46.3750 C   0  0  0  0  0  0  0  0  0  0  0  0
   62.2170   33.2360   48.6660 C   0  0  0  0  0  0  0  0  0  0  0  0
   63.5600   33.3350   49.1110 C   0  0  0  0  0  0  0  0  0  0  0  0
   63.9380   32.8690   50.3700 C   0  0  0  0  0  0  0  0  0  0  0  0
   62.9940   32.3070   51.2200 C   0  0  0  0  0  0  0  0  0  0  0  0
   61.6590   32.2370   50.8310 C   0  0  0  0  0  0  0  0  0  0  0  0
   61.2490   32.7210   49.5700 C   0  0  0  0  0  0  0  0  0  0  0  0
   51.4369   32.6013   51.4749 H   0  0  0  0  0  0  0  0  0  0  0  0
   52.7730   32.4247   50.2873 H   0  0  0  0  0  0  0  0  0  0  0  0
   51.4107   31.2539   50.2873 H   0  0  0  0  0  0  0  0  0  0  0  0
   52.8001   31.4676   52.8991 H   0  0  0  0  0  0  0  0  0  0  0  0
   52.3314   30.0116   51.9505 H   0  0  0  0  0  0  0  0  0  0  0  0
   54.6490   31.7850   51.4630 H   0  0  0  0  0  0  0  0  0  0  0  0
   54.6330   30.1780   53.4150 H   0  0  0  0  0  0  0  0  0  0  0  0
   54.7977   28.9323   52.1137 H   0  0  0  0  0  0  0  0  0  0  0  0
   56.8572   30.5070   53.2945 H   0  0  0  0  0  0  0  0  0  0  0  0
   56.9620   29.3766   51.8718 H   0  0  0  0  0  0  0  0  0  0  0  0
   55.9240   31.7010   50.8740 H   0  0  0  0  0  0  0  0  0  0  0  0
   56.5919   33.3597   52.1438 H   0  0  0  0  0  0  0  0  0  0  0  0
   57.6363   32.2466   53.1136 H   0  0  0  0  0  0  0  0  0  0  0  0
   58.4257   34.1427   51.0996 H   0  0  0  0  0  0  0  0  0  0  0  0
   59.4513   33.0024   52.0668 H   0  0  0  0  0  0  0  0  0  0  0  0
   58.4280   31.3940   50.0360 H   0  0  0  0  0  0  0  0  0  0  0  0
   57.3975   32.7588   48.2027 H   0  0  0  0  0  0  0  0  0  0  0  0
   56.7062   33.8023   46.0534 H   0  0  0  0  0  0  0  0  0  0  0  0
   58.3988   34.9085   44.6035 H   0  0  0  0  0  0  0  0  0  0  0  0
   60.8006   34.8735   45.2306 H   0  0  0  0  0  0  0  0  0  0  0  0
   63.8152   34.1832   46.8683 H   0  0  0  0  0  0  0  0  0  0  0  0
   63.0082   33.0351   45.7471 H   0  0  0  0  0  0  0  0  0  0  0  0
   62.5401   34.7693   45.7471 H   0  0  0  0  0  0  0  0  0  0  0  0
   64.3161   33.7869   48.4521 H   0  0  0  0  0  0  0  0  0  0  0  0
   64.9873   32.9468   50.6910 H   0  0  0  0  0  0  0  0  0  0  0  0
   63.3015   31.9169   52.2014 H   0  0  0  0  0  0  0  0  0  0  0  0
   60.9156   31.7997   51.5138 H   0  0  0  0  0  0  0  0  0  0  0  0
  1  2  1  0
  2  3  1  0
  3  4  1  0
  4  5  1  0
  5  6  1  0
  6  7  1  0
  7  8  1  0
  8  9  1  0
  9 10  1  0
 10 11  2  0
 11 12  1  0
 12 13  2  0
 13 14  1  0
 14 15  2  0
 15 16  1  0
 16 17  2  0
 17 18  1  0
 17 19  1  0
 19 20  2  0
 20 21  1  0
 21 22  2  0
 22 23  1  0
 23 24  2  0
 24 10  1  0
 16 11  1  0
 24 19  1  0
  1 25  1  0
  1 26  1  0
  1 27  1  0
  2 28  1  0
  2 29  1  0
  3 30  1  0
  4 31  1  0
  4 32  1  0
  5 33  1  0
  5 34  1  0
  6 35  1  0
  7 36  1  0
  7 37  1  0
  8 38  1  0
  8 39  1  0
  9 40  1  0
 12 41  1  0
 13 42  1  0
 14 43  1  0
 15 44  1  0
 18 45  1  0
 18 46  1  0
 18 47  1  0
 20 48  1  0
 21 49  1  0
 22 50  1  0
 23 51  1  0
M  CHG  1  17   1
M  END
>  <UniqueID>  (23) 
23

>  <SMILES>  (23) 
CCNCCNCCNc1c2ccccc2[n+](C)c2ccccc12

>  <Energy>  (23) 
73.17036679437665

>  <Genealogy>  (23) 
CCNCCNCCNc1c2ccccc2[n+](C)c2ccccc12 (3D coordinates assigned)
CCNCCNCCNc1c2ccccc2[n+](C)c2ccccc12 (optimized conformer: 73.17036679437665 kcal/mol)

>  <smiles>  (23) 
CCNCCNCCNc1c2ccccc2[n+](C)c2ccccc12

>  <score_type>  (23) 
oracle

>  <origin>  (23) 
adg

>  <m_score__min__energy>  (23) 
-5.4299999999999997

>  <m_primary>  (23) 
energy

$$$$
23:0
     RDKit          3D

 51 54  0  0  0  0  0  0  0  0999 V2000
   57.3930   31.9430   42.3150 C   0  0  0  0  0  0  0  0  0  0  0  0
   57.7560   31.7180   43.7560 C   0  0  0  0  0  0  0  0  0  0  0  0
   57.3910   30.6140   44.5150 C   0  0  0  0  0  0  0  0  0  0  0  0
   56.6190   29.4000   44.0640 C   0  0  0  0  0  0  0  0  0  0  0  0
   57.3690   28.5880   43.0870 N   0  0  0  0  0  0  0  0  0  0  0  0
   58.1280   27.4760   43.6980 C   0  0  0  0  0  0  0  0  0  0  0  0
   58.9090   27.9050   44.9210 C   0  0  0  0  0  0  0  0  0  0  0  0
   60.0710   28.6850   44.7850 C   0  0  0  0  0  0  0  0  0  0  0  0
   60.7720   29.1130   45.9180 C   0  0  0  0  0  0  0  0  0  0  0  0
   60.3290   28.7530   47.1920 C   0  0  0  0  0  0  0  0  0  0  0  0
   59.1910   27.9560   47.3370 C   0  0  0  0  0  0  0  0  0  0  0  0
   58.4890   27.5250   46.2080 C   0  0  0  0  0  0  0  0  0  0  0  0
   57.9090   30.8100   45.7810 C   0  0  0  0  0  0  0  0  0  0  0  0
   58.5940   32.0110   45.7410 C   0  0  0  0  0  0  0  0  0  0  0  0
   59.4070   32.5340   46.8590 C   0  0  0  0  0  0  0  0  0  0  0  0
   58.7830   32.9560   48.0440 C   0  0  0  0  0  0  0  0  0  0  0  0
   59.5450   33.4210   49.1190 C   0  0  0  0  0  0  0  0  0  0  0  0
   60.9440   33.4550   49.0320 C   0  0  0  0  0  0  0  0  0  0  0  0
   61.7190   33.9140   50.1090 C   0  0  0  0  0  0  0  0  0  0  0  0
   63.1140   33.9320   50.0110 C   0  0  0  0  0  0  0  0  0  0  0  0
   63.7440   33.4920   48.8430 C   0  0  0  0  0  0  0  0  0  0  0  0
   62.9820   33.0310   47.7640 C   0  0  0  0  0  0  0  0  0  0  0  0
   61.5810   33.0130   47.8480 C   0  0  0  0  0  0  0  0  0  0  0  0
   60.8090   32.5560   46.7700 C   0  0  0  0  0  0  0  0  0  0  0  0
   58.4710   32.5800   44.5180 N   0  0  0  0  0  0  0  0  0  0  0  0
   58.9990   33.8780   44.0910 C   0  0  0  0  0  0  0  0  0  0  0  0
   56.4593   32.5218   42.2581 H   0  0  0  0  0  0  0  0  0  0  0  0
   58.2002   32.4994   41.8161 H   0  0  0  0  0  0  0  0  0  0  0  0
   57.2538   30.9726   41.8161 H   0  0  0  0  0  0  0  0  0  0  0  0
   56.3946   28.7774   44.9427 H   0  0  0  0  0  0  0  0  0  0  0  0
   55.6991   29.7506   43.5731 H   0  0  0  0  0  0  0  0  0  0  0  0
   56.7310   28.2460   42.3320 H   0  0  0  0  0  0  0  0  0  0  0  0
   58.0620   29.2240   42.6250 H   0  0  0  0  0  0  0  0  0  0  0  0
   57.4206   26.6863   43.9913 H   0  0  0  0  0  0  0  0  0  0  0  0
   58.8512   27.1171   42.9508 H   0  0  0  0  0  0  0  0  0  0  0  0
   60.4309   28.9602   43.7827 H   0  0  0  0  0  0  0  0  0  0  0  0
   61.6730   29.7337   45.8046 H   0  0  0  0  0  0  0  0  0  0  0  0
   60.8763   29.0971   48.0820 H   0  0  0  0  0  0  0  0  0  0  0  0
   58.8469   27.6672   48.3411 H   0  0  0  0  0  0  0  0  0  0  0  0
   57.6026   26.8846   46.3269 H   0  0  0  0  0  0  0  0  0  0  0  0
   57.7985   30.1430   46.6487 H   0  0  0  0  0  0  0  0  0  0  0  0
   57.6867   32.9203   48.1266 H   0  0  0  0  0  0  0  0  0  0  0  0
   59.0451   33.7619   50.0376 H   0  0  0  0  0  0  0  0  0  0  0  0
   61.2285   34.2598   51.0308 H   0  0  0  0  0  0  0  0  0  0  0  0
   63.7179   34.2938   50.8562 H   0  0  0  0  0  0  0  0  0  0  0  0
   64.8416   33.5083   48.7722 H   0  0  0  0  0  0  0  0  0  0  0  0
   63.4817   32.6821   46.8483 H   0  0  0  0  0  0  0  0  0  0  0  0
   61.3040   32.2128   45.8496 H   0  0  0  0  0  0  0  0  0  0  0  0
   59.2451   34.4829   44.9762 H   0  0  0  0  0  0  0  0  0  0  0  0
   59.9062   33.7245   43.4881 H   0  0  0  0  0  0  0  0  0  0  0  0
   58.2423   34.4013   43.4881 H   0  0  0  0  0  0  0  0  0  0  0  0
  1  2  1  0
  2  3  2  0
  3  4  1  0
  4  5  1  0
  5  6  1  0
  6  7  1  0
  7  8  2  0
  8  9  1  0
  9 10  2  0
 10 11  1  0
 11 12  2  0
  3 13  1  0
 13 14  2  0
 14 15  1  0
 15 16  2  0
 16 17  1  0
 17 18  2  0
 18 19  1  0
 19 20  2  0
 20 21  1  0
 21 22  2  0
 22 23  1  0
 23 24  2  0
 14 25  1  0
 25 26  1  0
 25  2  1  0
 12  7  1  0
 24 15  1  0
 23 18  1  0
  1 27  1  0
  1 28  1  0
  1 29  1  0
  4 30  1  0
  4 31  1  0
  5 32  1  0
  5 33  1  0
  6 34  1  0
  6 35  1  0
  8 36  1  0
  9 37  1  0
 10 38  1  0
 11 39  1  0
 12 40  1  0
 13 41  1  0
 16 42  1  0
 17 43  1  0
 19 44  1  0
 20 45  1  0
 21 46  1  0
 22 47  1  0
 24 48  1  0
 26 49  1  0
 26 50  1  0
 26 51  1  0
M  CHG  1   5   1
M  END
>  <UniqueID>  (24) 
24

>  <SMILES>  (24) 
Cc1c(C[NH2+]Cc2ccccc2)cc(-c2ccc3ccccc3c2)n1C

>  <Energy>  (24) 
85.38702692026283

>  <Genealogy>  (24) 
Cc1c(C[NH2+]Cc2ccccc2)cc(-c2ccc3ccccc3c2)n1C (protonated)
Cc1c(C[NH2+]Cc2ccccc2)cc(-c2ccc3ccccc3c2)n1C (3D coordinates assigned)
Cc1c(C[NH2+]Cc2ccccc2)cc(-c2ccc3ccccc3c2)n1C (optimized conformer: 85.38702692026283 kcal/mol)

>  <smiles>  (24) 
Cc1c(CNCc2ccccc2)cc(-c2ccc3ccccc3c2)n1C

>  <score_type>  (24) 
oracle

>  <origin>  (24) 
adg

>  <m_score__min__energy>  (24) 
-7.3799999999999999

>  <m_primary>  (24) 
energy

$$$$
24:0
     RDKit          3D

 28 29  0  0  0  0  0  0  0  0999 V2000
   56.6110   29.9610   42.6430 C   0  0  0  0  0  0  0  0  0  0  0  0
   56.2600   30.0930   44.1220 C   0  0  0  0  0  0  0  0  0  0  0  0
   57.3930   30.7260   44.8840 C   0  0  0  0  0  0  0  0  0  0  0  0
   58.1350   29.9730   45.8020 C   0  0  0  0  0  0  0  0  0  0  0  0
   59.1660   30.5680   46.5320 C   0  0  0  0  0  0  0  0  0  0  0  0
   59.4740   31.9300   46.3630 C   0  0  0  0  0  0  0  0  0  0  0  0
   60.5920   32.5060   47.1420 C   0  0  0  0  0  0  0  0  0  0  0  0
   60.5000   33.4890   48.1300 C   0  0  0  0  0  0  0  0  0  0  0  0
   61.7320   33.7650   48.7590 C   0  0  0  0  0  0  0  0  0  0  0  0
   62.7730   33.0100   48.3290 N   0  0  0  0  0  0  0  0  0  0  0  0
   64.1620   33.1320   48.7430 C   0  0  0  0  0  0  0  0  0  0  0  0
   62.1940   32.0130   47.1380 S   0  0  0  0  0  0  0  0  0  0  0  0
   58.7040   32.6980   45.4590 C   0  0  0  0  0  0  0  0  0  0  0  0
   58.9310   34.5920   45.2470 Br  0  0  0  0  0  0  0  0  0  0  0  0
   57.6730   32.0920   44.7310 C   0  0  0  0  0  0  0  0  0  0  0  0
   57.6363   29.5754   42.5425 H   0  0  0  0  0  0  0  0  0  0  0  0
   55.9087   29.2655   42.1601 H   0  0  0  0  0  0  0  0  0  0  0  0
   56.5410   30.9469   42.1601 H   0  0  0  0  0  0  0  0  0  0  0  0
   55.3614   30.7190   44.2252 H   0  0  0  0  0  0  0  0  0  0  0  0
   56.0756   29.0892   44.5323 H   0  0  0  0  0  0  0  0  0  0  0  0
   57.9047   28.9075   45.9489 H   0  0  0  0  0  0  0  0  0  0  0  0
   59.7440   29.9646   47.2475 H   0  0  0  0  0  0  0  0  0  0  0  0
   59.5602   33.9974   48.3916 H   0  0  0  0  0  0  0  0  0  0  0  0
   61.8400   34.5336   49.5384 H   0  0  0  0  0  0  0  0  0  0  0  0
   64.2181   33.1369   49.8416 H   0  0  0  0  0  0  0  0  0  0  0  0
   64.7378   32.2810   48.3503 H   0  0  0  0  0  0  0  0  0  0  0  0
   64.5806   34.0704   48.3503 H   0  0  0  0  0  0  0  0  0  0  0  0
   57.0755   32.6942   44.0308 H   0  0  0  0  0  0  0  0  0  0  0  0
  1  2  1  0
  2  3  1  0
  3  4  2  0
  4  5  1  0
  5  6  2  0
  6  7  1  0
  7  8  2  0
  8  9  1  0
  9 10  2  0
 10 11  1  0
 10 12  1  0
  6 13  1  0
 13 14  1  0
 13 15  2  0
 15  3  1  0
 12  7  1  0
  1 16  1  0
  1 17  1  0
  1 18  1  0
  2 19  1  0
  2 20  1  0
  4 21  1  0
  5 22  1  0
  8 23  1  0
  9 24  1  0
 11 25  1  0
 11 26  1  0
 11 27  1  0
 15 28  1  0
M  CHG  1  10   1
M  END
>  <UniqueID>  (25) 
25

>  <SMILES>  (25) 
CCc1ccc(-c2cc[n+](C)s2)c(Br)c1

>  <Energy>  (25) 
63.48664034497158

>  <Genealogy>  (25) 
CCc1ccc(-c2cc[n+](C)s2)c(Br)c1 (3D coordinates assigned)
CCc1ccc(-c2cc[n+](C)s2)c(Br)c1 (optimized conformer: 63.48664034497158 kcal/mol)

>  <smiles>  (25) 
CCc1ccc(-c2cc[n+](C)s2)c(Br)c1

>  <score_type>  (25) 
oracle

>  <origin>  (25) 
adg

>  <m_score__min__energy>  (25) 
-5

>  <m_primary>  (25) 
energy

$$$$
25:0
     RDKit          3D

 49 50  0  0  0  0  0  0  0  0999 V2000
   66.4630   32.1300   50.4420 C   0  0  0  0  0  0  0  0  0  0  0  0
   65.3040   32.8690   49.7800 C   0  0  0  0  0  0  0  0  0  0  0  0
   64.1150   31.9380   49.4640 C   0  0  0  0  0  0  0  0  0  0  0  0
   63.1360   32.5360   48.5030 N   0  0  2  0  0  0  0  0  0  0  0  0
   63.6700   32.5400   47.1140 C   0  0  0  0  0  0  0  0  0  0  0  0
   63.3520   33.8300   46.3500 C   0  0  0  0  0  0  0  0  0  0  0  0
   62.8090   33.9360   48.8910 C   0  0  0  0  0  0  0  0  0  0  0  0
   61.2960   34.2300   48.8480 C   0  0  0  0  0  0  0  0  0  0  0  0
   60.5900   33.2080   48.0610 N   0  0  0  0  0  0  0  0  0  0  0  0
   59.1790   33.5700   47.8610 C   0  0  0  0  0  0  0  0  0  0  0  0
   58.6570   32.9630   46.5830 C   0  0  0  0  0  0  0  0  0  0  0  0
   58.1770   31.6450   46.5820 C   0  0  0  0  0  0  0  0  0  0  0  0
   57.7420   31.0520   45.3920 C   0  0  0  0  0  0  0  0  0  0  0  0
   57.2750   29.7300   45.3720 C   0  0  0  0  0  0  0  0  0  0  0  0
   56.8620   29.1530   44.1710 C   0  0  0  0  0  0  0  0  0  0  0  0
   56.9090   29.8880   42.9820 C   0  0  0  0  0  0  0  0  0  0  0  0
   57.3710   31.2150   42.9830 C   0  0  0  0  0  0  0  0  0  0  0  0
   57.4330   31.9900   41.6950 C   0  0  0  0  0  0  0  0  0  0  0  0
   57.7910   31.7980   44.1940 C   0  0  0  0  0  0  0  0  0  0  0  0
   58.2600   33.0760   44.2210 N   0  0  0  0  0  0  0  0  0  0  0  0
   58.6900   33.6720   45.3640 C   0  0  0  0  0  0  0  0  0  0  0  0
   59.3100   35.3130   45.2640 Cl  0  0  0  0  0  0  0  0  0  0  0  0
   66.3621   32.1943   51.5355 H   0  0  0  0  0  0  0  0  0  0  0  0
   66.4484   31.0741   50.1339 H   0  0  0  0  0  0  0  0  0  0  0  0
   67.4141   32.5887   50.1339 H   0  0  0  0  0  0  0  0  0  0  0  0
   64.9594   33.6642   50.4574 H   0  0  0  0  0  0  0  0  0  0  0  0
   65.6695   33.2803   48.8275 H   0  0  0  0  0  0  0  0  0  0  0  0
   64.5065   31.0064   49.0296 H   0  0  0  0  0  0  0  0  0  0  0  0
   63.5791   31.7609   50.4082 H   0  0  0  0  0  0  0  0  0  0  0  0
   62.2450   31.9880   48.4880 H   0  0  0  0  0  0  0  0  0  0  0  0
   64.7625   32.4203   47.1589 H   0  0  0  0  0  0  0  0  0  0  0  0
   63.1861   31.7123   46.5748 H   0  0  0  0  0  0  0  0  0  0  0  0
   63.1522   34.6406   47.0663 H   0  0  0  0  0  0  0  0  0  0  0  0
   64.2098   34.1026   45.7177 H   0  0  0  0  0  0  0  0  0  0  0  0
   62.4658   33.6727   45.7177 H   0  0  0  0  0  0  0  0  0  0  0  0
   63.1721   34.1110   49.9145 H   0  0  0  0  0  0  0  0  0  0  0  0
   63.2968   34.6034   48.1653 H   0  0  0  0  0  0  0  0  0  0  0  0
   60.8995   34.2333   49.8741 H   0  0  0  0  0  0  0  0  0  0  0  0
   61.1397   35.2108   48.3752 H   0  0  0  0  0  0  0  0  0  0  0  0
   61.0360   33.1710   47.1130 H   0  0  0  0  0  0  0  0  0  0  0  0
   58.5854   33.1968   48.7085 H   0  0  0  0  0  0  0  0  0  0  0  0
   59.0972   34.6650   47.7956 H   0  0  0  0  0  0  0  0  0  0  0  0
   58.1424   31.0747   47.5220 H   0  0  0  0  0  0  0  0  0  0  0  0
   57.2343   29.1474   46.3042 H   0  0  0  0  0  0  0  0  0  0  0  0
   56.4977   28.1152   44.1590 H   0  0  0  0  0  0  0  0  0  0  0  0
   56.5821   29.4241   42.0397 H   0  0  0  0  0  0  0  0  0  0  0  0
   57.5189   33.0639   41.9170 H   0  0  0  0  0  0  0  0  0  0  0  0
   58.3080   31.6647   41.1131 H   0  0  0  0  0  0  0  0  0  0  0  0
   56.5174   31.8080   41.1131 H   0  0  0  0  0  0  0  0  0  0  0  0
  1  2  1  0
  2  3  1  0
  3  4  1  0
  4  5  1  0
  5  6  1  0
  4  7  1  0
  7  8  1  0
  8  9  1  0
  9 10  1  0
 10 11  1  0
 11 12  2  0
 12 13  1  0
 13 14  2  0
 14 15  1  0
 15 16  2  0
 16 17  1  0
 17 18  1  0
 17 19  2  0
 19 20  1  0
 20 21  2  0
 21 22  1  0
 21 11  1  0
 19 13  1  0
  1 23  1  0
  1 24  1  0
  1 25  1  0
  2 26  1  0
  2 27  1  0
  3 28  1  0
  3 29  1  0
  4 30  1  6
  5 31  1  0
  5 32  1  0
  6 33  1  0
  6 34  1  0
  6 35  1  0
  7 36  1  0
  7 37  1  0
  8 38  1  0
  8 39  1  0
  9 40  1  0
 10 41  1  0
 10 42  1  0
 12 43  1  0
 14 44  1  0
 15 45  1  0
 16 46  1  0
 18 47  1  0
 18 48  1  0
 18 49  1  0
M  CHG  1   4   1
M  END
>  <UniqueID>  (26) 
26

>  <SMILES>  (26) 
CCC[N@H+](CC)CCNCc1cc2cccc(C)c2nc1Cl

>  <Energy>  (26) 
48.44732053446979

>  <Genealogy>  (26) 
CCC[NH+](CC)CCNCc1cc2cccc(C)c2nc1Cl (protonated)
CCC[N@H+](CC)CCNCc1cc2cccc(C)c2nc1Cl (chirality)
CCC[N@H+](CC)CCNCc1cc2cccc(C)c2nc1Cl (3D coordinates assigned)
CCC[N@H+](CC)CCNCc1cc2cccc(C)c2nc1Cl (optimized conformer: 48.44732053446979 kcal/mol)

>  <smiles>  (26) 
CCCN(CC)CCNCc1cc2cccc(C)c2nc1Cl

>  <score_type>  (26) 
oracle

>  <origin>  (26) 
adg

>  <m_score__min__energy>  (26) 
-6.2300000000000004

>  <m_primary>  (26) 
energy

$$$$
26:0
     RDKit          3D

 58 60  0  0  0  0  0  0  0  0999 V2000
   65.6340   32.7990   49.7590 C   0  0  0  0  0  0  0  0  0  0  0  0
   64.1020   32.7180   49.8180 C   0  0  0  0  0  0  0  0  0  0  0  0
   63.4080   33.5280   48.7860 N   0  0  0  0  0  0  0  0  0  0  0  0
   63.3670   32.8490   47.4700 C   0  0  0  0  0  0  0  0  0  0  0  0
   63.0170   33.8470   46.3710 C   0  0  0  0  0  0  0  0  0  0  0  0
   62.0700   34.0080   49.2000 C   0  0  0  0  0  0  0  0  0  0  0  0
   61.4860   33.1420   50.3260 C   0  0  0  0  0  0  0  0  0  0  0  0
   60.6060   32.1680   49.7990 O   0  0  0  0  0  0  0  0  0  0  0  0
   61.2820   30.9520   49.5220 C   0  0  0  0  0  0  0  0  0  0  0  0
   60.4170   30.1020   48.5950 C   0  0  0  0  0  0  0  0  0  0  0  0
   59.1760   30.7980   48.2550 N   0  0  0  0  0  0  0  0  0  0  0  0
   58.8290   31.0220   46.8820 C   0  0  0  0  0  0  0  0  0  0  0  0
   58.8390   32.3250   46.3580 C   0  0  0  0  0  0  0  0  0  0  0  0
   59.1960   33.4250   47.1690 C   0  0  0  0  0  0  0  0  0  0  0  0
   59.2730   34.7080   46.6310 C   0  0  0  0  0  0  0  0  0  0  0  0
   59.0060   34.9140   45.2830 C   0  0  0  0  0  0  0  0  0  0  0  0
   58.6320   33.8450   44.4680 C   0  0  0  0  0  0  0  0  0  0  0  0
   58.5050   32.5330   44.9940 C   0  0  0  0  0  0  0  0  0  0  0  0
   58.0890   31.4710   44.2120 N   0  0  0  0  0  0  0  0  0  0  0  0
   57.4680   31.7240   42.8920 C   0  0  0  0  0  0  0  0  0  0  0  0
   58.2190   30.1750   44.6770 C   0  0  0  0  0  0  0  0  0  0  0  0
   58.0500   29.0530   43.8250 C   0  0  0  0  0  0  0  0  0  0  0  0
   58.1200   27.7400   44.3160 C   0  0  0  0  0  0  0  0  0  0  0  0
   57.9310   26.6170   43.4320 N   0  0  0  0  0  0  0  0  0  0  0  0
   58.1690   26.7210   42.2100 O   0  0  0  0  0  0  0  0  0  0  0  0
   57.4870   25.4100   43.9190 O   0  0  0  0  0  0  0  0  0  0  0  0
   58.3790   27.5360   45.6770 C   0  0  0  0  0  0  0  0  0  0  0  0
   58.5960   28.6170   46.5250 C   0  0  0  0  0  0  0  0  0  0  0  0
   58.5480   29.9370   46.0370 C   0  0  0  0  0  0  0  0  0  0  0  0
   66.0397   32.8204   50.7812 H   0  0  0  0  0  0  0  0  0  0  0  0
   66.0274   31.9204   49.2267 H   0  0  0  0  0  0  0  0  0  0  0  0
   65.9326   33.7142   49.2267 H   0  0  0  0  0  0  0  0  0  0  0  0
   63.8072   31.6664   49.6865 H   0  0  0  0  0  0  0  0  0  0  0  0
   63.8020   33.1269   50.7941 H   0  0  0  0  0  0  0  0  0  0  0  0
   64.3519   32.4070   47.2587 H   0  0  0  0  0  0  0  0  0  0  0  0
   62.5990   32.0619   47.4969 H   0  0  0  0  0  0  0  0  0  0  0  0
   62.6856   34.7921   46.8259 H   0  0  0  0  0  0  0  0  0  0  0  0
   63.9040   34.0316   45.7472 H   0  0  0  0  0  0  0  0  0  0  0  0
   62.2090   33.4371   45.7472 H   0  0  0  0  0  0  0  0  0  0  0  0
   62.1563   35.0456   49.5550 H   0  0  0  0  0  0  0  0  0  0  0  0
   61.3970   33.9463   48.3321 H   0  0  0  0  0  0  0  0  0  0  0  0
   62.3068   32.6380   50.8573 H   0  0  0  0  0  0  0  0  0  0  0  0
   60.9262   33.7891   51.0173 H   0  0  0  0  0  0  0  0  0  0  0  0
   62.2438   31.1678   49.0338 H   0  0  0  0  0  0  0  0  0  0  0  0
   61.4670   30.4079   50.4599 H   0  0  0  0  0  0  0  0  0  0  0  0
   60.9769   29.8924   47.6717 H   0  0  0  0  0  0  0  0  0  0  0  0
   60.1639   29.1647   49.1121 H   0  0  0  0  0  0  0  0  0  0  0  0
   58.6380   31.3140   48.9880 H   0  0  0  0  0  0  0  0  0  0  0  0
   59.4153   33.2673   48.2353 H   0  0  0  0  0  0  0  0  0  0  0  0
   59.5453   35.5582   47.2737 H   0  0  0  0  0  0  0  0  0  0  0  0
   59.0899   35.9245   44.8565 H   0  0  0  0  0  0  0  0  0  0  0  0
   58.4324   34.0220   43.4008 H   0  0  0  0  0  0  0  0  0  0  0  0
   56.4579   32.1355   43.0348 H   0  0  0  0  0  0  0  0  0  0  0  0
   58.0812   32.4440   42.3302 H   0  0  0  0  0  0  0  0  0  0  0  0
   57.4035   30.7805   42.3302 H   0  0  0  0  0  0  0  0  0  0  0  0
   57.8595   29.2161   42.7540 H   0  0  0  0  0  0  0  0  0  0  0  0
   58.4111   26.5125   46.0787 H   0  0  0  0  0  0  0  0  0  0  0  0
   58.8076   28.4386   47.5896 H   0  0  0  0  0  0  0  0  0  0  0  0
  1  2  1  0
  2  3  1  0
  3  4  1  0
  4  5  1  0
  3  6  1  0
  6  7  1  0
  7  8  1  0
  8  9  1  0
  9 10  1  0
 10 11  1  0
 11 12  1  0
 12 13  2  0
 13 14  1  0
 14 15  2  0
 15 16  1  0
 16 17  2  0
 17 18  1  0
 18 19  2  0
 19 20  1  0
 19 21  1  0
 21 22  2  0
 22 23  1  0
 23 24  1  0
 24 25  2  0
 24 26  1  0
 23 27  2  0
 27 28  1  0
 28 29  2  0
 29 12  1  0
 18 13  1  0
 29 21  1  0
  1 30  1  0
  1 31  1  0
  1 32  1  0
  2 33  1  0
  2 34  1  0
  4 35  1  0
  4 36  1  0
  5 37  1  0
  5 38  1  0
  5 39  1  0
  6 40  1  0
  6 41  1  0
  7 42  1  0
  7 43  1  0
  9 44  1  0
  9 45  1  0
 10 46  1  0
 10 47  1  0
 11 48  1  0
 14 49  1  0
 15 50  1  0
 16 51  1  0
 17 52  1  0
 20 53  1  0
 20 54  1  0
 20 55  1  0
 22 56  1  0
 27 57  1  0
 28 58  1  0
M  CHG  3  19   1  24   1  26  -1
M  END
>  <UniqueID>  (27) 
27

>  <SMILES>  (27) 
CCN(CC)CCOCCNc1c2ccccc2[n+](C)c2cc([N+](=O)[O-])ccc12

>  <Energy>  (27) 
88.2194088442894

>  <Genealogy>  (27) 
CCN(CC)CCOCCNc1c2ccccc2[n+](C)c2cc([N+](=O)[O-])ccc12 (3D coordinates assigned)
CCN(CC)CCOCCNc1c2ccccc2[n+](C)c2cc([N+](=O)[O-])ccc12 (optimized conformer: 88.2194088442894 kcal/mol)

>  <smiles>  (27) 
CCN(CC)CCOCCNc1c2ccccc2[n+](C)c2cc([N+](=O)[O-])ccc12

>  <score_type>  (27) 
oracle

>  <origin>  (27) 
adg

>  <m_score__min__energy>  (27) 
-6.2800000000000002

>  <m_primary>  (27) 
energy

$$$$
27:0
     RDKit          3D

 40 42  0  0  0  0  0  0  0  0999 V2000
   56.6380   29.9340   42.8820 C   0  0  0  0  0  0  0  0  0  0  0  0
   55.6300   30.1980   43.9930 C   0  0  0  0  0  0  0  0  0  0  0  0
   55.8290   29.2360   45.0840 N   0  0  0  0  0  0  0  0  0  0  0  0
   57.0770   28.4700   44.9400 C   0  0  0  0  0  0  0  0  0  0  0  0
   58.2690   29.0760   45.7070 C   0  0  0  0  0  0  0  0  0  0  0  0
   58.0040   30.4520   46.1330 N   0  0  0  0  0  0  0  0  0  0  0  0
   58.9890   31.3020   46.7550 C   0  0  0  0  0  0  0  0  0  0  0  0
   59.1810   32.6490   46.3480 C   0  0  0  0  0  0  0  0  0  0  0  0
   58.3590   33.2350   45.3620 C   0  0  0  0  0  0  0  0  0  0  0  0
   58.5520   34.5560   44.9670 C   0  0  0  0  0  0  0  0  0  0  0  0
   59.5580   35.3220   45.5460 C   0  0  0  0  0  0  0  0  0  0  0  0
   60.3750   34.7800   46.5370 C   0  0  0  0  0  0  0  0  0  0  0  0
   60.2060   33.4430   46.9710 C   0  0  0  0  0  0  0  0  0  0  0  0
   61.0010   32.9040   47.9730 N   0  0  0  0  0  0  0  0  0  0  0  0
   62.0520   33.7040   48.6280 C   0  0  0  0  0  0  0  0  0  0  0  0
   60.7820   31.6020   48.3380 C   0  0  0  0  0  0  0  0  0  0  0  0
   61.4260   30.8110   49.2750 C   0  0  0  0  0  0  0  0  0  0  0  0
   60.7940   29.5800   49.1880 C   0  0  0  0  0  0  0  0  0  0  0  0
   59.8440   29.6150   48.2750 O   0  0  0  0  0  0  0  0  0  0  0  0
   59.8220   30.8210   47.7590 C   0  0  0  0  0  0  0  0  0  0  0  0
   57.6124   29.6788   43.3240 H   0  0  0  0  0  0  0  0  0  0  0  0
   56.2872   29.0974   42.2598 H   0  0  0  0  0  0  0  0  0  0  0  0
   56.7423   30.8351   42.2598 H   0  0  0  0  0  0  0  0  0  0  0  0
   55.7689   31.2194   44.3769 H   0  0  0  0  0  0  0  0  0  0  0  0
   54.6113   30.0877   43.5929 H   0  0  0  0  0  0  0  0  0  0  0  0
   55.8300   29.7460   45.9970 H   0  0  0  0  0  0  0  0  0  0  0  0
   56.9041   27.4509   45.3162 H   0  0  0  0  0  0  0  0  0  0  0  0
   57.3413   28.4845   43.8723 H   0  0  0  0  0  0  0  0  0  0  0  0
   58.4687   28.4608   46.5968 H   0  0  0  0  0  0  0  0  0  0  0  0
   59.1365   29.0904   45.0309 H   0  0  0  0  0  0  0  0  0  0  0  0
   57.0310   30.8100   46.0070 H   0  0  0  0  0  0  0  0  0  0  0  0
   57.5565   32.6412   44.9001 H   0  0  0  0  0  0  0  0  0  0  0  0
   57.9057   34.9959   44.1932 H   0  0  0  0  0  0  0  0  0  0  0  0
   59.7099   36.3616   45.2201 H   0  0  0  0  0  0  0  0  0  0  0  0
   61.1630   35.4006   46.9887 H   0  0  0  0  0  0  0  0  0  0  0  0
   61.9468   33.6239   49.7200 H   0  0  0  0  0  0  0  0  0  0  0  0
   63.0407   33.3278   48.3263 H   0  0  0  0  0  0  0  0  0  0  0  0
   61.9527   34.7572   48.3263 H   0  0  0  0  0  0  0  0  0  0  0  0
   62.2545   31.0960   49.9401 H   0  0  0  0  0  0  0  0  0  0  0  0
   61.0493   28.6989   49.7950 H   0  0  0  0  0  0  0  0  0  0  0  0
  1  2  1  0
  2  3  1  0
  3  4  1  0
  4  5  1  0
  5  6  1  0
  6  7  1  0
  7  8  2  0
  8  9  1  0
  9 10  2  0
 10 11  1  0
 11 12  2  0
 12 13  1  0
 13 14  2  0
 14 15  1  0
 14 16  1  0
 16 17  1  0
 17 18  2  0
 18 19  1  0
 19 20  1  0
 20  7  1  0
 13  8  1  0
 20 16  2  0
  1 21  1  0
  1 22  1  0
  1 23  1  0
  2 24  1  0
  2 25  1  0
  3 26  1  0
  4 27  1  0
  4 28  1  0
  5 29  1  0
  5 30  1  0
  6 31  1  0
  9 32  1  0
 10 33  1  0
 11 34  1  0
 12 35  1  0
 15 36  1  0
 15 37  1  0
 15 38  1  0
 17 39  1  0
 18 40  1  0
M  CHG  1  14   1
M  END
>  <UniqueID>  (28) 
28

>  <SMILES>  (28) 
CCNCCNc1c2ccccc2[n+](C)c2ccoc12

>  <Energy>  (28) 
84.22568488061216

>  <Genealogy>  (28) 
CCNCCNc1c2ccccc2[n+](C)c2ccoc12 (3D coordinates assigned)
CCNCCNc1c2ccccc2[n+](C)c2ccoc12 (optimized conformer: 84.22568488061216 kcal/mol)

>  <smiles>  (28) 
CCNCCNc1c2ccccc2[n+](C)c2ccoc12

>  <score_type>  (28) 
oracle

>  <origin>  (28) 
adg

>  <m_score__min__energy>  (28) 
-5.21

>  <m_primary>  (28) 
energy

$$$$
