0:0
     RDKit          3D

 26 27  0  0  0  0  0  0  0  0999 V2000
   58.6090   25.7890   45.2580 C   0  0  0  0  0  0  0  0  0  0  0  0
   58.4670   27.2820   45.2420 C   0  0  0  0  0  0  0  0  0  0  0  0
   59.4070   28.0860   45.9090 C   0  0  0  0  0  0  0  0  0  0  0  0
   59.2370   29.4770   45.9170 C   0  0  0  0  0  0  0  0  0  0  0  0
   60.0810   30.1890   46.5230 O   0  0  0  0  0  0  0  0  0  0  0  0
   58.1560   30.0240   45.2750 N   0  0  0  0  0  0  0  0  0  0  0  0
   57.7850   31.3550   45.1510 C   0  0  0  0  0  0  0  0  0  0  0  0
   58.5540   32.5170   45.7530 C   0  0  0  0  0  0  0  0  0  0  0  0
   58.3550   33.8080   44.9450 C   0  0  0  0  0  0  0  0  0  0  0  0
   58.1240   32.7350   47.2080 C   0  0  0  0  0  0  0  0  0  0  0  0
   56.6120   31.5880   44.4870 N   0  0  0  0  0  0  0  0  0  0  0  0
   56.0320   30.1040   44.0110 S   0  0  0  0  0  0  0  0  0  0  0  0
   57.2620   29.2110   44.6660 C   0  0  0  0  0  0  0  0  0  0  0  0
   57.3910   27.8610   44.6410 N   0  0  0  0  0  0  0  0  0  0  0  0
   58.6427   25.4350   46.2989 H   0  0  0  0  0  0  0  0  0  0  0  0
   57.7501   25.3335   44.7434 H   0  0  0  0  0  0  0  0  0  0  0  0
   59.5384   25.5035   44.7434 H   0  0  0  0  0  0  0  0  0  0  0  0
   60.2672   27.6283   46.4195 H   0  0  0  0  0  0  0  0  0  0  0  0
   59.6239   32.2635   45.7220 H   0  0  0  0  0  0  0  0  0  0  0  0
   58.2244   34.6554   45.6341 H   0  0  0  0  0  0  0  0  0  0  0  0
   59.2367   33.9834   44.3111 H   0  0  0  0  0  0  0  0  0  0  0  0
   57.4614   33.7098   44.3111 H   0  0  0  0  0  0  0  0  0  0  0  0
   58.8992   32.3420   47.8822 H   0  0  0  0  0  0  0  0  0  0  0  0
   57.9882   33.8108   47.3930 H   0  0  0  0  0  0  0  0  0  0  0  0
   57.1760   32.2087   47.3930 H   0  0  0  0  0  0  0  0  0  0  0  0
   56.6650   27.2790   44.1660 H   0  0  0  0  0  0  0  0  0  0  0  0
  1  2  1  0
  2  3  2  0
  3  4  1  0
  4  5  2  0
  4  6  1  0
  6  7  1  0
  7  8  1  0
  8  9  1  0
  8 10  1  0
  7 11  2  0
 11 12  1  0
 12 13  1  0
 13 14  2  0
 14  2  1  0
 13  6  1  0
  1 15  1  0
  1 16  1  0
  1 17  1  0
  3 18  1  0
  8 19  1  0
  9 20  1  0
  9 21  1  0
  9 22  1  0
 10 23  1  0
 10 24  1  0
 10 25  1  0
 14 26  1  0
M  CHG  1  14   1
M  END
>  <UniqueID>  (1) 
1

>  <SMILES>  (1) 
Cc1cc(=O)n2c(C(C)C)nsc2[nH+]1

>  <Energy>  (1) 
67.31495846642147

>  <Genealogy>  (1) 
Cc1cc(=O)n2c(C(C)C)nsc2[nH+]1 (protonated)
Cc1cc(=O)n2c(C(C)C)nsc2[nH+]1 (3D coordinates assigned)
Cc1cc(=O)n2c(C(C)C)nsc2[nH+]1 (optimized conformer: 67.31495846642147 kcal/mol)

>  <smiles>  (1) 
Cc1cc(=O)n2c(C(C)C)nsc2n1

>  <score_type>  (1) 
oracle

>  <origin>  (1) 
adg

>  <m_score__min__energy>  (1) 
-4.3099999999999996

>  <m_primary>  (1) 
energy

$$$$
1:0
     RDKit          3D

 34 35  0  0  0  0  0  0  0  0999 V2000
   58.5200   34.5650   45.7060 C   0  0  0  0  0  0  0  0  0  0  0  0
   57.4120   33.7160   45.0950 C   0  0  0  0  0  0  0  0  0  0  0  0
   57.9110   32.3770   44.7930 N   0  0  0  0  0  0  0  0  0  0  0  0
   57.6820   31.6610   43.6720 C   0  0  0  0  0  0  0  0  0  0  0  0
   58.2160   30.4270   43.7520 N   0  0  0  0  0  0  0  0  0  0  0  0
   58.7880   30.3700   44.9680 C   0  0  0  0  0  0  0  0  0  0  0  0
   59.5990   28.9590   45.6240 S   0  0  0  0  0  0  0  0  0  0  0  0
   61.0390   28.9620   45.1860 O   0  0  0  0  0  0  0  0  0  0  0  0
   59.5370   29.0150   47.1240 O   0  0  0  0  0  0  0  0  0  0  0  0
   58.8100   27.5070   45.0530 N   0  0  0  0  0  0  0  0  0  0  0  0
   59.4630   26.3030   45.5940 C   0  0  0  0  0  0  0  0  0  0  0  0
   58.3780   25.4010   46.1540 C   0  0  0  0  0  0  0  0  0  0  0  0
   57.2670   26.3620   46.5210 C   0  0  2  0  0  0  0  0  0  0  0  0
   55.9040   25.7170   46.5400 C   0  0  0  0  0  0  0  0  0  0  0  0
   54.8120   26.3240   45.8500 N   0  0  0  0  0  0  0  0  0  0  0  0
   55.7390   24.5970   47.0940 O   0  0  0  0  0  0  0  0  0  0  0  0
   57.4030   27.4670   45.4790 C   0  0  0  0  0  0  0  0  0  0  0  0
   58.5980   31.5680   45.6210 C   0  0  0  0  0  0  0  0  0  0  0  0
   58.4565   34.5164   46.8031 H   0  0  0  0  0  0  0  0  0  0  0  0
   59.4979   34.1828   45.3780 H   0  0  0  0  0  0  0  0  0  0  0  0
   58.4054   35.6087   45.3780 H   0  0  0  0  0  0  0  0  0  0  0  0
   56.5772   33.6406   45.8074 H   0  0  0  0  0  0  0  0  0  0  0  0
   57.0690   34.1898   44.1634 H   0  0  0  0  0  0  0  0  0  0  0  0
   57.1275   32.0387   42.8003 H   0  0  0  0  0  0  0  0  0  0  0  0
   58.1760   29.6740   43.0290 H   0  0  0  0  0  0  0  0  0  0  0  0
   60.0080   25.7809   44.7938 H   0  0  0  0  0  0  0  0  0  0  0  0
   60.1815   26.5754   46.3811 H   0  0  0  0  0  0  0  0  0  0  0  0
   58.0382   24.6793   45.3966 H   0  0  0  0  0  0  0  0  0  0  0  0
   58.7220   24.8003   47.0089 H   0  0  0  0  0  0  0  0  0  0  0  0
   57.3581   26.7423   47.5491 H   0  0  0  0  0  0  0  0  0  0  0  0
   53.9720   26.6660   46.3700 H   0  0  0  0  0  0  0  0  0  0  0  0
   56.7560   27.2504   44.6162 H   0  0  0  0  0  0  0  0  0  0  0  0
   57.1003   28.4361   45.9024 H   0  0  0  0  0  0  0  0  0  0  0  0
   58.9446   31.8180   46.6346 H   0  0  0  0  0  0  0  0  0  0  0  0
  1  2  1  0
  2  3  1  0
  3  4  1  0
  4  5  2  0
  5  6  1  0
  6  7  1  0
  7  8  2  0
  7  9  2  0
  7 10  1  0
 10 11  1  0
 11 12  1  0
 12 13  1  0
 13 14  1  0
 14 15  1  0
 14 16  2  0
 13 17  1  0
  6 18  2  0
 18  3  1  0
 17 10  1  0
  1 19  1  0
  1 20  1  0
  1 21  1  0
  2 22  1  0
  2 23  1  0
  4 24  1  0
  5 25  1  0
 11 26  1  0
 11 27  1  0
 12 28  1  0
 12 29  1  0
 13 30  1  1
 15 31  1  0
 17 32  1  0
 17 33  1  0
 18 34  1  0
M  CHG  2   5   1  15  -1
M  END
>  <UniqueID>  (2) 
2

>  <SMILES>  (2) 
CCn1c[nH+]c(S(=O)(=O)N2CC[C@H](C([NH-])=O)C2)c1

>  <Energy>  (2) 
61.22170079931151

>  <Genealogy>  (2) 
CCn1c[nH+]c(S(=O)(=O)N2CCC(C([NH-])=O)C2)c1 (protonated)
CCn1c[nH+]c(S(=O)(=O)N2CC[C@H](C([NH-])=O)C2)c1 (chirality)
CCn1c[nH+]c(S(=O)(=O)N2CC[C@H](C([NH-])=O)C2)c1 (3D coordinates assigned)
CCn1c[nH+]c(S(=O)(=O)N2CC[C@H](C([NH-])=O)C2)c1 (nonaromatic ring conformer: 61.22170079931151 kcal/mol)

>  <smiles>  (2) 
CCn1cnc(S(=O)(=O)N2CCC(C(N)=O)C2)c1

>  <score_type>  (2) 
oracle

>  <origin>  (2) 
adg

>  <m_score__min__energy>  (2) 
-8.4700000000000006

>  <m_primary>  (2) 
energy

$$$$
2:0
     RDKit          3D

 53 57  0  0  0  0  0  0  0  0999 V2000
   57.3930   31.6670   43.4120 C   0  0  0  0  0  0  0  0  0  0  0  0
   58.1970   31.4750   44.6400 N   0  0  0  0  0  0  0  0  0  0  0  0
   58.7280   32.5720   45.2940 C   0  0  0  0  0  0  0  0  0  0  0  0
   58.7850   33.8510   44.6830 C   0  0  0  0  0  0  0  0  0  0  0  0
   59.2820   34.9570   45.3720 C   0  0  0  0  0  0  0  0  0  0  0  0
   59.7470   34.8200   46.6740 C   0  0  0  0  0  0  0  0  0  0  0  0
   59.7430   33.5700   47.2880 C   0  0  0  0  0  0  0  0  0  0  0  0
   59.2550   32.4340   46.6060 C   0  0  0  0  0  0  0  0  0  0  0  0
   59.3060   31.1630   47.2020 C   0  0  0  0  0  0  0  0  0  0  0  0
   59.8350   31.0170   48.5300 N   0  0  0  0  0  0  0  0  0  0  0  0
   58.9280   30.8570   49.6680 C   0  0  0  0  0  0  0  0  0  0  0  0
   58.3360   32.2050   50.1420 C   0  0  0  0  0  0  0  0  0  0  0  0
   57.4350   32.1340   51.3210 N   0  0  0  0  0  0  0  0  0  0  0  0
   57.7860   33.1010   52.3770 C   0  0  0  0  0  0  0  0  0  0  0  0
   57.3110   30.7750   51.8720 C   0  0  0  0  0  0  0  0  0  0  0  0
   58.8960   30.0350   46.4680 C   0  0  0  0  0  0  0  0  0  0  0  0
   58.9820   28.7440   47.0280 C   0  0  0  0  0  0  0  0  0  0  0  0
   58.6460   27.6120   46.2830 C   0  0  0  0  0  0  0  0  0  0  0  0
   58.7570   26.3230   46.8510 C   0  0  0  0  0  0  0  0  0  0  0  0
   58.4320   25.2300   46.0520 C   0  0  0  0  0  0  0  0  0  0  0  0
   58.0230   25.3730   44.7680 C   0  0  0  0  0  0  0  0  0  0  0  0
   57.8970   26.6220   44.1660 C   0  0  0  0  0  0  0  0  0  0  0  0
   58.2110   27.7620   44.9380 C   0  0  0  0  0  0  0  0  0  0  0  0
   58.0940   29.0450   44.3900 C   0  0  0  0  0  0  0  0  0  0  0  0
   58.3860   30.2040   45.1520 C   0  0  0  0  0  0  0  0  0  0  0  0
   57.7740   24.1280   44.2230 O   0  0  0  0  0  0  0  0  0  0  0  0
   58.0450   23.1420   45.2280 C   0  0  0  0  0  0  0  0  0  0  0  0
   58.4630   23.8880   46.3790 O   0  0  0  0  0  0  0  0  0  0  0  0
   56.3570   31.9144   43.6869 H   0  0  0  0  0  0  0  0  0  0  0  0
   57.8209   32.4882   42.8183 H   0  0  0  0  0  0  0  0  0  0  0  0
   57.4036   30.7411   42.8183 H   0  0  0  0  0  0  0  0  0  0  0  0
   58.4313   33.9724   43.6485 H   0  0  0  0  0  0  0  0  0  0  0  0
   59.3059   35.9418   44.8826 H   0  0  0  0  0  0  0  0  0  0  0  0
   60.1186   35.6995   47.2203 H   0  0  0  0  0  0  0  0  0  0  0  0
   60.1239   33.4666   48.3148 H   0  0  0  0  0  0  0  0  0  0  0  0
   60.8410   30.7490   48.6210 H   0  0  0  0  0  0  0  0  0  0  0  0
   58.1026   30.1930   49.3716 H   0  0  0  0  0  0  0  0  0  0  0  0
   59.5064   30.4322   50.5017 H   0  0  0  0  0  0  0  0  0  0  0  0
   59.1736   32.8711   50.3964 H   0  0  0  0  0  0  0  0  0  0  0  0
   57.7138   32.5681   49.3107 H   0  0  0  0  0  0  0  0  0  0  0  0
   56.4810   32.4020   50.9750 H   0  0  0  0  0  0  0  0  0  0  0  0
   57.6198   32.6432   53.3633 H   0  0  0  0  0  0  0  0  0  0  0  0
   58.8443   33.3842   52.2778 H   0  0  0  0  0  0  0  0  0  0  0  0
   57.1558   33.9971   52.2778 H   0  0  0  0  0  0  0  0  0  0  0  0
   57.3154   30.8231   52.9709 H   0  0  0  0  0  0  0  0  0  0  0  0
   56.3680   30.3247   51.5285 H   0  0  0  0  0  0  0  0  0  0  0  0
   58.1569   30.1615   51.5285 H   0  0  0  0  0  0  0  0  0  0  0  0
   59.3192   28.6267   48.0685 H   0  0  0  0  0  0  0  0  0  0  0  0
   59.0894   26.1874   47.8908 H   0  0  0  0  0  0  0  0  0  0  0  0
   57.5635   26.7178   43.1222 H   0  0  0  0  0  0  0  0  0  0  0  0
   57.7683   29.1561   43.3452 H   0  0  0  0  0  0  0  0  0  0  0  0
   57.1388   22.5603   45.4528 H   0  0  0  0  0  0  0  0  0  0  0  0
   58.8101   22.4215   44.9033 H   0  0  0  0  0  0  0  0  0  0  0  0
  1  2  1  0
  2  3  2  0
  3  4  1  0
  4  5  2  0
  5  6  1  0
  6  7  2  0
  7  8  1  0
  8  9  2  0
  9 10  1  0
 10 11  1  0
 11 12  1  0
 12 13  1  0
 13 14  1  0
 13 15  1  0
  9 16  1  0
 16 17  2  0
 17 18  1  0
 18 19  2  0
 19 20  1  0
 20 21  2  0
 21 22  1  0
 22 23  2  0
 23 24  1  0
 24 25  2  0
 21 26  1  0
 26 27  1  0
 27 28  1  0
 25  2  1  0
  8  3  1  0
 25 16  1  0
 23 18  1  0
 28 20  1  0
  1 29  1  0
  1 30  1  0
  1 31  1  0
  4 32  1  0
  5 33  1  0
  6 34  1  0
  7 35  1  0
 10 36  1  0
 11 37  1  0
 11 38  1  0
 12 39  1  0
 12 40  1  0
 13 41  1  0
 14 42  1  0
 14 43  1  0
 14 44  1  0
 15 45  1  0
 15 46  1  0
 15 47  1  0
 17 48  1  0
 19 49  1  0
 22 50  1  0
 24 51  1  0
 27 52  1  0
 27 53  1  0
M  CHG  2   2   1  13   1
M  END
>  <UniqueID>  (3) 
3

>  <SMILES>  (3) 
C[n+]1c2ccccc2c(NCC[NH+](C)C)c2cc3cc4c(cc3cc21)OCO4

>  <Energy>  (3) 
118.18034666188542

>  <Genealogy>  (3) 
C[n+]1c2ccccc2c(NCC[NH+](C)C)c2cc3cc4c(cc3cc21)OCO4 (protonated)
C[n+]1c2ccccc2c(NCC[NH+](C)C)c2cc3cc4c(cc3cc21)OCO4 (3D coordinates assigned)
C[n+]1c2ccccc2c(NCC[NH+](C)C)c2cc3cc4c(cc3cc21)OCO4 (nonaromatic ring conformer: 118.18034666188542 kcal/mol)

>  <smiles>  (3) 
CN(C)CCNc1c2ccccc2[n+](C)c2cc3cc4c(cc3cc12)OCO4

>  <score_type>  (3) 
oracle

>  <origin>  (3) 
adg

>  <m_score__min__energy>  (3) 
-5.3899999999999997

>  <m_primary>  (3) 
energy

$$$$
3:0
     RDKit          3D

 53 55  0  0  0  0  0  0  0  0999 V2000
   60.4270   27.7890   48.2570 C   0  0  0  0  0  0  0  0  0  0  0  0
   60.0840   26.9780   46.9980 C   0  0  0  0  0  0  0  0  0  0  0  0
   59.6920   27.8080   45.8330 N   0  0  0  0  0  0  0  0  0  0  0  0
   60.8560   28.4240   45.1710 C   0  0  0  0  0  0  0  0  0  0  0  0
   58.8200   27.0800   44.8840 C   0  0  0  0  0  0  0  0  0  0  0  0
   58.2740   28.0130   43.7950 C   0  0  0  0  0  0  0  0  0  0  0  0
   58.4220   29.3770   44.1900 O   0  0  0  0  0  0  0  0  0  0  0  0
   57.6520   29.9600   45.2030 C   0  0  0  0  0  0  0  0  0  0  0  0
   56.4010   29.7770   45.2170 O   0  0  0  0  0  0  0  0  0  0  0  0
   58.2690   30.8630   46.2140 C   0  0  0  0  0  0  0  0  0  0  0  0
   58.5400   30.3210   47.4790 C   0  0  0  0  0  0  0  0  0  0  0  0
   59.0560   31.1020   48.5060 C   0  0  0  0  0  0  0  0  0  0  0  0
   59.3130   32.4680   48.3170 C   0  0  0  0  0  0  0  0  0  0  0  0
   59.9280   33.2330   49.3760 N   0  0  0  0  0  0  0  0  0  0  0  0
   60.9420   34.2640   49.1320 C   0  0  0  0  0  0  0  0  0  0  0  0
   62.3270   33.7220   49.3870 C   0  0  0  0  0  0  0  0  0  0  0  0
   62.7380   33.4710   50.7080 C   0  0  0  0  0  0  0  0  0  0  0  0
   64.0180   32.9760   50.9710 C   0  0  0  0  0  0  0  0  0  0  0  0
   64.9050   32.7390   49.9200 C   0  0  0  0  0  0  0  0  0  0  0  0
   64.5190   33.0040   48.6040 C   0  0  0  0  0  0  0  0  0  0  0  0
   63.2370   33.4980   48.3290 C   0  0  0  0  0  0  0  0  0  0  0  0
   62.8110   33.8300   46.6530 Cl  0  0  0  0  0  0  0  0  0  0  0  0
   59.0270   33.0560   47.0560 C   0  0  0  0  0  0  0  0  0  0  0  0
   59.1960   34.4020   46.8510 N   0  0  0  0  0  0  0  0  0  0  0  0
   59.0010   34.9760   45.6350 C   0  0  0  0  0  0  0  0  0  0  0  0
   58.6230   34.2020   44.5460 C   0  0  0  0  0  0  0  0  0  0  0  0
   58.4030   32.8400   44.7180 C   0  0  0  0  0  0  0  0  0  0  0  0
   58.5480   32.2410   45.9850 C   0  0  0  0  0  0  0  0  0  0  0  0
   60.1778   27.1998   49.1519 H   0  0  0  0  0  0  0  0  0  0  0  0
   61.5016   28.0241   48.2603 H   0  0  0  0  0  0  0  0  0  0  0  0
   59.8472   28.7238   48.2603 H   0  0  0  0  0  0  0  0  0  0  0  0
   60.9667   26.3842   46.7181 H   0  0  0  0  0  0  0  0  0  0  0  0
   59.2147   26.3527   47.2497 H   0  0  0  0  0  0  0  0  0  0  0  0
   61.5572   28.7951   45.9329 H   0  0  0  0  0  0  0  0  0  0  0  0
   61.3598   27.6745   44.5430 H   0  0  0  0  0  0  0  0  0  0  0  0
   60.5196   29.2621   44.5430 H   0  0  0  0  0  0  0  0  0  0  0  0
   59.4015   26.2766   44.4081 H   0  0  0  0  0  0  0  0  0  0  0  0
   57.9683   26.6669   45.4443 H   0  0  0  0  0  0  0  0  0  0  0  0
   58.8291   27.8437   42.8606 H   0  0  0  0  0  0  0  0  0  0  0  0
   57.2058   27.7987   43.6433 H   0  0  0  0  0  0  0  0  0  0  0  0
   58.3398   29.2550   47.6620 H   0  0  0  0  0  0  0  0  0  0  0  0
   59.2663   30.6418   49.4827 H   0  0  0  0  0  0  0  0  0  0  0  0
   59.5520   33.1450   50.3470 H   0  0  0  0  0  0  0  0  0  0  0  0
   60.8722   34.5986   48.0865 H   0  0  0  0  0  0  0  0  0  0  0  0
   60.7609   35.1065   49.8157 H   0  0  0  0  0  0  0  0  0  0  0  0
   62.0465   33.6658   51.5410 H   0  0  0  0  0  0  0  0  0  0  0  0
   64.3267   32.7730   52.0071 H   0  0  0  0  0  0  0  0  0  0  0  0
   65.9098   32.3428   50.1283 H   0  0  0  0  0  0  0  0  0  0  0  0
   65.2248   32.8240   47.7797 H   0  0  0  0  0  0  0  0  0  0  0  0
   59.4570   35.0460   47.6280 H   0  0  0  0  0  0  0  0  0  0  0  0
   59.1434   36.0599   45.5126 H   0  0  0  0  0  0  0  0  0  0  0  0
   58.4986   34.6628   43.5549 H   0  0  0  0  0  0  0  0  0  0  0  0
   58.1124   32.2230   43.8550 H   0  0  0  0  0  0  0  0  0  0  0  0
  1  2  1  0
  2  3  1  0
  3  4  1  0
  3  5  1  0
  5  6  1  0
  6  7  1  0
  7  8  1  0
  8  9  2  0
  8 10  1  0
 10 11  2  0
 11 12  1  0
 12 13  2  0
 13 14  1  0
 14 15  1  0
 15 16  1  0
 16 17  2  0
 17 18  1  0
 18 19  2  0
 19 20  1  0
 20 21  2  0
 21 22  1  0
 13 23  1  0
 23 24  2  0
 24 25  1  0
 25 26  2  0
 26 27  1  0
 27 28  2  0
 28 10  1  0
 21 16  1  0
 28 23  1  0
  1 29  1  0
  1 30  1  0
  1 31  1  0
  2 32  1  0
  2 33  1  0
  4 34  1  0
  4 35  1  0
  4 36  1  0
  5 37  1  0
  5 38  1  0
  6 39  1  0
  6 40  1  0
 11 41  1  0
 12 42  1  0
 14 43  1  0
 15 44  1  0
 15 45  1  0
 17 46  1  0
 18 47  1  0
 19 48  1  0
 20 49  1  0
 24 50  1  0
 25 51  1  0
 26 52  1  0
 27 53  1  0
M  CHG  1  24   1
M  END
>  <UniqueID>  (4) 
4

>  <SMILES>  (4) 
CCN(C)CCOC(=O)c1ccc(NCc2ccccc2Cl)c2[nH+]cccc12

>  <Energy>  (4) 
69.66002361867842

>  <Genealogy>  (4) 
CCN(C)CCOC(=O)c1ccc(NCc2ccccc2Cl)c2[nH+]cccc12 (protonated)
CCN(C)CCOC(=O)c1ccc(NCc2ccccc2Cl)c2[nH+]cccc12 (3D coordinates assigned)
CCN(C)CCOC(=O)c1ccc(NCc2ccccc2Cl)c2[nH+]cccc12 (optimized conformer: 69.66002361867842 kcal/mol)

>  <smiles>  (4) 
CCN(C)CCOC(=O)c1ccc(NCc2ccccc2Cl)c2ncccc12

>  <score_type>  (4) 
oracle

>  <origin>  (4) 
adg

>  <m_score__min__energy>  (4) 
-6.2999999999999998

>  <m_primary>  (4) 
energy

$$$$
4:0
     RDKit          3D

 47 49  0  0  0  0  0  0  0  0999 V2000
   59.9430   34.9310   47.0640 C   0  0  0  0  0  0  0  0  0  0  0  0
   59.1340   34.0150   46.1840 C   0  0  0  0  0  0  0  0  0  0  0  0
   58.1950   34.5850   45.3250 C   0  0  0  0  0  0  0  0  0  0  0  0
   57.4350   33.3810   44.4550 S   0  0  0  0  0  0  0  0  0  0  0  0
   58.2890   32.0990   45.1360 C   0  0  0  0  0  0  0  0  0  0  0  0
   59.2060   32.5830   46.0740 C   0  0  0  0  0  0  0  0  0  0  0  0
   60.0340   31.6490   46.7640 C   0  0  0  0  0  0  0  0  0  0  0  0
   61.0520   32.0770   47.7080 N   0  0  0  0  0  0  0  0  0  0  0  0
   62.3900   32.3540   47.1220 C   0  0  0  0  0  0  0  0  0  0  0  0
   63.4370   32.9370   48.0990 C   0  0  0  0  0  0  0  0  0  0  0  0
   62.7490   33.6380   49.2890 C   0  0  0  0  0  0  0  0  0  0  0  0
   61.8290   32.7690   50.0580 N   0  0  0  0  0  0  0  0  0  0  0  0
   62.5240   31.9200   51.0380 C   0  0  0  0  0  0  0  0  0  0  0  0
   60.7240   33.5120   50.6840 C   0  0  0  0  0  0  0  0  0  0  0  0
   59.8200   30.2560   46.5200 C   0  0  0  0  0  0  0  0  0  0  0  0
   60.5350   29.2620   47.2340 C   0  0  0  0  0  0  0  0  0  0  0  0
   60.3160   27.9080   47.0010 C   0  0  0  0  0  0  0  0  0  0  0  0
   59.3810   27.5030   46.0620 C   0  0  0  0  0  0  0  0  0  0  0  0
   58.6540   28.4490   45.3460 C   0  0  0  0  0  0  0  0  0  0  0  0
   58.8520   29.8390   45.5520 C   0  0  0  0  0  0  0  0  0  0  0  0
   58.1250   30.7730   44.8440 N   0  0  0  0  0  0  0  0  0  0  0  0
   57.1590   30.3520   43.8080 C   0  0  0  0  0  0  0  0  0  0  0  0
   59.7388   34.6998   48.1199 H   0  0  0  0  0  0  0  0  0  0  0  0
   61.0137   34.7866   46.8575 H   0  0  0  0  0  0  0  0  0  0  0  0
   59.6674   35.9757   46.8575 H   0  0  0  0  0  0  0  0  0  0  0  0
   57.9875   35.6615   45.2349 H   0  0  0  0  0  0  0  0  0  0  0  0
   60.7180   32.9310   48.2100 H   0  0  0  0  0  0  0  0  0  0  0  0
   61.1340   31.4130   48.4990 H   0  0  0  0  0  0  0  0  0  0  0  0
   62.7876   31.4090   46.7235 H   0  0  0  0  0  0  0  0  0  0  0  0
   62.2298   33.1262   46.3551 H   0  0  0  0  0  0  0  0  0  0  0  0
   64.0694   32.1208   48.4784 H   0  0  0  0  0  0  0  0  0  0  0  0
   64.0471   33.6768   47.5601 H   0  0  0  0  0  0  0  0  0  0  0  0
   63.5299   34.0032   49.9722 H   0  0  0  0  0  0  0  0  0  0  0  0
   62.1376   34.4491   48.8667 H   0  0  0  0  0  0  0  0  0  0  0  0
   62.2596   32.2430   52.0557 H   0  0  0  0  0  0  0  0  0  0  0  0
   62.2210   30.8722   50.8955 H   0  0  0  0  0  0  0  0  0  0  0  0
   63.6110   32.0100   50.8955 H   0  0  0  0  0  0  0  0  0  0  0  0
   60.8148   33.4510   51.7785 H   0  0  0  0  0  0  0  0  0  0  0  0
   60.7667   34.5656   50.3707 H   0  0  0  0  0  0  0  0  0  0  0  0
   59.7644   33.0749   50.3707 H   0  0  0  0  0  0  0  0  0  0  0  0
   61.2771   29.5669   47.9866 H   0  0  0  0  0  0  0  0  0  0  0  0
   60.8875   27.1558   47.5646 H   0  0  0  0  0  0  0  0  0  0  0  0
   59.2130   26.4309   45.8821 H   0  0  0  0  0  0  0  0  0  0  0  0
   57.9120   28.1132   44.6066 H   0  0  0  0  0  0  0  0  0  0  0  0
   56.2528   29.9571   44.2905 H   0  0  0  0  0  0  0  0  0  0  0  0
   56.8937   31.2161   43.1812 H   0  0  0  0  0  0  0  0  0  0  0  0
   57.6114   29.5694   43.1812 H   0  0  0  0  0  0  0  0  0  0  0  0
  1  2  1  0
  2  3  2  0
  3  4  1  0
  4  5  1  0
  5  6  2  0
  6  7  1  0
  7  8  1  0
  8  9  1  0
  9 10  1  0
 10 11  1  0
 11 12  1  0
 12 13  1  0
 12 14  1  0
  7 15  2  0
 15 16  1  0
 16 17  2  0
 17 18  1  0
 18 19  2  0
 19 20  1  0
 20 21  2  0
 21 22  1  0
  6  2  1  0
 20 15  1  0
 21  5  1  0
  1 23  1  0
  1 24  1  0
  1 25  1  0
  3 26  1  0
  8 27  1  0
  8 28  1  0
  9 29  1  0
  9 30  1  0
 10 31  1  0
 10 32  1  0
 11 33  1  0
 11 34  1  0
 13 35  1  0
 13 36  1  0
 13 37  1  0
 14 38  1  0
 14 39  1  0
 14 40  1  0
 16 41  1  0
 17 42  1  0
 18 43  1  0
 19 44  1  0
 22 45  1  0
 22 46  1  0
 22 47  1  0
M  CHG  2   8   1  21   1
M  END
>  <UniqueID>  (5) 
5

>  <SMILES>  (5) 
Cc1csc2c1c([NH2+]CCCN(C)C)c1ccccc1[n+]2C

>  <Energy>  (5) 
105.78967817562203

>  <Genealogy>  (5) 
Cc1csc2c1c([NH2+]CCCN(C)C)c1ccccc1[n+]2C (protonated)
Cc1csc2c1c([NH2+]CCCN(C)C)c1ccccc1[n+]2C (3D coordinates assigned)
Cc1csc2c1c([NH2+]CCCN(C)C)c1ccccc1[n+]2C (optimized conformer: 105.78967817562203 kcal/mol)

>  <smiles>  (5) 
Cc1csc2c1c(NCCCN(C)C)c1ccccc1[n+]2C

>  <score_type>  (5) 
oracle

>  <origin>  (5) 
adg

>  <m_score__min__energy>  (5) 
-3.5899999999999999

>  <m_primary>  (5) 
energy

$$$$
5:0
     RDKit          3D

 45 47  0  0  0  0  0  0  0  0999 V2000
   57.6540   31.9620   41.9520 C   0  0  0  0  0  0  0  0  0  0  0  0
   57.0100   30.9230   42.6790 O   0  0  0  0  0  0  0  0  0  0  0  0
   56.7140   31.0320   44.0410 C   0  0  0  0  0  0  0  0  0  0  0  0
   55.6570   30.5280   44.5100 O   0  0  0  0  0  0  0  0  0  0  0  0
   57.6870   31.6630   44.9450 C   0  0  0  0  0  0  0  0  0  0  0  0
   57.8210   33.0660   44.9060 C   0  0  0  0  0  0  0  0  0  0  0  0
   58.8510   33.7180   45.6070 C   0  0  0  0  0  0  0  0  0  0  0  0
   59.7850   32.9850   46.3680 C   0  0  0  0  0  0  0  0  0  0  0  0
   60.8670   33.6240   47.0720 N   0  0  0  0  0  0  0  0  0  0  0  0
   62.2650   33.5900   46.6350 C   0  0  0  0  0  0  0  0  0  0  0  0
   63.2360   33.8520   47.8060 C   0  0  0  0  0  0  0  0  0  0  0  0
   63.9720   32.6410   48.2460 N   0  0  0  0  0  0  0  0  0  0  0  0
   64.8730   32.9290   49.3770 C   0  0  0  0  0  0  0  0  0  0  0  0
   63.0140   31.5920   48.6340 C   0  0  0  0  0  0  0  0  0  0  0  0
   59.6230   31.5930   46.4170 C   0  0  0  0  0  0  0  0  0  0  0  0
   60.3500   30.6460   47.1200 C   0  0  0  0  0  0  0  0  0  0  0  0
   59.6930   29.4520   46.8810 C   0  0  0  0  0  0  0  0  0  0  0  0
   60.0070   28.2020   47.4140 C   0  0  0  0  0  0  0  0  0  0  0  0
   59.1590   27.1300   47.1150 C   0  0  0  0  0  0  0  0  0  0  0  0
   58.0160   27.3330   46.3240 C   0  0  0  0  0  0  0  0  0  0  0  0
   56.8220   25.8840   45.9710 Br  0  0  0  0  0  0  0  0  0  0  0  0
   57.7420   28.6120   45.8170 C   0  0  0  0  0  0  0  0  0  0  0  0
   58.6160   29.6250   46.0800 N   0  0  0  0  0  0  0  0  0  0  0  0
   58.5870   30.9450   45.7630 C   0  0  0  0  0  0  0  0  0  0  0  0
   58.0993   32.6804   42.6559 H   0  0  0  0  0  0  0  0  0  0  0  0
   58.4438   31.5314   41.3189 H   0  0  0  0  0  0  0  0  0  0  0  0
   56.9170   32.4777   41.3189 H   0  0  0  0  0  0  0  0  0  0  0  0
   57.1074   33.6609   44.3170 H   0  0  0  0  0  0  0  0  0  0  0  0
   58.9292   34.8143   45.5612 H   0  0  0  0  0  0  0  0  0  0  0  0
   60.6520   34.1940   47.9210 H   0  0  0  0  0  0  0  0  0  0  0  0
   62.4809   32.5996   46.2077 H   0  0  0  0  0  0  0  0  0  0  0  0
   62.4094   34.3826   45.8860 H   0  0  0  0  0  0  0  0  0  0  0  0
   63.9686   34.6086   47.4884 H   0  0  0  0  0  0  0  0  0  0  0  0
   62.6302   34.1907   48.6594 H   0  0  0  0  0  0  0  0  0  0  0  0
   64.5430   32.2640   47.4530 H   0  0  0  0  0  0  0  0  0  0  0  0
   64.3393   32.7584   50.3236 H   0  0  0  0  0  0  0  0  0  0  0  0
   65.7494   32.2662   49.3256 H   0  0  0  0  0  0  0  0  0  0  0  0
   65.2025   33.9772   49.3256 H   0  0  0  0  0  0  0  0  0  0  0  0
   62.9597   31.5326   49.7311 H   0  0  0  0  0  0  0  0  0  0  0  0
   62.0201   31.8356   48.2304 H   0  0  0  0  0  0  0  0  0  0  0  0
   63.3465   30.6243   48.2304 H   0  0  0  0  0  0  0  0  0  0  0  0
   61.2496   30.8075   47.7321 H   0  0  0  0  0  0  0  0  0  0  0  0
   60.8939   28.0632   48.0498 H   0  0  0  0  0  0  0  0  0  0  0  0
   59.3880   26.1255   47.5004 H   0  0  0  0  0  0  0  0  0  0  0  0
   56.8378   28.7945   45.2177 H   0  0  0  0  0  0  0  0  0  0  0  0
  1  2  1  0
  2  3  1  0
  3  4  2  0
  3  5  1  0
  5  6  2  0
  6  7  1  0
  7  8  2  0
  8  9  1  0
  9 10  1  0
 10 11  1  0
 11 12  1  0
 12 13  1  0
 12 14  1  0
  8 15  1  0
 15 16  1  0
 16 17  2  0
 17 18  1  0
 18 19  2  0
 19 20  1  0
 20 21  1  0
 20 22  2  0
 22 23  1  0
 23 24  1  0
 24  5  1  0
 24 15  2  0
 23 17  1  0
  1 25  1  0
  1 26  1  0
  1 27  1  0
  6 28  1  0
  7 29  1  0
  9 30  1  0
 10 31  1  0
 10 32  1  0
 11 33  1  0
 11 34  1  0
 12 35  1  0
 13 36  1  0
 13 37  1  0
 13 38  1  0
 14 39  1  0
 14 40  1  0
 14 41  1  0
 16 42  1  0
 18 43  1  0
 19 44  1  0
 22 45  1  0
M  CHG  1  12   1
M  END
>  <UniqueID>  (6) 
6

>  <SMILES>  (6) 
COC(=O)c1ccc(NCC[NH+](C)C)c2cc3ccc(Br)cn3c12

>  <Energy>  (6) 
91.95758294414088

>  <Genealogy>  (6) 
COC(=O)c1ccc(NCC[NH+](C)C)c2cc3ccc(Br)cn3c12 (protonated)
COC(=O)c1ccc(NCC[NH+](C)C)c2cc3ccc(Br)cn3c12 (3D coordinates assigned)
COC(=O)c1ccc(NCC[NH+](C)C)c2cc3ccc(Br)cn3c12 (optimized conformer: 91.95758294414088 kcal/mol)

>  <smiles>  (6) 
COC(=O)c1ccc(NCCN(C)C)c2cc3ccc(Br)cn3c12

>  <score_type>  (6) 
oracle

>  <origin>  (6) 
adg

>  <m_score__min__energy>  (6) 
-6.4800000000000004

>  <m_primary>  (6) 
energy

$$$$
6:0
     RDKit          3D

 50 52  0  0  0  0  0  0  0  0999 V2000
   57.2400   31.2760   44.2390 C   0  0  0  0  0  0  0  0  0  0  0  0
   58.1410   32.4980   43.9980 C   0  0  0  0  0  0  0  0  0  0  0  0
   58.3440   33.3460   45.1960 N   0  0  0  0  0  0  0  0  0  0  0  0
   57.0920   33.5280   45.9550 C   0  0  0  0  0  0  0  0  0  0  0  0
   58.9860   34.6360   44.8660 C   0  0  0  0  0  0  0  0  0  0  0  0
   59.6130   35.2740   46.1190 C   0  0  0  0  0  0  0  0  0  0  0  0
   60.1340   34.2180   47.1200 C   0  0  0  0  0  0  0  0  0  0  0  0
   60.8250   33.0860   46.4660 N   0  0  0  0  0  0  0  0  0  0  0  0
   61.2230   32.0560   47.4190 C   0  0  0  0  0  0  0  0  0  0  0  0
   60.4440   30.8730   47.6130 C   0  0  0  0  0  0  0  0  0  0  0  0
   59.3510   30.5270   46.7750 C   0  0  0  0  0  0  0  0  0  0  0  0
   58.6260   29.3550   46.9760 C   0  0  0  0  0  0  0  0  0  0  0  0
   58.9720   28.4880   47.9970 C   0  0  0  0  0  0  0  0  0  0  0  0
   60.0290   28.7980   48.8440 C   0  0  0  0  0  0  0  0  0  0  0  0
   60.7610   30.0040   48.7000 C   0  0  0  0  0  0  0  0  0  0  0  0
   61.7620   30.3340   49.5880 N   0  0  0  0  0  0  0  0  0  0  0  0
   61.8480   29.6410   50.8940 C   0  0  0  0  0  0  0  0  0  0  0  0
   62.6620   31.3290   49.2790 C   0  0  0  0  0  0  0  0  0  0  0  0
   63.8730   31.4730   50.0030 C   0  0  0  0  0  0  0  0  0  0  0  0
   64.7500   32.5230   49.7450 C   0  0  0  0  0  0  0  0  0  0  0  0
   66.2350   32.6780   50.6670 Cl  0  0  0  0  0  0  0  0  0  0  0  0
   64.4480   33.4480   48.7560 C   0  0  0  0  0  0  0  0  0  0  0  0
   63.2890   33.3100   47.9970 C   0  0  0  0  0  0  0  0  0  0  0  0
   62.3880   32.2370   48.2190 C   0  0  0  0  0  0  0  0  0  0  0  0
   57.1216   31.1154   45.3207 H   0  0  0  0  0  0  0  0  0  0  0  0
   56.2540   31.4521   43.7843 H   0  0  0  0  0  0  0  0  0  0  0  0
   57.6997   30.3861   43.7843 H   0  0  0  0  0  0  0  0  0  0  0  0
   59.1239   32.1406   43.6573 H   0  0  0  0  0  0  0  0  0  0  0  0
   57.6332   33.1236   43.2491 H   0  0  0  0  0  0  0  0  0  0  0  0
   57.3088   33.4965   47.0330 H   0  0  0  0  0  0  0  0  0  0  0  0
   56.6461   34.5004   45.6990 H   0  0  0  0  0  0  0  0  0  0  0  0
   56.3877   32.7228   45.6990 H   0  0  0  0  0  0  0  0  0  0  0  0
   59.7729   34.4654   44.1166 H   0  0  0  0  0  0  0  0  0  0  0  0
   58.2198   35.3187   44.4699 H   0  0  0  0  0  0  0  0  0  0  0  0
   60.4541   35.9110   45.8078 H   0  0  0  0  0  0  0  0  0  0  0  0
   58.8304   35.8584   46.6251 H   0  0  0  0  0  0  0  0  0  0  0  0
   60.8387   34.7069   47.8087 H   0  0  0  0  0  0  0  0  0  0  0  0
   59.2597   33.8072   47.6461 H   0  0  0  0  0  0  0  0  0  0  0  0
   60.2340   32.7420   45.6870 H   0  0  0  0  0  0  0  0  0  0  0  0
   61.6630   33.4400   45.9560 H   0  0  0  0  0  0  0  0  0  0  0  0
   59.0712   31.1986   45.9500 H   0  0  0  0  0  0  0  0  0  0  0  0
   57.7751   29.1178   46.3205 H   0  0  0  0  0  0  0  0  0  0  0  0
   58.4102   27.5529   48.1384 H   0  0  0  0  0  0  0  0  0  0  0  0
   60.3036   28.0933   49.6428 H   0  0  0  0  0  0  0  0  0  0  0  0
   61.7567   30.3770   51.7064 H   0  0  0  0  0  0  0  0  0  0  0  0
   61.0343   28.9050   50.9728 H   0  0  0  0  0  0  0  0  0  0  0  0
   62.8169   29.1262   50.9728 H   0  0  0  0  0  0  0  0  0  0  0  0
   64.1244   30.7404   50.7841 H   0  0  0  0  0  0  0  0  0  0  0  0
   65.1268   34.2936   48.5709 H   0  0  0  0  0  0  0  0  0  0  0  0
   63.0678   34.0467   47.2106 H   0  0  0  0  0  0  0  0  0  0  0  0
  1  2  1  0
  2  3  1  0
  3  4  1  0
  3  5  1  0
  5  6  1  0
  6  7  1  0
  7  8  1  0
  8  9  1  0
  9 10  2  0
 10 11  1  0
 11 12  2  0
 12 13  1  0
 13 14  2  0
 14 15  1  0
 15 16  2  0
 16 17  1  0
 16 18  1  0
 18 19  2  0
 19 20  1  0
 20 21  1  0
 20 22  2  0
 22 23  1  0
 23 24  2  0
 24  9  1  0
 15 10  1  0
 24 18  1  0
  1 25  1  0
  1 26  1  0
  1 27  1  0
  2 28  1  0
  2 29  1  0
  4 30  1  0
  4 31  1  0
  4 32  1  0
  5 33  1  0
  5 34  1  0
  6 35  1  0
  6 36  1  0
  7 37  1  0
  7 38  1  0
  8 39  1  0
  8 40  1  0
 11 41  1  0
 12 42  1  0
 13 43  1  0
 14 44  1  0
 17 45  1  0
 17 46  1  0
 17 47  1  0
 19 48  1  0
 22 49  1  0
 23 50  1  0
M  CHG  2   8   1  16   1
M  END
>  <UniqueID>  (7) 
7

>  <SMILES>  (7) 
CCN(C)CCC[NH2+]c1c2ccccc2[n+](C)c2cc(Cl)ccc12

>  <Energy>  (7) 
80.22055934971372

>  <Genealogy>  (7) 
CCN(C)CCC[NH2+]c1c2ccccc2[n+](C)c2cc(Cl)ccc12 (protonated)
CCN(C)CCC[NH2+]c1c2ccccc2[n+](C)c2cc(Cl)ccc12 (3D coordinates assigned)
CCN(C)CCC[NH2+]c1c2ccccc2[n+](C)c2cc(Cl)ccc12 (optimized conformer: 80.22055934971372 kcal/mol)

>  <smiles>  (7) 
CCN(C)CCCNc1c2ccccc2[n+](C)c2cc(Cl)ccc12

>  <score_type>  (7) 
oracle

>  <origin>  (7) 
adg

>  <m_score__min__energy>  (7) 
-4.3899999999999997

>  <m_primary>  (7) 
energy

$$$$
7:0
     RDKit          3D

 47 49  0  0  0  0  0  0  0  0999 V2000
   57.4090   31.3340   42.7000 C   0  0  0  0  0  0  0  0  0  0  0  0
   56.6440   30.0110   42.6340 C   0  0  0  0  0  0  0  0  0  0  0  0
   56.5760   29.3480   43.9920 C   0  0  0  0  0  0  0  0  0  0  0  0
   55.8960   29.8670   44.8680 O   0  0  0  0  0  0  0  0  0  0  0  0
   57.2860   28.1070   44.2570 N   0  0  0  0  0  0  0  0  0  0  0  0
   58.7110   28.2340   43.8820 C   0  0  0  0  0  0  0  0  0  0  0  0
   59.5340   28.9280   44.9810 C   0  0  0  0  0  0  0  0  0  0  0  0
   59.4090   28.2720   46.3050 N   0  0  0  0  0  0  0  0  0  0  0  0
   59.2710   29.2550   47.4020 C   0  0  0  0  0  0  0  0  0  0  0  0
   59.0580   30.6340   46.8500 C   0  0  0  0  0  0  0  0  0  0  0  0
   57.8540   31.0500   46.3780 N   0  0  0  0  0  0  0  0  0  0  0  0
   58.1070   32.3000   45.9560 C   0  0  0  0  0  0  0  0  0  0  0  0
   57.2170   33.1900   45.3580 C   0  0  0  0  0  0  0  0  0  0  0  0
   57.7100   34.4480   44.9690 C   0  0  0  0  0  0  0  0  0  0  0  0
   59.0640   34.7880   45.1920 C   0  0  0  0  0  0  0  0  0  0  0  0
   59.9370   33.8670   45.7990 C   0  0  0  0  0  0  0  0  0  0  0  0
   59.4150   32.6230   46.1660 C   0  0  0  0  0  0  0  0  0  0  0  0
   60.0380   31.5720   46.7270 N   0  0  0  0  0  0  0  0  0  0  0  0
   61.4470   31.4830   47.1240 C   0  0  0  0  0  0  0  0  0  0  0  0
   61.7620   32.5090   48.2040 C   0  0  0  0  0  0  0  0  0  0  0  0
   58.3750   27.2150   46.3580 C   0  0  0  0  0  0  0  0  0  0  0  0
   57.0750   27.6490   45.6620 C   0  0  0  0  0  0  0  0  0  0  0  0
   57.5700   31.6124   43.7519 H   0  0  0  0  0  0  0  0  0  0  0  0
   58.3811   31.2209   42.1978 H   0  0  0  0  0  0  0  0  0  0  0  0
   56.8261   32.1201   42.1978 H   0  0  0  0  0  0  0  0  0  0  0  0
   55.6214   30.2056   42.2785 H   0  0  0  0  0  0  0  0  0  0  0  0
   57.1737   29.3373   41.9445 H   0  0  0  0  0  0  0  0  0  0  0  0
   56.8890   27.3680   43.6330 H   0  0  0  0  0  0  0  0  0  0  0  0
   59.1241   27.2293   43.7093 H   0  0  0  0  0  0  0  0  0  0  0  0
   58.7704   28.8491   42.9720 H   0  0  0  0  0  0  0  0  0  0  0  0
   60.5931   28.9177   44.6841 H   0  0  0  0  0  0  0  0  0  0  0  0
   59.1445   29.9515   45.0847 H   0  0  0  0  0  0  0  0  0  0  0  0
   58.4101   28.9792   48.0287 H   0  0  0  0  0  0  0  0  0  0  0  0
   60.1936   29.2507   48.0009 H   0  0  0  0  0  0  0  0  0  0  0  0
   56.1637   32.9174   45.1957 H   0  0  0  0  0  0  0  0  0  0  0  0
   57.0372   35.1730   44.4876 H   0  0  0  0  0  0  0  0  0  0  0  0
   59.4367   35.7777   44.8893 H   0  0  0  0  0  0  0  0  0  0  0  0
   60.9931   34.1168   45.9786 H   0  0  0  0  0  0  0  0  0  0  0  0
   61.6507   30.4742   47.5124 H   0  0  0  0  0  0  0  0  0  0  0  0
   62.0777   31.6855   46.2458 H   0  0  0  0  0  0  0  0  0  0  0  0
   61.6220   32.0528   49.1951 H   0  0  0  0  0  0  0  0  0  0  0  0
   62.8044   32.8441   48.0986 H   0  0  0  0  0  0  0  0  0  0  0  0
   61.0872   33.3713   48.0986 H   0  0  0  0  0  0  0  0  0  0  0  0
   58.7617   26.3140   45.8593 H   0  0  0  0  0  0  0  0  0  0  0  0
   58.1454   27.0156   47.4151 H   0  0  0  0  0  0  0  0  0  0  0  0
   56.3820   26.7948   45.6511 H   0  0  0  0  0  0  0  0  0  0  0  0
   56.6701   28.5016   46.2269 H   0  0  0  0  0  0  0  0  0  0  0  0
  1  2  1  0
  2  3  1  0
  3  4  2  0
  3  5  1  0
  5  6  1  0
  6  7  1  0
  7  8  1  0
  8  9  1  0
  9 10  1  0
 10 11  2  0
 11 12  1  0
 12 13  2  0
 13 14  1  0
 14 15  2  0
 15 16  1  0
 16 17  2  0
 17 18  1  0
 18 19  1  0
 19 20  1  0
  8 21  1  0
 21 22  1  0
 22  5  1  0
 18 10  1  0
 17 12  1  0
  1 23  1  0
  1 24  1  0
  1 25  1  0
  2 26  1  0
  2 27  1  0
  5 28  1  0
  6 29  1  0
  6 30  1  0
  7 31  1  0
  7 32  1  0
  9 33  1  0
  9 34  1  0
 13 35  1  0
 14 36  1  0
 15 37  1  0
 16 38  1  0
 19 39  1  0
 19 40  1  0
 20 41  1  0
 20 42  1  0
 20 43  1  0
 21 44  1  0
 21 45  1  0
 22 46  1  0
 22 47  1  0
M  CHG  1   5   1
M  END
>  <UniqueID>  (8) 
8

>  <SMILES>  (8) 
CCC(=O)[NH+]1CCN(Cc2nc3ccccc3n2CC)CC1

>  <Energy>  (8) 
93.24760210222482

>  <Genealogy>  (8) 
CCC(=O)[NH+]1CCN(Cc2nc3ccccc3n2CC)CC1 (protonated)
CCC(=O)[NH+]1CCN(Cc2nc3ccccc3n2CC)CC1 (3D coordinates assigned)
CCC(=O)[NH+]1CCN(Cc2nc3ccccc3n2CC)CC1 (nonaromatic ring conformer: 93.24760210222482 kcal/mol)

>  <smiles>  (8) 
CCC(=O)N1CCN(Cc2nc3ccccc3n2CC)CC1

>  <score_type>  (8) 
oracle

>  <origin>  (8) 
adg

>  <m_score__min__energy>  (8) 
-6.2699999999999996

>  <m_primary>  (8) 
energy

$$$$
8:0
     RDKit          3D

 53 55  0  0  0  0  0  0  0  0999 V2000
   58.0140   24.6700   45.2780 C   0  0  0  0  0  0  0  0  0  0  0  0
   56.5160   24.9020   45.1070 C   0  0  0  0  0  0  0  0  0  0  0  0
   56.0690   26.1150   45.8790 C   0  0  0  0  0  0  0  0  0  0  0  0
   54.8370   26.3450   45.9970 O   0  0  0  0  0  0  0  0  0  0  0  0
   57.0030   27.0760   46.3900 N   0  0  0  0  0  0  0  0  0  0  0  0
   57.2250   28.3820   45.8490 C   0  0  0  0  0  0  0  0  0  0  0  0
   56.2850   28.9880   45.0030 C   0  0  0  0  0  0  0  0  0  0  0  0
   56.5370   30.2540   44.4680 C   0  0  0  0  0  0  0  0  0  0  0  0
   57.7260   30.9360   44.7810 C   0  0  0  0  0  0  0  0  0  0  0  0
   58.6610   30.3270   45.6270 C   0  0  0  0  0  0  0  0  0  0  0  0
   58.4260   29.0420   46.1260 C   0  0  0  0  0  0  0  0  0  0  0  0
   59.8270   30.9880   45.9930 O   0  0  0  0  0  0  0  0  0  0  0  0
   59.7920   32.1940   46.6900 C   0  0  0  0  0  0  0  0  0  0  0  0
   60.5250   32.2600   47.8810 C   0  0  0  0  0  0  0  0  0  0  0  0
   60.4580   33.3890   48.7090 C   0  0  0  0  0  0  0  0  0  0  0  0
   61.1230   33.4310   49.9840 N   0  0  0  0  0  0  0  0  0  0  0  0
   61.8040   32.2850   50.5930 C   0  0  0  0  0  0  0  0  0  0  0  0
   63.0370   31.8750   49.7740 C   0  0  0  0  0  0  0  0  0  0  0  0
   63.7770   33.0620   49.2890 N   0  0  0  0  0  0  0  0  0  0  0  0
   65.1630   33.0680   49.7890 C   0  0  0  0  0  0  0  0  0  0  0  0
   63.7810   33.1110   47.8190 C   0  0  0  0  0  0  0  0  0  0  0  0
   59.7110   34.4930   48.2880 C   0  0  0  0  0  0  0  0  0  0  0  0
   59.0140   34.4580   47.0800 C   0  0  0  0  0  0  0  0  0  0  0  0
   59.0330   33.3100   46.2620 C   0  0  0  0  0  0  0  0  0  0  0  0
   58.3430   33.3650   44.9410 C   0  0  0  0  0  0  0  0  0  0  0  0
   58.0290   34.4970   44.4770 O   0  0  0  0  0  0  0  0  0  0  0  0
   58.0340   32.1940   44.1580 N   0  0  0  0  0  0  0  0  0  0  0  0
   57.7850   32.3530   42.7210 C   0  0  0  0  0  0  0  0  0  0  0  0
   58.2592   24.6320   46.3497 H   0  0  0  0  0  0  0  0  0  0  0  0
   58.2940   23.7178   44.8038 H   0  0  0  0  0  0  0  0  0  0  0  0
   58.5690   25.4929   44.8038 H   0  0  0  0  0  0  0  0  0  0  0  0
   56.2942   25.0521   44.0401 H   0  0  0  0  0  0  0  0  0  0  0  0
   55.9779   24.0228   45.4910 H   0  0  0  0  0  0  0  0  0  0  0  0
   55.3478   28.4659   44.7602 H   0  0  0  0  0  0  0  0  0  0  0  0
   55.8001   30.7202   43.7974 H   0  0  0  0  0  0  0  0  0  0  0  0
   59.1918   28.5467   46.7411 H   0  0  0  0  0  0  0  0  0  0  0  0
   61.1634   31.4126   48.1715 H   0  0  0  0  0  0  0  0  0  0  0  0
   61.0070   34.2860   50.5750 H   0  0  0  0  0  0  0  0  0  0  0  0
   62.1224   32.5556   51.6106 H   0  0  0  0  0  0  0  0  0  0  0  0
   61.1043   31.4366   50.6194 H   0  0  0  0  0  0  0  0  0  0  0  0
   63.7034   31.2708   50.4071 H   0  0  0  0  0  0  0  0  0  0  0  0
   62.6990   31.2954   48.9023 H   0  0  0  0  0  0  0  0  0  0  0  0
   65.1560   33.0680   50.8890 H   0  0  0  0  0  0  0  0  0  0  0  0
   65.6878   32.1721   49.4257 H   0  0  0  0  0  0  0  0  0  0  0  0
   65.6800   33.9684   49.4257 H   0  0  0  0  0  0  0  0  0  0  0  0
   63.8663   34.1563   47.4872 H   0  0  0  0  0  0  0  0  0  0  0  0
   64.6350   32.5336   47.4352 H   0  0  0  0  0  0  0  0  0  0  0  0
   62.8447   32.6797   47.4352 H   0  0  0  0  0  0  0  0  0  0  0  0
   59.6724   35.3966   48.9142 H   0  0  0  0  0  0  0  0  0  0  0  0
   58.4403   35.3405   46.7606 H   0  0  0  0  0  0  0  0  0  0  0  0
   56.8666   32.9395   42.5707 H   0  0  0  0  0  0  0  0  0  0  0  0
   58.6342   32.8764   42.2574 H   0  0  0  0  0  0  0  0  0  0  0  0
   57.6675   31.3624   42.2574 H   0  0  0  0  0  0  0  0  0  0  0  0
  1  2  1  0
  2  3  1  0
  3  4  2  0
  3  5  1  0
  5  6  1  0
  6  7  2  0
  7  8  1  0
  8  9  2  0
  9 10  1  0
 10 11  2  0
 10 12  1  0
 12 13  1  0
 13 14  2  0
 14 15  1  0
 15 16  1  0
 16 17  1  0
 17 18  1  0
 18 19  1  0
 19 20  1  0
 19 21  1  0
 15 22  2  0
 22 23  1  0
 23 24  2  0
 24 25  1  0
 25 26  2  0
 25 27  1  0
 27 28  1  0
 11  6  1  0
 24 13  1  0
 27  9  1  0
  1 29  1  0
  1 30  1  0
  1 31  1  0
  2 32  1  0
  2 33  1  0
  7 34  1  0
  8 35  1  0
 11 36  1  0
 14 37  1  0
 16 38  1  0
 17 39  1  0
 17 40  1  0
 18 41  1  0
 18 42  1  0
 20 43  1  0
 20 44  1  0
 20 45  1  0
 21 46  1  0
 21 47  1  0
 21 48  1  0
 22 49  1  0
 23 50  1  0
 28 51  1  0
 28 52  1  0
 28 53  1  0
M  CHG  1   5  -1
M  END
>  <UniqueID>  (9) 
9

>  <SMILES>  (9) 
CCC(=O)[N-]c1ccc2c(c1)Oc1cc(NCCN(C)C)ccc1C(=O)N2C

>  <Energy>  (9) 
78.517235423927

>  <Genealogy>  (9) 
CCC(=O)[N-]c1ccc2c(c1)Oc1cc(NCCN(C)C)ccc1C(=O)N2C (protonated)
CCC(=O)[N-]c1ccc2c(c1)Oc1cc(NCCN(C)C)ccc1C(=O)N2C (3D coordinates assigned)
CCC(=O)[N-]c1ccc2c(c1)Oc1cc(NCCN(C)C)ccc1C(=O)N2C (nonaromatic ring conformer: 78.517235423927 kcal/mol)

>  <smiles>  (9) 
CCC(=O)Nc1ccc2c(c1)Oc1cc(NCCN(C)C)ccc1C(=O)N2C

>  <score_type>  (9) 
oracle

>  <origin>  (9) 
adg

>  <m_score__min__energy>  (9) 
-10.029999999999999

>  <m_primary>  (9) 
energy

$$$$
9:0
     RDKit          3D

 78 82  0  0  0  0  0  0  0  0999 V2000
   52.3560   31.6070   51.2330 C   0  0  0  0  0  0  0  0  0  0  0  0
   52.9270   30.2030   50.9850 C   0  0  0  0  0  0  0  0  0  0  0  0
   52.8850   29.3040   52.1660 N   0  0  2  0  0  0  0  0  0  0  0  0
   51.5990   28.5860   52.2590 C   0  0  0  0  0  0  0  0  0  0  0  0
   53.2130   30.0260   53.4240 C   0  0  0  0  0  0  0  0  0  0  0  0
   54.7290   30.2130   53.6330 C   0  0  0  0  0  0  0  0  0  0  0  0
   55.4830   29.2280   52.9280 O   0  0  0  0  0  0  0  0  0  0  0  0
   56.5840   28.5230   53.4420 C   0  0  0  0  0  0  0  0  0  0  0  0
   56.4370   27.3310   54.1800 C   0  0  0  0  0  0  0  0  0  0  0  0
   57.5610   26.6820   54.7010 C   0  0  0  0  0  0  0  0  0  0  0  0
   58.8350   27.2120   54.4960 C   0  0  0  0  0  0  0  0  0  0  0  0
   58.9920   28.3880   53.7610 C   0  0  0  0  0  0  0  0  0  0  0  0
   57.8740   29.0400   53.2210 C   0  0  0  0  0  0  0  0  0  0  0  0
   58.0520   30.2570   52.4810 N   0  0  0  0  0  0  0  0  0  0  0  0
   57.2470   30.5420   51.2890 C   0  0  0  0  0  0  0  0  0  0  0  0
   58.1570   31.0030   50.1470 C   0  0  0  0  0  0  0  0  0  0  0  0
   59.1040   32.0180   50.6300 N   0  0  0  0  0  0  0  0  0  0  0  0
   59.4010   33.1920   49.8560 C   0  0  0  0  0  0  0  0  0  0  0  0
   59.5900   34.2880   50.4510 O   0  0  0  0  0  0  0  0  0  0  0  0
   59.4700   33.1400   48.3420 C   0  0  1  0  0  0  0  0  0  0  0  0
   60.6380   33.9860   47.8250 C   0  0  0  0  0  0  0  0  0  0  0  0
   61.6990   33.0420   47.5120 N   0  0  0  0  0  0  0  0  0  0  0  0
   63.0190   33.4560   47.1240 C   0  0  0  0  0  0  0  0  0  0  0  0
   63.2150   33.8990   45.9580 O   0  0  0  0  0  0  0  0  0  0  0  0
   64.1500   33.4670   48.1140 C   0  0  0  0  0  0  0  0  0  0  0  0
   63.7370   33.6810   49.5640 C   0  0  0  0  0  0  0  0  0  0  0  0
   64.1670   32.3020   49.0950 C   0  0  0  0  0  0  0  0  0  0  0  0
   61.2790   31.6570   47.6300 C   0  0  0  0  0  0  0  0  0  0  0  0
   59.7610   31.7040   47.8490 C   0  0  2  0  0  0  0  0  0  0  0  0
   58.9770   31.3910   46.5800 C   0  0  0  0  0  0  0  0  0  0  0  0
   59.0190   30.0940   46.0380 C   0  0  0  0  0  0  0  0  0  0  0  0
   58.2750   29.7730   44.8980 C   0  0  0  0  0  0  0  0  0  0  0  0
   57.4710   30.7410   44.2930 C   0  0  0  0  0  0  0  0  0  0  0  0
   56.5350   30.3390   42.8630 Cl  0  0  0  0  0  0  0  0  0  0  0  0
   57.4070   32.0300   44.8290 C   0  0  0  0  0  0  0  0  0  0  0  0
   58.1480   32.3530   45.9700 C   0  0  0  0  0  0  0  0  0  0  0  0
   59.8940   31.7210   51.8320 C   0  0  0  0  0  0  0  0  0  0  0  0
   58.9660   31.2930   52.9670 C   0  0  0  0  0  0  0  0  0  0  0  0
   52.2828   31.7871   52.3157 H   0  0  0  0  0  0  0  0  0  0  0  0
   53.0201   32.3581   50.7805 H   0  0  0  0  0  0  0  0  0  0  0  0
   51.3562   31.6814   50.7805 H   0  0  0  0  0  0  0  0  0  0  0  0
   52.3477   29.7345   50.1757 H   0  0  0  0  0  0  0  0  0  0  0  0
   53.9889   30.3373   50.7316 H   0  0  0  0  0  0  0  0  0  0  0  0
   53.6250   28.5820   51.9920 H   0  0  0  0  0  0  0  0  0  0  0  0
   51.3366   28.4395   53.3171 H   0  0  0  0  0  0  0  0  0  0  0  0
   50.8131   29.1759   51.7646 H   0  0  0  0  0  0  0  0  0  0  0  0
   51.6888   27.6075   51.7646 H   0  0  0  0  0  0  0  0  0  0  0  0
   52.7384   31.0179   53.3930 H   0  0  0  0  0  0  0  0  0  0  0  0
   52.8380   29.4176   54.2602 H   0  0  0  0  0  0  0  0  0  0  0  0
   55.0187   31.2105   53.2710 H   0  0  0  0  0  0  0  0  0  0  0  0
   54.9435   30.1064   54.7066 H   0  0  0  0  0  0  0  0  0  0  0  0
   55.4346   26.9098   54.3467 H   0  0  0  0  0  0  0  0  0  0  0  0
   57.4401   25.7509   55.2741 H   0  0  0  0  0  0  0  0  0  0  0  0
   59.7161   26.7029   54.9138 H   0  0  0  0  0  0  0  0  0  0  0  0
   59.9976   28.8055   53.6045 H   0  0  0  0  0  0  0  0  0  0  0  0
   56.7110   29.6312   50.9839 H   0  0  0  0  0  0  0  0  0  0  0  0
   56.5236   31.3375   51.5208 H   0  0  0  0  0  0  0  0  0  0  0  0
   58.7169   30.1399   49.7577 H   0  0  0  0  0  0  0  0  0  0  0  0
   57.5383   31.4403   49.3496 H   0  0  0  0  0  0  0  0  0  0  0  0
   58.5000   33.5070   47.9754 H   0  0  0  0  0  0  0  0  0  0  0  0
   60.3400   34.5410   46.9232 H   0  0  0  0  0  0  0  0  0  0  0  0
   60.9618   34.7289   48.5688 H   0  0  0  0  0  0  0  0  0  0  0  0
   64.8838   33.9248   47.4344 H   0  0  0  0  0  0  0  0  0  0  0  0
   64.3844   34.2582   50.2405 H   0  0  0  0  0  0  0  0  0  0  0  0
   62.8476   34.0886   50.0667 H   0  0  0  0  0  0  0  0  0  0  0  0
   65.1257   31.8809   49.4319 H   0  0  0  0  0  0  0  0  0  0  0  0
   63.7178   31.2982   49.1176 H   0  0  0  0  0  0  0  0  0  0  0  0
   61.5173   31.1036   46.7097 H   0  0  0  0  0  0  0  0  0  0  0  0
   61.7939   31.1442   48.4558 H   0  0  0  0  0  0  0  0  0  0  0  0
   59.4446   30.9392   48.5735 H   0  0  0  0  0  0  0  0  0  0  0  0
   59.6432   29.3243   46.5154 H   0  0  0  0  0  0  0  0  0  0  0  0
   58.3233   28.7575   44.4779 H   0  0  0  0  0  0  0  0  0  0  0  0
   56.7726   32.7919   44.3525 H   0  0  0  0  0  0  0  0  0  0  0  0
   58.0832   33.3657   46.3945 H   0  0  0  0  0  0  0  0  0  0  0  0
   60.6017   30.9080   51.6124 H   0  0  0  0  0  0  0  0  0  0  0  0
   60.4476   32.6219   52.1351 H   0  0  0  0  0  0  0  0  0  0  0  0
   59.5639   30.8942   53.7998 H   0  0  0  0  0  0  0  0  0  0  0  0
   58.3870   32.1606   53.3163 H   0  0  0  0  0  0  0  0  0  0  0  0
  1  2  1  0
  2  3  1  0
  3  4  1  0
  3  5  1  0
  5  6  1  0
  6  7  1  0
  7  8  1  0
  8  9  2  0
  9 10  1  0
 10 11  2  0
 11 12  1  0
 12 13  2  0
 13 14  1  0
 14 15  1  0
 15 16  1  0
 16 17  1  0
 17 18  1  0
 18 19  2  0
 18 20  1  0
 20 21  1  0
 21 22  1  0
 22 23  1  0
 23 24  2  0
 23 25  1  0
 25 26  1  0
 26 27  1  0
 22 28  1  0
 28 29  1  0
 29 30  1  0
 30 31  2  0
 31 32  1  0
 32 33  2  0
 33 34  1  0
 33 35  1  0
 35 36  2  0
 17 37  1  0
 37 38  1  0
 13  8  1  0
 38 14  1  0
 29 20  1  0
 36 30  1  0
 27 25  1  0
  1 39  1  0
  1 40  1  0
  1 41  1  0
  2 42  1  0
  2 43  1  0
  3 44  1  6
  4 45  1  0
  4 46  1  0
  4 47  1  0
  5 48  1  0
  5 49  1  0
  6 50  1  0
  6 51  1  0
  9 52  1  0
 10 53  1  0
 11 54  1  0
 12 55  1  0
 15 56  1  0
 15 57  1  0
 16 58  1  0
 16 59  1  0
 20 60  1  6
 21 61  1  0
 21 62  1  0
 25 63  1  0
 26 64  1  0
 26 65  1  0
 27 66  1  0
 27 67  1  0
 28 68  1  0
 28 69  1  0
 29 70  1  1
 31 71  1  0
 32 72  1  0
 35 73  1  0
 36 74  1  0
 37 75  1  0
 37 76  1  0
 38 77  1  0
 38 78  1  0
M  CHG  1   3   1
M  END
>  <UniqueID>  (10) 
10

>  <SMILES>  (10) 
CC[N@H+](C)CCOc1ccccc1N1CCN(C(=O)[C@H]2CN(C(=O)C3CC3)CC2c2ccc(Cl)cc2)CC1

>  <Energy>  (10) 
354.08435090237987

>  <Genealogy>  (10) 
CC[NH+](C)CCOc1ccccc1N1CCN(C(=O)C2CN(C(=O)C3CC3)CC2c2ccc(Cl)cc2)CC1 (protonated)
CC[N@H+](C)CCOc1ccccc1N1CCN(C(=O)[C@H]2CN(C(=O)C3CC3)CC2c2ccc(Cl)cc2)CC1 (chirality)
CC[N@H+](C)CCOc1ccccc1N1CCN(C(=O)[C@H]2CN(C(=O)C3CC3)CC2c2ccc(Cl)cc2)CC1 (3D coordinates assigned)
CC[N@H+](C)CCOc1ccccc1N1CCN(C(=O)[C@H]2CN(C(=O)C3CC3)CC2c2ccc(Cl)cc2)CC1 (nonaromatic ring conformer: 354.08435090237987 kcal/mol)

>  <smiles>  (10) 
CCN(C)CCOc1ccccc1N1CCN(C(=O)C2CN(C(=O)C3CC3)CC2c2ccc(Cl)cc2)CC1

>  <score_type>  (10) 
oracle

>  <origin>  (10) 
adg

>  <m_score__min__energy>  (10) 
-7.9199999999999999

>  <m_primary>  (10) 
energy

$$$$
10:0
     RDKit          3D

 73 74  0  0  0  0  0  0  0  0999 V2000
   63.3000   33.8010   46.7330 C   0  0  0  0  0  0  0  0  0  0  0  0
   63.6500   32.3900   47.1750 C   0  0  0  0  0  0  0  0  0  0  0  0
   62.5300   31.8120   47.8330 O   0  0  0  0  0  0  0  0  0  0  0  0
   62.4730   31.6210   49.2180 C   0  0  0  0  0  0  0  0  0  0  0  0
   63.4980   31.2180   49.8290 O   0  0  0  0  0  0  0  0  0  0  0  0
   61.1850   31.8810   49.9310 C   0  0  0  0  0  0  0  0  0  0  0  0
   60.5980   33.1060   50.0160 C   0  0  0  0  0  0  0  0  0  0  0  0
   61.1760   34.3610   49.4100 C   0  0  0  0  0  0  0  0  0  0  0  0
   60.7010   34.5620   48.0920 O   0  0  0  0  0  0  0  0  0  0  0  0
   59.2840   34.5800   48.0390 C   0  0  0  0  0  0  0  0  0  0  0  0
   58.7660   33.5290   47.0530 C   0  0  0  0  0  0  0  0  0  0  0  0
   58.0070   34.1770   45.9590 N   0  0  0  0  0  0  0  0  0  0  0  0
   58.9250   34.7070   44.9350 C   0  0  0  0  0  0  0  0  0  0  0  0
   57.0210   33.2620   45.3410 C   0  0  0  0  0  0  0  0  0  0  0  0
   57.7180   32.2750   44.3880 C   0  0  0  0  0  0  0  0  0  0  0  0
   57.3780   30.8720   44.7190 N   0  0  0  0  0  0  0  0  0  0  0  0
   58.4850   29.9460   44.4260 C   0  0  0  0  0  0  0  0  0  0  0  0
   56.1030   30.4290   44.1190 C   0  0  0  0  0  0  0  0  0  0  0  0
   56.2590   29.7170   42.7680 C   0  0  0  0  0  0  0  0  0  0  0  0
   59.3250   33.2600   50.6640 N   0  0  0  0  0  0  0  0  0  0  0  0
   58.7310   32.3390   51.3600 C   0  0  0  0  0  0  0  0  0  0  0  0
   57.4330   32.6980   52.0240 C   0  0  0  0  0  0  0  0  0  0  0  0
   59.4500   31.0420   51.6580 C   0  0  1  0  0  0  0  0  0  0  0  0
   58.5060   29.9020   51.9440 C   0  0  0  0  0  0  0  0  0  0  0  0
   57.3990   29.8420   51.3420 O   0  0  0  0  0  0  0  0  0  0  0  0
   58.8430   28.9430   52.9040 O   0  0  0  0  0  0  0  0  0  0  0  0
   57.9130   28.4530   53.8640 C   0  0  0  0  0  0  0  0  0  0  0  0
   60.4990   30.6750   50.5610 C   0  0  1  0  0  0  0  0  0  0  0  0
   60.0100   29.6630   49.5140 C   0  0  0  0  0  0  0  0  0  0  0  0
   59.2870   30.1620   48.4090 C   0  0  0  0  0  0  0  0  0  0  0  0
   58.8200   29.3100   47.4060 C   0  0  0  0  0  0  0  0  0  0  0  0
   59.0730   27.9440   47.4780 C   0  0  0  0  0  0  0  0  0  0  0  0
   59.7960   27.4260   48.5520 C   0  0  0  0  0  0  0  0  0  0  0  0
   60.2690   28.2660   49.5700 C   0  0  0  0  0  0  0  0  0  0  0  0
   61.1880   27.4970   50.8570 Cl  0  0  0  0  0  0  0  0  0  0  0  0
   63.1429   34.4343   47.6186 H   0  0  0  0  0  0  0  0  0  0  0  0
   64.1236   34.2113   46.1302 H   0  0  0  0  0  0  0  0  0  0  0  0
   62.3801   33.7789   46.1302 H   0  0  0  0  0  0  0  0  0  0  0  0
   63.9124   31.7839   46.2953 H   0  0  0  0  0  0  0  0  0  0  0  0
   64.5064   32.4218   47.8646 H   0  0  0  0  0  0  0  0  0  0  0  0
   60.8887   35.2232   50.0297 H   0  0  0  0  0  0  0  0  0  0  0  0
   62.2703   34.2560   49.3722 H   0  0  0  0  0  0  0  0  0  0  0  0
   58.8824   34.3648   49.0402 H   0  0  0  0  0  0  0  0  0  0  0  0
   58.9552   35.5740   47.7016 H   0  0  0  0  0  0  0  0  0  0  0  0
   59.6189   32.9804   46.6269 H   0  0  0  0  0  0  0  0  0  0  0  0
   58.0997   32.8360   47.5877 H   0  0  0  0  0  0  0  0  0  0  0  0
   59.7774   35.1991   45.4261 H   0  0  0  0  0  0  0  0  0  0  0  0
   59.2904   33.8809   44.3073 H   0  0  0  0  0  0  0  0  0  0  0  0
   58.3923   35.4365   44.3073 H   0  0  0  0  0  0  0  0  0  0  0  0
   56.5066   32.6975   46.1326 H   0  0  0  0  0  0  0  0  0  0  0  0
   56.2973   33.8581   44.7657 H   0  0  0  0  0  0  0  0  0  0  0  0
   57.3984   32.4869   43.3570 H   0  0  0  0  0  0  0  0  0  0  0  0
   58.8056   32.4016   44.4936 H   0  0  0  0  0  0  0  0  0  0  0  0
   58.9189   29.5831   45.3694 H   0  0  0  0  0  0  0  0  0  0  0  0
   58.1052   29.0927   43.8449 H   0  0  0  0  0  0  0  0  0  0  0  0
   59.2578   30.4705   43.8449 H   0  0  0  0  0  0  0  0  0  0  0  0
   55.6138   29.7365   44.8198 H   0  0  0  0  0  0  0  0  0  0  0  0
   55.5087   31.3357   43.9325 H   0  0  0  0  0  0  0  0  0  0  0  0
   56.4916   28.6554   42.9377 H   0  0  0  0  0  0  0  0  0  0  0  0
   55.3213   29.8005   42.1991 H   0  0  0  0  0  0  0  0  0  0  0  0
   57.0759   30.1849   42.1991 H   0  0  0  0  0  0  0  0  0  0  0  0
   57.5581   32.6634   53.1163 H   0  0  0  0  0  0  0  0  0  0  0  0
   57.1344   33.7124   51.7211 H   0  0  0  0  0  0  0  0  0  0  0  0
   56.6556   31.9812   51.7211 H   0  0  0  0  0  0  0  0  0  0  0  0
   60.0125   31.2171   52.5870 H   0  0  0  0  0  0  0  0  0  0  0  0
   58.2922   28.6528   54.8771 H   0  0  0  0  0  0  0  0  0  0  0  0
   56.9454   28.9584   53.7284 H   0  0  0  0  0  0  0  0  0  0  0  0
   57.7828   27.3692   53.7284 H   0  0  0  0  0  0  0  0  0  0  0  0
   61.2783   30.1443   51.1276 H   0  0  0  0  0  0  0  0  0  0  0  0
   59.0879   31.2414   48.3367 H   0  0  0  0  0  0  0  0  0  0  0  0
   58.2514   29.7195   46.5580 H   0  0  0  0  0  0  0  0  0  0  0  0
   58.7031   27.2732   46.6886 H   0  0  0  0  0  0  0  0  0  0  0  0
   59.9976   26.3457   48.6011 H   0  0  0  0  0  0  0  0  0  0  0  0
  1  2  1  0
  2  3  1  0
  3  4  1  0
  4  5  2  0
  4  6  1  0
  6  7  2  0
  7  8  1  0
  8  9  1  0
  9 10  1  0
 10 11  1  0
 11 12  1  0
 12 13  1  0
 12 14  1  0
 14 15  1  0
 15 16  1  0
 16 17  1  0
 16 18  1  0
 18 19  1  0
  7 20  1  0
 20 21  2  0
 21 22  1  0
 21 23  1  0
 23 24  1  0
 24 25  2  0
 24 26  1  0
 26 27  1  0
 23 28  1  0
 28 29  1  0
 29 30  2  0
 30 31  1  0
 31 32  2  0
 32 33  1  0
 33 34  2  0
 34 35  1  0
 28  6  1  0
 34 29  1  0
  1 36  1  0
  1 37  1  0
  1 38  1  0
  2 39  1  0
  2 40  1  0
  8 41  1  0
  8 42  1  0
 10 43  1  0
 10 44  1  0
 11 45  1  0
 11 46  1  0
 13 47  1  0
 13 48  1  0
 13 49  1  0
 14 50  1  0
 14 51  1  0
 15 52  1  0
 15 53  1  0
 17 54  1  0
 17 55  1  0
 17 56  1  0
 18 57  1  0
 18 58  1  0
 19 59  1  0
 19 60  1  0
 19 61  1  0
 22 62  1  0
 22 63  1  0
 22 64  1  0
 23 65  1  1
 27 66  1  0
 27 67  1  0
 27 68  1  0
 28 69  1  1
 30 70  1  0
 31 71  1  0
 32 72  1  0
 33 73  1  0
M  END
>  <UniqueID>  (11) 
11

>  <SMILES>  (11) 
CCOC(=O)C1=C(COCCN(C)CCN(C)CC)N=C(C)[C@@H](C(=O)OC)[C@H]1c1ccccc1Cl

>  <Energy>  (11) 
80.75642333872361

>  <Genealogy>  (11) 
CCOC(=O)C1=C(COCCN(C)CCN(C)CC)N=C(C)[C@@H](C(=O)OC)[C@H]1c1ccccc1Cl (chirality)
CCOC(=O)C1=C(COCCN(C)CCN(C)CC)N=C(C)[C@@H](C(=O)OC)[C@H]1c1ccccc1Cl (3D coordinates assigned)
CCOC(=O)C1=C(COCCN(C)CCN(C)CC)N=C(C)[C@@H](C(=O)OC)[C@H]1c1ccccc1Cl (nonaromatic ring conformer: 80.75642333872361 kcal/mol)

>  <smiles>  (11) 
CCOC(=O)C1=C(COCCN(C)CCN(C)CC)N=C(C)C(C(=O)OC)C1c1ccccc1Cl

>  <score_type>  (11) 
oracle

>  <origin>  (11) 
adg

>  <m_score__min__energy>  (11) 
-7.5300000000000002

>  <m_primary>  (11) 
energy

$$$$
11:0
     RDKit          3D

 45 47  0  0  0  0  0  0  0  0999 V2000
   60.1010   25.6520   46.2890 C   0  0  0  0  0  0  0  0  0  0  0  0
   59.5270   27.0070   46.3010 N   0  0  0  0  0  0  0  0  0  0  0  0
   58.3640   27.0540   45.3980 C   0  0  0  0  0  0  0  0  0  0  0  0
   59.1490   27.3910   47.6790 C   0  0  0  0  0  0  0  0  0  0  0  0
   59.7230   28.7640   48.0470 C   0  0  0  0  0  0  0  0  0  0  0  0
   60.3870   29.3850   46.9000 N   0  0  0  0  0  0  0  0  0  0  0  0
   60.2460   30.7910   46.6530 C   0  0  0  0  0  0  0  0  0  0  0  0
   61.2270   31.6840   47.1090 C   0  0  0  0  0  0  0  0  0  0  0  0
   62.3570   31.2160   47.8130 C   0  0  0  0  0  0  0  0  0  0  0  0
   63.3610   32.0940   48.2110 C   0  0  0  0  0  0  0  0  0  0  0  0
   63.2640   33.4470   47.9040 C   0  0  0  0  0  0  0  0  0  0  0  0
   62.1470   33.9350   47.2250 C   0  0  0  0  0  0  0  0  0  0  0  0
   61.0870   33.0730   46.8460 C   0  0  0  0  0  0  0  0  0  0  0  0
   59.9480   33.5490   46.2190 N   0  0  0  0  0  0  0  0  0  0  0  0
   59.6700   35.0020   46.1950 C   0  0  0  0  0  0  0  0  0  0  0  0
   59.0520   32.6640   45.6460 C   0  0  0  0  0  0  0  0  0  0  0  0
   58.0140   33.1030   44.7880 C   0  0  0  0  0  0  0  0  0  0  0  0
   57.0790   32.2100   44.2670 C   0  0  0  0  0  0  0  0  0  0  0  0
   57.1470   30.8470   44.5720 C   0  0  0  0  0  0  0  0  0  0  0  0
   56.1660   29.9330   44.0430 N   0  0  0  0  0  0  0  0  0  0  0  0
   56.1370   29.6630   42.8240 O   0  0  0  0  0  0  0  0  0  0  0  0
   55.2460   29.3380   44.8750 O   0  0  0  0  0  0  0  0  0  0  0  0
   58.1940   30.3850   45.3840 C   0  0  0  0  0  0  0  0  0  0  0  0
   59.1650   31.2720   45.8970 C   0  0  0  0  0  0  0  0  0  0  0  0
   60.2473   25.3066   47.3231 H   0  0  0  0  0  0  0  0  0  0  0  0
   59.4154   24.9679   45.7675 H   0  0  0  0  0  0  0  0  0  0  0  0
   61.0694   25.6686   45.7675 H   0  0  0  0  0  0  0  0  0  0  0  0
   57.4393   27.0914   45.9927 H   0  0  0  0  0  0  0  0  0  0  0  0
   58.4284   27.9503   44.7635 H   0  0  0  0  0  0  0  0  0  0  0  0
   58.3559   26.1555   44.7635 H   0  0  0  0  0  0  0  0  0  0  0  0
   58.0522   27.4286   47.7533 H   0  0  0  0  0  0  0  0  0  0  0  0
   59.5585   26.6436   48.3745 H   0  0  0  0  0  0  0  0  0  0  0  0
   58.9041   29.4166   48.3841 H   0  0  0  0  0  0  0  0  0  0  0  0
   60.4652   28.6280   48.8474 H   0  0  0  0  0  0  0  0  0  0  0  0
   60.8810   28.8040   46.1860 H   0  0  0  0  0  0  0  0  0  0  0  0
   62.4453   30.1454   48.0498 H   0  0  0  0  0  0  0  0  0  0  0  0
   64.2314   31.7177   48.7685 H   0  0  0  0  0  0  0  0  0  0  0  0
   64.0707   34.1348   48.1975 H   0  0  0  0  0  0  0  0  0  0  0  0
   62.0878   35.0057   46.9798 H   0  0  0  0  0  0  0  0  0  0  0  0
   59.5979   35.3786   47.2260 H   0  0  0  0  0  0  0  0  0  0  0  0
   60.4848   35.5226   45.6706 H   0  0  0  0  0  0  0  0  0  0  0  0
   58.7205   35.1850   45.6706 H   0  0  0  0  0  0  0  0  0  0  0  0
   57.9444   34.1695   44.5277 H   0  0  0  0  0  0  0  0  0  0  0  0
   56.2794   32.5813   43.6091 H   0  0  0  0  0  0  0  0  0  0  0  0
   58.2592   29.3137   45.6248 H   0  0  0  0  0  0  0  0  0  0  0  0
  1  2  1  0
  2  3  1  0
  2  4  1  0
  4  5  1  0
  5  6  1  0
  6  7  1  0
  7  8  2  0
  8  9  1  0
  9 10  2  0
 10 11  1  0
 11 12  2  0
 12 13  1  0
 13 14  2  0
 14 15  1  0
 14 16  1  0
 16 17  2  0
 17 18  1  0
 18 19  2  0
 19 20  1  0
 20 21  2  0
 20 22  1  0
 19 23  1  0
 23 24  2  0
 24  7  1  0
 13  8  1  0
 24 16  1  0
  1 25  1  0
  1 26  1  0
  1 27  1  0
  3 28  1  0
  3 29  1  0
  3 30  1  0
  4 31  1  0
  4 32  1  0
  5 33  1  0
  5 34  1  0
  6 35  1  0
  9 36  1  0
 10 37  1  0
 11 38  1  0
 12 39  1  0
 15 40  1  0
 15 41  1  0
 15 42  1  0
 17 43  1  0
 18 44  1  0
 23 45  1  0
M  CHG  3  14   1  20   1  22  -1
M  END
>  <UniqueID>  (12) 
12

>  <SMILES>  (12) 
CN(C)CCNc1c2ccccc2[n+](C)c2ccc([N+](=O)[O-])cc12

>  <Energy>  (12) 
72.82370801290874

>  <Genealogy>  (12) 
CN(C)CCNc1c2ccccc2[n+](C)c2ccc([N+](=O)[O-])cc12 (3D coordinates assigned)
CN(C)CCNc1c2ccccc2[n+](C)c2ccc([N+](=O)[O-])cc12 (optimized conformer: 72.82370801290874 kcal/mol)

>  <smiles>  (12) 
CN(C)CCNc1c2ccccc2[n+](C)c2ccc([N+](=O)[O-])cc12

>  <score_type>  (12) 
oracle

>  <origin>  (12) 
adg

>  <m_score__min__energy>  (12) 
-6.4000000000000004

>  <m_primary>  (12) 
energy

$$$$
12:0
     RDKit          3D

 48 50  0  0  0  0  0  0  0  0999 V2000
   55.8990   25.9950   45.9980 C   0  0  0  0  0  0  0  0  0  0  0  0
   55.8260   27.3650   45.6260 O   0  0  0  0  0  0  0  0  0  0  0  0
   56.9480   28.1010   45.2380 C   0  0  0  0  0  0  0  0  0  0  0  0
   57.9520   27.4890   44.4880 C   0  0  0  0  0  0  0  0  0  0  0  0
   59.0450   28.2080   44.1190 N   0  0  0  0  0  0  0  0  0  0  0  0
   59.1780   29.5160   44.4670 C   0  0  0  0  0  0  0  0  0  0  0  0
   58.1660   30.1450   45.2140 C   0  0  0  0  0  0  0  0  0  0  0  0
   58.2600   31.5310   45.6050 N   0  0  0  0  0  0  0  0  0  0  0  0
   58.3750   32.5930   44.5980 C   0  0  0  0  0  0  0  0  0  0  0  0
   57.7270   33.8950   45.0950 C   0  0  0  0  0  0  0  0  0  0  0  0
   58.1400   34.2630   46.4670 N   0  0  0  0  0  0  0  0  0  0  0  0
   59.5290   34.7670   46.5460 C   0  0  0  0  0  0  0  0  0  0  0  0
   60.1770   34.3570   47.8420 C   0  0  0  0  0  0  0  0  0  0  0  0
   59.6470   34.6980   49.0380 N   0  0  0  0  0  0  0  0  0  0  0  0
   60.4510   34.1140   49.9440 C   0  0  0  0  0  0  0  0  0  0  0  0
   61.4410   33.4170   49.2950 C   0  0  0  0  0  0  0  0  0  0  0  0
   61.2660   33.5530   47.9680 N   0  0  0  0  0  0  0  0  0  0  0  0
   62.1370   32.9330   46.9530 C   0  0  0  0  0  0  0  0  0  0  0  0
   62.6770   31.5830   47.4330 C   0  0  0  0  0  0  0  0  0  0  0  0
   63.2520   33.8790   46.4920 C   0  0  0  0  0  0  0  0  0  0  0  0
   57.8830   33.1610   47.4140 C   0  0  0  0  0  0  0  0  0  0  0  0
   58.5810   31.8620   46.9980 C   0  0  0  0  0  0  0  0  0  0  0  0
   57.0800   29.4110   45.5820 N   0  0  0  0  0  0  0  0  0  0  0  0
   55.9034   25.9126   47.0949 H   0  0  0  0  0  0  0  0  0  0  0  0
   55.0282   25.4583   45.5935 H   0  0  0  0  0  0  0  0  0  0  0  0
   56.8219   25.5539   45.5935 H   0  0  0  0  0  0  0  0  0  0  0  0
   57.8601   26.4321   44.1972 H   0  0  0  0  0  0  0  0  0  0  0  0
   59.7990   27.7460   43.5630 H   0  0  0  0  0  0  0  0  0  0  0  0
   60.0733   30.0795   44.1655 H   0  0  0  0  0  0  0  0  0  0  0  0
   59.4392   32.7775   44.3895 H   0  0  0  0  0  0  0  0  0  0  0  0
   57.8544   32.2684   43.6850 H   0  0  0  0  0  0  0  0  0  0  0  0
   58.0119   34.7100   44.4134 H   0  0  0  0  0  0  0  0  0  0  0  0
   56.6391   33.7335   45.1127 H   0  0  0  0  0  0  0  0  0  0  0  0
   60.1096   34.3555   45.7072 H   0  0  0  0  0  0  0  0  0  0  0  0
   59.5074   35.8657   46.4963 H   0  0  0  0  0  0  0  0  0  0  0  0
   60.3341   34.1836   51.0356 H   0  0  0  0  0  0  0  0  0  0  0  0
   62.2440   32.8427   49.7801 H   0  0  0  0  0  0  0  0  0  0  0  0
   61.5180   32.7357   46.0654 H   0  0  0  0  0  0  0  0  0  0  0  0
   62.6856   31.5616   48.5328 H   0  0  0  0  0  0  0  0  0  0  0  0
   62.0328   30.7752   47.0555 H   0  0  0  0  0  0  0  0  0  0  0  0
   63.7006   31.4423   47.0555 H   0  0  0  0  0  0  0  0  0  0  0  0
   63.7564   34.3070   47.3709 H   0  0  0  0  0  0  0  0  0  0  0  0
   63.9808   33.3195   45.8872 H   0  0  0  0  0  0  0  0  0  0  0  0
   62.8187   34.6892   45.8872 H   0  0  0  0  0  0  0  0  0  0  0  0
   58.2490   33.4565   48.4083 H   0  0  0  0  0  0  0  0  0  0  0  0
   56.7994   32.9722   47.4245 H   0  0  0  0  0  0  0  0  0  0  0  0
   59.6692   31.9871   47.0991 H   0  0  0  0  0  0  0  0  0  0  0  0
   58.2318   31.0460   47.6477 H   0  0  0  0  0  0  0  0  0  0  0  0
  1  2  1  0
  2  3  1  0
  3  4  2  0
  4  5  1  0
  5  6  2  0
  6  7  1  0
  7  8  1  0
  8  9  1  0
  9 10  1  0
 10 11  1  0
 11 12  1  0
 12 13  1  0
 13 14  2  0
 14 15  1  0
 15 16  2  0
 16 17  1  0
 17 18  1  0
 18 19  1  0
 18 20  1  0
 11 21  1  0
 21 22  1  0
  7 23  2  0
 23  3  1  0
 22  8  1  0
 17 13  1  0
  1 24  1  0
  1 25  1  0
  1 26  1  0
  4 27  1  0
  5 28  1  0
  6 29  1  0
  9 30  1  0
  9 31  1  0
 10 32  1  0
 10 33  1  0
 12 34  1  0
 12 35  1  0
 15 36  1  0
 16 37  1  0
 18 38  1  0
 19 39  1  0
 19 40  1  0
 19 41  1  0
 20 42  1  0
 20 43  1  0
 20 44  1  0
 21 45  1  0
 21 46  1  0
 22 47  1  0
 22 48  1  0
M  CHG  1   5   1
M  END
>  <UniqueID>  (13) 
13

>  <SMILES>  (13) 
COc1c[nH+]cc(N2CCN(Cc3nccn3C(C)C)CC2)n1

>  <Energy>  (13) 
80.83661572715737

>  <Genealogy>  (13) 
COc1c[nH+]cc(N2CCN(Cc3nccn3C(C)C)CC2)n1 (protonated)
COc1c[nH+]cc(N2CCN(Cc3nccn3C(C)C)CC2)n1 (3D coordinates assigned)
COc1c[nH+]cc(N2CCN(Cc3nccn3C(C)C)CC2)n1 (nonaromatic ring conformer: 80.83661572715737 kcal/mol)

>  <smiles>  (13) 
COc1cncc(N2CCN(Cc3nccn3C(C)C)CC2)n1

>  <score_type>  (13) 
oracle

>  <origin>  (13) 
adg

>  <m_score__min__energy>  (13) 
-5.6399999999999997

>  <m_primary>  (13) 
energy

$$$$
13:0
     RDKit          3D

 43 45  0  0  0  0  0  0  0  0999 V2000
   56.8400   24.1700   44.0390 C   0  0  0  0  0  0  0  0  0  0  0  0
   57.4050   25.3400   43.2260 C   0  0  0  0  0  0  0  0  0  0  0  0
   57.6190   26.5520   44.0540 N   0  0  0  0  0  0  0  0  0  0  0  0
   58.6700   27.4330   43.4680 C   0  0  0  0  0  0  0  0  0  0  0  0
   59.3750   28.3310   44.5060 C   0  0  0  0  0  0  0  0  0  0  0  0
   58.5130   28.5560   45.6740 N   0  0  0  0  0  0  0  0  0  0  0  0
   58.3570   29.8660   46.2500 C   0  0  0  0  0  0  0  0  0  0  0  0
   58.1490   29.9810   47.4900 O   0  0  0  0  0  0  0  0  0  0  0  0
   58.3470   31.0800   45.4010 C   0  0  0  0  0  0  0  0  0  0  0  0
   57.9250   30.9500   44.0690 C   0  0  0  0  0  0  0  0  0  0  0  0
   57.8610   32.0730   43.2400 C   0  0  0  0  0  0  0  0  0  0  0  0
   57.3920   31.9410   41.8260 C   0  0  0  0  0  0  0  0  0  0  0  0
   58.1930   33.2960   43.7300 N   0  0  0  0  0  0  0  0  0  0  0  0
   58.6120   33.4710   45.0100 C   0  0  0  0  0  0  0  0  0  0  0  0
   58.9580   34.7520   45.4530 C   0  0  0  0  0  0  0  0  0  0  0  0
   59.4170   34.9440   46.7570 C   0  0  0  0  0  0  0  0  0  0  0  0
   59.5420   33.8570   47.6230 C   0  0  0  0  0  0  0  0  0  0  0  0
   59.1980   32.5710   47.1950 C   0  0  0  0  0  0  0  0  0  0  0  0
   58.7110   32.3600   45.8860 C   0  0  0  0  0  0  0  0  0  0  0  0
   57.9380   27.3930   46.3570 C   0  0  0  0  0  0  0  0  0  0  0  0
   57.9510   26.1600   45.4410 C   0  0  0  0  0  0  0  0  0  0  0  0
   56.9441   24.3855   45.1127 H   0  0  0  0  0  0  0  0  0  0  0  0
   55.7764   24.0330   43.7939 H   0  0  0  0  0  0  0  0  0  0  0  0
   57.3940   23.2518   43.7939 H   0  0  0  0  0  0  0  0  0  0  0  0
   58.3679   25.0351   42.7903 H   0  0  0  0  0  0  0  0  0  0  0  0
   56.6716   25.5917   42.4458 H   0  0  0  0  0  0  0  0  0  0  0  0
   56.7160   27.0850   44.0800 H   0  0  0  0  0  0  0  0  0  0  0  0
   59.4278   26.7971   42.9870 H   0  0  0  0  0  0  0  0  0  0  0  0
   58.1679   28.1010   42.7527 H   0  0  0  0  0  0  0  0  0  0  0  0
   60.3047   27.8424   44.8330 H   0  0  0  0  0  0  0  0  0  0  0  0
   59.5958   29.3022   44.0391 H   0  0  0  0  0  0  0  0  0  0  0  0
   57.6439   29.9616   43.6765 H   0  0  0  0  0  0  0  0  0  0  0  0
   56.3332   31.6430   41.8172 H   0  0  0  0  0  0  0  0  0  0  0  0
   57.5056   32.9060   41.3104 H   0  0  0  0  0  0  0  0  0  0  0  0
   57.9923   31.1769   41.3104 H   0  0  0  0  0  0  0  0  0  0  0  0
   58.8680   35.6107   44.7714 H   0  0  0  0  0  0  0  0  0  0  0  0
   59.6808   35.9544   47.1028 H   0  0  0  0  0  0  0  0  0  0  0  0
   59.9128   34.0124   48.6469 H   0  0  0  0  0  0  0  0  0  0  0  0
   59.3073   31.7187   47.8817 H   0  0  0  0  0  0  0  0  0  0  0  0
   58.5277   27.1774   47.2602 H   0  0  0  0  0  0  0  0  0  0  0  0
   56.8960   27.6216   46.6252 H   0  0  0  0  0  0  0  0  0  0  0  0
   58.9516   25.7034   45.4602 H   0  0  0  0  0  0  0  0  0  0  0  0
   57.2025   25.4381   45.7994 H   0  0  0  0  0  0  0  0  0  0  0  0
  1  2  1  0
  2  3  1  0
  3  4  1  0
  4  5  1  0
  5  6  1  0
  6  7  1  0
  7  8  2  0
  7  9  1  0
  9 10  2  0
 10 11  1  0
 11 12  1  0
 11 13  2  0
 13 14  1  0
 14 15  2  0
 15 16  1  0
 16 17  2  0
 17 18  1  0
 18 19  2  0
  6 20  1  0
 20 21  1  0
 21  3  1  0
 19  9  1  0
 19 14  1  0
  1 22  1  0
  1 23  1  0
  1 24  1  0
  2 25  1  0
  2 26  1  0
  3 27  1  0
  4 28  1  0
  4 29  1  0
  5 30  1  0
  5 31  1  0
 10 32  1  0
 12 33  1  0
 12 34  1  0
 12 35  1  0
 15 36  1  0
 16 37  1  0
 17 38  1  0
 18 39  1  0
 20 40  1  0
 20 41  1  0
 21 42  1  0
 21 43  1  0
M  CHG  1   3   1
M  END
>  <UniqueID>  (14) 
14

>  <SMILES>  (14) 
CC[NH+]1CCN(C(=O)c2cc(C)nc3ccccc23)CC1

>  <Energy>  (14) 
58.76308031491219

>  <Genealogy>  (14) 
CC[NH+]1CCN(C(=O)c2cc(C)nc3ccccc23)CC1 (protonated)
CC[NH+]1CCN(C(=O)c2cc(C)nc3ccccc23)CC1 (3D coordinates assigned)
CC[NH+]1CCN(C(=O)c2cc(C)nc3ccccc23)CC1 (nonaromatic ring conformer: 58.76308031491219 kcal/mol)

>  <smiles>  (14) 
CCN1CCN(C(=O)c2cc(C)nc3ccccc23)CC1

>  <score_type>  (14) 
oracle

>  <origin>  (14) 
adg

>  <m_score__min__energy>  (14) 
-5.96

>  <m_primary>  (14) 
energy

$$$$
14:0
     RDKit          3D

 57 62  0  0  0  0  0  0  0  0999 V2000
   56.7430   29.3420   44.5590 C   0  0  0  0  0  0  0  0  0  0  0  0
   58.2530   29.1250   44.5880 C   0  0  0  0  0  0  0  0  0  0  0  0
   58.5740   27.9640   45.4630 N   0  0  0  0  0  0  0  0  0  0  0  0
   60.0350   27.7980   45.6510 C   0  0  0  0  0  0  0  0  0  0  0  0
   60.8140   28.9710   45.0510 C   0  0  0  0  0  0  0  0  0  0  0  0
   57.8980   28.0720   46.7770 C   0  0  0  0  0  0  0  0  0  0  0  0
   58.9170   27.9460   47.9220 C   0  0  0  0  0  0  0  0  0  0  0  0
   58.9270   29.1640   48.7300 N   0  0  0  0  0  0  0  0  0  0  0  0
   59.7930   30.2740   48.4350 C   0  0  0  0  0  0  0  0  0  0  0  0
   61.0040   30.4830   49.1350 C   0  0  0  0  0  0  0  0  0  0  0  0
   61.4250   29.5970   50.1440 C   0  0  0  0  0  0  0  0  0  0  0  0
   62.6300   29.8020   50.8190 C   0  0  0  0  0  0  0  0  0  0  0  0
   63.4590   30.8770   50.4830 C   0  0  0  0  0  0  0  0  0  0  0  0
   64.6810   31.0720   51.1460 C   0  0  0  0  0  0  0  0  0  0  0  0
   65.5170   32.1310   50.7780 C   0  0  0  0  0  0  0  0  0  0  0  0
   65.1460   32.9990   49.7480 C   0  0  0  0  0  0  0  0  0  0  0  0
   63.9240   32.8190   49.0830 C   0  0  0  0  0  0  0  0  0  0  0  0
   63.5560   33.6510   48.0260 C   0  0  0  0  0  0  0  0  0  0  0  0
   62.3380   33.4520   47.3750 C   0  0  0  0  0  0  0  0  0  0  0  0
   61.4590   32.4840   47.7870 N   0  0  0  0  0  0  0  0  0  0  0  0
   60.2290   32.3100   47.1970 C   0  0  0  0  0  0  0  0  0  0  0  0
   59.4340   31.2160   47.4780 C   0  0  0  0  0  0  0  0  0  0  0  0
   58.3210   31.2410   46.7780 O   0  0  0  0  0  0  0  0  0  0  0  0
   58.3390   32.3410   46.0630 C   0  0  0  0  0  0  0  0  0  0  0  0
   57.3360   32.7820   45.2030 C   0  0  0  0  0  0  0  0  0  0  0  0
   57.4910   34.0370   44.5920 C   0  0  0  0  0  0  0  0  0  0  0  0
   58.6220   34.8290   44.8720 C   0  0  0  0  0  0  0  0  0  0  0  0
   59.6250   34.3650   45.7420 C   0  0  0  0  0  0  0  0  0  0  0  0
   59.4880   33.0790   46.2930 C   0  0  0  0  0  0  0  0  0  0  0  0
   61.8340   31.5950   48.7850 C   0  0  0  0  0  0  0  0  0  0  0  0
   63.0690   31.7650   49.4560 C   0  0  0  0  0  0  0  0  0  0  0  0
   56.3606   29.3970   45.5889 H   0  0  0  0  0  0  0  0  0  0  0  0
   56.5176   30.2818   44.0336 H   0  0  0  0  0  0  0  0  0  0  0  0
   56.2621   28.5037   44.0336 H   0  0  0  0  0  0  0  0  0  0  0  0
   58.6138   28.9256   43.5682 H   0  0  0  0  0  0  0  0  0  0  0  0
   58.7441   30.0267   44.9827 H   0  0  0  0  0  0  0  0  0  0  0  0
   60.2524   27.7378   46.7276 H   0  0  0  0  0  0  0  0  0  0  0  0
   60.3470   26.8770   45.1367 H   0  0  0  0  0  0  0  0  0  0  0  0
   61.2255   29.5907   45.8614 H   0  0  0  0  0  0  0  0  0  0  0  0
   61.6363   28.5858   44.4302 H   0  0  0  0  0  0  0  0  0  0  0  0
   60.1400   29.5795   44.4302 H   0  0  0  0  0  0  0  0  0  0  0  0
   57.3956   29.0482   46.8459 H   0  0  0  0  0  0  0  0  0  0  0  0
   57.1628   27.2586   46.8655 H   0  0  0  0  0  0  0  0  0  0  0  0
   58.6439   27.0911   48.5580 H   0  0  0  0  0  0  0  0  0  0  0  0
   59.9186   27.7931   47.4937 H   0  0  0  0  0  0  0  0  0  0  0  0
   58.3350   29.1940   49.5900 H   0  0  0  0  0  0  0  0  0  0  0  0
   60.7970   28.7322   50.4042 H   0  0  0  0  0  0  0  0  0  0  0  0
   62.9297   29.1122   51.6217 H   0  0  0  0  0  0  0  0  0  0  0  0
   64.9813   30.3910   51.9560 H   0  0  0  0  0  0  0  0  0  0  0  0
   66.4721   32.2814   51.3025 H   0  0  0  0  0  0  0  0  0  0  0  0
   65.8128   33.8244   49.4582 H   0  0  0  0  0  0  0  0  0  0  0  0
   64.2252   34.4632   47.7059 H   0  0  0  0  0  0  0  0  0  0  0  0
   62.0778   34.0847   46.5136 H   0  0  0  0  0  0  0  0  0  0  0  0
   56.4470   32.1643   45.0078 H   0  0  0  0  0  0  0  0  0  0  0  0
   56.7259   34.4032   43.8917 H   0  0  0  0  0  0  0  0  0  0  0  0
   58.7216   35.8202   44.4055 H   0  0  0  0  0  0  0  0  0  0  0  0
   60.4949   34.9927   45.9852 H   0  0  0  0  0  0  0  0  0  0  0  0
  1  2  1  0
  2  3  1  0
  3  4  1  0
  4  5  1  0
  3  6  1  0
  6  7  1  0
  7  8  1  0
  8  9  1  0
  9 10  2  0
 10 11  1  0
 11 12  2  0
 12 13  1  0
 13 14  1  0
 14 15  2  0
 15 16  1  0
 16 17  2  0
 17 18  1  0
 18 19  2  0
 19 20  1  0
 20 21  1  0
 21 22  2  0
 22 23  1  0
 23 24  1  0
 24 25  2  0
 25 26  1  0
 26 27  2  0
 27 28  1  0
 28 29  2  0
 20 30  2  0
 30 31  1  0
 22  9  1  0
 29 24  1  0
 30 10  1  0
 31 13  2  0
 31 17  1  0
 29 21  1  0
  1 32  1  0
  1 33  1  0
  1 34  1  0
  2 35  1  0
  2 36  1  0
  4 37  1  0
  4 38  1  0
  5 39  1  0
  5 40  1  0
  5 41  1  0
  6 42  1  0
  6 43  1  0
  7 44  1  0
  7 45  1  0
  8 46  1  0
 11 47  1  0
 12 48  1  0
 14 49  1  0
 15 50  1  0
 16 51  1  0
 18 52  1  0
 19 53  1  0
 25 54  1  0
 26 55  1  0
 27 56  1  0
 28 57  1  0
M  CHG  1  20   1
M  END
>  <UniqueID>  (15) 
15

>  <SMILES>  (15) 
CCN(CC)CCNc1c2ccc3cccc4cc[n+](c5c1oc1ccccc15)c2c34

>  <Energy>  (15) 
129.08056720222964

>  <Genealogy>  (15) 
CCN(CC)CCNc1c2ccc3cccc4cc[n+](c5c1oc1ccccc15)c2c34 (3D coordinates assigned)
CCN(CC)CCNc1c2ccc3cccc4cc[n+](c5c1oc1ccccc15)c2c34 (optimized conformer: 129.08056720222964 kcal/mol)

>  <smiles>  (15) 
CCN(CC)CCNc1c2ccc3cccc4cc[n+](c5c1oc1ccccc15)c2c34

>  <score_type>  (15) 
oracle

>  <origin>  (15) 
adg

>  <m_score__min__energy>  (15) 
-7.0499999999999998

>  <m_primary>  (15) 
energy

$$$$
15:0
     RDKit          3D

 62 62  0  0  0  0  0  0  0  0999 V2000
   60.2800   29.7260   45.9900 C   0  0  0  0  0  0  0  0  0  0  0  0
   59.6330   30.5640   47.0900 C   0  0  0  0  0  0  0  0  0  0  0  0
   60.6050   31.5000   47.6750 N   0  0  0  0  0  0  0  0  0  0  0  0
   61.9660   31.3840   47.1200 C   0  0  0  0  0  0  0  0  0  0  0  0
   63.0020   32.3520   47.7350 C   0  0  0  0  0  0  0  0  0  0  0  0
   63.2050   32.1800   49.2500 C   0  0  0  0  0  0  0  0  0  0  0  0
   62.2960   31.1560   49.7890 N   0  0  0  0  0  0  0  0  0  0  0  0
   62.6490   30.7410   51.1590 C   0  0  0  0  0  0  0  0  0  0  0  0
   62.3970   29.2420   51.3940 C   0  0  0  0  0  0  0  0  0  0  0  0
   60.9000   28.9570   51.5670 C   0  0  0  0  0  0  0  0  0  0  0  0
   60.1640   29.0320   50.2180 C   0  0  0  0  0  0  0  0  0  0  0  0
   59.4550   30.3110   50.0430 N   0  0  0  0  0  0  0  0  0  0  0  0
   58.6430   30.6780   51.2150 C   0  0  0  0  0  0  0  0  0  0  0  0
   58.4800   32.2000   51.3120 C   0  0  0  0  0  0  0  0  0  0  0  0
   59.8320   32.9160   51.4290 C   0  0  0  0  0  0  0  0  0  0  0  0
   60.3910   33.1730   50.0940 N   0  0  0  0  0  0  0  0  0  0  0  0
   59.6440   34.2300   49.3930 C   0  0  0  0  0  0  0  0  0  0  0  0
   60.2830   34.5320   48.0340 C   0  0  0  0  0  0  0  0  0  0  0  0
   59.3560   34.2030   46.8930 C   0  0  0  0  0  0  0  0  0  0  0  0
   59.7250   34.5100   45.5720 C   0  0  0  0  0  0  0  0  0  0  0  0
   58.8560   34.2280   44.5130 C   0  0  0  0  0  0  0  0  0  0  0  0
   57.6100   33.6440   44.7670 C   0  0  0  0  0  0  0  0  0  0  0  0
   57.2320   33.3440   46.0780 C   0  0  0  0  0  0  0  0  0  0  0  0
   58.1000   33.6230   47.1390 C   0  0  0  0  0  0  0  0  0  0  0  0
   60.8920   28.9333   46.4450 H   0  0  0  0  0  0  0  0  0  0  0  0
   59.4962   29.2716   45.3662 H   0  0  0  0  0  0  0  0  0  0  0  0
   60.9180   30.3693   45.3662 H   0  0  0  0  0  0  0  0  0  0  0  0
   58.7952   31.1346   46.6628 H   0  0  0  0  0  0  0  0  0  0  0  0
   59.2736   29.8895   47.8811 H   0  0  0  0  0  0  0  0  0  0  0  0
   60.6260   31.3880   48.7140 H   0  0  0  0  0  0  0  0  0  0  0  0
   62.3173   30.3552   47.2878 H   0  0  0  0  0  0  0  0  0  0  0  0
   61.8894   31.6485   46.0550 H   0  0  0  0  0  0  0  0  0  0  0  0
   63.9682   32.1852   47.2365 H   0  0  0  0  0  0  0  0  0  0  0  0
   62.6131   33.3695   47.5820 H   0  0  0  0  0  0  0  0  0  0  0  0
   64.2445   31.8756   49.4417 H   0  0  0  0  0  0  0  0  0  0  0  0
   62.9876   33.1382   49.7446 H   0  0  0  0  0  0  0  0  0  0  0  0
   61.3150   31.5220   49.7720 H   0  0  0  0  0  0  0  0  0  0  0  0
   63.7149   30.9523   51.3298 H   0  0  0  0  0  0  0  0  0  0  0  0
   62.0128   31.3044   51.8575 H   0  0  0  0  0  0  0  0  0  0  0  0
   62.7739   28.6742   50.5306 H   0  0  0  0  0  0  0  0  0  0  0  0
   62.9201   28.9384   52.3128 H   0  0  0  0  0  0  0  0  0  0  0  0
   60.7723   27.9499   51.9907 H   0  0  0  0  0  0  0  0  0  0  0  0
   60.4747   29.7157   52.2404 H   0  0  0  0  0  0  0  0  0  0  0  0
   60.8984   28.9199   49.4068 H   0  0  0  0  0  0  0  0  0  0  0  0
   59.4168   28.2251   50.1950 H   0  0  0  0  0  0  0  0  0  0  0  0
   60.1440   31.0750   49.8490 H   0  0  0  0  0  0  0  0  0  0  0  0
   57.6496   30.2143   51.1246 H   0  0  0  0  0  0  0  0  0  0  0  0
   59.1524   30.3202   52.1219 H   0  0  0  0  0  0  0  0  0  0  0  0
   57.9641   32.5602   50.4097 H   0  0  0  0  0  0  0  0  0  0  0  0
   57.8978   32.4225   52.2184 H   0  0  0  0  0  0  0  0  0  0  0  0
   59.6917   33.8725   51.9538 H   0  0  0  0  0  0  0  0  0  0  0  0
   60.5281   32.2760   51.9910 H   0  0  0  0  0  0  0  0  0  0  0  0
   60.2870   32.2920   49.5360 H   0  0  0  0  0  0  0  0  0  0  0  0
   58.6067   33.8979   49.2388 H   0  0  0  0  0  0  0  0  0  0  0  0
   59.6644   35.1438   50.0051 H   0  0  0  0  0  0  0  0  0  0  0  0
   60.5362   35.6015   47.9897 H   0  0  0  0  0  0  0  0  0  0  0  0
   61.1829   33.9075   47.9336 H   0  0  0  0  0  0  0  0  0  0  0  0
   60.7016   34.9741   45.3701 H   0  0  0  0  0  0  0  0  0  0  0  0
   59.1520   34.4653   43.4805 H   0  0  0  0  0  0  0  0  0  0  0  0
   56.9275   33.4209   43.9336 H   0  0  0  0  0  0  0  0  0  0  0  0
   56.2508   32.8879   46.2762 H   0  0  0  0  0  0  0  0  0  0  0  0
   57.7980   33.3874   48.1702 H   0  0  0  0  0  0  0  0  0  0  0  0
  1  2  1  0
  2  3  1  0
  3  4  1  0
  4  5  1  0
  5  6  1  0
  6  7  1  0
  7  8  1  0
  8  9  1  0
  9 10  1  0
 10 11  1  0
 11 12  1  0
 12 13  1  0
 13 14  1  0
 14 15  1  0
 15 16  1  0
 16 17  1  0
 17 18  1  0
 18 19  1  0
 19 20  2  0
 20 21  1  0
 21 22  2  0
 22 23  1  0
 23 24  2  0
 24 19  1  0
  1 25  1  0
  1 26  1  0
  1 27  1  0
  2 28  1  0
  2 29  1  0
  3 30  1  0
  4 31  1  0
  4 32  1  0
  5 33  1  0
  5 34  1  0
  6 35  1  0
  6 36  1  0
  7 37  1  0
  8 38  1  0
  8 39  1  0
  9 40  1  0
  9 41  1  0
 10 42  1  0
 10 43  1  0
 11 44  1  0
 11 45  1  0
 12 46  1  0
 13 47  1  0
 13 48  1  0
 14 49  1  0
 14 50  1  0
 15 51  1  0
 15 52  1  0
 16 53  1  0
 17 54  1  0
 17 55  1  0
 18 56  1  0
 18 57  1  0
 20 58  1  0
 21 59  1  0
 22 60  1  0
 23 61  1  0
 24 62  1  0
M  END
>  <UniqueID>  (16) 
16

>  <SMILES>  (16) 
CCNCCCNCCCCNCCCNCCc1ccccc1

>  <Energy>  (16) 
47.37861224706688

>  <Genealogy>  (16) 
CCNCCCNCCCCNCCCNCCc1ccccc1 (3D coordinates assigned)
CCNCCCNCCCCNCCCNCCc1ccccc1 (optimized conformer: 47.37861224706688 kcal/mol)

>  <smiles>  (16) 
CCNCCCNCCCCNCCCNCCc1ccccc1

>  <score_type>  (16) 
oracle

>  <origin>  (16) 
adg

>  <m_score__min__energy>  (16) 
-3.3599999999999999

>  <m_primary>  (16) 
energy

$$$$
16:0
     RDKit          3D

 40 43  0  0  0  0  0  0  0  0999 V2000
   57.0190   20.9550   42.9910 C   0  0  0  0  0  0  0  0  0  0  0  0
   55.9400   21.8620   43.1930 O   0  0  0  0  0  0  0  0  0  0  0  0
   56.0260   23.0420   43.9480 C   0  0  0  0  0  0  0  0  0  0  0  0
   56.9420   24.0700   43.6270 C   0  0  0  0  0  0  0  0  0  0  0  0
   56.9830   25.2140   44.4230 C   0  0  0  0  0  0  0  0  0  0  0  0
   56.1450   25.3610   45.4980 C   0  0  0  0  0  0  0  0  0  0  0  0
   55.2220   24.3730   45.8340 C   0  0  0  0  0  0  0  0  0  0  0  0
   55.1620   23.1950   45.0550 C   0  0  0  0  0  0  0  0  0  0  0  0
   54.2620   22.1580   45.3450 O   0  0  0  0  0  0  0  0  0  0  0  0
   53.5210   22.0500   46.5560 C   0  0  0  0  0  0  0  0  0  0  0  0
   56.3280   26.6700   46.1700 C   0  0  0  0  0  0  0  0  0  0  0  0
   57.6290   27.2270   45.5250 C   0  0  0  0  0  0  0  0  0  0  0  0
   57.8460   26.4020   44.2220 C   0  0  0  0  0  0  0  0  0  0  0  0
   58.8570   27.1300   46.4950 C   0  0  0  0  0  0  0  0  0  0  0  0
   59.3160   28.5440   46.6590 C   0  0  0  0  0  0  0  0  0  0  0  0
   60.3910   28.9820   47.4360 C   0  0  0  0  0  0  0  0  0  0  0  0
   60.6820   30.3530   47.4760 C   0  0  0  0  0  0  0  0  0  0  0  0
   59.9020   31.2650   46.7430 C   0  0  0  0  0  0  0  0  0  0  0  0
   58.8230   30.8120   45.9640 C   0  0  0  0  0  0  0  0  0  0  0  0
   57.7800   32.0780   44.9770 Br  0  0  0  0  0  0  0  0  0  0  0  0
   58.5540   29.4350   45.9430 C   0  0  0  0  0  0  0  0  0  0  0  0
   57.5220   28.7010   45.2390 C   0  0  0  0  0  0  0  0  0  0  0  0
   56.6530   29.2210   44.4910 O   0  0  0  0  0  0  0  0  0  0  0  0
   57.4095   20.6268   43.9656 H   0  0  0  0  0  0  0  0  0  0  0  0
   56.6626   20.0813   42.4257 H   0  0  0  0  0  0  0  0  0  0  0  0
   57.8185   21.4563   42.4257 H   0  0  0  0  0  0  0  0  0  0  0  0
   57.6130   23.9687   42.7613 H   0  0  0  0  0  0  0  0  0  0  0  0
   54.5491   24.5078   46.6937 H   0  0  0  0  0  0  0  0  0  0  0  0
   54.2030   22.1494   47.4133 H   0  0  0  0  0  0  0  0  0  0  0  0
   52.7642   22.8473   46.5951 H   0  0  0  0  0  0  0  0  0  0  0  0
   53.0233   21.0698   46.5951 H   0  0  0  0  0  0  0  0  0  0  0  0
   55.4749   27.3360   45.9736 H   0  0  0  0  0  0  0  0  0  0  0  0
   56.3934   26.5855   47.2648 H   0  0  0  0  0  0  0  0  0  0  0  0
   57.5301   26.9733   43.3367 H   0  0  0  0  0  0  0  0  0  0  0  0
   58.9007   26.1432   44.0470 H   0  0  0  0  0  0  0  0  0  0  0  0
   58.5552   26.7042   47.4633 H   0  0  0  0  0  0  0  0  0  0  0  0
   59.6494   26.4754   46.1031 H   0  0  0  0  0  0  0  0  0  0  0  0
   60.9985   28.2640   48.0064 H   0  0  0  0  0  0  0  0  0  0  0  0
   61.5240   30.7167   48.0833 H   0  0  0  0  0  0  0  0  0  0  0  0
   60.1375   32.3389   46.7794 H   0  0  0  0  0  0  0  0  0  0  0  0
  1  2  1  0
  2  3  1  0
  3  4  2  0
  4  5  1  0
  5  6  2  0
  6  7  1  0
  7  8  2  0
  8  9  1  0
  9 10  1  0
  6 11  1  0
 11 12  1  0
 12 13  1  0
 12 14  1  0
 14 15  1  0
 15 16  2  0
 16 17  1  0
 17 18  2  0
 18 19  1  0
 19 20  1  0
 19 21  2  0
 21 22  1  0
 22 23  2  0
  8  3  1  0
 22 12  1  0
 13  5  1  0
 21 15  1  0
  1 24  1  0
  1 25  1  0
  1 26  1  0
  4 27  1  0
  7 28  1  0
 10 29  1  0
 10 30  1  0
 10 31  1  0
 11 32  1  0
 11 33  1  0
 13 34  1  0
 13 35  1  0
 14 36  1  0
 14 37  1  0
 16 38  1  0
 17 39  1  0
 18 40  1  0
M  END
>  <UniqueID>  (17) 
17

>  <SMILES>  (17) 
COc1cc2c(cc1OC)CC1(C2)Cc2cccc(Br)c2C1=O

>  <Energy>  (17) 
69.41953643204708

>  <Genealogy>  (17) 
COc1cc2c(cc1OC)CC1(C2)Cc2cccc(Br)c2C1=O (3D coordinates assigned)
COc1cc2c(cc1OC)CC1(C2)Cc2cccc(Br)c2C1=O (nonaromatic ring conformer: 69.41953643204708 kcal/mol)

>  <smiles>  (17) 
COc1cc2c(cc1OC)CC1(C2)Cc2cccc(Br)c2C1=O

>  <score_type>  (17) 
oracle

>  <origin>  (17) 
adg

>  <m_score__min__energy>  (17) 
-7.7599999999999998

>  <m_primary>  (17) 
energy

$$$$
17:0
     RDKit          3D

 45 47  0  0  0  0  0  0  0  0999 V2000
   60.7380   30.0530   48.2250 C   0  0  0  0  0  0  0  0  0  0  0  0
   61.3080   31.0070   47.1780 C   0  0  0  0  0  0  0  0  0  0  0  0
   62.1060   32.0550   47.8520 N   0  0  0  0  0  0  0  0  0  0  0  0
   63.3600   32.3850   47.1380 C   0  0  0  0  0  0  0  0  0  0  0  0
   63.3800   33.8330   46.6460 C   0  0  0  0  0  0  0  0  0  0  0  0
   62.2040   31.8830   49.3250 C   0  0  0  0  0  0  0  0  0  0  0  0
   61.4110   32.9040   50.1770 C   0  0  0  0  0  0  0  0  0  0  0  0
   60.0040   32.5180   50.3490 N   0  0  0  0  0  0  0  0  0  0  0  0
   58.9410   32.7370   49.5180 C   0  0  0  0  0  0  0  0  0  0  0  0
   59.0220   33.3180   48.1660 C   0  0  0  0  0  0  0  0  0  0  0  0
   59.6300   34.5650   47.9640 C   0  0  0  0  0  0  0  0  0  0  0  0
   59.6840   35.1000   46.6760 C   0  0  0  0  0  0  0  0  0  0  0  0
   59.1260   34.3970   45.6060 C   0  0  0  0  0  0  0  0  0  0  0  0
   58.5150   33.1650   45.8460 C   0  0  0  0  0  0  0  0  0  0  0  0
   57.7370   32.1790   44.4110 Br  0  0  0  0  0  0  0  0  0  0  0  0
   58.4730   32.6610   47.1070 N   0  0  0  0  0  0  0  0  0  0  0  0
   57.7650   32.3390   50.0670 N   0  0  0  0  0  0  0  0  0  0  0  0
   58.1050   31.8410   51.2670 C   0  0  0  0  0  0  0  0  0  0  0  0
   57.2710   31.2870   52.2340 C   0  0  0  0  0  0  0  0  0  0  0  0
   57.8670   30.8250   53.4220 C   0  0  0  0  0  0  0  0  0  0  0  0
   59.2640   30.9280   53.6090 C   0  0  0  0  0  0  0  0  0  0  0  0
   60.0770   31.4940   52.6090 C   0  0  0  0  0  0  0  0  0  0  0  0
   59.4550   31.9430   51.4410 C   0  0  0  0  0  0  0  0  0  0  0  0
   60.9659   30.4344   49.2313 H   0  0  0  0  0  0  0  0  0  0  0  0
   59.6477   29.9793   48.0990 H   0  0  0  0  0  0  0  0  0  0  0  0
   61.1897   29.0580   48.0990 H   0  0  0  0  0  0  0  0  0  0  0  0
   61.9501   30.4472   46.4821 H   0  0  0  0  0  0  0  0  0  0  0  0
   60.4840   31.4746   46.6191 H   0  0  0  0  0  0  0  0  0  0  0  0
   64.2080   32.2313   47.8216 H   0  0  0  0  0  0  0  0  0  0  0  0
   63.4310   31.7282   46.2585 H   0  0  0  0  0  0  0  0  0  0  0  0
   63.3894   34.5137   47.5100 H   0  0  0  0  0  0  0  0  0  0  0  0
   64.2806   34.0009   46.0371 H   0  0  0  0  0  0  0  0  0  0  0  0
   62.4844   34.0258   46.0371 H   0  0  0  0  0  0  0  0  0  0  0  0
   61.8339   30.8772   49.5727 H   0  0  0  0  0  0  0  0  0  0  0  0
   63.2631   32.0442   49.5747 H   0  0  0  0  0  0  0  0  0  0  0  0
   61.8810   32.9768   51.1689 H   0  0  0  0  0  0  0  0  0  0  0  0
   61.4316   33.8688   49.6490 H   0  0  0  0  0  0  0  0  0  0  0  0
   60.0605   35.1167   48.8127 H   0  0  0  0  0  0  0  0  0  0  0  0
   60.1654   36.0740   46.5039 H   0  0  0  0  0  0  0  0  0  0  0  0
   59.1674   34.8089   44.5869 H   0  0  0  0  0  0  0  0  0  0  0  0
   56.8110   32.3830   49.6450 H   0  0  0  0  0  0  0  0  0  0  0  0
   56.1850   31.2130   52.0752 H   0  0  0  0  0  0  0  0  0  0  0  0
   57.2415   30.3808   54.2103 H   0  0  0  0  0  0  0  0  0  0  0  0
   59.7189   30.5636   54.5419 H   0  0  0  0  0  0  0  0  0  0  0  0
   61.1655   31.5800   52.7425 H   0  0  0  0  0  0  0  0  0  0  0  0
  1  2  1  0
  2  3  1  0
  3  4  1  0
  4  5  1  0
  3  6  1  0
  6  7  1  0
  7  8  1  0
  8  9  1  0
  9 10  1  0
 10 11  2  0
 11 12  1  0
 12 13  2  0
 13 14  1  0
 14 15  1  0
 14 16  2  0
  9 17  2  0
 17 18  1  0
 18 19  2  0
 19 20  1  0
 20 21  2  0
 21 22  1  0
 22 23  2  0
 23  8  1  0
 16 10  1  0
 23 18  1  0
  1 24  1  0
  1 25  1  0
  1 26  1  0
  2 27  1  0
  2 28  1  0
  4 29  1  0
  4 30  1  0
  5 31  1  0
  5 32  1  0
  5 33  1  0
  6 34  1  0
  6 35  1  0
  7 36  1  0
  7 37  1  0
 11 38  1  0
 12 39  1  0
 13 40  1  0
 17 41  1  0
 19 42  1  0
 20 43  1  0
 21 44  1  0
 22 45  1  0
M  CHG  1  17   1
M  END
>  <UniqueID>  (18) 
18

>  <SMILES>  (18) 
CCN(CC)CCn1c(-c2cccc(Br)n2)[nH+]c2ccccc21

>  <Energy>  (18) 
91.5605244922057

>  <Genealogy>  (18) 
CCN(CC)CCn1c(-c2cccc(Br)n2)[nH+]c2ccccc21 (protonated)
CCN(CC)CCn1c(-c2cccc(Br)n2)[nH+]c2ccccc21 (3D coordinates assigned)
CCN(CC)CCn1c(-c2cccc(Br)n2)[nH+]c2ccccc21 (optimized conformer: 91.5605244922057 kcal/mol)

>  <smiles>  (18) 
CCN(CC)CCn1c(-c2cccc(Br)n2)nc2ccccc21

>  <score_type>  (18) 
oracle

>  <origin>  (18) 
adg

>  <m_score__min__energy>  (18) 
-6.1100000000000003

>  <m_primary>  (18) 
energy

$$$$
18:0
     RDKit          3D

 53 55  0  0  0  0  0  0  0  0999 V2000
   64.8700   32.4650   49.7140 C   0  0  0  0  0  0  0  0  0  0  0  0
   63.5620   31.8020   49.2870 C   0  0  0  0  0  0  0  0  0  0  0  0
   62.6860   32.7810   48.6110 N   0  0  0  0  0  0  0  0  0  0  0  0
   63.4410   33.8560   47.9190 C   0  0  0  0  0  0  0  0  0  0  0  0
   63.3320   33.8220   46.3840 C   0  0  0  0  0  0  0  0  0  0  0  0
   61.6050   33.2940   49.4840 C   0  0  0  0  0  0  0  0  0  0  0  0
   60.8470   32.1240   50.1270 C   0  0  0  0  0  0  0  0  0  0  0  0
   59.8510   31.4510   49.1590 C   0  0  0  0  0  0  0  0  0  0  0  0
   60.4670   31.0170   47.8880 N   0  0  0  0  0  0  0  0  0  0  0  0
   59.5610   31.1480   46.7510 C   0  0  0  0  0  0  0  0  0  0  0  0
   59.3450   32.4260   46.1570 C   0  0  0  0  0  0  0  0  0  0  0  0
   59.9280   33.6070   46.6860 C   0  0  0  0  0  0  0  0  0  0  0  0
   59.6600   34.8550   46.1330 C   0  0  0  0  0  0  0  0  0  0  0  0
   58.8010   34.9670   45.0530 C   0  0  0  0  0  0  0  0  0  0  0  0
   58.2310   33.8280   44.4940 C   0  0  0  0  0  0  0  0  0  0  0  0
   58.5210   32.5350   45.0020 C   0  0  0  0  0  0  0  0  0  0  0  0
   58.0120   31.4050   44.4030 N   0  0  0  0  0  0  0  0  0  0  0  0
   57.4660   31.4820   43.0270 C   0  0  0  0  0  0  0  0  0  0  0  0
   58.0420   30.1950   45.0640 C   0  0  0  0  0  0  0  0  0  0  0  0
   57.2670   29.0980   44.6050 C   0  0  0  0  0  0  0  0  0  0  0  0
   57.3540   27.8500   45.2080 C   0  0  0  0  0  0  0  0  0  0  0  0
   58.2000   27.6600   46.2900 C   0  0  0  0  0  0  0  0  0  0  0  0
   58.3370   26.0700   47.0190 Cl  0  0  0  0  0  0  0  0  0  0  0  0
   58.9340   28.7290   46.8010 C   0  0  0  0  0  0  0  0  0  0  0  0
   58.8520   30.0260   46.2250 C   0  0  0  0  0  0  0  0  0  0  0  0
   64.9254   32.4931   50.8122 H   0  0  0  0  0  0  0  0  0  0  0  0
   65.7194   31.8886   49.3186 H   0  0  0  0  0  0  0  0  0  0  0  0
   64.9073   33.4908   49.3186 H   0  0  0  0  0  0  0  0  0  0  0  0
   63.7832   30.9754   48.5957 H   0  0  0  0  0  0  0  0  0  0  0  0
   63.0472   31.4194   50.1806 H   0  0  0  0  0  0  0  0  0  0  0  0
   63.0584   34.8258   48.2698 H   0  0  0  0  0  0  0  0  0  0  0  0
   64.5025   33.7008   48.1621 H   0  0  0  0  0  0  0  0  0  0  0  0
   62.3187   33.5059   46.0953 H   0  0  0  0  0  0  0  0  0  0  0  0
   63.5322   34.8253   45.9799 H   0  0  0  0  0  0  0  0  0  0  0  0
   64.0671   33.1105   45.9799 H   0  0  0  0  0  0  0  0  0  0  0  0
   62.0424   33.9223   50.2739 H   0  0  0  0  0  0  0  0  0  0  0  0
   60.9044   33.8880   48.8787 H   0  0  0  0  0  0  0  0  0  0  0  0
   61.5779   31.3716   50.4581 H   0  0  0  0  0  0  0  0  0  0  0  0
   60.2671   32.5288   50.9695 H   0  0  0  0  0  0  0  0  0  0  0  0
   59.4228   30.5689   49.6576 H   0  0  0  0  0  0  0  0  0  0  0  0
   59.0860   32.2007   48.9086 H   0  0  0  0  0  0  0  0  0  0  0  0
   61.3820   31.4930   47.7620 H   0  0  0  0  0  0  0  0  0  0  0  0
   60.7670   30.0210   47.9750 H   0  0  0  0  0  0  0  0  0  0  0  0
   60.6049   33.5340   47.5500 H   0  0  0  0  0  0  0  0  0  0  0  0
   60.1316   35.7549   46.5547 H   0  0  0  0  0  0  0  0  0  0  0  0
   58.5689   35.9582   44.6364 H   0  0  0  0  0  0  0  0  0  0  0  0
   57.5426   33.9314   43.6423 H   0  0  0  0  0  0  0  0  0  0  0  0
   56.3777   31.6355   43.0724 H   0  0  0  0  0  0  0  0  0  0  0  0
   57.9330   32.3232   42.4938 H   0  0  0  0  0  0  0  0  0  0  0  0
   57.6821   30.5445   42.4938 H   0  0  0  0  0  0  0  0  0  0  0  0
   56.5837   29.2392   43.7546 H   0  0  0  0  0  0  0  0  0  0  0  0
   56.7516   27.0121   44.8272 H   0  0  0  0  0  0  0  0  0  0  0  0
   59.5906   28.5656   47.6683 H   0  0  0  0  0  0  0  0  0  0  0  0
  1  2  1  0
  2  3  1  0
  3  4  1  0
  4  5  1  0
  3  6  1  0
  6  7  1  0
  7  8  1  0
  8  9  1  0
  9 10  1  0
 10 11  2  0
 11 12  1  0
 12 13  2  0
 13 14  1  0
 14 15  2  0
 15 16  1  0
 16 17  2  0
 17 18  1  0
 17 19  1  0
 19 20  2  0
 20 21  1  0
 21 22  2  0
 22 23  1  0
 22 24  1  0
 24 25  2  0
 25 10  1  0
 16 11  1  0
 25 19  1  0
  1 26  1  0
  1 27  1  0
  1 28  1  0
  2 29  1  0
  2 30  1  0
  4 31  1  0
  4 32  1  0
  5 33  1  0
  5 34  1  0
  5 35  1  0
  6 36  1  0
  6 37  1  0
  7 38  1  0
  7 39  1  0
  8 40  1  0
  8 41  1  0
  9 42  1  0
  9 43  1  0
 12 44  1  0
 13 45  1  0
 14 46  1  0
 15 47  1  0
 18 48  1  0
 18 49  1  0
 18 50  1  0
 20 51  1  0
 21 52  1  0
 24 53  1  0
M  CHG  2   9   1  17   1
M  END
>  <UniqueID>  (19) 
19

>  <SMILES>  (19) 
CCN(CC)CCC[NH2+]c1c2ccccc2[n+](C)c2ccc(Cl)cc12

>  <Energy>  (19) 
82.01428273512005

>  <Genealogy>  (19) 
CCN(CC)CCC[NH2+]c1c2ccccc2[n+](C)c2ccc(Cl)cc12 (protonated)
CCN(CC)CCC[NH2+]c1c2ccccc2[n+](C)c2ccc(Cl)cc12 (3D coordinates assigned)
CCN(CC)CCC[NH2+]c1c2ccccc2[n+](C)c2ccc(Cl)cc12 (optimized conformer: 82.01428273512005 kcal/mol)

>  <smiles>  (19) 
CCN(CC)CCCNc1c2ccccc2[n+](C)c2ccc(Cl)cc12

>  <score_type>  (19) 
oracle

>  <origin>  (19) 
adg

>  <m_score__min__energy>  (19) 
-4.3600000000000003

>  <m_primary>  (19) 
energy

$$$$
19:0
     RDKit          3D

 54 57  0  0  0  0  0  0  0  0999 V2000
   56.2220   29.5410   43.8570 C   0  0  0  0  0  0  0  0  0  0  0  0
   56.2680   29.0490   45.1900 O   0  0  0  0  0  0  0  0  0  0  0  0
   57.0140   27.9340   45.6090 C   0  0  0  0  0  0  0  0  0  0  0  0
   56.3850   26.7340   46.0010 C   0  0  0  0  0  0  0  0  0  0  0  0
   57.1430   25.6220   46.3740 C   0  0  0  0  0  0  0  0  0  0  0  0
   58.5340   25.6910   46.3600 C   0  0  0  0  0  0  0  0  0  0  0  0
   59.1750   26.8720   45.9810 C   0  0  0  0  0  0  0  0  0  0  0  0
   58.4300   28.0060   45.6130 C   0  0  0  0  0  0  0  0  0  0  0  0
   59.1460   29.2430   45.2160 C   0  0  0  0  0  0  0  0  0  0  0  0
   59.8030   29.2620   44.1390 O   0  0  0  0  0  0  0  0  0  0  0  0
   59.1270   30.4580   46.0550 C   0  0  0  0  0  0  0  0  0  0  0  0
   59.5940   30.6000   47.3670 C   0  0  0  0  0  0  0  0  0  0  0  0
   60.2970   29.5360   48.1620 C   0  0  0  0  0  0  0  0  0  0  0  0
   59.3100   31.8460   47.8340 N   0  0  0  0  0  0  0  0  0  0  0  0
   59.6270   32.3870   49.1600 C   0  0  0  0  0  0  0  0  0  0  0  0
   61.1460   32.4590   49.3620 C   0  0  0  0  0  0  0  0  0  0  0  0
   61.6800   33.7440   48.8570 N   0  0  0  0  0  0  0  0  0  0  0  0
   63.0250   34.0280   49.4010 C   0  0  0  0  0  0  0  0  0  0  0  0
   64.1060   33.1110   48.7760 C   0  0  0  0  0  0  0  0  0  0  0  0
   63.7070   32.5260   47.5480 O   0  0  0  0  0  0  0  0  0  0  0  0
   63.0370   33.4770   46.7500 C   0  0  0  0  0  0  0  0  0  0  0  0
   61.6740   33.8280   47.3740 C   0  0  0  0  0  0  0  0  0  0  0  0
   58.7100   32.5010   46.8150 C   0  0  0  0  0  0  0  0  0  0  0  0
   58.2350   33.8150   46.7970 C   0  0  0  0  0  0  0  0  0  0  0  0
   57.6160   34.2800   45.6240 C   0  0  0  0  0  0  0  0  0  0  0  0
   57.4770   33.4320   44.5030 C   0  0  0  0  0  0  0  0  0  0  0  0
   57.9620   32.1140   44.5450 C   0  0  0  0  0  0  0  0  0  0  0  0
   58.5860   31.6820   45.7170 C   0  0  0  0  0  0  0  0  0  0  0  0
   56.1196   30.6361   43.8737 H   0  0  0  0  0  0  0  0  0  0  0  0
   57.1496   29.2674   43.3330 H   0  0  0  0  0  0  0  0  0  0  0  0
   55.3612   29.1002   43.3330 H   0  0  0  0  0  0  0  0  0  0  0  0
   55.2867   26.6734   46.0130 H   0  0  0  0  0  0  0  0  0  0  0  0
   56.6415   24.6916   46.6788 H   0  0  0  0  0  0  0  0  0  0  0  0
   59.1295   24.8122   46.6485 H   0  0  0  0  0  0  0  0  0  0  0  0
   60.2741   26.9156   45.9702 H   0  0  0  0  0  0  0  0  0  0  0  0
   60.1661   29.7341   49.2361 H   0  0  0  0  0  0  0  0  0  0  0  0
   59.8704   28.5524   47.9159 H   0  0  0  0  0  0  0  0  0  0  0  0
   61.3691   29.5426   47.9159 H   0  0  0  0  0  0  0  0  0  0  0  0
   59.2016   33.3974   49.2498 H   0  0  0  0  0  0  0  0  0  0  0  0
   59.1973   31.7250   49.9263 H   0  0  0  0  0  0  0  0  0  0  0  0
   61.3723   32.3704   50.4348 H   0  0  0  0  0  0  0  0  0  0  0  0
   61.6167   31.6363   48.8038 H   0  0  0  0  0  0  0  0  0  0  0  0
   63.2810   35.0763   49.1874 H   0  0  0  0  0  0  0  0  0  0  0  0
   63.0018   33.8384   50.4843 H   0  0  0  0  0  0  0  0  0  0  0  0
   65.0114   33.7101   48.5989 H   0  0  0  0  0  0  0  0  0  0  0  0
   64.2834   32.2887   49.4848 H   0  0  0  0  0  0  0  0  0  0  0  0
   63.6495   34.3879   46.6787 H   0  0  0  0  0  0  0  0  0  0  0  0
   62.8749   33.0544   45.7474 H   0  0  0  0  0  0  0  0  0  0  0  0
   61.4076   34.8543   47.0814 H   0  0  0  0  0  0  0  0  0  0  0  0
   60.9422   33.0947   47.0042 H   0  0  0  0  0  0  0  0  0  0  0  0
   58.3425   34.4672   47.6763 H   0  0  0  0  0  0  0  0  0  0  0  0
   57.2371   35.3117   45.5786 H   0  0  0  0  0  0  0  0  0  0  0  0
   56.9863   33.8055   43.5921 H   0  0  0  0  0  0  0  0  0  0  0  0
   57.8534   31.4426   43.6805 H   0  0  0  0  0  0  0  0  0  0  0  0
  1  2  1  0
  2  3  1  0
  3  4  2  0
  4  5  1  0
  5  6  2  0
  6  7  1  0
  7  8  2  0
  8  9  1  0
  9 10  2  0
  9 11  1  0
 11 12  2  0
 12 13  1  0
 12 14  1  0
 14 15  1  0
 15 16  1  0
 16 17  1  0
 17 18  1  0
 18 19  1  0
 19 20  1  0
 20 21  1  0
 21 22  1  0
 14 23  1  0
 23 24  2  0
 24 25  1  0
 25 26  2  0
 26 27  1  0
 27 28  2  0
  8  3  1  0
 28 11  1  0
 22 17  1  0
 28 23  1  0
  1 29  1  0
  1 30  1  0
  1 31  1  0
  4 32  1  0
  5 33  1  0
  6 34  1  0
  7 35  1  0
 13 36  1  0
 13 37  1  0
 13 38  1  0
 15 39  1  0
 15 40  1  0
 16 41  1  0
 16 42  1  0
 18 43  1  0
 18 44  1  0
 19 45  1  0
 19 46  1  0
 21 47  1  0
 21 48  1  0
 22 49  1  0
 22 50  1  0
 24 51  1  0
 25 52  1  0
 26 53  1  0
 27 54  1  0
M  END
>  <UniqueID>  (20) 
20

>  <SMILES>  (20) 
COc1ccccc1C(=O)c1c(C)n(CCN2CCOCC2)c2ccccc12

>  <Energy>  (20) 
107.31405529099611

>  <Genealogy>  (20) 
COc1ccccc1C(=O)c1c(C)n(CCN2CCOCC2)c2ccccc12 (3D coordinates assigned)
COc1ccccc1C(=O)c1c(C)n(CCN2CCOCC2)c2ccccc12 (nonaromatic ring conformer: 107.31405529099611 kcal/mol)

>  <smiles>  (20) 
COc1ccccc1C(=O)c1c(C)n(CCN2CCOCC2)c2ccccc12

>  <score_type>  (20) 
oracle

>  <origin>  (20) 
adg

>  <m_score__min__energy>  (20) 
-8.7699999999999996

>  <m_primary>  (20) 
energy

$$$$
20:0
     RDKit          3D

 46 47  0  0  0  0  0  0  0  0999 V2000
   56.2740   30.0440   43.1580 C   0  0  0  0  0  0  0  0  0  0  0  0
   56.3040   30.6080   44.4660 O   0  0  0  0  0  0  0  0  0  0  0  0
   57.4570   30.7260   45.2580 C   0  0  0  0  0  0  0  0  0  0  0  0
   58.0400   31.9690   45.5490 C   0  0  0  0  0  0  0  0  0  0  0  0
   59.2050   32.0720   46.3320 C   0  0  0  0  0  0  0  0  0  0  0  0
   59.7770   30.8860   46.8680 C   0  0  0  0  0  0  0  0  0  0  0  0
   59.1790   29.6450   46.5720 C   0  0  0  0  0  0  0  0  0  0  0  0
   58.0310   29.5590   45.7680 C   0  0  0  0  0  0  0  0  0  0  0  0
   57.4260   28.3290   45.4590 O   0  0  0  0  0  0  0  0  0  0  0  0
   57.9660   27.3640   44.5620 C   0  0  0  0  0  0  0  0  0  0  0  0
   61.0040   30.8870   47.7660 C   0  0  2  0  0  0  0  0  0  0  0  0
   60.6280   31.2420   49.2300 C   0  0  0  0  0  0  0  0  0  0  0  0
   59.3810   32.0380   49.3180 N   0  0  0  0  0  0  0  0  0  0  0  0
   59.6470   33.3910   49.8370 C   0  0  0  0  0  0  0  0  0  0  0  0
   58.4060   31.3620   50.1880 C   0  0  0  0  0  0  0  0  0  0  0  0
   62.2090   31.6540   47.1460 C   0  0  0  0  0  0  0  0  0  0  0  0
   62.1600   33.1270   47.2300 N   0  0  0  0  0  0  0  0  0  0  0  0
   63.4680   33.7880   47.3760 C   0  0  0  0  0  0  0  0  0  0  0  0
   61.2140   33.7830   46.3180 C   0  0  0  0  0  0  0  0  0  0  0  0
   59.7240   33.4810   46.5900 C   0  0  0  0  0  0  0  0  0  0  0  0
   56.2157   28.9481   43.2325 H   0  0  0  0  0  0  0  0  0  0  0  0
   55.3947   30.4219   42.6158 H   0  0  0  0  0  0  0  0  0  0  0  0
   57.1884   30.3265   42.6158 H   0  0  0  0  0  0  0  0  0  0  0  0
   57.5751   32.8850   45.1556 H   0  0  0  0  0  0  0  0  0  0  0  0
   59.6209   28.7238   46.9795 H   0  0  0  0  0  0  0  0  0  0  0  0
   58.4241   26.5454   45.1364 H   0  0  0  0  0  0  0  0  0  0  0  0
   57.1618   26.9620   43.9283 H   0  0  0  0  0  0  0  0  0  0  0  0
   58.7293   27.8392   43.9283 H   0  0  0  0  0  0  0  0  0  0  0  0
   61.3959   29.8612   47.8313 H   0  0  0  0  0  0  0  0  0  0  0  0
   60.4914   30.3084   49.7955 H   0  0  0  0  0  0  0  0  0  0  0  0
   61.4437   31.8511   49.6465 H   0  0  0  0  0  0  0  0  0  0  0  0
   59.6427   33.3692   50.9368 H   0  0  0  0  0  0  0  0  0  0  0  0
   60.6297   33.7337   49.4809 H   0  0  0  0  0  0  0  0  0  0  0  0
   58.8672   34.0802   49.4809 H   0  0  0  0  0  0  0  0  0  0  0  0
   58.6670   31.5430   51.2412 H   0  0  0  0  0  0  0  0  0  0  0  0
   57.3993   31.7569   49.9867 H   0  0  0  0  0  0  0  0  0  0  0  0
   58.4227   30.2807   49.9867 H   0  0  0  0  0  0  0  0  0  0  0  0
   63.1208   31.3191   47.6622 H   0  0  0  0  0  0  0  0  0  0  0  0
   62.1836   31.4206   46.0714 H   0  0  0  0  0  0  0  0  0  0  0  0
   63.7019   33.9062   48.4443 H   0  0  0  0  0  0  0  0  0  0  0  0
   64.2446   33.1741   46.8964 H   0  0  0  0  0  0  0  0  0  0  0  0
   63.4344   34.7773   46.8964 H   0  0  0  0  0  0  0  0  0  0  0  0
   61.3614   34.8701   46.3985 H   0  0  0  0  0  0  0  0  0  0  0  0
   61.4290   33.3844   45.3156 H   0  0  0  0  0  0  0  0  0  0  0  0
   59.5361   33.7064   47.6501 H   0  0  0  0  0  0  0  0  0  0  0  0
   59.1872   34.1020   45.8578 H   0  0  0  0  0  0  0  0  0  0  0  0
  1  2  1  0
  2  3  1  0
  3  4  2  0
  4  5  1  0
  5  6  2  0
  6  7  1  0
  7  8  2  0
  8  9  1  0
  9 10  1  0
  6 11  1  0
 11 12  1  0
 12 13  1  0
 13 14  1  0
 13 15  1  0
 11 16  1  0
 16 17  1  0
 17 18  1  0
 17 19  1  0
 19 20  1  0
  8  3  1  0
 20  5  1  0
  1 21  1  0
  1 22  1  0
  1 23  1  0
  4 24  1  0
  7 25  1  0
 10 26  1  0
 10 27  1  0
 10 28  1  0
 11 29  1  1
 12 30  1  0
 12 31  1  0
 14 32  1  0
 14 33  1  0
 14 34  1  0
 15 35  1  0
 15 36  1  0
 15 37  1  0
 16 38  1  0
 16 39  1  0
 18 40  1  0
 18 41  1  0
 18 42  1  0
 19 43  1  0
 19 44  1  0
 20 45  1  0
 20 46  1  0
M  END
>  <UniqueID>  (21) 
21

>  <SMILES>  (21) 
COc1cc2c(cc1OC)[C@H](CN(C)C)CN(C)CC2

>  <Energy>  (21) 
68.33524892513893

>  <Genealogy>  (21) 
COc1cc2c(cc1OC)[C@H](CN(C)C)CN(C)CC2 (chirality)
COc1cc2c(cc1OC)[C@H](CN(C)C)CN(C)CC2 (3D coordinates assigned)
COc1cc2c(cc1OC)[C@H](CN(C)C)CN(C)CC2 (nonaromatic ring conformer: 68.33524892513893 kcal/mol)

>  <smiles>  (21) 
COc1cc2c(cc1OC)C(CN(C)C)CN(C)CC2

>  <score_type>  (21) 
oracle

>  <origin>  (21) 
adg

>  <m_score__min__energy>  (21) 
-4.1500000000000004

>  <m_primary>  (21) 
energy

$$$$
21:0
     RDKit          3D

 48 50  0  0  0  0  0  0  0  0999 V2000
   57.1860   33.0640   45.6230 C   0  0  0  0  0  0  0  0  0  0  0  0
   57.8970   33.7310   44.5200 N   0  0  0  0  0  0  0  0  0  0  0  0
   59.1920   34.2390   45.0060 C   0  0  0  0  0  0  0  0  0  0  0  0
   58.0860   32.8000   43.3860 C   0  0  0  0  0  0  0  0  0  0  0  0
   57.3210   31.4940   43.6210 C   0  0  0  0  0  0  0  0  0  0  0  0
   58.2440   30.3660   43.7430 N   0  0  0  0  0  0  0  0  0  0  0  0
   58.7730   30.0060   45.0240 C   0  0  0  0  0  0  0  0  0  0  0  0
   59.6220   30.8640   45.6490 N   0  0  0  0  0  0  0  0  0  0  0  0
   60.1840   30.5710   46.8530 C   0  0  0  0  0  0  0  0  0  0  0  0
   61.0950   31.4950   47.4820 N   0  0  0  0  0  0  0  0  0  0  0  0
   60.6060   32.6280   48.2780 C   0  0  0  0  0  0  0  0  0  0  0  0
   61.4180   33.8960   47.9590 C   0  0  0  0  0  0  0  0  0  0  0  0
   62.8860   33.6720   47.8440 N   0  0  0  0  0  0  0  0  0  0  0  0
   63.3990   34.0880   46.5270 C   0  0  0  0  0  0  0  0  0  0  0  0
   63.3240   32.3060   48.1940 C   0  0  0  0  0  0  0  0  0  0  0  0
   62.5390   31.2370   47.4230 C   0  0  0  0  0  0  0  0  0  0  0  0
   59.8880   29.3880   47.4590 N   0  0  0  0  0  0  0  0  0  0  0  0
   59.0350   28.4990   46.8930 C   0  0  0  0  0  0  0  0  0  0  0  0
   58.7420   27.2970   47.5410 C   0  0  0  0  0  0  0  0  0  0  0  0
   57.8470   26.4020   46.9510 C   0  0  0  0  0  0  0  0  0  0  0  0
   57.2570   26.7100   45.7650 N   0  0  0  0  0  0  0  0  0  0  0  0
   57.5250   27.8700   45.1090 C   0  0  0  0  0  0  0  0  0  0  0  0
   58.4400   28.7890   45.6490 C   0  0  0  0  0  0  0  0  0  0  0  0
   57.5756   33.4295   46.5846 H   0  0  0  0  0  0  0  0  0  0  0  0
   56.1110   33.2871   45.5543 H   0  0  0  0  0  0  0  0  0  0  0  0
   57.3400   31.9770   45.5543 H   0  0  0  0  0  0  0  0  0  0  0  0
   59.1958   34.2405   46.1060 H   0  0  0  0  0  0  0  0  0  0  0  0
   60.0014   33.5917   44.6374 H   0  0  0  0  0  0  0  0  0  0  0  0
   59.3455   35.2640   44.6374 H   0  0  0  0  0  0  0  0  0  0  0  0
   57.7160   33.2739   42.4648 H   0  0  0  0  0  0  0  0  0  0  0  0
   59.1576   32.5692   43.2942 H   0  0  0  0  0  0  0  0  0  0  0  0
   56.7341   31.5815   44.5472 H   0  0  0  0  0  0  0  0  0  0  0  0
   56.6571   31.3150   42.7624 H   0  0  0  0  0  0  0  0  0  0  0  0
   58.1290   29.5870   43.0560 H   0  0  0  0  0  0  0  0  0  0  0  0
   59.5466   32.8067   48.0419 H   0  0  0  0  0  0  0  0  0  0  0  0
   60.7196   32.3900   49.3459 H   0  0  0  0  0  0  0  0  0  0  0  0
   61.0563   34.3054   47.0042 H   0  0  0  0  0  0  0  0  0  0  0  0
   61.2701   34.5851   48.8036 H   0  0  0  0  0  0  0  0  0  0  0  0
   64.2467   34.7754   46.6642 H   0  0  0  0  0  0  0  0  0  0  0  0
   63.7323   33.2020   45.9668 H   0  0  0  0  0  0  0  0  0  0  0  0
   62.6009   34.5972   45.9668 H   0  0  0  0  0  0  0  0  0  0  0  0
   64.3928   32.2034   47.9552 H   0  0  0  0  0  0  0  0  0  0  0  0
   63.1406   32.1545   49.2680 H   0  0  0  0  0  0  0  0  0  0  0  0
   62.8621   31.2428   46.3715 H   0  0  0  0  0  0  0  0  0  0  0  0
   62.7377   30.2581   47.8837 H   0  0  0  0  0  0  0  0  0  0  0  0
   59.2116   27.0577   48.5065 H   0  0  0  0  0  0  0  0  0  0  0  0
   57.6189   25.4466   47.4462 H   0  0  0  0  0  0  0  0  0  0  0  0
   57.0248   28.0893   44.1542 H   0  0  0  0  0  0  0  0  0  0  0  0
  1  2  1  0
  2  3  1  0
  2  4  1  0
  4  5  1  0
  5  6  1  0
  6  7  1  0
  7  8  2  0
  8  9  1  0
  9 10  1  0
 10 11  1  0
 11 12  1  0
 12 13  1  0
 13 14  1  0
 13 15  1  0
 15 16  1  0
  9 17  2  0
 17 18  1  0
 18 19  2  0
 19 20  1  0
 20 21  2  0
 21 22  1  0
 22 23  2  0
 23  7  1  0
 16 10  1  0
 23 18  1  0
  1 24  1  0
  1 25  1  0
  1 26  1  0
  3 27  1  0
  3 28  1  0
  3 29  1  0
  4 30  1  0
  4 31  1  0
  5 32  1  0
  5 33  1  0
  6 34  1  0
 11 35  1  0
 11 36  1  0
 12 37  1  0
 12 38  1  0
 14 39  1  0
 14 40  1  0
 14 41  1  0
 15 42  1  0
 15 43  1  0
 16 44  1  0
 16 45  1  0
 19 46  1  0
 20 47  1  0
 22 48  1  0
M  END
>  <UniqueID>  (22) 
22

>  <SMILES>  (22) 
CN(C)CCNc1nc(N2CCN(C)CC2)nc2ccncc12

>  <Energy>  (22) 
64.2723794843175

>  <Genealogy>  (22) 
CN(C)CCNc1nc(N2CCN(C)CC2)nc2ccncc12 (3D coordinates assigned)
CN(C)CCNc1nc(N2CCN(C)CC2)nc2ccncc12 (nonaromatic ring conformer: 64.2723794843175 kcal/mol)

>  <smiles>  (22) 
CN(C)CCNc1nc(N2CCN(C)CC2)nc2ccncc12

>  <score_type>  (22) 
oracle

>  <origin>  (22) 
adg

>  <m_score__min__energy>  (22) 
-6.0599999999999996

>  <m_primary>  (22) 
energy

$$$$
22:0
     RDKit          3D

 40 42  0  0  0  0  0  0  0  0999 V2000
   56.6390   29.2800   42.7690 C   0  0  0  0  0  0  0  0  0  0  0  0
   55.5550   29.8180   43.6880 C   0  0  0  0  0  0  0  0  0  0  0  0
   56.1450   30.6300   44.6960 O   0  0  0  0  0  0  0  0  0  0  0  0
   57.1320   31.5800   44.4160 C   0  0  0  0  0  0  0  0  0  0  0  0
   57.3270   31.9700   43.2310 O   0  0  0  0  0  0  0  0  0  0  0  0
   57.9280   32.1490   45.5190 C   0  0  0  0  0  0  0  0  0  0  0  0
   57.4750   33.3570   46.0640 C   0  0  0  0  0  0  0  0  0  0  0  0
   58.2510   34.0750   46.9140 N   0  0  0  0  0  0  0  0  0  0  0  0
   59.5030   33.6670   47.2550 C   0  0  0  0  0  0  0  0  0  0  0  0
   60.2940   34.4620   48.1000 C   0  0  0  0  0  0  0  0  0  0  0  0
   61.5750   34.0470   48.4660 C   0  0  0  0  0  0  0  0  0  0  0  0
   62.0790   32.8330   47.9960 C   0  0  0  0  0  0  0  0  0  0  0  0
   63.6890   32.3160   48.4630 Cl  0  0  0  0  0  0  0  0  0  0  0  0
   61.3020   32.0280   47.1570 C   0  0  0  0  0  0  0  0  0  0  0  0
   60.0060   32.4340   46.7680 C   0  0  0  0  0  0  0  0  0  0  0  0
   59.1870   31.6270   45.9420 C   0  0  0  0  0  0  0  0  0  0  0  0
   59.6160   30.4280   45.6300 N   0  0  0  0  0  0  0  0  0  0  0  0
   59.2440   29.1530   46.1710 C   0  0  0  0  0  0  0  0  0  0  0  0
   59.9200   28.6590   47.2920 C   0  0  0  0  0  0  0  0  0  0  0  0
   59.5490   27.4350   47.8530 C   0  0  0  0  0  0  0  0  0  0  0  0
   58.4860   26.7080   47.3130 C   0  0  0  0  0  0  0  0  0  0  0  0
   57.7660   27.2080   46.2120 C   0  0  0  0  0  0  0  0  0  0  0  0
   56.6680   26.4650   45.6530 N   0  0  0  0  0  0  0  0  0  0  0  0
   55.4920   26.7100   45.9950 O   0  0  0  0  0  0  0  0  0  0  0  0
   56.8970   25.4560   44.7450 O   0  0  0  0  0  0  0  0  0  0  0  0
   58.1400   28.4460   45.6620 C   0  0  0  0  0  0  0  0  0  0  0  0
   57.4624   28.8713   43.3732 H   0  0  0  0  0  0  0  0  0  0  0  0
   56.2204   28.4851   42.1343 H   0  0  0  0  0  0  0  0  0  0  0  0
   57.0189   30.0941   42.1343 H   0  0  0  0  0  0  0  0  0  0  0  0
   54.8439   30.4195   43.1027 H   0  0  0  0  0  0  0  0  0  0  0  0
   55.0247   28.9774   44.1594 H   0  0  0  0  0  0  0  0  0  0  0  0
   56.4745   33.7293   45.7987 H   0  0  0  0  0  0  0  0  0  0  0  0
   57.8750   34.9800   47.2790 H   0  0  0  0  0  0  0  0  0  0  0  0
   59.9012   35.4183   48.4759 H   0  0  0  0  0  0  0  0  0  0  0  0
   62.1888   34.6776   49.1260 H   0  0  0  0  0  0  0  0  0  0  0  0
   61.7038   31.0695   46.7965 H   0  0  0  0  0  0  0  0  0  0  0  0
   60.7461   29.2364   47.7327 H   0  0  0  0  0  0  0  0  0  0  0  0
   60.0958   27.0424   48.7230 H   0  0  0  0  0  0  0  0  0  0  0  0
   58.2095   25.7377   47.7513 H   0  0  0  0  0  0  0  0  0  0  0  0
   57.5633   28.8663   44.8248 H   0  0  0  0  0  0  0  0  0  0  0  0
  1  2  1  0
  2  3  1  0
  3  4  1  0
  4  5  2  0
  4  6  1  0
  6  7  2  0
  7  8  1  0
  8  9  1  0
  9 10  2  0
 10 11  1  0
 11 12  2  0
 12 13  1  0
 12 14  1  0
 14 15  2  0
 15 16  1  0
 16 17  2  3
 17 18  1  0
 18 19  2  0
 19 20  1  0
 20 21  2  0
 21 22  1  0
 22 23  1  0
 23 24  2  0
 23 25  1  0
 22 26  2  0
 16  6  1  0
 26 18  1  0
 15  9  1  0
  1 27  1  0
  1 28  1  0
  1 29  1  0
  2 30  1  0
  2 31  1  0
  7 32  1  0
  8 33  1  0
 10 34  1  0
 11 35  1  0
 14 36  1  0
 19 37  1  0
 20 38  1  0
 21 39  1  0
 26 40  1  0
M  CHG  2  23   1  25  -1
M  END
>  <UniqueID>  (23) 
23

>  <SMILES>  (23) 
CCOC(=O)c1c[nH]c2ccc(Cl)cc2c1=Nc1cccc([N+](=O)[O-])c1

>  <Energy>  (23) 
63.19266384785949

>  <Genealogy>  (23) 
CCOC(=O)c1c[nH]c2ccc(Cl)cc2c1=Nc1cccc([N+](=O)[O-])c1 (3D coordinates assigned)
CCOC(=O)c1c[nH]c2ccc(Cl)cc2c1=Nc1cccc([N+](=O)[O-])c1 (optimized conformer: 63.19266384785949 kcal/mol)

>  <smiles>  (23) 
CCOC(=O)c1c[nH]c2ccc(Cl)cc2c1=Nc1cccc([N+](=O)[O-])c1

>  <score_type>  (23) 
oracle

>  <origin>  (23) 
adg

>  <m_score__min__energy>  (23) 
-9.3399999999999999

>  <m_primary>  (23) 
energy

$$$$
23:0
     RDKit          3D

 41 41  0  0  0  0  0  0  0  0999 V2000
   59.2790   26.9270   47.5920 C   0  0  0  0  0  0  0  0  0  0  0  0
   59.1040   28.4570   47.5780 C   0  0  0  0  0  0  0  0  0  0  0  0
   59.0620   29.0850   46.2250 N   0  0  0  0  0  0  0  0  0  0  0  0
   60.3470   29.7150   45.8210 C   0  0  0  0  0  0  0  0  0  0  0  0
   60.8300   30.7890   46.8040 C   0  0  0  0  0  0  0  0  0  0  0  0
   58.4490   28.2050   45.1910 C   0  0  0  0  0  0  0  0  0  0  0  0
   57.0320   28.6030   44.7440 C   0  0  0  0  0  0  0  0  0  0  0  0
   56.6670   29.8860   45.3590 N   0  0  0  0  0  0  0  0  0  0  0  0
   56.2560   30.8780   44.3530 C   0  0  0  0  0  0  0  0  0  0  0  0
   57.4570   31.6480   43.7820 C   0  0  0  0  0  0  0  0  0  0  0  0
   58.0060   32.6430   44.7730 C   0  0  0  0  0  0  0  0  0  0  0  0
   57.7530   32.4880   46.1460 C   0  0  0  0  0  0  0  0  0  0  0  0
   58.2280   33.4330   47.0600 C   0  0  0  0  0  0  0  0  0  0  0  0
   58.9530   34.5400   46.6110 C   0  0  0  0  0  0  0  0  0  0  0  0
   59.4120   35.4560   47.4980 F   0  0  0  0  0  0  0  0  0  0  0  0
   59.2030   34.7030   45.2440 C   0  0  0  0  0  0  0  0  0  0  0  0
   58.7280   33.7610   44.3260 C   0  0  0  0  0  0  0  0  0  0  0  0
   59.3196   26.5721   48.6324 H   0  0  0  0  0  0  0  0  0  0  0  0
   58.4289   26.4560   47.0768 H   0  0  0  0  0  0  0  0  0  0  0  0
   60.2135   26.6601   47.0768 H   0  0  0  0  0  0  0  0  0  0  0  0
   58.1611   28.6953   48.0919 H   0  0  0  0  0  0  0  0  0  0  0  0
   59.9951   28.8681   48.0750 H   0  0  0  0  0  0  0  0  0  0  0  0
   58.3810   29.8770   46.3260 H   0  0  0  0  0  0  0  0  0  0  0  0
   61.1153   28.9305   45.7553 H   0  0  0  0  0  0  0  0  0  0  0  0
   60.1777   30.2104   44.8536 H   0  0  0  0  0  0  0  0  0  0  0  0
   60.6729   30.4396   47.8351 H   0  0  0  0  0  0  0  0  0  0  0  0
   61.9009   30.9804   46.6409 H   0  0  0  0  0  0  0  0  0  0  0  0
   60.2626   31.7172   46.6409 H   0  0  0  0  0  0  0  0  0  0  0  0
   59.1007   28.2172   44.3049 H   0  0  0  0  0  0  0  0  0  0  0  0
   58.3536   27.2122   45.6549 H   0  0  0  0  0  0  0  0  0  0  0  0
   57.0070   28.7011   43.6487 H   0  0  0  0  0  0  0  0  0  0  0  0
   56.3170   27.8287   45.0591 H   0  0  0  0  0  0  0  0  0  0  0  0
   55.8450   29.7150   45.9850 H   0  0  0  0  0  0  0  0  0  0  0  0
   55.7432   30.3583   43.5302 H   0  0  0  0  0  0  0  0  0  0  0  0
   55.5885   31.6026   44.8423 H   0  0  0  0  0  0  0  0  0  0  0  0
   58.2491   30.9304   43.5218 H   0  0  0  0  0  0  0  0  0  0  0  0
   57.1178   32.2013   42.8938 H   0  0  0  0  0  0  0  0  0  0  0  0
   57.1792   31.6201   46.5031 H   0  0  0  0  0  0  0  0  0  0  0  0
   58.0307   33.3050   48.1346 H   0  0  0  0  0  0  0  0  0  0  0  0
   59.7744   35.5740   44.8906 H   0  0  0  0  0  0  0  0  0  0  0  0
   58.9205   33.8963   43.2515 H   0  0  0  0  0  0  0  0  0  0  0  0
  1  2  1  0
  2  3  1  0
  3  4  1  0
  4  5  1  0
  3  6  1  0
  6  7  1  0
  7  8  1  0
  8  9  1  0
  9 10  1  0
 10 11  1  0
 11 12  2  0
 12 13  1  0
 13 14  2  0
 14 15  1  0
 14 16  1  0
 16 17  2  0
 17 11  1  0
  1 18  1  0
  1 19  1  0
  1 20  1  0
  2 21  1  0
  2 22  1  0
  3 23  1  0
  4 24  1  0
  4 25  1  0
  5 26  1  0
  5 27  1  0
  5 28  1  0
  6 29  1  0
  6 30  1  0
  7 31  1  0
  7 32  1  0
  8 33  1  0
  9 34  1  0
  9 35  1  0
 10 36  1  0
 10 37  1  0
 12 38  1  0
 13 39  1  0
 16 40  1  0
 17 41  1  0
M  CHG  1   3   1
M  END
>  <UniqueID>  (24) 
24

>  <SMILES>  (24) 
CC[NH+](CC)CCNCCc1ccc(F)cc1

>  <Energy>  (24) 
41.3526187430029

>  <Genealogy>  (24) 
CC[NH+](CC)CCNCCc1ccc(F)cc1 (protonated)
CC[NH+](CC)CCNCCc1ccc(F)cc1 (3D coordinates assigned)
CC[NH+](CC)CCNCCc1ccc(F)cc1 (optimized conformer: 41.3526187430029 kcal/mol)

>  <smiles>  (24) 
CCN(CC)CCNCCc1ccc(F)cc1

>  <score_type>  (24) 
oracle

>  <origin>  (24) 
adg

>  <m_score__min__energy>  (24) 
-4.1399999999999997

>  <m_primary>  (24) 
energy

$$$$
24:0
     RDKit          3D

 42 44  0  0  0  0  0  0  0  0999 V2000
   54.4454   30.4071   43.7902 H   0  0  0  0  0  0  0  0  0  0  0  0
   55.4610   30.0500   44.0160 C   0  0  0  0  0  0  0  0  0  0  0  0
   55.6410   29.0180   44.8810 N   0  0  0  0  0  0  0  0  0  0  0  0
   56.8760   28.5410   45.1980 C   0  0  0  0  0  0  0  0  0  0  0  0
   56.9590   27.5190   46.0010 N   0  0  0  0  0  0  0  0  0  0  0  0
   58.1230   26.6540   46.1960 C   0  0  0  0  0  0  0  0  0  0  0  0
   58.7740   26.7155   45.3114 H   0  0  0  0  0  0  0  0  0  0  0  0
   57.7813   25.6182   46.3387 H   0  0  0  0  0  0  0  0  0  0  0  0
   58.9080   27.0970   47.4340 C   0  0  0  0  0  0  0  0  0  0  0  0
   59.9812   27.0948   47.1925 H   0  0  0  0  0  0  0  0  0  0  0  0
   58.6795   26.3937   48.2483 H   0  0  0  0  0  0  0  0  0  0  0  0
   58.5250   28.4480   47.8820 N   0  0  0  0  0  0  0  0  0  0  0  0
   57.9120   28.8540   47.1360 H   0  0  0  0  0  0  0  0  0  0  0  0
   59.6710   29.3580   48.0550 C   0  0  0  0  0  0  0  0  0  0  0  0
   60.5630   28.9065   47.5962 H   0  0  0  0  0  0  0  0  0  0  0  0
   59.8351   29.5193   49.1307 H   0  0  0  0  0  0  0  0  0  0  0  0
   59.3990   30.6860   47.4030 C   0  0  0  0  0  0  0  0  0  0  0  0
   58.1540   31.0480   46.9940 N   0  0  0  0  0  0  0  0  0  0  0  0
   58.3570   32.2470   46.4210 C   0  0  0  0  0  0  0  0  0  0  0  0
   57.4120   33.0610   45.7990 C   0  0  0  0  0  0  0  0  0  0  0  0
   56.3531   32.7673   45.7485 H   0  0  0  0  0  0  0  0  0  0  0  0
   57.8590   34.2710   45.2380 C   0  0  0  0  0  0  0  0  0  0  0  0
   57.1425   34.9382   44.7366 H   0  0  0  0  0  0  0  0  0  0  0  0
   59.2210   34.6350   45.3140 C   0  0  0  0  0  0  0  0  0  0  0  0
   59.5575   35.5850   44.8733 H   0  0  0  0  0  0  0  0  0  0  0  0
   60.1510   33.7920   45.9490 C   0  0  0  0  0  0  0  0  0  0  0  0
   61.2143   34.0653   46.0171 H   0  0  0  0  0  0  0  0  0  0  0  0
   59.6750   32.5950   46.4900 C   0  0  0  0  0  0  0  0  0  0  0  0
   60.3530   31.6120   47.1070 N   0  0  0  0  0  0  0  0  0  0  0  0
   61.7770   31.6010   47.4580 C   0  0  0  0  0  0  0  0  0  0  0  0
   62.3774   31.7072   46.5424 H   0  0  0  0  0  0  0  0  0  0  0  0
   62.0157   30.6499   47.9565 H   0  0  0  0  0  0  0  0  0  0  0  0
   62.0960   32.7500   48.4040 C   0  0  0  0  0  0  0  0  0  0  0  0
   62.0004   32.4057   49.4444 H   0  0  0  0  0  0  0  0  0  0  0  0
   63.1245   33.0970   48.2256 H   0  0  0  0  0  0  0  0  0  0  0  0
   61.3936   33.5776   48.2256 H   0  0  0  0  0  0  0  0  0  0  0  0
   58.0110   29.1440   44.6190 C   0  0  0  0  0  0  0  0  0  0  0  0
   59.0194   28.7843   44.8715 H   0  0  0  0  0  0  0  0  0  0  0  0
   57.8450   30.2020   43.7220 C   0  0  0  0  0  0  0  0  0  0  0  0
   58.7237   30.6753   43.2595 H   0  0  0  0  0  0  0  0  0  0  0  0
   56.5630   30.6570   43.4140 C   0  0  0  0  0  0  0  0  0  0  0  0
   56.4226   31.4855   42.7041 H   0  0  0  0  0  0  0  0  0  0  0  0
  1  2  1  0
  2  3  1  0
  3  4  1  0
  4  5  2  0
  5  6  1  0
  6  7  1  0
  6  8  1  0
  6  9  1  0
  9 10  1  0
  9 11  1  0
  9 12  1  0
 12 13  1  0
 12 14  1  0
 14 15  1  0
 14 16  1  0
 14 17  1  0
 17 18  2  0
 18 19  1  0
 19 20  2  0
 20 21  1  0
 20 22  1  0
 22 23  1  0
 22 24  2  0
 24 25  1  0
 24 26  1  0
 26 27  1  0
 26 28  2  0
 28 29  1  0
 29 30  1  0
 30 31  1  0
 30 32  1  0
 30 33  1  0
 33 34  1  0
 33 35  1  0
 33 36  1  0
  4 37  1  0
 37 38  1  0
 37 39  2  0
 39 40  1  0
 39 41  1  0
 41 42  1  0
 41  2  2  0
 29 17  1  0
 28 19  1  0
M  CHG  1   3  -1
M  END
>  <UniqueID>  (25) 
25

>  <SMILES>  (25) 
CCn1c(CNCC/N=c2\cccc[n-]2)nc2ccccc21

>  <Energy>  (25) 
73.88096423567852

>  <Genealogy>  (25) 
CCn1c(CNCCN=c2cccc[n-]2)nc2ccccc21 (protonated)
CCn1c(CNCC/N=c2\cccc[n-]2)nc2ccccc21 (cis-trans isomerization)
CCn1c(CNCC/N=c2\cccc[n-]2)nc2ccccc21 (3D coordinates assigned)
CCn1c(CNCC/N=c2\cccc[n-]2)nc2ccccc21 (optimized conformer: 73.88096423567852 kcal/mol)

>  <smiles>  (25) 
CCn1c(CNCCN=c2cccc[nH]2)nc2ccccc21

>  <score_type>  (25) 
oracle

>  <origin>  (25) 
adg

>  <m_score__min__energy>  (25) 
-9.25

>  <m_primary>  (25) 
energy

$$$$
25:0
     RDKit          3D

 67 69  0  0  0  0  0  0  0  0999 V2000
   58.2160   31.7810   50.3080 C   0  0  0  0  0  0  0  0  0  0  0  0
   58.5470   32.6380   49.0770 C   0  0  0  0  0  0  0  0  0  0  0  0
   59.3480   33.8470   49.3830 N   0  0  0  0  0  0  0  0  0  0  0  0
   60.1880   33.6670   50.5810 C   0  0  0  0  0  0  0  0  0  0  0  0
   60.1250   34.3170   48.2130 C   0  0  0  0  0  0  0  0  0  0  0  0
   59.2090   34.8010   47.0700 C   0  0  0  0  0  0  0  0  0  0  0  0
   59.3340   34.0490   45.7130 C   0  0  0  0  0  0  0  0  0  0  0  0
   58.0950   33.4320   45.1450 N   0  0  2  0  0  0  0  0  0  0  0  0
   57.0460   33.1610   46.1500 C   0  0  0  0  0  0  0  0  0  0  0  0
   58.4200   32.2690   44.2700 C   0  0  0  0  0  0  0  0  0  0  0  0
   58.4690   30.9350   44.9980 C   0  0  0  0  0  0  0  0  0  0  0  0
   59.4360   30.7600   45.9980 C   0  0  0  0  0  0  0  0  0  0  0  0
   59.5210   29.5750   46.7370 C   0  0  0  0  0  0  0  0  0  0  0  0
   60.6520   29.4440   47.7400 C   0  0  0  0  0  0  0  0  0  0  0  0
   60.9100   30.7500   48.5030 C   0  0  0  0  0  0  0  0  0  0  0  0
   62.2770   31.2410   48.2150 N   0  0  0  0  0  0  0  0  0  0  0  0
   62.9070   31.8230   49.4170 C   0  0  0  0  0  0  0  0  0  0  0  0
   64.3380   32.2720   49.0990 C   0  0  0  0  0  0  0  0  0  0  0  0
   64.3330   33.2410   47.9960 N   0  0  0  0  0  0  0  0  0  0  0  0
   63.7180   32.6460   46.8040 C   0  0  0  0  0  0  0  0  0  0  0  0
   62.2800   32.2230   47.1140 C   0  0  0  0  0  0  0  0  0  0  0  0
   58.5610   28.5530   46.5230 C   0  0  0  0  0  0  0  0  0  0  0  0
   58.5470   27.3750   47.3040 C   0  0  0  0  0  0  0  0  0  0  0  0
   57.6110   26.3690   47.0660 C   0  0  0  0  0  0  0  0  0  0  0  0
   56.6690   26.5170   46.0550 C   0  0  0  0  0  0  0  0  0  0  0  0
   56.6510   27.6730   45.2770 C   0  0  0  0  0  0  0  0  0  0  0  0
   57.5850   28.7090   45.4960 C   0  0  0  0  0  0  0  0  0  0  0  0
   57.5580   29.8930   44.7190 C   0  0  0  0  0  0  0  0  0  0  0  0
   56.2990   30.0920   43.2640 Br  0  0  0  0  0  0  0  0  0  0  0  0
   58.4364   32.3518   51.2221 H   0  0  0  0  0  0  0  0  0  0  0  0
   57.1494   31.5124   50.2917 H   0  0  0  0  0  0  0  0  0  0  0  0
   58.8251   30.8652   50.2917 H   0  0  0  0  0  0  0  0  0  0  0  0
   59.1134   32.0184   48.3661 H   0  0  0  0  0  0  0  0  0  0  0  0
   57.5888   32.9866   48.6644 H   0  0  0  0  0  0  0  0  0  0  0  0
   59.5728   33.7988   51.4833 H   0  0  0  0  0  0  0  0  0  0  0  0
   60.6208   32.6557   50.5768 H   0  0  0  0  0  0  0  0  0  0  0  0
   60.9972   34.4121   50.5768 H   0  0  0  0  0  0  0  0  0  0  0  0
   60.7718   35.1495   48.5270 H   0  0  0  0  0  0  0  0  0  0  0  0
   60.7203   33.4716   47.8376 H   0  0  0  0  0  0  0  0  0  0  0  0
   58.1681   34.7027   47.4117 H   0  0  0  0  0  0  0  0  0  0  0  0
   59.5261   35.8333   46.8606 H   0  0  0  0  0  0  0  0  0  0  0  0
   59.7125   34.7684   44.9720 H   0  0  0  0  0  0  0  0  0  0  0  0
   59.9970   33.1975   45.9262 H   0  0  0  0  0  0  0  0  0  0  0  0
   57.6840   34.1590   44.5150 H   0  0  0  0  0  0  0  0  0  0  0  0
   57.4686   33.2702   47.1597 H   0  0  0  0  0  0  0  0  0  0  0  0
   56.2196   33.8751   46.0192 H   0  0  0  0  0  0  0  0  0  0  0  0
   56.6689   32.1360   46.0192 H   0  0  0  0  0  0  0  0  0  0  0  0
   57.6539   32.2046   43.4833 H   0  0  0  0  0  0  0  0  0  0  0  0
   59.4288   32.4474   43.8694 H   0  0  0  0  0  0  0  0  0  0  0  0
   60.1453   31.5744   46.2067 H   0  0  0  0  0  0  0  0  0  0  0  0
   60.3932   28.6571   48.4637 H   0  0  0  0  0  0  0  0  0  0  0  0
   61.5672   29.1938   47.1834 H   0  0  0  0  0  0  0  0  0  0  0  0
   60.1768   31.5071   48.1882 H   0  0  0  0  0  0  0  0  0  0  0  0
   60.8124   30.5637   49.5827 H   0  0  0  0  0  0  0  0  0  0  0  0
   62.3195   32.6909   49.7512 H   0  0  0  0  0  0  0  0  0  0  0  0
   62.9372   31.0622   50.2109 H   0  0  0  0  0  0  0  0  0  0  0  0
   64.7786   32.7401   49.9916 H   0  0  0  0  0  0  0  0  0  0  0  0
   64.9316   31.3946   48.8027 H   0  0  0  0  0  0  0  0  0  0  0  0
   65.3280   33.4720   47.7650 H   0  0  0  0  0  0  0  0  0  0  0  0
   63.7129   33.3849   45.9891 H   0  0  0  0  0  0  0  0  0  0  0  0
   64.2978   31.7615   46.5013 H   0  0  0  0  0  0  0  0  0  0  0  0
   61.6948   33.1061   47.4101 H   0  0  0  0  0  0  0  0  0  0  0  0
   61.8332   31.7672   46.2181 H   0  0  0  0  0  0  0  0  0  0  0  0
   59.2845   27.2500   48.1105 H   0  0  0  0  0  0  0  0  0  0  0  0
   57.6183   25.4563   47.6799 H   0  0  0  0  0  0  0  0  0  0  0  0
   55.9352   25.7191   45.8683 H   0  0  0  0  0  0  0  0  0  0  0  0
   55.8989   27.7798   44.4814 H   0  0  0  0  0  0  0  0  0  0  0  0
  1  2  1  0
  2  3  1  0
  3  4  1  0
  3  5  1  0
  5  6  1  0
  6  7  1  0
  7  8  1  0
  8  9  1  0
  8 10  1  0
 10 11  1  0
 11 12  2  0
 12 13  1  0
 13 14  1  0
 14 15  1  0
 15 16  1  0
 16 17  1  0
 17 18  1  0
 18 19  1  0
 19 20  1  0
 20 21  1  0
 13 22  2  0
 22 23  1  0
 23 24  2  0
 24 25  1  0
 25 26  2  0
 26 27  1  0
 27 28  2  0
 28 29  1  0
 28 11  1  0
 21 16  1  0
 27 22  1  0
  1 30  1  0
  1 31  1  0
  1 32  1  0
  2 33  1  0
  2 34  1  0
  4 35  1  0
  4 36  1  0
  4 37  1  0
  5 38  1  0
  5 39  1  0
  6 40  1  0
  6 41  1  0
  7 42  1  0
  7 43  1  0
  8 44  1  6
  9 45  1  0
  9 46  1  0
  9 47  1  0
 10 48  1  0
 10 49  1  0
 12 50  1  0
 14 51  1  0
 14 52  1  0
 15 53  1  0
 15 54  1  0
 17 55  1  0
 17 56  1  0
 18 57  1  0
 18 58  1  0
 19 59  1  0
 20 60  1  0
 20 61  1  0
 21 62  1  0
 21 63  1  0
 23 64  1  0
 24 65  1  0
 25 66  1  0
 26 67  1  0
M  CHG  1   8   1
M  END
>  <UniqueID>  (26) 
26

>  <SMILES>  (26) 
CCN(C)CCC[N@H+](C)Cc1cc(CCN2CCNCC2)c2ccccc2c1Br

>  <Energy>  (26) 
88.39286212254271

>  <Genealogy>  (26) 
CCN(C)CCC[NH+](C)Cc1cc(CCN2CCNCC2)c2ccccc2c1Br (protonated)
CCN(C)CCC[N@H+](C)Cc1cc(CCN2CCNCC2)c2ccccc2c1Br (chirality)
CCN(C)CCC[N@H+](C)Cc1cc(CCN2CCNCC2)c2ccccc2c1Br (3D coordinates assigned)
CCN(C)CCC[N@H+](C)Cc1cc(CCN2CCNCC2)c2ccccc2c1Br (nonaromatic ring conformer: 88.39286212254271 kcal/mol)

>  <smiles>  (26) 
CCN(C)CCCN(C)Cc1cc(CCN2CCNCC2)c2ccccc2c1Br

>  <score_type>  (26) 
oracle

>  <origin>  (26) 
adg

>  <m_score__min__energy>  (26) 
-7.4199999999999999

>  <m_primary>  (26) 
energy

$$$$
26:0
     RDKit          3D

 51 52  0  0  0  0  0  0  0  0999 V2000
   62.7910   33.8110   46.7750 C   0  0  0  0  0  0  0  0  0  0  0  0
   62.6930   33.3570   48.1720 N   0  0  0  0  0  0  0  0  0  0  0  0
   63.7660   32.4070   48.5010 C   0  0  0  0  0  0  0  0  0  0  0  0
   61.3460   32.8560   48.5300 C   0  0  0  0  0  0  0  0  0  0  0  0
   61.3280   31.4130   49.0850 C   0  0  0  0  0  0  0  0  0  0  0  0
   61.0580   30.4280   48.0110 N   0  0  0  0  0  0  0  0  0  0  0  0
   60.6820   31.0950   46.7370 C   0  0  0  0  0  0  0  0  0  0  0  0
   59.8600   30.1670   45.8330 C   0  0  0  0  0  0  0  0  0  0  0  0
   58.5730   29.7830   46.4650 N   0  0  0  0  0  0  0  0  0  0  0  0
   58.0500   28.5150   45.9060 C   0  0  0  0  0  0  0  0  0  0  0  0
   57.0620   28.7730   44.7580 C   0  0  0  0  0  0  0  0  0  0  0  0
   56.4710   30.1130   44.8780 N   0  0  0  0  0  0  0  0  0  0  0  0
   57.1270   31.0720   43.9800 C   0  0  0  0  0  0  0  0  0  0  0  0
   57.6250   32.2460   44.7750 C   0  0  0  0  0  0  0  0  0  0  0  0
   58.2830   33.3070   44.1330 C   0  0  0  0  0  0  0  0  0  0  0  0
   58.7690   34.3720   44.8940 C   0  0  0  0  0  0  0  0  0  0  0  0
   58.6070   34.3680   46.2790 C   0  0  0  0  0  0  0  0  0  0  0  0
   57.9600   33.2900   46.8880 C   0  0  0  0  0  0  0  0  0  0  0  0
   57.4920   32.2570   46.1350 N   0  0  0  0  0  0  0  0  0  0  0  0
   58.6480   29.7300   47.9470 C   0  0  0  0  0  0  0  0  0  0  0  0
   60.0670   29.4100   48.4460 C   0  0  0  0  0  0  0  0  0  0  0  0
   63.0231   34.8860   46.7543 H   0  0  0  0  0  0  0  0  0  0  0  0
   63.5895   33.2536   46.2635 H   0  0  0  0  0  0  0  0  0  0  0  0
   61.8337   33.6326   46.2635 H   0  0  0  0  0  0  0  0  0  0  0  0
   63.8598   32.3239   49.5938 H   0  0  0  0  0  0  0  0  0  0  0  0
   63.5251   31.4207   48.0776 H   0  0  0  0  0  0  0  0  0  0  0  0
   64.7158   32.7656   48.0776 H   0  0  0  0  0  0  0  0  0  0  0  0
   60.9225   33.5240   49.2945 H   0  0  0  0  0  0  0  0  0  0  0  0
   60.7588   32.8420   47.5999 H   0  0  0  0  0  0  0  0  0  0  0  0
   62.3055   31.1908   49.5380 H   0  0  0  0  0  0  0  0  0  0  0  0
   60.5266   31.3386   49.8348 H   0  0  0  0  0  0  0  0  0  0  0  0
   60.0854   31.9904   46.9657 H   0  0  0  0  0  0  0  0  0  0  0  0
   61.6061   31.3633   46.2041 H   0  0  0  0  0  0  0  0  0  0  0  0
   59.6511   30.6856   44.8857 H   0  0  0  0  0  0  0  0  0  0  0  0
   60.4440   29.2509   45.6607 H   0  0  0  0  0  0  0  0  0  0  0  0
   58.8917   27.9174   45.5261 H   0  0  0  0  0  0  0  0  0  0  0  0
   57.5187   27.9777   46.7054 H   0  0  0  0  0  0  0  0  0  0  0  0
   57.5944   28.6969   43.7984 H   0  0  0  0  0  0  0  0  0  0  0  0
   56.2577   28.0242   44.8063 H   0  0  0  0  0  0  0  0  0  0  0  0
   56.6300   30.4430   45.8600 H   0  0  0  0  0  0  0  0  0  0  0  0
   57.9751   30.5830   43.4784 H   0  0  0  0  0  0  0  0  0  0  0  0
   56.4052   31.4202   43.2265 H   0  0  0  0  0  0  0  0  0  0  0  0
   58.4144   33.2994   43.0409 H   0  0  0  0  0  0  0  0  0  0  0  0
   59.2790   35.2131   44.4016 H   0  0  0  0  0  0  0  0  0  0  0  0
   58.9845   35.2045   46.8854 H   0  0  0  0  0  0  0  0  0  0  0  0
   57.8282   33.2758   47.9800 H   0  0  0  0  0  0  0  0  0  0  0  0
   57.0210   31.4590   46.6180 H   0  0  0  0  0  0  0  0  0  0  0  0
   58.3416   30.7056   48.3523 H   0  0  0  0  0  0  0  0  0  0  0  0
   57.9801   28.9262   48.2903 H   0  0  0  0  0  0  0  0  0  0  0  0
   60.0560   29.3734   49.5453 H   0  0  0  0  0  0  0  0  0  0  0  0
   60.3659   28.4426   48.0161 H   0  0  0  0  0  0  0  0  0  0  0  0
  1  2  1  0
  2  3  1  0
  2  4  1  0
  4  5  1  0
  5  6  1  0
  6  7  1  0
  7  8  1  0
  8  9  1  0
  9 10  1  0
 10 11  1  0
 11 12  1  0
 12 13  1  0
 13 14  1  0
 14 15  2  0
 15 16  1  0
 16 17  2  0
 17 18  1  0
 18 19  2  0
  9 20  1  0
 20 21  1  0
 21  6  1  0
 19 14  1  0
  1 22  1  0
  1 23  1  0
  1 24  1  0
  3 25  1  0
  3 26  1  0
  3 27  1  0
  4 28  1  0
  4 29  1  0
  5 30  1  0
  5 31  1  0
  7 32  1  0
  7 33  1  0
  8 34  1  0
  8 35  1  0
 10 36  1  0
 10 37  1  0
 11 38  1  0
 11 39  1  0
 12 40  1  0
 13 41  1  0
 13 42  1  0
 15 43  1  0
 16 44  1  0
 17 45  1  0
 18 46  1  0
 19 47  1  0
 20 48  1  0
 20 49  1  0
 21 50  1  0
 21 51  1  0
M  CHG  1  19   1
M  END
>  <UniqueID>  (27) 
27

>  <SMILES>  (27) 
CN(C)CCN1CCN(CCNCc2cccc[nH+]2)CC1

>  <Energy>  (27) 
63.22772745730398

>  <Genealogy>  (27) 
CN(C)CCN1CCN(CCNCc2cccc[nH+]2)CC1 (protonated)
CN(C)CCN1CCN(CCNCc2cccc[nH+]2)CC1 (3D coordinates assigned)
CN(C)CCN1CCN(CCNCc2cccc[nH+]2)CC1 (nonaromatic ring conformer: 63.22772745730398 kcal/mol)

>  <smiles>  (27) 
CN(C)CCN1CCN(CCNCc2ccccn2)CC1

>  <score_type>  (27) 
oracle

>  <origin>  (27) 
adg

>  <m_score__min__energy>  (27) 
-5.6200000000000001

>  <m_primary>  (27) 
energy

$$$$
27:0
     RDKit          3D

 39 40  0  0  0  0  0  0  0  0999 V2000
   57.8010   28.2530   44.2750 C   0  0  0  0  0  0  0  0  0  0  0  0
   56.9940   28.9240   45.3820 C   0  0  0  0  0  0  0  0  0  0  0  0
   56.0310   29.8010   44.8270 O   0  0  0  0  0  0  0  0  0  0  0  0
   56.4460   30.2960   43.5670 C   0  0  0  0  0  0  0  0  0  0  0  0
   57.2930   31.5590   43.7490 C   0  0  0  0  0  0  0  0  0  0  0  0
   57.2200   32.0370   45.1300 N   0  0  0  0  0  0  0  0  0  0  0  0
   58.3300   32.5800   45.8730 C   0  0  0  0  0  0  0  0  0  0  0  0
   58.4610   33.9540   46.1190 C   0  0  0  0  0  0  0  0  0  0  0  0
   59.5520   34.4420   46.8350 C   0  0  0  0  0  0  0  0  0  0  0  0
   60.5480   33.5790   47.3250 C   0  0  0  0  0  0  0  0  0  0  0  0
   60.3990   32.1760   47.1270 C   0  0  0  0  0  0  0  0  0  0  0  0
   59.3010   31.7060   46.3820 C   0  0  0  0  0  0  0  0  0  0  0  0
   61.4100   31.1440   47.5960 C   0  0  0  0  0  0  0  0  0  0  0  0
   62.8470   31.4390   47.1400 C   0  0  0  0  0  0  0  0  0  0  0  0
   63.4970   32.5000   47.9270 N   0  0  0  0  0  0  0  0  0  0  0  0
   63.0730   33.8650   47.5810 C   0  0  0  0  0  0  0  0  0  0  0  0
   61.6790   34.2080   48.1200 C   0  0  0  0  0  0  0  0  0  0  0  0
   58.5737   27.6105   44.7225 H   0  0  0  0  0  0  0  0  0  0  0  0
   57.1314   27.6417   43.6521 H   0  0  0  0  0  0  0  0  0  0  0  0
   58.2798   29.0229   43.6521 H   0  0  0  0  0  0  0  0  0  0  0  0
   56.4822   28.1526   45.9762 H   0  0  0  0  0  0  0  0  0  0  0  0
   57.6770   29.5020   46.0219 H   0  0  0  0  0  0  0  0  0  0  0  0
   57.0437   29.5283   43.0537 H   0  0  0  0  0  0  0  0  0  0  0  0
   55.5574   30.5425   42.9673 H   0  0  0  0  0  0  0  0  0  0  0  0
   58.3400   31.3303   43.5011 H   0  0  0  0  0  0  0  0  0  0  0  0
   56.9052   32.3436   43.0826 H   0  0  0  0  0  0  0  0  0  0  0  0
   56.2870   31.9820   45.6000 H   0  0  0  0  0  0  0  0  0  0  0  0
   57.6973   34.6514   45.7442 H   0  0  0  0  0  0  0  0  0  0  0  0
   59.6357   35.5230   47.0205 H   0  0  0  0  0  0  0  0  0  0  0  0
   59.2024   30.6266   46.1946 H   0  0  0  0  0  0  0  0  0  0  0  0
   61.3931   31.1153   48.6955 H   0  0  0  0  0  0  0  0  0  0  0  0
   61.1205   30.1821   47.1478 H   0  0  0  0  0  0  0  0  0  0  0  0
   63.4408   30.5181   47.2365 H   0  0  0  0  0  0  0  0  0  0  0  0
   62.7950   31.7887   46.0984 H   0  0  0  0  0  0  0  0  0  0  0  0
   64.5310   32.4390   47.7720 H   0  0  0  0  0  0  0  0  0  0  0  0
   63.7981   34.5761   48.0035 H   0  0  0  0  0  0  0  0  0  0  0  0
   63.0296   33.9306   46.4838 H   0  0  0  0  0  0  0  0  0  0  0  0
   61.6116   33.8550   49.1596 H   0  0  0  0  0  0  0  0  0  0  0  0
   61.5617   35.2988   48.0401 H   0  0  0  0  0  0  0  0  0  0  0  0
  1  2  1  0
  2  3  1  0
  3  4  1  0
  4  5  1  0
  5  6  1  0
  6  7  1  0
  7  8  2  0
  8  9  1  0
  9 10  2  0
 10 11  1  0
 11 12  2  0
 11 13  1  0
 13 14  1  0
 14 15  1  0
 15 16  1  0
 16 17  1  0
 12  7  1  0
 17 10  1  0
  1 18  1  0
  1 19  1  0
  1 20  1  0
  2 21  1  0
  2 22  1  0
  4 23  1  0
  4 24  1  0
  5 25  1  0
  5 26  1  0
  6 27  1  0
  8 28  1  0
  9 29  1  0
 12 30  1  0
 13 31  1  0
 13 32  1  0
 14 33  1  0
 14 34  1  0
 15 35  1  0
 16 36  1  0
 16 37  1  0
 17 38  1  0
 17 39  1  0
M  END
>  <UniqueID>  (28) 
28

>  <SMILES>  (28) 
CCOCCNc1ccc2c(c1)CCNCC2

>  <Energy>  (28) 
46.8447348728

>  <Genealogy>  (28) 
CCOCCNc1ccc2c(c1)CCNCC2 (3D coordinates assigned)
CCOCCNc1ccc2c(c1)CCNCC2 (nonaromatic ring conformer: 46.8447348728 kcal/mol)

>  <smiles>  (28) 
CCOCCNc1ccc2c(c1)CCNCC2

>  <score_type>  (28) 
oracle

>  <origin>  (28) 
adg

>  <m_score__min__energy>  (28) 
-4.79

>  <m_primary>  (28) 
energy

$$$$
28:0
     RDKit          3D

 46 48  0  0  0  0  0  0  0  0999 V2000
   60.4230   26.3970   46.8010 C   0  0  0  0  0  0  0  0  0  0  0  0
   59.8800   27.6840   46.2560 C   0  0  0  0  0  0  0  0  0  0  0  0
   59.2170   27.7050   45.0280 C   0  0  0  0  0  0  0  0  0  0  0  0
   58.7350   28.9040   44.5060 C   0  0  0  0  0  0  0  0  0  0  0  0
   58.8950   30.1260   45.2060 C   0  0  0  0  0  0  0  0  0  0  0  0
   59.6240   30.1090   46.4240 C   0  0  0  0  0  0  0  0  0  0  0  0
   60.1100   28.8860   46.9320 C   0  0  0  0  0  0  0  0  0  0  0  0
   59.8480   31.3150   47.1110 C   0  0  0  0  0  0  0  0  0  0  0  0
   60.4400   31.3000   48.4230 N   0  0  0  0  0  0  0  0  0  0  0  0
   61.8910   31.2460   48.6190 C   0  0  0  0  0  0  0  0  0  0  0  0
   62.6480   31.6760   47.3550 C   0  0  0  0  0  0  0  0  0  0  0  0
   63.4440   32.9000   47.5890 N   0  0  0  0  0  0  0  0  0  0  0  0
   63.3570   33.8210   46.4430 C   0  0  0  0  0  0  0  0  0  0  0  0
   62.9760   33.5860   48.8050 C   0  0  0  0  0  0  0  0  0  0  0  0
   59.5120   32.5310   46.4930 C   0  0  0  0  0  0  0  0  0  0  0  0
   59.9240   33.7620   47.0440 C   0  0  0  0  0  0  0  0  0  0  0  0
   59.6170   34.9650   46.4120 C   0  0  0  0  0  0  0  0  0  0  0  0
   58.9170   34.9600   45.2110 C   0  0  0  0  0  0  0  0  0  0  0  0
   58.5130   33.7560   44.6370 C   0  0  0  0  0  0  0  0  0  0  0  0
   58.7820   32.5160   45.2730 C   0  0  0  0  0  0  0  0  0  0  0  0
   58.3750   31.3140   44.7260 N   0  0  0  0  0  0  0  0  0  0  0  0
   57.3760   31.2970   43.6340 C   0  0  0  0  0  0  0  0  0  0  0  0
   60.4093   26.4296   47.9004 H   0  0  0  0  0  0  0  0  0  0  0  0
   59.8015   25.5595   46.4512 H   0  0  0  0  0  0  0  0  0  0  0  0
   61.4566   26.2578   46.4512 H   0  0  0  0  0  0  0  0  0  0  0  0
   59.0739   26.7689   44.4684 H   0  0  0  0  0  0  0  0  0  0  0  0
   58.2212   28.9019   43.5334 H   0  0  0  0  0  0  0  0  0  0  0  0
   60.6783   28.8779   47.8738 H   0  0  0  0  0  0  0  0  0  0  0  0
   59.8210   31.4010   49.2590 H   0  0  0  0  0  0  0  0  0  0  0  0
   62.1649   31.9184   49.4453 H   0  0  0  0  0  0  0  0  0  0  0  0
   62.1687   30.2069   48.8497 H   0  0  0  0  0  0  0  0  0  0  0  0
   63.3236   30.8635   47.0494 H   0  0  0  0  0  0  0  0  0  0  0  0
   61.9104   31.8898   46.5674 H   0  0  0  0  0  0  0  0  0  0  0  0
   63.2594   34.8537   46.8091 H   0  0  0  0  0  0  0  0  0  0  0  0
   64.2674   33.7331   45.8320 H   0  0  0  0  0  0  0  0  0  0  0  0
   62.4791   33.5641   45.8320 H   0  0  0  0  0  0  0  0  0  0  0  0
   63.3421   33.0493   49.6927 H   0  0  0  0  0  0  0  0  0  0  0  0
   63.3601   34.6167   48.8154 H   0  0  0  0  0  0  0  0  0  0  0  0
   61.8762   33.6044   48.8154 H   0  0  0  0  0  0  0  0  0  0  0  0
   60.4947   33.7725   47.9843 H   0  0  0  0  0  0  0  0  0  0  0  0
   59.9284   35.9186   46.8632 H   0  0  0  0  0  0  0  0  0  0  0  0
   58.6808   35.9110   44.7112 H   0  0  0  0  0  0  0  0  0  0  0  0
   57.9774   33.7669   43.6763 H   0  0  0  0  0  0  0  0  0  0  0  0
   56.3635   31.2798   44.0636 H   0  0  0  0  0  0  0  0  0  0  0  0
   57.4958   32.1973   43.0134 H   0  0  0  0  0  0  0  0  0  0  0  0
   57.5263   30.4013   43.0134 H   0  0  0  0  0  0  0  0  0  0  0  0
  1  2  1  0
  2  3  2  0
  3  4  1  0
  4  5  2  0
  5  6  1  0
  6  7  2  0
  6  8  1  0
  8  9  1  0
  9 10  1  0
 10 11  1  0
 11 12  1  0
 12 13  1  0
 12 14  1  0
  8 15  2  0
 15 16  1  0
 16 17  2  0
 17 18  1  0
 18 19  2  0
 19 20  1  0
 20 21  2  0
 21 22  1  0
  7  2  1  0
 20 15  1  0
 21  5  1  0
  1 23  1  0
  1 24  1  0
  1 25  1  0
  3 26  1  0
  4 27  1  0
  7 28  1  0
  9 29  1  0
 10 30  1  0
 10 31  1  0
 11 32  1  0
 11 33  1  0
 13 34  1  0
 13 35  1  0
 13 36  1  0
 14 37  1  0
 14 38  1  0
 14 39  1  0
 16 40  1  0
 17 41  1  0
 18 42  1  0
 19 43  1  0
 22 44  1  0
 22 45  1  0
 22 46  1  0
M  CHG  1  21   1
M  END
>  <UniqueID>  (29) 
29

>  <SMILES>  (29) 
Cc1ccc2c(c1)c(NCCN(C)C)c1ccccc1[n+]2C

>  <Energy>  (29) 
70.07620750776007

>  <Genealogy>  (29) 
Cc1ccc2c(c1)c(NCCN(C)C)c1ccccc1[n+]2C (3D coordinates assigned)
Cc1ccc2c(c1)c(NCCN(C)C)c1ccccc1[n+]2C (optimized conformer: 70.07620750776007 kcal/mol)

>  <smiles>  (29) 
Cc1ccc2c(c1)c(NCCN(C)C)c1ccccc1[n+]2C

>  <score_type>  (29) 
oracle

>  <origin>  (29) 
adg

>  <m_score__min__energy>  (29) 
-5.4000000000000004

>  <m_primary>  (29) 
energy

$$$$
29:0
     RDKit          3D

 41 43  0  0  0  0  0  0  0  0999 V2000
   62.2440   33.5770   47.9050 C   0  0  0  0  0  0  0  0  0  0  0  0
   61.3440   34.2020   48.9640 C   0  0  0  0  0  0  0  0  0  0  0  0
   60.0980   34.6060   48.3970 O   0  0  0  0  0  0  0  0  0  0  0  0
   59.4280   33.9620   47.3430 C   0  0  0  0  0  0  0  0  0  0  0  0
   59.3910   34.4900   46.0370 C   0  0  0  0  0  0  0  0  0  0  0  0
   58.7120   33.8160   45.0210 C   0  0  0  0  0  0  0  0  0  0  0  0
   58.0530   32.6090   45.2890 C   0  0  0  0  0  0  0  0  0  0  0  0
   57.3540   31.8650   44.1800 C   0  0  0  0  0  0  0  0  0  0  0  0
   58.2460   30.8510   43.6010 N   0  0  0  0  0  0  0  0  0  0  0  0
   58.1280   29.6140   44.3320 C   0  0  0  0  0  0  0  0  0  0  0  0
   59.2950   28.9140   44.7460 C   0  0  0  0  0  0  0  0  0  0  0  0
   59.1920   27.6910   45.4340 C   0  0  0  0  0  0  0  0  0  0  0  0
   57.9160   27.1930   45.6830 C   0  0  0  0  0  0  0  0  0  0  0  0
   57.5900   26.0540   46.3110 N   0  0  0  0  0  0  0  0  0  0  0  0
   56.2330   26.0800   46.2570 C   0  0  0  0  0  0  0  0  0  0  0  0
   55.5210   25.1670   46.7470 O   0  0  0  0  0  0  0  0  0  0  0  0
   55.6990   27.1620   45.6340 N   0  0  0  0  0  0  0  0  0  0  0  0
   56.7940   27.8500   45.2810 C   0  0  0  0  0  0  0  0  0  0  0  0
   56.8530   29.0630   44.5990 C   0  0  0  0  0  0  0  0  0  0  0  0
   58.1030   32.0700   46.5810 C   0  0  0  0  0  0  0  0  0  0  0  0
   58.7850   32.7440   47.6130 C   0  0  0  0  0  0  0  0  0  0  0  0
   58.8480   32.2340   48.9200 O   0  0  0  0  0  0  0  0  0  0  0  0
   59.1700   30.8850   49.2470 C   0  0  0  0  0  0  0  0  0  0  0  0
   63.0525   33.0155   48.3959 H   0  0  0  0  0  0  0  0  0  0  0  0
   61.6523   32.8945   47.2773 H   0  0  0  0  0  0  0  0  0  0  0  0
   62.6769   34.3699   47.2773 H   0  0  0  0  0  0  0  0  0  0  0  0
   61.1564   33.4647   49.7584 H   0  0  0  0  0  0  0  0  0  0  0  0
   61.8478   35.0890   49.3756 H   0  0  0  0  0  0  0  0  0  0  0  0
   59.9007   35.4396   45.8169 H   0  0  0  0  0  0  0  0  0  0  0  0
   58.6941   34.2348   44.0040 H   0  0  0  0  0  0  0  0  0  0  0  0
   56.4578   31.3712   44.5837 H   0  0  0  0  0  0  0  0  0  0  0  0
   57.0701   32.5806   43.3943 H   0  0  0  0  0  0  0  0  0  0  0  0
   57.9950   30.6920   42.5970 H   0  0  0  0  0  0  0  0  0  0  0  0
   59.2370   31.1880   43.6380 H   0  0  0  0  0  0  0  0  0  0  0  0
   60.2880   29.3330   44.5261 H   0  0  0  0  0  0  0  0  0  0  0  0
   60.0892   27.1468   45.7639 H   0  0  0  0  0  0  0  0  0  0  0  0
   55.9352   29.5772   44.2776 H   0  0  0  0  0  0  0  0  0  0  0  0
   57.6053   31.1119   46.7916 H   0  0  0  0  0  0  0  0  0  0  0  0
   59.1976   30.7694   50.3406 H   0  0  0  0  0  0  0  0  0  0  0  0
   58.4069   30.2136   48.8264 H   0  0  0  0  0  0  0  0  0  0  0  0
   60.1541   30.6306   48.8264 H   0  0  0  0  0  0  0  0  0  0  0  0
  1  2  1  0
  2  3  1  0
  3  4  1  0
  4  5  2  0
  5  6  1  0
  6  7  2  0
  7  8  1  0
  8  9  1  0
  9 10  1  0
 10 11  2  0
 11 12  1  0
 12 13  2  0
 13 14  1  0
 14 15  1  0
 15 16  2  0
 15 17  1  0
 17 18  1  0
 18 19  2  0
  7 20  1  0
 20 21  2  0
 21 22  1  0
 22 23  1  0
 21  4  1  0
 19 10  1  0
 18 13  1  0
  1 24  1  0
  1 25  1  0
  1 26  1  0
  2 27  1  0
  2 28  1  0
  5 29  1  0
  6 30  1  0
  8 31  1  0
  8 32  1  0
  9 33  1  0
  9 34  1  0
 11 35  1  0
 12 36  1  0
 19 37  1  0
 20 38  1  0
 23 39  1  0
 23 40  1  0
 23 41  1  0
M  CHG  3   9   1  14  -1  17  -1
M  END
>  <UniqueID>  (30) 
30

>  <SMILES>  (30) 
CCOc1ccc(C[NH2+]c2ccc3[n-]c(=O)[n-]c3c2)cc1OC

>  <Energy>  (30) 
75.80592806937787

>  <Genealogy>  (30) 
CCOc1ccc(C[NH2+]c2ccc3[n-]c(=O)[n-]c3c2)cc1OC (protonated)
CCOc1ccc(C[NH2+]c2ccc3[n-]c(=O)[n-]c3c2)cc1OC (3D coordinates assigned)
CCOc1ccc(C[NH2+]c2ccc3[n-]c(=O)[n-]c3c2)cc1OC (optimized conformer: 75.80592806937787 kcal/mol)

>  <smiles>  (30) 
CCOc1ccc(CNc2ccc3[nH]c(=O)[nH]c3c2)cc1OC

>  <score_type>  (30) 
oracle

>  <origin>  (30) 
adg

>  <m_score__min__energy>  (30) 
-9.0700000000000003

>  <m_primary>  (30) 
energy

$$$$
30:0
     RDKit          3D

 56 57  0  0  0  0  0  0  0  0999 V2000
   65.5010   32.7980   49.7830 C   0  0  0  0  0  0  0  0  0  0  0  0
   64.2050   31.9990   49.6360 C   0  0  0  0  0  0  0  0  0  0  0  0
   63.2650   32.6420   48.6910 N   0  0  0  0  0  0  0  0  0  0  0  0
   63.7420   32.7300   47.2860 C   0  0  0  0  0  0  0  0  0  0  0  0
   63.0740   33.8380   46.4590 C   0  0  0  0  0  0  0  0  0  0  0  0
   62.7410   33.9350   49.1950 C   0  0  0  0  0  0  0  0  0  0  0  0
   61.6870   33.6910   50.2830 C   0  0  0  0  0  0  0  0  0  0  0  0
   60.3830   33.9590   49.7900 O   0  0  0  0  0  0  0  0  0  0  0  0
   59.4380   33.0120   50.2560 C   0  0  0  0  0  0  0  0  0  0  0  0
   59.8150   31.5990   49.8070 C   0  0  0  0  0  0  0  0  0  0  0  0
   60.4470   31.6410   48.4880 N   0  0  0  0  0  0  0  0  0  0  0  0
   59.6740   31.5240   47.2790 C   0  0  0  0  0  0  0  0  0  0  0  0
   59.1800   30.2700   46.8820 C   0  0  0  0  0  0  0  0  0  0  0  0
   59.4250   29.0310   47.7060 C   0  0  0  0  0  0  0  0  0  0  0  0
   58.4750   30.1630   45.6800 C   0  0  0  0  0  0  0  0  0  0  0  0
   58.2200   31.2540   44.8930 N   0  0  0  0  0  0  0  0  0  0  0  0
   57.4550   31.0200   43.6500 C   0  0  0  0  0  0  0  0  0  0  0  0
   56.6270   29.7430   43.7550 C   0  0  0  0  0  0  0  0  0  0  0  0
   58.6800   32.5020   45.2640 C   0  0  0  0  0  0  0  0  0  0  0  0
   58.4620   33.6520   44.4650 C   0  0  0  0  0  0  0  0  0  0  0  0
   58.9010   34.9100   44.8780 C   0  0  0  0  0  0  0  0  0  0  0  0
   59.5590   35.0580   46.0920 C   0  0  0  0  0  0  0  0  0  0  0  0
   59.8020   33.9450   46.8970 C   0  0  0  0  0  0  0  0  0  0  0  0
   59.3980   32.6570   46.4860 C   0  0  0  0  0  0  0  0  0  0  0  0
   65.7268   32.9372   50.8505 H   0  0  0  0  0  0  0  0  0  0  0  0
   66.3254   32.2512   49.3021 H   0  0  0  0  0  0  0  0  0  0  0  0
   65.3828   33.7802   49.3021 H   0  0  0  0  0  0  0  0  0  0  0  0
   64.4480   30.9920   49.2661 H   0  0  0  0  0  0  0  0  0  0  0  0
   63.7192   31.9526   50.6218 H   0  0  0  0  0  0  0  0  0  0  0  0
   64.8257   32.9178   47.3015 H   0  0  0  0  0  0  0  0  0  0  0  0
   63.4796   31.7765   46.8044 H   0  0  0  0  0  0  0  0  0  0  0  0
   62.6261   34.5809   47.1353 H   0  0  0  0  0  0  0  0  0  0  0  0
   63.8279   34.3271   45.8246 H   0  0  0  0  0  0  0  0  0  0  0  0
   62.2895   33.3997   45.8246 H   0  0  0  0  0  0  0  0  0  0  0  0
   63.5693   34.5232   49.6168 H   0  0  0  0  0  0  0  0  0  0  0  0
   62.2771   34.4837   48.3621 H   0  0  0  0  0  0  0  0  0  0  0  0
   61.7409   32.6417   50.6087 H   0  0  0  0  0  0  0  0  0  0  0  0
   61.8900   34.3649   51.1284 H   0  0  0  0  0  0  0  0  0  0  0  0
   59.4073   33.0446   51.3551 H   0  0  0  0  0  0  0  0  0  0  0  0
   58.4525   33.2630   49.8368 H   0  0  0  0  0  0  0  0  0  0  0  0
   60.5168   31.1620   50.5327 H   0  0  0  0  0  0  0  0  0  0  0  0
   58.9041   30.9850   49.7498 H   0  0  0  0  0  0  0  0  0  0  0  0
   61.4040   32.0580   48.4320 H   0  0  0  0  0  0  0  0  0  0  0  0
   59.3746   29.2857   48.7749 H   0  0  0  0  0  0  0  0  0  0  0  0
   58.6584   28.2776   47.4721 H   0  0  0  0  0  0  0  0  0  0  0  0
   60.4206   28.6260   47.4721 H   0  0  0  0  0  0  0  0  0  0  0  0
   58.1150   29.1749   45.3573 H   0  0  0  0  0  0  0  0  0  0  0  0
   56.7823   31.8725   43.4748 H   0  0  0  0  0  0  0  0  0  0  0  0
   58.1633   30.9130   42.8152 H   0  0  0  0  0  0  0  0  0  0  0  0
   56.4668   29.4960   44.8149 H   0  0  0  0  0  0  0  0  0  0  0  0
   55.6550   29.8948   43.2629 H   0  0  0  0  0  0  0  0  0  0  0  0
   57.1622   28.9175   43.2629 H   0  0  0  0  0  0  0  0  0  0  0  0
   57.9379   33.5509   43.5032 H   0  0  0  0  0  0  0  0  0  0  0  0
   58.7253   35.7883   44.2395 H   0  0  0  0  0  0  0  0  0  0  0  0
   59.8892   36.0549   46.4194 H   0  0  0  0  0  0  0  0  0  0  0  0
   60.3139   34.0727   47.8622 H   0  0  0  0  0  0  0  0  0  0  0  0
  1  2  1  0
  2  3  1  0
  3  4  1  0
  4  5  1  0
  3  6  1  0
  6  7  1  0
  7  8  1  0
  8  9  1  0
  9 10  1  0
 10 11  1  0
 11 12  1  0
 12 13  2  0
 13 14  1  0
 13 15  1  0
 15 16  2  0
 16 17  1  0
 17 18  1  0
 16 19  1  0
 19 20  2  0
 20 21  1  0
 21 22  2  0
 22 23  1  0
 23 24  2  0
 24 12  1  0
 24 19  1  0
  1 25  1  0
  1 26  1  0
  1 27  1  0
  2 28  1  0
  2 29  1  0
  4 30  1  0
  4 31  1  0
  5 32  1  0
  5 33  1  0
  5 34  1  0
  6 35  1  0
  6 36  1  0
  7 37  1  0
  7 38  1  0
  9 39  1  0
  9 40  1  0
 10 41  1  0
 10 42  1  0
 11 43  1  0
 14 44  1  0
 14 45  1  0
 14 46  1  0
 15 47  1  0
 17 48  1  0
 17 49  1  0
 18 50  1  0
 18 51  1  0
 18 52  1  0
 20 53  1  0
 21 54  1  0
 22 55  1  0
 23 56  1  0
M  CHG  1  16   1
M  END
>  <UniqueID>  (31) 
31

>  <SMILES>  (31) 
CCN(CC)CCOCCNc1c(C)c[n+](CC)c2ccccc12

>  <Energy>  (31) 
68.67120008941443

>  <Genealogy>  (31) 
CCN(CC)CCOCCNc1c(C)c[n+](CC)c2ccccc12 (3D coordinates assigned)
CCN(CC)CCOCCNc1c(C)c[n+](CC)c2ccccc12 (optimized conformer: 68.67120008941443 kcal/mol)

>  <smiles>  (31) 
CCN(CC)CCOCCNc1c(C)c[n+](CC)c2ccccc12

>  <score_type>  (31) 
oracle

>  <origin>  (31) 
adg

>  <m_score__min__energy>  (31) 
-5.1900000000000004

>  <m_primary>  (31) 
energy

$$$$
31:0
     RDKit          3D

 43 46  0  0  0  0  0  0  0  0999 V2000
   58.6780   27.0950   42.9630 C   0  0  0  0  0  0  0  0  0  0  0  0
   57.3880   27.6690   43.3480 N   0  0  0  0  0  0  0  0  0  0  0  0
   57.5580   29.0320   43.8010 C   0  0  0  0  0  0  0  0  0  0  0  0
   56.9980   30.0780   43.0470 C   0  0  0  0  0  0  0  0  0  0  0  0
   57.0870   31.4010   43.4760 C   0  0  0  0  0  0  0  0  0  0  0  0
   57.7300   31.7120   44.6840 C   0  0  0  0  0  0  0  0  0  0  0  0
   57.8310   33.0350   45.1520 C   0  0  0  0  0  0  0  0  0  0  0  0
   57.3420   33.9890   44.4840 O   0  0  0  0  0  0  0  0  0  0  0  0
   58.4830   33.2860   46.3710 C   0  0  0  0  0  0  0  0  0  0  0  0
   58.6180   34.5840   46.8960 C   0  0  0  0  0  0  0  0  0  0  0  0
   59.2750   34.7830   48.1150 C   0  0  0  0  0  0  0  0  0  0  0  0
   59.8000   33.6950   48.8170 C   0  0  0  0  0  0  0  0  0  0  0  0
   59.6730   32.4010   48.3040 C   0  0  0  0  0  0  0  0  0  0  0  0
   59.0170   32.1900   47.0850 C   0  0  0  0  0  0  0  0  0  0  0  0
   58.9020   30.9560   46.6090 O   0  0  0  0  0  0  0  0  0  0  0  0
   58.2920   30.6740   45.4610 C   0  0  0  0  0  0  0  0  0  0  0  0
   58.2100   29.3360   45.0250 C   0  0  0  0  0  0  0  0  0  0  0  0
   58.7980   28.2720   45.8680 C   0  0  0  0  0  0  0  0  0  0  0  0
   60.1350   28.3770   46.2840 C   0  0  0  0  0  0  0  0  0  0  0  0
   60.6980   27.3950   47.1000 C   0  0  0  0  0  0  0  0  0  0  0  0
   59.9280   26.3080   47.5170 C   0  0  0  0  0  0  0  0  0  0  0  0
   58.5930   26.2000   47.1220 C   0  0  0  0  0  0  0  0  0  0  0  0
   58.0130   27.1840   46.2960 C   0  0  0  0  0  0  0  0  0  0  0  0
   56.6710   27.1120   45.8820 O   0  0  0  0  0  0  0  0  0  0  0  0
   55.8630   25.9440   45.9670 C   0  0  0  0  0  0  0  0  0  0  0  0
   59.2505   26.8403   43.8671 H   0  0  0  0  0  0  0  0  0  0  0  0
   58.5114   26.1861   42.3663 H   0  0  0  0  0  0  0  0  0  0  0  0
   59.2417   27.8272   42.3663 H   0  0  0  0  0  0  0  0  0  0  0  0
   56.9760   27.0850   44.1140 H   0  0  0  0  0  0  0  0  0  0  0  0
   56.7280   27.6150   42.5400 H   0  0  0  0  0  0  0  0  0  0  0  0
   56.4813   29.8486   42.1034 H   0  0  0  0  0  0  0  0  0  0  0  0
   56.6512   32.2052   42.8649 H   0  0  0  0  0  0  0  0  0  0  0  0
   58.2064   35.4439   46.3472 H   0  0  0  0  0  0  0  0  0  0  0  0
   59.3786   35.7996   48.5222 H   0  0  0  0  0  0  0  0  0  0  0  0
   60.3145   33.8572   49.7757 H   0  0  0  0  0  0  0  0  0  0  0  0
   60.0890   31.5471   48.8587 H   0  0  0  0  0  0  0  0  0  0  0  0
   60.7415   29.2375   45.9651 H   0  0  0  0  0  0  0  0  0  0  0  0
   61.7488   27.4775   47.4147 H   0  0  0  0  0  0  0  0  0  0  0  0
   60.3742   25.5340   48.1588 H   0  0  0  0  0  0  0  0  0  0  0  0
   57.9909   25.3426   47.4572 H   0  0  0  0  0  0  0  0  0  0  0  0
   55.6900   25.6940   47.0241 H   0  0  0  0  0  0  0  0  0  0  0  0
   54.8985   26.1285   45.4713 H   0  0  0  0  0  0  0  0  0  0  0  0
   56.3758   25.1065   45.4713 H   0  0  0  0  0  0  0  0  0  0  0  0
  1  2  1  0
  2  3  1  0
  3  4  2  0
  4  5  1  0
  5  6  2  0
  6  7  1  0
  7  8  2  0
  7  9  1  0
  9 10  2  0
 10 11  1  0
 11 12  2  0
 12 13  1  0
 13 14  2  0
 14 15  1  0
 15 16  1  0
 16 17  2  0
 17 18  1  0
 18 19  2  0
 19 20  1  0
 20 21  2  0
 21 22  1  0
 22 23  2  0
 23 24  1  0
 24 25  1  0
 17  3  1  0
 23 18  1  0
 16  6  1  0
 14  9  1  0
  1 26  1  0
  1 27  1  0
  1 28  1  0
  2 29  1  0
  2 30  1  0
  4 31  1  0
  5 32  1  0
 10 33  1  0
 11 34  1  0
 12 35  1  0
 13 36  1  0
 19 37  1  0
 20 38  1  0
 21 39  1  0
 22 40  1  0
 25 41  1  0
 25 42  1  0
 25 43  1  0
M  CHG  1   2   1
M  END
>  <UniqueID>  (32) 
32

>  <SMILES>  (32) 
C[NH2+]c1ccc2c(=O)c3ccccc3oc2c1-c1ccccc1OC

>  <Energy>  (32) 
63.87492776902727

>  <Genealogy>  (32) 
C[NH2+]c1ccc2c(=O)c3ccccc3oc2c1-c1ccccc1OC (protonated)
C[NH2+]c1ccc2c(=O)c3ccccc3oc2c1-c1ccccc1OC (3D coordinates assigned)
C[NH2+]c1ccc2c(=O)c3ccccc3oc2c1-c1ccccc1OC (optimized conformer: 63.87492776902727 kcal/mol)

>  <smiles>  (32) 
CNc1ccc2c(=O)c3ccccc3oc2c1-c1ccccc1OC

>  <score_type>  (32) 
oracle

>  <origin>  (32) 
adg

>  <m_score__min__energy>  (32) 
-6.6299999999999999

>  <m_primary>  (32) 
energy

$$$$
32:0
     RDKit          3D

 55 58  0  0  0  0  0  0  0  0999 V2000
   61.1120   26.5530   51.0520 C   0  0  0  0  0  0  0  0  0  0  0  0
   60.8510   27.8480   50.3530 C   0  0  0  0  0  0  0  0  0  0  0  0
   61.1740   29.0730   50.9810 C   0  0  0  0  0  0  0  0  0  0  0  0
   60.8810   30.2730   50.3170 C   0  0  0  0  0  0  0  0  0  0  0  0
   60.2990   30.1950   49.0970 N   0  0  0  0  0  0  0  0  0  0  0  0
   59.8980   31.1920   48.3280 N   0  0  0  0  0  0  0  0  0  0  0  0
   59.3340   30.6550   47.2190 C   0  0  0  0  0  0  0  0  0  0  0  0
   58.6700   31.4520   46.1720 C   0  0  0  0  0  0  0  0  0  0  0  0
   58.4300   30.8650   44.9210 C   0  0  0  0  0  0  0  0  0  0  0  0
   57.8280   31.6010   43.9000 C   0  0  0  0  0  0  0  0  0  0  0  0
   57.4510   32.9250   44.1230 C   0  0  0  0  0  0  0  0  0  0  0  0
   57.6640   33.5150   45.3710 C   0  0  0  0  0  0  0  0  0  0  0  0
   58.2710   32.7840   46.4130 C   0  0  0  0  0  0  0  0  0  0  0  0
   58.4630   33.3270   47.6960 O   0  0  0  0  0  0  0  0  0  0  0  0
   59.2720   34.4610   48.0090 C   0  0  0  0  0  0  0  0  0  0  0  0
   60.4350   34.5870   47.0210 C   0  0  0  0  0  0  0  0  0  0  0  0
   61.6340   33.8380   47.5210 C   0  0  0  0  0  0  0  0  0  0  0  0
   62.6710   33.4780   46.6480 C   0  0  0  0  0  0  0  0  0  0  0  0
   63.7580   32.7510   47.1380 C   0  0  0  0  0  0  0  0  0  0  0  0
   63.7980   32.3870   48.4850 C   0  0  0  0  0  0  0  0  0  0  0  0
   62.7440   32.7540   49.3250 C   0  0  0  0  0  0  0  0  0  0  0  0
   61.6930   33.4590   48.8290 N   0  0  0  0  0  0  0  0  0  0  0  0
   59.3710   29.2570   47.3080 C   0  0  0  0  0  0  0  0  0  0  0  0
   58.7230   28.2450   46.4070 C   0  0  0  0  0  0  0  0  0  0  0  0
   59.7390   27.5660   45.5780 N   0  0  0  0  0  0  0  0  0  0  0  0
   60.4050   26.4960   46.3400 C   0  0  0  0  0  0  0  0  0  0  0  0
   60.7400   28.5350   45.1070 C   0  0  0  0  0  0  0  0  0  0  0  0
   59.9950   29.0280   48.5170 C   0  0  0  0  0  0  0  0  0  0  0  0
   60.2470   27.8440   49.1270 N   0  0  0  0  0  0  0  0  0  0  0  0
   61.0802   26.7108   52.1402 H   0  0  0  0  0  0  0  0  0  0  0  0
   60.3435   25.8201   50.7651 H   0  0  0  0  0  0  0  0  0  0  0  0
   62.1044   26.1750   50.7651 H   0  0  0  0  0  0  0  0  0  0  0  0
   61.6473   29.0846   51.9739 H   0  0  0  0  0  0  0  0  0  0  0  0
   61.1164   31.2461   50.7726 H   0  0  0  0  0  0  0  0  0  0  0  0
   59.9860   32.2060   48.5600 H   0  0  0  0  0  0  0  0  0  0  0  0
   58.7181   29.8183   44.7438 H   0  0  0  0  0  0  0  0  0  0  0  0
   57.6507   31.1367   42.9187 H   0  0  0  0  0  0  0  0  0  0  0  0
   56.9846   33.5062   43.3139 H   0  0  0  0  0  0  0  0  0  0  0  0
   57.3561   34.5571   45.5422 H   0  0  0  0  0  0  0  0  0  0  0  0
   58.6546   35.3700   47.9575 H   0  0  0  0  0  0  0  0  0  0  0  0
   59.6814   34.3339   49.0220 H   0  0  0  0  0  0  0  0  0  0  0  0
   60.1299   34.1735   46.0484 H   0  0  0  0  0  0  0  0  0  0  0  0
   60.6984   35.6498   46.9161 H   0  0  0  0  0  0  0  0  0  0  0  0
   62.6285   33.7657   45.5871 H   0  0  0  0  0  0  0  0  0  0  0  0
   64.5799   32.4661   46.4647 H   0  0  0  0  0  0  0  0  0  0  0  0
   64.6512   31.8167   48.8811 H   0  0  0  0  0  0  0  0  0  0  0  0
   62.7645   32.4724   50.3882 H   0  0  0  0  0  0  0  0  0  0  0  0
   58.1978   27.4979   47.0202 H   0  0  0  0  0  0  0  0  0  0  0  0
   58.0110   28.7609   45.7460 H   0  0  0  0  0  0  0  0  0  0  0  0
   60.2873   26.6852   47.4172 H   0  0  0  0  0  0  0  0  0  0  0  0
   59.9501   25.5272   46.0860 H   0  0  0  0  0  0  0  0  0  0  0  0
   61.4751   26.4764   46.0860 H   0  0  0  0  0  0  0  0  0  0  0  0
   61.2282   29.0076   45.9720 H   0  0  0  0  0  0  0  0  0  0  0  0
   61.4949   28.0158   44.4983 H   0  0  0  0  0  0  0  0  0  0  0  0
   60.2456   29.3064   44.4983 H   0  0  0  0  0  0  0  0  0  0  0  0
  1  2  1  0
  2  3  1  0
  3  4  2  0
  4  5  1  0
  5  6  1  0
  6  7  2  0
  7  8  1  0
  8  9  2  0
  9 10  1  0
 10 11  2  0
 11 12  1  0
 12 13  2  0
 13 14  1  0
 14 15  1  0
 15 16  1  0
 16 17  1  0
 17 18  2  0
 18 19  1  0
 19 20  2  0
 20 21  1  0
 21 22  2  0
  7 23  1  0
 23 24  1  0
 24 25  1  0
 25 26  1  0
 25 27  1  0
 23 28  2  0
 28 29  1  0
 29  2  2  0
 28  5  1  0
 13  8  1  0
 22 17  1  0
  1 30  1  0
  1 31  1  0
  1 32  1  0
  3 33  1  0
  4 34  1  0
  6 35  1  0
  9 36  1  0
 10 37  1  0
 11 38  1  0
 12 39  1  0
 15 40  1  0
 15 41  1  0
 16 42  1  0
 16 43  1  0
 18 44  1  0
 19 45  1  0
 20 46  1  0
 21 47  1  0
 24 48  1  0
 24 49  1  0
 26 50  1  0
 26 51  1  0
 26 52  1  0
 27 53  1  0
 27 54  1  0
 27 55  1  0
M  CHG  1   6   1
M  END
>  <UniqueID>  (33) 
33

>  <SMILES>  (33) 
Cc1ccn2[nH+]c(-c3ccccc3OCCc3ccccn3)c(CN(C)C)c2n1

>  <Energy>  (33) 
97.59567722415208

>  <Genealogy>  (33) 
Cc1ccn2[nH+]c(-c3ccccc3OCCc3ccccn3)c(CN(C)C)c2n1 (protonated)
Cc1ccn2[nH+]c(-c3ccccc3OCCc3ccccn3)c(CN(C)C)c2n1 (3D coordinates assigned)
Cc1ccn2[nH+]c(-c3ccccc3OCCc3ccccn3)c(CN(C)C)c2n1 (optimized conformer: 97.59567722415208 kcal/mol)

>  <smiles>  (33) 
Cc1ccn2nc(-c3ccccc3OCCc3ccccn3)c(CN(C)C)c2n1

>  <score_type>  (33) 
oracle

>  <origin>  (33) 
adg

>  <m_score__min__energy>  (33) 
-7.1600000000000001

>  <m_primary>  (33) 
energy

$$$$
33:0
     RDKit          3D

 16 17  0  0  0  0  0  0  0  0999 V2000
   51.0150   33.3180   51.9080 O   0  0  0  0  0  0  0  0  0  0  0  0
   51.3800   32.3470   51.1960 C   0  0  0  0  0  0  0  0  0  0  0  0
   50.8550   32.1970   49.9180 O   0  0  0  0  0  0  0  0  0  0  0  0
   52.3540   31.3790   51.7090 C   0  0  0  0  0  0  0  0  0  0  0  0
   51.9850   30.2060   52.2880 N   0  0  0  0  0  0  0  0  0  0  0  0
   53.1660   29.6530   52.5990 C   0  0  0  0  0  0  0  0  0  0  0  0
   53.3970   28.4280   53.2200 C   0  0  0  0  0  0  0  0  0  0  0  0
   54.7350   28.0530   53.4470 C   0  0  0  0  0  0  0  0  0  0  0  0
   55.7930   28.9030   53.0500 C   0  0  0  0  0  0  0  0  0  0  0  0
   55.5200   30.1350   52.4240 C   0  0  0  0  0  0  0  0  0  0  0  0
   54.1840   30.4720   52.2180 C   0  0  0  0  0  0  0  0  0  0  0  0
   53.6970   31.5820   51.6460 N   0  0  0  0  0  0  0  0  0  0  0  0
   52.5638   27.7766   53.5224 H   0  0  0  0  0  0  0  0  0  0  0  0
   54.9586   27.0933   53.9360 H   0  0  0  0  0  0  0  0  0  0  0  0
   56.8350   28.6005   53.2310 H   0  0  0  0  0  0  0  0  0  0  0  0
   56.3323   30.8067   52.1092 H   0  0  0  0  0  0  0  0  0  0  0  0
  1  2  2  0
  2  3  1  0
  2  4  1  0
  4  5  2  0
  5  6  1  0
  6  7  2  0
  7  8  1  0
  8  9  2  0
  9 10  1  0
 10 11  2  0
 11 12  1  0
 12  4  1  0
 11  6  1  0
  7 13  1  0
  8 14  1  0
  9 15  1  0
 10 16  1  0
M  CHG  2   3  -1  12  -1
M  END
>  <UniqueID>  (34) 
34

>  <SMILES>  (34) 
O=C([O-])c1nc2ccccc2[n-]1

>  <Energy>  (34) 
50.22412837637412

>  <Genealogy>  (34) 
O=C([O-])c1nc2ccccc2[n-]1 (protonated)
O=C([O-])c1nc2ccccc2[n-]1 (3D coordinates assigned)
O=C([O-])c1nc2ccccc2[n-]1 (optimized conformer: 50.22412837637412 kcal/mol)

>  <smiles>  (34) 
O=C(O)c1nc2ccccc2[nH]1

>  <score_type>  (34) 
oracle

>  <origin>  (34) 
adg

>  <m_score__min__energy>  (34) 
-10.140000000000001

>  <m_primary>  (34) 
energy

$$$$
34:0
     RDKit          3D

 61 64  0  0  0  0  0  0  0  0999 V2000
   53.9070   30.8060   51.5900 C   0  0  0  0  0  0  0  0  0  0  0  0
   54.8340   29.7600   52.2190 C   0  0  0  0  0  0  0  0  0  0  0  0
   56.2770   30.1120   52.1300 N   0  0  0  0  0  0  0  0  0  0  0  0
   56.4210   31.5890   52.0480 C   0  0  0  0  0  0  0  0  0  0  0  0
   57.6460   32.0290   51.2370 C   0  0  0  0  0  0  0  0  0  0  0  0
   57.1150   29.5010   53.2030 C   0  0  0  0  0  0  0  0  0  0  0  0
   58.4970   28.9830   52.7450 C   0  0  0  0  0  0  0  0  0  0  0  0
   58.7210   29.2830   51.3780 O   0  0  0  0  0  0  0  0  0  0  0  0
   60.0340   28.9270   50.9820 C   0  0  0  0  0  0  0  0  0  0  0  0
   60.2630   29.3010   49.5160 C   0  0  0  0  0  0  0  0  0  0  0  0
   59.0490   29.8930   48.9540 N   0  0  0  0  0  0  0  0  0  0  0  0
   59.1060   30.9790   48.0140 C   0  0  0  0  0  0  0  0  0  0  0  0
   59.7660   32.1940   48.3180 C   0  0  0  0  0  0  0  0  0  0  0  0
   60.4680   32.3480   49.5300 C   0  0  0  0  0  0  0  0  0  0  0  0
   61.1530   33.5290   49.8100 C   0  0  0  0  0  0  0  0  0  0  0  0
   61.1670   34.5660   48.8850 C   0  0  0  0  0  0  0  0  0  0  0  0
   60.4860   34.4390   47.6750 C   0  0  0  0  0  0  0  0  0  0  0  0
   59.7460   33.2710   47.3690 C   0  0  0  0  0  0  0  0  0  0  0  0
   59.0370   33.1440   46.1820 N   0  0  0  0  0  0  0  0  0  0  0  0
   58.7620   34.3030   45.3210 C   0  0  0  0  0  0  0  0  0  0  0  0
   58.5220   31.9120   45.8640 C   0  0  0  0  0  0  0  0  0  0  0  0
   58.5080   30.8660   46.7640 C   0  0  0  0  0  0  0  0  0  0  0  0
   57.8600   29.7900   46.2670 N   0  0  0  0  0  0  0  0  0  0  0  0
   57.5020   30.1440   45.0170 C   0  0  0  0  0  0  0  0  0  0  0  0
   56.8570   29.3330   44.0850 C   0  0  0  0  0  0  0  0  0  0  0  0
   56.6280   29.8550   42.8040 C   0  0  0  0  0  0  0  0  0  0  0  0
   57.0650   31.1530   42.4730 C   0  0  0  0  0  0  0  0  0  0  0  0
   57.7220   31.9540   43.4240 C   0  0  0  0  0  0  0  0  0  0  0  0
   57.8980   31.4340   44.7140 C   0  0  0  0  0  0  0  0  0  0  0  0
   53.4029   31.3748   52.3853 H   0  0  0  0  0  0  0  0  0  0  0  0
   54.4985   31.4927   50.9667 H   0  0  0  0  0  0  0  0  0  0  0  0
   53.1542   30.3013   50.9667 H   0  0  0  0  0  0  0  0  0  0  0  0
   54.5672   29.6525   53.2807 H   0  0  0  0  0  0  0  0  0  0  0  0
   54.6948   28.8255   51.6558 H   0  0  0  0  0  0  0  0  0  0  0  0
   56.6200   29.7230   51.2180 H   0  0  0  0  0  0  0  0  0  0  0  0
   55.5193   32.0030   51.5730 H   0  0  0  0  0  0  0  0  0  0  0  0
   56.5544   31.9634   53.0737 H   0  0  0  0  0  0  0  0  0  0  0  0
   58.4550   32.3196   51.9233 H   0  0  0  0  0  0  0  0  0  0  0  0
   57.9844   31.1962   50.6030 H   0  0  0  0  0  0  0  0  0  0  0  0
   57.3772   32.8868   50.6030 H   0  0  0  0  0  0  0  0  0  0  0  0
   57.2775   30.2607   53.9817 H   0  0  0  0  0  0  0  0  0  0  0  0
   56.5611   28.6192   53.5575 H   0  0  0  0  0  0  0  0  0  0  0  0
   59.2801   29.4610   53.3518 H   0  0  0  0  0  0  0  0  0  0  0  0
   58.5241   27.8910   52.8746 H   0  0  0  0  0  0  0  0  0  0  0  0
   60.7609   29.4615   51.6112 H   0  0  0  0  0  0  0  0  0  0  0  0
   60.1626   27.8409   51.0999 H   0  0  0  0  0  0  0  0  0  0  0  0
   61.0865   30.0273   49.4499 H   0  0  0  0  0  0  0  0  0  0  0  0
   60.5182   28.3941   48.9481 H   0  0  0  0  0  0  0  0  0  0  0  0
   58.1410   29.6870   49.4310 H   0  0  0  0  0  0  0  0  0  0  0  0
   60.4754   31.5276   50.2627 H   0  0  0  0  0  0  0  0  0  0  0  0
   61.6845   33.6407   50.7666 H   0  0  0  0  0  0  0  0  0  0  0  0
   61.7180   35.4915   49.1085 H   0  0  0  0  0  0  0  0  0  0  0  0
   60.5242   35.2609   46.9449 H   0  0  0  0  0  0  0  0  0  0  0  0
   58.5531   35.1833   45.9467 H   0  0  0  0  0  0  0  0  0  0  0  0
   59.6374   34.5039   44.6859 H   0  0  0  0  0  0  0  0  0  0  0  0
   57.8896   34.0892   44.6859 H   0  0  0  0  0  0  0  0  0  0  0  0
   57.6850   28.8710   46.7330 H   0  0  0  0  0  0  0  0  0  0  0  0
   56.5371   28.3136   44.3466 H   0  0  0  0  0  0  0  0  0  0  0  0
   56.1035   29.2470   42.0522 H   0  0  0  0  0  0  0  0  0  0  0  0
   56.8904   31.5440   41.4598 H   0  0  0  0  0  0  0  0  0  0  0  0
   58.0869   32.9585   43.1635 H   0  0  0  0  0  0  0  0  0  0  0  0
  1  2  1  0
  2  3  1  0
  3  4  1  0
  4  5  1  0
  3  6  1  0
  6  7  1  0
  7  8  1  0
  8  9  1  0
  9 10  1  0
 10 11  1  0
 11 12  1  0
 12 13  2  0
 13 14  1  0
 14 15  2  0
 15 16  1  0
 16 17  2  0
 17 18  1  0
 18 19  2  0
 19 20  1  0
 19 21  1  0
 21 22  2  0
 22 23  1  0
 23 24  1  0
 24 25  2  0
 25 26  1  0
 26 27  2  0
 27 28  1  0
 28 29  2  0
 22 12  1  0
 29 24  1  0
 18 13  1  0
 29 21  1  0
  1 30  1  0
  1 31  1  0
  1 32  1  0
  2 33  1  0
  2 34  1  0
  3 35  1  0
  4 36  1  0
  4 37  1  0
  5 38  1  0
  5 39  1  0
  5 40  1  0
  6 41  1  0
  6 42  1  0
  7 43  1  0
  7 44  1  0
  9 45  1  0
  9 46  1  0
 10 47  1  0
 10 48  1  0
 11 49  1  0
 14 50  1  0
 15 51  1  0
 16 52  1  0
 17 53  1  0
 20 54  1  0
 20 55  1  0
 20 56  1  0
 23 57  1  0
 25 58  1  0
 26 59  1  0
 27 60  1  0
 28 61  1  0
M  CHG  2   3   1  19   1
M  END
>  <UniqueID>  (35) 
35

>  <SMILES>  (35) 
CC[NH+](CC)CCOCCNc1c2ccccc2[n+](C)c2c1[nH]c1ccccc12

>  <Energy>  (35) 
130.32458300336842

>  <Genealogy>  (35) 
CC[NH+](CC)CCOCCNc1c2ccccc2[n+](C)c2c1[nH]c1ccccc12 (protonated)
CC[NH+](CC)CCOCCNc1c2ccccc2[n+](C)c2c1[nH]c1ccccc12 (3D coordinates assigned)
CC[NH+](CC)CCOCCNc1c2ccccc2[n+](C)c2c1[nH]c1ccccc12 (optimized conformer: 130.32458300336842 kcal/mol)

>  <smiles>  (35) 
CCN(CC)CCOCCNc1c2ccccc2[n+](C)c2c1[nH]c1ccccc12

>  <score_type>  (35) 
oracle

>  <origin>  (35) 
adg

>  <m_score__min__energy>  (35) 
-5

>  <m_primary>  (35) 
energy

$$$$
35:0
     RDKit          3D

 54 57  0  0  0  0  0  0  0  0999 V2000
   63.3820   33.8800   46.3570 C   0  0  0  0  0  0  0  0  0  0  0  0
   62.9050   33.6850   47.7940 C   0  0  0  0  0  0  0  0  0  0  0  0
   63.1030   32.2830   48.2220 N   0  0  0  0  0  0  0  0  0  0  0  0
   62.6540   31.3190   47.2010 C   0  0  0  0  0  0  0  0  0  0  0  0
   62.5150   32.0040   49.5530 C   0  0  0  0  0  0  0  0  0  0  0  0
   61.2740   32.8580   49.8800 C   0  0  0  0  0  0  0  0  0  0  0  0
   60.0490   32.0690   49.7370 N   0  0  0  0  0  0  0  0  0  0  0  0
   59.5590   31.6700   48.4480 C   0  0  0  0  0  0  0  0  0  0  0  0
   59.3470   30.3120   48.1600 C   0  0  0  0  0  0  0  0  0  0  0  0
   58.8830   29.9370   46.8770 C   0  0  0  0  0  0  0  0  0  0  0  0
   58.8560   30.8730   45.8610 N   0  0  0  0  0  0  0  0  0  0  0  0
   58.8800   30.4430   44.4470 C   0  0  0  0  0  0  0  0  0  0  0  0
   58.9090   32.2180   46.1640 C   0  0  0  0  0  0  0  0  0  0  0  0
   58.6270   33.2110   45.1930 C   0  0  0  0  0  0  0  0  0  0  0  0
   58.6790   34.5660   45.5170 C   0  0  0  0  0  0  0  0  0  0  0  0
   59.0020   34.9660   46.8090 C   0  0  0  0  0  0  0  0  0  0  0  0
   59.2800   34.0120   47.7860 C   0  0  0  0  0  0  0  0  0  0  0  0
   59.2460   32.6370   47.4780 C   0  0  0  0  0  0  0  0  0  0  0  0
   58.4760   28.5060   46.6820 C   0  0  0  0  0  0  0  0  0  0  0  0
   57.4380   28.1340   45.8040 C   0  0  0  0  0  0  0  0  0  0  0  0
   57.0790   26.7920   45.6570 C   0  0  0  0  0  0  0  0  0  0  0  0
   57.7170   25.8080   46.4140 C   0  0  0  0  0  0  0  0  0  0  0  0
   58.6870   26.1670   47.3510 C   0  0  0  0  0  0  0  0  0  0  0  0
   59.0430   27.5150   47.5140 C   0  0  0  0  0  0  0  0  0  0  0  0
   59.9980   27.9270   48.6010 C   0  0  0  0  0  0  0  0  0  0  0  0
   59.5260   29.2450   49.2260 C   0  0  0  0  0  0  0  0  0  0  0  0
   64.4002   34.2962   46.3619 H   0  0  0  0  0  0  0  0  0  0  0  0
   63.3846   32.9108   45.8368 H   0  0  0  0  0  0  0  0  0  0  0  0
   62.7049   34.5735   45.8368 H   0  0  0  0  0  0  0  0  0  0  0  0
   63.4766   34.3500   48.4581 H   0  0  0  0  0  0  0  0  0  0  0  0
   61.8327   33.9243   47.8475 H   0  0  0  0  0  0  0  0  0  0  0  0
   62.2391   30.4281   47.6952 H   0  0  0  0  0  0  0  0  0  0  0  0
   61.8798   31.7840   46.5730 H   0  0  0  0  0  0  0  0  0  0  0  0
   63.5081   31.0256   46.5730 H   0  0  0  0  0  0  0  0  0  0  0  0
   62.2245   30.9436   49.5877 H   0  0  0  0  0  0  0  0  0  0  0  0
   63.2820   32.2569   50.2999 H   0  0  0  0  0  0  0  0  0  0  0  0
   61.3495   33.2228   50.9150 H   0  0  0  0  0  0  0  0  0  0  0  0
   61.2329   33.7042   49.1784 H   0  0  0  0  0  0  0  0  0  0  0  0
   59.6080   31.6530   50.5880 H   0  0  0  0  0  0  0  0  0  0  0  0
   58.9412   29.3458   44.3984 H   0  0  0  0  0  0  0  0  0  0  0  0
   57.9616   30.7816   43.9452 H   0  0  0  0  0  0  0  0  0  0  0  0
   59.7551   30.8817   43.9452 H   0  0  0  0  0  0  0  0  0  0  0  0
   58.3633   32.9083   44.1689 H   0  0  0  0  0  0  0  0  0  0  0  0
   58.4636   35.3218   44.7474 H   0  0  0  0  0  0  0  0  0  0  0  0
   59.0381   36.0364   47.0601 H   0  0  0  0  0  0  0  0  0  0  0  0
   59.5284   34.3352   48.8077 H   0  0  0  0  0  0  0  0  0  0  0  0
   56.9062   28.9069   45.2297 H   0  0  0  0  0  0  0  0  0  0  0  0
   56.2914   26.5100   44.9428 H   0  0  0  0  0  0  0  0  0  0  0  0
   57.4551   24.7491   46.2720 H   0  0  0  0  0  0  0  0  0  0  0  0
   59.1732   25.3926   47.9626 H   0  0  0  0  0  0  0  0  0  0  0  0
   60.0314   27.1459   49.3748 H   0  0  0  0  0  0  0  0  0  0  0  0
   61.0022   28.0638   48.1733 H   0  0  0  0  0  0  0  0  0  0  0  0
   58.5653   29.0792   49.7356 H   0  0  0  0  0  0  0  0  0  0  0  0
   60.2855   29.5873   49.9443 H   0  0  0  0  0  0  0  0  0  0  0  0
  1  2  1  0
  2  3  1  0
  3  4  1  0
  3  5  1  0
  5  6  1  0
  6  7  1  0
  7  8  1  0
  8  9  2  0
  9 10  1  0
 10 11  2  0
 11 12  1  0
 11 13  1  0
 13 14  2  0
 14 15  1  0
 15 16  2  0
 16 17  1  0
 17 18  2  0
 10 19  1  0
 19 20  2  0
 20 21  1  0
 21 22  2  0
 22 23  1  0
 23 24  2  0
 24 25  1  0
 25 26  1  0
 18  8  1  0
 24 19  1  0
 26  9  1  0
 18 13  1  0
  1 27  1  0
  1 28  1  0
  1 29  1  0
  2 30  1  0
  2 31  1  0
  4 32  1  0
  4 33  1  0
  4 34  1  0
  5 35  1  0
  5 36  1  0
  6 37  1  0
  6 38  1  0
  7 39  1  0
 12 40  1  0
 12 41  1  0
 12 42  1  0
 14 43  1  0
 15 44  1  0
 16 45  1  0
 17 46  1  0
 20 47  1  0
 21 48  1  0
 22 49  1  0
 23 50  1  0
 25 51  1  0
 25 52  1  0
 26 53  1  0
 26 54  1  0
M  CHG  1  11   1
M  END
>  <UniqueID>  (36) 
36

>  <SMILES>  (36) 
CCN(C)CCNc1c2c([n+](C)c3ccccc13)-c1ccccc1CC2

>  <Energy>  (36) 
87.64267179508045

>  <Genealogy>  (36) 
CCN(C)CCNc1c2c([n+](C)c3ccccc13)-c1ccccc1CC2 (3D coordinates assigned)
CCN(C)CCNc1c2c([n+](C)c3ccccc13)-c1ccccc1CC2 (nonaromatic ring conformer: 87.64267179508045 kcal/mol)

>  <smiles>  (36) 
CCN(C)CCNc1c2c([n+](C)c3ccccc13)-c1ccccc1CC2

>  <score_type>  (36) 
oracle

>  <origin>  (36) 
adg

>  <m_score__min__energy>  (36) 
-6.2599999999999998

>  <m_primary>  (36) 
energy

$$$$
