0:0
     RDKit          3D

 61 64  0  0  0  0  0  0  0  0999 V2000
   57.8530   31.5360   43.3620 C   0  0  0  0  0  0  0  0  0  0  0  0
   56.6780   31.4070   44.3360 C   0  0  0  0  0  0  0  0  0  0  0  0
   56.6540   30.1050   45.0230 N   0  0  0  0  0  0  0  0  0  0  0  0
   56.6410   28.9750   44.0810 C   0  0  0  0  0  0  0  0  0  0  0  0
   57.9970   28.2320   44.1140 C   0  0  0  0  0  0  0  0  0  0  0  0
   58.8140   28.4700   45.3320 N   0  0  0  0  0  0  0  0  0  0  0  0
   59.1060   27.2090   46.0660 C   0  0  0  0  0  0  0  0  0  0  0  0
   60.4250   27.2690   46.8650 C   0  0  0  0  0  0  0  0  0  0  0  0
   60.6720   28.6110   47.4270 N   0  0  0  0  0  0  0  0  0  0  0  0
   59.7440   28.9360   48.5350 C   0  0  0  0  0  0  0  0  0  0  0  0
   58.7910   30.0690   48.1350 C   0  0  0  0  0  0  0  0  0  0  0  0
   58.8950   31.2720   49.1010 C   0  0  0  0  0  0  0  0  0  0  0  0
   59.6610   32.3920   48.5200 N   0  0  0  0  0  0  0  0  0  0  0  0
   59.1920   33.0530   47.3080 C   0  0  0  0  0  0  0  0  0  0  0  0
   57.8220   33.0990   46.9650 C   0  0  0  0  0  0  0  0  0  0  0  0
   57.3780   33.8930   45.9030 C   0  0  0  0  0  0  0  0  0  0  0  0
   58.2880   34.6420   45.1580 C   0  0  0  0  0  0  0  0  0  0  0  0
   59.6510   34.5600   45.4410 C   0  0  0  0  0  0  0  0  0  0  0  0
   60.1040   33.7470   46.4860 C   0  0  0  0  0  0  0  0  0  0  0  0
   61.8540   33.4270   46.6360 S   0  0  0  0  0  0  0  0  0  0  0  0
   61.8400   33.5770   48.4160 C   0  0  0  0  0  0  0  0  0  0  0  0
   62.8940   34.2470   49.0460 C   0  0  0  0  0  0  0  0  0  0  0  0
   63.0310   34.1920   50.4320 C   0  0  0  0  0  0  0  0  0  0  0  0
   62.1270   33.4460   51.1900 C   0  0  0  0  0  0  0  0  0  0  0  0
   62.3280   33.3360   52.9300 Cl  0  0  0  0  0  0  0  0  0  0  0  0
   61.0570   32.7950   50.5670 C   0  0  0  0  0  0  0  0  0  0  0  0
   60.8660   32.8910   49.1710 C   0  0  0  0  0  0  0  0  0  0  0  0
   60.7260   29.6670   46.3810 C   0  0  0  0  0  0  0  0  0  0  0  0
   60.0310   29.2650   45.0630 C   0  0  0  0  0  0  0  0  0  0  0  0
   58.7898   31.6389   43.9292 H   0  0  0  0  0  0  0  0  0  0  0  0
   57.9045   30.6381   42.7286 H   0  0  0  0  0  0  0  0  0  0  0  0
   57.7085   32.4237   42.7286 H   0  0  0  0  0  0  0  0  0  0  0  0
   56.7572   32.2027   45.0913 H   0  0  0  0  0  0  0  0  0  0  0  0
   55.7497   31.4935   43.7523 H   0  0  0  0  0  0  0  0  0  0  0  0
   55.8030   30.0520   45.6320 H   0  0  0  0  0  0  0  0  0  0  0  0
   55.8383   28.2775   44.3623 H   0  0  0  0  0  0  0  0  0  0  0  0
   56.4683   29.3588   43.0647 H   0  0  0  0  0  0  0  0  0  0  0  0
   57.7965   27.1527   44.0431 H   0  0  0  0  0  0  0  0  0  0  0  0
   58.5829   28.6238   43.2695 H   0  0  0  0  0  0  0  0  0  0  0  0
   58.2090   29.0560   45.9560 H   0  0  0  0  0  0  0  0  0  0  0  0
   58.2807   27.0115   46.7659 H   0  0  0  0  0  0  0  0  0  0  0  0
   59.2100   26.4090   45.3182 H   0  0  0  0  0  0  0  0  0  0  0  0
   60.3737   26.5429   47.6897 H   0  0  0  0  0  0  0  0  0  0  0  0
   61.2496   27.0326   46.1765 H   0  0  0  0  0  0  0  0  0  0  0  0
   59.1550   28.0415   48.7858 H   0  0  0  0  0  0  0  0  0  0  0  0
   60.3342   29.2629   49.4038 H   0  0  0  0  0  0  0  0  0  0  0  0
   59.0437   30.4052   47.1186 H   0  0  0  0  0  0  0  0  0  0  0  0
   57.7620   29.6827   48.1781 H   0  0  0  0  0  0  0  0  0  0  0  0
   57.8802   31.6233   49.3391 H   0  0  0  0  0  0  0  0  0  0  0  0
   59.4251   30.9341   50.0037 H   0  0  0  0  0  0  0  0  0  0  0  0
   57.0970   32.5038   47.5396 H   0  0  0  0  0  0  0  0  0  0  0  0
   56.3070   33.9268   45.6544 H   0  0  0  0  0  0  0  0  0  0  0  0
   57.9315   35.2962   44.3487 H   0  0  0  0  0  0  0  0  0  0  0  0
   60.3716   35.1356   44.8415 H   0  0  0  0  0  0  0  0  0  0  0  0
   63.6169   34.8190   48.4458 H   0  0  0  0  0  0  0  0  0  0  0  0
   63.8494   34.7351   50.9272 H   0  0  0  0  0  0  0  0  0  0  0  0
   60.3559   32.2011   51.1718 H   0  0  0  0  0  0  0  0  0  0  0  0
   60.2345   30.5699   46.7723 H   0  0  0  0  0  0  0  0  0  0  0  0
   61.7875   29.8371   46.1479 H   0  0  0  0  0  0  0  0  0  0  0  0
   59.7527   30.1744   44.5102 H   0  0  0  0  0  0  0  0  0  0  0  0
   60.7271   28.6539   44.4697 H   0  0  0  0  0  0  0  0  0  0  0  0
  1  2  1  0
  2  3  1  0
  3  4  1  0
  4  5  1  0
  5  6  1  0
  6  7  1  0
  7  8  1  0
  8  9  1  0
  9 10  1  0
 10 11  1  0
 11 12  1  0
 12 13  1  0
 13 14  1  0
 14 15  2  0
 15 16  1  0
 16 17  2  0
 17 18  1  0
 18 19  2  0
 19 20  1  0
 20 21  1  0
 21 22  2  0
 22 23  1  0
 23 24  2  0
 24 25  1  0
 24 26  1  0
 26 27  2  0
  9 28  1  0
 28 29  1  0
 29  6  1  0
 27 13  1  0
 19 14  1  0
 27 21  1  0
  1 30  1  0
  1 31  1  0
  1 32  1  0
  2 33  1  0
  2 34  1  0
  3 35  1  0
  4 36  1  0
  4 37  1  0
  5 38  1  0
  5 39  1  0
  6 40  1  0
  7 41  1  0
  7 42  1  0
  8 43  1  0
  8 44  1  0
 10 45  1  0
 10 46  1  0
 11 47  1  0
 11 48  1  0
 12 49  1  0
 12 50  1  0
 15 51  1  0
 16 52  1  0
 17 53  1  0
 18 54  1  0
 22 55  1  0
 23 56  1  0
 26 57  1  0
 28 58  1  0
 28 59  1  0
 29 60  1  0
 29 61  1  0
M  CHG  1   6   1
M  END
>  <UniqueID>  (1) 
1

>  <SMILES>  (1) 
CCNCC[NH+]1CCN(CCCN2c3ccccc3Sc3ccc(Cl)cc32)CC1

>  <Energy>  (1) 
94.72361868774053

>  <Genealogy>  (1) 
CCNCC[NH+]1CCN(CCCN2c3ccccc3Sc3ccc(Cl)cc32)CC1 (protonated)
CCNCC[NH+]1CCN(CCCN2c3ccccc3Sc3ccc(Cl)cc32)CC1 (3D coordinates assigned)
CCNCC[NH+]1CCN(CCCN2c3ccccc3Sc3ccc(Cl)cc32)CC1 (nonaromatic ring conformer: 94.72361868774053 kcal/mol)

>  <smiles>  (1) 
CCNCCN1CCN(CCCN2c3ccccc3Sc3ccc(Cl)cc32)CC1

>  <score_type>  (1) 
oracle

>  <origin>  (1) 
adg

>  <m_score__min__energy>  (1) 
-7.0199999999999996

>  <m_primary>  (1) 
energy

$$$$
1:0
     RDKit          3D

 59 62  0  0  0  0  0  0  0  0999 V2000
   61.3960   26.6420   51.3150 C   0  0  0  0  0  0  0  0  0  0  0  0
   60.4780   27.8610   51.3580 C   0  0  0  0  0  0  0  0  0  0  0  0
   60.3500   28.4540   50.0080 N   0  0  0  0  0  0  0  0  0  0  0  0
   61.1640   29.6830   49.8780 C   0  0  0  0  0  0  0  0  0  0  0  0
   60.2610   30.9130   49.8630 C   0  0  0  0  0  0  0  0  0  0  0  0
   60.7030   27.4710   48.9600 C   0  0  0  0  0  0  0  0  0  0  0  0
   59.8320   27.6730   47.7490 C   0  0  0  0  0  0  0  0  0  0  0  0
   59.2200   26.5710   47.1130 C   0  0  0  0  0  0  0  0  0  0  0  0
   58.3920   26.7550   45.9930 C   0  0  0  0  0  0  0  0  0  0  0  0
   57.7480   25.5950   45.3450 C   0  0  0  0  0  0  0  0  0  0  0  0
   57.7520   25.5040   43.9470 C   0  0  0  0  0  0  0  0  0  0  0  0
   57.1560   24.4140   43.3080 C   0  0  0  0  0  0  0  0  0  0  0  0
   56.5430   23.4030   44.0520 C   0  0  0  0  0  0  0  0  0  0  0  0
   55.9610   22.3270   43.3620 O   0  0  0  0  0  0  0  0  0  0  0  0
   56.6460   21.1270   43.0210 C   0  0  0  0  0  0  0  0  0  0  0  0
   56.5250   23.4960   45.4570 C   0  0  0  0  0  0  0  0  0  0  0  0
   57.1190   24.5870   46.1030 C   0  0  0  0  0  0  0  0  0  0  0  0
   57.0200   24.6810   47.8590 Cl  0  0  0  0  0  0  0  0  0  0  0  0
   58.1780   28.0620   45.5390 C   0  0  0  0  0  0  0  0  0  0  0  0
   57.1970   28.5800   44.2620 S   0  0  0  0  0  0  0  0  0  0  0  0
   57.5420   30.2130   44.4870 C   0  0  0  0  0  0  0  0  0  0  0  0
   57.0530   31.2910   43.7570 C   0  0  0  0  0  0  0  0  0  0  0  0
   57.4620   32.5830   44.1200 C   0  0  0  0  0  0  0  0  0  0  0  0
   58.3550   32.7780   45.1970 C   0  0  0  0  0  0  0  0  0  0  0  0
   58.7650   34.1720   45.6000 C   0  0  0  0  0  0  0  0  0  0  0  0
   58.8890   34.3120   47.1210 C   0  0  0  0  0  0  0  0  0  0  0  0
   60.2870   34.1960   47.5590 C   0  0  0  0  0  0  0  0  0  0  0  0
   61.3870   34.1060   47.9030 N   0  0  0  0  0  0  0  0  0  0  0  0
   58.8300   31.6670   45.9270 C   0  0  0  0  0  0  0  0  0  0  0  0
   58.4150   30.3810   45.5570 C   0  0  0  0  0  0  0  0  0  0  0  0
   58.7730   29.1610   46.1570 C   0  0  0  0  0  0  0  0  0  0  0  0
   59.6090   28.9770   47.2640 C   0  0  0  0  0  0  0  0  0  0  0  0
   61.6341   26.3259   52.3413 H   0  0  0  0  0  0  0  0  0  0  0  0
   60.8902   25.8206   50.7863 H   0  0  0  0  0  0  0  0  0  0  0  0
   62.3252   26.9012   50.7863 H   0  0  0  0  0  0  0  0  0  0  0  0
   59.4840   27.5545   51.7157 H   0  0  0  0  0  0  0  0  0  0  0  0
   60.9085   28.6099   52.0390 H   0  0  0  0  0  0  0  0  0  0  0  0
   61.8574   29.7515   50.7292 H   0  0  0  0  0  0  0  0  0  0  0  0
   61.7298   29.6412   48.9356 H   0  0  0  0  0  0  0  0  0  0  0  0
   60.0380   31.2168   50.8964 H   0  0  0  0  0  0  0  0  0  0  0  0
   60.7710   31.7360   49.3409 H   0  0  0  0  0  0  0  0  0  0  0  0
   59.3230   30.6729   49.3409 H   0  0  0  0  0  0  0  0  0  0  0  0
   61.7575   27.6040   48.6764 H   0  0  0  0  0  0  0  0  0  0  0  0
   60.5467   26.4549   49.3512 H   0  0  0  0  0  0  0  0  0  0  0  0
   59.3936   25.5558   47.4992 H   0  0  0  0  0  0  0  0  0  0  0  0
   58.2272   26.2955   43.3489 H   0  0  0  0  0  0  0  0  0  0  0  0
   57.1695   24.3513   42.2099 H   0  0  0  0  0  0  0  0  0  0  0  0
   56.9457   20.6020   43.9400 H   0  0  0  0  0  0  0  0  0  0  0  0
   55.9809   20.4805   42.4297 H   0  0  0  0  0  0  0  0  0  0  0  0
   57.5409   21.3710   42.4297 H   0  0  0  0  0  0  0  0  0  0  0  0
   56.0412   22.7065   46.0508 H   0  0  0  0  0  0  0  0  0  0  0  0
   56.3623   31.1344   42.9154 H   0  0  0  0  0  0  0  0  0  0  0  0
   57.0840   33.4517   43.5611 H   0  0  0  0  0  0  0  0  0  0  0  0
   59.7373   34.4038   45.1408 H   0  0  0  0  0  0  0  0  0  0  0  0
   57.9880   34.8699   45.2549 H   0  0  0  0  0  0  0  0  0  0  0  0
   58.5002   35.2958   47.4225 H   0  0  0  0  0  0  0  0  0  0  0  0
   58.3112   33.5025   47.5909 H   0  0  0  0  0  0  0  0  0  0  0  0
   59.5165   31.8090   46.7747 H   0  0  0  0  0  0  0  0  0  0  0  0
   60.0866   29.8405   47.7500 H   0  0  0  0  0  0  0  0  0  0  0  0
  1  2  1  0
  2  3  1  0
  3  4  1  0
  4  5  1  0
  3  6  1  0
  6  7  1  0
  7  8  2  0
  8  9  1  0
  9 10  1  0
 10 11  2  0
 11 12  1  0
 12 13  2  0
 13 14  1  0
 14 15  1  0
 13 16  1  0
 16 17  2  0
 17 18  1  0
  9 19  2  0
 19 20  1  0
 20 21  1  0
 21 22  2  0
 22 23  1  0
 23 24  2  0
 24 25  1  0
 25 26  1  0
 26 27  1  0
 27 28  3  0
 24 29  1  0
 29 30  2  0
 30 31  1  0
 31 32  2  0
 32  7  1  0
 17 10  1  0
 31 19  1  0
 30 21  1  0
  1 33  1  0
  1 34  1  0
  1 35  1  0
  2 36  1  0
  2 37  1  0
  4 38  1  0
  4 39  1  0
  5 40  1  0
  5 41  1  0
  5 42  1  0
  6 43  1  0
  6 44  1  0
  8 45  1  0
 11 46  1  0
 12 47  1  0
 15 48  1  0
 15 49  1  0
 15 50  1  0
 16 51  1  0
 22 52  1  0
 23 53  1  0
 25 54  1  0
 25 55  1  0
 26 56  1  0
 26 57  1  0
 29 58  1  0
 32 59  1  0
M  END
>  <UniqueID>  (2) 
2

>  <SMILES>  (2) 
CCN(CC)Cc1cc(-c2ccc(OC)cc2Cl)c2sc3ccc(CCC#N)cc3c2c1

>  <Energy>  (2) 
99.43106320306666

>  <Genealogy>  (2) 
CCN(CC)Cc1cc(-c2ccc(OC)cc2Cl)c2sc3ccc(CCC#N)cc3c2c1 (3D coordinates assigned)
CCN(CC)Cc1cc(-c2ccc(OC)cc2Cl)c2sc3ccc(CCC#N)cc3c2c1 (optimized conformer: 99.43106320306666 kcal/mol)

>  <smiles>  (2) 
CCN(CC)Cc1cc(-c2ccc(OC)cc2Cl)c2sc3ccc(CCC#N)cc3c2c1

>  <score_type>  (2) 
oracle

>  <origin>  (2) 
adg

>  <m_score__min__energy>  (2) 
-8.6999999999999993

>  <m_primary>  (2) 
energy

$$$$
2:0
     RDKit          3D

 71 74  0  0  0  0  0  0  0  0999 V2000
   63.1420   33.8280   46.2640 C   0  0  0  0  0  0  0  0  0  0  0  0
   63.4010   33.7450   47.7770 C   0  0  0  0  0  0  0  0  0  0  0  0
   62.2610   33.2290   48.5750 N   0  0  0  0  0  0  0  0  0  0  0  0
   61.2320   34.2210   48.9600 C   0  0  0  0  0  0  0  0  0  0  0  0
   59.8950   34.0870   48.2200 C   0  0  0  0  0  0  0  0  0  0  0  0
   62.6210   32.2090   49.5820 C   0  0  0  0  0  0  0  0  0  0  0  0
   62.0350   30.8190   49.2400 C   0  0  0  0  0  0  0  0  0  0  0  0
   61.0490   30.8960   48.1530 N   0  0  0  0  0  0  0  0  0  0  0  0
   60.0550   29.8830   47.8980 C   0  0  0  0  0  0  0  0  0  0  0  0
   59.9520   28.8190   48.8060 C   0  0  0  0  0  0  0  0  0  0  0  0
   59.0720   27.7760   48.5970 C   0  0  0  0  0  0  0  0  0  0  0  0
   58.2460   27.7450   47.4700 C   0  0  0  0  0  0  0  0  0  0  0  0
   57.4020   26.5930   47.2850 N   0  0  0  0  0  0  0  0  0  0  0  0
   57.7440   25.2510   47.7700 C   0  0  0  0  0  0  0  0  0  0  0  0
   57.1120   24.1620   46.8910 C   0  0  0  0  0  0  0  0  0  0  0  0
   56.4540   24.7760   45.7120 N   0  0  0  0  0  0  0  0  0  0  0  0
   57.2470   24.7220   44.4540 C   0  0  0  0  0  0  0  0  0  0  0  0
   56.5510   23.9430   43.3190 C   0  0  0  0  0  0  0  0  0  0  0  0
   55.9100   22.7070   43.8090 N   0  0  0  0  0  0  0  0  0  0  0  0
   56.8970   21.6650   44.1410 C   0  0  0  0  0  0  0  0  0  0  0  0
   54.9500   22.9430   44.9180 C   0  0  0  0  0  0  0  0  0  0  0  0
   55.0500   24.3500   45.5440 C   0  0  0  0  0  0  0  0  0  0  0  0
   58.2800   28.8270   46.5360 C   0  0  0  0  0  0  0  0  0  0  0  0
   57.3900   28.8790   45.4270 C   0  0  0  0  0  0  0  0  0  0  0  0
   56.4090   27.9030   45.2440 O   0  0  0  0  0  0  0  0  0  0  0  0
   57.4480   29.9380   44.5010 C   0  0  0  0  0  0  0  0  0  0  0  0
   56.6030   29.9560   43.3720 C   0  0  0  0  0  0  0  0  0  0  0  0
   56.6480   31.0180   42.4650 C   0  0  0  0  0  0  0  0  0  0  0  0
   57.5310   32.0760   42.6760 C   0  0  0  0  0  0  0  0  0  0  0  0
   58.3720   32.0750   43.7900 C   0  0  0  0  0  0  0  0  0  0  0  0
   58.3470   31.0060   44.7130 C   0  0  0  0  0  0  0  0  0  0  0  0
   59.1870   31.0090   45.8420 C   0  0  0  0  0  0  0  0  0  0  0  0
   59.9860   32.1280   46.0560 O   0  0  0  0  0  0  0  0  0  0  0  0
   59.1950   29.9120   46.7510 C   0  0  0  0  0  0  0  0  0  0  0  0
   62.1082   34.1593   46.0866 H   0  0  0  0  0  0  0  0  0  0  0  0
   63.8403   34.5473   45.8114 H   0  0  0  0  0  0  0  0  0  0  0  0
   63.2921   32.8367   45.8114 H   0  0  0  0  0  0  0  0  0  0  0  0
   64.2623   33.0807   47.9410 H   0  0  0  0  0  0  0  0  0  0  0  0
   63.5774   34.7757   48.1185 H   0  0  0  0  0  0  0  0  0  0  0  0
   61.0385   34.1116   50.0373 H   0  0  0  0  0  0  0  0  0  0  0  0
   61.6373   35.2066   48.6875 H   0  0  0  0  0  0  0  0  0  0  0  0
   59.0776   34.0051   48.9516 H   0  0  0  0  0  0  0  0  0  0  0  0
   59.7348   34.9736   47.5889 H   0  0  0  0  0  0  0  0  0  0  0  0
   59.9139   33.1862   47.5889 H   0  0  0  0  0  0  0  0  0  0  0  0
   63.7171   32.1295   49.6297 H   0  0  0  0  0  0  0  0  0  0  0  0
   62.2004   32.5247   50.5482 H   0  0  0  0  0  0  0  0  0  0  0  0
   62.8543   30.1531   48.9313 H   0  0  0  0  0  0  0  0  0  0  0  0
   61.5275   30.4315   50.1358 H   0  0  0  0  0  0  0  0  0  0  0  0
   61.1860   31.6620   47.4510 H   0  0  0  0  0  0  0  0  0  0  0  0
   60.5865   28.8155   49.7046 H   0  0  0  0  0  0  0  0  0  0  0  0
   59.0201   26.9565   49.3289 H   0  0  0  0  0  0  0  0  0  0  0  0
   56.5240   26.6980   46.7300 H   0  0  0  0  0  0  0  0  0  0  0  0
   58.8375   25.1329   47.7560 H   0  0  0  0  0  0  0  0  0  0  0  0
   57.3537   25.1416   48.7926 H   0  0  0  0  0  0  0  0  0  0  0  0
   57.8956   23.4692   46.5504 H   0  0  0  0  0  0  0  0  0  0  0  0
   56.3596   23.6164   47.4794 H   0  0  0  0  0  0  0  0  0  0  0  0
   57.4253   25.7517   44.1107 H   0  0  0  0  0  0  0  0  0  0  0  0
   58.1820   24.1903   44.6843 H   0  0  0  0  0  0  0  0  0  0  0  0
   55.7822   24.5863   42.8662 H   0  0  0  0  0  0  0  0  0  0  0  0
   57.3169   23.6595   42.5821 H   0  0  0  0  0  0  0  0  0  0  0  0
   56.9819   21.5753   45.2340 H   0  0  0  0  0  0  0  0  0  0  0  0
   56.5710   20.7032   43.7184 H   0  0  0  0  0  0  0  0  0  0  0  0
   57.8751   21.9384   43.7184 H   0  0  0  0  0  0  0  0  0  0  0  0
   53.9303   22.8095   44.5275 H   0  0  0  0  0  0  0  0  0  0  0  0
   55.1964   22.2225   45.7118 H   0  0  0  0  0  0  0  0  0  0  0  0
   54.5356   25.0687   44.8891 H   0  0  0  0  0  0  0  0  0  0  0  0
   54.5812   24.3163   46.5385 H   0  0  0  0  0  0  0  0  0  0  0  0
   55.9014   29.1256   43.2037 H   0  0  0  0  0  0  0  0  0  0  0  0
   55.9874   31.0192   41.5854 H   0  0  0  0  0  0  0  0  0  0  0  0
   57.5650   32.9131   41.9632 H   0  0  0  0  0  0  0  0  0  0  0  0
   59.0621   32.9163   43.9510 H   0  0  0  0  0  0  0  0  0  0  0  0
  1  2  1  0
  2  3  1  0
  3  4  1  0
  4  5  1  0
  3  6  1  0
  6  7  1  0
  7  8  1  0
  8  9  1  0
  9 10  2  0
 10 11  1  0
 11 12  2  0
 12 13  1  0
 13 14  1  0
 14 15  1  0
 15 16  1  0
 16 17  1  0
 17 18  1  0
 18 19  1  0
 19 20  1  0
 19 21  1  0
 21 22  1  0
 12 23  1  0
 23 24  2  0
 24 25  1  0
 24 26  1  0
 26 27  2  0
 27 28  1  0
 28 29  2  0
 29 30  1  0
 30 31  2  0
 31 32  1  0
 32 33  1  0
 32 34  2  0
 34  9  1  0
 22 16  1  0
 34 23  1  0
 31 26  1  0
  1 35  1  0
  1 36  1  0
  1 37  1  0
  2 38  1  0
  2 39  1  0
  4 40  1  0
  4 41  1  0
  5 42  1  0
  5 43  1  0
  5 44  1  0
  6 45  1  0
  6 46  1  0
  7 47  1  0
  7 48  1  0
  8 49  1  0
 10 50  1  0
 11 51  1  0
 13 52  1  0
 14 53  1  0
 14 54  1  0
 15 55  1  0
 15 56  1  0
 17 57  1  0
 17 58  1  0
 18 59  1  0
 18 60  1  0
 20 61  1  0
 20 62  1  0
 20 63  1  0
 21 64  1  0
 21 65  1  0
 22 66  1  0
 22 67  1  0
 27 68  1  0
 28 69  1  0
 29 70  1  0
 30 71  1  0
M  CHG  2  25  -1  33  -1
M  END
>  <UniqueID>  (3) 
3

>  <SMILES>  (3) 
CCN(CC)CCNc1ccc(NCCN2CCN(C)CC2)c2c([O-])c3ccccc3c([O-])c12

>  <Energy>  (3) 
117.57780774356947

>  <Genealogy>  (3) 
CCN(CC)CCNc1ccc(NCCN2CCN(C)CC2)c2c([O-])c3ccccc3c([O-])c12 (protonated)
CCN(CC)CCNc1ccc(NCCN2CCN(C)CC2)c2c([O-])c3ccccc3c([O-])c12 (3D coordinates assigned)
CCN(CC)CCNc1ccc(NCCN2CCN(C)CC2)c2c([O-])c3ccccc3c([O-])c12 (nonaromatic ring conformer: 117.57780774356947 kcal/mol)

>  <smiles>  (3) 
CCN(CC)CCNc1ccc(NCCN2CCN(C)CC2)c2c(O)c3ccccc3c(O)c12

>  <score_type>  (3) 
oracle

>  <origin>  (3) 
adg

>  <m_score__min__energy>  (3) 
-10.81

>  <m_primary>  (3) 
energy

$$$$
3:0
     RDKit          3D

 54 55  0  0  0  0  0  0  0  0999 V2000
   62.7950   33.8120   46.7120 C   0  0  0  0  0  0  0  0  0  0  0  0
   61.5830   32.8920   46.7970 C   0  0  0  0  0  0  0  0  0  0  0  0
   60.2470   33.5490   46.3620 C   0  0  0  0  0  0  0  0  0  0  0  0
   58.9950   32.8110   46.7090 N   0  0  1  0  0  0  0  0  0  0  0  0
   58.9980   32.3160   48.1090 C   0  0  0  0  0  0  0  0  0  0  0  0
   59.3260   33.4240   49.1200 C   0  0  0  0  0  0  0  0  0  0  0  0
   57.7640   33.5930   46.3750 C   0  0  0  0  0  0  0  0  0  0  0  0
   57.4180   33.4970   44.8750 C   0  0  0  0  0  0  0  0  0  0  0  0
   57.6490   32.0810   44.3380 C   0  0  0  0  0  0  0  0  0  0  0  0
   56.4870   31.2420   44.6070 N   0  0  0  0  0  0  0  0  0  0  0  0
   56.5230   29.8120   44.5550 C   0  0  0  0  0  0  0  0  0  0  0  0
   55.5060   29.1380   44.8690 O   0  0  0  0  0  0  0  0  0  0  0  0
   57.7710   29.1150   44.1150 C   0  0  0  0  0  0  0  0  0  0  0  0
   58.4570   28.5160   45.2710 N   0  0  0  0  0  0  0  0  0  0  0  0
   59.5020   29.2580   45.9370 C   0  0  0  0  0  0  0  0  0  0  0  0
   59.7520   30.4530   45.6200 O   0  0  0  0  0  0  0  0  0  0  0  0
   60.3550   28.5820   46.9670 C   0  0  0  0  0  0  0  0  0  0  0  0
   59.6190   27.5790   47.6640 O   0  0  0  0  0  0  0  0  0  0  0  0
   58.6200   26.8160   47.0520 C   0  0  0  0  0  0  0  0  0  0  0  0
   58.1980   25.6320   47.6640 C   0  0  0  0  0  0  0  0  0  0  0  0
   57.2090   24.8470   47.0710 C   0  0  0  0  0  0  0  0  0  0  0  0
   56.6190   25.2500   45.8660 C   0  0  0  0  0  0  0  0  0  0  0  0
   55.5360   24.4240   45.2390 C   0  0  0  0  0  0  0  0  0  0  0  0
   57.0130   26.4590   45.2700 C   0  0  0  0  0  0  0  0  0  0  0  0
   58.0320   27.2520   45.8470 C   0  0  0  0  0  0  0  0  0  0  0  0
   63.1327   34.0683   47.7270 H   0  0  0  0  0  0  0  0  0  0  0  0
   63.6066   33.3005   46.1738 H   0  0  0  0  0  0  0  0  0  0  0  0
   62.5205   34.7312   46.1738 H   0  0  0  0  0  0  0  0  0  0  0  0
   61.7655   32.0221   46.1489 H   0  0  0  0  0  0  0  0  0  0  0  0
   61.4687   32.6211   47.8570 H   0  0  0  0  0  0  0  0  0  0  0  0
   60.1925   34.5402   46.8360 H   0  0  0  0  0  0  0  0  0  0  0  0
   60.2774   33.5682   45.2626 H   0  0  0  0  0  0  0  0  0  0  0  0
   59.0230   31.9550   46.1030 H   0  0  0  0  0  0  0  0  0  0  0  0
   58.0032   31.9083   48.3418 H   0  0  0  0  0  0  0  0  0  0  0  0
   59.7784   31.5451   48.1909 H   0  0  0  0  0  0  0  0  0  0  0  0
   59.2105   33.0338   50.1420 H   0  0  0  0  0  0  0  0  0  0  0  0
   60.3625   33.7611   48.9712 H   0  0  0  0  0  0  0  0  0  0  0  0
   58.6400   34.2709   48.9712 H   0  0  0  0  0  0  0  0  0  0  0  0
   56.9210   33.1988   46.9614 H   0  0  0  0  0  0  0  0  0  0  0  0
   57.9521   34.6494   46.6171 H   0  0  0  0  0  0  0  0  0  0  0  0
   56.3606   33.7654   44.7336 H   0  0  0  0  0  0  0  0  0  0  0  0
   58.0729   34.1877   44.3236 H   0  0  0  0  0  0  0  0  0  0  0  0
   57.8192   32.1279   43.2523 H   0  0  0  0  0  0  0  0  0  0  0  0
   58.5272   31.6472   44.8387 H   0  0  0  0  0  0  0  0  0  0  0  0
   57.5104   28.3230   43.3975 H   0  0  0  0  0  0  0  0  0  0  0  0
   58.4415   29.8473   43.6415 H   0  0  0  0  0  0  0  0  0  0  0  0
   61.2171   28.1143   46.4690 H   0  0  0  0  0  0  0  0  0  0  0  0
   60.6912   29.3370   47.6929 H   0  0  0  0  0  0  0  0  0  0  0  0
   58.6479   25.3180   48.6174 H   0  0  0  0  0  0  0  0  0  0  0  0
   56.8917   23.9094   47.5507 H   0  0  0  0  0  0  0  0  0  0  0  0
   54.9263   23.9590   46.0277 H   0  0  0  0  0  0  0  0  0  0  0  0
   54.8989   25.0676   44.6146 H   0  0  0  0  0  0  0  0  0  0  0  0
   55.9882   23.6394   44.6146 H   0  0  0  0  0  0  0  0  0  0  0  0
   56.5233   26.7932   44.3434 H   0  0  0  0  0  0  0  0  0  0  0  0
  1  2  1  0
  2  3  1  0
  3  4  1  0
  4  5  1  0
  5  6  1  0
  4  7  1  0
  7  8  1  0
  8  9  1  0
  9 10  1  0
 10 11  1  0
 11 12  2  0
 11 13  1  0
 13 14  1  0
 14 15  1  0
 15 16  2  0
 15 17  1  0
 17 18  1  0
 18 19  1  0
 19 20  2  0
 20 21  1  0
 21 22  2  0
 22 23  1  0
 22 24  1  0
 24 25  2  0
 25 14  1  0
 25 19  1  0
  1 26  1  0
  1 27  1  0
  1 28  1  0
  2 29  1  0
  2 30  1  0
  3 31  1  0
  3 32  1  0
  4 33  1  6
  5 34  1  0
  5 35  1  0
  6 36  1  0
  6 37  1  0
  6 38  1  0
  7 39  1  0
  7 40  1  0
  8 41  1  0
  8 42  1  0
  9 43  1  0
  9 44  1  0
 13 45  1  0
 13 46  1  0
 17 47  1  0
 17 48  1  0
 20 49  1  0
 21 50  1  0
 23 51  1  0
 23 52  1  0
 23 53  1  0
 24 54  1  0
M  CHG  2   4   1  10  -1
M  END
>  <UniqueID>  (4) 
4

>  <SMILES>  (4) 
CCC[N@@H+](CC)CCC[N-]C(=O)CN1C(=O)COc2ccc(C)cc21

>  <Energy>  (4) 
56.50585087717176

>  <Genealogy>  (4) 
CCC[NH+](CC)CCC[N-]C(=O)CN1C(=O)COc2ccc(C)cc21 (protonated)
CCC[N@@H+](CC)CCC[N-]C(=O)CN1C(=O)COc2ccc(C)cc21 (chirality)
CCC[N@@H+](CC)CCC[N-]C(=O)CN1C(=O)COc2ccc(C)cc21 (3D coordinates assigned)
CCC[N@@H+](CC)CCC[N-]C(=O)CN1C(=O)COc2ccc(C)cc21 (nonaromatic ring conformer: 56.50585087717176 kcal/mol)

>  <smiles>  (4) 
CCCN(CC)CCCNC(=O)CN1C(=O)COc2ccc(C)cc21

>  <score_type>  (4) 
oracle

>  <origin>  (4) 
adg

>  <m_score__min__energy>  (4) 
-6.2599999999999998

>  <m_primary>  (4) 
energy

$$$$
4:0
     RDKit          3D

 38 40  0  0  0  0  0  0  0  0999 V2000
   59.5600   33.7370   48.5910 C   0  0  0  0  0  0  0  0  0  0  0  0
   59.0300   33.7210   47.1890 C   0  0  0  0  0  0  0  0  0  0  0  0
   59.4790   34.6670   46.2530 C   0  0  0  0  0  0  0  0  0  0  0  0
   59.0120   34.6290   44.9370 C   0  0  0  0  0  0  0  0  0  0  0  0
   58.1060   33.6420   44.5420 C   0  0  0  0  0  0  0  0  0  0  0  0
   57.6570   32.6830   45.4580 C   0  0  0  0  0  0  0  0  0  0  0  0
   56.7430   31.7190   45.0130 O   0  0  0  0  0  0  0  0  0  0  0  0
   57.0850   30.5800   44.2280 C   0  0  0  0  0  0  0  0  0  0  0  0
   56.3970   29.3580   44.7690 C   0  0  0  0  0  0  0  0  0  0  0  0
   55.1420   29.3630   44.8710 O   0  0  0  0  0  0  0  0  0  0  0  0
   57.1210   28.1930   45.1930 N   0  0  0  0  0  0  0  0  0  0  0  0
   58.0780   28.1260   46.2580 C   0  0  0  0  0  0  0  0  0  0  0  0
   58.6090   26.8800   46.6190 C   0  0  0  0  0  0  0  0  0  0  0  0
   59.5160   26.7760   47.6800 C   0  0  0  0  0  0  0  0  0  0  0  0
   59.9070   27.9230   48.3730 C   0  0  0  0  0  0  0  0  0  0  0  0
   59.4310   29.1790   47.9770 C   0  0  0  0  0  0  0  0  0  0  0  0
   58.5190   29.2840   46.9240 C   0  0  0  0  0  0  0  0  0  0  0  0
   59.8800   30.3210   48.6500 O   0  0  0  0  0  0  0  0  0  0  0  0
   60.9960   30.2600   49.5430 C   0  0  0  0  0  0  0  0  0  0  0  0
   60.9660   28.9510   50.3430 C   0  0  0  0  0  0  0  0  0  0  0  0
   60.7770   27.8390   49.4660 O   0  0  0  0  0  0  0  0  0  0  0  0
   58.1310   32.7210   46.7830 C   0  0  0  0  0  0  0  0  0  0  0  0
   58.7201   33.7116   49.3008 H   0  0  0  0  0  0  0  0  0  0  0  0
   60.2015   32.8578   48.7505 H   0  0  0  0  0  0  0  0  0  0  0  0
   60.1473   34.6533   48.7505 H   0  0  0  0  0  0  0  0  0  0  0  0
   60.2003   35.4399   46.5570 H   0  0  0  0  0  0  0  0  0  0  0  0
   59.3586   35.3782   44.2100 H   0  0  0  0  0  0  0  0  0  0  0  0
   57.7427   33.6180   43.5040 H   0  0  0  0  0  0  0  0  0  0  0  0
   56.7682   30.7460   43.1878 H   0  0  0  0  0  0  0  0  0  0  0  0
   58.1738   30.4284   44.2665 H   0  0  0  0  0  0  0  0  0  0  0  0
   58.3109   25.9778   46.0647 H   0  0  0  0  0  0  0  0  0  0  0  0
   59.9194   25.7936   47.9668 H   0  0  0  0  0  0  0  0  0  0  0  0
   58.1459   30.2718   46.6157 H   0  0  0  0  0  0  0  0  0  0  0  0
   61.9288   30.3091   48.9621 H   0  0  0  0  0  0  0  0  0  0  0  0
   60.9424   31.1080   50.2416 H   0  0  0  0  0  0  0  0  0  0  0  0
   61.9185   28.8319   50.8801 H   0  0  0  0  0  0  0  0  0  0  0  0
   60.1320   28.9880   51.0593 H   0  0  0  0  0  0  0  0  0  0  0  0
   57.7951   31.9624   47.5053 H   0  0  0  0  0  0  0  0  0  0  0  0
  1  2  1  0
  2  3  2  0
  3  4  1  0
  4  5  2  0
  5  6  1  0
  6  7  1  0
  7  8  1  0
  8  9  1  0
  9 10  2  0
  9 11  1  0
 11 12  1  0
 12 13  2  0
 13 14  1  0
 14 15  2  0
 15 16  1  0
 16 17  2  0
 16 18  1  0
 18 19  1  0
 19 20  1  0
 20 21  1  0
  6 22  2  0
 22  2  1  0
 17 12  1  0
 21 15  1  0
  1 23  1  0
  1 24  1  0
  1 25  1  0
  3 26  1  0
  4 27  1  0
  5 28  1  0
  8 29  1  0
  8 30  1  0
 13 31  1  0
 14 32  1  0
 17 33  1  0
 19 34  1  0
 19 35  1  0
 20 36  1  0
 20 37  1  0
 22 38  1  0
M  CHG  1  11  -1
M  END
>  <UniqueID>  (5) 
5

>  <SMILES>  (5) 
Cc1cccc(OCC(=O)[N-]c2ccc3c(c2)OCCO3)c1

>  <Energy>  (5) 
42.57952715721743

>  <Genealogy>  (5) 
Cc1cccc(OCC(=O)[N-]c2ccc3c(c2)OCCO3)c1 (protonated)
Cc1cccc(OCC(=O)[N-]c2ccc3c(c2)OCCO3)c1 (3D coordinates assigned)
Cc1cccc(OCC(=O)[N-]c2ccc3c(c2)OCCO3)c1 (nonaromatic ring conformer: 42.57952715721743 kcal/mol)

>  <smiles>  (5) 
Cc1cccc(OCC(=O)Nc2ccc3c(c2)OCCO3)c1

>  <score_type>  (5) 
oracle

>  <origin>  (5) 
adg

>  <m_score__min__energy>  (5) 
-9.1899999999999995

>  <m_primary>  (5) 
energy

$$$$
5:0
     RDKit          3D

 44 46  0  0  0  0  0  0  0  0999 V2000
   57.6710   27.3380   45.1200 C   0  0  0  0  0  0  0  0  0  0  0  0
   57.3610   28.7650   44.8150 C   0  0  0  0  0  0  0  0  0  0  0  0
   58.0970   29.5920   43.9930 C   0  0  0  0  0  0  0  0  0  0  0  0
   57.3750   30.7670   43.9970 C   0  0  0  0  0  0  0  0  0  0  0  0
   57.7080   32.0180   43.2450 C   0  0  0  0  0  0  0  0  0  0  0  0
   58.5400   32.9870   44.0940 C   0  0  0  0  0  0  0  0  0  0  0  0
   57.7380   34.2290   44.5120 C   0  0  0  0  0  0  0  0  0  0  0  0
   56.7010   33.9270   45.6020 C   0  0  0  0  0  0  0  0  0  0  0  0
   57.2180   33.0150   46.5740 O   0  0  0  0  0  0  0  0  0  0  0  0
   58.4980   33.0390   47.1590 C   0  0  0  0  0  0  0  0  0  0  0  0
   59.1390   34.2390   47.5320 C   0  0  0  0  0  0  0  0  0  0  0  0
   60.4110   34.2140   48.1070 C   0  0  0  0  0  0  0  0  0  0  0  0
   61.0730   32.9960   48.3210 C   0  0  0  0  0  0  0  0  0  0  0  0
   62.4190   32.9590   48.9320 C   0  0  0  0  0  0  0  0  0  0  0  0
   63.3800   32.2280   48.4820 N   0  0  0  0  0  0  0  0  0  0  0  0
   64.5580   32.4230   49.3140 C   0  0  0  0  0  0  0  0  0  0  0  0
   64.1250   33.4540   50.3640 C   0  0  0  0  0  0  0  0  0  0  0  0
   62.7690   33.7040   50.0410 O   0  0  0  0  0  0  0  0  0  0  0  0
   60.4400   31.8010   47.9490 C   0  0  0  0  0  0  0  0  0  0  0  0
   59.1630   31.8150   47.3670 C   0  0  0  0  0  0  0  0  0  0  0  0
   58.5430   30.5780   47.0010 N   0  0  0  0  0  0  0  0  0  0  0  0
   56.3110   30.6140   44.7530 O   0  0  0  0  0  0  0  0  0  0  0  0
   56.2680   29.4160   45.2600 N   0  0  0  0  0  0  0  0  0  0  0  0
   57.7022   27.1945   46.2101 H   0  0  0  0  0  0  0  0  0  0  0  0
   56.8920   26.6930   44.6874 H   0  0  0  0  0  0  0  0  0  0  0  0
   58.6474   27.0743   44.6874 H   0  0  0  0  0  0  0  0  0  0  0  0
   59.0341   29.3684   43.4621 H   0  0  0  0  0  0  0  0  0  0  0  0
   58.2810   31.7508   42.3449 H   0  0  0  0  0  0  0  0  0  0  0  0
   56.7654   32.5186   42.9787 H   0  0  0  0  0  0  0  0  0  0  0  0
   58.8788   32.4629   44.9998 H   0  0  0  0  0  0  0  0  0  0  0  0
   59.3911   33.3244   43.4843 H   0  0  0  0  0  0  0  0  0  0  0  0
   58.4377   34.9876   44.8928 H   0  0  0  0  0  0  0  0  0  0  0  0
   57.1930   34.5856   43.6255 H   0  0  0  0  0  0  0  0  0  0  0  0
   56.4247   34.8662   46.1035 H   0  0  0  0  0  0  0  0  0  0  0  0
   55.8227   33.4659   45.1267 H   0  0  0  0  0  0  0  0  0  0  0  0
   58.6328   35.2018   47.3686 H   0  0  0  0  0  0  0  0  0  0  0  0
   60.8981   35.1574   48.3946 H   0  0  0  0  0  0  0  0  0  0  0  0
   64.8536   31.4792   49.7956 H   0  0  0  0  0  0  0  0  0  0  0  0
   65.4280   32.7611   48.7319 H   0  0  0  0  0  0  0  0  0  0  0  0
   64.2180   33.0433   51.3802 H   0  0  0  0  0  0  0  0  0  0  0  0
   64.7434   34.3637   50.3522 H   0  0  0  0  0  0  0  0  0  0  0  0
   60.9507   30.8411   48.1154 H   0  0  0  0  0  0  0  0  0  0  0  0
   57.6580   30.5690   46.4440 H   0  0  0  0  0  0  0  0  0  0  0  0
   58.9530   29.6580   47.2780 H   0  0  0  0  0  0  0  0  0  0  0  0
  1  2  1  0
  2  3  1  0
  3  4  2  0
  4  5  1  0
  5  6  1  0
  6  7  1  0
  7  8  1  0
  8  9  1  0
  9 10  1  0
 10 11  2  0
 11 12  1  0
 12 13  2  0
 13 14  1  0
 14 15  2  0
 15 16  1  0
 16 17  1  0
 17 18  1  0
 13 19  1  0
 19 20  2  0
 20 21  1  0
  4 22  1  0
 22 23  1  0
 23  2  2  0
 20 10  1  0
 18 14  1  0
  1 24  1  0
  1 25  1  0
  1 26  1  0
  3 27  1  0
  5 28  1  0
  5 29  1  0
  6 30  1  0
  6 31  1  0
  7 32  1  0
  7 33  1  0
  8 34  1  0
  8 35  1  0
 11 36  1  0
 12 37  1  0
 16 38  1  0
 16 39  1  0
 17 40  1  0
 17 41  1  0
 19 42  1  0
 21 43  1  0
 21 44  1  0
M  END
>  <UniqueID>  (6) 
6

>  <SMILES>  (6) 
Cc1cc(CCCCOc2ccc(C3=NCCO3)cc2N)on1

>  <Energy>  (6) 
82.77789892588598

>  <Genealogy>  (6) 
Cc1cc(CCCCOc2ccc(C3=NCCO3)cc2N)on1 (3D coordinates assigned)
Cc1cc(CCCCOc2ccc(C3=NCCO3)cc2N)on1 (nonaromatic ring conformer: 82.77789892588598 kcal/mol)

>  <smiles>  (6) 
Cc1cc(CCCCOc2ccc(C3=NCCO3)cc2N)on1

>  <score_type>  (6) 
oracle

>  <origin>  (6) 
adg

>  <m_score__min__energy>  (6) 
-7.4900000000000002

>  <m_primary>  (6) 
energy

$$$$
6:0
     RDKit          3D

 35 37  0  0  0  0  0  0  0  0999 V2000
   56.2870   29.7330   43.1840 C   0  0  0  0  0  0  0  0  0  0  0  0
   56.2550   30.2730   44.5010 O   0  0  0  0  0  0  0  0  0  0  0  0
   57.2850   31.0350   45.0760 C   0  0  0  0  0  0  0  0  0  0  0  0
   57.4630   32.3970   44.7720 C   0  0  0  0  0  0  0  0  0  0  0  0
   58.4990   33.1260   45.3590 C   0  0  0  0  0  0  0  0  0  0  0  0
   58.6300   34.4170   45.0690 O   0  0  0  0  0  0  0  0  0  0  0  0
   59.5830   35.1780   45.5950 C   0  0  0  0  0  0  0  0  0  0  0  0
   59.6510   36.3950   45.2830 O   0  0  0  0  0  0  0  0  0  0  0  0
   60.5110   34.6340   46.4850 C   0  0  0  0  0  0  0  0  0  0  0  0
   60.4330   33.2750   46.8170 C   0  0  0  0  0  0  0  0  0  0  0  0
   61.4570   32.7090   47.7240 C   0  0  0  0  0  0  0  0  0  0  0  0
   62.8160   32.7360   47.3700 C   0  0  0  0  0  0  0  0  0  0  0  0
   63.7810   32.2160   48.2390 C   0  0  0  0  0  0  0  0  0  0  0  0
   63.3970   31.6770   49.4700 C   0  0  0  0  0  0  0  0  0  0  0  0
   62.0480   31.6610   49.8360 C   0  0  0  0  0  0  0  0  0  0  0  0
   61.0800   32.1780   48.9700 C   0  0  0  0  0  0  0  0  0  0  0  0
   59.3940   32.4970   46.2550 C   0  0  0  0  0  0  0  0  0  0  0  0
   59.1980   31.1390   46.5740 C   0  0  0  0  0  0  0  0  0  0  0  0
   58.1520   30.4050   45.9810 C   0  0  0  0  0  0  0  0  0  0  0  0
   57.9390   29.0470   46.2690 O   0  0  0  0  0  0  0  0  0  0  0  0
   58.4150   27.9670   45.4710 C   0  0  0  0  0  0  0  0  0  0  0  0
   56.3520   28.6363   43.2389 H   0  0  0  0  0  0  0  0  0  0  0  0
   55.3703   30.0196   42.6478 H   0  0  0  0  0  0  0  0  0  0  0  0
   57.1634   30.1259   42.6478 H   0  0  0  0  0  0  0  0  0  0  0  0
   56.7801   32.8918   44.0658 H   0  0  0  0  0  0  0  0  0  0  0  0
   61.2971   35.2672   46.9221 H   0  0  0  0  0  0  0  0  0  0  0  0
   63.1226   33.1677   46.4058 H   0  0  0  0  0  0  0  0  0  0  0  0
   64.8431   32.2313   47.9532 H   0  0  0  0  0  0  0  0  0  0  0  0
   64.1565   31.2653   50.1510 H   0  0  0  0  0  0  0  0  0  0  0  0
   61.7476   31.2408   50.8072 H   0  0  0  0  0  0  0  0  0  0  0  0
   60.0201   32.1693   49.2643 H   0  0  0  0  0  0  0  0  0  0  0  0
   59.8686   30.6466   47.2936 H   0  0  0  0  0  0  0  0  0  0  0  0
   58.7718   27.1575   46.1248 H   0  0  0  0  0  0  0  0  0  0  0  0
   57.5985   27.5926   44.8361 H   0  0  0  0  0  0  0  0  0  0  0  0
   59.2422   28.3170   44.8361 H   0  0  0  0  0  0  0  0  0  0  0  0
  1  2  1  0
  2  3  1  0
  3  4  2  0
  4  5  1  0
  5  6  1  0
  6  7  1  0
  7  8  2  0
  7  9  1  0
  9 10  2  0
 10 11  1  0
 11 12  2  0
 12 13  1  0
 13 14  2  0
 14 15  1  0
 15 16  2  0
 10 17  1  0
 17 18  1  0
 18 19  2  0
 19 20  1  0
 20 21  1  0
 19  3  1  0
 17  5  2  0
 16 11  1  0
  1 22  1  0
  1 23  1  0
  1 24  1  0
  4 25  1  0
  9 26  1  0
 12 27  1  0
 13 28  1  0
 14 29  1  0
 15 30  1  0
 16 31  1  0
 18 32  1  0
 21 33  1  0
 21 34  1  0
 21 35  1  0
M  END
>  <UniqueID>  (7) 
7

>  <SMILES>  (7) 
COc1cc2oc(=O)cc(-c3ccccc3)c2cc1OC

>  <Energy>  (7) 
49.09885938687625

>  <Genealogy>  (7) 
COc1cc2oc(=O)cc(-c3ccccc3)c2cc1OC (3D coordinates assigned)
COc1cc2oc(=O)cc(-c3ccccc3)c2cc1OC (optimized conformer: 49.09885938687625 kcal/mol)

>  <smiles>  (7) 
COc1cc2oc(=O)cc(-c3ccccc3)c2cc1OC

>  <score_type>  (7) 
oracle

>  <origin>  (7) 
adg

>  <m_score__min__energy>  (7) 
-6.5499999999999998

>  <m_primary>  (7) 
energy

$$$$
7:0
     RDKit          3D

 43 44  0  0  0  0  0  0  0  0999 V2000
   56.3690   29.7450   42.7600 C   0  0  0  0  0  0  0  0  0  0  0  0
   55.9030   30.3200   44.1070 C   0  0  0  0  0  0  0  0  0  0  0  0
   57.0000   30.8760   44.9310 N   0  0  0  0  0  0  0  0  0  0  0  0
   58.0890   29.9000   45.1770 C   0  0  0  0  0  0  0  0  0  0  0  0
   59.1810   30.5600   46.0070 C   0  0  0  0  0  0  0  0  0  0  0  0
   57.4830   32.1820   44.4370 C   0  0  0  0  0  0  0  0  0  0  0  0
   56.8750   33.3280   45.2530 C   0  0  0  0  0  0  0  0  0  0  0  0
   57.8500   34.3410   45.5010 O   0  0  0  0  0  0  0  0  0  0  0  0
   59.0270   34.1730   46.2490 C   0  0  0  0  0  0  0  0  0  0  0  0
   60.2880   33.9850   45.6520 C   0  0  0  0  0  0  0  0  0  0  0  0
   61.4280   33.8240   46.4460 C   0  0  0  0  0  0  0  0  0  0  0  0
   61.3310   33.8420   47.8490 C   0  0  0  0  0  0  0  0  0  0  0  0
   62.5420   33.6700   48.6930 C   0  0  0  0  0  0  0  0  0  0  0  0
   63.6450   32.9340   48.2200 C   0  0  0  0  0  0  0  0  0  0  0  0
   64.7820   32.7730   49.0160 C   0  0  0  0  0  0  0  0  0  0  0  0
   64.8340   33.3440   50.2910 C   0  0  0  0  0  0  0  0  0  0  0  0
   66.3910   33.1220   51.3750 Br  0  0  0  0  0  0  0  0  0  0  0  0
   63.7460   34.0780   50.7710 C   0  0  0  0  0  0  0  0  0  0  0  0
   62.6050   34.2400   49.9790 C   0  0  0  0  0  0  0  0  0  0  0  0
   60.0690   34.0250   48.4400 C   0  0  0  0  0  0  0  0  0  0  0  0
   58.9310   34.1870   47.6440 C   0  0  0  0  0  0  0  0  0  0  0  0
   57.0525   28.9017   42.9381 H   0  0  0  0  0  0  0  0  0  0  0  0
   55.4963   29.3954   42.1889 H   0  0  0  0  0  0  0  0  0  0  0  0
   56.8918   30.5264   42.1889 H   0  0  0  0  0  0  0  0  0  0  0  0
   55.1770   31.1224   43.9090 H   0  0  0  0  0  0  0  0  0  0  0  0
   55.4651   29.4870   44.6766 H   0  0  0  0  0  0  0  0  0  0  0  0
   57.6881   29.0322   45.7213 H   0  0  0  0  0  0  0  0  0  0  0  0
   58.5082   29.5671   44.2161 H   0  0  0  0  0  0  0  0  0  0  0  0
   58.9601   30.4265   47.0763 H   0  0  0  0  0  0  0  0  0  0  0  0
   60.1506   30.0966   45.7723 H   0  0  0  0  0  0  0  0  0  0  0  0
   59.2215   31.6339   45.7723 H   0  0  0  0  0  0  0  0  0  0  0  0
   58.5789   32.2183   44.5243 H   0  0  0  0  0  0  0  0  0  0  0  0
   57.1800   32.2967   43.3858 H   0  0  0  0  0  0  0  0  0  0  0  0
   56.0348   33.7644   44.6930 H   0  0  0  0  0  0  0  0  0  0  0  0
   56.5243   32.9299   46.2166 H   0  0  0  0  0  0  0  0  0  0  0  0
   60.3771   33.9646   44.5558 H   0  0  0  0  0  0  0  0  0  0  0  0
   62.4090   33.6821   45.9691 H   0  0  0  0  0  0  0  0  0  0  0  0
   63.6115   32.4828   47.2174 H   0  0  0  0  0  0  0  0  0  0  0  0
   65.6386   32.1954   48.6384 H   0  0  0  0  0  0  0  0  0  0  0  0
   63.7872   34.5290   51.7734 H   0  0  0  0  0  0  0  0  0  0  0  0
   61.7508   34.8167   50.3633 H   0  0  0  0  0  0  0  0  0  0  0  0
   59.9760   34.0409   49.5359 H   0  0  0  0  0  0  0  0  0  0  0  0
   57.9494   34.3270   48.1203 H   0  0  0  0  0  0  0  0  0  0  0  0
  1  2  1  0
  2  3  1  0
  3  4  1  0
  4  5  1  0
  3  6  1  0
  6  7  1  0
  7  8  1  0
  8  9  1  0
  9 10  2  0
 10 11  1  0
 11 12  2  0
 12 13  1  0
 13 14  2  0
 14 15  1  0
 15 16  2  0
 16 17  1  0
 16 18  1  0
 18 19  2  0
 12 20  1  0
 20 21  2  0
 21  9  1  0
 19 13  1  0
  1 22  1  0
  1 23  1  0
  1 24  1  0
  2 25  1  0
  2 26  1  0
  4 27  1  0
  4 28  1  0
  5 29  1  0
  5 30  1  0
  5 31  1  0
  6 32  1  0
  6 33  1  0
  7 34  1  0
  7 35  1  0
 10 36  1  0
 11 37  1  0
 14 38  1  0
 15 39  1  0
 18 40  1  0
 19 41  1  0
 20 42  1  0
 21 43  1  0
M  END
>  <UniqueID>  (8) 
8

>  <SMILES>  (8) 
CCN(CC)CCOc1ccc(-c2ccc(Br)cc2)cc1

>  <Energy>  (8) 
48.058438198400104

>  <Genealogy>  (8) 
CCN(CC)CCOc1ccc(-c2ccc(Br)cc2)cc1 (3D coordinates assigned)
CCN(CC)CCOc1ccc(-c2ccc(Br)cc2)cc1 (optimized conformer: 48.058438198400104 kcal/mol)

>  <smiles>  (8) 
CCN(CC)CCOc1ccc(-c2ccc(Br)cc2)cc1

>  <score_type>  (8) 
oracle

>  <origin>  (8) 
adg

>  <m_score__min__energy>  (8) 
-7

>  <m_primary>  (8) 
energy

$$$$
8:0
     RDKit          3D

 53 56  0  0  0  0  0  0  0  0999 V2000
   63.9690   31.5080   50.5810 C   0  0  0  0  0  0  0  0  0  0  0  0
   63.2190   31.5940   49.2470 C   0  0  0  0  0  0  0  0  0  0  0  0
   63.5920   32.8080   48.4750 N   0  0  0  0  0  0  0  0  0  0  0  0
   62.9540   34.0140   49.0580 C   0  0  0  0  0  0  0  0  0  0  0  0
   61.4850   34.1510   48.6420 C   0  0  0  0  0  0  0  0  0  0  0  0
   61.3390   34.0700   47.1800 N   0  0  0  0  0  0  0  0  0  0  0  0
   60.0630   34.3140   46.5480 C   0  0  0  0  0  0  0  0  0  0  0  0
   60.0150   34.5050   45.2970 O   0  0  0  0  0  0  0  0  0  0  0  0
   58.7750   34.2670   47.3340 C   0  0  0  0  0  0  0  0  0  0  0  0
   57.5310   33.1700   46.5540 S   0  0  0  0  0  0  0  0  0  0  0  0
   58.3410   31.6250   47.0080 C   0  0  0  0  0  0  0  0  0  0  0  0
   58.8370   31.5100   48.2740 N   0  0  0  0  0  0  0  0  0  0  0  0
   59.4640   30.3770   48.6660 C   0  0  0  0  0  0  0  0  0  0  0  0
   59.5940   29.3160   47.8100 C   0  0  0  0  0  0  0  0  0  0  0  0
   59.0810   29.4170   46.5150 C   0  0  0  0  0  0  0  0  0  0  0  0
   59.1750   28.4340   45.7260 O   0  0  0  0  0  0  0  0  0  0  0  0
   58.4560   30.5760   46.1210 N   0  0  0  0  0  0  0  0  0  0  0  0
   57.8500   30.6490   44.8170 C   0  0  0  0  0  0  0  0  0  0  0  0
   58.3000   31.6010   43.8890 C   0  0  0  0  0  0  0  0  0  0  0  0
   57.7090   31.6900   42.6280 C   0  0  0  0  0  0  0  0  0  0  0  0
   56.6570   30.8330   42.2880 C   0  0  0  0  0  0  0  0  0  0  0  0
   56.1960   29.8880   43.2090 C   0  0  0  0  0  0  0  0  0  0  0  0
   56.7870   29.7950   44.4730 C   0  0  0  0  0  0  0  0  0  0  0  0
   56.3380   28.8680   45.3570 F   0  0  0  0  0  0  0  0  0  0  0  0
   60.3990   27.8960   48.5010 S   0  0  0  0  0  0  0  0  0  0  0  0
   60.8940   28.9170   49.9470 C   0  0  0  0  0  0  0  0  0  0  0  0
   60.0070   30.1660   50.0260 C   0  0  0  0  0  0  0  0  0  0  0  0
   62.5350   33.7930   46.3730 C   0  0  0  0  0  0  0  0  0  0  0  0
   63.3250   32.6380   47.0110 C   0  0  0  0  0  0  0  0  0  0  0  0
   63.2517   31.5903   51.4109 H   0  0  0  0  0  0  0  0  0  0  0  0
   64.4945   30.5437   50.6447 H   0  0  0  0  0  0  0  0  0  0  0  0
   64.6991   32.3283   50.6447 H   0  0  0  0  0  0  0  0  0  0  0  0
   63.4590   30.7040   48.6468 H   0  0  0  0  0  0  0  0  0  0  0  0
   62.1424   31.6484   49.4658 H   0  0  0  0  0  0  0  0  0  0  0  0
   64.6240   32.9440   48.5980 H   0  0  0  0  0  0  0  0  0  0  0  0
   63.0068   33.9474   50.1547 H   0  0  0  0  0  0  0  0  0  0  0  0
   63.4944   34.8960   48.6837 H   0  0  0  0  0  0  0  0  0  0  0  0
   60.9030   33.3415   49.1066 H   0  0  0  0  0  0  0  0  0  0  0  0
   61.1172   35.1323   48.9762 H   0  0  0  0  0  0  0  0  0  0  0  0
   58.9907   33.8951   48.3465 H   0  0  0  0  0  0  0  0  0  0  0  0
   58.3585   35.2847   47.3630 H   0  0  0  0  0  0  0  0  0  0  0  0
   59.1226   32.2803   44.1570 H   0  0  0  0  0  0  0  0  0  0  0  0
   58.0701   32.4334   41.9020 H   0  0  0  0  0  0  0  0  0  0  0  0
   56.1916   30.9029   41.2938 H   0  0  0  0  0  0  0  0  0  0  0  0
   55.3674   29.2167   42.9392 H   0  0  0  0  0  0  0  0  0  0  0  0
   60.7777   28.3271   50.8681 H   0  0  0  0  0  0  0  0  0  0  0  0
   61.9446   29.2229   49.8344 H   0  0  0  0  0  0  0  0  0  0  0  0
   59.1878   30.0066   50.7426 H   0  0  0  0  0  0  0  0  0  0  0  0
   60.5788   31.0412   50.3682 H   0  0  0  0  0  0  0  0  0  0  0  0
   62.2328   33.5118   45.3534 H   0  0  0  0  0  0  0  0  0  0  0  0
   63.1672   34.6923   46.3321 H   0  0  0  0  0  0  0  0  0  0  0  0
   62.7515   31.7098   46.8710 H   0  0  0  0  0  0  0  0  0  0  0  0
   64.3055   32.6143   46.5129 H   0  0  0  0  0  0  0  0  0  0  0  0
  1  2  1  0
  2  3  1  0
  3  4  1  0
  4  5  1  0
  5  6  1  0
  6  7  1  0
  7  8  2  0
  7  9  1  0
  9 10  1  0
 10 11  1  0
 11 12  2  0
 12 13  1  0
 13 14  2  0
 14 15  1  0
 15 16  2  0
 15 17  1  0
 17 18  1  0
 18 19  2  0
 19 20  1  0
 20 21  2  0
 21 22  1  0
 22 23  2  0
 23 24  1  0
 14 25  1  0
 25 26  1  0
 26 27  1  0
  6 28  1  0
 28 29  1  0
 29  3  1  0
 17 11  1  0
 23 18  1  0
 27 13  1  0
  1 30  1  0
  1 31  1  0
  1 32  1  0
  2 33  1  0
  2 34  1  0
  3 35  1  0
  4 36  1  0
  4 37  1  0
  5 38  1  0
  5 39  1  0
  9 40  1  0
  9 41  1  0
 19 42  1  0
 20 43  1  0
 21 44  1  0
 22 45  1  0
 26 46  1  0
 26 47  1  0
 27 48  1  0
 27 49  1  0
 28 50  1  0
 28 51  1  0
 29 52  1  0
 29 53  1  0
M  CHG  1   3   1
M  END
>  <UniqueID>  (9) 
9

>  <SMILES>  (9) 
CC[NH+]1CCN(C(=O)CSc2nc3c(c(=O)n2-c2ccccc2F)SCC3)CC1

>  <Energy>  (9) 
80.9176790483608

>  <Genealogy>  (9) 
CC[NH+]1CCN(C(=O)CSc2nc3c(c(=O)n2-c2ccccc2F)SCC3)CC1 (protonated)
CC[NH+]1CCN(C(=O)CSc2nc3c(c(=O)n2-c2ccccc2F)SCC3)CC1 (3D coordinates assigned)
CC[NH+]1CCN(C(=O)CSc2nc3c(c(=O)n2-c2ccccc2F)SCC3)CC1 (nonaromatic ring conformer: 80.9176790483608 kcal/mol)

>  <smiles>  (9) 
CCN1CCN(C(=O)CSc2nc3c(c(=O)n2-c2ccccc2F)SCC3)CC1

>  <score_type>  (9) 
oracle

>  <origin>  (9) 
adg

>  <m_score__min__energy>  (9) 
-6.8899999999999997

>  <m_primary>  (9) 
energy

$$$$
9:0
     RDKit          3D

 50 53  0  0  0  0  0  0  0  0999 V2000
   58.3210   32.2660   49.8660 C   0  0  0  0  0  0  0  0  0  0  0  0
   59.3560   33.0190   49.2380 O   0  0  0  0  0  0  0  0  0  0  0  0
   59.2940   33.5240   47.9300 C   0  0  0  0  0  0  0  0  0  0  0  0
   58.0710   33.6180   47.2330 C   0  0  0  0  0  0  0  0  0  0  0  0
   58.0310   34.1460   45.9420 C   0  0  0  0  0  0  0  0  0  0  0  0
   59.2070   34.5930   45.3330 C   0  0  0  0  0  0  0  0  0  0  0  0
   60.4240   34.5080   46.0110 C   0  0  0  0  0  0  0  0  0  0  0  0
   60.4860   33.9650   47.3070 C   0  0  0  0  0  0  0  0  0  0  0  0
   61.7630   33.8290   47.9680 N   0  0  0  0  0  0  0  0  0  0  0  0
   61.9140   34.2480   49.3660 C   0  0  0  0  0  0  0  0  0  0  0  0
   63.0300   33.4600   50.0800 C   0  0  0  0  0  0  0  0  0  0  0  0
   63.1410   32.0550   49.6210 N   0  0  0  0  0  0  0  0  0  0  0  0
   62.3600   31.0690   50.3990 C   0  0  0  0  0  0  0  0  0  0  0  0
   61.4110   30.2650   49.5530 C   0  0  0  0  0  0  0  0  0  0  0  0
   61.1290   28.9220   49.6780 C   0  0  0  0  0  0  0  0  0  0  0  0
   60.3000   28.5970   48.7120 O   0  0  0  0  0  0  0  0  0  0  0  0
   60.0570   29.6860   48.0120 C   0  0  0  0  0  0  0  0  0  0  0  0
   59.1840   29.7070   46.8160 C   0  0  0  0  0  0  0  0  0  0  0  0
   59.0740   30.8510   46.0040 C   0  0  0  0  0  0  0  0  0  0  0  0
   58.2390   30.8440   44.8810 C   0  0  0  0  0  0  0  0  0  0  0  0
   57.5090   29.6970   44.5530 C   0  0  0  0  0  0  0  0  0  0  0  0
   56.3670   29.6920   43.0200 Br  0  0  0  0  0  0  0  0  0  0  0  0
   57.6140   28.5540   45.3490 C   0  0  0  0  0  0  0  0  0  0  0  0
   58.4460   28.5570   46.4740 C   0  0  0  0  0  0  0  0  0  0  0  0
   60.7160   30.7540   48.5120 N   0  0  0  0  0  0  0  0  0  0  0  0
   63.1560   31.8290   48.1540 C   0  0  0  0  0  0  0  0  0  0  0  0
   62.8640   33.0960   47.3430 C   0  0  0  0  0  0  0  0  0  0  0  0
   58.4242   32.3411   50.9586 H   0  0  0  0  0  0  0  0  0  0  0  0
   57.3417   32.6642   49.5620 H   0  0  0  0  0  0  0  0  0  0  0  0
   58.3985   31.2117   49.5620 H   0  0  0  0  0  0  0  0  0  0  0  0
   57.1423   33.2726   47.7107 H   0  0  0  0  0  0  0  0  0  0  0  0
   57.0740   34.2105   45.4036 H   0  0  0  0  0  0  0  0  0  0  0  0
   59.1733   35.0128   44.3168 H   0  0  0  0  0  0  0  0  0  0  0  0
   61.3435   34.8691   45.5271 H   0  0  0  0  0  0  0  0  0  0  0  0
   62.1614   35.3195   49.3923 H   0  0  0  0  0  0  0  0  0  0  0  0
   60.9662   34.0493   49.8878 H   0  0  0  0  0  0  0  0  0  0  0  0
   63.9889   33.9653   49.8928 H   0  0  0  0  0  0  0  0  0  0  0  0
   62.7773   33.4342   51.1503 H   0  0  0  0  0  0  0  0  0  0  0  0
   63.0603   30.3784   50.8915 H   0  0  0  0  0  0  0  0  0  0  0  0
   61.7547   31.6310   51.1255 H   0  0  0  0  0  0  0  0  0  0  0  0
   61.5264   28.2442   50.4478 H   0  0  0  0  0  0  0  0  0  0  0  0
   59.6476   31.7559   46.2534 H   0  0  0  0  0  0  0  0  0  0  0  0
   58.1565   31.7440   44.2539 H   0  0  0  0  0  0  0  0  0  0  0  0
   57.0420   27.6505   45.0912 H   0  0  0  0  0  0  0  0  0  0  0  0
   58.5244   27.6536   47.0966 H   0  0  0  0  0  0  0  0  0  0  0  0
   60.7320   31.7360   48.1590 H   0  0  0  0  0  0  0  0  0  0  0  0
   64.1496   31.4530   47.8687 H   0  0  0  0  0  0  0  0  0  0  0  0
   62.3587   31.1059   47.9274 H   0  0  0  0  0  0  0  0  0  0  0  0
   63.7615   33.7316   47.3191 H   0  0  0  0  0  0  0  0  0  0  0  0
   62.5851   32.8190   46.3157 H   0  0  0  0  0  0  0  0  0  0  0  0
  1  2  1  0
  2  3  1  0
  3  4  2  0
  4  5  1  0
  5  6  2  0
  6  7  1  0
  7  8  2  0
  8  9  1  0
  9 10  1  0
 10 11  1  0
 11 12  1  0
 12 13  1  0
 13 14  1  0
 14 15  2  0
 15 16  1  0
 16 17  1  0
 17 18  1  0
 18 19  2  0
 19 20  1  0
 20 21  2  0
 21 22  1  0
 21 23  1  0
 23 24  2  0
 17 25  2  0
 12 26  1  0
 26 27  1  0
  8  3  1  0
 27  9  1  0
 25 14  1  0
 24 18  1  0
  1 28  1  0
  1 29  1  0
  1 30  1  0
  4 31  1  0
  5 32  1  0
  6 33  1  0
  7 34  1  0
 10 35  1  0
 10 36  1  0
 11 37  1  0
 11 38  1  0
 13 39  1  0
 13 40  1  0
 15 41  1  0
 19 42  1  0
 20 43  1  0
 23 44  1  0
 24 45  1  0
 25 46  1  0
 26 47  1  0
 26 48  1  0
 27 49  1  0
 27 50  1  0
M  CHG  1  25   1
M  END
>  <UniqueID>  (10) 
10

>  <SMILES>  (10) 
COc1ccccc1N1CCN(Cc2coc(-c3ccc(Br)cc3)[nH+]2)CC1

>  <Energy>  (10) 
97.60733784199368

>  <Genealogy>  (10) 
COc1ccccc1N1CCN(Cc2coc(-c3ccc(Br)cc3)[nH+]2)CC1 (protonated)
COc1ccccc1N1CCN(Cc2coc(-c3ccc(Br)cc3)[nH+]2)CC1 (3D coordinates assigned)
COc1ccccc1N1CCN(Cc2coc(-c3ccc(Br)cc3)[nH+]2)CC1 (nonaromatic ring conformer: 97.60733784199368 kcal/mol)

>  <smiles>  (10) 
COc1ccccc1N1CCN(Cc2coc(-c3ccc(Br)cc3)n2)CC1

>  <score_type>  (10) 
oracle

>  <origin>  (10) 
adg

>  <m_score__min__energy>  (10) 
-6.3099999999999996

>  <m_primary>  (10) 
energy

$$$$
10:0
     RDKit          3D

 39 42  0  0  0  0  0  0  0  0999 V2000
   60.3700   34.2170   48.3060 C   0  0  0  0  0  0  0  0  0  0  0  0
   59.0270   33.8130   48.0660 O   0  0  0  0  0  0  0  0  0  0  0  0
   58.5380   33.3820   46.8240 C   0  0  0  0  0  0  0  0  0  0  0  0
   58.4100   34.2490   45.7240 C   0  0  0  0  0  0  0  0  0  0  0  0
   57.9170   33.7710   44.5080 C   0  0  0  0  0  0  0  0  0  0  0  0
   57.5490   32.4300   44.3750 C   0  0  0  0  0  0  0  0  0  0  0  0
   57.6710   31.5450   45.4630 C   0  0  0  0  0  0  0  0  0  0  0  0
   57.2960   30.1570   45.3460 N   0  0  0  0  0  0  0  0  0  0  0  0
   58.0960   29.0710   45.4180 C   0  0  0  0  0  0  0  0  0  0  0  0
   57.2820   27.9620   45.2600 C   0  0  0  0  0  0  0  0  0  0  0  0
   57.6910   26.5370   45.2650 C   0  0  0  0  0  0  0  0  0  0  0  0
   58.7780   26.1100   46.0490 C   0  0  0  0  0  0  0  0  0  0  0  0
   59.1700   24.7690   46.0590 C   0  0  0  0  0  0  0  0  0  0  0  0
   58.4800   23.8260   45.2850 C   0  0  0  0  0  0  0  0  0  0  0  0
   58.8660   22.4770   45.2880 C   0  0  0  0  0  0  0  0  0  0  0  0
   58.1680   21.5450   44.5140 C   0  0  0  0  0  0  0  0  0  0  0  0
   57.0830   21.9540   43.7320 C   0  0  0  0  0  0  0  0  0  0  0  0
   56.6900   23.2950   43.7200 C   0  0  0  0  0  0  0  0  0  0  0  0
   57.3830   24.2410   44.4930 C   0  0  0  0  0  0  0  0  0  0  0  0
   56.9970   25.5890   44.4890 C   0  0  0  0  0  0  0  0  0  0  0  0
   56.0220   28.4170   45.0990 N   0  0  0  0  0  0  0  0  0  0  0  0
   56.0530   29.7390   45.1540 N   0  0  0  0  0  0  0  0  0  0  0  0
   58.1660   32.0390   46.6840 C   0  0  0  0  0  0  0  0  0  0  0  0
   60.5486   34.2707   49.3901 H   0  0  0  0  0  0  0  0  0  0  0  0
   61.0586   33.4862   47.8567 H   0  0  0  0  0  0  0  0  0  0  0  0
   60.5411   35.2064   47.8567 H   0  0  0  0  0  0  0  0  0  0  0  0
   58.6988   35.3059   45.8217 H   0  0  0  0  0  0  0  0  0  0  0  0
   57.8180   34.4535   43.6510 H   0  0  0  0  0  0  0  0  0  0  0  0
   57.1611   32.0629   43.4133 H   0  0  0  0  0  0  0  0  0  0  0  0
   59.1851   29.0681   45.5725 H   0  0  0  0  0  0  0  0  0  0  0  0
   59.3261   26.8408   46.6617 H   0  0  0  0  0  0  0  0  0  0  0  0
   60.0233   24.4521   46.6766 H   0  0  0  0  0  0  0  0  0  0  0  0
   59.7198   22.1519   45.9007 H   0  0  0  0  0  0  0  0  0  0  0  0
   58.4728   20.4881   44.5201 H   0  0  0  0  0  0  0  0  0  0  0  0
   56.5370   21.2175   43.1242 H   0  0  0  0  0  0  0  0  0  0  0  0
   55.8355   23.6106   43.1034 H   0  0  0  0  0  0  0  0  0  0  0  0
   56.1434   25.9091   43.8734 H   0  0  0  0  0  0  0  0  0  0  0  0
   55.1560   27.8610   44.9370 H   0  0  0  0  0  0  0  0  0  0  0  0
   58.2624   31.3589   47.5431 H   0  0  0  0  0  0  0  0  0  0  0  0
  1  2  1  0
  2  3  1  0
  3  4  2  0
  4  5  1  0
  5  6  2  0
  6  7  1  0
  7  8  1  0
  8  9  1  0
  9 10  2  0
 10 11  1  0
 11 12  2  0
 12 13  1  0
 13 14  2  0
 14 15  1  0
 15 16  2  0
 16 17  1  0
 17 18  2  0
 18 19  1  0
 19 20  2  0
 10 21  1  0
 21 22  2  0
  7 23  2  0
 23  3  1  0
 22  8  1  0
 20 11  1  0
 19 14  1  0
  1 24  1  0
  1 25  1  0
  1 26  1  0
  4 27  1  0
  5 28  1  0
  6 29  1  0
  9 30  1  0
 12 31  1  0
 13 32  1  0
 15 33  1  0
 16 34  1  0
 17 35  1  0
 18 36  1  0
 20 37  1  0
 21 38  1  0
 23 39  1  0
M  CHG  1  21   1
M  END
>  <UniqueID>  (11) 
11

>  <SMILES>  (11) 
COc1cccc(-n2cc(-c3ccc4ccccc4c3)[nH+]n2)c1

>  <Energy>  (11) 
86.3566263614609

>  <Genealogy>  (11) 
COc1cccc(-n2cc(-c3ccc4ccccc4c3)[nH+]n2)c1 (protonated)
COc1cccc(-n2cc(-c3ccc4ccccc4c3)[nH+]n2)c1 (3D coordinates assigned)
COc1cccc(-n2cc(-c3ccc4ccccc4c3)[nH+]n2)c1 (optimized conformer: 86.3566263614609 kcal/mol)

>  <smiles>  (11) 
COc1cccc(-n2cc(-c3ccc4ccccc4c3)nn2)c1

>  <score_type>  (11) 
oracle

>  <origin>  (11) 
adg

>  <m_score__min__energy>  (11) 
-6.7800000000000002

>  <m_primary>  (11) 
energy

$$$$
11:0
     RDKit          3D

 43 45  0  0  0  0  0  0  0  0999 V2000
   59.5550   33.4680   50.6270 C   0  0  0  0  0  0  0  0  0  0  0  0
   59.7150   33.8500   49.2650 O   0  0  0  0  0  0  0  0  0  0  0  0
   60.9270   33.7940   48.5570 C   0  0  0  0  0  0  0  0  0  0  0  0
   62.1710   33.9100   49.2070 C   0  0  0  0  0  0  0  0  0  0  0  0
   63.3570   33.9000   48.4700 C   0  0  0  0  0  0  0  0  0  0  0  0
   63.3180   33.7790   47.0810 C   0  0  0  0  0  0  0  0  0  0  0  0
   62.0920   33.6540   46.4250 C   0  0  0  0  0  0  0  0  0  0  0  0
   60.8920   33.6440   47.1550 C   0  0  0  0  0  0  0  0  0  0  0  0
   59.6410   33.5110   46.4600 N   0  0  0  0  0  0  0  0  0  0  0  0
   58.7650   32.3550   46.5590 C   0  0  0  0  0  0  0  0  0  0  0  0
   57.5390   32.6690   45.6640 C   0  0  2  0  0  0  0  0  0  0  0  0
   57.1940   31.5200   44.7420 C   0  0  0  0  0  0  0  0  0  0  0  0
   57.0790   31.7320   43.5050 O   0  0  0  0  0  0  0  0  0  0  0  0
   56.9130   30.2070   45.2450 N   0  0  0  0  0  0  0  0  0  0  0  0
   57.8810   29.2390   45.6720 C   0  0  0  0  0  0  0  0  0  0  0  0
   58.4610   29.3170   46.9510 C   0  0  0  0  0  0  0  0  0  0  0  0
   59.4190   28.3830   47.3500 C   0  0  0  0  0  0  0  0  0  0  0  0
   59.8220   27.3750   46.4730 C   0  0  0  0  0  0  0  0  0  0  0  0
   59.2770   27.3050   45.1910 C   0  0  0  0  0  0  0  0  0  0  0  0
   58.3110   28.2370   44.7770 C   0  0  0  0  0  0  0  0  0  0  0  0
   57.7310   28.1530   43.3910 C   0  0  0  0  0  0  0  0  0  0  0  0
   57.8710   33.9600   44.8810 C   0  0  0  0  0  0  0  0  0  0  0  0
   59.1110   34.4350   45.5260 C   0  0  0  0  0  0  0  0  0  0  0  0
   59.6320   35.5590   45.2940 O   0  0  0  0  0  0  0  0  0  0  0  0
   59.8971   34.2848   51.2795 H   0  0  0  0  0  0  0  0  0  0  0  0
   58.4937   33.2590   50.8269 H   0  0  0  0  0  0  0  0  0  0  0  0
   60.1505   32.5650   50.8269 H   0  0  0  0  0  0  0  0  0  0  0  0
   62.2086   34.0091   50.3019 H   0  0  0  0  0  0  0  0  0  0  0  0
   64.3244   33.9878   48.9861 H   0  0  0  0  0  0  0  0  0  0  0  0
   64.2535   33.7821   46.5023 H   0  0  0  0  0  0  0  0  0  0  0  0
   62.0656   33.5627   45.3291 H   0  0  0  0  0  0  0  0  0  0  0  0
   59.2806   31.4529   46.1979 H   0  0  0  0  0  0  0  0  0  0  0  0
   58.4652   32.1651   47.6002 H   0  0  0  0  0  0  0  0  0  0  0  0
   56.6427   32.8152   46.2846 H   0  0  0  0  0  0  0  0  0  0  0  0
   58.1581   30.1185   47.6409 H   0  0  0  0  0  0  0  0  0  0  0  0
   59.8569   28.4418   48.3574 H   0  0  0  0  0  0  0  0  0  0  0  0
   60.5702   26.6349   46.7931 H   0  0  0  0  0  0  0  0  0  0  0  0
   59.6057   26.5150   44.4998 H   0  0  0  0  0  0  0  0  0  0  0  0
   56.6443   27.9956   43.4572 H   0  0  0  0  0  0  0  0  0  0  0  0
   57.9336   29.0899   42.8513 H   0  0  0  0  0  0  0  0  0  0  0  0
   58.1911   27.3121   42.8513 H   0  0  0  0  0  0  0  0  0  0  0  0
   58.0384   33.7434   43.8156 H   0  0  0  0  0  0  0  0  0  0  0  0
   57.0591   34.7018   44.9072 H   0  0  0  0  0  0  0  0  0  0  0  0
  1  2  1  0
  2  3  1  0
  3  4  2  0
  4  5  1  0
  5  6  2  0
  6  7  1  0
  7  8  2  0
  8  9  1  0
  9 10  1  0
 10 11  1  0
 11 12  1  0
 12 13  2  0
 12 14  1  0
 14 15  1  0
 15 16  2  0
 16 17  1  0
 17 18  2  0
 18 19  1  0
 19 20  2  0
 20 21  1  0
 11 22  1  0
 22 23  1  0
 23 24  2  0
  8  3  1  0
 23  9  1  0
 20 15  1  0
  1 25  1  0
  1 26  1  0
  1 27  1  0
  4 28  1  0
  5 29  1  0
  6 30  1  0
  7 31  1  0
 10 32  1  0
 10 33  1  0
 11 34  1  1
 16 35  1  0
 17 36  1  0
 18 37  1  0
 19 38  1  0
 21 39  1  0
 21 40  1  0
 21 41  1  0
 22 42  1  0
 22 43  1  0
M  CHG  1  14  -1
M  END
>  <UniqueID>  (12) 
12

>  <SMILES>  (12) 
COc1ccccc1N1C[C@H](C(=O)[N-]c2ccccc2C)CC1=O

>  <Energy>  (12) 
62.2691174066272

>  <Genealogy>  (12) 
COc1ccccc1N1CC(C(=O)[N-]c2ccccc2C)CC1=O (protonated)
COc1ccccc1N1C[C@H](C(=O)[N-]c2ccccc2C)CC1=O (chirality)
COc1ccccc1N1C[C@H](C(=O)[N-]c2ccccc2C)CC1=O (3D coordinates assigned)
COc1ccccc1N1C[C@H](C(=O)[N-]c2ccccc2C)CC1=O (nonaromatic ring conformer: 62.2691174066272 kcal/mol)

>  <smiles>  (12) 
COc1ccccc1N1CC(C(=O)Nc2ccccc2C)CC1=O

>  <score_type>  (12) 
oracle

>  <origin>  (12) 
adg

>  <m_score__min__energy>  (12) 
-9.4900000000000002

>  <m_primary>  (12) 
energy

$$$$
12:0
     RDKit          3D

 47 47  0  0  0  0  0  0  0  0999 V2000
   57.4070   26.3990   45.3580 C   0  0  0  0  0  0  0  0  0  0  0  0
   57.3610   27.5000   46.2610 O   0  0  0  0  0  0  0  0  0  0  0  0
   58.4190   28.3970   46.4650 C   0  0  0  0  0  0  0  0  0  0  0  0
   58.5190   29.0380   47.7040 C   0  0  0  0  0  0  0  0  0  0  0  0
   59.5620   29.9320   47.9620 C   0  0  0  0  0  0  0  0  0  0  0  0
   60.5290   30.1910   46.9780 C   0  0  0  0  0  0  0  0  0  0  0  0
   61.6460   31.1690   47.2430 C   0  0  0  0  0  0  0  0  0  0  0  0
   61.1100   32.4340   47.7670 N   0  0  0  0  0  0  0  0  0  0  0  0
   60.6050   33.2740   46.6690 C   0  0  0  0  0  0  0  0  0  0  0  0
   59.1780   33.7890   46.9390 C   0  0  0  0  0  0  0  0  0  0  0  0
   58.0700   32.7210   46.8410 C   0  0  0  0  0  0  0  0  0  0  0  0
   57.2120   32.8280   45.5740 C   0  0  0  0  0  0  0  0  0  0  0  0
   56.8010   31.4950   45.1140 N   0  0  0  0  0  0  0  0  0  0  0  0
   57.6490   31.0470   44.0030 C   0  0  0  0  0  0  0  0  0  0  0  0
   56.8980   30.0430   43.1150 C   0  0  0  0  0  0  0  0  0  0  0  0
   55.5010   29.6950   43.6530 C   0  0  0  0  0  0  0  0  0  0  0  0
   55.5570   29.3300   45.0660 N   0  0  0  0  0  0  0  0  0  0  0  0
   60.4260   29.5610   45.7290 C   0  0  0  0  0  0  0  0  0  0  0  0
   59.3830   28.6660   45.4730 C   0  0  0  0  0  0  0  0  0  0  0  0
   57.4463   25.4589   45.9278 H   0  0  0  0  0  0  0  0  0  0  0  0
   56.5078   26.4065   44.7245 H   0  0  0  0  0  0  0  0  0  0  0  0
   58.3025   26.4815   44.7245 H   0  0  0  0  0  0  0  0  0  0  0  0
   57.7693   28.8366   48.4833 H   0  0  0  0  0  0  0  0  0  0  0  0
   59.6252   30.4339   48.9388 H   0  0  0  0  0  0  0  0  0  0  0  0
   62.3385   30.7364   47.9801 H   0  0  0  0  0  0  0  0  0  0  0  0
   62.1737   31.3703   46.2991 H   0  0  0  0  0  0  0  0  0  0  0  0
   60.3290   32.2160   48.4280 H   0  0  0  0  0  0  0  0  0  0  0  0
   61.8670   32.9450   48.2790 H   0  0  0  0  0  0  0  0  0  0  0  0
   61.2757   34.1371   46.5460 H   0  0  0  0  0  0  0  0  0  0  0  0
   60.5748   32.6574   45.7585 H   0  0  0  0  0  0  0  0  0  0  0  0
   59.1546   34.2128   47.9538 H   0  0  0  0  0  0  0  0  0  0  0  0
   58.9637   34.5272   46.1522 H   0  0  0  0  0  0  0  0  0  0  0  0
   58.5439   31.7284   46.8553 H   0  0  0  0  0  0  0  0  0  0  0  0
   57.3968   32.8808   47.6962 H   0  0  0  0  0  0  0  0  0  0  0  0
   56.3158   33.4268   45.7938 H   0  0  0  0  0  0  0  0  0  0  0  0
   57.8062   33.3086   44.7828 H   0  0  0  0  0  0  0  0  0  0  0  0
   56.9230   30.8260   45.9130 H   0  0  0  0  0  0  0  0  0  0  0  0
   57.9395   31.9178   43.3970 H   0  0  0  0  0  0  0  0  0  0  0  0
   58.5412   30.5540   44.4165 H   0  0  0  0  0  0  0  0  0  0  0  0
   56.7888   30.4768   42.1100 H   0  0  0  0  0  0  0  0  0  0  0  0
   57.4859   29.1134   43.0987 H   0  0  0  0  0  0  0  0  0  0  0  0
   54.8424   30.5679   43.5334 H   0  0  0  0  0  0  0  0  0  0  0  0
   55.1124   28.8364   43.0858 H   0  0  0  0  0  0  0  0  0  0  0  0
   56.5640   29.3010   45.3460 H   0  0  0  0  0  0  0  0  0  0  0  0
   55.1150   30.0990   45.6210 H   0  0  0  0  0  0  0  0  0  0  0  0
   61.1699   29.7723   44.9467 H   0  0  0  0  0  0  0  0  0  0  0  0
   59.3146   28.1699   44.4936 H   0  0  0  0  0  0  0  0  0  0  0  0
  1  2  1  0
  2  3  1  0
  3  4  2  0
  4  5  1  0
  5  6  2  0
  6  7  1  0
  7  8  1  0
  8  9  1  0
  9 10  1  0
 10 11  1  0
 11 12  1  0
 12 13  1  0
 13 14  1  0
 14 15  1  0
 15 16  1  0
 16 17  1  0
  6 18  1  0
 18 19  2  0
 19  3  1  0
  1 20  1  0
  1 21  1  0
  1 22  1  0
  4 23  1  0
  5 24  1  0
  7 25  1  0
  7 26  1  0
  8 27  1  0
  8 28  1  0
  9 29  1  0
  9 30  1  0
 10 31  1  0
 10 32  1  0
 11 33  1  0
 11 34  1  0
 12 35  1  0
 12 36  1  0
 13 37  1  0
 14 38  1  0
 14 39  1  0
 15 40  1  0
 15 41  1  0
 16 42  1  0
 16 43  1  0
 17 44  1  0
 17 45  1  0
 18 46  1  0
 19 47  1  0
M  CHG  1   8   1
M  END
>  <UniqueID>  (13) 
13

>  <SMILES>  (13) 
COc1ccc(C[NH2+]CCCCNCCCN)cc1

>  <Energy>  (13) 
31.268217549507995

>  <Genealogy>  (13) 
COc1ccc(C[NH2+]CCCCNCCCN)cc1 (protonated)
COc1ccc(C[NH2+]CCCCNCCCN)cc1 (3D coordinates assigned)
COc1ccc(C[NH2+]CCCCNCCCN)cc1 (optimized conformer: 31.268217549507995 kcal/mol)

>  <smiles>  (13) 
COc1ccc(CNCCCCNCCCN)cc1

>  <score_type>  (13) 
oracle

>  <origin>  (13) 
adg

>  <m_score__min__energy>  (13) 
-4.0199999999999996

>  <m_primary>  (13) 
energy

$$$$
13:0
     RDKit          3D

 49 52  0  0  0  0  0  0  0  0999 V2000
   57.4810   27.1380   44.9670 C   0  0  0  0  0  0  0  0  0  0  0  0
   57.2660   28.6170   44.9650 C   0  0  0  0  0  0  0  0  0  0  0  0
   56.0950   29.1830   44.7910 O   0  0  0  0  0  0  0  0  0  0  0  0
   56.1800   30.4780   44.8660 N   0  0  0  0  0  0  0  0  0  0  0  0
   57.4710   30.7820   45.1040 C   0  0  0  0  0  0  0  0  0  0  0  0
   57.9270   32.1630   45.3370 C   0  0  0  0  0  0  0  0  0  0  0  0
   58.4820   32.9000   44.2790 C   0  0  0  0  0  0  0  0  0  0  0  0
   58.9160   34.2130   44.4870 C   0  0  0  0  0  0  0  0  0  0  0  0
   58.7800   34.8040   45.7460 C   0  0  0  0  0  0  0  0  0  0  0  0
   58.2010   34.0860   46.7960 C   0  0  0  0  0  0  0  0  0  0  0  0
   57.7680   32.7730   46.5930 C   0  0  0  0  0  0  0  0  0  0  0  0
   58.2200   29.6090   45.1490 C   0  0  0  0  0  0  0  0  0  0  0  0
   59.7180   29.4160   45.3020 C   0  0  0  0  0  0  0  0  0  0  0  0
   60.2680   29.8130   46.6270 N   0  0  0  0  0  0  0  0  0  0  0  0
   60.5390   31.2710   46.7220 C   0  0  0  0  0  0  0  0  0  0  0  0
   60.8150   31.7040   48.1660 C   0  0  0  0  0  0  0  0  0  0  0  0
   59.6680   31.3660   49.0210 N   0  0  0  0  0  0  0  0  0  0  0  0
   59.4280   32.0980   50.2440 C   0  0  0  0  0  0  0  0  0  0  0  0
   58.1720   32.0370   50.8790 C   0  0  0  0  0  0  0  0  0  0  0  0
   57.9410   32.7450   52.0620 C   0  0  0  0  0  0  0  0  0  0  0  0
   58.9580   33.5190   52.6270 C   0  0  0  0  0  0  0  0  0  0  0  0
   58.7310   34.2030   53.7750 F   0  0  0  0  0  0  0  0  0  0  0  0
   60.2080   33.5850   52.0080 C   0  0  0  0  0  0  0  0  0  0  0  0
   60.4450   32.8810   50.8240 C   0  0  0  0  0  0  0  0  0  0  0  0
   58.7340   30.3240   48.5730 C   0  0  0  0  0  0  0  0  0  0  0  0
   59.4940   29.2560   47.7750 C   0  0  0  0  0  0  0  0  0  0  0  0
   57.5335   26.7765   46.0046 H   0  0  0  0  0  0  0  0  0  0  0  0
   56.6450   26.6453   44.4489 H   0  0  0  0  0  0  0  0  0  0  0  0
   58.4226   26.9037   44.4489 H   0  0  0  0  0  0  0  0  0  0  0  0
   58.5758   32.4431   43.2828 H   0  0  0  0  0  0  0  0  0  0  0  0
   59.3648   34.7811   43.6589 H   0  0  0  0  0  0  0  0  0  0  0  0
   59.1286   35.8342   45.9106 H   0  0  0  0  0  0  0  0  0  0  0  0
   58.0859   34.5554   47.7842 H   0  0  0  0  0  0  0  0  0  0  0  0
   57.3015   32.2154   47.4185 H   0  0  0  0  0  0  0  0  0  0  0  0
   59.9435   28.3511   45.1434 H   0  0  0  0  0  0  0  0  0  0  0  0
   60.1919   30.0760   44.5605 H   0  0  0  0  0  0  0  0  0  0  0  0
   61.2100   29.3520   46.6720 H   0  0  0  0  0  0  0  0  0  0  0  0
   61.4166   31.5114   46.1040 H   0  0  0  0  0  0  0  0  0  0  0  0
   59.6475   31.8090   46.3674 H   0  0  0  0  0  0  0  0  0  0  0  0
   61.7111   31.1849   48.5369 H   0  0  0  0  0  0  0  0  0  0  0  0
   60.9760   32.7918   48.1919 H   0  0  0  0  0  0  0  0  0  0  0  0
   57.3675   31.4280   50.4409 H   0  0  0  0  0  0  0  0  0  0  0  0
   56.9562   32.6927   52.5493 H   0  0  0  0  0  0  0  0  0  0  0  0
   61.0089   34.1931   52.4537 H   0  0  0  0  0  0  0  0  0  0  0  0
   61.4321   32.9388   50.3421 H   0  0  0  0  0  0  0  0  0  0  0  0
   58.2595   29.8573   49.4488 H   0  0  0  0  0  0  0  0  0  0  0  0
   57.9629   30.7771   47.9325 H   0  0  0  0  0  0  0  0  0  0  0  0
   60.1943   28.7465   48.4533 H   0  0  0  0  0  0  0  0  0  0  0  0
   58.7443   28.5677   47.3577 H   0  0  0  0  0  0  0  0  0  0  0  0
  1  2  1  0
  2  3  1  0
  3  4  1  0
  4  5  2  0
  5  6  1  0
  6  7  2  0
  7  8  1  0
  8  9  2  0
  9 10  1  0
 10 11  2  0
  5 12  1  0
 12 13  1  0
 13 14  1  0
 14 15  1  0
 15 16  1  0
 16 17  1  0
 17 18  1  0
 18 19  2  0
 19 20  1  0
 20 21  2  0
 21 22  1  0
 21 23  1  0
 23 24  2  0
 17 25  1  0
 25 26  1  0
 12  2  2  0
 26 14  1  0
 11  6  1  0
 24 18  1  0
  1 27  1  0
  1 28  1  0
  1 29  1  0
  7 30  1  0
  8 31  1  0
  9 32  1  0
 10 33  1  0
 11 34  1  0
 13 35  1  0
 13 36  1  0
 14 37  1  0
 15 38  1  0
 15 39  1  0
 16 40  1  0
 16 41  1  0
 19 42  1  0
 20 43  1  0
 23 44  1  0
 24 45  1  0
 25 46  1  0
 25 47  1  0
 26 48  1  0
 26 49  1  0
M  CHG  1  14   1
M  END
>  <UniqueID>  (14) 
14

>  <SMILES>  (14) 
Cc1onc(-c2ccccc2)c1C[NH+]1CCN(c2ccc(F)cc2)CC1

>  <Energy>  (14) 
100.21785869486904

>  <Genealogy>  (14) 
Cc1onc(-c2ccccc2)c1C[NH+]1CCN(c2ccc(F)cc2)CC1 (protonated)
Cc1onc(-c2ccccc2)c1C[NH+]1CCN(c2ccc(F)cc2)CC1 (3D coordinates assigned)
Cc1onc(-c2ccccc2)c1C[NH+]1CCN(c2ccc(F)cc2)CC1 (nonaromatic ring conformer: 100.21785869486904 kcal/mol)

>  <smiles>  (14) 
Cc1onc(-c2ccccc2)c1CN1CCN(c2ccc(F)cc2)CC1

>  <score_type>  (14) 
oracle

>  <origin>  (14) 
adg

>  <m_score__min__energy>  (14) 
-7.0199999999999996

>  <m_primary>  (14) 
energy

$$$$
14:0
     RDKit          3D

 45 47  0  0  0  0  0  0  0  0999 V2000
   54.7560   28.4150   44.5150 H   0  0  0  0  0  0  0  0  0  0  0  0
   55.1450   29.3500   44.4760 O   0  0  0  0  0  0  0  0  0  0  0  0
   56.4990   29.6010   44.3310 N   0  0  0  0  0  0  0  0  0  0  0  0
   57.3150   29.4350   45.3600 C   0  0  0  0  0  0  0  0  0  0  0  0
   57.7790   30.5580   45.9740 N   0  0  0  0  0  0  0  0  0  0  0  0
   58.7090   30.5610   46.9560 C   0  0  0  0  0  0  0  0  0  0  0  0
   59.1190   31.8150   47.5220 N   0  0  0  0  0  0  0  0  0  0  0  0
   58.5310   32.2870   48.7770 C   0  0  0  0  0  0  0  0  0  0  0  0
   58.2122   31.4260   49.3829 H   0  0  0  0  0  0  0  0  0  0  0  0
   57.6564   32.9198   48.5656 H   0  0  0  0  0  0  0  0  0  0  0  0
   59.5840   33.0930   49.5420 C   0  0  0  0  0  0  0  0  0  0  0  0
   60.4157   32.4231   49.8054 H   0  0  0  0  0  0  0  0  0  0  0  0
   59.0959   33.5102   50.4352 H   0  0  0  0  0  0  0  0  0  0  0  0
   60.1240   34.2330   48.7550 N   0  0  0  0  0  0  0  0  0  0  0  0
   61.5350   34.4800   49.0880 C   0  0  0  0  0  0  0  0  0  0  0  0
   61.6555   34.5011   50.1812 H   0  0  0  0  0  0  0  0  0  0  0  0
   62.1573   33.6771   48.6659 H   0  0  0  0  0  0  0  0  0  0  0  0
   61.8476   35.4465   48.6659 H   0  0  0  0  0  0  0  0  0  0  0  0
   59.9220   34.1400   47.2870 C   0  0  0  0  0  0  0  0  0  0  0  0
   60.6979   34.7393   46.7882 H   0  0  0  0  0  0  0  0  0  0  0  0
   58.9103   34.5139   47.0707 H   0  0  0  0  0  0  0  0  0  0  0  0
   60.0010   32.7000   46.7580 C   0  0  0  0  0  0  0  0  0  0  0  0
   61.0367   32.3401   46.8459 H   0  0  0  0  0  0  0  0  0  0  0  0
   59.6807   32.6934   45.7057 H   0  0  0  0  0  0  0  0  0  0  0  0
   59.2870   29.3550   47.3650 C   0  0  0  0  0  0  0  0  0  0  0  0
   60.3560   29.3700   48.3420 C   0  0  0  0  0  0  0  0  0  0  0  0
   61.2110   29.3820   49.1220 N   0  0  0  0  0  0  0  0  0  0  0  0
   58.8130   28.1420   46.8220 C   0  0  0  0  0  0  0  0  0  0  0  0
   57.7630   28.1630   45.8550 C   0  0  0  0  0  0  0  0  0  0  0  0
   57.0700   26.8570   45.4810 C   0  0  0  0  0  0  0  0  0  0  0  0
   57.4148   26.5548   44.4811 H   0  0  0  0  0  0  0  0  0  0  0  0
   55.9870   27.0474   45.5116 H   0  0  0  0  0  0  0  0  0  0  0  0
   57.3500   25.7130   46.4540 C   0  0  0  0  0  0  0  0  0  0  0  0
   56.9603   24.7729   46.0365 H   0  0  0  0  0  0  0  0  0  0  0  0
   56.8564   25.9199   47.4150 H   0  0  0  0  0  0  0  0  0  0  0  0
   58.8490   25.5880   46.6710 C   0  0  0  0  0  0  0  0  0  0  0  0
   59.3515   25.4787   45.6986 H   0  0  0  0  0  0  0  0  0  0  0  0
   59.0548   24.7051   47.2940 H   0  0  0  0  0  0  0  0  0  0  0  0
   59.3720   26.8370   47.3750 C   0  0  0  0  0  0  0  0  0  0  0  0
   60.4669   26.8589   47.2719 H   0  0  0  0  0  0  0  0  0  0  0  0
   59.0456   26.7707   48.4234 H   0  0  0  0  0  0  0  0  0  0  0  0
   56.8700   30.2250   43.0580 C   0  0  0  0  0  0  0  0  0  0  0  0
   57.4232   31.1555   43.2532 H   0  0  0  0  0  0  0  0  0  0  0  0
   57.5046   29.5350   42.4826 H   0  0  0  0  0  0  0  0  0  0  0  0
   55.9606   30.4529   42.4826 H   0  0  0  0  0  0  0  0  0  0  0  0
  1  2  1  0
  2  3  1  0
  3  4  2  0
  4  5  1  0
  5  6  1  0
  6  7  1  0
  7  8  1  0
  8  9  1  0
  8 10  1  0
  8 11  1  0
 11 12  1  0
 11 13  1  0
 11 14  1  0
 14 15  1  0
 15 16  1  0
 15 17  1  0
 15 18  1  0
 14 19  1  0
 19 20  1  0
 19 21  1  0
 19 22  1  0
 22 23  1  0
 22 24  1  0
  6 25  2  0
 25 26  1  0
 26 27  3  0
 25 28  1  0
 28 29  2  0
 29 30  1  0
 30 31  1  0
 30 32  1  0
 30 33  1  0
 33 34  1  0
 33 35  1  0
 33 36  1  0
 36 37  1  0
 36 38  1  0
 36 39  1  0
 39 40  1  0
 39 41  1  0
  3 42  1  0
 42 43  1  0
 42 44  1  0
 42 45  1  0
 29  4  1  0
 22  7  1  0
 39 28  1  0
M  CHG  2   3   1   5  -1
M  END
>  <UniqueID>  (15) 
15

>  <SMILES>  (15) 
CN1CCN(c2[n-]/c(=[N+](/C)O)c3c(c2C#N)CCCC3)CC1

>  <Energy>  (15) 
77.3404640808215

>  <Genealogy>  (15) 
CN1CCN(c2[n-]c(=[N+](C)O)c3c(c2C#N)CCCC3)CC1 (protonated)
CN1CCN(c2[n-]/c(=[N+](/C)O)c3c(c2C#N)CCCC3)CC1 (cis-trans isomerization)
CN1CCN(c2[n-]/c(=[N+](/C)O)c3c(c2C#N)CCCC3)CC1 (3D coordinates assigned)
CN1CCN(c2[n-]/c(=[N+](/C)O)c3c(c2C#N)CCCC3)CC1 (nonaromatic ring conformer: 77.3404640808215 kcal/mol)

>  <smiles>  (15) 
CN1CCN(c2[nH]c(=[N+](C)[O-])c3c(c2C#N)CCCC3)CC1

>  <score_type>  (15) 
oracle

>  <origin>  (15) 
adg

>  <m_score__min__energy>  (15) 
-7.7599999999999998

>  <m_primary>  (15) 
energy

$$$$
15:0
     RDKit          3D

 38 40  0  0  0  0  0  0  0  0999 V2000
   58.0860   27.0900   43.4130 C   0  0  0  0  0  0  0  0  0  0  0  0
   58.4270   28.3680   44.1190 C   0  0  0  0  0  0  0  0  0  0  0  0
   59.3820   28.3700   45.1600 C   0  0  0  0  0  0  0  0  0  0  0  0
   59.6680   29.5600   45.8420 C   0  0  0  0  0  0  0  0  0  0  0  0
   59.0000   30.6890   45.4810 N   0  0  0  0  0  0  0  0  0  0  0  0
   59.0600   31.9490   45.9640 C   0  0  0  0  0  0  0  0  0  0  0  0
   59.9060   32.4090   47.1250 C   0  0  0  0  0  0  0  0  0  0  0  0
   61.3380   32.4340   46.7570 N   0  0  0  0  0  0  0  0  0  0  0  0
   62.1290   31.4890   47.5880 C   0  0  0  0  0  0  0  0  0  0  0  0
   62.7460   32.1490   48.8250 C   0  0  0  0  0  0  0  0  0  0  0  0
   64.0750   33.3250   48.3700 S   0  0  0  0  0  0  0  0  0  0  0  0
   63.3970   33.8570   46.7540 C   0  0  0  0  0  0  0  0  0  0  0  0
   61.8690   33.8200   46.7470 C   0  0  0  0  0  0  0  0  0  0  0  0
   58.1350   32.7130   45.2540 C   0  0  0  0  0  0  0  0  0  0  0  0
   57.8310   34.1690   45.4560 C   0  0  0  0  0  0  0  0  0  0  0  0
   56.6150   34.4780   44.8740 F   0  0  0  0  0  0  0  0  0  0  0  0
   58.8140   34.9530   44.8780 F   0  0  0  0  0  0  0  0  0  0  0  0
   57.7750   34.4510   46.8090 F   0  0  0  0  0  0  0  0  0  0  0  0
   57.5240   31.9280   44.3370 N   0  0  0  0  0  0  0  0  0  0  0  0
   58.0730   30.7100   44.5060 C   0  0  0  0  0  0  0  0  0  0  0  0
   57.7470   29.5580   43.7950 C   0  0  0  0  0  0  0  0  0  0  0  0
   57.8767   26.3056   44.1553 H   0  0  0  0  0  0  0  0  0  0  0  0
   57.1978   27.2449   42.7829 H   0  0  0  0  0  0  0  0  0  0  0  0
   58.9333   26.7818   42.7829 H   0  0  0  0  0  0  0  0  0  0  0  0
   59.9000   27.4392   45.4346 H   0  0  0  0  0  0  0  0  0  0  0  0
   60.4145   29.5810   46.6497 H   0  0  0  0  0  0  0  0  0  0  0  0
   59.5923   33.4211   47.4205 H   0  0  0  0  0  0  0  0  0  0  0  0
   59.7698   31.7056   47.9597 H   0  0  0  0  0  0  0  0  0  0  0  0
   61.4671   30.6750   47.9188 H   0  0  0  0  0  0  0  0  0  0  0  0
   62.9572   31.1189   46.9659 H   0  0  0  0  0  0  0  0  0  0  0  0
   61.9596   32.6923   49.3694 H   0  0  0  0  0  0  0  0  0  0  0  0
   63.1851   31.3598   49.4530 H   0  0  0  0  0  0  0  0  0  0  0  0
   63.7304   34.8847   46.5476 H   0  0  0  0  0  0  0  0  0  0  0  0
   63.7622   33.1638   45.9819 H   0  0  0  0  0  0  0  0  0  0  0  0
   61.4985   34.3470   47.6386 H   0  0  0  0  0  0  0  0  0  0  0  0
   61.5253   34.3049   45.8214 H   0  0  0  0  0  0  0  0  0  0  0  0
   56.7810   32.1970   43.6540 H   0  0  0  0  0  0  0  0  0  0  0  0
   56.9821   29.5768   43.0047 H   0  0  0  0  0  0  0  0  0  0  0  0
  1  2  1  0
  2  3  1  0
  3  4  2  0
  4  5  1  0
  5  6  1  0
  6  7  1  0
  7  8  1  0
  8  9  1  0
  9 10  1  0
 10 11  1  0
 11 12  1  0
 12 13  1  0
  6 14  2  0
 14 15  1  0
 15 16  1  0
 15 17  1  0
 15 18  1  0
 14 19  1  0
 19 20  2  0
 20 21  1  0
 21  2  2  0
 20  5  1  0
 13  8  1  0
  1 22  1  0
  1 23  1  0
  1 24  1  0
  3 25  1  0
  4 26  1  0
  7 27  1  0
  7 28  1  0
  9 29  1  0
  9 30  1  0
 10 31  1  0
 10 32  1  0
 12 33  1  0
 12 34  1  0
 13 35  1  0
 13 36  1  0
 19 37  1  0
 21 38  1  0
M  CHG  1  19   1
M  END
>  <UniqueID>  (16) 
16

>  <SMILES>  (16) 
Cc1ccn2c(CN3CCSCC3)c(C(F)(F)F)[nH+]c2c1

>  <Energy>  (16) 
79.67129702324365

>  <Genealogy>  (16) 
Cc1ccn2c(CN3CCSCC3)c(C(F)(F)F)[nH+]c2c1 (protonated)
Cc1ccn2c(CN3CCSCC3)c(C(F)(F)F)[nH+]c2c1 (3D coordinates assigned)
Cc1ccn2c(CN3CCSCC3)c(C(F)(F)F)[nH+]c2c1 (nonaromatic ring conformer: 79.67129702324365 kcal/mol)

>  <smiles>  (16) 
Cc1ccn2c(CN3CCSCC3)c(C(F)(F)F)nc2c1

>  <score_type>  (16) 
oracle

>  <origin>  (16) 
adg

>  <m_score__min__energy>  (16) 
-4.79

>  <m_primary>  (16) 
energy

$$$$
16:0
     RDKit          3D

 38 40  0  0  0  0  0  0  0  0999 V2000
   57.7670   32.1840   41.9620 C   0  0  0  0  0  0  0  0  0  0  0  0
   58.0410   32.5190   43.3930 C   0  0  0  0  0  0  0  0  0  0  0  0
   58.4870   33.7320   43.8000 N   0  0  0  0  0  0  0  0  0  0  0  0
   58.5770   33.5970   45.1390 C   0  0  0  0  0  0  0  0  0  0  0  0
   58.9760   34.5960   46.0250 C   0  0  0  0  0  0  0  0  0  0  0  0
   58.9670   34.2960   47.3950 C   0  0  0  0  0  0  0  0  0  0  0  0
   58.5540   33.0280   47.8410 C   0  0  0  0  0  0  0  0  0  0  0  0
   58.1600   32.0600   46.9060 C   0  0  0  0  0  0  0  0  0  0  0  0
   58.2110   32.3800   45.5830 N   0  0  0  0  0  0  0  0  0  0  0  0
   57.8710   31.6770   44.4860 C   0  0  0  0  0  0  0  0  0  0  0  0
   57.4110   30.2750   44.4540 C   0  0  0  0  0  0  0  0  0  0  0  0
   56.3220   29.9720   45.0140 O   0  0  0  0  0  0  0  0  0  0  0  0
   58.1630   29.2740   43.7510 N   0  0  0  0  0  0  0  0  0  0  0  0
   57.7400   27.8770   43.6760 C   0  0  0  0  0  0  0  0  0  0  0  0
   58.5220   27.0170   44.6740 C   0  0  0  0  0  0  0  0  0  0  0  0
   59.0860   27.8470   45.7990 C   0  0  0  0  0  0  0  0  0  0  0  0
   60.2540   28.6010   45.6050 C   0  0  0  0  0  0  0  0  0  0  0  0
   60.7550   29.4020   46.6360 C   0  0  0  0  0  0  0  0  0  0  0  0
   60.0920   29.4580   47.8640 C   0  0  0  0  0  0  0  0  0  0  0  0
   58.9260   28.7140   48.0640 C   0  0  0  0  0  0  0  0  0  0  0  0
   58.4190   27.9160   47.0340 C   0  0  0  0  0  0  0  0  0  0  0  0
   57.0713   31.3334   41.9113 H   0  0  0  0  0  0  0  0  0  0  0  0
   57.3188   33.0547   41.4609 H   0  0  0  0  0  0  0  0  0  0  0  0
   58.7093   31.9174   41.4609 H   0  0  0  0  0  0  0  0  0  0  0  0
   59.2875   35.5865   45.6620 H   0  0  0  0  0  0  0  0  0  0  0  0
   59.2845   35.0561   48.1240 H   0  0  0  0  0  0  0  0  0  0  0  0
   58.5401   32.7969   48.9164 H   0  0  0  0  0  0  0  0  0  0  0  0
   57.8182   31.0669   47.2329 H   0  0  0  0  0  0  0  0  0  0  0  0
   58.9450   29.5770   43.1270 H   0  0  0  0  0  0  0  0  0  0  0  0
   56.6667   27.8123   43.9078 H   0  0  0  0  0  0  0  0  0  0  0  0
   57.9357   27.5036   42.6600 H   0  0  0  0  0  0  0  0  0  0  0  0
   57.8479   26.2564   45.0947 H   0  0  0  0  0  0  0  0  0  0  0  0
   59.3605   26.5464   44.1397 H   0  0  0  0  0  0  0  0  0  0  0  0
   60.7772   28.5616   44.6382 H   0  0  0  0  0  0  0  0  0  0  0  0
   61.6723   29.9886   46.4797 H   0  0  0  0  0  0  0  0  0  0  0  0
   60.4878   30.0880   48.6742 H   0  0  0  0  0  0  0  0  0  0  0  0
   58.4066   28.7563   49.0327 H   0  0  0  0  0  0  0  0  0  0  0  0
   57.4949   27.3402   47.1908 H   0  0  0  0  0  0  0  0  0  0  0  0
  1  2  1  0
  2  3  1  0
  3  4  2  0
  4  5  1  0
  5  6  2  0
  6  7  1  0
  7  8  2  0
  8  9  1  0
  9 10  1  0
 10 11  1  0
 11 12  2  0
 11 13  1  0
 13 14  1  0
 14 15  1  0
 15 16  1  0
 16 17  2  0
 17 18  1  0
 18 19  2  0
 19 20  1  0
 20 21  2  0
 10  2  2  0
 21 16  1  0
  9  4  1  0
  1 22  1  0
  1 23  1  0
  1 24  1  0
  5 25  1  0
  6 26  1  0
  7 27  1  0
  8 28  1  0
 13 29  1  0
 14 30  1  0
 14 31  1  0
 15 32  1  0
 15 33  1  0
 17 34  1  0
 18 35  1  0
 19 36  1  0
 20 37  1  0
 21 38  1  0
M  END
>  <UniqueID>  (17) 
17

>  <SMILES>  (17) 
Cc1nc2ccccn2c1C(=O)NCCc1ccccc1

>  <Energy>  (17) 
72.2319355499865

>  <Genealogy>  (17) 
Cc1nc2ccccn2c1C(=O)NCCc1ccccc1 (3D coordinates assigned)
Cc1nc2ccccn2c1C(=O)NCCc1ccccc1 (optimized conformer: 72.2319355499865 kcal/mol)

>  <smiles>  (17) 
Cc1nc2ccccn2c1C(=O)NCCc1ccccc1

>  <score_type>  (17) 
oracle

>  <origin>  (17) 
adg

>  <m_score__min__energy>  (17) 
-7.5800000000000001

>  <m_primary>  (17) 
energy

$$$$
17:0
     RDKit          3D

 52 53  0  0  0  0  0  0  0  0999 V2000
   56.6180   33.8470   47.1930 H   0  0  0  0  0  0  0  0  0  0  0  0
   57.3850   33.2910   46.7520 N   0  0  0  0  0  0  0  0  0  0  0  0
   57.3950   33.0250   45.4830 C   0  0  0  0  0  0  0  0  0  0  0  0
   57.4150   31.6110   45.0310 C   0  0  0  0  0  0  0  0  0  0  0  0
   57.0100   31.2620   43.7320 C   0  0  0  0  0  0  0  0  0  0  0  0
   56.6651   32.0446   43.0402 H   0  0  0  0  0  0  0  0  0  0  0  0
   57.0410   29.9300   43.3100 C   0  0  0  0  0  0  0  0  0  0  0  0
   56.7156   29.6720   42.2914 H   0  0  0  0  0  0  0  0  0  0  0  0
   57.4850   28.9180   44.1780 C   0  0  0  0  0  0  0  0  0  0  0  0
   57.5120   27.5670   43.7970 O   0  0  0  0  0  0  0  0  0  0  0  0
   58.1430   27.0740   42.6210 C   0  0  0  0  0  0  0  0  0  0  0  0
   58.9811   26.4192   42.9016 H   0  0  0  0  0  0  0  0  0  0  0  0
   57.4149   26.5031   42.0261 H   0  0  0  0  0  0  0  0  0  0  0  0
   58.5208   27.9186   42.0261 H   0  0  0  0  0  0  0  0  0  0  0  0
   57.9030   29.2610   45.4740 C   0  0  0  0  0  0  0  0  0  0  0  0
   58.3820   28.2490   46.3750 N   0  0  0  0  0  0  0  0  0  0  0  0
   57.4140   27.4310   47.1150 C   0  0  0  0  0  0  0  0  0  0  0  0
   57.8191   27.2013   48.1116 H   0  0  0  0  0  0  0  0  0  0  0  0
   56.4718   27.9902   47.2123 H   0  0  0  0  0  0  0  0  0  0  0  0
   57.1480   26.1440   46.3770 C   0  0  0  0  0  0  0  0  0  0  0  0
   58.1890   25.2190   46.1950 C   0  0  0  0  0  0  0  0  0  0  0  0
   59.2036   25.4630   46.5429 H   0  0  0  0  0  0  0  0  0  0  0  0
   57.9450   23.9930   45.5760 C   0  0  0  0  0  0  0  0  0  0  0  0
   58.7680   23.2774   45.4327 H   0  0  0  0  0  0  0  0  0  0  0  0
   56.6590   23.6720   45.1380 C   0  0  0  0  0  0  0  0  0  0  0  0
   56.4725   22.7035   44.6510 H   0  0  0  0  0  0  0  0  0  0  0  0
   55.6030   24.5790   45.3160 C   0  0  0  0  0  0  0  0  0  0  0  0
   54.2150   24.2210   44.8670 C   0  0  0  0  0  0  0  0  0  0  0  0
   53.5760   24.0562   45.7471 H   0  0  0  0  0  0  0  0  0  0  0  0
   53.8020   25.0420   44.2626 H   0  0  0  0  0  0  0  0  0  0  0  0
   54.2506   23.3026   44.2626 H   0  0  0  0  0  0  0  0  0  0  0  0
   55.8480   25.8130   45.9460 C   0  0  0  0  0  0  0  0  0  0  0  0
   54.7990   26.7080   46.1490 O   0  0  0  0  0  0  0  0  0  0  0  0
   59.8250   27.9900   46.4770 C   0  0  0  0  0  0  0  0  0  0  0  0
   60.0070   26.9116   46.3593 H   0  0  0  0  0  0  0  0  0  0  0  0
   60.3411   28.5542   45.6862 H   0  0  0  0  0  0  0  0  0  0  0  0
   60.3640   28.4440   47.8340 C   0  0  0  0  0  0  0  0  0  0  0  0
   59.7934   27.9516   48.6352 H   0  0  0  0  0  0  0  0  0  0  0  0
   61.4269   28.1706   47.9085 H   0  0  0  0  0  0  0  0  0  0  0  0
   60.2330   29.8920   47.9680 N   0  0  0  0  0  0  0  0  0  0  0  0
   59.3550   30.5070   48.7050 C   0  0  0  0  0  0  0  0  0  0  0  0
   58.8680   29.9390   49.9280 N   0  0  0  0  0  0  0  0  0  0  0  0
   59.2090   29.0230   50.2940 H   0  0  0  0  0  0  0  0  0  0  0  0
   58.1520   30.4500   50.4890 H   0  0  0  0  0  0  0  0  0  0  0  0
   58.8600   31.7750   48.2760 N   0  0  0  0  0  0  0  0  0  0  0  0
   58.1480   32.2870   48.8440 H   0  0  0  0  0  0  0  0  0  0  0  0
   59.1910   32.1990   47.3810 H   0  0  0  0  0  0  0  0  0  0  0  0
   57.8640   30.5980   45.8950 C   0  0  0  0  0  0  0  0  0  0  0  0
   58.1887   30.8568   46.9136 H   0  0  0  0  0  0  0  0  0  0  0  0
   57.3740   34.1010   44.5360 N   0  0  0  0  0  0  0  0  0  0  0  0
   57.4230   35.0930   44.8590 H   0  0  0  0  0  0  0  0  0  0  0  0
   57.2300   33.9270   43.5180 H   0  0  0  0  0  0  0  0  0  0  0  0
  1  2  1  0
  2  3  2  0
  3  4  1  0
  4  5  2  0
  5  6  1  0
  5  7  1  0
  7  8  1  0
  7  9  2  0
  9 10  1  0
 10 11  1  0
 11 12  1  0
 11 13  1  0
 11 14  1  0
  9 15  1  0
 15 16  1  0
 16 17  1  0
 17 18  1  0
 17 19  1  0
 17 20  1  0
 20 21  2  0
 21 22  1  0
 21 23  1  0
 23 24  1  0
 23 25  2  0
 25 26  1  0
 25 27  1  0
 27 28  1  0
 28 29  1  0
 28 30  1  0
 28 31  1  0
 27 32  2  0
 32 33  1  0
 16 34  1  0
 34 35  1  0
 34 36  1  0
 34 37  1  0
 37 38  1  0
 37 39  1  0
 37 40  1  0
 40 41  2  3
 41 42  1  0
 42 43  1  0
 42 44  1  0
 41 45  1  0
 45 46  1  0
 45 47  1  0
 15 48  2  0
 48 49  1  0
  3 50  1  0
 50 51  1  0
 50 52  1  0
 48  4  1  0
 32 20  1  0
M  CHG  1  33  -1
M  END
>  <UniqueID>  (18) 
18

>  <SMILES>  (18) 
[H]/N=C(\N)c1ccc(OC)c(N(CCN=C(N)N)Cc2cccc(C)c2[O-])c1

>  <Energy>  (18) 
48.220017586478335

>  <Genealogy>  (18) 
COc1ccc(C(=N)N)cc1N(CCN=C(N)N)Cc1cccc(C)c1[O-] (protonated)
[H]/N=C(\N)c1ccc(OC)c(N(CCN=C(N)N)Cc2cccc(C)c2[O-])c1 (cis-trans isomerization)
[H]/N=C(\N)c1ccc(OC)c(N(CCN=C(N)N)Cc2cccc(C)c2[O-])c1 (3D coordinates assigned)
[H]/N=C(\N)c1ccc(OC)c(N(CCN=C(N)N)Cc2cccc(C)c2[O-])c1 (optimized conformer: 48.220017586478335 kcal/mol)

>  <smiles>  (18) 
COc1ccc(C(=N)N)cc1N(CCN=C(N)N)Cc1cccc(C)c1O

>  <score_type>  (18) 
oracle

>  <origin>  (18) 
adg

>  <m_score__min__energy>  (18) 
-10.57

>  <m_primary>  (18) 
energy

$$$$
18:0
     RDKit          3D

 46 46  0  0  0  0  0  0  0  0999 V2000
   63.7420   33.4230   49.0070 C   0  0  0  0  0  0  0  0  0  0  0  0
   63.6800   32.9340   47.5600 C   0  0  0  0  0  0  0  0  0  0  0  0
   62.2570   32.5580   47.1120 C   0  0  0  0  0  0  0  0  0  0  0  0
   61.3390   33.7530   46.7960 C   0  0  0  0  0  0  0  0  0  0  0  0
   59.9880   33.6730   47.5190 C   0  0  0  0  0  0  0  0  0  0  0  0
   58.8800   34.3630   46.7100 C   0  0  0  0  0  0  0  0  0  0  0  0
   58.9560   34.0090   45.2170 C   0  0  0  0  0  0  0  0  0  0  0  0
   57.5790   33.6590   44.6230 C   0  0  0  0  0  0  0  0  0  0  0  0
   57.0120   32.3490   45.2070 C   0  0  0  0  0  0  0  0  0  0  0  0
   56.8930   31.2170   44.1700 C   0  0  0  0  0  0  0  0  0  0  0  0
   57.4030   29.8930   44.6920 C   0  0  0  0  0  0  0  0  0  0  0  0
   58.7840   29.7050   44.8670 C   0  0  0  0  0  0  0  0  0  0  0  0
   59.2740   28.5090   45.4010 C   0  0  0  0  0  0  0  0  0  0  0  0
   58.3890   27.4880   45.7610 C   0  0  0  0  0  0  0  0  0  0  0  0
   59.0200   25.9570   46.4510 S   0  0  0  0  0  0  0  0  0  0  0  0
   60.3300   26.7850   47.4050 C   0  0  0  0  0  0  0  0  0  0  0  0
   57.0140   27.6580   45.5730 C   0  0  0  0  0  0  0  0  0  0  0  0
   56.5170   28.8540   45.0450 C   0  0  0  0  0  0  0  0  0  0  0  0
   55.1440   28.9980   44.8780 O   0  0  0  0  0  0  0  0  0  0  0  0
   63.6334   32.5664   49.6885 H   0  0  0  0  0  0  0  0  0  0  0  0
   64.7096   33.9143   49.1869 H   0  0  0  0  0  0  0  0  0  0  0  0
   62.9276   34.1402   49.1869 H   0  0  0  0  0  0  0  0  0  0  0  0
   64.0542   33.7335   46.9037 H   0  0  0  0  0  0  0  0  0  0  0  0
   64.2963   32.0253   47.4935 H   0  0  0  0  0  0  0  0  0  0  0  0
   62.3364   31.9394   46.2059 H   0  0  0  0  0  0  0  0  0  0  0  0
   61.7959   32.0311   47.9604 H   0  0  0  0  0  0  0  0  0  0  0  0
   61.8481   34.6782   47.1039 H   0  0  0  0  0  0  0  0  0  0  0  0
   61.1372   33.7385   45.7148 H   0  0  0  0  0  0  0  0  0  0  0  0
   59.7209   32.6157   47.6631 H   0  0  0  0  0  0  0  0  0  0  0  0
   60.0817   34.1864   48.4873 H   0  0  0  0  0  0  0  0  0  0  0  0
   57.9027   34.0445   47.1017 H   0  0  0  0  0  0  0  0  0  0  0  0
   59.0118   35.4505   46.8097 H   0  0  0  0  0  0  0  0  0  0  0  0
   59.3672   34.8707   44.6707 H   0  0  0  0  0  0  0  0  0  0  0  0
   59.5987   33.1220   45.1161 H   0  0  0  0  0  0  0  0  0  0  0  0
   56.8788   34.4782   44.8437 H   0  0  0  0  0  0  0  0  0  0  0  0
   57.7026   33.5213   43.5387 H   0  0  0  0  0  0  0  0  0  0  0  0
   57.6765   32.0119   46.0162 H   0  0  0  0  0  0  0  0  0  0  0  0
   55.9957   32.5675   45.5666 H   0  0  0  0  0  0  0  0  0  0  0  0
   55.8344   31.1024   43.8938 H   0  0  0  0  0  0  0  0  0  0  0  0
   57.5114   31.4934   43.3033 H   0  0  0  0  0  0  0  0  0  0  0  0
   59.4846   30.5038   44.5821 H   0  0  0  0  0  0  0  0  0  0  0  0
   60.3567   28.3713   45.5380 H   0  0  0  0  0  0  0  0  0  0  0  0
   60.1344   26.6614   48.4804 H   0  0  0  0  0  0  0  0  0  0  0  0
   61.3036   26.3379   47.1556 H   0  0  0  0  0  0  0  0  0  0  0  0
   60.3439   27.8563   47.1556 H   0  0  0  0  0  0  0  0  0  0  0  0
   56.3202   26.8477   45.8415 H   0  0  0  0  0  0  0  0  0  0  0  0
  1  2  1  0
  2  3  1  0
  3  4  1  0
  4  5  1  0
  5  6  1  0
  6  7  1  0
  7  8  1  0
  8  9  1  0
  9 10  1  0
 10 11  1  0
 11 12  2  0
 12 13  1  0
 13 14  2  0
 14 15  1  0
 15 16  1  0
 14 17  1  0
 17 18  2  0
 18 19  1  0
 18 11  1  0
  1 20  1  0
  1 21  1  0
  1 22  1  0
  2 23  1  0
  2 24  1  0
  3 25  1  0
  3 26  1  0
  4 27  1  0
  4 28  1  0
  5 29  1  0
  5 30  1  0
  6 31  1  0
  6 32  1  0
  7 33  1  0
  7 34  1  0
  8 35  1  0
  8 36  1  0
  9 37  1  0
  9 38  1  0
 10 39  1  0
 10 40  1  0
 12 41  1  0
 13 42  1  0
 16 43  1  0
 16 44  1  0
 16 45  1  0
 17 46  1  0
M  CHG  1  19  -1
M  END
>  <UniqueID>  (19) 
19

>  <SMILES>  (19) 
CCCCCCCCCCc1ccc(SC)cc1[O-]

>  <Energy>  (19) 
22.302496715511417

>  <Genealogy>  (19) 
CCCCCCCCCCc1ccc(SC)cc1[O-] (protonated)
CCCCCCCCCCc1ccc(SC)cc1[O-] (3D coordinates assigned)
CCCCCCCCCCc1ccc(SC)cc1[O-] (optimized conformer: 22.302496715511417 kcal/mol)

>  <smiles>  (19) 
CCCCCCCCCCc1ccc(SC)cc1O

>  <score_type>  (19) 
oracle

>  <origin>  (19) 
adg

>  <m_score__min__energy>  (19) 
-10.51

>  <m_primary>  (19) 
energy

$$$$
19:0
     RDKit          3D

 49 52  0  0  0  0  0  0  0  0999 V2000
   55.6500   24.8640   45.7050 C   0  0  0  0  0  0  0  0  0  0  0  0
   55.5160   26.2360   46.0640 O   0  0  0  0  0  0  0  0  0  0  0  0
   56.5750   27.1560   46.0810 C   0  0  0  0  0  0  0  0  0  0  0  0
   56.6020   28.2920   45.2510 C   0  0  0  0  0  0  0  0  0  0  0  0
   57.6780   29.1820   45.3070 C   0  0  0  0  0  0  0  0  0  0  0  0
   58.7460   28.9600   46.1960 C   0  0  0  0  0  0  0  0  0  0  0  0
   59.8870   29.9070   46.2860 C   0  0  0  0  0  0  0  0  0  0  0  0
   61.0430   29.4580   46.5170 O   0  0  0  0  0  0  0  0  0  0  0  0
   59.7160   31.3950   46.1260 C   0  0  0  0  0  0  0  0  0  0  0  0
   60.5150   32.1670   47.1540 C   0  0  0  0  0  0  0  0  0  0  0  0
   61.5690   31.5610   47.7770 N   0  0  0  0  0  0  0  0  0  0  0  0
   62.3590   32.2400   48.6560 C   0  0  0  0  0  0  0  0  0  0  0  0
   63.4500   31.6160   49.2810 C   0  0  0  0  0  0  0  0  0  0  0  0
   64.2510   32.3380   50.1740 C   0  0  0  0  0  0  0  0  0  0  0  0
   63.9680   33.6800   50.4450 C   0  0  0  0  0  0  0  0  0  0  0  0
   62.8830   34.3090   49.8260 C   0  0  0  0  0  0  0  0  0  0  0  0
   62.0790   33.5920   48.9330 C   0  0  0  0  0  0  0  0  0  0  0  0
   61.0230   34.1910   48.3280 N   0  0  0  0  0  0  0  0  0  0  0  0
   60.2250   33.5180   47.4570 C   0  0  0  0  0  0  0  0  0  0  0  0
   59.1220   34.2050   46.8520 N   0  0  0  0  0  0  0  0  0  0  0  0
   59.3310   35.1030   45.7150 C   0  0  0  0  0  0  0  0  0  0  0  0
   58.4890   34.6130   44.5320 C   0  0  0  0  0  0  0  0  0  0  0  0
   57.1330   34.4490   44.9120 O   0  0  0  0  0  0  0  0  0  0  0  0
   57.0200   33.4290   45.8900 C   0  0  0  0  0  0  0  0  0  0  0  0
   57.7460   33.8310   47.1780 C   0  0  0  0  0  0  0  0  0  0  0  0
   58.7170   27.8170   47.0140 C   0  0  0  0  0  0  0  0  0  0  0  0
   57.6410   26.9280   46.9570 C   0  0  0  0  0  0  0  0  0  0  0  0
   55.7099   24.2507   46.6162 H   0  0  0  0  0  0  0  0  0  0  0  0
   54.7779   24.5536   45.1108 H   0  0  0  0  0  0  0  0  0  0  0  0
   56.5657   24.7282   45.1108 H   0  0  0  0  0  0  0  0  0  0  0  0
   55.7718   28.4805   44.5544 H   0  0  0  0  0  0  0  0  0  0  0  0
   57.6902   30.0642   44.6501 H   0  0  0  0  0  0  0  0  0  0  0  0
   60.0541   31.6861   45.1205 H   0  0  0  0  0  0  0  0  0  0  0  0
   58.6520   31.6341   46.2703 H   0  0  0  0  0  0  0  0  0  0  0  0
   61.7840   30.5600   47.5680 H   0  0  0  0  0  0  0  0  0  0  0  0
   63.6755   30.5604   49.0693 H   0  0  0  0  0  0  0  0  0  0  0  0
   65.1054   31.8479   50.6637 H   0  0  0  0  0  0  0  0  0  0  0  0
   64.6006   34.2429   51.1472 H   0  0  0  0  0  0  0  0  0  0  0  0
   62.6622   35.3650   50.0407 H   0  0  0  0  0  0  0  0  0  0  0  0
   59.0238   36.1230   45.9891 H   0  0  0  0  0  0  0  0  0  0  0  0
   60.3952   35.1095   45.4368 H   0  0  0  0  0  0  0  0  0  0  0  0
   58.5485   35.3498   43.7174 H   0  0  0  0  0  0  0  0  0  0  0  0
   58.8815   33.6409   44.1989 H   0  0  0  0  0  0  0  0  0  0  0  0
   55.9564   33.2588   46.1131 H   0  0  0  0  0  0  0  0  0  0  0  0
   57.4793   32.5099   45.4972 H   0  0  0  0  0  0  0  0  0  0  0  0
   57.2310   34.6861   47.6401 H   0  0  0  0  0  0  0  0  0  0  0  0
   57.7474   32.9866   47.8829 H   0  0  0  0  0  0  0  0  0  0  0  0
   59.5496   27.6208   47.7056 H   0  0  0  0  0  0  0  0  0  0  0  0
   57.6321   26.0406   47.6070 H   0  0  0  0  0  0  0  0  0  0  0  0
  1  2  1  0
  2  3  1  0
  3  4  2  0
  4  5  1  0
  5  6  2  0
  6  7  1  0
  7  8  2  0
  7  9  1  0
  9 10  1  0
 10 11  2  0
 11 12  1  0
 12 13  2  0
 13 14  1  0
 14 15  2  0
 15 16  1  0
 16 17  2  0
 17 18  1  0
 18 19  2  0
 19 20  1  0
 20 21  1  0
 21 22  1  0
 22 23  1  0
 23 24  1  0
 24 25  1  0
  6 26  1  0
 26 27  2  0
 27  3  1  0
 19 10  1  0
 25 20  1  0
 17 12  1  0
  1 28  1  0
  1 29  1  0
  1 30  1  0
  4 31  1  0
  5 32  1  0
  9 33  1  0
  9 34  1  0
 11 35  1  0
 13 36  1  0
 14 37  1  0
 15 38  1  0
 16 39  1  0
 21 40  1  0
 21 41  1  0
 22 42  1  0
 22 43  1  0
 24 44  1  0
 24 45  1  0
 25 46  1  0
 25 47  1  0
 26 48  1  0
 27 49  1  0
M  CHG  1  11   1
M  END
>  <UniqueID>  (20) 
20

>  <SMILES>  (20) 
COc1ccc(C(=O)Cc2[nH+]c3ccccc3nc2N2CCOCC2)cc1

>  <Energy>  (20) 
62.56660604899647

>  <Genealogy>  (20) 
COc1ccc(C(=O)Cc2[nH+]c3ccccc3nc2N2CCOCC2)cc1 (protonated)
COc1ccc(C(=O)Cc2[nH+]c3ccccc3nc2N2CCOCC2)cc1 (3D coordinates assigned)
COc1ccc(C(=O)Cc2[nH+]c3ccccc3nc2N2CCOCC2)cc1 (nonaromatic ring conformer: 62.56660604899647 kcal/mol)

>  <smiles>  (20) 
COc1ccc(C(=O)Cc2nc3ccccc3nc2N2CCOCC2)cc1

>  <score_type>  (20) 
oracle

>  <origin>  (20) 
adg

>  <m_score__min__energy>  (20) 
-6.6399999999999997

>  <m_primary>  (20) 
energy

$$$$
20:0
     RDKit          3D

 45 46  0  0  0  0  0  0  0  0999 V2000
   56.2530   22.7010   42.9650 C   0  0  0  0  0  0  0  0  0  0  0  0
   56.5630   24.0000   43.7230 C   0  0  0  0  0  0  0  0  0  0  0  0
   57.8340   23.9590   44.4820 N   0  0  0  0  0  0  0  0  0  0  0  0
   58.4310   22.6020   44.5380 C   0  0  0  0  0  0  0  0  0  0  0  0
   59.8040   22.6750   45.1920 C   0  0  0  0  0  0  0  0  0  0  0  0
   57.7320   24.6130   45.8060 C   0  0  0  0  0  0  0  0  0  0  0  0
   57.0890   26.0090   45.6990 C   0  0  0  0  0  0  0  0  0  0  0  0
   57.4310   26.7090   44.4470 N   0  0  0  0  0  0  0  0  0  0  0  0
   57.7510   28.0970   44.6790 C   0  0  0  0  0  0  0  0  0  0  0  0
   58.9040   28.4510   45.3990 C   0  0  0  0  0  0  0  0  0  0  0  0
   59.2040   29.7950   45.6420 C   0  0  0  0  0  0  0  0  0  0  0  0
   58.3560   30.8130   45.1710 C   0  0  0  0  0  0  0  0  0  0  0  0
   58.6710   32.2400   45.4330 C   0  0  0  0  0  0  0  0  0  0  0  0
   59.5320   32.6010   46.4860 C   0  0  0  0  0  0  0  0  0  0  0  0
   59.8290   33.9450   46.7310 C   0  0  0  0  0  0  0  0  0  0  0  0
   59.2700   34.9430   45.9300 C   0  0  0  0  0  0  0  0  0  0  0  0
   58.4140   34.5990   44.8820 C   0  0  0  0  0  0  0  0  0  0  0  0
   58.1140   33.2550   44.6320 C   0  0  0  0  0  0  0  0  0  0  0  0
   57.2040   30.4560   44.4470 C   0  0  0  0  0  0  0  0  0  0  0  0
   56.9070   29.1140   44.2020 C   0  0  0  0  0  0  0  0  0  0  0  0
   56.0601   21.8929   43.6859 H   0  0  0  0  0  0  0  0  0  0  0  0
   55.3648   22.8483   42.3330 H   0  0  0  0  0  0  0  0  0  0  0  0
   57.1120   22.4313   42.3330 H   0  0  0  0  0  0  0  0  0  0  0  0
   56.6204   24.8219   42.9941 H   0  0  0  0  0  0  0  0  0  0  0  0
   55.7558   24.1441   44.4563 H   0  0  0  0  0  0  0  0  0  0  0  0
   57.7797   21.9395   45.1269 H   0  0  0  0  0  0  0  0  0  0  0  0
   58.5331   22.2053   43.5171 H   0  0  0  0  0  0  0  0  0  0  0  0
   59.6898   22.6689   46.2860 H   0  0  0  0  0  0  0  0  0  0  0  0
   60.4048   21.8075   44.8812 H   0  0  0  0  0  0  0  0  0  0  0  0
   60.3094   23.6013   44.8812 H   0  0  0  0  0  0  0  0  0  0  0  0
   57.1165   23.9859   46.4678 H   0  0  0  0  0  0  0  0  0  0  0  0
   58.7477   24.7314   46.2113 H   0  0  0  0  0  0  0  0  0  0  0  0
   55.9960   25.8958   45.7495 H   0  0  0  0  0  0  0  0  0  0  0  0
   57.4792   26.6144   46.5304 H   0  0  0  0  0  0  0  0  0  0  0  0
   58.2650   26.2400   44.0240 H   0  0  0  0  0  0  0  0  0  0  0  0
   56.6500   26.6190   43.7580 H   0  0  0  0  0  0  0  0  0  0  0  0
   59.5759   27.6651   45.7745 H   0  0  0  0  0  0  0  0  0  0  0  0
   60.1109   30.0581   46.2063 H   0  0  0  0  0  0  0  0  0  0  0  0
   59.9747   31.8197   47.1212 H   0  0  0  0  0  0  0  0  0  0  0  0
   60.5040   34.2167   47.5559 H   0  0  0  0  0  0  0  0  0  0  0  0
   59.5040   36.0000   46.1247 H   0  0  0  0  0  0  0  0  0  0  0  0
   57.9745   35.3859   44.2515 H   0  0  0  0  0  0  0  0  0  0  0  0
   57.4390   32.9902   43.8048 H   0  0  0  0  0  0  0  0  0  0  0  0
   56.5314   31.2409   44.0707 H   0  0  0  0  0  0  0  0  0  0  0  0
   56.0046   28.8506   43.6307 H   0  0  0  0  0  0  0  0  0  0  0  0
  1  2  1  0
  2  3  1  0
  3  4  1  0
  4  5  1  0
  3  6  1  0
  6  7  1  0
  7  8  1  0
  8  9  1  0
  9 10  2  0
 10 11  1  0
 11 12  2  0
 12 13  1  0
 13 14  2  0
 14 15  1  0
 15 16  2  0
 16 17  1  0
 17 18  2  0
 12 19  1  0
 19 20  2  0
 20  9  1  0
 18 13  1  0
  1 21  1  0
  1 22  1  0
  1 23  1  0
  2 24  1  0
  2 25  1  0
  4 26  1  0
  4 27  1  0
  5 28  1  0
  5 29  1  0
  5 30  1  0
  6 31  1  0
  6 32  1  0
  7 33  1  0
  7 34  1  0
  8 35  1  0
  8 36  1  0
 10 37  1  0
 11 38  1  0
 14 39  1  0
 15 40  1  0
 16 41  1  0
 17 42  1  0
 18 43  1  0
 19 44  1  0
 20 45  1  0
M  CHG  1   8   1
M  END
>  <UniqueID>  (21) 
21

>  <SMILES>  (21) 
CCN(CC)CC[NH2+]c1ccc(-c2ccccc2)cc1

>  <Energy>  (21) 
50.82657666217488

>  <Genealogy>  (21) 
CCN(CC)CC[NH2+]c1ccc(-c2ccccc2)cc1 (protonated)
CCN(CC)CC[NH2+]c1ccc(-c2ccccc2)cc1 (3D coordinates assigned)
CCN(CC)CC[NH2+]c1ccc(-c2ccccc2)cc1 (optimized conformer: 50.82657666217488 kcal/mol)

>  <smiles>  (21) 
CCN(CC)CCNc1ccc(-c2ccccc2)cc1

>  <score_type>  (21) 
oracle

>  <origin>  (21) 
adg

>  <m_score__min__energy>  (21) 
-5.1699999999999999

>  <m_primary>  (21) 
energy

$$$$
21:0
     RDKit          3D

 58 62  0  0  0  0  0  0  0  0999 V2000
   58.7260   34.1650   45.1890 C   0  0  0  0  0  0  0  0  0  0  0  0
   58.7240   34.2820   46.7130 C   0  0  0  0  0  0  0  0  0  0  0  0
   60.0310   34.8840   47.2570 C   0  0  0  0  0  0  0  0  0  0  0  0
   61.2900   34.2110   46.6810 C   0  0  0  0  0  0  0  0  0  0  0  0
   62.1800   33.6340   47.7550 C   0  0  0  0  0  0  0  0  0  0  0  0
   63.5280   33.8130   47.7490 N   0  0  0  0  0  0  0  0  0  0  0  0
   63.9230   33.2140   48.8870 C   0  0  0  0  0  0  0  0  0  0  0  0
   65.2240   33.0950   49.3690 C   0  0  0  0  0  0  0  0  0  0  0  0
   65.4220   32.4240   50.5920 C   0  0  0  0  0  0  0  0  0  0  0  0
   66.7330   32.3000   51.0740 O   0  0  0  0  0  0  0  0  0  0  0  0
   67.2780   31.1040   51.6220 C   0  0  0  0  0  0  0  0  0  0  0  0
   64.3000   31.9000   51.2950 C   0  0  0  0  0  0  0  0  0  0  0  0
   62.9990   32.0440   50.7810 C   0  0  0  0  0  0  0  0  0  0  0  0
   62.8500   32.7100   49.5610 C   0  0  0  0  0  0  0  0  0  0  0  0
   61.7300   32.9780   48.8640 N   0  0  0  0  0  0  0  0  0  0  0  0
   60.3530   32.5980   49.2000 C   0  0  0  0  0  0  0  0  0  0  0  0
   59.9660   31.3280   48.4870 C   0  0  0  0  0  0  0  0  0  0  0  0
   59.1790   30.3590   49.1310 C   0  0  0  0  0  0  0  0  0  0  0  0
   58.7860   29.2030   48.4510 C   0  0  0  0  0  0  0  0  0  0  0  0
   59.1810   28.9970   47.1240 C   0  0  0  0  0  0  0  0  0  0  0  0
   58.7650   27.7740   46.4110 C   0  0  0  0  0  0  0  0  0  0  0  0
   59.4400   26.5810   46.7230 C   0  0  0  0  0  0  0  0  0  0  0  0
   59.1110   25.3870   46.0820 C   0  0  0  0  0  0  0  0  0  0  0  0
   58.0990   25.3680   45.1250 C   0  0  0  0  0  0  0  0  0  0  0  0
   57.4080   26.5430   44.8070 C   0  0  0  0  0  0  0  0  0  0  0  0
   57.7210   27.7630   45.4420 C   0  0  0  0  0  0  0  0  0  0  0  0
   56.9220   28.9690   45.0810 C   0  0  0  0  0  0  0  0  0  0  0  0
   55.5840   28.9580   44.8700 N   0  0  0  0  0  0  0  0  0  0  0  0
   55.2710   30.2110   44.5780 N   0  0  0  0  0  0  0  0  0  0  0  0
   56.3670   30.9600   44.6060 N   0  0  0  0  0  0  0  0  0  0  0  0
   57.4170   30.2140   44.9200 N   0  0  0  0  0  0  0  0  0  0  0  0
   60.0100   29.9370   46.4960 C   0  0  0  0  0  0  0  0  0  0  0  0
   60.3910   31.0990   47.1700 C   0  0  0  0  0  0  0  0  0  0  0  0
   58.7442   33.1030   44.9028 H   0  0  0  0  0  0  0  0  0  0  0  0
   57.8196   34.6385   44.7837 H   0  0  0  0  0  0  0  0  0  0  0  0
   59.6156   34.6693   44.7837 H   0  0  0  0  0  0  0  0  0  0  0  0
   57.8854   34.9258   47.0167 H   0  0  0  0  0  0  0  0  0  0  0  0
   58.6243   33.2678   47.1270 H   0  0  0  0  0  0  0  0  0  0  0  0
   60.0573   35.9535   47.0011 H   0  0  0  0  0  0  0  0  0  0  0  0
   60.0399   34.7212   48.3448 H   0  0  0  0  0  0  0  0  0  0  0  0
   60.9790   33.3993   46.0069 H   0  0  0  0  0  0  0  0  0  0  0  0
   61.8663   34.9813   46.1477 H   0  0  0  0  0  0  0  0  0  0  0  0
   66.0740   33.5135   48.8101 H   0  0  0  0  0  0  0  0  0  0  0  0
   67.2528   31.1592   52.7203 H   0  0  0  0  0  0  0  0  0  0  0  0
   66.6838   30.2420   51.2845 H   0  0  0  0  0  0  0  0  0  0  0  0
   68.3184   30.9869   51.2845 H   0  0  0  0  0  0  0  0  0  0  0  0
   64.4526   31.3769   52.2505 H   0  0  0  0  0  0  0  0  0  0  0  0
   62.1274   31.6457   51.3211 H   0  0  0  0  0  0  0  0  0  0  0  0
   60.2757   32.4412   50.2860 H   0  0  0  0  0  0  0  0  0  0  0  0
   59.6747   33.4040   48.8835 H   0  0  0  0  0  0  0  0  0  0  0  0
   58.8704   30.5108   50.1759 H   0  0  0  0  0  0  0  0  0  0  0  0
   58.1640   28.4523   48.9604 H   0  0  0  0  0  0  0  0  0  0  0  0
   60.2367   26.5894   47.4814 H   0  0  0  0  0  0  0  0  0  0  0  0
   59.6500   24.4612   46.3318 H   0  0  0  0  0  0  0  0  0  0  0  0
   57.8420   24.4265   44.6175 H   0  0  0  0  0  0  0  0  0  0  0  0
   56.6094   26.5146   44.0510 H   0  0  0  0  0  0  0  0  0  0  0  0
   60.3614   29.7586   45.4690 H   0  0  0  0  0  0  0  0  0  0  0  0
   61.0285   31.8396   46.6649 H   0  0  0  0  0  0  0  0  0  0  0  0
  1  2  1  0
  2  3  1  0
  3  4  1  0
  4  5  1  0
  5  6  2  0
  6  7  1  0
  7  8  2  0
  8  9  1  0
  9 10  1  0
 10 11  1  0
  9 12  2  0
 12 13  1  0
 13 14  2  0
 14 15  1  0
 15 16  1  0
 16 17  1  0
 17 18  2  0
 18 19  1  0
 19 20  2  0
 20 21  1  0
 21 22  2  0
 22 23  1  0
 23 24  2  0
 24 25  1  0
 25 26  2  0
 26 27  1  0
 27 28  1  0
 28 29  2  0
 29 30  1  0
 30 31  1  0
 20 32  1  0
 32 33  2  0
 15  5  1  0
 33 17  1  0
 14  7  1  0
 26 21  1  0
 31 27  2  0
  1 34  1  0
  1 35  1  0
  1 36  1  0
  2 37  1  0
  2 38  1  0
  3 39  1  0
  3 40  1  0
  4 41  1  0
  4 42  1  0
  8 43  1  0
 11 44  1  0
 11 45  1  0
 11 46  1  0
 12 47  1  0
 13 48  1  0
 16 49  1  0
 16 50  1  0
 18 51  1  0
 19 52  1  0
 22 53  1  0
 23 54  1  0
 24 55  1  0
 25 56  1  0
 32 57  1  0
 33 58  1  0
M  CHG  1  30  -1
M  END
>  <UniqueID>  (22) 
22

>  <SMILES>  (22) 
CCCCc1nc2cc(OC)ccc2n1Cc1ccc(-c2ccccc2-c2nn[n-]n2)cc1

>  <Energy>  (22) 
140.9353590077353

>  <Genealogy>  (22) 
CCCCc1nc2cc(OC)ccc2n1Cc1ccc(-c2ccccc2-c2nn[n-]n2)cc1 (protonated)
CCCCc1nc2cc(OC)ccc2n1Cc1ccc(-c2ccccc2-c2nn[n-]n2)cc1 (3D coordinates assigned)
CCCCc1nc2cc(OC)ccc2n1Cc1ccc(-c2ccccc2-c2nn[n-]n2)cc1 (optimized conformer: 140.9353590077353 kcal/mol)

>  <smiles>  (22) 
CCCCc1nc2cc(OC)ccc2n1Cc1ccc(-c2ccccc2-c2nn[nH]n2)cc1

>  <score_type>  (22) 
oracle

>  <origin>  (22) 
adg

>  <m_score__min__energy>  (22) 
-11.609999999999999

>  <m_primary>  (22) 
energy

$$$$
22:0
     RDKit          3D

 32 34  0  0  0  0  0  0  0  0999 V2000
   51.2290   23.9020   44.4980 C   0  0  0  0  0  0  0  0  0  0  0  0
   51.9390   22.7540   44.9510 O   0  0  0  0  0  0  0  0  0  0  0  0
   53.0570   22.7970   45.7990 C   0  0  0  0  0  0  0  0  0  0  0  0
   53.1620   21.8340   46.8080 C   0  0  0  0  0  0  0  0  0  0  0  0
   54.2540   21.8350   47.6790 C   0  0  0  0  0  0  0  0  0  0  0  0
   55.2540   22.8010   47.5470 C   0  0  0  0  0  0  0  0  0  0  0  0
   55.1700   23.7760   46.5400 C   0  0  0  0  0  0  0  0  0  0  0  0
   56.2020   24.7710   46.4030 N   0  0  0  0  0  0  0  0  0  0  0  0
   57.5380   24.5750   46.4830 C   0  0  0  0  0  0  0  0  0  0  0  0
   58.1410   23.3500   46.7430 O   0  0  0  0  0  0  0  0  0  0  0  0
   58.2120   25.7660   46.2990 C   0  0  0  0  0  0  0  0  0  0  0  0
   57.2570   26.7300   46.1030 C   0  0  0  0  0  0  0  0  0  0  0  0
   56.0340   26.0930   46.1700 C   0  0  0  0  0  0  0  0  0  0  0  0
   54.8010   26.7110   45.9940 O   0  0  0  0  0  0  0  0  0  0  0  0
   57.5580   28.1730   45.8570 C   0  0  0  0  0  0  0  0  0  0  0  0
   59.0500   28.4440   45.8640 C   0  0  0  0  0  0  0  0  0  0  0  0
   59.9920   27.4940   46.0650 C   0  0  0  0  0  0  0  0  0  0  0  0
   59.6830   26.0320   46.3120 C   0  0  0  0  0  0  0  0  0  0  0  0
   54.0680   23.7700   45.6680 C   0  0  0  0  0  0  0  0  0  0  0  0
   50.8726   24.4783   45.3645 H   0  0  0  0  0  0  0  0  0  0  0  0
   51.8968   24.5297   43.8897 H   0  0  0  0  0  0  0  0  0  0  0  0
   50.3691   23.5849   43.8897 H   0  0  0  0  0  0  0  0  0  0  0  0
   52.3783   21.0697   46.9165 H   0  0  0  0  0  0  0  0  0  0  0  0
   54.3264   21.0740   48.4699 H   0  0  0  0  0  0  0  0  0  0  0  0
   56.1119   22.7980   48.2355 H   0  0  0  0  0  0  0  0  0  0  0  0
   57.1480   28.4607   44.8776 H   0  0  0  0  0  0  0  0  0  0  0  0
   57.0989   28.7616   46.6649 H   0  0  0  0  0  0  0  0  0  0  0  0
   59.3873   29.4773   45.6951 H   0  0  0  0  0  0  0  0  0  0  0  0
   61.0477   27.8025   46.0480 H   0  0  0  0  0  0  0  0  0  0  0  0
   60.1609   25.4292   45.5257 H   0  0  0  0  0  0  0  0  0  0  0  0
   60.0704   25.7637   47.3059 H   0  0  0  0  0  0  0  0  0  0  0  0
   53.9940   24.5308   44.8770 H   0  0  0  0  0  0  0  0  0  0  0  0
  1  2  1  0
  2  3  1  0
  3  4  2  0
  4  5  1  0
  5  6  2  0
  6  7  1  0
  7  8  1  0
  8  9  1  0
  9 10  1  0
  9 11  2  0
 11 12  1  0
 12 13  2  0
 13 14  1  0
 12 15  1  0
 15 16  1  0
 16 17  2  0
 17 18  1  0
  7 19  2  0
 19  3  1  0
 13  8  1  0
 18 11  1  0
  1 20  1  0
  1 21  1  0
  1 22  1  0
  4 23  1  0
  5 24  1  0
  6 25  1  0
 15 26  1  0
 15 27  1  0
 16 28  1  0
 17 29  1  0
 18 30  1  0
 18 31  1  0
 19 32  1  0
M  CHG  2  10  -1  14  -1
M  END
>  <UniqueID>  (23) 
23

>  <SMILES>  (23) 
COc1cccc(-n2c([O-])c3c(c2[O-])CC=CC3)c1

>  <Energy>  (23) 
71.28897620378949

>  <Genealogy>  (23) 
COc1cccc(-n2c([O-])c3c(c2[O-])CC=CC3)c1 (protonated)
COc1cccc(-n2c([O-])c3c(c2[O-])CC=CC3)c1 (3D coordinates assigned)
COc1cccc(-n2c([O-])c3c(c2[O-])CC=CC3)c1 (nonaromatic ring conformer: 71.28897620378949 kcal/mol)

>  <smiles>  (23) 
COc1cccc(-n2c(O)c3c(c2O)CC=CC3)c1

>  <score_type>  (23) 
oracle

>  <origin>  (23) 
adg

>  <m_score__min__energy>  (23) 
-11.470000000000001

>  <m_primary>  (23) 
energy

$$$$
23:0
     RDKit          3D

 91 95  0  0  0  0  0  0  0  0999 V2000
   60.3870   28.9660   44.8050 O   0  0  0  0  0  0  0  0  0  0  0  0
   59.3730   29.1150   45.5370 C   0  0  0  0  0  0  0  0  0  0  0  0
   58.0920   28.3900   45.1620 C   0  0  2  0  0  0  0  0  0  0  0  0
   56.9640   29.3300   44.6480 C   0  0  0  0  0  0  0  0  0  0  0  0
   57.4180   30.6550   44.0000 C   0  0  0  0  0  0  0  0  0  0  0  0
   56.6510   31.8970   44.5090 C   0  0  0  0  0  0  0  0  0  0  0  0
   57.5830   32.9760   44.9970 C   0  0  0  0  0  0  0  0  0  0  0  0
   57.3730   33.5820   46.2470 C   0  0  0  0  0  0  0  0  0  0  0  0
   58.2590   34.5600   46.7140 C   0  0  0  0  0  0  0  0  0  0  0  0
   59.3560   34.9360   45.9390 C   0  0  0  0  0  0  0  0  0  0  0  0
   59.5450   34.3720   44.6740 C   0  0  0  0  0  0  0  0  0  0  0  0
   58.6630   33.3930   44.2040 C   0  0  0  0  0  0  0  0  0  0  0  0
   57.7050   27.3710   46.2740 C   0  0  0  0  0  0  0  0  0  0  0  0
   57.9490   25.9050   45.9450 C   0  0  0  0  0  0  0  0  0  0  0  0
   56.8620   25.0490   45.6190 C   0  0  0  0  0  0  0  0  0  0  0  0
   55.1760   25.5770   45.6410 Cl  0  0  0  0  0  0  0  0  0  0  0  0
   57.0990   23.7100   45.2800 C   0  0  0  0  0  0  0  0  0  0  0  0
   58.3930   23.2000   45.2860 C   0  0  0  0  0  0  0  0  0  0  0  0
   59.4620   24.0170   45.6510 C   0  0  0  0  0  0  0  0  0  0  0  0
   59.2540   25.3540   45.9950 C   0  0  0  0  0  0  0  0  0  0  0  0
   60.7820   26.3500   46.6000 Br  0  0  0  0  0  0  0  0  0  0  0  0
   59.5090   29.8400   46.7680 N   0  0  0  0  0  0  0  0  0  0  0  0
   59.8530   29.1220   47.9990 C   0  0  0  0  0  0  0  0  0  0  0  0
   60.6470   30.0080   48.9810 C   0  0  0  0  0  0  0  0  0  0  0  0
   60.0710   31.3770   49.2130 N   0  0  0  0  0  0  0  0  0  0  0  0
   59.4060   31.5540   50.5670 C   0  0  0  0  0  0  0  0  0  0  0  0
   60.1900   32.6080   51.4410 C   0  0  0  0  0  0  0  0  0  0  0  0
   61.1780   33.3870   50.6740 N   0  0  0  0  0  0  0  0  0  0  0  0
   62.4900   32.7310   50.6930 C   0  0  0  0  0  0  0  0  0  0  0  0
   63.4230   33.3520   49.6330 C   0  0  0  0  0  0  0  0  0  0  0  0
   64.1060   32.2960   48.7650 C   0  0  0  0  0  0  0  0  0  0  0  0
   63.1690   32.0530   47.5840 C   0  0  0  0  0  0  0  0  0  0  0  0
   62.2610   33.2740   47.4850 C   0  0  0  0  0  0  0  0  0  0  0  0
   62.6440   34.2050   48.6310 C   0  0  0  0  0  0  0  0  0  0  0  0
   57.9030   31.9900   50.4160 C   0  0  0  0  0  0  0  0  0  0  0  0
   57.1410   32.0500   51.7560 C   0  0  0  0  0  0  0  0  0  0  0  0
   57.4690   30.8860   52.7120 C   0  0  0  0  0  0  0  0  0  0  0  0
   58.1690   29.7280   51.9980 C   0  0  0  0  0  0  0  0  0  0  0  0
   59.4970   30.1900   51.3740 C   0  0  0  0  0  0  0  0  0  0  0  0
   59.2620   31.8780   48.0610 C   0  0  0  0  0  0  0  0  0  0  0  0
   59.6980   31.2830   46.7220 C   0  0  0  0  0  0  0  0  0  0  0  0
   58.2774   27.7820   44.2643 H   0  0  0  0  0  0  0  0  0  0  0  0
   56.3801   28.7741   43.8996 H   0  0  0  0  0  0  0  0  0  0  0  0
   56.3958   29.6220   45.5435 H   0  0  0  0  0  0  0  0  0  0  0  0
   58.4876   30.7967   44.2144 H   0  0  0  0  0  0  0  0  0  0  0  0
   57.2104   30.5710   42.9230 H   0  0  0  0  0  0  0  0  0  0  0  0
   56.0415   32.2996   43.6865 H   0  0  0  0  0  0  0  0  0  0  0  0
   56.0214   31.5841   45.3550 H   0  0  0  0  0  0  0  0  0  0  0  0
   56.5093   33.2869   46.8609 H   0  0  0  0  0  0  0  0  0  0  0  0
   58.0899   35.0323   47.6929 H   0  0  0  0  0  0  0  0  0  0  0  0
   60.0727   35.6767   46.3234 H   0  0  0  0  0  0  0  0  0  0  0  0
   60.3881   34.6983   44.0474 H   0  0  0  0  0  0  0  0  0  0  0  0
   58.8166   32.9487   43.2095 H   0  0  0  0  0  0  0  0  0  0  0  0
   58.2881   27.6162   47.1739 H   0  0  0  0  0  0  0  0  0  0  0  0
   56.6172   27.4703   46.4040 H   0  0  0  0  0  0  0  0  0  0  0  0
   56.2560   23.0580   45.0074 H   0  0  0  0  0  0  0  0  0  0  0  0
   58.5728   22.1524   45.0028 H   0  0  0  0  0  0  0  0  0  0  0  0
   60.4812   23.6035   45.6682 H   0  0  0  0  0  0  0  0  0  0  0  0
   58.9251   28.7919   48.4889 H   0  0  0  0  0  0  0  0  0  0  0  0
   60.4857   28.2642   47.7270 H   0  0  0  0  0  0  0  0  0  0  0  0
   60.6913   29.4883   49.9495 H   0  0  0  0  0  0  0  0  0  0  0  0
   61.6345   30.1647   48.5225 H   0  0  0  0  0  0  0  0  0  0  0  0
   60.9050   32.0130   49.2300 H   0  0  0  0  0  0  0  0  0  0  0  0
   59.4624   33.3055   51.8815 H   0  0  0  0  0  0  0  0  0  0  0  0
   60.7444   32.0458   52.2069 H   0  0  0  0  0  0  0  0  0  0  0  0
   61.2780   34.3220   51.1240 H   0  0  0  0  0  0  0  0  0  0  0  0
   62.9414   32.8542   51.6885 H   0  0  0  0  0  0  0  0  0  0  0  0
   62.3559   31.6632   50.4654 H   0  0  0  0  0  0  0  0  0  0  0  0
   64.1498   33.9357   50.2170 H   0  0  0  0  0  0  0  0  0  0  0  0
   65.0802   32.6640   48.4107 H   0  0  0  0  0  0  0  0  0  0  0  0
   64.2929   31.3701   49.3286 H   0  0  0  0  0  0  0  0  0  0  0  0
   63.7499   31.9367   46.6572 H   0  0  0  0  0  0  0  0  0  0  0  0
   62.5815   31.1343   47.7282 H   0  0  0  0  0  0  0  0  0  0  0  0
   62.4115   33.7801   46.5200 H   0  0  0  0  0  0  0  0  0  0  0  0
   61.2021   32.9836   47.5507 H   0  0  0  0  0  0  0  0  0  0  0  0
   63.2735   35.0272   48.2599 H   0  0  0  0  0  0  0  0  0  0  0  0
   61.7543   34.6556   49.0952 H   0  0  0  0  0  0  0  0  0  0  0  0
   57.8749   32.9882   49.9547 H   0  0  0  0  0  0  0  0  0  0  0  0
   57.4066   31.2291   49.7958 H   0  0  0  0  0  0  0  0  0  0  0  0
   57.3975   32.9942   52.2587 H   0  0  0  0  0  0  0  0  0  0  0  0
   56.0695   31.9766   51.5183 H   0  0  0  0  0  0  0  0  0  0  0  0
   58.1272   31.2589   53.5106 H   0  0  0  0  0  0  0  0  0  0  0  0
   56.5198   30.5064   53.1182 H   0  0  0  0  0  0  0  0  0  0  0  0
   58.3717   28.9270   52.7242 H   0  0  0  0  0  0  0  0  0  0  0  0
   57.5122   29.3617   51.1952 H   0  0  0  0  0  0  0  0  0  0  0  0
   60.2308   30.3180   52.1835 H   0  0  0  0  0  0  0  0  0  0  0  0
   59.7876   29.4160   50.6484 H   0  0  0  0  0  0  0  0  0  0  0  0
   58.2073   31.6176   48.2336 H   0  0  0  0  0  0  0  0  0  0  0  0
   59.4116   32.9662   48.0021 H   0  0  0  0  0  0  0  0  0  0  0  0
   59.0893   31.7103   45.9115 H   0  0  0  0  0  0  0  0  0  0  0  0
   60.7567   31.5163   46.5355 H   0  0  0  0  0  0  0  0  0  0  0  0
  1  2  2  0
  2  3  1  0
  3  4  1  0
  4  5  1  0
  5  6  1  0
  6  7  1  0
  7  8  2  0
  8  9  1  0
  9 10  2  0
 10 11  1  0
 11 12  2  0
  3 13  1  0
 13 14  1  0
 14 15  2  0
 15 16  1  0
 15 17  1  0
 17 18  2  0
 18 19  1  0
 19 20  2  0
 20 21  1  0
  2 22  1  0
 22 23  1  0
 23 24  1  0
 24 25  1  0
 25 26  1  0
 26 27  1  0
 27 28  1  0
 28 29  1  0
 29 30  1  0
 30 31  1  0
 31 32  1  0
 32 33  1  0
 33 34  1  0
 26 35  1  0
 35 36  1  0
 36 37  1  0
 37 38  1  0
 38 39  1  0
 25 40  1  0
 40 41  1  0
 12  7  1  0
 20 14  1  0
 41 22  1  0
 39 26  1  0
 34 30  1  0
  3 42  1  6
  4 43  1  0
  4 44  1  0
  5 45  1  0
  5 46  1  0
  6 47  1  0
  6 48  1  0
  8 49  1  0
  9 50  1  0
 10 51  1  0
 11 52  1  0
 12 53  1  0
 13 54  1  0
 13 55  1  0
 17 56  1  0
 18 57  1  0
 19 58  1  0
 23 59  1  0
 23 60  1  0
 24 61  1  0
 24 62  1  0
 25 63  1  0
 27 64  1  0
 27 65  1  0
 28 66  1  0
 29 67  1  0
 29 68  1  0
 30 69  1  0
 31 70  1  0
 31 71  1  0
 32 72  1  0
 32 73  1  0
 33 74  1  0
 33 75  1  0
 34 76  1  0
 34 77  1  0
 35 78  1  0
 35 79  1  0
 36 80  1  0
 36 81  1  0
 37 82  1  0
 37 83  1  0
 38 84  1  0
 38 85  1  0
 39 86  1  0
 39 87  1  0
 40 88  1  0
 40 89  1  0
 41 90  1  0
 41 91  1  0
M  CHG  1  25   1
M  END
>  <UniqueID>  (24) 
24

>  <SMILES>  (24) 
O=C([C@H](CCCc1ccccc1)Cc1c(Cl)cccc1Br)N1CC[NH+](C2(CNCC3CCCC3)CCCCC2)CC1

>  <Energy>  (24) 
130.2886442547884

>  <Genealogy>  (24) 
O=C(C(CCCc1ccccc1)Cc1c(Cl)cccc1Br)N1CC[NH+](C2(CNCC3CCCC3)CCCCC2)CC1 (protonated)
O=C([C@H](CCCc1ccccc1)Cc1c(Cl)cccc1Br)N1CC[NH+](C2(CNCC3CCCC3)CCCCC2)CC1 (chirality)
O=C([C@H](CCCc1ccccc1)Cc1c(Cl)cccc1Br)N1CC[NH+](C2(CNCC3CCCC3)CCCCC2)CC1 (3D coordinates assigned)
O=C([C@H](CCCc1ccccc1)Cc1c(Cl)cccc1Br)N1CC[NH+](C2(CNCC3CCCC3)CCCCC2)CC1 (nonaromatic ring conformer: 130.2886442547884 kcal/mol)

>  <smiles>  (24) 
O=C(C(CCCc1ccccc1)Cc1c(Cl)cccc1Br)N1CCN(C2(CNCC3CCCC3)CCCCC2)CC1

>  <score_type>  (24) 
oracle

>  <origin>  (24) 
adg

>  <m_score__min__energy>  (24) 
-9.4399999999999995

>  <m_primary>  (24) 
energy

$$$$
24:0
     RDKit          3D

 46 49  0  0  0  0  0  0  0  0999 V2000
   61.0270   34.3400   47.4530 F   0  0  0  0  0  0  0  0  0  0  0  0
   59.8780   34.1790   46.7500 C   0  0  0  0  0  0  0  0  0  0  0  0
   59.6460   34.9800   45.6260 C   0  0  0  0  0  0  0  0  0  0  0  0
   58.4870   34.8040   44.8670 C   0  0  0  0  0  0  0  0  0  0  0  0
   57.5570   33.8240   45.2250 C   0  0  0  0  0  0  0  0  0  0  0  0
   57.7850   33.0210   46.3460 C   0  0  0  0  0  0  0  0  0  0  0  0
   58.9440   33.1960   47.1220 C   0  0  0  0  0  0  0  0  0  0  0  0
   59.1720   32.3720   48.2770 N   0  0  0  0  0  0  0  0  0  0  0  0
   59.6380   32.9840   49.5260 C   0  0  0  0  0  0  0  0  0  0  0  0
   59.0790   32.2490   50.7650 C   0  0  0  0  0  0  0  0  0  0  0  0
   58.6210   30.8600   50.4880 N   0  0  0  0  0  0  0  0  0  0  0  0
   58.6200   30.0380   51.7210 C   0  0  0  0  0  0  0  0  0  0  0  0
   57.2380   29.8970   52.2940 C   0  0  0  0  0  0  0  0  0  0  0  0
   56.9030   29.2420   53.4560 C   0  0  0  0  0  0  0  0  0  0  0  0
   55.6140   29.3920   53.6300 O   0  0  0  0  0  0  0  0  0  0  0  0
   55.1640   30.1150   52.6250 C   0  0  0  0  0  0  0  0  0  0  0  0
   53.7480   30.5050   52.4670 C   0  0  0  0  0  0  0  0  0  0  0  0
   52.8650   30.4560   53.5600 C   0  0  0  0  0  0  0  0  0  0  0  0
   51.5250   30.8270   53.4010 C   0  0  0  0  0  0  0  0  0  0  0  0
   51.0570   31.2490   52.1540 C   0  0  0  0  0  0  0  0  0  0  0  0
   51.9280   31.3010   51.0630 C   0  0  0  0  0  0  0  0  0  0  0  0
   53.2680   30.9320   51.2160 C   0  0  0  0  0  0  0  0  0  0  0  0
   56.1400   30.4650   51.7600 N   0  0  0  0  0  0  0  0  0  0  0  0
   59.4600   30.2180   49.4550 C   0  0  0  0  0  0  0  0  0  0  0  0
   59.2550   30.9170   48.1060 C   0  0  0  0  0  0  0  0  0  0  0  0
   60.3780   35.7497   45.3399 H   0  0  0  0  0  0  0  0  0  0  0  0
   58.3058   35.4375   43.9862 H   0  0  0  0  0  0  0  0  0  0  0  0
   56.6459   33.6847   44.6246 H   0  0  0  0  0  0  0  0  0  0  0  0
   57.0533   32.2476   46.6226 H   0  0  0  0  0  0  0  0  0  0  0  0
   60.7370   32.9450   49.5539 H   0  0  0  0  0  0  0  0  0  0  0  0
   59.2800   34.0238   49.5532 H   0  0  0  0  0  0  0  0  0  0  0  0
   59.8698   32.2069   51.5285 H   0  0  0  0  0  0  0  0  0  0  0  0
   58.1971   32.8146   51.1002 H   0  0  0  0  0  0  0  0  0  0  0  0
   57.6360   30.8990   50.1280 H   0  0  0  0  0  0  0  0  0  0  0  0
   59.0109   29.0378   51.4829 H   0  0  0  0  0  0  0  0  0  0  0  0
   59.2515   30.5404   52.4685 H   0  0  0  0  0  0  0  0  0  0  0  0
   57.5906   28.6937   54.1168 H   0  0  0  0  0  0  0  0  0  0  0  0
   53.2288   30.1248   54.5439 H   0  0  0  0  0  0  0  0  0  0  0  0
   50.8387   30.7863   54.2597 H   0  0  0  0  0  0  0  0  0  0  0  0
   50.0033   31.5401   52.0314 H   0  0  0  0  0  0  0  0  0  0  0  0
   51.5589   31.6330   50.0814 H   0  0  0  0  0  0  0  0  0  0  0  0
   53.9498   30.9759   50.3539 H   0  0  0  0  0  0  0  0  0  0  0  0
   60.5180   30.2921   49.7469 H   0  0  0  0  0  0  0  0  0  0  0  0
   59.1726   29.1603   49.3616 H   0  0  0  0  0  0  0  0  0  0  0  0
   60.1018   30.6798   47.4452 H   0  0  0  0  0  0  0  0  0  0  0  0
   58.3121   30.5607   47.6655 H   0  0  0  0  0  0  0  0  0  0  0  0
  1  2  1  0
  2  3  2  0
  3  4  1  0
  4  5  2  0
  5  6  1  0
  6  7  2  0
  7  8  1  0
  8  9  1  0
  9 10  1  0
 10 11  1  0
 11 12  1  0
 12 13  1  0
 13 14  2  0
 14 15  1  0
 15 16  1  0
 16 17  1  0
 17 18  2  0
 18 19  1  0
 19 20  2  0
 20 21  1  0
 21 22  2  0
 16 23  2  0
 11 24  1  0
 24 25  1  0
  7  2  1  0
 25  8  1  0
 23 13  1  0
 22 17  1  0
  3 26  1  0
  4 27  1  0
  5 28  1  0
  6 29  1  0
  9 30  1  0
  9 31  1  0
 10 32  1  0
 10 33  1  0
 11 34  1  0
 12 35  1  0
 12 36  1  0
 14 37  1  0
 18 38  1  0
 19 39  1  0
 20 40  1  0
 21 41  1  0
 22 42  1  0
 24 43  1  0
 24 44  1  0
 25 45  1  0
 25 46  1  0
M  CHG  1  11   1
M  END
>  <UniqueID>  (25) 
25

>  <SMILES>  (25) 
Fc1ccccc1N1CC[NH+](Cc2coc(-c3ccccc3)n2)CC1

>  <Energy>  (25) 
90.13679831219363

>  <Genealogy>  (25) 
Fc1ccccc1N1CC[NH+](Cc2coc(-c3ccccc3)n2)CC1 (protonated)
Fc1ccccc1N1CC[NH+](Cc2coc(-c3ccccc3)n2)CC1 (3D coordinates assigned)
Fc1ccccc1N1CC[NH+](Cc2coc(-c3ccccc3)n2)CC1 (nonaromatic ring conformer: 90.13679831219363 kcal/mol)

>  <smiles>  (25) 
Fc1ccccc1N1CCN(Cc2coc(-c3ccccc3)n2)CC1

>  <score_type>  (25) 
oracle

>  <origin>  (25) 
adg

>  <m_score__min__energy>  (25) 
-5.7999999999999998

>  <m_primary>  (25) 
energy

$$$$
25:0
     RDKit          3D

 47 49  0  0  0  0  0  0  0  0999 V2000
   61.6780   31.4990   47.4980 C   0  0  0  0  0  0  0  0  0  0  0  0
   60.7120   30.6280   46.7470 C   0  0  0  0  0  0  0  0  0  0  0  0
   60.6950   29.2540   46.9730 C   0  0  0  0  0  0  0  0  0  0  0  0
   59.7670   28.4330   46.3170 C   0  0  0  0  0  0  0  0  0  0  0  0
   59.8690   26.9510   46.5800 C   0  0  0  0  0  0  0  0  0  0  0  0
   58.8030   29.0270   45.4440 C   0  0  0  0  0  0  0  0  0  0  0  0
   57.7610   28.3000   44.7900 C   0  0  0  0  0  0  0  0  0  0  0  0
   57.5260   26.9030   45.0190 N   0  0  0  0  0  0  0  0  0  0  0  0
   56.5300   26.5310   46.0240 C   0  0  0  0  0  0  0  0  0  0  0  0
   57.7810   25.9660   43.9240 C   0  0  0  0  0  0  0  0  0  0  0  0
   56.8750   28.9650   43.9330 C   0  0  0  0  0  0  0  0  0  0  0  0
   56.9840   30.3270   43.7070 C   0  0  0  0  0  0  0  0  0  0  0  0
   57.9780   31.0720   44.3390 C   0  0  0  0  0  0  0  0  0  0  0  0
   58.0580   32.4820   44.0820 N   0  0  0  0  0  0  0  0  0  0  0  0
   57.3660   33.4540   44.9260 C   0  0  0  0  0  0  0  0  0  0  0  0
   58.2000   33.7620   46.1390 C   0  0  0  0  0  0  0  0  0  0  0  0
   59.2390   34.7030   46.0600 C   0  0  0  0  0  0  0  0  0  0  0  0
   60.0600   34.9400   47.1660 C   0  0  0  0  0  0  0  0  0  0  0  0
   59.8560   34.2330   48.3540 C   0  0  0  0  0  0  0  0  0  0  0  0
   58.8330   33.2840   48.4370 C   0  0  0  0  0  0  0  0  0  0  0  0
   58.0090   33.0450   47.3330 C   0  0  0  0  0  0  0  0  0  0  0  0
   58.8840   30.4380   45.2240 C   0  0  0  0  0  0  0  0  0  0  0  0
   59.8130   31.1840   45.8950 N   0  0  0  0  0  0  0  0  0  0  0  0
   61.5287   31.3644   48.5795 H   0  0  0  0  0  0  0  0  0  0  0  0
   62.7078   31.2182   47.2323 H   0  0  0  0  0  0  0  0  0  0  0  0
   61.5050   32.5523   47.2323 H   0  0  0  0  0  0  0  0  0  0  0  0
   61.4169   28.8084   47.6732 H   0  0  0  0  0  0  0  0  0  0  0  0
   59.8814   26.7712   47.6651 H   0  0  0  0  0  0  0  0  0  0  0  0
   59.0040   26.4389   46.1333 H   0  0  0  0  0  0  0  0  0  0  0  0
   60.7960   26.5623   46.1333 H   0  0  0  0  0  0  0  0  0  0  0  0
   56.9478   26.6870   47.0295 H   0  0  0  0  0  0  0  0  0  0  0  0
   55.6324   27.1545   45.8990 H   0  0  0  0  0  0  0  0  0  0  0  0
   56.2609   25.4718   45.8990 H   0  0  0  0  0  0  0  0  0  0  0  0
   58.0486   24.9826   44.3378 H   0  0  0  0  0  0  0  0  0  0  0  0
   56.8764   25.8698   43.3056 H   0  0  0  0  0  0  0  0  0  0  0  0
   58.6096   26.3414   43.3056 H   0  0  0  0  0  0  0  0  0  0  0  0
   56.0789   28.3957   43.4308 H   0  0  0  0  0  0  0  0  0  0  0  0
   56.2805   30.8247   43.0233 H   0  0  0  0  0  0  0  0  0  0  0  0
   58.7320   32.8330   43.3650 H   0  0  0  0  0  0  0  0  0  0  0  0
   57.1972   34.3787   44.3547 H   0  0  0  0  0  0  0  0  0  0  0  0
   56.4010   33.0343   45.2463 H   0  0  0  0  0  0  0  0  0  0  0  0
   59.4075   35.2558   45.1241 H   0  0  0  0  0  0  0  0  0  0  0  0
   60.8677   35.6839   47.1012 H   0  0  0  0  0  0  0  0  0  0  0  0
   60.5009   34.4234   49.2245 H   0  0  0  0  0  0  0  0  0  0  0  0
   58.6762   32.7250   49.3713 H   0  0  0  0  0  0  0  0  0  0  0  0
   57.2086   32.2934   47.3990 H   0  0  0  0  0  0  0  0  0  0  0  0
   59.8410   32.2220   45.7800 H   0  0  0  0  0  0  0  0  0  0  0  0
  1  2  1  0
  2  3  2  0
  3  4  1  0
  4  5  1  0
  4  6  2  0
  6  7  1  0
  7  8  1  0
  8  9  1  0
  8 10  1  0
  7 11  2  0
 11 12  1  0
 12 13  2  0
 13 14  1  0
 14 15  1  0
 15 16  1  0
 16 17  2  0
 17 18  1  0
 18 19  2  0
 19 20  1  0
 20 21  2  0
 13 22  1  0
 22 23  2  0
 23  2  1  0
 22  6  1  0
 21 16  1  0
  1 24  1  0
  1 25  1  0
  1 26  1  0
  3 27  1  0
  5 28  1  0
  5 29  1  0
  5 30  1  0
  9 31  1  0
  9 32  1  0
  9 33  1  0
 10 34  1  0
 10 35  1  0
 10 36  1  0
 11 37  1  0
 12 38  1  0
 14 39  1  0
 15 40  1  0
 15 41  1  0
 17 42  1  0
 18 43  1  0
 19 44  1  0
 20 45  1  0
 21 46  1  0
 23 47  1  0
M  CHG  1  23   1
M  END
>  <UniqueID>  (26) 
26

>  <SMILES>  (26) 
Cc1cc(C)c2c(N(C)C)ccc(NCc3ccccc3)c2[nH+]1

>  <Energy>  (26) 
64.80609650585703

>  <Genealogy>  (26) 
Cc1cc(C)c2c(N(C)C)ccc(NCc3ccccc3)c2[nH+]1 (protonated)
Cc1cc(C)c2c(N(C)C)ccc(NCc3ccccc3)c2[nH+]1 (3D coordinates assigned)
Cc1cc(C)c2c(N(C)C)ccc(NCc3ccccc3)c2[nH+]1 (optimized conformer: 64.80609650585703 kcal/mol)

>  <smiles>  (26) 
Cc1cc(C)c2c(N(C)C)ccc(NCc3ccccc3)c2n1

>  <score_type>  (26) 
oracle

>  <origin>  (26) 
adg

>  <m_score__min__energy>  (26) 
-5.9500000000000002

>  <m_primary>  (26) 
energy

$$$$
26:0
     RDKit          3D

 40 42  0  0  0  0  0  0  0  0999 V2000
   58.1460   31.8790   50.6260 C   0  0  0  0  0  0  0  0  0  0  0  0
   58.8720   30.5370   50.4900 C   0  0  0  0  0  0  0  0  0  0  0  0
   58.7310   29.9620   49.1460 N   0  0  0  0  0  0  0  0  0  0  0  0
   59.5000   30.6440   48.0840 C   0  0  0  0  0  0  0  0  0  0  0  0
   58.6190   31.1410   46.8760 C   0  0  0  0  0  0  0  0  0  0  0  0
   58.9160   32.6210   46.4860 C   0  0  0  0  0  0  0  0  0  0  0  0
   59.2970   33.5150   47.5230 C   0  0  0  0  0  0  0  0  0  0  0  0
   59.6760   34.8300   47.2630 C   0  0  0  0  0  0  0  0  0  0  0  0
   59.6280   35.3240   45.9700 C   0  0  0  0  0  0  0  0  0  0  0  0
   59.1210   34.5300   44.9490 C   0  0  0  0  0  0  0  0  0  0  0  0
   58.6840   33.2120   45.1960 C   0  0  0  0  0  0  0  0  0  0  0  0
   57.9280   32.5600   44.0620 C   0  0  0  0  0  0  0  0  0  0  0  0
   56.8390   31.6080   44.5410 C   0  0  0  0  0  0  0  0  0  0  0  0
   57.4730   30.2720   44.7430 C   0  0  0  0  0  0  0  0  0  0  0  0
   57.2100   29.2610   43.8000 C   0  0  0  0  0  0  0  0  0  0  0  0
   57.9280   28.0720   43.8160 C   0  0  0  0  0  0  0  0  0  0  0  0
   58.9300   27.8860   44.7580 C   0  0  0  0  0  0  0  0  0  0  0  0
   59.2000   28.8790   45.7010 C   0  0  0  0  0  0  0  0  0  0  0  0
   58.4780   30.1010   45.7280 C   0  0  0  0  0  0  0  0  0  0  0  0
   58.0160   32.1192   51.6915 H   0  0  0  0  0  0  0  0  0  0  0  0
   58.7403   32.6681   50.1421 H   0  0  0  0  0  0  0  0  0  0  0  0
   57.1604   31.8134   50.1421 H   0  0  0  0  0  0  0  0  0  0  0  0
   59.9410   30.6901   50.6991 H   0  0  0  0  0  0  0  0  0  0  0  0
   58.4197   29.8351   51.2060 H   0  0  0  0  0  0  0  0  0  0  0  0
   59.0010   28.9500   49.1670 H   0  0  0  0  0  0  0  0  0  0  0  0
   60.0038   31.5158   48.5268 H   0  0  0  0  0  0  0  0  0  0  0  0
   60.2089   29.9065   47.6797 H   0  0  0  0  0  0  0  0  0  0  0  0
   57.5776   31.1960   47.2260 H   0  0  0  0  0  0  0  0  0  0  0  0
   59.2925   33.1575   48.5633 H   0  0  0  0  0  0  0  0  0  0  0  0
   60.0139   35.4770   48.0859 H   0  0  0  0  0  0  0  0  0  0  0  0
   59.9895   36.3399   45.7526 H   0  0  0  0  0  0  0  0  0  0  0  0
   59.0592   34.9369   43.9289 H   0  0  0  0  0  0  0  0  0  0  0  0
   57.4613   33.3483   43.4531 H   0  0  0  0  0  0  0  0  0  0  0  0
   58.6513   31.9672   43.4828 H   0  0  0  0  0  0  0  0  0  0  0  0
   56.4134   31.9696   45.4887 H   0  0  0  0  0  0  0  0  0  0  0  0
   56.0255   31.5449   43.8032 H   0  0  0  0  0  0  0  0  0  0  0  0
   56.4275   29.4140   43.0422 H   0  0  0  0  0  0  0  0  0  0  0  0
   57.7033   27.2812   43.0851 H   0  0  0  0  0  0  0  0  0  0  0  0
   59.5131   26.9533   44.7615 H   0  0  0  0  0  0  0  0  0  0  0  0
   59.9939   28.7101   46.4435 H   0  0  0  0  0  0  0  0  0  0  0  0
  1  2  1  0
  2  3  1  0
  3  4  1  0
  4  5  1  0
  5  6  1  0
  6  7  2  0
  7  8  1  0
  8  9  2  0
  9 10  1  0
 10 11  2  0
 11 12  1  0
 12 13  1  0
 13 14  1  0
 14 15  2  0
 15 16  1  0
 16 17  2  0
 17 18  1  0
 18 19  2  0
 19  5  1  0
 11  6  1  0
 19 14  1  0
  1 20  1  0
  1 21  1  0
  1 22  1  0
  2 23  1  0
  2 24  1  0
  3 25  1  0
  4 26  1  0
  4 27  1  0
  5 28  1  0
  7 29  1  0
  8 30  1  0
  9 31  1  0
 10 32  1  0
 12 33  1  0
 12 34  1  0
 13 35  1  0
 13 36  1  0
 15 37  1  0
 16 38  1  0
 17 39  1  0
 18 40  1  0
M  END
>  <UniqueID>  (27) 
27

>  <SMILES>  (27) 
CCNCC1c2ccccc2CCc2ccccc21

>  <Energy>  (27) 
75.0954483037614

>  <Genealogy>  (27) 
CCNCC1c2ccccc2CCc2ccccc21 (3D coordinates assigned)
CCNCC1c2ccccc2CCc2ccccc21 (nonaromatic ring conformer: 75.0954483037614 kcal/mol)

>  <smiles>  (27) 
CCNCC1c2ccccc2CCc2ccccc21

>  <score_type>  (27) 
oracle

>  <origin>  (27) 
adg

>  <m_score__min__energy>  (27) 
-5.9699999999999998

>  <m_primary>  (27) 
energy

$$$$
27:0
     RDKit          3D

 54 56  0  0  0  0  0  0  0  0999 V2000
   54.2760   26.8430   46.7370 H   0  0  0  0  0  0  0  0  0  0  0  0
   55.0670   26.3370   46.2770 N   0  0  0  0  0  0  0  0  0  0  0  0
   56.1630   26.9300   45.9250 C   0  0  0  0  0  0  0  0  0  0  0  0
   56.0980   28.1320   45.3030 N   0  0  0  0  0  0  0  0  0  0  0  0
   57.2060   28.8100   44.9000 C   0  0  0  0  0  0  0  0  0  0  0  0
   57.0120   30.1410   44.2310 C   0  0  0  0  0  0  0  0  0  0  0  0
   56.8980   30.9229   44.9963 H   0  0  0  0  0  0  0  0  0  0  0  0
   57.8867   30.3669   43.6034 H   0  0  0  0  0  0  0  0  0  0  0  0
   56.1092   30.1078   43.6034 H   0  0  0  0  0  0  0  0  0  0  0  0
   58.4910   28.2460   45.1030 C   0  0  0  0  0  0  0  0  0  0  0  0
   59.7420   28.9890   44.6660 C   0  0  0  0  0  0  0  0  0  0  0  0
   60.3506   28.3295   44.0299 H   0  0  0  0  0  0  0  0  0  0  0  0
   59.4436   29.8877   44.1063 H   0  0  0  0  0  0  0  0  0  0  0  0
   60.5300   29.3970   45.8280 N   0  0  0  0  0  0  0  0  0  0  0  0
   61.4020   28.8720   46.0600 H   0  0  0  0  0  0  0  0  0  0  0  0
   60.1290   30.5030   46.6500 C   0  0  0  0  0  0  0  0  0  0  0  0
   59.0940   31.1600   46.3550 O   0  0  0  0  0  0  0  0  0  0  0  0
   60.9050   30.8940   47.8410 C   0  0  0  0  0  0  0  0  0  0  0  0
   60.5850   30.5100   49.0910 N   0  0  0  0  0  0  0  0  0  0  0  0
   61.4750   31.0200   49.9270 N   0  0  0  0  0  0  0  0  0  0  0  0
   62.3720   31.7350   49.2180 C   0  0  0  0  0  0  0  0  0  0  0  0
   63.5190   32.4500   49.8280 C   0  0  0  0  0  0  0  0  0  0  0  0
   63.3150   33.6540   50.5180 C   0  0  0  0  0  0  0  0  0  0  0  0
   62.2998   34.0684   50.6058 H   0  0  0  0  0  0  0  0  0  0  0  0
   64.3640   34.3120   51.0790 N   0  0  0  0  0  0  0  0  0  0  0  0
   65.6440   33.8510   51.0040 C   0  0  0  0  0  0  0  0  0  0  0  0
   66.7110   34.6030   51.6320 N   0  0  0  0  0  0  0  0  0  0  0  0
   68.0750   34.6330   51.0740 C   0  0  0  0  0  0  0  0  0  0  0  0
   68.0148   34.5955   49.9763 H   0  0  0  0  0  0  0  0  0  0  0  0
   68.5664   35.5604   51.4033 H   0  0  0  0  0  0  0  0  0  0  0  0
   68.8990   33.4460   51.5690 C   0  0  0  0  0  0  0  0  0  0  0  0
   68.9051   33.4371   52.6689 H   0  0  0  0  0  0  0  0  0  0  0  0
   68.4548   32.5108   51.1973 H   0  0  0  0  0  0  0  0  0  0  0  0
   69.9304   33.5352   51.1973 H   0  0  0  0  0  0  0  0  0  0  0  0
   66.4180   35.4090   52.8260 C   0  0  0  0  0  0  0  0  0  0  0  0
   67.3547   35.8388   53.2104 H   0  0  0  0  0  0  0  0  0  0  0  0
   65.7164   36.2096   52.5490 H   0  0  0  0  0  0  0  0  0  0  0  0
   65.7790   34.5510   53.9110 C   0  0  0  0  0  0  0  0  0  0  0  0
   66.0663   34.9368   54.9002 H   0  0  0  0  0  0  0  0  0  0  0  0
   64.6844   34.5849   53.8080 H   0  0  0  0  0  0  0  0  0  0  0  0
   66.1250   33.5119   53.8080 H   0  0  0  0  0  0  0  0  0  0  0  0
   65.8880   32.6430   50.3280 C   0  0  0  0  0  0  0  0  0  0  0  0
   66.9115   32.2456   50.2607 H   0  0  0  0  0  0  0  0  0  0  0  0
   64.8290   31.9500   49.7430 C   0  0  0  0  0  0  0  0  0  0  0  0
   65.0205   31.0060   49.2117 H   0  0  0  0  0  0  0  0  0  0  0  0
   62.0420   31.6800   47.8750 C   0  0  0  0  0  0  0  0  0  0  0  0
   62.5638   32.1525   47.0298 H   0  0  0  0  0  0  0  0  0  0  0  0
   58.5820   27.0110   45.7940 C   0  0  0  0  0  0  0  0  0  0  0  0
   59.9120   26.3700   46.1030 C   0  0  0  0  0  0  0  0  0  0  0  0
   60.0439   26.3064   47.1932 H   0  0  0  0  0  0  0  0  0  0  0  0
   59.9411   25.3590   45.6706 H   0  0  0  0  0  0  0  0  0  0  0  0
   60.7209   26.9771   45.6706 H   0  0  0  0  0  0  0  0  0  0  0  0
   57.4090   26.3500   46.1840 C   0  0  0  0  0  0  0  0  0  0  0  0
   57.4684   25.3766   46.6930 H   0  0  0  0  0  0  0  0  0  0  0  0
  1  2  1  0
  2  3  2  0
  3  4  1  0
  4  5  1  0
  5  6  1  0
  6  7  1  0
  6  8  1  0
  6  9  1  0
  5 10  2  0
 10 11  1  0
 11 12  1  0
 11 13  1  0
 11 14  1  0
 14 15  1  0
 14 16  1  0
 16 17  2  0
 16 18  1  0
 18 19  2  0
 19 20  1  0
 20 21  1  0
 21 22  1  0
 22 23  2  0
 23 24  1  0
 23 25  1  0
 25 26  2  0
 26 27  1  0
 27 28  1  0
 28 29  1  0
 28 30  1  0
 28 31  1  0
 31 32  1  0
 31 33  1  0
 31 34  1  0
 27 35  1  0
 35 36  1  0
 35 37  1  0
 35 38  1  0
 38 39  1  0
 38 40  1  0
 38 41  1  0
 26 42  1  0
 42 43  1  0
 42 44  2  0
 44 45  1  0
 21 46  2  0
 46 47  1  0
 10 48  1  0
 48 49  1  0
 49 50  1  0
 49 51  1  0
 49 52  1  0
 48 53  2  0
 53 54  1  0
 53  3  1  0
 46 18  1  0
 44 22  1  0
M  CHG  2   4  -1  20  -1
M  END
>  <UniqueID>  (28) 
28

>  <SMILES>  (28) 
[H]/N=c1\cc(C)c(CNC(=O)c2cc(-c3ccc(N(CC)CC)nc3)[n-]n2)c(C)[n-]1

>  <Energy>  (28) 
82.74135872719174

>  <Genealogy>  (28) 
CCN(CC)c1ccc(-c2cc(C(=O)NCc3c(C)cc(=N)[n-]c3C)n[n-]2)cn1 (protonated)
[H]/N=c1\cc(C)c(CNC(=O)c2cc(-c3ccc(N(CC)CC)nc3)[n-]n2)c(C)[n-]1 (cis-trans isomerization)
[H]/N=c1\cc(C)c(CNC(=O)c2cc(-c3ccc(N(CC)CC)nc3)[n-]n2)c(C)[n-]1 (3D coordinates assigned)
[H]/N=c1\cc(C)c(CNC(=O)c2cc(-c3ccc(N(CC)CC)nc3)[n-]n2)c(C)[n-]1 (optimized conformer: 82.74135872719174 kcal/mol)

>  <smiles>  (28) 
CCN(CC)c1ccc(-c2cc(C(=O)NCc3c(C)cc(=N)[nH]c3C)n[nH]2)cn1

>  <score_type>  (28) 
oracle

>  <origin>  (28) 
adg

>  <m_score__min__energy>  (28) 
-10.19

>  <m_primary>  (28) 
energy

$$$$
28:0
     RDKit          3D

 41 43  0  0  0  0  0  0  0  0999 V2000
   56.6590   21.1690   42.9570 C   0  0  0  0  0  0  0  0  0  0  0  0
   57.7420   21.0990   44.0250 C   0  0  0  0  0  0  0  0  0  0  0  0
   57.9990   22.4280   44.5710 N   0  0  0  0  0  0  0  0  0  0  0  0
   57.5010   23.5850   44.1000 C   0  0  0  0  0  0  0  0  0  0  0  0
   58.0350   24.6220   44.8460 C   0  0  0  0  0  0  0  0  0  0  0  0
   57.7800   26.0770   44.6920 C   0  0  0  0  0  0  0  0  0  0  0  0
   57.3100   26.8430   45.7730 C   0  0  0  0  0  0  0  0  0  0  0  0
   57.0710   28.2130   45.6270 C   0  0  0  0  0  0  0  0  0  0  0  0
   57.3020   28.8520   44.3970 C   0  0  0  0  0  0  0  0  0  0  0  0
   57.0490   30.3020   44.2250 C   0  0  0  0  0  0  0  0  0  0  0  0
   55.9930   30.8040   44.6990 O   0  0  0  0  0  0  0  0  0  0  0  0
   57.9750   31.1410   43.5130 N   0  0  0  0  0  0  0  0  0  0  0  0
   57.7930   32.5860   43.4020 C   0  0  0  0  0  0  0  0  0  0  0  0
   58.1910   33.2560   44.6850 C   0  0  0  0  0  0  0  0  0  0  0  0
   59.2110   34.2190   44.7100 C   0  0  0  0  0  0  0  0  0  0  0  0
   59.5690   34.8050   45.9260 C   0  0  0  0  0  0  0  0  0  0  0  0
   58.9120   34.4280   47.0980 C   0  0  0  0  0  0  0  0  0  0  0  0
   57.9030   33.4630   47.0370 C   0  0  0  0  0  0  0  0  0  0  0  0
   57.5690   32.9030   45.8440 N   0  0  0  0  0  0  0  0  0  0  0  0
   57.7580   28.0850   43.3120 C   0  0  0  0  0  0  0  0  0  0  0  0
   57.9980   26.7160   43.4580 C   0  0  0  0  0  0  0  0  0  0  0  0
   58.8700   23.9980   45.7630 C   0  0  0  0  0  0  0  0  0  0  0  0
   58.8350   22.6650   45.5690 N   0  0  0  0  0  0  0  0  0  0  0  0
   55.6723   21.2328   43.4390 H   0  0  0  0  0  0  0  0  0  0  0  0
   56.8191   22.0587   42.3302 H   0  0  0  0  0  0  0  0  0  0  0  0
   56.7032   20.2661   42.3302 H   0  0  0  0  0  0  0  0  0  0  0  0
   57.4114   20.4315   44.8344 H   0  0  0  0  0  0  0  0  0  0  0  0
   58.6671   20.7120   43.5729 H   0  0  0  0  0  0  0  0  0  0  0  0
   56.7916   23.6895   43.2658 H   0  0  0  0  0  0  0  0  0  0  0  0
   57.1283   26.3595   46.7442 H   0  0  0  0  0  0  0  0  0  0  0  0
   56.6989   28.7957   46.4826 H   0  0  0  0  0  0  0  0  0  0  0  0
   58.7760   30.7130   42.9980 H   0  0  0  0  0  0  0  0  0  0  0  0
   58.4181   32.9695   42.5821 H   0  0  0  0  0  0  0  0  0  0  0  0
   56.7338   32.8008   43.1971 H   0  0  0  0  0  0  0  0  0  0  0  0
   59.7236   34.5095   43.7811 H   0  0  0  0  0  0  0  0  0  0  0  0
   60.3667   35.5617   45.9599 H   0  0  0  0  0  0  0  0  0  0  0  0
   59.1855   34.8858   48.0601 H   0  0  0  0  0  0  0  0  0  0  0  0
   57.3790   33.1565   47.9543 H   0  0  0  0  0  0  0  0  0  0  0  0
   57.9278   28.5668   42.3378 H   0  0  0  0  0  0  0  0  0  0  0  0
   58.3611   26.1323   42.5992 H   0  0  0  0  0  0  0  0  0  0  0  0
   59.4679   24.5124   46.5297 H   0  0  0  0  0  0  0  0  0  0  0  0
  1  2  1  0
  2  3  1  0
  3  4  1  0
  4  5  2  0
  5  6  1  0
  6  7  2  0
  7  8  1  0
  8  9  2  0
  9 10  1  0
 10 11  2  0
 10 12  1  0
 12 13  1  0
 13 14  1  0
 14 15  2  0
 15 16  1  0
 16 17  2  0
 17 18  1  0
 18 19  2  0
  9 20  1  0
 20 21  2  0
  5 22  1  0
 22 23  2  0
 23  3  1  0
 21  6  1  0
 19 14  1  0
  1 24  1  0
  1 25  1  0
  1 26  1  0
  2 27  1  0
  2 28  1  0
  4 29  1  0
  7 30  1  0
  8 31  1  0
 12 32  1  0
 13 33  1  0
 13 34  1  0
 15 35  1  0
 16 36  1  0
 17 37  1  0
 18 38  1  0
 20 39  1  0
 21 40  1  0
 22 41  1  0
M  END
>  <UniqueID>  (29) 
29

>  <SMILES>  (29) 
CCn1cc(-c2ccc(C(=O)NCc3ccccn3)cc2)cn1

>  <Energy>  (29) 
72.29676429743185

>  <Genealogy>  (29) 
CCn1cc(-c2ccc(C(=O)NCc3ccccn3)cc2)cn1 (3D coordinates assigned)
CCn1cc(-c2ccc(C(=O)NCc3ccccn3)cc2)cn1 (optimized conformer: 72.29676429743185 kcal/mol)

>  <smiles>  (29) 
CCn1cc(-c2ccc(C(=O)NCc3ccccn3)cc2)cn1

>  <score_type>  (29) 
oracle

>  <origin>  (29) 
adg

>  <m_score__min__energy>  (29) 
-8.0099999999999998

>  <m_primary>  (29) 
energy

$$$$
29:0
     RDKit          3D

 41 41  0  0  0  0  0  0  0  0999 V2000
   59.6310   35.3340   45.9100 C   0  0  0  0  0  0  0  0  0  0  0  0
   58.9780   34.3760   44.9190 C   0  0  0  0  0  0  0  0  0  0  0  0
   58.7190   33.0760   45.5560 N   0  0  0  0  0  0  0  0  0  0  0  0
   59.1210   32.8400   46.9520 C   0  0  0  0  0  0  0  0  0  0  0  0
   60.5330   32.2330   47.0380 C   0  0  0  0  0  0  0  0  0  0  0  0
   61.5130   33.0600   47.9190 C   0  0  0  0  0  0  0  0  0  0  0  0
   62.9600   32.9640   47.5540 N   0  0  0  0  0  0  0  0  0  0  0  0
   63.1980   33.8480   46.3860 C   0  0  0  0  0  0  0  0  0  0  0  0
   63.3360   31.5820   47.1730 C   0  0  0  0  0  0  0  0  0  0  0  0
   63.8260   33.4320   48.6650 C   0  0  0  0  0  0  0  0  0  0  0  0
   58.0830   32.0250   44.8020 C   0  0  0  0  0  0  0  0  0  0  0  0
   57.7820   30.7970   45.4140 C   0  0  0  0  0  0  0  0  0  0  0  0
   57.1730   29.7750   44.6800 C   0  0  0  0  0  0  0  0  0  0  0  0
   56.8600   29.9710   43.3320 C   0  0  0  0  0  0  0  0  0  0  0  0
   57.1570   31.1890   42.7160 C   0  0  0  0  0  0  0  0  0  0  0  0
   57.7680   32.2130   43.4460 C   0  0  0  0  0  0  0  0  0  0  0  0
   59.4085   35.0075   46.9366 H   0  0  0  0  0  0  0  0  0  0  0  0
   60.7199   35.3368   45.7541 H   0  0  0  0  0  0  0  0  0  0  0  0
   59.2356   36.3486   45.7541 H   0  0  0  0  0  0  0  0  0  0  0  0
   58.0264   34.8058   44.5729 H   0  0  0  0  0  0  0  0  0  0  0  0
   59.6577   34.2264   44.0672 H   0  0  0  0  0  0  0  0  0  0  0  0
   59.1099   33.7973   47.4938 H   0  0  0  0  0  0  0  0  0  0  0  0
   58.4117   32.1283   47.3996 H   0  0  0  0  0  0  0  0  0  0  0  0
   60.4517   31.2218   47.4633 H   0  0  0  0  0  0  0  0  0  0  0  0
   60.9440   32.2255   46.0177 H   0  0  0  0  0  0  0  0  0  0  0  0
   61.2176   34.1173   47.8500 H   0  0  0  0  0  0  0  0  0  0  0  0
   61.4328   32.6364   48.9310 H   0  0  0  0  0  0  0  0  0  0  0  0
   63.4690   34.8546   46.7372 H   0  0  0  0  0  0  0  0  0  0  0  0
   64.0180   33.4388   45.7775 H   0  0  0  0  0  0  0  0  0  0  0  0
   62.2834   33.9058   45.7775 H   0  0  0  0  0  0  0  0  0  0  0  0
   63.4990   30.9828   48.0810 H   0  0  0  0  0  0  0  0  0  0  0  0
   62.5274   31.1329   46.5776 H   0  0  0  0  0  0  0  0  0  0  0  0
   64.2607   31.6045   46.5776 H   0  0  0  0  0  0  0  0  0  0  0  0
   63.3570   33.1786   49.6272 H   0  0  0  0  0  0  0  0  0  0  0  0
   64.8084   32.9420   48.5956 H   0  0  0  0  0  0  0  0  0  0  0  0
   63.9544   34.5223   48.5956 H   0  0  0  0  0  0  0  0  0  0  0  0
   58.0264   30.6390   46.4748 H   0  0  0  0  0  0  0  0  0  0  0  0
   56.9398   28.8151   45.1640 H   0  0  0  0  0  0  0  0  0  0  0  0
   56.3798   29.1661   42.7562 H   0  0  0  0  0  0  0  0  0  0  0  0
   56.9099   31.3427   41.6552 H   0  0  0  0  0  0  0  0  0  0  0  0
   58.0030   33.1697   42.9565 H   0  0  0  0  0  0  0  0  0  0  0  0
  1  2  1  0
  2  3  1  0
  3  4  1  0
  4  5  1  0
  5  6  1  0
  6  7  1  0
  7  8  1  0
  7  9  1  0
  7 10  1  0
  3 11  1  0
 11 12  2  0
 12 13  1  0
 13 14  2  0
 14 15  1  0
 15 16  2  0
 16 11  1  0
  1 17  1  0
  1 18  1  0
  1 19  1  0
  2 20  1  0
  2 21  1  0
  4 22  1  0
  4 23  1  0
  5 24  1  0
  5 25  1  0
  6 26  1  0
  6 27  1  0
  8 28  1  0
  8 29  1  0
  8 30  1  0
  9 31  1  0
  9 32  1  0
  9 33  1  0
 10 34  1  0
 10 35  1  0
 10 36  1  0
 12 37  1  0
 13 38  1  0
 14 39  1  0
 15 40  1  0
 16 41  1  0
M  CHG  1   7   1
M  END
>  <UniqueID>  (30) 
30

>  <SMILES>  (30) 
CCN(CCC[N+](C)(C)C)c1ccccc1

>  <Energy>  (30) 
44.20204945398984

>  <Genealogy>  (30) 
CCN(CCC[N+](C)(C)C)c1ccccc1 (3D coordinates assigned)
CCN(CCC[N+](C)(C)C)c1ccccc1 (optimized conformer: 44.20204945398984 kcal/mol)

>  <smiles>  (30) 
CCN(CCC[N+](C)(C)C)c1ccccc1

>  <score_type>  (30) 
oracle

>  <origin>  (30) 
adg

>  <m_score__min__energy>  (30) 
-3.7999999999999998

>  <m_primary>  (30) 
energy

$$$$
30:0
     RDKit          3D

 48 51  0  0  0  0  0  0  0  0999 V2000
   60.9660   32.7870   50.1150 C   0  0  0  0  0  0  0  0  0  0  0  0
   62.3340   32.8000   49.6010 N   0  0  0  0  0  0  0  0  0  0  0  0
   63.3570   33.4910   50.1420 C   0  0  0  0  0  0  0  0  0  0  0  0
   64.4660   33.4080   49.3280 C   0  0  0  0  0  0  0  0  0  0  0  0
   64.1000   32.6490   48.2350 C   0  0  0  0  0  0  0  0  0  0  0  0
   62.7810   32.2810   48.4340 C   0  0  0  0  0  0  0  0  0  0  0  0
   61.9450   31.4890   47.4480 C   0  0  0  0  0  0  0  0  0  0  0  0
   60.8800   32.2760   46.7690 N   0  0  2  0  0  0  0  0  0  0  0  0
   61.1810   33.7300   46.7930 C   0  0  0  0  0  0  0  0  0  0  0  0
   60.1000   34.6350   46.1350 C   0  0  2  0  0  0  0  0  0  0  0  0
   58.9450   34.9540   47.1070 C   0  0  0  0  0  0  0  0  0  0  0  0
   57.8610   33.8640   47.0980 C   0  0  0  0  0  0  0  0  0  0  0  0
   58.3690   32.5560   46.4570 C   0  0  2  0  0  0  0  0  0  0  0  0
   59.5300   31.9370   47.2870 C   0  0  0  0  0  0  0  0  0  0  0  0
   58.7970   32.7700   45.0470 N   0  0  0  0  0  0  0  0  0  0  0  0
   57.7030   32.5880   44.0730 C   0  0  0  0  0  0  0  0  0  0  0  0
   57.4970   31.1280   43.7910 C   0  0  0  0  0  0  0  0  0  0  0  0
   56.7020   30.6480   42.7370 C   0  0  0  0  0  0  0  0  0  0  0  0
   56.6410   29.2630   42.6780 C   0  0  0  0  0  0  0  0  0  0  0  0
   57.5720   28.6440   43.9320 S   0  0  0  0  0  0  0  0  0  0  0  0
   58.0650   30.1200   44.5640 C   0  0  0  0  0  0  0  0  0  0  0  0
   59.5280   34.0450   44.8270 C   0  0  0  0  0  0  0  0  0  0  0  0
   60.9875   32.7872   51.2148 H   0  0  0  0  0  0  0  0  0  0  0  0
   60.4319   33.6801   49.7585 H   0  0  0  0  0  0  0  0  0  0  0  0
   60.4489   31.8839   49.7585 H   0  0  0  0  0  0  0  0  0  0  0  0
   63.3131   34.0407   51.0938 H   0  0  0  0  0  0  0  0  0  0  0  0
   65.4519   33.8593   49.5135 H   0  0  0  0  0  0  0  0  0  0  0  0
   64.7329   32.3877   47.3741 H   0  0  0  0  0  0  0  0  0  0  0  0
   62.6163   31.0828   46.6770 H   0  0  0  0  0  0  0  0  0  0  0  0
   61.4337   30.7072   48.0289 H   0  0  0  0  0  0  0  0  0  0  0  0
   60.9360   31.9570   45.7730 H   0  0  0  0  0  0  0  0  0  0  0  0
   61.2916   34.0385   47.8430 H   0  0  0  0  0  0  0  0  0  0  0  0
   62.0977   33.8645   46.2001 H   0  0  0  0  0  0  0  0  0  0  0  0
   60.6231   35.5686   45.8807 H   0  0  0  0  0  0  0  0  0  0  0  0
   59.3524   35.0402   48.1252 H   0  0  0  0  0  0  0  0  0  0  0  0
   58.4796   35.8959   46.7811 H   0  0  0  0  0  0  0  0  0  0  0  0
   57.5553   33.6573   48.1343 H   0  0  0  0  0  0  0  0  0  0  0  0
   57.0128   34.2303   46.5011 H   0  0  0  0  0  0  0  0  0  0  0  0
   57.5279   31.8471   46.4545 H   0  0  0  0  0  0  0  0  0  0  0  0
   59.4522   32.3044   48.3209 H   0  0  0  0  0  0  0  0  0  0  0  0
   59.4253   30.8440   47.2214 H   0  0  0  0  0  0  0  0  0  0  0  0
   56.7756   33.0129   44.4847 H   0  0  0  0  0  0  0  0  0  0  0  0
   57.9676   33.1005   43.1363 H   0  0  0  0  0  0  0  0  0  0  0  0
   56.1788   31.3060   42.0275 H   0  0  0  0  0  0  0  0  0  0  0  0
   56.0802   28.6727   41.9384 H   0  0  0  0  0  0  0  0  0  0  0  0
   58.7210   30.2643   45.4351 H   0  0  0  0  0  0  0  0  0  0  0  0
   60.3595   33.8589   44.1313 H   0  0  0  0  0  0  0  0  0  0  0  0
   58.8121   34.7732   44.4181 H   0  0  0  0  0  0  0  0  0  0  0  0
  1  2  1  0
  2  3  1  0
  3  4  2  0
  4  5  1  0
  5  6  2  0
  6  7  1  0
  7  8  1  0
  8  9  1  0
  9 10  1  0
 10 11  1  0
 11 12  1  0
 12 13  1  0
 13 14  1  0
 13 15  1  0
 15 16  1  0
 16 17  1  0
 17 18  1  0
 18 19  2  0
 19 20  1  0
 20 21  1  0
 15 22  1  0
  6  2  1  0
 14  8  1  0
 21 17  2  0
 22 10  1  0
  1 23  1  0
  1 24  1  0
  1 25  1  0
  3 26  1  0
  4 27  1  0
  5 28  1  0
  7 29  1  0
  7 30  1  0
  8 31  1  6
  9 32  1  0
  9 33  1  0
 10 34  1  6
 11 35  1  0
 11 36  1  0
 12 37  1  0
 12 38  1  0
 13 39  1  6
 14 40  1  0
 14 41  1  0
 16 42  1  0
 16 43  1  0
 18 44  1  0
 19 45  1  0
 21 46  1  0
 22 47  1  0
 22 48  1  0
M  CHG  1   8   1
M  END
>  <UniqueID>  (31) 
31

>  <SMILES>  (31) 
Cn1cccc1C[N@H+]1CC2CC[C@H](CN2Cc2ccsc2)C1

>  <Energy>  (31) 
122.64083910060275

>  <Genealogy>  (31) 
Cn1cccc1C[NH+]1CC2CCC(C1)N(Cc1ccsc1)C2 (protonated)
Cn1cccc1C[N@H+]1CC2CC[C@H](CN2Cc2ccsc2)C1 (chirality)
Cn1cccc1C[N@H+]1CC2CC[C@H](CN2Cc2ccsc2)C1 (3D coordinates assigned)
Cn1cccc1C[N@H+]1CC2CC[C@H](CN2Cc2ccsc2)C1 (nonaromatic ring conformer: 122.64083910060275 kcal/mol)

>  <smiles>  (31) 
Cn1cccc1CN1CC2CCC(C1)N(Cc1ccsc1)C2

>  <score_type>  (31) 
oracle

>  <origin>  (31) 
adg

>  <m_score__min__energy>  (31) 
-4.5899999999999999

>  <m_primary>  (31) 
energy

$$$$
31:0
     RDKit          3D

 46 49  0  0  0  0  0  0  0  0999 V2000
   63.4020   31.9640   47.1990 C   0  0  0  0  0  0  0  0  0  0  0  0
   62.8540   33.3870   47.2510 C   0  0  0  0  0  0  0  0  0  0  0  0
   62.1420   33.6180   48.5150 N   0  0  0  0  0  0  0  0  0  0  0  0
   60.7600   33.1120   48.4560 C   0  0  0  0  0  0  0  0  0  0  0  0
   60.0290   33.5780   47.2090 C   0  0  0  0  0  0  0  0  0  0  0  0
   60.0080   34.9450   46.8620 C   0  0  0  0  0  0  0  0  0  0  0  0
   59.3280   35.3830   45.7280 C   0  0  0  0  0  0  0  0  0  0  0  0
   58.6710   34.4700   44.9090 C   0  0  0  0  0  0  0  0  0  0  0  0
   58.7000   33.1010   45.2040 C   0  0  0  0  0  0  0  0  0  0  0  0
   59.4030   32.6410   46.3410 C   0  0  0  0  0  0  0  0  0  0  0  0
   59.4750   31.2270   46.5940 N   0  0  0  0  0  0  0  0  0  0  0  0
   58.6880   30.2930   45.8450 C   0  0  0  0  0  0  0  0  0  0  0  0
   58.6450   28.9440   46.2330 C   0  0  0  0  0  0  0  0  0  0  0  0
   57.8640   28.0170   45.5210 C   0  0  0  0  0  0  0  0  0  0  0  0
   57.8190   26.5920   45.9380 C   0  0  0  0  0  0  0  0  0  0  0  0
   58.8890   25.7250   45.6460 C   0  0  0  0  0  0  0  0  0  0  0  0
   58.8440   24.3840   46.0390 C   0  0  0  0  0  0  0  0  0  0  0  0
   57.7320   23.8930   46.7270 C   0  0  0  0  0  0  0  0  0  0  0  0
   57.6890   22.5590   47.1170 O   0  0  0  0  0  0  0  0  0  0  0  0
   56.6620   24.7420   47.0230 C   0  0  0  0  0  0  0  0  0  0  0  0
   56.7030   26.0840   46.6310 C   0  0  0  0  0  0  0  0  0  0  0  0
   57.1290   28.4590   44.4100 C   0  0  0  0  0  0  0  0  0  0  0  0
   57.1760   29.7980   44.0160 C   0  0  0  0  0  0  0  0  0  0  0  0
   57.9480   30.7240   44.7320 C   0  0  0  0  0  0  0  0  0  0  0  0
   58.0270   32.1480   44.2450 C   0  0  0  0  0  0  0  0  0  0  0  0
   63.5464   31.5890   48.2230 H   0  0  0  0  0  0  0  0  0  0  0  0
   62.6892   31.3157   46.6683 H   0  0  0  0  0  0  0  0  0  0  0  0
   64.3655   31.9613   46.6683 H   0  0  0  0  0  0  0  0  0  0  0  0
   63.6882   34.0994   47.1700 H   0  0  0  0  0  0  0  0  0  0  0  0
   62.1520   33.5287   46.4161 H   0  0  0  0  0  0  0  0  0  0  0  0
   62.6400   33.0820   49.2640 H   0  0  0  0  0  0  0  0  0  0  0  0
   60.7853   32.0123   48.4612 H   0  0  0  0  0  0  0  0  0  0  0  0
   60.2198   33.5052   49.3298 H   0  0  0  0  0  0  0  0  0  0  0  0
   60.5352   35.6742   47.4948 H   0  0  0  0  0  0  0  0  0  0  0  0
   59.3103   36.4543   45.4791 H   0  0  0  0  0  0  0  0  0  0  0  0
   58.1247   34.8260   44.0231 H   0  0  0  0  0  0  0  0  0  0  0  0
   60.1120   30.8490   47.3280 H   0  0  0  0  0  0  0  0  0  0  0  0
   59.2286   28.6092   47.1032 H   0  0  0  0  0  0  0  0  0  0  0  0
   59.7675   26.1056   45.1043 H   0  0  0  0  0  0  0  0  0  0  0  0
   59.6854   23.7148   45.8061 H   0  0  0  0  0  0  0  0  0  0  0  0
   55.7867   24.3544   47.5648 H   0  0  0  0  0  0  0  0  0  0  0  0
   55.8576   26.7475   46.8656 H   0  0  0  0  0  0  0  0  0  0  0  0
   56.5112   27.7453   43.8453 H   0  0  0  0  0  0  0  0  0  0  0  0
   56.6030   30.1288   43.1372 H   0  0  0  0  0  0  0  0  0  0  0  0
   58.5896   32.1572   43.2998 H   0  0  0  0  0  0  0  0  0  0  0  0
   56.9904   32.4980   44.1317 H   0  0  0  0  0  0  0  0  0  0  0  0
  1  2  1  0
  2  3  1  0
  3  4  1  0
  4  5  1  0
  5  6  2  0
  6  7  1  0
  7  8  2  0
  8  9  1  0
  9 10  2  0
 10 11  1  0
 11 12  1  0
 12 13  2  0
 13 14  1  0
 14 15  1  0
 15 16  2  0
 16 17  1  0
 17 18  2  0
 18 19  1  0
 18 20  1  0
 20 21  2  0
 14 22  2  0
 22 23  1  0
 23 24  2  0
 24 25  1  0
 10  5  1  0
 24 12  1  0
 25  9  1  0
 21 15  1  0
  1 26  1  0
  1 27  1  0
  1 28  1  0
  2 29  1  0
  2 30  1  0
  3 31  1  0
  4 32  1  0
  4 33  1  0
  6 34  1  0
  7 35  1  0
  8 36  1  0
 11 37  1  0
 13 38  1  0
 16 39  1  0
 17 40  1  0
 20 41  1  0
 21 42  1  0
 22 43  1  0
 23 44  1  0
 25 45  1  0
 25 46  1  0
M  CHG  1  19  -1
M  END
>  <UniqueID>  (32) 
32

>  <SMILES>  (32) 
CCNCc1cccc2c1Nc1cc(-c3ccc([O-])cc3)ccc1C2

>  <Energy>  (32) 
59.57458782431785

>  <Genealogy>  (32) 
CCNCc1cccc2c1Nc1cc(-c3ccc([O-])cc3)ccc1C2 (protonated)
CCNCc1cccc2c1Nc1cc(-c3ccc([O-])cc3)ccc1C2 (3D coordinates assigned)
CCNCc1cccc2c1Nc1cc(-c3ccc([O-])cc3)ccc1C2 (nonaromatic ring conformer: 59.57458782431785 kcal/mol)

>  <smiles>  (32) 
CCNCc1cccc2c1Nc1cc(-c3ccc(O)cc3)ccc1C2

>  <score_type>  (32) 
oracle

>  <origin>  (32) 
adg

>  <m_score__min__energy>  (32) 
-9.9299999999999997

>  <m_primary>  (32) 
energy

$$$$
32:0
     RDKit          3D

 51 52  0  0  0  0  0  0  0  0999 V2000
   56.7280   30.4630   43.1980 C   0  0  0  0  0  0  0  0  0  0  0  0
   56.6230   31.0130   44.5080 O   0  0  0  0  0  0  0  0  0  0  0  0
   57.4200   32.0500   45.0130 C   0  0  0  0  0  0  0  0  0  0  0  0
   57.4990   33.2870   44.3440 C   0  0  0  0  0  0  0  0  0  0  0  0
   58.2670   34.3260   44.8590 C   0  0  0  0  0  0  0  0  0  0  0  0
   58.9770   34.1520   46.0410 C   0  0  0  0  0  0  0  0  0  0  0  0
   58.9350   32.9280   46.7230 C   0  0  0  0  0  0  0  0  0  0  0  0
   59.7130   32.7950   48.0130 C   0  0  0  0  0  0  0  0  0  0  0  0
   58.7970   32.7150   49.1670 N   0  0  0  0  0  0  0  0  0  0  0  0
   58.6270   31.3330   49.6600 C   0  0  0  0  0  0  0  0  0  0  0  0
   58.5030   31.4110   51.1750 C   0  0  2  0  0  0  0  0  0  0  0  0
   57.1030   31.6670   51.5310 N   0  0  0  0  0  0  0  0  0  0  0  0
   56.2120   30.6440   51.9940 C   0  0  0  0  0  0  0  0  0  0  0  0
   54.7850   30.9820   52.2850 C   0  0  0  0  0  0  0  0  0  0  0  0
   56.6160   29.4590   52.1460 O   0  0  0  0  0  0  0  0  0  0  0  0
   59.4200   32.5900   51.5020 C   0  0  2  0  0  0  0  0  0  0  0  0
   59.3260   33.2610   52.9090 C   0  0  0  0  0  0  0  0  0  0  0  0
   58.7770   32.2710   53.9460 C   0  0  0  0  0  0  0  0  0  0  0  0
   58.5470   34.5860   52.9880 C   0  0  0  0  0  0  0  0  0  0  0  0
   59.2670   33.5280   50.3050 C   0  0  0  0  0  0  0  0  0  0  0  0
   58.1560   31.8620   46.2160 C   0  0  0  0  0  0  0  0  0  0  0  0
   58.1540   30.6530   46.9400 O   0  0  0  0  0  0  0  0  0  0  0  0
   58.6430   29.3920   46.4980 C   0  0  0  0  0  0  0  0  0  0  0  0
   56.9339   29.3847   43.2685 H   0  0  0  0  0  0  0  0  0  0  0  0
   55.7834   30.6214   42.6570 H   0  0  0  0  0  0  0  0  0  0  0  0
   57.5478   30.9582   42.6570 H   0  0  0  0  0  0  0  0  0  0  0  0
   56.9471   33.4330   43.4037 H   0  0  0  0  0  0  0  0  0  0  0  0
   58.3126   35.2888   44.3289 H   0  0  0  0  0  0  0  0  0  0  0  0
   59.5766   34.9812   46.4445 H   0  0  0  0  0  0  0  0  0  0  0  0
   60.3249   31.8818   47.9734 H   0  0  0  0  0  0  0  0  0  0  0  0
   60.3560   33.6796   48.1317 H   0  0  0  0  0  0  0  0  0  0  0  0
   57.7180   30.8878   49.2293 H   0  0  0  0  0  0  0  0  0  0  0  0
   59.4820   30.7052   49.3687 H   0  0  0  0  0  0  0  0  0  0  0  0
   58.7813   30.4995   51.7242 H   0  0  0  0  0  0  0  0  0  0  0  0
   56.7150   32.6260   51.3770 H   0  0  0  0  0  0  0  0  0  0  0  0
   54.6315   31.0184   53.3736 H   0  0  0  0  0  0  0  0  0  0  0  0
   54.5438   31.9621   51.8477 H   0  0  0  0  0  0  0  0  0  0  0  0
   54.1298   30.2142   51.8477 H   0  0  0  0  0  0  0  0  0  0  0  0
   60.4483   32.2216   51.6320 H   0  0  0  0  0  0  0  0  0  0  0  0
   60.3665   33.5376   53.1345 H   0  0  0  0  0  0  0  0  0  0  0  0
   58.9856   32.6472   54.9584 H   0  0  0  0  0  0  0  0  0  0  0  0
   57.6906   32.1638   53.8113 H   0  0  0  0  0  0  0  0  0  0  0  0
   59.2615   31.2927   53.8113 H   0  0  0  0  0  0  0  0  0  0  0  0
   58.3884   34.8558   54.0425 H   0  0  0  0  0  0  0  0  0  0  0  0
   59.1222   35.3798   52.4890 H   0  0  0  0  0  0  0  0  0  0  0  0
   57.5737   34.4694   52.4890 H   0  0  0  0  0  0  0  0  0  0  0  0
   58.5327   34.3142   50.5345 H   0  0  0  0  0  0  0  0  0  0  0  0
   60.2245   34.0143   50.0667 H   0  0  0  0  0  0  0  0  0  0  0  0
   58.8855   28.7667   47.3699 H   0  0  0  0  0  0  0  0  0  0  0  0
   57.8734   28.8925   45.8912 H   0  0  0  0  0  0  0  0  0  0  0  0
   59.5482   29.5420   45.8912 H   0  0  0  0  0  0  0  0  0  0  0  0
  1  2  1  0
  2  3  1  0
  3  4  2  0
  4  5  1  0
  5  6  2  0
  6  7  1  0
  7  8  1  0
  8  9  1  0
  9 10  1  0
 10 11  1  0
 11 12  1  0
 12 13  1  0
 13 14  1  0
 13 15  2  0
 11 16  1  0
 16 17  1  0
 17 18  1  0
 17 19  1  0
 16 20  1  0
  7 21  2  0
 21 22  1  0
 22 23  1  0
 21  3  1  0
 20  9  1  0
  1 24  1  0
  1 25  1  0
  1 26  1  0
  4 27  1  0
  5 28  1  0
  6 29  1  0
  8 30  1  0
  8 31  1  0
 10 32  1  0
 10 33  1  0
 11 34  1  1
 12 35  1  0
 14 36  1  0
 14 37  1  0
 14 38  1  0
 16 39  1  6
 17 40  1  0
 18 41  1  0
 18 42  1  0
 18 43  1  0
 19 44  1  0
 19 45  1  0
 19 46  1  0
 20 47  1  0
 20 48  1  0
 23 49  1  0
 23 50  1  0
 23 51  1  0
M  END
>  <UniqueID>  (33) 
33

>  <SMILES>  (33) 
COc1cccc(CN2C[C@H](NC(C)=O)[C@H](C(C)C)C2)c1OC

>  <Energy>  (33) 
55.63830690776063

>  <Genealogy>  (33) 
COc1cccc(CN2C[C@H](NC(C)=O)[C@H](C(C)C)C2)c1OC (chirality)
COc1cccc(CN2C[C@H](NC(C)=O)[C@H](C(C)C)C2)c1OC (3D coordinates assigned)
COc1cccc(CN2C[C@H](NC(C)=O)[C@H](C(C)C)C2)c1OC (nonaromatic ring conformer: 55.63830690776063 kcal/mol)

>  <smiles>  (33) 
COc1cccc(CN2CC(NC(C)=O)C(C(C)C)C2)c1OC

>  <score_type>  (33) 
oracle

>  <origin>  (33) 
adg

>  <m_score__min__energy>  (33) 
-7.8700000000000001

>  <m_primary>  (33) 
energy

$$$$
33:0
     RDKit          3D

 38 40  0  0  0  0  0  0  0  0999 V2000
   61.5810   31.5080   47.3470 C   0  0  0  0  0  0  0  0  0  0  0  0
   60.2200   31.6730   47.0760 O   0  0  0  0  0  0  0  0  0  0  0  0
   59.6260   32.6970   46.3920 C   0  0  0  0  0  0  0  0  0  0  0  0
   60.1180   33.9810   46.4950 C   0  0  0  0  0  0  0  0  0  0  0  0
   59.5380   35.0070   45.8210 C   0  0  0  0  0  0  0  0  0  0  0  0
   58.4430   34.7520   45.0240 C   0  0  0  0  0  0  0  0  0  0  0  0
   57.9560   33.4580   44.9270 C   0  0  0  0  0  0  0  0  0  0  0  0
   58.5160   32.3910   45.5960 C   0  0  0  0  0  0  0  0  0  0  0  0
   58.0100   31.0270   45.5010 C   0  0  0  0  0  0  0  0  0  0  0  0
   56.8390   30.8380   44.8740 N   0  0  0  0  0  0  0  0  0  0  0  0
   56.2740   29.6300   44.7230 C   0  0  0  0  0  0  0  0  0  0  0  0
   55.1290   29.5030   44.1020 N   0  0  0  0  0  0  0  0  0  0  0  0
   56.9060   28.5140   45.2260 C   0  0  0  0  0  0  0  0  0  0  0  0
   58.1160   28.7310   45.8710 C   0  0  0  0  0  0  0  0  0  0  0  0
   58.7870   27.6100   46.3960 N   0  0  0  0  0  0  0  0  0  0  0  0
   60.0940   27.7070   47.0480 C   0  0  0  0  0  0  0  0  0  0  0  0
   60.6780   26.3310   46.9760 C   0  0  0  0  0  0  0  0  0  0  0  0
   59.7240   25.5260   46.1200 C   0  0  0  0  0  0  0  0  0  0  0  0
   58.4010   26.2080   46.4240 C   0  0  0  0  0  0  0  0  0  0  0  0
   58.6540   29.9600   46.0050 N   0  0  0  0  0  0  0  0  0  0  0  0
   61.7384   31.4889   48.4355 H   0  0  0  0  0  0  0  0  0  0  0  0
   61.9298   30.5610   46.9094 H   0  0  0  0  0  0  0  0  0  0  0  0
   62.1460   32.3442   46.9094 H   0  0  0  0  0  0  0  0  0  0  0  0
   60.9929   34.1768   47.1323 H   0  0  0  0  0  0  0  0  0  0  0  0
   59.9368   36.0283   45.9099 H   0  0  0  0  0  0  0  0  0  0  0  0
   57.9592   35.5693   44.4690 H   0  0  0  0  0  0  0  0  0  0  0  0
   57.0813   33.2739   44.2859 H   0  0  0  0  0  0  0  0  0  0  0  0
   54.3450   28.9610   44.5130 H   0  0  0  0  0  0  0  0  0  0  0  0
   56.4758   27.5069   45.1223 H   0  0  0  0  0  0  0  0  0  0  0  0
   60.7361   28.4257   46.5177 H   0  0  0  0  0  0  0  0  0  0  0  0
   60.0077   28.0606   48.0860 H   0  0  0  0  0  0  0  0  0  0  0  0
   61.6757   26.3614   46.5138 H   0  0  0  0  0  0  0  0  0  0  0  0
   60.7990   25.8883   47.9757 H   0  0  0  0  0  0  0  0  0  0  0  0
   59.9796   25.6012   45.0528 H   0  0  0  0  0  0  0  0  0  0  0  0
   59.7324   24.4464   46.3305 H   0  0  0  0  0  0  0  0  0  0  0  0
   57.6466   25.9831   45.6557 H   0  0  0  0  0  0  0  0  0  0  0  0
   57.9373   25.8883   47.3689 H   0  0  0  0  0  0  0  0  0  0  0  0
   59.5630   30.0840   46.4950 H   0  0  0  0  0  0  0  0  0  0  0  0
  1  2  1  0
  2  3  1  0
  3  4  2  0
  4  5  1  0
  5  6  2  0
  6  7  1  0
  7  8  2  0
  8  9  1  0
  9 10  2  0
 10 11  1  0
 11 12  2  3
 11 13  1  0
 13 14  2  0
 14 15  1  0
 15 16  1  0
 16 17  1  0
 17 18  1  0
 18 19  1  0
 14 20  1  0
  8  3  1  0
 20  9  1  0
 19 15  1  0
  1 21  1  0
  1 22  1  0
  1 23  1  0
  4 24  1  0
  5 25  1  0
  6 26  1  0
  7 27  1  0
 12 28  1  0
 13 29  1  0
 16 30  1  0
 16 31  1  0
 17 32  1  0
 17 33  1  0
 18 34  1  0
 18 35  1  0
 19 36  1  0
 19 37  1  0
 20 38  1  0
M  END
>  <smiles>  (34) 
COc1ccccc1-c1nc(=N)cc(N2CCCC2)[nH]1

>  <score_type>  (34) 
oracle

>  <origin>  (34) 
adg

>  <m_score__min__energy>  (34) 
-6.7599999999999998

>  <m_primary>  (34) 
energy

$$$$
34:0
     RDKit          3D

 44 46  0  0  0  0  0  0  0  0999 V2000
   58.3650   32.0500   49.7550 C   0  0  0  0  0  0  0  0  0  0  0  0
   58.9930   33.1890   49.1730 O   0  0  0  0  0  0  0  0  0  0  0  0
   58.8690   33.5680   47.8270 C   0  0  0  0  0  0  0  0  0  0  0  0
   57.6480   33.4490   47.1330 C   0  0  0  0  0  0  0  0  0  0  0  0
   57.5510   33.8460   45.7970 C   0  0  0  0  0  0  0  0  0  0  0  0
   58.6650   34.3670   45.1390 C   0  0  0  0  0  0  0  0  0  0  0  0
   59.8810   34.4900   45.8120 C   0  0  0  0  0  0  0  0  0  0  0  0
   59.9970   34.0870   47.1550 C   0  0  0  0  0  0  0  0  0  0  0  0
   61.3300   34.2160   47.8640 C   0  0  0  0  0  0  0  0  0  0  0  0
   61.5150   33.1830   48.9080 N   0  0  2  0  0  0  0  0  0  0  0  0
   62.4430   33.6750   49.9390 C   0  0  0  0  0  0  0  0  0  0  0  0
   62.1380   31.6930   48.2300 S   0  0  0  0  0  0  0  0  0  0  0  0
   62.8880   30.9210   49.2810 O   0  0  0  0  0  0  0  0  0  0  0  0
   63.0770   31.9960   47.0960 O   0  0  0  0  0  0  0  0  0  0  0  0
   60.8200   30.7080   47.5960 C   0  0  0  0  0  0  0  0  0  0  0  0
   60.4180   29.5610   48.2930 C   0  0  0  0  0  0  0  0  0  0  0  0
   59.3890   28.7560   47.7960 C   0  0  0  0  0  0  0  0  0  0  0  0
   58.7530   29.0890   46.5910 C   0  0  0  0  0  0  0  0  0  0  0  0
   57.7190   28.2870   46.0810 C   0  0  0  0  0  0  0  0  0  0  0  0
   57.0960   28.6280   44.8780 C   0  0  0  0  0  0  0  0  0  0  0  0
   57.4990   29.7670   44.1750 C   0  0  0  0  0  0  0  0  0  0  0  0
   58.5270   30.5740   44.6720 C   0  0  0  0  0  0  0  0  0  0  0  0
   59.1610   30.2440   45.8790 C   0  0  0  0  0  0  0  0  0  0  0  0
   60.1940   31.0450   46.3880 C   0  0  0  0  0  0  0  0  0  0  0  0
   58.4079   32.1279   50.8514 H   0  0  0  0  0  0  0  0  0  0  0  0
   57.3146   32.0051   49.4314 H   0  0  0  0  0  0  0  0  0  0  0  0
   58.8877   31.1378   49.4314 H   0  0  0  0  0  0  0  0  0  0  0  0
   56.7653   33.0407   47.6469 H   0  0  0  0  0  0  0  0  0  0  0  0
   56.5943   33.7475   45.2631 H   0  0  0  0  0  0  0  0  0  0  0  0
   58.5848   34.6814   44.0879 H   0  0  0  0  0  0  0  0  0  0  0  0
   60.7552   34.9050   45.2889 H   0  0  0  0  0  0  0  0  0  0  0  0
   62.1360   34.1170   47.1220 H   0  0  0  0  0  0  0  0  0  0  0  0
   61.3547   35.1993   48.3564 H   0  0  0  0  0  0  0  0  0  0  0  0
   60.6010   32.9730   49.3720 H   0  0  0  0  0  0  0  0  0  0  0  0
   62.0323   33.4573   50.9360 H   0  0  0  0  0  0  0  0  0  0  0  0
   63.4158   33.1742   49.8258 H   0  0  0  0  0  0  0  0  0  0  0  0
   62.5744   34.7612   49.8258 H   0  0  0  0  0  0  0  0  0  0  0  0
   60.9150   29.2924   49.2368 H   0  0  0  0  0  0  0  0  0  0  0  0
   59.0772   27.8591   48.3513 H   0  0  0  0  0  0  0  0  0  0  0  0
   57.3992   27.3889   46.6297 H   0  0  0  0  0  0  0  0  0  0  0  0
   56.2856   27.9980   44.4826 H   0  0  0  0  0  0  0  0  0  0  0  0
   57.0057   30.0294   43.2275 H   0  0  0  0  0  0  0  0  0  0  0  0
   58.8393   31.4698   44.1152 H   0  0  0  0  0  0  0  0  0  0  0  0
   60.5142   31.9415   45.8368 H   0  0  0  0  0  0  0  0  0  0  0  0
  1  2  1  0
  2  3  1  0
  3  4  2  0
  4  5  1  0
  5  6  2  0
  6  7  1  0
  7  8  2  0
  8  9  1  0
  9 10  1  0
 10 11  1  0
 10 12  1  0
 12 13  2  0
 12 14  2  0
 12 15  1  0
 15 16  2  0
 16 17  1  0
 17 18  2  0
 18 19  1  0
 19 20  2  0
 20 21  1  0
 21 22  2  0
 22 23  1  0
 23 24  2  0
  8  3  1  0
 24 15  1  0
 23 18  1  0
  1 25  1  0
  1 26  1  0
  1 27  1  0
  4 28  1  0
  5 29  1  0
  6 30  1  0
  7 31  1  0
  9 32  1  0
  9 33  1  0
 10 34  1  1
 11 35  1  0
 11 36  1  0
 11 37  1  0
 16 38  1  0
 17 39  1  0
 19 40  1  0
 20 41  1  0
 21 42  1  0
 22 43  1  0
 24 44  1  0
M  CHG  1  10   1
M  END
>  <UniqueID>  (35) 
34

>  <SMILES>  (35) 
COc1ccccc1C[N@H+](C)S(=O)(=O)c1ccc2ccccc2c1

>  <Energy>  (35) 
48.23682535795638

>  <Genealogy>  (35) 
COc1ccccc1C[NH+](C)S(=O)(=O)c1ccc2ccccc2c1 (protonated)
COc1ccccc1C[N@H+](C)S(=O)(=O)c1ccc2ccccc2c1 (chirality)
COc1ccccc1C[N@H+](C)S(=O)(=O)c1ccc2ccccc2c1 (3D coordinates assigned)
COc1ccccc1C[N@H+](C)S(=O)(=O)c1ccc2ccccc2c1 (optimized conformer: 48.23682535795638 kcal/mol)

>  <smiles>  (35) 
COc1ccccc1CN(C)S(=O)(=O)c1ccc2ccccc2c1

>  <score_type>  (35) 
oracle

>  <origin>  (35) 
adg

>  <m_score__min__energy>  (35) 
-7.8600000000000003

>  <m_primary>  (35) 
energy

$$$$
35:0
     RDKit          3D

 54 55  0  0  0  0  0  0  0  0999 V2000
   57.2879   32.9626   40.0801 H   0  0  0  0  0  0  0  0  0  0  0  0
   57.3600   32.4230   41.0360 C   0  0  0  0  0  0  0  0  0  0  0  0
   57.4390   31.8320   42.0830 C   0  0  0  0  0  0  0  0  0  0  0  0
   57.5350   31.1150   43.3610 C   0  0  0  0  0  0  0  0  0  0  0  0
   58.5841   30.8411   43.5464 H   0  0  0  0  0  0  0  0  0  0  0  0
   57.1699   31.7675   44.1678 H   0  0  0  0  0  0  0  0  0  0  0  0
   56.7110   29.8910   43.3200 N   0  0  0  0  0  0  0  0  0  0  0  0
   55.5110   30.0660   44.1590 C   0  0  0  0  0  0  0  0  0  0  0  0
   55.7965   30.0244   45.2205 H   0  0  0  0  0  0  0  0  0  0  0  0
   55.0503   31.0408   43.9412 H   0  0  0  0  0  0  0  0  0  0  0  0
   54.7911   29.2633   43.9412 H   0  0  0  0  0  0  0  0  0  0  0  0
   57.4890   28.7140   43.7710 C   0  0  0  0  0  0  0  0  0  0  0  0
   56.8060   27.9815   44.2259 H   0  0  0  0  0  0  0  0  0  0  0  0
   57.9978   28.2702   42.9026 H   0  0  0  0  0  0  0  0  0  0  0  0
   58.5230   29.1220   44.7840 C   0  0  0  0  0  0  0  0  0  0  0  0
   59.5493   29.3379   44.4522 H   0  0  0  0  0  0  0  0  0  0  0  0
   58.2150   29.2270   46.0850 C   0  0  0  0  0  0  0  0  0  0  0  0
   57.5824   30.0616   46.4216 H   0  0  0  0  0  0  0  0  0  0  0  0
   58.7160   28.2270   47.0980 C   0  0  0  0  0  0  0  0  0  0  0  0
   57.9620   28.1180   47.8915 H   0  0  0  0  0  0  0  0  0  0  0  0
   58.8876   27.2738   46.5765 H   0  0  0  0  0  0  0  0  0  0  0  0
   59.9990   28.6490   47.7120 N   0  0  0  0  0  0  0  0  0  0  0  0
   60.6260   27.8100   47.7680 H   0  0  0  0  0  0  0  0  0  0  0  0
   60.6980   29.6770   46.8850 C   0  0  0  0  0  0  0  0  0  0  0  0
   61.7714   29.4380   46.8572 H   0  0  0  0  0  0  0  0  0  0  0  0
   60.2545   29.6563   45.8786 H   0  0  0  0  0  0  0  0  0  0  0  0
   60.5230   31.0960   47.4450 C   0  0  0  0  0  0  0  0  0  0  0  0
   61.0398   31.8089   46.7857 H   0  0  0  0  0  0  0  0  0  0  0  0
   59.4478   31.3233   47.4922 H   0  0  0  0  0  0  0  0  0  0  0  0
   61.0880   31.2030   48.8120 N   0  0  0  0  0  0  0  0  0  0  0  0
   60.5770   32.3980   49.5160 C   0  0  0  0  0  0  0  0  0  0  0  0
   59.4773   32.3760   49.5067 H   0  0  0  0  0  0  0  0  0  0  0  0
   60.9588   32.3820   50.5475 H   0  0  0  0  0  0  0  0  0  0  0  0
   61.0480   33.6690   48.8550 C   0  0  0  0  0  0  0  0  0  0  0  0
   62.1311   33.8523   48.7977 H   0  0  0  0  0  0  0  0  0  0  0  0
   60.2250   34.5870   48.3340 C   0  0  0  0  0  0  0  0  0  0  0  0
   60.2353   35.6006   48.7613 H   0  0  0  0  0  0  0  0  0  0  0  0
   59.3070   34.3080   47.2180 C   0  0  0  0  0  0  0  0  0  0  0  0
   58.2000   33.4720   47.4170 C   0  0  0  0  0  0  0  0  0  0  0  0
   58.0169   33.0302   48.4076 H   0  0  0  0  0  0  0  0  0  0  0  0
   57.3270   33.1980   46.3580 C   0  0  0  0  0  0  0  0  0  0  0  0
   56.4551   32.5469   46.5190 H   0  0  0  0  0  0  0  0  0  0  0  0
   57.5620   33.7510   45.0960 C   0  0  0  0  0  0  0  0  0  0  0  0
   56.8718   33.5395   44.2660 H   0  0  0  0  0  0  0  0  0  0  0  0
   58.6740   34.5730   44.8880 C   0  0  0  0  0  0  0  0  0  0  0  0
   58.8593   35.0054   43.8937 H   0  0  0  0  0  0  0  0  0  0  0  0
   59.5510   34.8460   45.9430 C   0  0  0  0  0  0  0  0  0  0  0  0
   60.4323   35.4823   45.7744 H   0  0  0  0  0  0  0  0  0  0  0  0
   60.9130   29.9700   49.6220 C   0  0  0  0  0  0  0  0  0  0  0  0
   61.8448   29.3866   49.5846 H   0  0  0  0  0  0  0  0  0  0  0  0
   60.6715   30.2741   50.6512 H   0  0  0  0  0  0  0  0  0  0  0  0
   59.7610   29.0950   49.1070 C   0  0  0  0  0  0  0  0  0  0  0  0
   59.6671   28.2104   49.7540 H   0  0  0  0  0  0  0  0  0  0  0  0
   58.8381   29.6932   49.1255 H   0  0  0  0  0  0  0  0  0  0  0  0
  1  2  1  0
  2  3  3  0
  3  4  1  0
  4  5  1  0
  4  6  1  0
  4  7  1  0
  7  8  1  0
  8  9  1  0
  8 10  1  0
  8 11  1  0
  7 12  1  0
 12 13  1  0
 12 14  1  0
 12 15  1  0
 15 16  1  0
 15 17  2  0
 17 18  1  0
 17 19  1  0
 19 20  1  0
 19 21  1  0
 19 22  1  0
 22 23  1  0
 22 24  1  0
 24 25  1  0
 24 26  1  0
 24 27  1  0
 27 28  1  0
 27 29  1  0
 27 30  1  0
 30 31  1  0
 31 32  1  0
 31 33  1  0
 31 34  1  0
 34 35  1  0
 34 36  2  0
 36 37  1  0
 36 38  1  0
 38 39  2  0
 39 40  1  0
 39 41  1  0
 41 42  1  0
 41 43  2  0
 43 44  1  0
 43 45  1  0
 45 46  1  0
 45 47  2  0
 47 48  1  0
 30 49  1  0
 49 50  1  0
 49 51  1  0
 49 52  1  0
 52 53  1  0
 52 54  1  0
 52 22  1  0
 47 38  1  0
M  CHG  1  22   1
M  END
>  <UniqueID>  (36) 
35

>  <SMILES>  (36) 
C#CCN(C)C/C=C/C[NH+]1CCN(C/C=C\c2ccccc2)CC1

>  <Energy>  (36) 
65.89935926800035

>  <Genealogy>  (36) 
C#CCN(C)CC=CC[NH+]1CCN(CC=Cc2ccccc2)CC1 (protonated)
C#CCN(C)C/C=C/C[NH+]1CCN(C/C=C\c2ccccc2)CC1 (cis-trans isomerization)
C#CCN(C)C/C=C/C[NH+]1CCN(C/C=C\c2ccccc2)CC1 (3D coordinates assigned)
C#CCN(C)C/C=C/C[NH+]1CCN(C/C=C\c2ccccc2)CC1 (nonaromatic ring conformer: 65.89935926800035 kcal/mol)

>  <smiles>  (36) 
C#CCN(C)CC=CCN1CCN(CC=Cc2ccccc2)CC1

>  <score_type>  (36) 
oracle

>  <origin>  (36) 
adg

>  <m_score__min__energy>  (36) 
-5.0300000000000002

>  <m_primary>  (36) 
energy

$$$$
36:0
     RDKit          3D

 53 55  0  0  0  0  0  0  0  0999 V2000
   60.4410   28.9800   45.2590 C   0  0  0  0  0  0  0  0  0  0  0  0
   59.6330   27.7060   45.4890 C   0  0  0  0  0  0  0  0  0  0  0  0
   58.7140   27.8480   46.7090 C   0  0  0  0  0  0  0  0  0  0  0  0
   57.3490   27.1880   46.4770 C   0  0  0  0  0  0  0  0  0  0  0  0
   56.6970   27.7260   45.3260 O   0  0  0  0  0  0  0  0  0  0  0  0
   56.3250   29.0670   45.2090 C   0  0  0  0  0  0  0  0  0  0  0  0
   55.1530   29.3820   44.8620 O   0  0  0  0  0  0  0  0  0  0  0  0
   57.2890   30.0840   45.4970 N   0  0  0  0  0  0  0  0  0  0  0  0
   57.6740   31.1220   44.5450 C   0  0  0  0  0  0  0  0  0  0  0  0
   58.2540   32.3020   45.2720 C   0  0  0  0  0  0  0  0  0  0  0  0
   57.5630   33.5200   45.3380 C   0  0  0  0  0  0  0  0  0  0  0  0
   58.1280   34.5910   46.0340 C   0  0  0  0  0  0  0  0  0  0  0  0
   59.3710   34.4430   46.6520 C   0  0  0  0  0  0  0  0  0  0  0  0
   60.0460   33.2160   46.5540 C   0  0  0  0  0  0  0  0  0  0  0  0
   61.3630   33.0050   47.1960 C   0  0  0  0  0  0  0  0  0  0  0  0
   62.4650   33.5840   46.6340 N   0  0  0  0  0  0  0  0  0  0  0  0
   63.7120   33.3700   47.1310 C   0  0  0  0  0  0  0  0  0  0  0  0
   63.8780   32.5470   48.2410 C   0  0  0  0  0  0  0  0  0  0  0  0
   62.7890   31.9960   48.8300 N   0  0  0  0  0  0  0  0  0  0  0  0
   61.5300   32.2090   48.3590 C   0  0  0  0  0  0  0  0  0  0  0  0
   60.3950   31.6590   49.1330 C   0  0  0  0  0  0  0  0  0  0  0  0
   60.0250   30.3090   49.0110 C   0  0  0  0  0  0  0  0  0  0  0  0
   58.9390   29.8050   49.7300 C   0  0  0  0  0  0  0  0  0  0  0  0
   58.1920   30.6500   50.5720 C   0  0  0  0  0  0  0  0  0  0  0  0
   57.0950   30.1920   51.3160 O   0  0  0  0  0  0  0  0  0  0  0  0
   56.3770   30.9830   52.2600 C   0  0  0  0  0  0  0  0  0  0  0  0
   58.5480   31.9990   50.6740 C   0  0  0  0  0  0  0  0  0  0  0  0
   59.6350   32.5040   49.9550 C   0  0  0  0  0  0  0  0  0  0  0  0
   59.4610   32.1830   45.8900 N   0  0  0  0  0  0  0  0  0  0  0  0
   60.7189   29.4181   46.2290 H   0  0  0  0  0  0  0  0  0  0  0  0
   61.3517   28.7391   44.6911 H   0  0  0  0  0  0  0  0  0  0  0  0
   59.8348   29.7011   44.6911 H   0  0  0  0  0  0  0  0  0  0  0  0
   59.0195   27.5039   44.5986 H   0  0  0  0  0  0  0  0  0  0  0  0
   60.3323   26.8770   45.6728 H   0  0  0  0  0  0  0  0  0  0  0  0
   59.1967   27.3717   47.5751 H   0  0  0  0  0  0  0  0  0  0  0  0
   58.5480   28.9206   46.8876 H   0  0  0  0  0  0  0  0  0  0  0  0
   57.4943   26.1072   46.3331 H   0  0  0  0  0  0  0  0  0  0  0  0
   56.7167   27.3843   47.3554 H   0  0  0  0  0  0  0  0  0  0  0  0
   58.4252   30.7178   43.8505 H   0  0  0  0  0  0  0  0  0  0  0  0
   56.7832   31.4461   43.9869 H   0  0  0  0  0  0  0  0  0  0  0  0
   56.5853   33.6311   44.8464 H   0  0  0  0  0  0  0  0  0  0  0  0
   57.5938   35.5506   46.0952 H   0  0  0  0  0  0  0  0  0  0  0  0
   59.8170   35.2794   47.2101 H   0  0  0  0  0  0  0  0  0  0  0  0
   62.3660   34.1860   45.7860 H   0  0  0  0  0  0  0  0  0  0  0  0
   64.5848   33.8445   46.6586 H   0  0  0  0  0  0  0  0  0  0  0  0
   64.8844   32.3455   48.6368 H   0  0  0  0  0  0  0  0  0  0  0  0
   60.5946   29.6446   48.3446 H   0  0  0  0  0  0  0  0  0  0  0  0
   58.6663   28.7433   49.6379 H   0  0  0  0  0  0  0  0  0  0  0  0
   56.6539   30.6780   53.2799 H   0  0  0  0  0  0  0  0  0  0  0  0
   56.6266   32.0443   52.1142 H   0  0  0  0  0  0  0  0  0  0  0  0
   55.2965   30.8370   52.1142 H   0  0  0  0  0  0  0  0  0  0  0  0
   57.9673   32.6682   51.3258 H   0  0  0  0  0  0  0  0  0  0  0  0
   59.8958   33.5697   50.0342 H   0  0  0  0  0  0  0  0  0  0  0  0
  1  2  1  0
  2  3  1  0
  3  4  1  0
  4  5  1  0
  5  6  1  0
  6  7  2  0
  6  8  1  0
  8  9  1  0
  9 10  1  0
 10 11  2  0
 11 12  1  0
 12 13  2  0
 13 14  1  0
 14 15  1  0
 15 16  2  0
 16 17  1  0
 17 18  2  0
 18 19  1  0
 19 20  2  0
 20 21  1  0
 21 22  2  0
 22 23  1  0
 23 24  2  0
 24 25  1  0
 25 26  1  0
 24 27  1  0
 27 28  2  0
 14 29  2  0
 29 10  1  0
 20 15  1  0
 28 21  1  0
  1 30  1  0
  1 31  1  0
  1 32  1  0
  2 33  1  0
  2 34  1  0
  3 35  1  0
  3 36  1  0
  4 37  1  0
  4 38  1  0
  9 39  1  0
  9 40  1  0
 11 41  1  0
 12 42  1  0
 13 43  1  0
 16 44  1  0
 17 45  1  0
 18 46  1  0
 22 47  1  0
 23 48  1  0
 26 49  1  0
 26 50  1  0
 26 51  1  0
 27 52  1  0
 28 53  1  0
M  CHG  2   8  -1  16   1
M  END
>  <UniqueID>  (37) 
36

>  <SMILES>  (37) 
CCCCOC(=O)[N-]Cc1cccc(-c2[nH+]ccnc2-c2ccc(OC)cc2)n1

>  <Energy>  (37) 
53.612591158636654

>  <Genealogy>  (37) 
CCCCOC(=O)[N-]Cc1cccc(-c2[nH+]ccnc2-c2ccc(OC)cc2)n1 (protonated)
CCCCOC(=O)[N-]Cc1cccc(-c2[nH+]ccnc2-c2ccc(OC)cc2)n1 (3D coordinates assigned)
CCCCOC(=O)[N-]Cc1cccc(-c2[nH+]ccnc2-c2ccc(OC)cc2)n1 (optimized conformer: 53.612591158636654 kcal/mol)

>  <smiles>  (37) 
CCCCOC(=O)NCc1cccc(-c2nccnc2-c2ccc(OC)cc2)n1

>  <score_type>  (37) 
oracle

>  <origin>  (37) 
adg

>  <m_score__min__energy>  (37) 
-7.9400000000000004

>  <m_primary>  (37) 
energy

$$$$
37:0
     RDKit          3D

 58 62  0  0  0  0  0  0  0  0999 V2000
   59.6600   34.5910   47.8620 C   0  0  0  0  0  0  0  0  0  0  0  0
   59.9680   34.5600   46.3610 C   0  0  0  0  0  0  0  0  0  0  0  0
   58.7490   34.5930   45.5320 N   0  0  0  0  0  0  0  0  0  0  0  0
   58.3550   33.2600   45.0520 C   0  0  0  0  0  0  0  0  0  0  0  0
   57.9190   32.3720   46.2250 C   0  0  0  0  0  0  0  0  0  0  0  0
   58.0180   30.9450   45.8580 N   0  0  0  0  0  0  0  0  0  0  0  0
   59.0550   30.1640   46.3480 C   0  0  0  0  0  0  0  0  0  0  0  0
   60.0910   30.6910   47.2600 C   0  0  0  0  0  0  0  0  0  0  0  0
   60.0110   30.4400   48.6370 C   0  0  0  0  0  0  0  0  0  0  0  0
   60.9660   30.9710   49.5080 C   0  0  0  0  0  0  0  0  0  0  0  0
   62.0150   31.7560   49.0080 C   0  0  0  0  0  0  0  0  0  0  0  0
   62.9680   32.3130   49.8750 C   0  0  0  0  0  0  0  0  0  0  0  0
   64.0050   33.1010   49.3660 C   0  0  0  0  0  0  0  0  0  0  0  0
   64.0990   33.3360   47.9910 C   0  0  0  0  0  0  0  0  0  0  0  0
   63.1580   32.7850   47.1170 C   0  0  0  0  0  0  0  0  0  0  0  0
   62.1110   31.9950   47.6150 C   0  0  0  0  0  0  0  0  0  0  0  0
   61.1530   31.4490   46.7490 C   0  0  0  0  0  0  0  0  0  0  0  0
   59.1210   28.8440   45.9250 C   0  0  0  0  0  0  0  0  0  0  0  0
   59.9860   27.8580   46.2220 N   0  0  0  0  0  0  0  0  0  0  0  0
   59.5840   26.7790   45.5530 N   0  0  0  0  0  0  0  0  0  0  0  0
   58.4950   27.0610   44.8390 N   0  0  0  0  0  0  0  0  0  0  0  0
   57.7610   26.1050   44.0110 C   0  0  0  0  0  0  0  0  0  0  0  0
   56.8650   25.1860   44.8610 C   0  0  1  0  0  0  0  0  0  0  0  0
   57.5970   23.9510   45.3830 C   0  0  0  0  0  0  0  0  0  0  0  0
   57.0630   23.8020   46.7730 C   0  0  0  0  0  0  0  0  0  0  0  0
   56.6470   25.2120   47.1280 C   0  0  0  0  0  0  0  0  0  0  0  0
   56.3120   25.9010   45.9460 O   0  0  0  0  0  0  0  0  0  0  0  0
   58.2070   28.3500   45.0730 C   0  0  0  0  0  0  0  0  0  0  0  0
   57.1980   29.0930   44.5730 N   0  0  0  0  0  0  0  0  0  0  0  0
   57.1050   30.4010   44.9620 C   0  0  0  0  0  0  0  0  0  0  0  0
   56.1750   31.1060   44.4850 O   0  0  0  0  0  0  0  0  0  0  0  0
   60.5969   34.4967   48.4306 H   0  0  0  0  0  0  0  0  0  0  0  0
   59.1709   35.5429   48.1164 H   0  0  0  0  0  0  0  0  0  0  0  0
   58.9911   33.7556   48.1164 H   0  0  0  0  0  0  0  0  0  0  0  0
   60.5884   35.4331   46.1104 H   0  0  0  0  0  0  0  0  0  0  0  0
   60.4912   33.6163   46.1473 H   0  0  0  0  0  0  0  0  0  0  0  0
   58.9050   35.2200   44.7080 H   0  0  0  0  0  0  0  0  0  0  0  0
   57.5182   33.3627   44.3455 H   0  0  0  0  0  0  0  0  0  0  0  0
   59.2174   32.7926   44.5541 H   0  0  0  0  0  0  0  0  0  0  0  0
   58.5696   32.5694   47.0898 H   0  0  0  0  0  0  0  0  0  0  0  0
   56.8734   32.6029   46.4766 H   0  0  0  0  0  0  0  0  0  0  0  0
   59.1922   29.8219   49.0338 H   0  0  0  0  0  0  0  0  0  0  0  0
   60.8948   30.7729   50.5877 H   0  0  0  0  0  0  0  0  0  0  0  0
   62.8990   32.1292   50.9573 H   0  0  0  0  0  0  0  0  0  0  0  0
   64.7487   33.5371   50.0492 H   0  0  0  0  0  0  0  0  0  0  0  0
   64.9165   33.9568   47.5957 H   0  0  0  0  0  0  0  0  0  0  0  0
   63.2384   32.9712   46.0359 H   0  0  0  0  0  0  0  0  0  0  0  0
   61.2354   31.6162   45.6649 H   0  0  0  0  0  0  0  0  0  0  0  0
   60.8140   27.9000   46.8570 H   0  0  0  0  0  0  0  0  0  0  0  0
   57.1306   26.6594   43.3002 H   0  0  0  0  0  0  0  0  0  0  0  0
   58.4928   25.4768   43.4820 H   0  0  0  0  0  0  0  0  0  0  0  0
   56.0644   24.8335   44.1940 H   0  0  0  0  0  0  0  0  0  0  0  0
   57.3629   23.0660   44.7731 H   0  0  0  0  0  0  0  0  0  0  0  0
   58.6919   24.0508   45.3489 H   0  0  0  0  0  0  0  0  0  0  0  0
   56.2019   23.1179   46.7949 H   0  0  0  0  0  0  0  0  0  0  0  0
   57.7936   23.3747   47.4756 H   0  0  0  0  0  0  0  0  0  0  0  0
   55.7748   25.1820   47.7975 H   0  0  0  0  0  0  0  0  0  0  0  0
   57.4746   25.7273   47.6375 H   0  0  0  0  0  0  0  0  0  0  0  0
  1  2  1  0
  2  3  1  0
  3  4  1  0
  4  5  1  0
  5  6  1  0
  6  7  1  0
  7  8  1  0
  8  9  2  0
  9 10  1  0
 10 11  2  0
 11 12  1  0
 12 13  2  0
 13 14  1  0
 14 15  2  0
 15 16  1  0
 16 17  2  0
  7 18  2  0
 18 19  1  0
 19 20  2  0
 20 21  1  0
 21 22  1  0
 22 23  1  0
 23 24  1  0
 24 25  1  0
 25 26  1  0
 26 27  1  0
 21 28  1  0
 28 29  2  0
 29 30  1  0
 30 31  2  0
 30  6  1  0
 17  8  1  0
 28 18  1  0
 16 11  1  0
 27 23  1  0
  1 32  1  0
  1 33  1  0
  1 34  1  0
  2 35  1  0
  2 36  1  0
  3 37  1  0
  4 38  1  0
  4 39  1  0
  5 40  1  0
  5 41  1  0
  9 42  1  0
 10 43  1  0
 12 44  1  0
 13 45  1  0
 14 46  1  0
 15 47  1  0
 17 48  1  0
 19 49  1  0
 22 50  1  0
 22 51  1  0
 23 52  1  6
 24 53  1  0
 24 54  1  0
 25 55  1  0
 25 56  1  0
 26 57  1  0
 26 58  1  0
M  CHG  1  19   1
M  END
>  <UniqueID>  (38) 
37

>  <SMILES>  (38) 
CCNCCn1c(-c2ccc3ccccc3c2)c2[nH+]nn(C[C@H]3CCCO3)c2nc1=O

>  <Energy>  (38) 
117.04979290759682

>  <Genealogy>  (38) 
CCNCCn1c(-c2ccc3ccccc3c2)c2[nH+]nn(CC3CCCO3)c2nc1=O (protonated)
CCNCCn1c(-c2ccc3ccccc3c2)c2[nH+]nn(C[C@H]3CCCO3)c2nc1=O (chirality)
CCNCCn1c(-c2ccc3ccccc3c2)c2[nH+]nn(C[C@H]3CCCO3)c2nc1=O (3D coordinates assigned)
CCNCCn1c(-c2ccc3ccccc3c2)c2[nH+]nn(C[C@H]3CCCO3)c2nc1=O (nonaromatic ring conformer: 117.04979290759682 kcal/mol)

>  <smiles>  (38) 
CCNCCn1c(-c2ccc3ccccc3c2)c2nnn(CC3CCCO3)c2nc1=O

>  <score_type>  (38) 
oracle

>  <origin>  (38) 
adg

>  <m_score__min__energy>  (38) 
-7.7999999999999998

>  <m_primary>  (38) 
energy

$$$$
38:0
     RDKit          3D

 70 72  0  0  0  0  0  0  0  0999 V2000
   56.5620   30.0500   44.1210 C   0  0  0  0  0  0  0  0  0  0  0  0
   57.1040   29.1830   45.2650 C   0  0  0  0  0  0  0  0  0  0  0  0
   58.1590   29.8410   46.0790 N   0  0  0  0  0  0  0  0  0  0  0  0
   59.3470   30.2550   45.2930 C   0  0  0  0  0  0  0  0  0  0  0  0
   60.1850   29.0550   44.8480 C   0  0  0  0  0  0  0  0  0  0  0  0
   58.5370   29.0220   47.2540 C   0  0  0  0  0  0  0  0  0  0  0  0
   59.7030   29.6730   48.0220 C   0  0  0  0  0  0  0  0  0  0  0  0
   60.3980   28.7590   49.0660 C   0  0  0  0  0  0  0  0  0  0  0  0
   60.5690   29.3040   50.4420 N   0  0  0  0  0  0  0  0  0  0  0  0
   59.2990   29.5090   51.1960 C   0  0  0  0  0  0  0  0  0  0  0  0
   58.8940   30.9930   51.2740 C   0  0  0  0  0  0  0  0  0  0  0  0
   59.9480   31.8520   51.8780 N   0  0  0  0  0  0  0  0  0  0  0  0
   59.8830   33.2220   51.3160 C   0  0  0  0  0  0  0  0  0  0  0  0
   59.5040   33.2230   49.8210 C   0  0  0  0  0  0  0  0  0  0  0  0
   59.4640   34.5280   49.2700 O   0  0  0  0  0  0  0  0  0  0  0  0
   60.1940   34.6270   48.0510 C   0  0  0  0  0  0  0  0  0  0  0  0
   61.3910   33.7010   48.0810 C   0  0  0  0  0  0  0  0  0  0  0  0
   61.4080   32.5010   47.3440 C   0  0  0  0  0  0  0  0  0  0  0  0
   62.5400   31.6810   47.3540 C   0  0  0  0  0  0  0  0  0  0  0  0
   63.6700   32.0530   48.0860 C   0  0  0  0  0  0  0  0  0  0  0  0
   63.6710   33.2490   48.8070 C   0  0  0  0  0  0  0  0  0  0  0  0
   62.5410   34.0720   48.8020 C   0  0  0  0  0  0  0  0  0  0  0  0
   59.2940   34.2460   46.8940 C   0  0  0  0  0  0  0  0  0  0  0  0
   59.6300   34.5990   45.5730 C   0  0  0  0  0  0  0  0  0  0  0  0
   58.8120   34.2120   44.5080 C   0  0  0  0  0  0  0  0  0  0  0  0
   57.6450   33.4820   44.7490 C   0  0  0  0  0  0  0  0  0  0  0  0
   57.2880   33.1490   46.0570 C   0  0  0  0  0  0  0  0  0  0  0  0
   58.1040   33.5330   47.1260 C   0  0  0  0  0  0  0  0  0  0  0  0
   61.3050   31.2600   51.7860 C   0  0  0  0  0  0  0  0  0  0  0  0
   61.4930   30.4620   50.4900 C   0  0  0  0  0  0  0  0  0  0  0  0
   56.0226   30.9129   44.5387 H   0  0  0  0  0  0  0  0  0  0  0  0
   57.3990   30.4054   43.5021 H   0  0  0  0  0  0  0  0  0  0  0  0
   55.8758   29.4533   43.5021 H   0  0  0  0  0  0  0  0  0  0  0  0
   56.2661   28.9248   45.9293 H   0  0  0  0  0  0  0  0  0  0  0  0
   57.5668   28.2996   44.8010 H   0  0  0  0  0  0  0  0  0  0  0  0
   59.0095   30.8031   44.4010 H   0  0  0  0  0  0  0  0  0  0  0  0
   59.9755   30.8895   45.9351 H   0  0  0  0  0  0  0  0  0  0  0  0
   60.5586   28.5200   45.7336 H   0  0  0  0  0  0  0  0  0  0  0  0
   59.5631   28.3768   44.2452 H   0  0  0  0  0  0  0  0  0  0  0  0
   61.0359   29.4053   44.2452 H   0  0  0  0  0  0  0  0  0  0  0  0
   57.6696   28.9311   47.9244 H   0  0  0  0  0  0  0  0  0  0  0  0
   58.8559   28.0291   46.9040 H   0  0  0  0  0  0  0  0  0  0  0  0
   60.4596   29.9885   47.2886 H   0  0  0  0  0  0  0  0  0  0  0  0
   59.2665   30.5081   48.5896 H   0  0  0  0  0  0  0  0  0  0  0  0
   59.8031   27.8373   49.1468 H   0  0  0  0  0  0  0  0  0  0  0  0
   61.4213   28.6222   48.6862 H   0  0  0  0  0  0  0  0  0  0  0  0
   61.0710   28.5430   50.9610 H   0  0  0  0  0  0  0  0  0  0  0  0
   58.4959   28.9498   50.6936 H   0  0  0  0  0  0  0  0  0  0  0  0
   59.4583   29.1509   52.2238 H   0  0  0  0  0  0  0  0  0  0  0  0
   58.6883   31.3543   50.2556 H   0  0  0  0  0  0  0  0  0  0  0  0
   58.0060   31.0583   51.9199 H   0  0  0  0  0  0  0  0  0  0  0  0
   59.1287   33.7975   51.8727 H   0  0  0  0  0  0  0  0  0  0  0  0
   60.8819   33.6727   51.4106 H   0  0  0  0  0  0  0  0  0  0  0  0
   60.2477   32.6299   49.2686 H   0  0  0  0  0  0  0  0  0  0  0  0
   58.4954   32.7929   49.7326 H   0  0  0  0  0  0  0  0  0  0  0  0
   60.5447   35.6622   47.9270 H   0  0  0  0  0  0  0  0  0  0  0  0
   60.5253   32.2073   46.7570 H   0  0  0  0  0  0  0  0  0  0  0  0
   62.5409   30.7403   46.7839 H   0  0  0  0  0  0  0  0  0  0  0  0
   64.5584   31.4044   48.0945 H   0  0  0  0  0  0  0  0  0  0  0  0
   64.5625   33.5440   49.3799 H   0  0  0  0  0  0  0  0  0  0  0  0
   62.5509   35.0165   49.3658 H   0  0  0  0  0  0  0  0  0  0  0  0
   60.5417   35.1828   45.3781 H   0  0  0  0  0  0  0  0  0  0  0  0
   59.0873   34.4826   43.4780 H   0  0  0  0  0  0  0  0  0  0  0  0
   57.0079   33.1698   43.9084 H   0  0  0  0  0  0  0  0  0  0  0  0
   56.3636   32.5838   46.2471 H   0  0  0  0  0  0  0  0  0  0  0  0
   57.8132   33.2757   48.1552 H   0  0  0  0  0  0  0  0  0  0  0  0
   62.0492   32.0695   51.8165 H   0  0  0  0  0  0  0  0  0  0  0  0
   61.4348   30.5706   52.6332 H   0  0  0  0  0  0  0  0  0  0  0  0
   61.2922   31.1186   49.6306 H   0  0  0  0  0  0  0  0  0  0  0  0
   62.5268   30.0879   50.4550 H   0  0  0  0  0  0  0  0  0  0  0  0
  1  2  1  0
  2  3  1  0
  3  4  1  0
  4  5  1  0
  3  6  1  0
  6  7  1  0
  7  8  1  0
  8  9  1  0
  9 10  1  0
 10 11  1  0
 11 12  1  0
 12 13  1  0
 13 14  1  0
 14 15  1  0
 15 16  1  0
 16 17  1  0
 17 18  2  0
 18 19  1  0
 19 20  2  0
 20 21  1  0
 21 22  2  0
 16 23  1  0
 23 24  2  0
 24 25  1  0
 25 26  2  0
 26 27  1  0
 27 28  2  0
 12 29  1  0
 29 30  1  0
 30  9  1  0
 22 17  1  0
 28 23  1  0
  1 31  1  0
  1 32  1  0
  1 33  1  0
  2 34  1  0
  2 35  1  0
  4 36  1  0
  4 37  1  0
  5 38  1  0
  5 39  1  0
  5 40  1  0
  6 41  1  0
  6 42  1  0
  7 43  1  0
  7 44  1  0
  8 45  1  0
  8 46  1  0
  9 47  1  0
 10 48  1  0
 10 49  1  0
 11 50  1  0
 11 51  1  0
 13 52  1  0
 13 53  1  0
 14 54  1  0
 14 55  1  0
 16 56  1  0
 18 57  1  0
 19 58  1  0
 20 59  1  0
 21 60  1  0
 22 61  1  0
 24 62  1  0
 25 63  1  0
 26 64  1  0
 27 65  1  0
 28 66  1  0
 29 67  1  0
 29 68  1  0
 30 69  1  0
 30 70  1  0
M  CHG  1   9   1
M  END
>  <UniqueID>  (39) 
38

>  <SMILES>  (39) 
CCN(CC)CCC[NH+]1CCN(CCOC(c2ccccc2)c2ccccc2)CC1

>  <Energy>  (39) 
91.63199305672525

>  <Genealogy>  (39) 
CCN(CC)CCC[NH+]1CCN(CCOC(c2ccccc2)c2ccccc2)CC1 (protonated)
CCN(CC)CCC[NH+]1CCN(CCOC(c2ccccc2)c2ccccc2)CC1 (3D coordinates assigned)
CCN(CC)CCC[NH+]1CCN(CCOC(c2ccccc2)c2ccccc2)CC1 (nonaromatic ring conformer: 91.63199305672525 kcal/mol)

>  <smiles>  (39) 
CCN(CC)CCCN1CCN(CCOC(c2ccccc2)c2ccccc2)CC1

>  <score_type>  (39) 
oracle

>  <origin>  (39) 
adg

>  <m_score__min__energy>  (39) 
-6.6500000000000004

>  <m_primary>  (39) 
energy

$$$$
39:0
     RDKit          3D

 41 43  0  0  0  0  0  0  0  0999 V2000
   57.0628   30.6427   42.3441 H   0  0  0  0  0  0  0  0  0  0  0  0
   57.3420   31.0890   43.3100 C   0  0  0  0  0  0  0  0  0  0  0  0
   57.2350   30.2330   44.5150 C   0  0  0  0  0  0  0  0  0  0  0  0
   56.1000   29.8220   44.8830 O   0  0  0  0  0  0  0  0  0  0  0  0
   58.4450   29.7960   45.2560 C   0  0  0  0  0  0  0  0  0  0  0  0
   58.8600   28.4520   45.2460 C   0  0  0  0  0  0  0  0  0  0  0  0
   58.2775   27.7053   44.6865 H   0  0  0  0  0  0  0  0  0  0  0  0
   60.0060   28.0580   45.9410 C   0  0  0  0  0  0  0  0  0  0  0  0
   60.3190   27.0036   45.9285 H   0  0  0  0  0  0  0  0  0  0  0  0
   60.7550   28.9970   46.6510 C   0  0  0  0  0  0  0  0  0  0  0  0
   61.6553   28.6789   47.1971 H   0  0  0  0  0  0  0  0  0  0  0  0
   60.3660   30.3440   46.6720 C   0  0  0  0  0  0  0  0  0  0  0  0
   61.1490   31.3110   47.3990 N   0  0  0  0  0  0  0  0  0  0  0  0
   62.6080   31.3250   47.2580 C   0  0  0  0  0  0  0  0  0  0  0  0
   63.0530   30.6358   47.9908 H   0  0  0  0  0  0  0  0  0  0  0  0
   62.8792   31.0069   46.2405 H   0  0  0  0  0  0  0  0  0  0  0  0
   63.1360   32.7420   47.5050 C   0  0  0  0  0  0  0  0  0  0  0  0
   64.2356   32.7193   47.5241 H   0  0  0  0  0  0  0  0  0  0  0  0
   62.7815   33.3973   46.6957 H   0  0  0  0  0  0  0  0  0  0  0  0
   62.6600   33.2460   48.7400 O   0  0  0  0  0  0  0  0  0  0  0  0
   61.2540   33.3920   48.6870 C   0  0  0  0  0  0  0  0  0  0  0  0
   60.9062   33.8700   49.6147 H   0  0  0  0  0  0  0  0  0  0  0  0
   60.9974   34.0127   47.8158 H   0  0  0  0  0  0  0  0  0  0  0  0
   60.5690   32.0300   48.5370 C   0  0  0  0  0  0  0  0  0  0  0  0
   60.7170   31.4426   49.4552 H   0  0  0  0  0  0  0  0  0  0  0  0
   59.4928   32.1791   48.3650 H   0  0  0  0  0  0  0  0  0  0  0  0
   59.2140   30.7380   45.9670 C   0  0  0  0  0  0  0  0  0  0  0  0
   58.9099   31.7951   45.9711 H   0  0  0  0  0  0  0  0  0  0  0  0
   57.7530   32.3660   43.3060 C   0  0  0  0  0  0  0  0  0  0  0  0
   57.8536   32.8615   42.3291 H   0  0  0  0  0  0  0  0  0  0  0  0
   58.0820   33.1620   44.5090 C   0  0  0  0  0  0  0  0  0  0  0  0
   57.2770   33.1150   45.6620 C   0  0  0  0  0  0  0  0  0  0  0  0
   56.3630   32.5030   45.6673 H   0  0  0  0  0  0  0  0  0  0  0  0
   57.6340   33.8430   46.8010 C   0  0  0  0  0  0  0  0  0  0  0  0
   56.9918   33.8161   47.6936 H   0  0  0  0  0  0  0  0  0  0  0  0
   58.8060   34.6050   46.8070 C   0  0  0  0  0  0  0  0  0  0  0  0
   59.0820   35.1830   47.7013 H   0  0  0  0  0  0  0  0  0  0  0  0
   59.6270   34.6320   45.6760 C   0  0  0  0  0  0  0  0  0  0  0  0
   60.5526   35.2264   45.6831 H   0  0  0  0  0  0  0  0  0  0  0  0
   59.2730   33.9040   44.5350 C   0  0  0  0  0  0  0  0  0  0  0  0
   59.9314   33.9132   43.6539 H   0  0  0  0  0  0  0  0  0  0  0  0
  1  2  1  0
  2  3  1  0
  3  4  2  0
  3  5  1  0
  5  6  2  0
  6  7  1  0
  6  8  1  0
  8  9  1  0
  8 10  2  0
 10 11  1  0
 10 12  1  0
 12 13  1  0
 13 14  1  0
 14 15  1  0
 14 16  1  0
 14 17  1  0
 17 18  1  0
 17 19  1  0
 17 20  1  0
 20 21  1  0
 21 22  1  0
 21 23  1  0
 21 24  1  0
 24 25  1  0
 24 26  1  0
 12 27  2  0
 27 28  1  0
  2 29  2  0
 29 30  1  0
 29 31  1  0
 31 32  2  0
 32 33  1  0
 32 34  1  0
 34 35  1  0
 34 36  2  0
 36 37  1  0
 36 38  1  0
 38 39  1  0
 38 40  2  0
 40 41  1  0
 27  5  1  0
 40 31  1  0
 24 13  1  0
M  END
>  <UniqueID>  (40) 
39

>  <SMILES>  (40) 
O=C(/C=C\c1ccccc1)c1cccc(N2CCOCC2)c1

>  <Energy>  (40) 
57.961090640715874

>  <Genealogy>  (40) 
O=C(/C=C\c1ccccc1)c1cccc(N2CCOCC2)c1 (cis-trans isomerization)
O=C(/C=C\c1ccccc1)c1cccc(N2CCOCC2)c1 (3D coordinates assigned)
O=C(/C=C\c1ccccc1)c1cccc(N2CCOCC2)c1 (nonaromatic ring conformer: 57.961090640715874 kcal/mol)

>  <smiles>  (40) 
O=C(C=Cc1ccccc1)c1cccc(N2CCOCC2)c1

>  <score_type>  (40) 
oracle

>  <origin>  (40) 
adg

>  <m_score__min__energy>  (40) 
-7.6900000000000004

>  <m_primary>  (40) 
energy

$$$$
40:0
     RDKit          3D

 65 69  0  0  1  0  0  0  0  0999 V2000
   56.9500   24.4240   42.9980 C   0  0  0  0  0  0  0  0  0  0  0  0
   57.5070   25.3770   44.0110 C   0  0  0  0  0  0  0  0  0  0  0  0
   57.8250   26.6730   43.4410 N   0  0  0  0  0  0  0  0  0  0  0  0
   58.8220   27.3770   44.1840 C   0  0  0  0  0  0  0  0  0  0  0  0
   58.2000   27.9120   45.4790 C   0  0  0  0  0  0  0  0  0  0  0  0
   56.7750   28.1590   45.2700 N   0  0  0  0  0  0  0  0  0  0  0  0
   56.6050   29.6580   44.4640 S   0  0  0  0  0  0  0  0  0  0  0  0
   55.1670   30.1090   44.4460 O   0  0  0  0  0  0  0  0  0  0  0  0
   56.9940   29.4350   43.0100 O   0  0  0  0  0  0  0  0  0  0  0  0
   57.6180   30.9000   45.1890 C   0  0  0  0  0  0  0  0  0  0  0  0
   57.6170   32.1360   44.5700 C   0  0  0  0  0  0  0  0  0  0  0  0
   58.4040   33.1430   45.1070 C   0  0  0  0  0  0  0  0  0  0  0  0
   59.1510   32.8640   46.2310 C   0  0  0  0  0  0  0  0  0  0  0  0
   59.9740   33.8730   46.7860 N   0  0  0  0  0  0  0  0  0  0  0  0
   61.0860   33.6790   47.3750 C   0  0  0  0  0  0  0  0  0  0  0  0
   61.1700   33.3370   48.6740 N   0  0  0  0  0  0  0  0  0  0  0  0
   62.3870   33.1520   49.2090 C   0  0  0  0  0  0  0  0  0  0  0  0
   63.5470   33.2970   48.4850 C   0  0  0  0  0  0  0  0  0  0  0  0
   63.4440   33.6540   47.1300 C   0  0  0  0  0  0  0  0  0  0  0  0
   62.2060   33.8270   46.6430 N   0  0  0  0  0  0  0  0  0  0  0  0
   64.9110   33.1120   48.9960 C   0  0  0  0  0  0  0  0  0  0  0  0
   65.0420   32.7720   50.4290 C   0  0  0  0  0  0  0  0  0  0  0  0
   63.7700   32.6560   51.1790 C   0  0  0  0  0  0  0  0  0  0  0  0
   63.6070   32.3840   52.4880 N   0  0  0  0  0  0  0  0  0  0  0  0
   62.3170   32.3690   52.7490 N   0  0  0  0  0  0  0  0  0  0  0  0
   61.7930   32.1030   54.0820 C   0  0  0  0  0  0  0  0  0  0  0  0
   61.6010   32.6310   51.6130 C   0  0  0  0  0  0  0  0  0  0  0  0
   60.1600   32.6060   51.6130 C   0  0  0  0  0  0  0  0  0  0  0  0
   59.5130   33.5960   52.3540 C   0  0  0  0  0  0  0  0  0  0  0  0
   58.1450   33.6570   52.4750 C   0  0  0  0  0  0  0  0  0  0  0  0
   57.3620   32.7130   51.8480 C   0  0  0  0  0  0  0  0  0  0  0  0
   58.0030   31.7430   51.1220 C   0  0  0  0  0  0  0  0  0  0  0  0
   59.3770   31.6680   50.9900 C   0  0  0  0  0  0  0  0  0  0  0  0
   60.0590   30.3510   50.0870 Cl  0  0  0  0  0  0  0  0  0  0  0  0
   62.5240   32.8150   50.6180 C   0  0  0  0  0  0  0  0  0  0  0  0
   59.1530   31.6290   46.8510 C   0  0  0  0  0  0  0  0  0  0  0  0
   58.3660   30.6220   46.3150 C   0  0  0  0  0  0  0  0  0  0  0  0
   56.4598   23.5854   43.5142 H   0  0  0  0  0  0  0  0  0  0  0  0
   56.2152   24.9467   42.3680 H   0  0  0  0  0  0  0  0  0  0  0  0
   57.7660   24.0403   42.3680 H   0  0  0  0  0  0  0  0  0  0  0  0
   56.7639   25.5161   44.8100 H   0  0  0  0  0  0  0  0  0  0  0  0
   58.4415   24.9443   44.3976 H   0  0  0  0  0  0  0  0  0  0  0  0
   56.9940   27.2320   43.2210 H   0  0  0  0  0  0  0  0  0  0  0  0
   59.6497   26.6947   44.4277 H   0  0  0  0  0  0  0  0  0  0  0  0
   59.2071   28.2152   43.5847 H   0  0  0  0  0  0  0  0  0  0  0  0
   58.3297   27.1708   46.2814 H   0  0  0  0  0  0  0  0  0  0  0  0
   58.6968   28.8514   45.7632 H   0  0  0  0  0  0  0  0  0  0  0  0
   56.3800   27.4120   44.6610 H   0  0  0  0  0  0  0  0  0  0  0  0
   57.0064   32.3162   43.6729 H   0  0  0  0  0  0  0  0  0  0  0  0
   58.4316   34.1416   44.6466 H   0  0  0  0  0  0  0  0  0  0  0  0
   64.3354   33.7853   46.4990 H   0  0  0  0  0  0  0  0  0  0  0  0
   62.1280   34.0920   45.6400 H   0  0  0  0  0  0  0  0  0  0  0  0
   65.3769   32.3011   48.4169 H   0  0  0  0  0  0  0  0  0  0  0  0
   65.3969   34.0926   48.8856 H   0  0  0  0  0  0  0  0  0  0  0  0
   65.5664   31.8078   50.5013 H   0  0  0  0  0  0  0  0  0  0  0  0
   65.5862   33.6104   50.8882 H   0  0  0  0  0  0  0  0  0  0  0  0
   62.5073   32.4656   54.8359 H   0  0  0  0  0  0  0  0  0  0  0  0
   60.8315   32.6221   54.2083 H   0  0  0  0  0  0  0  0  0  0  0  0
   61.6446   31.0204   54.2083 H   0  0  0  0  0  0  0  0  0  0  0  0
   60.1223   34.3582   52.8617 H   0  0  0  0  0  0  0  0  0  0  0  0
   57.6779   34.4558   53.0697 H   0  0  0  0  0  0  0  0  0  0  0  0
   56.2651   32.7366   51.9268 H   0  0  0  0  0  0  0  0  0  0  0  0
   57.3902   30.9822   50.6165 H   0  0  0  0  0  0  0  0  0  0  0  0
   59.7642   31.4496   47.7478 H   0  0  0  0  0  0  0  0  0  0  0  0
   58.3382   29.6239   46.7765 H   0  0  0  0  0  0  0  0  0  0  0  0
  1  2  1  0
  2  3  1  0
  3  4  1  0
  4  5  1  0
  5  6  1  0
  6  7  1  0
  7  8  2  0
  7  9  2  0
  7 10  1  0
 10 11  2  0
 11 12  1  0
 12 13  2  0
 13 14  1  0
 14 15  2  0
 15 16  1  0
 16 17  2  0
 17 18  1  0
 18 19  2  0
 19 20  1  0
 18 21  1  0
 21 22  1  0
 22 23  1  0
 23 24  2  0
 24 25  1  0
 25 26  1  0
 25 27  1  0
 27 28  1  0
 28 29  2  0
 29 30  1  0
 30 31  2  0
 31 32  1  0
 32 33  2  0
 33 34  1  0
 27 35  2  0
 13 36  1  0
 36 37  2  0
 37 10  1  0
 20 15  1  0
 35 23  1  0
 35 17  1  0
 33 28  1  0
  1 38  1  0
  1 39  1  0
  1 40  1  0
  2 41  1  0
  2 42  1  0
  3 43  1  0
  4 44  1  0
  4 45  1  0
  5 46  1  0
  5 47  1  0
  6 48  1  0
 11 49  1  0
 12 50  1  0
 19 51  1  0
 20 52  1  0
 21 53  1  0
 21 54  1  0
 22 55  1  0
 22 56  1  0
 26 57  1  0
 26 58  1  0
 26 59  1  0
 29 60  1  0
 30 61  1  0
 31 62  1  0
 32 63  1  0
 36 64  1  0
 37 65  1  0
M  END
>  <smiles>  (41) 
CCNCCNS(=O)(=O)c1ccc(N=c2nc3c(c[nH]2)CCc2nn(C)c(-c4ccccc4Cl)c2-3)cc1

>  <score_type>  (41) 
oracle

>  <origin>  (41) 
adg

>  <m_score__min__energy>  (41) 
-9.8699999999999992

>  <m_primary>  (41) 
energy

$$$$
41:0
     RDKit          3D

 57 59  0  0  0  0  0  0  0  0999 V2000
   59.6240   35.3320   46.3880 C   0  0  0  0  0  0  0  0  0  0  0  0
   60.0760   33.9340   45.9630 C   0  0  0  0  0  0  0  0  0  0  0  0
   59.0200   32.9130   46.1620 N   0  0  0  0  0  0  0  0  0  0  0  0
   58.1980   33.1280   47.3830 C   0  0  0  0  0  0  0  0  0  0  0  0
   58.8590   32.6790   48.6950 C   0  0  0  0  0  0  0  0  0  0  0  0
   58.2210   32.7510   44.9240 C   0  0  0  0  0  0  0  0  0  0  0  0
   56.7180   32.5660   45.2090 C   0  0  0  0  0  0  0  0  0  0  0  0
   56.1940   31.3660   44.5630 N   0  0  0  0  0  0  0  0  0  0  0  0
   56.6590   30.0230   44.7570 C   0  0  0  0  0  0  0  0  0  0  0  0
   55.8650   29.1760   45.2470 O   0  0  0  0  0  0  0  0  0  0  0  0
   58.0510   29.5830   44.3900 C   0  0  0  0  0  0  0  0  0  0  0  0
   58.5050   28.4780   45.2940 C   0  0  0  0  0  0  0  0  0  0  0  0
   58.1220   27.1970   45.1540 N   0  0  0  0  0  0  0  0  0  0  0  0
   58.7030   26.5710   46.2020 C   0  0  0  0  0  0  0  0  0  0  0  0
   58.5070   25.1150   46.4900 C   0  0  0  0  0  0  0  0  0  0  0  0
   57.2940   24.5850   45.7450 C   0  0  0  0  0  0  0  0  0  0  0  0
   56.0450   25.2530   45.8610 C   0  0  0  0  0  0  0  0  0  0  0  0
   55.8470   26.3500   46.7070 O   0  0  0  0  0  0  0  0  0  0  0  0
   54.9450   24.8200   45.1200 C   0  0  0  0  0  0  0  0  0  0  0  0
   55.0340   23.7110   44.2900 C   0  0  0  0  0  0  0  0  0  0  0  0
   56.2290   22.9930   44.1970 C   0  0  0  0  0  0  0  0  0  0  0  0
   56.2900   21.8540   43.3780 C   0  0  0  0  0  0  0  0  0  0  0  0
   57.4660   21.1120   43.2890 C   0  0  0  0  0  0  0  0  0  0  0  0
   58.5890   21.4940   44.0200 C   0  0  0  0  0  0  0  0  0  0  0  0
   58.5470   22.6260   44.8360 C   0  0  0  0  0  0  0  0  0  0  0  0
   57.3720   23.4090   44.9340 C   0  0  0  0  0  0  0  0  0  0  0  0
   59.4070   27.3930   47.0100 N   0  0  0  0  0  0  0  0  0  0  0  0
   59.2830   28.5970   46.4260 C   0  0  0  0  0  0  0  0  0  0  0  0
   59.8610   29.8560   46.9860 C   0  0  0  0  0  0  0  0  0  0  0  0
   59.6043   35.3929   47.4861 H   0  0  0  0  0  0  0  0  0  0  0  0
   60.3259   36.0806   45.9918 H   0  0  0  0  0  0  0  0  0  0  0  0
   58.6167   35.5279   45.9918 H   0  0  0  0  0  0  0  0  0  0  0  0
   60.3464   33.9592   44.8971 H   0  0  0  0  0  0  0  0  0  0  0  0
   60.9349   33.6543   46.5907 H   0  0  0  0  0  0  0  0  0  0  0  0
   57.9777   34.2028   47.4617 H   0  0  0  0  0  0  0  0  0  0  0  0
   57.2982   32.5068   47.2625 H   0  0  0  0  0  0  0  0  0  0  0  0
   58.2841   33.0695   49.5476 H   0  0  0  0  0  0  0  0  0  0  0  0
   58.8785   31.5800   48.7384 H   0  0  0  0  0  0  0  0  0  0  0  0
   59.8878   33.0659   48.7384 H   0  0  0  0  0  0  0  0  0  0  0  0
   58.3535   33.6467   44.2994 H   0  0  0  0  0  0  0  0  0  0  0  0
   58.5775   31.8442   44.4136 H   0  0  0  0  0  0  0  0  0  0  0  0
   56.5681   32.4814   46.2954 H   0  0  0  0  0  0  0  0  0  0  0  0
   56.1808   33.4372   44.8060 H   0  0  0  0  0  0  0  0  0  0  0  0
   58.0556   29.2253   43.3498 H   0  0  0  0  0  0  0  0  0  0  0  0
   58.7355   30.4371   44.4991 H   0  0  0  0  0  0  0  0  0  0  0  0
   59.4004   24.5589   46.1695 H   0  0  0  0  0  0  0  0  0  0  0  0
   58.3468   24.9840   47.5704 H   0  0  0  0  0  0  0  0  0  0  0  0
   56.2380   27.2670   46.5510 H   0  0  0  0  0  0  0  0  0  0  0  0
   53.9928   25.3657   45.1947 H   0  0  0  0  0  0  0  0  0  0  0  0
   54.1592   23.3958   43.7024 H   0  0  0  0  0  0  0  0  0  0  0  0
   55.4042   21.5457   42.8033 H   0  0  0  0  0  0  0  0  0  0  0  0
   57.5079   20.2240   42.6412 H   0  0  0  0  0  0  0  0  0  0  0  0
   59.5130   20.9009   43.9538 H   0  0  0  0  0  0  0  0  0  0  0  0
   59.4397   22.9135   45.4109 H   0  0  0  0  0  0  0  0  0  0  0  0
   59.8407   29.8117   48.0849 H   0  0  0  0  0  0  0  0  0  0  0  0
   60.9002   29.9668   46.6427 H   0  0  0  0  0  0  0  0  0  0  0  0
   59.2677   30.7163   46.6427 H   0  0  0  0  0  0  0  0  0  0  0  0
  1  2  1  0
  2  3  1  0
  3  4  1  0
  4  5  1  0
  3  6  1  0
  6  7  1  0
  7  8  1  0
  8  9  1  0
  9 10  2  0
  9 11  1  0
 11 12  1  0
 12 13  1  0
 13 14  2  0
 14 15  1  0
 15 16  1  0
 16 17  2  0
 17 18  1  0
 17 19  1  0
 19 20  2  0
 20 21  1  0
 21 22  2  0
 22 23  1  0
 23 24  2  0
 24 25  1  0
 25 26  2  0
 14 27  1  0
 27 28  1  0
 28 29  1  0
 28 12  2  0
 26 16  1  0
 26 21  1  0
  1 30  1  0
  1 31  1  0
  1 32  1  0
  2 33  1  0
  2 34  1  0
  4 35  1  0
  4 36  1  0
  5 37  1  0
  5 38  1  0
  5 39  1  0
  6 40  1  0
  6 41  1  0
  7 42  1  0
  7 43  1  0
 11 44  1  0
 11 45  1  0
 15 46  1  0
 15 47  1  0
 18 48  1  0
 19 49  1  0
 20 50  1  0
 22 51  1  0
 23 52  1  0
 24 53  1  0
 25 54  1  0
 29 55  1  0
 29 56  1  0
 29 57  1  0
M  CHG  2   8  -1  27  -1
M  END
>  <UniqueID>  (42) 
40

>  <SMILES>  (42) 
CCN(CC)CC[N-]C(=O)Cc1nc(Cc2c(O)ccc3ccccc23)[n-]c1C

>  <Energy>  (42) 
91.86867917646168

>  <Genealogy>  (42) 
CCN(CC)CC[N-]C(=O)Cc1nc(Cc2c(O)ccc3ccccc23)[n-]c1C (protonated)
CCN(CC)CC[N-]C(=O)Cc1nc(Cc2c(O)ccc3ccccc23)[n-]c1C (3D coordinates assigned)
CCN(CC)CC[N-]C(=O)Cc1nc(Cc2c(O)ccc3ccccc23)[n-]c1C (optimized conformer: 91.86867917646168 kcal/mol)

>  <smiles>  (42) 
CCN(CC)CCNC(=O)Cc1nc(Cc2c(O)ccc3ccccc23)[nH]c1C

>  <score_type>  (42) 
oracle

>  <origin>  (42) 
adg

>  <m_score__min__energy>  (42) 
-11.6

>  <m_primary>  (42) 
energy

$$$$
42:0
     RDKit          3D

 49 51  0  0  0  0  0  0  0  0999 V2000
   62.9990   34.2870   49.0580 C   0  0  0  0  0  0  0  0  0  0  0  0
   63.0640   33.3530   47.9290 N   0  0  0  0  0  0  0  0  0  0  0  0
   63.2730   33.8620   46.5700 C   0  0  0  0  0  0  0  0  0  0  0  0
   62.9020   31.9280   48.1200 C   0  0  0  0  0  0  0  0  0  0  0  0
   62.7940   31.1740   47.1140 O   0  0  0  0  0  0  0  0  0  0  0  0
   62.8990   31.2880   49.4870 C   0  0  0  0  0  0  0  0  0  0  0  0
   61.4720   30.9930   49.9690 C   0  0  0  0  0  0  0  0  0  0  0  0
   61.2050   29.4850   50.1070 C   0  0  0  0  0  0  0  0  0  0  0  0
   60.8220   28.8460   48.7660 C   0  0  0  0  0  0  0  0  0  0  0  0
   60.4220   29.8550   47.7850 N   0  0  0  0  0  0  0  0  0  0  0  0
   59.0470   30.0470   47.4290 C   0  0  0  0  0  0  0  0  0  0  0  0
   58.1430   29.3740   47.9930 O   0  0  0  0  0  0  0  0  0  0  0  0
   58.6800   31.0410   46.3940 C   0  0  0  0  0  0  0  0  0  0  0  0
   58.0220   30.6330   45.2060 C   0  0  0  0  0  0  0  0  0  0  0  0
   57.6550   29.2890   44.9650 C   0  0  0  0  0  0  0  0  0  0  0  0
   57.0080   28.9330   43.7790 C   0  0  0  0  0  0  0  0  0  0  0  0
   56.7090   29.9020   42.8220 C   0  0  0  0  0  0  0  0  0  0  0  0
   57.0490   31.2360   43.0480 C   0  0  0  0  0  0  0  0  0  0  0  0
   57.6970   31.6070   44.2320 C   0  0  0  0  0  0  0  0  0  0  0  0
   58.0030   32.9120   44.4400 N   0  0  0  0  0  0  0  0  0  0  0  0
   58.6270   33.3380   45.5660 C   0  0  0  0  0  0  0  0  0  0  0  0
   58.9190   34.6990   45.7160 C   0  0  0  0  0  0  0  0  0  0  0  0
   59.5770   35.1560   46.8580 C   0  0  0  0  0  0  0  0  0  0  0  0
   59.9520   34.2560   47.8550 C   0  0  0  0  0  0  0  0  0  0  0  0
   59.6660   32.8940   47.7200 C   0  0  0  0  0  0  0  0  0  0  0  0
   58.9890   32.4140   46.5760 C   0  0  0  0  0  0  0  0  0  0  0  0
   63.0382   33.7241   50.0023 H   0  0  0  0  0  0  0  0  0  0  0  0
   63.8510   34.9810   49.0092 H   0  0  0  0  0  0  0  0  0  0  0  0
   62.0591   34.8563   49.0092 H   0  0  0  0  0  0  0  0  0  0  0  0
   63.6904   34.8785   46.6193 H   0  0  0  0  0  0  0  0  0  0  0  0
   63.9735   33.2035   46.0355 H   0  0  0  0  0  0  0  0  0  0  0  0
   62.3119   33.8858   46.0355 H   0  0  0  0  0  0  0  0  0  0  0  0
   63.4625   30.3444   49.4407 H   0  0  0  0  0  0  0  0  0  0  0  0
   63.3640   31.9886   50.1962 H   0  0  0  0  0  0  0  0  0  0  0  0
   61.3235   31.4701   50.9490 H   0  0  0  0  0  0  0  0  0  0  0  0
   60.7732   31.3922   49.2191 H   0  0  0  0  0  0  0  0  0  0  0  0
   62.1143   28.9963   50.4868 H   0  0  0  0  0  0  0  0  0  0  0  0
   60.3625   29.3505   50.8013 H   0  0  0  0  0  0  0  0  0  0  0  0
   61.6872   28.2907   48.3748 H   0  0  0  0  0  0  0  0  0  0  0  0
   59.9685   28.1732   48.9360 H   0  0  0  0  0  0  0  0  0  0  0  0
   61.1450   30.4430   47.3090 H   0  0  0  0  0  0  0  0  0  0  0  0
   57.8805   28.5182   45.7166 H   0  0  0  0  0  0  0  0  0  0  0  0
   56.7331   27.8832   43.5993 H   0  0  0  0  0  0  0  0  0  0  0  0
   56.2045   29.6143   41.8878 H   0  0  0  0  0  0  0  0  0  0  0  0
   56.8071   31.9988   42.2933 H   0  0  0  0  0  0  0  0  0  0  0  0
   58.6282   35.4112   44.9297 H   0  0  0  0  0  0  0  0  0  0  0  0
   59.8002   36.2270   46.9722 H   0  0  0  0  0  0  0  0  0  0  0  0
   60.4752   34.6192   48.7518 H   0  0  0  0  0  0  0  0  0  0  0  0
   59.9700   32.1912   48.5097 H   0  0  0  0  0  0  0  0  0  0  0  0
  1  2  1  0
  2  3  1  0
  2  4  1  0
  4  5  2  0
  4  6  1  0
  6  7  1  0
  7  8  1  0
  8  9  1  0
  9 10  1  0
 10 11  1  0
 11 12  2  0
 11 13  1  0
 13 14  2  0
 14 15  1  0
 15 16  2  0
 16 17  1  0
 17 18  2  0
 18 19  1  0
 19 20  2  0
 20 21  1  0
 21 22  2  0
 22 23  1  0
 23 24  2  0
 24 25  1  0
 25 26  2  0
 26 13  1  0
 19 14  1  0
 26 21  1  0
  1 27  1  0
  1 28  1  0
  1 29  1  0
  3 30  1  0
  3 31  1  0
  3 32  1  0
  6 33  1  0
  6 34  1  0
  7 35  1  0
  7 36  1  0
  8 37  1  0
  8 38  1  0
  9 39  1  0
  9 40  1  0
 10 41  1  0
 15 42  1  0
 16 43  1  0
 17 44  1  0
 18 45  1  0
 22 46  1  0
 23 47  1  0
 24 48  1  0
 25 49  1  0
M  END
>  <UniqueID>  (43) 
41

>  <SMILES>  (43) 
CN(C)C(=O)CCCCNC(=O)c1c2ccccc2nc2ccccc12

>  <Energy>  (43) 
56.37318408652029

>  <Genealogy>  (43) 
CN(C)C(=O)CCCCNC(=O)c1c2ccccc2nc2ccccc12 (3D coordinates assigned)
CN(C)C(=O)CCCCNC(=O)c1c2ccccc2nc2ccccc12 (optimized conformer: 56.37318408652029 kcal/mol)

>  <smiles>  (43) 
CN(C)C(=O)CCCCNC(=O)c1c2ccccc2nc2ccccc12

>  <score_type>  (43) 
oracle

>  <origin>  (43) 
adg

>  <m_score__min__energy>  (43) 
-8.2699999999999996

>  <m_primary>  (43) 
energy

$$$$
43:0
     RDKit          3D

 48 50  0  0  0  0  0  0  0  0999 V2000
   59.7500   29.7150   48.6010 C   0  0  0  0  0  0  0  0  0  0  0  0
   60.3670   30.6720   49.6150 C   0  0  0  0  0  0  0  0  0  0  0  0
   60.4660   32.0200   49.0470 N   0  0  0  0  0  0  0  0  0  0  0  0
   61.7160   32.5110   48.5420 C   0  0  0  0  0  0  0  0  0  0  0  0
   62.8690   32.4600   49.3410 C   0  0  0  0  0  0  0  0  0  0  0  0
   64.0900   32.9290   48.8470 C   0  0  0  0  0  0  0  0  0  0  0  0
   64.1680   33.4480   47.5510 C   0  0  0  0  0  0  0  0  0  0  0  0
   63.0250   33.5000   46.7490 C   0  0  0  0  0  0  0  0  0  0  0  0
   61.8030   33.0320   47.2400 C   0  0  0  0  0  0  0  0  0  0  0  0
   59.0320   32.9950   48.9190 S   0  0  0  0  0  0  0  0  0  0  0  0
   57.9330   32.3430   49.7090 O   0  0  0  0  0  0  0  0  0  0  0  0
   59.2750   34.3700   49.4700 O   0  0  0  0  0  0  0  0  0  0  0  0
   58.5740   33.1260   47.2260 C   0  0  0  0  0  0  0  0  0  0  0  0
   58.6580   34.3520   46.5570 C   0  0  0  0  0  0  0  0  0  0  0  0
   58.2720   34.4480   45.2180 C   0  0  0  0  0  0  0  0  0  0  0  0
   57.7870   33.3230   44.5440 C   0  0  0  0  0  0  0  0  0  0  0  0
   57.6870   32.0850   45.2060 C   0  0  0  0  0  0  0  0  0  0  0  0
   57.1480   30.8870   44.5200 C   0  0  0  0  0  0  0  0  0  0  0  0
   55.8960   30.7500   44.4330 O   0  0  0  0  0  0  0  0  0  0  0  0
   58.0260   29.8990   43.9260 N   0  0  0  0  0  0  0  0  0  0  0  0
   57.3960   28.5780   43.8540 C   0  0  0  0  0  0  0  0  0  0  0  0
   58.5350   27.5730   43.7990 C   0  0  0  0  0  0  0  0  0  0  0  0
   59.6970   28.2600   44.4950 C   0  0  0  0  0  0  0  0  0  0  0  0
   59.2610   29.7080   44.7010 C   0  0  0  0  0  0  0  0  0  0  0  0
   58.1040   31.9930   46.5450 C   0  0  0  0  0  0  0  0  0  0  0  0
   59.2279   28.9052   49.1317 H   0  0  0  0  0  0  0  0  0  0  0  0
   59.0336   30.2614   47.9699 H   0  0  0  0  0  0  0  0  0  0  0  0
   60.5433   29.2880   47.9699 H   0  0  0  0  0  0  0  0  0  0  0  0
   59.7360   30.7030   50.5155 H   0  0  0  0  0  0  0  0  0  0  0  0
   61.3757   30.3177   49.8740 H   0  0  0  0  0  0  0  0  0  0  0  0
   62.8117   32.0494   50.3599 H   0  0  0  0  0  0  0  0  0  0  0  0
   64.9899   32.8897   49.4784 H   0  0  0  0  0  0  0  0  0  0  0  0
   65.1294   33.8154   47.1627 H   0  0  0  0  0  0  0  0  0  0  0  0
   63.0870   33.9097   45.7300 H   0  0  0  0  0  0  0  0  0  0  0  0
   60.9059   33.0717   46.6047 H   0  0  0  0  0  0  0  0  0  0  0  0
   59.0287   35.2420   47.0866 H   0  0  0  0  0  0  0  0  0  0  0  0
   58.3498   35.4112   44.6924 H   0  0  0  0  0  0  0  0  0  0  0  0
   57.4819   33.4060   43.4904 H   0  0  0  0  0  0  0  0  0  0  0  0
   58.2840   30.1740   42.9500 H   0  0  0  0  0  0  0  0  0  0  0  0
   56.7739   28.4022   44.7440 H   0  0  0  0  0  0  0  0  0  0  0  0
   56.7399   28.4919   42.9753 H   0  0  0  0  0  0  0  0  0  0  0  0
   58.2604   26.6477   44.3266 H   0  0  0  0  0  0  0  0  0  0  0  0
   58.7829   27.2844   42.7669 H   0  0  0  0  0  0  0  0  0  0  0  0
   59.9014   27.7800   45.4634 H   0  0  0  0  0  0  0  0  0  0  0  0
   60.6202   28.1959   43.9004 H   0  0  0  0  0  0  0  0  0  0  0  0
   59.0707   29.8972   45.7678 H   0  0  0  0  0  0  0  0  0  0  0  0
   60.0446   30.4051   44.3693 H   0  0  0  0  0  0  0  0  0  0  0  0
   58.0615   31.0239   47.0637 H   0  0  0  0  0  0  0  0  0  0  0  0
  1  2  1  0
  2  3  1  0
  3  4  1  0
  4  5  2  0
  5  6  1  0
  6  7  2  0
  7  8  1  0
  8  9  2  0
  3 10  1  0
 10 11  2  0
 10 12  2  0
 10 13  1  0
 13 14  2  0
 14 15  1  0
 15 16  2  0
 16 17  1  0
 17 18  1  0
 18 19  2  0
 18 20  1  0
 20 21  1  0
 21 22  1  0
 22 23  1  0
 23 24  1  0
 17 25  2  0
  9  4  1  0
 25 13  1  0
 24 20  1  0
  1 26  1  0
  1 27  1  0
  1 28  1  0
  2 29  1  0
  2 30  1  0
  5 31  1  0
  6 32  1  0
  7 33  1  0
  8 34  1  0
  9 35  1  0
 14 36  1  0
 15 37  1  0
 16 38  1  0
 20 39  1  0
 21 40  1  0
 21 41  1  0
 22 42  1  0
 22 43  1  0
 23 44  1  0
 23 45  1  0
 24 46  1  0
 24 47  1  0
 25 48  1  0
M  CHG  1  20   1
M  END
>  <UniqueID>  (44) 
42

>  <SMILES>  (44) 
CCN(c1ccccc1)S(=O)(=O)c1cccc(C(=O)[NH+]2CCCC2)c1

>  <Energy>  (44) 
59.22061477129283

>  <Genealogy>  (44) 
CCN(c1ccccc1)S(=O)(=O)c1cccc(C(=O)[NH+]2CCCC2)c1 (protonated)
CCN(c1ccccc1)S(=O)(=O)c1cccc(C(=O)[NH+]2CCCC2)c1 (3D coordinates assigned)
CCN(c1ccccc1)S(=O)(=O)c1cccc(C(=O)[NH+]2CCCC2)c1 (nonaromatic ring conformer: 59.22061477129283 kcal/mol)

>  <smiles>  (44) 
CCN(c1ccccc1)S(=O)(=O)c1cccc(C(=O)N2CCCC2)c1

>  <score_type>  (44) 
oracle

>  <origin>  (44) 
adg

>  <m_score__min__energy>  (44) 
-7.3600000000000003

>  <m_primary>  (44) 
energy

$$$$
44:0
     RDKit          3D

 59 63  0  0  0  0  0  0  0  0999 V2000
   56.6430   29.4770   43.8370 C   0  0  0  0  0  0  0  0  0  0  0  0
   58.1240   29.7600   44.1070 C   0  0  0  0  0  0  0  0  0  0  0  0
   58.4430   30.4050   45.5100 C   0  0  2  0  0  0  0  0  0  0  0  0
   57.4720   30.0440   46.4710 O   0  0  0  0  0  0  0  0  0  0  0  0
   58.4940   31.9490   45.4100 C   0  0  0  0  0  0  0  0  0  0  0  0
   57.4640   32.6510   44.7500 C   0  0  0  0  0  0  0  0  0  0  0  0
   57.4610   34.0440   44.7120 C   0  0  0  0  0  0  0  0  0  0  0  0
   58.4840   34.7470   45.3420 C   0  0  0  0  0  0  0  0  0  0  0  0
   59.4610   34.0770   46.0020 N   0  0  0  0  0  0  0  0  0  0  0  0
   59.4880   32.7180   46.0770 C   0  0  0  0  0  0  0  0  0  0  0  0
   60.6390   32.0810   46.8070 C   0  0  0  0  0  0  0  0  0  0  0  0
   60.3350   30.6460   47.2150 C   0  0  0  0  0  0  0  0  0  0  0  0
   59.8220   29.8560   45.9940 C   0  0  1  0  0  0  0  0  0  0  0  0
   59.7800   28.3750   46.2090 N   0  0  0  0  0  0  0  0  0  0  0  0
   59.0960   27.9510   47.4620 C   0  0  0  0  0  0  0  0  0  0  0  0
   57.7740   27.2340   47.1770 C   0  0  0  0  0  0  0  0  0  0  0  0
   58.0080   25.9320   46.3620 C   0  0  0  0  0  0  0  0  0  0  0  0
   59.2430   26.0630   45.4250 C   0  0  0  0  0  0  0  0  0  0  0  0
   59.4880   27.5250   45.0210 C   0  0  0  0  0  0  0  0  0  0  0  0
   56.7000   25.5370   45.5850 C   0  0  0  0  0  0  0  0  0  0  0  0
   56.1610   24.3810   46.2910 N   0  0  0  0  0  0  0  0  0  0  0  0
   54.8000   23.9170   46.1900 C   0  0  0  0  0  0  0  0  0  0  0  0
   54.3080   22.9290   47.0670 C   0  0  0  0  0  0  0  0  0  0  0  0
   52.9740   22.5110   46.9880 C   0  0  0  0  0  0  0  0  0  0  0  0
   52.1220   23.0700   46.0330 C   0  0  0  0  0  0  0  0  0  0  0  0
   52.6000   24.0530   45.1570 C   0  0  0  0  0  0  0  0  0  0  0  0
   53.9310   24.4800   45.2400 C   0  0  0  0  0  0  0  0  0  0  0  0
   57.1180   23.9860   47.2510 C   0  0  0  0  0  0  0  0  0  0  0  0
   57.0160   22.9490   47.9550 O   0  0  0  0  0  0  0  0  0  0  0  0
   58.2420   24.8330   47.3000 N   0  0  0  0  0  0  0  0  0  0  0  0
   56.1089   29.3749   44.7932 H   0  0  0  0  0  0  0  0  0  0  0  0
   56.2097   30.3086   43.2619 H   0  0  0  0  0  0  0  0  0  0  0  0
   56.5468   28.5442   43.2619 H   0  0  0  0  0  0  0  0  0  0  0  0
   58.6697   28.8073   44.0392 H   0  0  0  0  0  0  0  0  0  0  0  0
   58.4337   30.5005   43.3548 H   0  0  0  0  0  0  0  0  0  0  0  0
   57.9320   29.6930   47.2790 H   0  0  0  0  0  0  0  0  0  0  0  0
   56.6534   32.0922   44.2594 H   0  0  0  0  0  0  0  0  0  0  0  0
   56.6575   34.5832   44.1889 H   0  0  0  0  0  0  0  0  0  0  0  0
   58.4999   35.8462   45.3045 H   0  0  0  0  0  0  0  0  0  0  0  0
   61.5209   32.0835   46.1496 H   0  0  0  0  0  0  0  0  0  0  0  0
   60.8222   32.6619   47.7230 H   0  0  0  0  0  0  0  0  0  0  0  0
   61.2512   30.1729   47.5980 H   0  0  0  0  0  0  0  0  0  0  0  0
   59.5636   30.6459   47.9992 H   0  0  0  0  0  0  0  0  0  0  0  0
   60.5612   30.0160   45.1952 H   0  0  0  0  0  0  0  0  0  0  0  0
   59.7583   27.2689   48.0152 H   0  0  0  0  0  0  0  0  0  0  0  0
   58.8741   28.8532   48.0509 H   0  0  0  0  0  0  0  0  0  0  0  0
   57.2909   26.9783   48.1316 H   0  0  0  0  0  0  0  0  0  0  0  0
   57.1328   27.9051   46.5867 H   0  0  0  0  0  0  0  0  0  0  0  0
   60.1320   25.6829   45.9495 H   0  0  0  0  0  0  0  0  0  0  0  0
   59.0487   25.4798   44.5128 H   0  0  0  0  0  0  0  0  0  0  0  0
   60.3440   27.5672   44.3315 H   0  0  0  0  0  0  0  0  0  0  0  0
   58.5776   27.9077   44.5365 H   0  0  0  0  0  0  0  0  0  0  0  0
   55.9785   26.3672   45.6000 H   0  0  0  0  0  0  0  0  0  0  0  0
   56.9060   25.3101   44.5285 H   0  0  0  0  0  0  0  0  0  0  0  0
   54.9765   22.4835   47.8184 H   0  0  0  0  0  0  0  0  0  0  0  0
   52.5969   21.7421   47.6784 H   0  0  0  0  0  0  0  0  0  0  0  0
   51.0752   22.7382   45.9687 H   0  0  0  0  0  0  0  0  0  0  0  0
   51.9289   24.4901   44.4029 H   0  0  0  0  0  0  0  0  0  0  0  0
   54.2984   25.2606   44.5576 H   0  0  0  0  0  0  0  0  0  0  0  0
  1  2  1  0
  2  3  1  0
  3  4  1  1
  3  5  1  0
  5  6  2  0
  6  7  1  0
  7  8  2  0
  8  9  1  0
  9 10  2  0
 10 11  1  0
 11 12  1  0
 12 13  1  0
 13 14  1  0
 14 15  1  0
 15 16  1  0
 16 17  1  0
 17 18  1  0
 18 19  1  0
 17 20  1  0
 20 21  1  0
 21 22  1  0
 22 23  2  0
 23 24  1  0
 24 25  2  0
 25 26  1  0
 26 27  2  0
 21 28  1  0
 28 29  2  0
 28 30  1  0
 13  3  1  0
 19 14  1  0
 27 22  1  0
 10  5  1  0
 30 17  1  0
  1 31  1  0
  1 32  1  0
  1 33  1  0
  2 34  1  0
  2 35  1  0
  4 36  1  0
  6 37  1  0
  7 38  1  0
  8 39  1  0
 11 40  1  0
 11 41  1  0
 12 42  1  0
 12 43  1  0
 13 44  1  6
 15 45  1  0
 15 46  1  0
 16 47  1  0
 16 48  1  0
 18 49  1  0
 18 50  1  0
 19 51  1  0
 19 52  1  0
 20 53  1  0
 20 54  1  0
 23 55  1  0
 24 56  1  0
 25 57  1  0
 26 58  1  0
 27 59  1  0
M  CHG  1  30  -1
M  END
>  <UniqueID>  (45) 
43

>  <SMILES>  (45) 
CC[C@]1(O)c2cccnc2CC[C@H]1N1CCC2(CC1)CN(c1ccccc1)C(=O)[N-]2

>  <Energy>  (45) 
110.76066416762079

>  <Genealogy>  (45) 
CCC1(O)c2cccnc2CCC1N1CCC2(CC1)CN(c1ccccc1)C(=O)[N-]2 (protonated)
CC[C@]1(O)c2cccnc2CC[C@H]1N1CCC2(CC1)CN(c1ccccc1)C(=O)[N-]2 (chirality)
CC[C@]1(O)c2cccnc2CC[C@H]1N1CCC2(CC1)CN(c1ccccc1)C(=O)[N-]2 (3D coordinates assigned)
CC[C@]1(O)c2cccnc2CC[C@H]1N1CCC2(CC1)CN(c1ccccc1)C(=O)[N-]2 (nonaromatic ring conformer: 110.76066416762079 kcal/mol)

>  <smiles>  (45) 
CCC1(O)c2cccnc2CCC1N1CCC2(CC1)CN(c1ccccc1)C(=O)N2

>  <score_type>  (45) 
oracle

>  <origin>  (45) 
adg

>  <m_score__min__energy>  (45) 
-9.8000000000000007

>  <m_primary>  (45) 
energy

$$$$
45:0
     RDKit          3D

 39 40  0  0  0  0  0  0  0  0999 V2000
   58.8240   25.0700   45.9280 C   0  0  0  0  0  0  0  0  0  0  0  0
   58.0850   24.4460   44.7380 C   0  0  0  0  0  0  0  0  0  0  0  0
   56.6840   24.9340   44.6250 N   0  0  0  0  0  0  0  0  0  0  0  0
   55.9060   24.0720   43.6950 C   0  0  0  0  0  0  0  0  0  0  0  0
   56.6530   22.7780   43.3480 C   0  0  0  0  0  0  0  0  0  0  0  0
   56.0370   24.9660   45.9650 C   0  0  0  0  0  0  0  0  0  0  0  0
   56.0820   26.3620   46.6230 C   0  0  0  0  0  0  0  0  0  0  0  0
   55.9800   27.4210   45.6210 N   0  0  0  0  0  0  0  0  0  0  0  0
   57.0650   28.0870   44.9620 C   0  0  0  0  0  0  0  0  0  0  0  0
   57.8240   27.4110   44.2190 O   0  0  0  0  0  0  0  0  0  0  0  0
   57.3200   29.5330   45.1080 C   0  0  0  0  0  0  0  0  0  0  0  0
   58.1750   30.0950   46.0580 C   0  0  0  0  0  0  0  0  0  0  0  0
   58.2530   31.4880   45.9490 C   0  0  0  0  0  0  0  0  0  0  0  0
   59.0040   32.3370   46.7660 C   0  0  0  0  0  0  0  0  0  0  0  0
   58.9660   33.7200   46.5200 C   0  0  0  0  0  0  0  0  0  0  0  0
   58.1840   34.2360   45.4670 C   0  0  0  0  0  0  0  0  0  0  0  0
   57.4350   33.3740   44.6520 C   0  0  0  0  0  0  0  0  0  0  0  0
   57.4890   32.0070   44.9170 C   0  0  0  0  0  0  0  0  0  0  0  0
   56.7000   30.7610   44.1180 S   0  0  0  0  0  0  0  0  0  0  0  0
   58.3858   24.7000   46.8667 H   0  0  0  0  0  0  0  0  0  0  0  0
   59.8876   24.7926   45.8855 H   0  0  0  0  0  0  0  0  0  0  0  0
   58.7287   26.1650   45.8855 H   0  0  0  0  0  0  0  0  0  0  0  0
   58.6241   24.7009   43.8136 H   0  0  0  0  0  0  0  0  0  0  0  0
   58.0508   23.3579   44.8959 H   0  0  0  0  0  0  0  0  0  0  0  0
   56.7040   25.9020   44.2340 H   0  0  0  0  0  0  0  0  0  0  0  0
   54.9480   23.8125   44.1693 H   0  0  0  0  0  0  0  0  0  0  0  0
   55.7497   24.6339   42.7624 H   0  0  0  0  0  0  0  0  0  0  0  0
   56.9489   22.2655   44.2753 H   0  0  0  0  0  0  0  0  0  0  0  0
   55.9951   22.1212   42.7599 H   0  0  0  0  0  0  0  0  0  0  0  0
   57.5508   23.0193   42.7599 H   0  0  0  0  0  0  0  0  0  0  0  0
   54.9850   24.6646   45.8537 H   0  0  0  0  0  0  0  0  0  0  0  0
   56.5946   24.2769   46.6163 H   0  0  0  0  0  0  0  0  0  0  0  0
   55.2432   26.4535   47.3287 H   0  0  0  0  0  0  0  0  0  0  0  0
   57.0429   26.4695   47.1475 H   0  0  0  0  0  0  0  0  0  0  0  0
   58.7257   29.5085   46.8082 H   0  0  0  0  0  0  0  0  0  0  0  0
   59.6136   31.9304   47.5864 H   0  0  0  0  0  0  0  0  0  0  0  0
   59.5501   34.4041   47.1531 H   0  0  0  0  0  0  0  0  0  0  0  0
   58.1608   35.3203   45.2832 H   0  0  0  0  0  0  0  0  0  0  0  0
   56.8223   33.7662   43.8269 H   0  0  0  0  0  0  0  0  0  0  0  0
  1  2  1  0
  2  3  1  0
  3  4  1  0
  4  5  1  0
  3  6  1  0
  6  7  1  0
  7  8  1  0
  8  9  1  0
  9 10  2  0
  9 11  1  0
 11 12  2  0
 12 13  1  0
 13 14  2  0
 14 15  1  0
 15 16  2  0
 16 17  1  0
 17 18  2  0
 18 19  1  0
 19 11  1  0
 18 13  1  0
  1 20  1  0
  1 21  1  0
  1 22  1  0
  2 23  1  0
  2 24  1  0
  3 25  1  0
  4 26  1  0
  4 27  1  0
  5 28  1  0
  5 29  1  0
  5 30  1  0
  6 31  1  0
  6 32  1  0
  7 33  1  0
  7 34  1  0
 12 35  1  0
 14 36  1  0
 15 37  1  0
 16 38  1  0
 17 39  1  0
M  CHG  2   3   1   8  -1
M  END
>  <UniqueID>  (46) 
44

>  <SMILES>  (46) 
CC[NH+](CC)CC[N-]C(=O)c1cc2ccccc2s1

>  <Energy>  (46) 
72.25689818847985

>  <Genealogy>  (46) 
CC[NH+](CC)CC[N-]C(=O)c1cc2ccccc2s1 (protonated)
CC[NH+](CC)CC[N-]C(=O)c1cc2ccccc2s1 (3D coordinates assigned)
CC[NH+](CC)CC[N-]C(=O)c1cc2ccccc2s1 (optimized conformer: 72.25689818847985 kcal/mol)

>  <smiles>  (46) 
CCN(CC)CCNC(=O)c1cc2ccccc2s1

>  <score_type>  (46) 
oracle

>  <origin>  (46) 
adg

>  <m_score__min__energy>  (46) 
-6.3899999999999997

>  <m_primary>  (46) 
energy

$$$$
