0:0
     RDKit          3D

 43 45  0  0  0  0  0  0  0  0999 V2000
   56.6430   23.7160   43.3050 C   0  0  0  0  0  0  0  0  0  0  0  0
   56.6170   22.3480   42.6330 C   0  0  0  0  0  0  0  0  0  0  0  0
   55.9850   21.4000   43.4740 O   0  0  0  0  0  0  0  0  0  0  0  0
   56.9160   20.8380   44.3750 C   0  0  0  0  0  0  0  0  0  0  0  0
   56.2640   19.6570   45.0920 C   0  0  0  0  0  0  0  0  0  0  0  0
   55.7850   20.0500   46.4890 C   0  0  0  0  0  0  0  0  0  0  0  0
   55.5980   21.4930   46.5530 N   0  0  0  0  0  0  0  0  0  0  0  0
   56.5640   22.3770   47.1330 C   0  0  0  0  0  0  0  0  0  0  0  0
   57.3850   21.9330   47.9810 O   0  0  0  0  0  0  0  0  0  0  0  0
   56.6010   23.8050   46.7370 C   0  0  0  0  0  0  0  0  0  0  0  0
   55.4240   24.4680   46.3470 C   0  0  0  0  0  0  0  0  0  0  0  0
   55.4550   25.8140   45.9740 C   0  0  0  0  0  0  0  0  0  0  0  0
   56.6600   26.5190   45.9850 C   0  0  0  0  0  0  0  0  0  0  0  0
   56.6820   27.8280   45.6220 N   0  0  0  0  0  0  0  0  0  0  0  0
   57.8260   28.5660   45.6120 C   0  0  0  0  0  0  0  0  0  0  0  0
   57.7550   29.9850   45.2020 C   0  0  0  0  0  0  0  0  0  0  0  0
   57.3330   30.4930   43.9710 C   0  0  0  0  0  0  0  0  0  0  0  0
   57.3850   31.8900   43.8980 C   0  0  0  0  0  0  0  0  0  0  0  0
   57.8450   32.4820   45.0650 C   0  0  0  0  0  0  0  0  0  0  0  0
   58.0390   34.2000   45.3340 Cl  0  0  0  0  0  0  0  0  0  0  0  0
   58.1880   31.2820   46.1870 S   0  0  0  0  0  0  0  0  0  0  0  0
   59.0350   27.9600   45.9920 C   0  0  0  0  0  0  0  0  0  0  0  0
   59.0510   26.6150   46.3730 C   0  0  0  0  0  0  0  0  0  0  0  0
   60.1420   26.0810   46.7120 O   0  0  0  0  0  0  0  0  0  0  0  0
   57.8550   25.8740   46.3740 C   0  0  0  0  0  0  0  0  0  0  0  0
   57.8160   24.5170   46.7480 C   0  0  0  0  0  0  0  0  0  0  0  0
   56.6406   23.5879   44.3975 H   0  0  0  0  0  0  0  0  0  0  0  0
   57.5516   24.2565   43.0012 H   0  0  0  0  0  0  0  0  0  0  0  0
   55.7556   24.2907   43.0012 H   0  0  0  0  0  0  0  0  0  0  0  0
   56.0626   22.4194   41.6856 H   0  0  0  0  0  0  0  0  0  0  0  0
   57.6504   22.0236   42.4409 H   0  0  0  0  0  0  0  0  0  0  0  0
   57.8010   20.4906   43.8218 H   0  0  0  0  0  0  0  0  0  0  0  0
   57.2244   21.5951   45.1109 H   0  0  0  0  0  0  0  0  0  0  0  0
   55.4024   19.3112   44.5021 H   0  0  0  0  0  0  0  0  0  0  0  0
   57.0124   18.8573   45.1942 H   0  0  0  0  0  0  0  0  0  0  0  0
   54.8305   19.5472   46.7037 H   0  0  0  0  0  0  0  0  0  0  0  0
   56.5367   19.7456   47.2322 H   0  0  0  0  0  0  0  0  0  0  0  0
   54.4694   23.9215   46.3355 H   0  0  0  0  0  0  0  0  0  0  0  0
   54.5267   26.3201   45.6706 H   0  0  0  0  0  0  0  0  0  0  0  0
   56.9930   29.8573   43.1401 H   0  0  0  0  0  0  0  0  0  0  0  0
   57.0907   32.4608   43.0050 H   0  0  0  0  0  0  0  0  0  0  0  0
   59.9678   28.5429   45.9898 H   0  0  0  0  0  0  0  0  0  0  0  0
   58.7430   24.0085   47.0515 H   0  0  0  0  0  0  0  0  0  0  0  0
  1  2  1  0
  2  3  1  0
  3  4  1  0
  4  5  1  0
  5  6  1  0
  6  7  1  0
  7  8  1  0
  8  9  2  0
  8 10  1  0
 10 11  2  0
 11 12  1  0
 12 13  2  0
 13 14  1  0
 14 15  1  0
 15 16  1  0
 16 17  2  0
 17 18  1  0
 18 19  2  0
 19 20  1  0
 19 21  1  0
 15 22  2  0
 22 23  1  0
 23 24  2  0
 23 25  1  0
 25 26  2  0
 26 10  1  0
 25 13  1  0
 21 16  1  0
  1 27  1  0
  1 28  1  0
  1 29  1  0
  2 30  1  0
  2 31  1  0
  4 32  1  0
  4 33  1  0
  5 34  1  0
  5 35  1  0
  6 36  1  0
  6 37  1  0
 11 38  1  0
 12 39  1  0
 17 40  1  0
 18 41  1  0
 22 42  1  0
 26 43  1  0
M  CHG  2   7  -1  14  -1
M  END
>  <UniqueID>  (1) 
1

>  <SMILES>  (1) 
CCOCCC[N-]C(=O)c1ccc2[n-]c(-c3ccc(Cl)s3)cc(=O)c2c1

>  <Energy>  (1) 
70.59350319933208

>  <Genealogy>  (1) 
CCOCCC[N-]C(=O)c1ccc2[n-]c(-c3ccc(Cl)s3)cc(=O)c2c1 (protonated)
CCOCCC[N-]C(=O)c1ccc2[n-]c(-c3ccc(Cl)s3)cc(=O)c2c1 (3D coordinates assigned)
CCOCCC[N-]C(=O)c1ccc2[n-]c(-c3ccc(Cl)s3)cc(=O)c2c1 (optimized conformer: 70.59350319933208 kcal/mol)

>  <smiles>  (1) 
CCOCCCNC(=O)c1ccc2[nH]c(-c3ccc(Cl)s3)cc(=O)c2c1

>  <score_type>  (1) 
oracle

>  <origin>  (1) 
adg

>  <m_score__min__energy>  (1) 
-10.81

>  <m_primary>  (1) 
energy

$$$$
1:0
     RDKit          3D

 53 55  0  0  0  0  0  0  0  0999 V2000
   60.1870   28.6130   44.6210 C   0  0  0  0  0  0  0  0  0  0  0  0
   59.4560   28.6740   45.8270 O   0  0  0  0  0  0  0  0  0  0  0  0
   60.3030   28.4320   46.9370 C   0  0  0  0  0  0  0  0  0  0  0  0
   59.8740   29.2820   48.1590 C   0  0  1  0  0  0  0  0  0  0  0  0
   60.9870   29.3660   49.2270 C   0  0  0  0  0  0  0  0  0  0  0  0
   60.6120   30.1690   50.4200 N   0  0  0  0  0  0  0  0  0  0  0  0
   61.6190   31.2080   50.7270 C   0  0  0  0  0  0  0  0  0  0  0  0
   62.0690   31.9130   49.4800 C   0  0  0  0  0  0  0  0  0  0  0  0
   61.6260   33.2130   49.1890 C   0  0  0  0  0  0  0  0  0  0  0  0
   62.0730   33.8430   48.0260 C   0  0  0  0  0  0  0  0  0  0  0  0
   62.9510   33.1780   47.1680 C   0  0  0  0  0  0  0  0  0  0  0  0
   63.3720   31.8850   47.4900 C   0  0  0  0  0  0  0  0  0  0  0  0
   62.9270   31.2880   48.6280 N   0  0  0  0  0  0  0  0  0  0  0  0
   59.2300   30.6960   50.3700 C   0  0  0  0  0  0  0  0  0  0  0  0
   58.9270   31.4110   49.0420 C   0  0  0  0  0  0  0  0  0  0  0  0
   59.2900   30.6190   47.8280 N   0  0  1  0  0  0  0  0  0  0  0  0
   59.9720   31.4330   46.7680 C   0  0  0  0  0  0  0  0  0  0  0  0
   59.1430   32.5300   46.1070 C   0  0  0  0  0  0  0  0  0  0  0  0
   59.6850   33.8190   45.9480 C   0  0  0  0  0  0  0  0  0  0  0  0
   58.9450   34.8370   45.3460 C   0  0  0  0  0  0  0  0  0  0  0  0
   57.6690   34.5770   44.8550 C   0  0  0  0  0  0  0  0  0  0  0  0
   57.1400   33.2890   44.9320 C   0  0  0  0  0  0  0  0  0  0  0  0
   57.8790   32.2480   45.5300 C   0  0  0  0  0  0  0  0  0  0  0  0
   57.3910   30.9290   45.5570 O   0  0  0  0  0  0  0  0  0  0  0  0
   57.0340   30.1740   44.4040 C   0  0  0  0  0  0  0  0  0  0  0  0
   61.2599   28.5235   44.8467 H   0  0  0  0  0  0  0  0  0  0  0  0
   59.8607   27.7390   44.0383 H   0  0  0  0  0  0  0  0  0  0  0  0
   60.0101   29.5290   44.0383 H   0  0  0  0  0  0  0  0  0  0  0  0
   60.2503   27.3662   47.2040 H   0  0  0  0  0  0  0  0  0  0  0  0
   61.3308   28.7099   46.6605 H   0  0  0  0  0  0  0  0  0  0  0  0
   59.0324   28.7283   48.6009 H   0  0  0  0  0  0  0  0  0  0  0  0
   61.2285   28.3451   49.5577 H   0  0  0  0  0  0  0  0  0  0  0  0
   61.8450   29.8696   48.7577 H   0  0  0  0  0  0  0  0  0  0  0  0
   61.1774   31.9435   51.4155 H   0  0  0  0  0  0  0  0  0  0  0  0
   62.4921   30.7219   51.1868 H   0  0  0  0  0  0  0  0  0  0  0  0
   60.9340   33.7298   49.8702 H   0  0  0  0  0  0  0  0  0  0  0  0
   61.7340   34.8616   47.7861 H   0  0  0  0  0  0  0  0  0  0  0  0
   63.3073   33.6663   46.2490 H   0  0  0  0  0  0  0  0  0  0  0  0
   64.0636   31.3499   46.8227 H   0  0  0  0  0  0  0  0  0  0  0  0
   58.5272   29.8583   50.4894 H   0  0  0  0  0  0  0  0  0  0  0  0
   59.1198   31.4307   51.1812 H   0  0  0  0  0  0  0  0  0  0  0  0
   57.8492   31.6276   49.0040 H   0  0  0  0  0  0  0  0  0  0  0  0
   59.5434   32.3219   49.0234 H   0  0  0  0  0  0  0  0  0  0  0  0
   58.3690   30.3780   47.3870 H   0  0  0  0  0  0  0  0  0  0  0  0
   60.8502   31.9100   47.2276 H   0  0  0  0  0  0  0  0  0  0  0  0
   60.2047   30.7214   45.9621 H   0  0  0  0  0  0  0  0  0  0  0  0
   60.7053   34.0265   46.3030 H   0  0  0  0  0  0  0  0  0  0  0  0
   59.3710   35.8474   45.2592 H   0  0  0  0  0  0  0  0  0  0  0  0
   57.0772   35.3882   44.4058 H   0  0  0  0  0  0  0  0  0  0  0  0
   56.1395   33.0839   44.5234 H   0  0  0  0  0  0  0  0  0  0  0  0
   56.5830   29.2203   44.7154 H   0  0  0  0  0  0  0  0  0  0  0  0
   56.3096   30.7431   43.8029 H   0  0  0  0  0  0  0  0  0  0  0  0
   57.9335   29.9753   43.8029 H   0  0  0  0  0  0  0  0  0  0  0  0
  1  2  1  0
  2  3  1  0
  3  4  1  0
  4  5  1  0
  5  6  1  0
  6  7  1  0
  7  8  1  0
  8  9  2  0
  9 10  1  0
 10 11  2  0
 11 12  1  0
 12 13  2  0
  6 14  1  0
 14 15  1  0
 15 16  1  0
 16 17  1  0
 17 18  1  0
 18 19  2  0
 19 20  1  0
 20 21  2  0
 21 22  1  0
 22 23  2  0
 23 24  1  0
 24 25  1  0
 16  4  1  0
 23 18  1  0
 13  8  1  0
  1 26  1  0
  1 27  1  0
  1 28  1  0
  3 29  1  0
  3 30  1  0
  4 31  1  1
  5 32  1  0
  5 33  1  0
  7 34  1  0
  7 35  1  0
  9 36  1  0
 10 37  1  0
 11 38  1  0
 12 39  1  0
 14 40  1  0
 14 41  1  0
 15 42  1  0
 15 43  1  0
 16 44  1  6
 17 45  1  0
 17 46  1  0
 19 47  1  0
 20 48  1  0
 21 49  1  0
 22 50  1  0
 25 51  1  0
 25 52  1  0
 25 53  1  0
M  CHG  1  16   1
M  END
>  <UniqueID>  (2) 
2

>  <SMILES>  (2) 
COC[C@H]1CN(Cc2ccccn2)CC[N@H+]1Cc1ccccc1OC

>  <Energy>  (2) 
84.42686577107126

>  <Genealogy>  (2) 
COCC1CN(Cc2ccccn2)CC[NH+]1Cc1ccccc1OC (protonated)
COC[C@H]1CN(Cc2ccccn2)CC[N@H+]1Cc1ccccc1OC (chirality)
COC[C@H]1CN(Cc2ccccn2)CC[N@H+]1Cc1ccccc1OC (3D coordinates assigned)
COC[C@H]1CN(Cc2ccccn2)CC[N@H+]1Cc1ccccc1OC (nonaromatic ring conformer: 84.42686577107126 kcal/mol)

>  <smiles>  (2) 
COCC1CN(Cc2ccccn2)CCN1Cc1ccccc1OC

>  <score_type>  (2) 
oracle

>  <origin>  (2) 
adg

>  <m_score__min__energy>  (2) 
-5.6799999999999997

>  <m_primary>  (2) 
energy

$$$$
2:0
     RDKit          3D

 22 23  0  0  0  0  0  0  0  0999 V2000
   59.6410   34.7440   48.9870 O   0  0  0  0  0  0  0  0  0  0  0  0
   60.0370   34.2050   47.9170 C   0  0  0  0  0  0  0  0  0  0  0  0
   61.4520   33.7810   47.8090 C   0  0  0  0  0  0  0  0  0  0  0  0
   62.1150   33.8420   46.5730 C   0  0  0  0  0  0  0  0  0  0  0  0
   63.4540   33.4580   46.4860 C   0  0  0  0  0  0  0  0  0  0  0  0
   64.1190   33.0350   47.5950 N   0  0  0  0  0  0  0  0  0  0  0  0
   63.5070   32.9830   48.8100 C   0  0  0  0  0  0  0  0  0  0  0  0
   62.1680   33.3590   48.9400 C   0  0  0  0  0  0  0  0  0  0  0  0
   59.1070   34.0220   46.8360 N   0  0  0  0  0  0  0  0  0  0  0  0
   57.9770   33.2900   46.8880 C   0  0  0  0  0  0  0  0  0  0  0  0
   57.2980   33.3890   45.6900 C   0  0  0  0  0  0  0  0  0  0  0  0
   58.0430   34.2270   44.8840 C   0  0  0  0  0  0  0  0  0  0  0  0
   59.1460   34.6060   45.6200 C   0  0  0  0  0  0  0  0  0  0  0  0
   61.5813   34.1910   45.6767 H   0  0  0  0  0  0  0  0  0  0  0  0
   63.9736   33.4975   45.5172 H   0  0  0  0  0  0  0  0  0  0  0  0
   65.1210   32.7520   47.5150 H   0  0  0  0  0  0  0  0  0  0  0  0
   64.0690   32.6436   49.6926 H   0  0  0  0  0  0  0  0  0  0  0  0
   61.6772   33.3245   49.9238 H   0  0  0  0  0  0  0  0  0  0  0  0
   57.6449   32.7012   47.7558 H   0  0  0  0  0  0  0  0  0  0  0  0
   56.3496   32.8969   45.4288 H   0  0  0  0  0  0  0  0  0  0  0  0
   57.8033   34.5328   43.8549 H   0  0  0  0  0  0  0  0  0  0  0  0
   59.9387   35.2828   45.2686 H   0  0  0  0  0  0  0  0  0  0  0  0
  1  2  2  0
  2  3  1  0
  3  4  2  0
  4  5  1  0
  5  6  2  0
  6  7  1  0
  7  8  2  0
  2  9  1  0
  9 10  1  0
 10 11  2  0
 11 12  1  0
 12 13  2  0
  8  3  1  0
 13  9  1  0
  4 14  1  0
  5 15  1  0
  6 16  1  0
  7 17  1  0
  8 18  1  0
 10 19  1  0
 11 20  1  0
 12 21  1  0
 13 22  1  0
M  CHG  1   6   1
M  END
>  <UniqueID>  (3) 
3

>  <SMILES>  (3) 
O=C(c1cc[nH+]cc1)n1cccc1

>  <Energy>  (3) 
52.91620135263211

>  <Genealogy>  (3) 
O=C(c1cc[nH+]cc1)n1cccc1 (protonated)
O=C(c1cc[nH+]cc1)n1cccc1 (3D coordinates assigned)
O=C(c1cc[nH+]cc1)n1cccc1 (optimized conformer: 52.91620135263211 kcal/mol)

>  <smiles>  (3) 
O=C(c1ccncc1)n1cccc1

>  <score_type>  (3) 
oracle

>  <origin>  (3) 
adg

>  <m_score__min__energy>  (3) 
-4.1500000000000004

>  <m_primary>  (3) 
energy

$$$$
3:0
     RDKit          3D

 32 33  0  0  0  0  0  0  0  0999 V2000
   57.1490   25.4420   45.3590 N   0  0  0  0  0  0  0  0  0  0  0  0
   56.5230   26.6860   45.6790 C   0  0  0  0  0  0  0  0  0  0  0  0
   55.2980   26.7020   45.9710 O   0  0  0  0  0  0  0  0  0  0  0  0
   57.2900   27.9520   45.6300 C   0  0  0  0  0  0  0  0  0  0  0  0
   58.6380   27.9330   46.0240 C   0  0  0  0  0  0  0  0  0  0  0  0
   59.4200   29.0810   45.9290 C   0  0  0  0  0  0  0  0  0  0  0  0
   58.8740   30.2650   45.4390 C   0  0  0  0  0  0  0  0  0  0  0  0
   57.5210   30.3200   45.0550 C   0  0  0  0  0  0  0  0  0  0  0  0
   56.9360   31.5070   44.5770 O   0  0  0  0  0  0  0  0  0  0  0  0
   57.6450   32.6380   44.0690 C   0  0  0  0  0  0  0  0  0  0  0  0
   58.2340   33.4490   45.1930 C   0  0  0  0  0  0  0  0  0  0  0  0
   59.0990   34.5200   44.9120 C   0  0  0  0  0  0  0  0  0  0  0  0
   59.6560   35.2680   45.9540 C   0  0  0  0  0  0  0  0  0  0  0  0
   59.3610   34.9470   47.2820 C   0  0  0  0  0  0  0  0  0  0  0  0
   58.5110   33.8770   47.5710 C   0  0  0  0  0  0  0  0  0  0  0  0
   57.9520   33.1250   46.5320 C   0  0  0  0  0  0  0  0  0  0  0  0
   56.7210   29.1620   45.1550 C   0  0  0  0  0  0  0  0  0  0  0  0
   55.3240   29.2460   44.8280 N   0  0  0  0  0  0  0  0  0  0  0  0
   56.5920   24.5590   45.3570 H   0  0  0  0  0  0  0  0  0  0  0  0
   58.1740   25.3880   45.1670 H   0  0  0  0  0  0  0  0  0  0  0  0
   59.0798   27.0029   46.4110 H   0  0  0  0  0  0  0  0  0  0  0  0
   60.4740   29.0528   46.2424 H   0  0  0  0  0  0  0  0  0  0  0  0
   59.5040   31.1625   45.3516 H   0  0  0  0  0  0  0  0  0  0  0  0
   58.4557   32.2901   43.4120 H   0  0  0  0  0  0  0  0  0  0  0  0
   56.9425   33.2715   43.5077 H   0  0  0  0  0  0  0  0  0  0  0  0
   59.3390   34.7711   43.8683 H   0  0  0  0  0  0  0  0  0  0  0  0
   60.3270   36.1099   45.7283 H   0  0  0  0  0  0  0  0  0  0  0  0
   59.7987   35.5376   48.1003 H   0  0  0  0  0  0  0  0  0  0  0  0
   58.2808   33.6253   48.6168 H   0  0  0  0  0  0  0  0  0  0  0  0
   57.2898   32.2776   46.7633 H   0  0  0  0  0  0  0  0  0  0  0  0
   54.7920   30.1370   44.9440 H   0  0  0  0  0  0  0  0  0  0  0  0
   54.7700   28.4040   44.5560 H   0  0  0  0  0  0  0  0  0  0  0  0
  1  2  1  0
  2  3  2  0
  2  4  1  0
  4  5  2  0
  5  6  1  0
  6  7  2  0
  7  8  1  0
  8  9  1  0
  9 10  1  0
 10 11  1  0
 11 12  2  0
 12 13  1  0
 13 14  2  0
 14 15  1  0
 15 16  2  0
  8 17  2  0
 17 18  1  0
 17  4  1  0
 16 11  1  0
  1 19  1  0
  1 20  1  0
  5 21  1  0
  6 22  1  0
  7 23  1  0
 10 24  1  0
 10 25  1  0
 12 26  1  0
 13 27  1  0
 14 28  1  0
 15 29  1  0
 16 30  1  0
 18 31  1  0
 18 32  1  0
M  END
>  <UniqueID>  (4) 
4

>  <SMILES>  (4) 
NC(=O)c1cccc(OCc2ccccc2)c1N

>  <Energy>  (4) 
37.550993127505336

>  <Genealogy>  (4) 
NC(=O)c1cccc(OCc2ccccc2)c1N (3D coordinates assigned)
NC(=O)c1cccc(OCc2ccccc2)c1N (optimized conformer: 37.550993127505336 kcal/mol)

>  <smiles>  (4) 
NC(=O)c1cccc(OCc2ccccc2)c1N

>  <score_type>  (4) 
oracle

>  <origin>  (4) 
adg

>  <m_score__min__energy>  (4) 
-7.7400000000000002

>  <m_primary>  (4) 
energy

$$$$
4:0
     RDKit          3D

 45 47  0  0  0  0  0  0  0  0999 V2000
   57.5530   33.3370   44.8550 C   0  0  0  0  0  0  0  0  0  0  0  0
   57.7270   31.9180   44.3130 C   0  0  0  0  0  0  0  0  0  0  0  0
   57.1370   30.8750   45.1820 N   0  0  0  0  0  0  0  0  0  0  0  0
   56.2350   29.9210   44.4870 C   0  0  0  0  0  0  0  0  0  0  0  0
   56.2720   29.9860   42.9530 C   0  0  0  0  0  0  0  0  0  0  0  0
   58.0740   30.3160   46.1840 C   0  0  0  0  0  0  0  0  0  0  0  0
   59.3750   29.8550   45.5240 C   0  0  0  0  0  0  0  0  0  0  0  0
   59.0950   29.0970   44.3520 O   0  0  0  0  0  0  0  0  0  0  0  0
   58.6370   27.7720   44.3490 C   0  0  0  0  0  0  0  0  0  0  0  0
   58.1780   27.1340   43.1820 C   0  0  0  0  0  0  0  0  0  0  0  0
   57.7300   25.8100   43.2320 C   0  0  0  0  0  0  0  0  0  0  0  0
   57.7180   25.1130   44.4480 C   0  0  0  0  0  0  0  0  0  0  0  0
   57.2750   23.7080   44.4940 C   0  0  0  0  0  0  0  0  0  0  0  0
   58.0880   22.6310   44.0940 C   0  0  0  0  0  0  0  0  0  0  0  0
   57.3390   21.1370   44.4670 S   0  0  0  0  0  0  0  0  0  0  0  0
   55.9980   21.9020   45.1070 C   0  0  0  0  0  0  0  0  0  0  0  0
   54.8580   21.4720   45.6620 N   0  0  0  0  0  0  0  0  0  0  0  0
   54.1690   22.5740   45.9540 N   0  0  0  0  0  0  0  0  0  0  0  0
   54.8820   23.6720   45.5800 C   0  0  0  0  0  0  0  0  0  0  0  0
   54.3430   25.0370   45.6400 C   0  0  0  0  0  0  0  0  0  0  0  0
   55.1790   26.1370   45.9870 N   0  0  0  0  0  0  0  0  0  0  0  0
   53.1420   25.2470   45.3210 O   0  0  0  0  0  0  0  0  0  0  0  0
   56.0800   23.2350   45.0450 C   0  0  0  0  0  0  0  0  0  0  0  0
   58.1960   25.7430   45.6080 C   0  0  0  0  0  0  0  0  0  0  0  0
   58.6440   27.0660   45.5560 C   0  0  0  0  0  0  0  0  0  0  0  0
   57.5560   33.3124   45.9547 H   0  0  0  0  0  0  0  0  0  0  0  0
   58.3804   33.9691   44.5001 H   0  0  0  0  0  0  0  0  0  0  0  0
   56.5974   33.7505   44.5001 H   0  0  0  0  0  0  0  0  0  0  0  0
   57.2453   31.8614   43.3257 H   0  0  0  0  0  0  0  0  0  0  0  0
   58.8083   31.7223   44.2629 H   0  0  0  0  0  0  0  0  0  0  0  0
   56.5172   28.9023   44.7914 H   0  0  0  0  0  0  0  0  0  0  0  0
   55.2119   30.1993   44.7799 H   0  0  0  0  0  0  0  0  0  0  0  0
   56.7933   30.9018   42.6373 H   0  0  0  0  0  0  0  0  0  0  0  0
   56.8052   29.1071   42.5615 H   0  0  0  0  0  0  0  0  0  0  0  0
   55.2441   29.9957   42.5615 H   0  0  0  0  0  0  0  0  0  0  0  0
   58.3046   31.0897   46.9312 H   0  0  0  0  0  0  0  0  0  0  0  0
   57.5975   29.4473   46.6617 H   0  0  0  0  0  0  0  0  0  0  0  0
   59.9751   30.7357   45.2514 H   0  0  0  0  0  0  0  0  0  0  0  0
   59.9308   29.2239   46.2330 H   0  0  0  0  0  0  0  0  0  0  0  0
   58.1715   27.6787   42.2264 H   0  0  0  0  0  0  0  0  0  0  0  0
   57.3855   25.3135   42.3129 H   0  0  0  0  0  0  0  0  0  0  0  0
   59.0696   22.7347   43.6085 H   0  0  0  0  0  0  0  0  0  0  0  0
   54.7800   27.0020   46.4130 H   0  0  0  0  0  0  0  0  0  0  0  0
   58.2180   25.1937   46.5608 H   0  0  0  0  0  0  0  0  0  0  0  0
   59.0051   27.5559   46.4723 H   0  0  0  0  0  0  0  0  0  0  0  0
  1  2  1  0
  2  3  1  0
  3  4  1  0
  4  5  1  0
  3  6  1  0
  6  7  1  0
  7  8  1  0
  8  9  1  0
  9 10  2  0
 10 11  1  0
 11 12  2  0
 12 13  1  0
 13 14  2  0
 14 15  1  0
 15 16  1  0
 16 17  1  0
 17 18  1  0
 18 19  2  0
 19 20  1  0
 20 21  1  0
 20 22  2  0
 19 23  1  0
 12 24  1  0
 24 25  2  0
 25  9  1  0
 23 13  1  0
 23 16  2  0
  1 26  1  0
  1 27  1  0
  1 28  1  0
  2 29  1  0
  2 30  1  0
  4 31  1  0
  4 32  1  0
  5 33  1  0
  5 34  1  0
  5 35  1  0
  6 36  1  0
  6 37  1  0
  7 38  1  0
  7 39  1  0
 10 40  1  0
 11 41  1  0
 14 42  1  0
 21 43  1  0
 24 44  1  0
 25 45  1  0
M  CHG  2  17  -1  21  -1
M  END
>  <UniqueID>  (5) 
5

>  <SMILES>  (5) 
CCN(CC)CCOc1ccc(-c2csc3[n-]nc(C([NH-])=O)c23)cc1

>  <Energy>  (5) 
138.16702323726747

>  <Genealogy>  (5) 
CCN(CC)CCOc1ccc(-c2csc3[n-]nc(C([NH-])=O)c23)cc1 (protonated)
CCN(CC)CCOc1ccc(-c2csc3[n-]nc(C([NH-])=O)c23)cc1 (3D coordinates assigned)
CCN(CC)CCOc1ccc(-c2csc3[n-]nc(C([NH-])=O)c23)cc1 (optimized conformer: 138.16702323726747 kcal/mol)

>  <smiles>  (5) 
CCN(CC)CCOc1ccc(-c2csc3[nH]nc(C(N)=O)c23)cc1

>  <score_type>  (5) 
oracle

>  <origin>  (5) 
adg

>  <m_score__min__energy>  (5) 
-11.32

>  <m_primary>  (5) 
energy

$$$$
5:0
     RDKit          3D

 43 46  0  0  0  0  0  0  0  0999 V2000
   58.1760   27.8360   43.7490 C   0  0  0  0  0  0  0  0  0  0  0  0
   57.8750   28.2160   45.0870 O   0  0  0  0  0  0  0  0  0  0  0  0
   58.0720   29.5010   45.6150 C   0  0  0  0  0  0  0  0  0  0  0  0
   57.8110   30.6620   44.8680 C   0  0  0  0  0  0  0  0  0  0  0  0
   58.0200   31.9340   45.4180 C   0  0  0  0  0  0  0  0  0  0  0  0
   58.5210   32.0590   46.7320 C   0  0  0  0  0  0  0  0  0  0  0  0
   58.7520   30.8910   47.4860 C   0  0  0  0  0  0  0  0  0  0  0  0
   58.5430   29.6160   46.9280 C   0  0  0  0  0  0  0  0  0  0  0  0
   58.7890   28.4370   47.6490 O   0  0  0  0  0  0  0  0  0  0  0  0
   59.9430   27.6160   47.4920 C   0  0  0  0  0  0  0  0  0  0  0  0
   58.6610   33.4580   47.3280 C   0  0  1  0  0  0  0  0  0  0  0  0
   59.6380   33.6130   48.5070 C   0  0  0  0  0  0  0  0  0  0  0  0
   61.0650   33.5010   48.0580 C   0  0  0  0  0  0  0  0  0  0  0  0
   62.0590   33.1330   48.9790 C   0  0  0  0  0  0  0  0  0  0  0  0
   63.4020   33.1040   48.5920 C   0  0  0  0  0  0  0  0  0  0  0  0
   64.6370   32.6330   49.7450 Cl  0  0  0  0  0  0  0  0  0  0  0  0
   63.7610   33.4580   47.2880 C   0  0  0  0  0  0  0  0  0  0  0  0
   62.7790   33.8390   46.3700 C   0  0  0  0  0  0  0  0  0  0  0  0
   61.4280   33.8780   46.7490 C   0  0  0  0  0  0  0  0  0  0  0  0
   60.3820   34.2100   45.7090 C   0  0  0  0  0  0  0  0  0  0  0  0
   59.0330   34.4390   46.2860 N   0  0  0  0  0  0  0  0  0  0  0  0
   57.9910   34.4960   45.2440 C   0  0  0  0  0  0  0  0  0  0  0  0
   57.7640   33.1420   44.5420 C   0  0  0  0  0  0  0  0  0  0  0  0
   58.8590   26.9738   43.7575 H   0  0  0  0  0  0  0  0  0  0  0  0
   57.2468   27.5626   43.2276 H   0  0  0  0  0  0  0  0  0  0  0  0
   58.6549   28.6779   43.2276 H   0  0  0  0  0  0  0  0  0  0  0  0
   57.4375   30.5713   43.8373 H   0  0  0  0  0  0  0  0  0  0  0  0
   59.1007   30.9771   48.5257 H   0  0  0  0  0  0  0  0  0  0  0  0
   60.3331   27.3385   48.4824 H   0  0  0  0  0  0  0  0  0  0  0  0
   59.6727   26.7060   46.9362 H   0  0  0  0  0  0  0  0  0  0  0  0
   60.7141   28.1697   46.9362 H   0  0  0  0  0  0  0  0  0  0  0  0
   57.6601   33.6494   47.7422 H   0  0  0  0  0  0  0  0  0  0  0  0
   59.4855   34.5990   48.9701 H   0  0  0  0  0  0  0  0  0  0  0  0
   59.4391   32.8063   49.2279 H   0  0  0  0  0  0  0  0  0  0  0  0
   61.7798   32.8665   50.0091 H   0  0  0  0  0  0  0  0  0  0  0  0
   64.8180   33.4365   46.9843 H   0  0  0  0  0  0  0  0  0  0  0  0
   63.0665   34.1102   45.3435 H   0  0  0  0  0  0  0  0  0  0  0  0
   60.6942   35.1215   45.1782 H   0  0  0  0  0  0  0  0  0  0  0  0
   60.3057   33.3439   45.0351 H   0  0  0  0  0  0  0  0  0  0  0  0
   57.0461   34.8114   45.7105 H   0  0  0  0  0  0  0  0  0  0  0  0
   58.3305   35.2097   44.4789 H   0  0  0  0  0  0  0  0  0  0  0  0
   56.7197   33.1031   44.1985 H   0  0  0  0  0  0  0  0  0  0  0  0
   58.4886   33.0907   43.7160 H   0  0  0  0  0  0  0  0  0  0  0  0
  1  2  1  0
  2  3  1  0
  3  4  2  0
  4  5  1  0
  5  6  2  0
  6  7  1  0
  7  8  2  0
  8  9  1  0
  9 10  1  0
  6 11  1  0
 11 12  1  0
 12 13  1  0
 13 14  2  0
 14 15  1  0
 15 16  1  0
 15 17  2  0
 17 18  1  0
 18 19  2  0
 19 20  1  0
 20 21  1  0
 21 22  1  0
 22 23  1  0
  8  3  1  0
 21 11  1  0
 23  5  1  0
 19 13  1  0
  1 24  1  0
  1 25  1  0
  1 26  1  0
  4 27  1  0
  7 28  1  0
 10 29  1  0
 10 30  1  0
 10 31  1  0
 11 32  1  1
 12 33  1  0
 12 34  1  0
 14 35  1  0
 17 36  1  0
 18 37  1  0
 20 38  1  0
 20 39  1  0
 22 40  1  0
 22 41  1  0
 23 42  1  0
 23 43  1  0
M  END
>  <UniqueID>  (6) 
6

>  <SMILES>  (6) 
COc1cc2c(cc1OC)[C@H]1Cc3cc(Cl)ccc3CN1CC2

>  <Energy>  (6) 
59.80797435705512

>  <Genealogy>  (6) 
COc1cc2c(cc1OC)[C@H]1Cc3cc(Cl)ccc3CN1CC2 (chirality)
COc1cc2c(cc1OC)[C@H]1Cc3cc(Cl)ccc3CN1CC2 (3D coordinates assigned)
COc1cc2c(cc1OC)[C@H]1Cc3cc(Cl)ccc3CN1CC2 (nonaromatic ring conformer: 59.80797435705512 kcal/mol)

>  <smiles>  (6) 
COc1cc2c(cc1OC)C1Cc3cc(Cl)ccc3CN1CC2

>  <score_type>  (6) 
oracle

>  <origin>  (6) 
adg

>  <m_score__min__energy>  (6) 
-7.96

>  <m_primary>  (6) 
energy

$$$$
6:0
     RDKit          3D

 45 47  0  0  0  0  0  0  0  0999 V2000
   55.1860   29.3760   44.4750 O   0  0  0  0  0  0  0  0  0  0  0  0
   56.6340   28.9760   44.5280 S   0  0  0  0  0  0  0  0  0  0  0  0
   57.1120   28.7370   43.1220 O   0  0  0  0  0  0  0  0  0  0  0  0
   56.7870   27.5090   45.4520 N   0  0  0  0  0  0  0  0  0  0  0  0
   58.1140   26.9300   45.2330 C   0  0  0  0  0  0  0  0  0  0  0  0
   58.0490   25.3980   45.2750 C   0  0  0  0  0  0  0  0  0  0  0  0
   56.8040   24.8530   44.6930 N   0  0  0  0  0  0  0  0  0  0  0  0
   56.8870   24.4650   43.2640 C   0  0  0  0  0  0  0  0  0  0  0  0
   56.2870   23.0840   42.9700 C   0  0  0  0  0  0  0  0  0  0  0  0
   56.7520   22.0760   44.0160 C   0  0  0  0  0  0  0  0  0  0  0  0
   56.2670   20.8020   43.6780 O   0  0  0  0  0  0  0  0  0  0  0  0
   56.2580   22.4780   45.4190 C   0  0  0  0  0  0  0  0  0  0  0  0
   55.9940   23.9920   45.5850 C   0  0  0  0  0  0  0  0  0  0  0  0
   57.5750   30.2780   45.2570 C   0  0  0  0  0  0  0  0  0  0  0  0
   58.5480   29.9860   46.2210 C   0  0  0  0  0  0  0  0  0  0  0  0
   59.3520   31.0040   46.7450 C   0  0  0  0  0  0  0  0  0  0  0  0
   59.1990   32.3240   46.2970 C   0  0  0  0  0  0  0  0  0  0  0  0
   60.0130   33.3510   46.8000 C   0  0  0  0  0  0  0  0  0  0  0  0
   59.8580   34.6600   46.3350 C   0  0  0  0  0  0  0  0  0  0  0  0
   58.8930   34.9540   45.3680 C   0  0  0  0  0  0  0  0  0  0  0  0
   58.0720   33.9420   44.8620 C   0  0  0  0  0  0  0  0  0  0  0  0
   58.2180   32.6230   45.3200 C   0  0  0  0  0  0  0  0  0  0  0  0
   57.4090   31.5970   44.8120 C   0  0  0  0  0  0  0  0  0  0  0  0
   56.0710   26.8450   45.0750 H   0  0  0  0  0  0  0  0  0  0  0  0
   58.4896   27.2489   44.2496 H   0  0  0  0  0  0  0  0  0  0  0  0
   58.7883   27.2780   46.0294 H   0  0  0  0  0  0  0  0  0  0  0  0
   58.9039   24.9960   44.7115 H   0  0  0  0  0  0  0  0  0  0  0  0
   58.0746   25.0980   46.3330 H   0  0  0  0  0  0  0  0  0  0  0  0
   56.3456   25.2142   42.6676 H   0  0  0  0  0  0  0  0  0  0  0  0
   57.9545   24.4167   43.0029 H   0  0  0  0  0  0  0  0  0  0  0  0
   55.1893   23.1520   42.9932 H   0  0  0  0  0  0  0  0  0  0  0  0
   56.6209   22.7510   41.9762 H   0  0  0  0  0  0  0  0  0  0  0  0
   57.8517   22.0594   44.0340 H   0  0  0  0  0  0  0  0  0  0  0  0
   57.0340   20.1750   43.7560 H   0  0  0  0  0  0  0  0  0  0  0  0
   55.3207   21.9395   45.6227 H   0  0  0  0  0  0  0  0  0  0  0  0
   57.0601   22.2165   46.1249 H   0  0  0  0  0  0  0  0  0  0  0  0
   54.9310   24.1815   45.3747 H   0  0  0  0  0  0  0  0  0  0  0  0
   56.2784   24.2503   46.6157 H   0  0  0  0  0  0  0  0  0  0  0  0
   58.6808   28.9507   46.5681 H   0  0  0  0  0  0  0  0  0  0  0  0
   60.1061   30.7684   47.5104 H   0  0  0  0  0  0  0  0  0  0  0  0
   60.7741   33.1253   47.5614 H   0  0  0  0  0  0  0  0  0  0  0  0
   60.4981   35.4618   46.7318 H   0  0  0  0  0  0  0  0  0  0  0  0
   58.7790   35.9856   45.0036 H   0  0  0  0  0  0  0  0  0  0  0  0
   57.3108   34.1794   44.1042 H   0  0  0  0  0  0  0  0  0  0  0  0
   56.6399   31.8281   44.0603 H   0  0  0  0  0  0  0  0  0  0  0  0
  1  2  2  0
  2  3  2  0
  2  4  1  0
  4  5  1  0
  5  6  1  0
  6  7  1  0
  7  8  1  0
  8  9  1  0
  9 10  1  0
 10 11  1  0
 10 12  1  0
 12 13  1  0
  2 14  1  0
 14 15  2  0
 15 16  1  0
 16 17  2  0
 17 18  1  0
 18 19  2  0
 19 20  1  0
 20 21  2  0
 21 22  1  0
 22 23  2  0
 13  7  1  0
 23 14  1  0
 22 17  1  0
  4 24  1  0
  5 25  1  0
  5 26  1  0
  6 27  1  0
  6 28  1  0
  8 29  1  0
  8 30  1  0
  9 31  1  0
  9 32  1  0
 10 33  1  0
 11 34  1  0
 12 35  1  0
 12 36  1  0
 13 37  1  0
 13 38  1  0
 15 39  1  0
 16 40  1  0
 18 41  1  0
 19 42  1  0
 20 43  1  0
 21 44  1  0
 23 45  1  0
M  END
>  <UniqueID>  (7) 
7

>  <SMILES>  (7) 
O=S(=O)(NCCN1CCC(O)CC1)c1ccc2ccccc2c1

>  <Energy>  (7) 
55.88510364112862

>  <Genealogy>  (7) 
O=S(=O)(NCCN1CCC(O)CC1)c1ccc2ccccc2c1 (3D coordinates assigned)
O=S(=O)(NCCN1CCC(O)CC1)c1ccc2ccccc2c1 (nonaromatic ring conformer: 55.88510364112862 kcal/mol)

>  <smiles>  (7) 
O=S(=O)(NCCN1CCC(O)CC1)c1ccc2ccccc2c1

>  <score_type>  (7) 
oracle

>  <origin>  (7) 
adg

>  <m_score__min__energy>  (7) 
-9.4700000000000006

>  <m_primary>  (7) 
energy

$$$$
7:0
     RDKit          3D

 51 53  0  0  0  0  0  0  0  0999 V2000
   59.0880   34.9960   46.7780 O   0  0  0  0  0  0  0  0  0  0  0  0
   58.7090   33.8560   47.1650 C   0  0  0  0  0  0  0  0  0  0  0  0
   58.0830   32.9590   46.2340 N   0  0  0  0  0  0  0  0  0  0  0  0
   57.8120   33.3320   44.8470 C   0  0  0  0  0  0  0  0  0  0  0  0
   57.3900   32.1040   44.0340 C   0  0  0  0  0  0  0  0  0  0  0  0
   57.1230   30.9980   44.8960 O   0  0  0  0  0  0  0  0  0  0  0  0
   57.6960   29.7180   44.7920 C   0  0  0  0  0  0  0  0  0  0  0  0
   57.4130   28.8480   43.7190 C   0  0  0  0  0  0  0  0  0  0  0  0
   58.0090   27.5860   43.6580 C   0  0  0  0  0  0  0  0  0  0  0  0
   58.8910   27.1790   44.6590 C   0  0  0  0  0  0  0  0  0  0  0  0
   59.1830   28.0340   45.7240 C   0  0  0  0  0  0  0  0  0  0  0  0
   58.5880   29.3090   45.7970 C   0  0  0  0  0  0  0  0  0  0  0  0
   58.8550   30.1950   46.8520 O   0  0  0  0  0  0  0  0  0  0  0  0
   60.0610   30.2100   47.6100 C   0  0  0  0  0  0  0  0  0  0  0  0
   61.1050   31.0710   46.8780 C   0  0  0  0  0  0  0  0  0  0  0  0
   61.4880   32.3150   47.5890 N   0  0  0  0  0  0  0  0  0  0  0  0
   62.5710   32.1320   48.5630 C   0  0  0  0  0  0  0  0  0  0  0  0
   63.8420   32.7300   47.9760 C   0  0  0  0  0  0  0  0  0  0  0  0
   63.4060   33.5470   46.7730 C   0  0  0  0  0  0  0  0  0  0  0  0
   61.8920   33.4070   46.6950 C   0  0  0  0  0  0  0  0  0  0  0  0
   58.9190   33.4520   48.5720 C   0  0  0  0  0  0  0  0  0  0  0  0
   59.7400   34.2060   49.4290 C   0  0  0  0  0  0  0  0  0  0  0  0
   59.9140   33.7960   50.7530 C   0  0  0  0  0  0  0  0  0  0  0  0
   59.2730   32.6460   51.2140 C   0  0  0  0  0  0  0  0  0  0  0  0
   58.4640   31.9180   50.3400 C   0  0  0  0  0  0  0  0  0  0  0  0
   58.3070   32.3320   49.0530 N   0  0  0  0  0  0  0  0  0  0  0  0
   57.8560   31.9820   46.5290 H   0  0  0  0  0  0  0  0  0  0  0  0
   57.0030   34.0770   44.8239 H   0  0  0  0  0  0  0  0  0  0  0  0
   58.7277   33.7530   44.4063 H   0  0  0  0  0  0  0  0  0  0  0  0
   56.4816   32.3440   43.4619 H   0  0  0  0  0  0  0  0  0  0  0  0
   58.2088   31.8321   43.3517 H   0  0  0  0  0  0  0  0  0  0  0  0
   56.7195   29.1646   42.9260 H   0  0  0  0  0  0  0  0  0  0  0  0
   57.7823   26.9119   42.8189 H   0  0  0  0  0  0  0  0  0  0  0  0
   59.3570   26.1838   44.6096 H   0  0  0  0  0  0  0  0  0  0  0  0
   59.8812   27.7103   46.5099 H   0  0  0  0  0  0  0  0  0  0  0  0
   59.8652   30.6354   48.6053 H   0  0  0  0  0  0  0  0  0  0  0  0
   60.4405   29.1837   47.7230 H   0  0  0  0  0  0  0  0  0  0  0  0
   62.0114   30.4642   46.7360 H   0  0  0  0  0  0  0  0  0  0  0  0
   60.6420   31.3836   45.9305 H   0  0  0  0  0  0  0  0  0  0  0  0
   62.3176   32.6443   49.5028 H   0  0  0  0  0  0  0  0  0  0  0  0
   62.7160   31.0624   48.7748 H   0  0  0  0  0  0  0  0  0  0  0  0
   64.3377   33.3752   48.7163 H   0  0  0  0  0  0  0  0  0  0  0  0
   64.5603   31.9471   47.6912 H   0  0  0  0  0  0  0  0  0  0  0  0
   63.6856   34.6025   46.9065 H   0  0  0  0  0  0  0  0  0  0  0  0
   63.8906   33.1947   45.8505 H   0  0  0  0  0  0  0  0  0  0  0  0
   61.4140   34.3453   47.0130 H   0  0  0  0  0  0  0  0  0  0  0  0
   61.5823   33.1883   45.6624 H   0  0  0  0  0  0  0  0  0  0  0  0
   60.2418   35.1124   49.0594 H   0  0  0  0  0  0  0  0  0  0  0  0
   60.5552   34.3788   51.4307 H   0  0  0  0  0  0  0  0  0  0  0  0
   59.4037   32.3164   52.2553 H   0  0  0  0  0  0  0  0  0  0  0  0
   57.9532   31.0094   50.6915 H   0  0  0  0  0  0  0  0  0  0  0  0
  1  2  2  0
  2  3  1  0
  3  4  1  0
  4  5  1  0
  5  6  1  0
  6  7  1  0
  7  8  2  0
  8  9  1  0
  9 10  2  0
 10 11  1  0
 11 12  2  0
 12 13  1  0
 13 14  1  0
 14 15  1  0
 15 16  1  0
 16 17  1  0
 17 18  1  0
 18 19  1  0
 19 20  1  0
  2 21  1  0
 21 22  2  0
 22 23  1  0
 23 24  2  0
 24 25  1  0
 25 26  2  0
 12  7  1  0
 20 16  1  0
 26 21  1  0
  3 27  1  0
  4 28  1  0
  4 29  1  0
  5 30  1  0
  5 31  1  0
  8 32  1  0
  9 33  1  0
 10 34  1  0
 11 35  1  0
 14 36  1  0
 14 37  1  0
 15 38  1  0
 15 39  1  0
 17 40  1  0
 17 41  1  0
 18 42  1  0
 18 43  1  0
 19 44  1  0
 19 45  1  0
 20 46  1  0
 20 47  1  0
 22 48  1  0
 23 49  1  0
 24 50  1  0
 25 51  1  0
M  END
>  <UniqueID>  (8) 
8

>  <SMILES>  (8) 
O=C(NCCOc1ccccc1OCCN1CCCC1)c1ccccn1

>  <Energy>  (8) 
53.20085569878937

>  <Genealogy>  (8) 
O=C(NCCOc1ccccc1OCCN1CCCC1)c1ccccn1 (3D coordinates assigned)
O=C(NCCOc1ccccc1OCCN1CCCC1)c1ccccn1 (nonaromatic ring conformer: 53.20085569878937 kcal/mol)

>  <smiles>  (8) 
O=C(NCCOc1ccccc1OCCN1CCCC1)c1ccccn1

>  <score_type>  (8) 
oracle

>  <origin>  (8) 
adg

>  <m_score__min__energy>  (8) 
-7.71

>  <m_primary>  (8) 
energy

$$$$
8:0
     RDKit          3D

 39 41  0  0  0  0  0  0  0  0999 V2000
   55.5500   29.7840   43.9390 C   0  0  0  0  0  0  0  0  0  0  0  0
   56.6470   30.8260   43.7300 C   0  0  0  0  0  0  0  0  0  0  0  0
   57.0540   31.4620   45.0020 N   0  0  0  0  0  0  0  0  0  0  0  0
   58.0820   30.6720   45.6970 C   0  0  0  0  0  0  0  0  0  0  0  0
   57.3850   32.9070   44.9190 C   0  0  0  0  0  0  0  0  0  0  0  0
   57.5220   33.6570   46.2700 C   0  0  0  0  0  0  0  0  0  0  0  0
   58.8020   33.3910   46.9460 N   0  0  0  0  0  0  0  0  0  0  0  0
   60.0370   33.8740   46.3830 C   0  0  0  0  0  0  0  0  0  0  0  0
   60.0190   34.6560   45.3930 O   0  0  0  0  0  0  0  0  0  0  0  0
   61.3300   33.4620   46.9740 C   0  0  0  0  0  0  0  0  0  0  0  0
   62.5430   33.8340   46.3700 C   0  0  0  0  0  0  0  0  0  0  0  0
   63.7620   33.4440   46.9270 C   0  0  0  0  0  0  0  0  0  0  0  0
   63.7910   32.6790   48.0920 C   0  0  0  0  0  0  0  0  0  0  0  0
   62.5940   32.2960   48.7150 C   0  0  0  0  0  0  0  0  0  0  0  0
   62.6230   31.5330   49.8900 C   0  0  0  0  0  0  0  0  0  0  0  0
   61.4330   31.1570   50.5120 C   0  0  0  0  0  0  0  0  0  0  0  0
   60.2040   31.5340   49.9690 C   0  0  0  0  0  0  0  0  0  0  0  0
   60.1490   32.2980   48.7890 C   0  0  0  0  0  0  0  0  0  0  0  0
   61.3500   32.6850   48.1540 C   0  0  0  0  0  0  0  0  0  0  0  0
   58.8450   32.6870   48.2050 C   0  0  0  0  0  0  0  0  0  0  0  0
   57.7750   32.3940   48.8080 O   0  0  0  0  0  0  0  0  0  0  0  0
   55.3895   29.6316   45.0165 H   0  0  0  0  0  0  0  0  0  0  0  0
   54.6167   30.1362   43.4755 H   0  0  0  0  0  0  0  0  0  0  0  0
   55.8538   28.8338   43.4755 H   0  0  0  0  0  0  0  0  0  0  0  0
   57.5232   30.3347   43.2818 H   0  0  0  0  0  0  0  0  0  0  0  0
   56.2503   31.6103   43.0686 H   0  0  0  0  0  0  0  0  0  0  0  0
   57.9497   30.7737   46.7843 H   0  0  0  0  0  0  0  0  0  0  0  0
   57.9852   29.6137   45.4132 H   0  0  0  0  0  0  0  0  0  0  0  0
   59.0798   31.0380   45.4132 H   0  0  0  0  0  0  0  0  0  0  0  0
   58.3414   33.0020   44.3839 H   0  0  0  0  0  0  0  0  0  0  0  0
   56.5314   33.3756   44.4074 H   0  0  0  0  0  0  0  0  0  0  0  0
   57.4430   34.7378   46.0810 H   0  0  0  0  0  0  0  0  0  0  0  0
   56.7192   33.2969   46.9301 H   0  0  0  0  0  0  0  0  0  0  0  0
   62.5318   34.4376   45.4505 H   0  0  0  0  0  0  0  0  0  0  0  0
   64.7045   33.7418   46.4443 H   0  0  0  0  0  0  0  0  0  0  0  0
   64.7557   32.3747   48.5241 H   0  0  0  0  0  0  0  0  0  0  0  0
   63.5876   31.2297   50.3231 H   0  0  0  0  0  0  0  0  0  0  0  0
   61.4632   30.5601   51.4355 H   0  0  0  0  0  0  0  0  0  0  0  0
   59.2712   31.2315   50.4674 H   0  0  0  0  0  0  0  0  0  0  0  0
  1  2  1  0
  2  3  1  0
  3  4  1  0
  3  5  1  0
  5  6  1  0
  6  7  1  0
  7  8  1  0
  8  9  2  0
  8 10  1  0
 10 11  1  0
 11 12  2  0
 12 13  1  0
 13 14  2  0
 14 15  1  0
 15 16  2  0
 16 17  1  0
 17 18  2  0
 18 19  1  0
 18 20  1  0
 20 21  2  0
 20  7  1  0
 19 10  2  0
 19 14  1  0
  1 22  1  0
  1 23  1  0
  1 24  1  0
  2 25  1  0
  2 26  1  0
  4 27  1  0
  4 28  1  0
  4 29  1  0
  5 30  1  0
  5 31  1  0
  6 32  1  0
  6 33  1  0
 11 34  1  0
 12 35  1  0
 13 36  1  0
 15 37  1  0
 16 38  1  0
 17 39  1  0
M  END
>  <UniqueID>  (9) 
9

>  <SMILES>  (9) 
CCN(C)CCN1C(=O)c2cccc3cccc(c23)C1=O

>  <Energy>  (9) 
50.4232385355573

>  <Genealogy>  (9) 
CCN(C)CCN1C(=O)c2cccc3cccc(c23)C1=O (3D coordinates assigned)
CCN(C)CCN1C(=O)c2cccc3cccc(c23)C1=O (nonaromatic ring conformer: 50.4232385355573 kcal/mol)

>  <smiles>  (9) 
CCN(C)CCN1C(=O)c2cccc3cccc(c23)C1=O

>  <score_type>  (9) 
oracle

>  <origin>  (9) 
adg

>  <m_score__min__energy>  (9) 
-7.1200000000000001

>  <m_primary>  (9) 
energy

$$$$
9:0
     RDKit          3D

 47 49  0  0  0  0  0  0  0  0999 V2000
   64.1420   32.5010   50.5520 C   0  0  0  0  0  0  0  0  0  0  0  0
   62.9820   32.7590   49.6350 C   0  0  0  0  0  0  0  0  0  0  0  0
   61.6760   32.7040   50.1230 C   0  0  0  0  0  0  0  0  0  0  0  0
   60.5800   32.9760   49.2900 C   0  0  0  0  0  0  0  0  0  0  0  0
   59.2040   32.8980   49.9010 C   0  0  0  0  0  0  0  0  0  0  0  0
   60.7950   33.2840   47.9160 C   0  0  0  0  0  0  0  0  0  0  0  0
   59.4090   33.5410   46.8060 S   0  0  0  0  0  0  0  0  0  0  0  0
   59.8000   34.5190   45.7310 O   0  0  0  0  0  0  0  0  0  0  0  0
   58.2750   34.1800   47.5560 O   0  0  0  0  0  0  0  0  0  0  0  0
   58.8140   32.0450   46.1010 N   0  0  0  0  0  0  0  0  0  0  0  0
   58.4170   32.2450   44.6910 C   0  0  0  0  0  0  0  0  0  0  0  0
   58.1270   30.9120   43.9690 C   0  0  0  0  0  0  0  0  0  0  0  0
   57.9950   29.8160   44.9340 N   0  0  0  0  0  0  0  0  0  0  0  0
   56.7490   29.1020   45.0560 C   0  0  0  0  0  0  0  0  0  0  0  0
   55.6620   29.7120   44.8750 O   0  0  0  0  0  0  0  0  0  0  0  0
   56.7010   27.6700   45.4020 C   0  0  0  0  0  0  0  0  0  0  0  0
   57.7420   26.7630   45.3310 C   0  0  0  0  0  0  0  0  0  0  0  0
   57.2110   25.5560   45.7300 C   0  0  0  0  0  0  0  0  0  0  0  0
   55.8830   25.7940   46.0120 C   0  0  0  0  0  0  0  0  0  0  0  0
   55.6080   27.0610   45.8030 O   0  0  0  0  0  0  0  0  0  0  0  0
   59.0780   29.6110   45.9050 C   0  0  0  0  0  0  0  0  0  0  0  0
   59.7780   30.9390   46.2300 C   0  0  0  0  0  0  0  0  0  0  0  0
   62.1340   33.4200   47.4480 C   0  0  0  0  0  0  0  0  0  0  0  0
   62.4640   33.8430   46.0400 C   0  0  0  0  0  0  0  0  0  0  0  0
   63.2040   33.1390   48.3110 C   0  0  0  0  0  0  0  0  0  0  0  0
   63.8069   32.5755   51.5971 H   0  0  0  0  0  0  0  0  0  0  0  0
   64.5396   31.4925   50.3655 H   0  0  0  0  0  0  0  0  0  0  0  0
   64.9296   33.2459   50.3655 H   0  0  0  0  0  0  0  0  0  0  0  0
   61.5028   32.4433   51.1775 H   0  0  0  0  0  0  0  0  0  0  0  0
   59.2890   32.9028   50.9977 H   0  0  0  0  0  0  0  0  0  0  0  0
   58.6087   33.7638   49.5756 H   0  0  0  0  0  0  0  0  0  0  0  0
   58.7103   31.9704   49.5756 H   0  0  0  0  0  0  0  0  0  0  0  0
   57.5099   32.8666   44.6637 H   0  0  0  0  0  0  0  0  0  0  0  0
   59.2547   32.7335   44.1717 H   0  0  0  0  0  0  0  0  0  0  0  0
   57.1904   31.0063   43.3998 H   0  0  0  0  0  0  0  0  0  0  0  0
   58.9648   30.6875   43.2925 H   0  0  0  0  0  0  0  0  0  0  0  0
   58.7781   26.9633   45.0207 H   0  0  0  0  0  0  0  0  0  0  0  0
   57.7406   24.5951   45.8079 H   0  0  0  0  0  0  0  0  0  0  0  0
   55.1633   25.0380   46.3592 H   0  0  0  0  0  0  0  0  0  0  0  0
   58.6580   29.1890   46.8299 H   0  0  0  0  0  0  0  0  0  0  0  0
   59.8158   28.9209   45.4697 H   0  0  0  0  0  0  0  0  0  0  0  0
   60.1648   30.9076   47.2593 H   0  0  0  0  0  0  0  0  0  0  0  0
   60.6121   31.0954   45.5301 H   0  0  0  0  0  0  0  0  0  0  0  0
   63.1404   34.7100   46.0666 H   0  0  0  0  0  0  0  0  0  0  0  0
   62.9544   33.0114   45.5127 H   0  0  0  0  0  0  0  0  0  0  0  0
   61.5381   34.1163   45.5127 H   0  0  0  0  0  0  0  0  0  0  0  0
   64.2355   33.2197   47.9374 H   0  0  0  0  0  0  0  0  0  0  0  0
  1  2  1  0
  2  3  2  0
  3  4  1  0
  4  5  1  0
  4  6  2  0
  6  7  1  0
  7  8  2  0
  7  9  2  0
  7 10  1  0
 10 11  1  0
 11 12  1  0
 12 13  1  0
 13 14  1  0
 14 15  2  0
 14 16  1  0
 16 17  2  0
 17 18  1  0
 18 19  2  0
 19 20  1  0
 13 21  1  0
 21 22  1  0
  6 23  1  0
 23 24  1  0
 23 25  2  0
 25  2  1  0
 22 10  1  0
 20 16  1  0
  1 26  1  0
  1 27  1  0
  1 28  1  0
  3 29  1  0
  5 30  1  0
  5 31  1  0
  5 32  1  0
 11 33  1  0
 11 34  1  0
 12 35  1  0
 12 36  1  0
 17 37  1  0
 18 38  1  0
 19 39  1  0
 21 40  1  0
 21 41  1  0
 22 42  1  0
 22 43  1  0
 24 44  1  0
 24 45  1  0
 24 46  1  0
 25 47  1  0
M  END
>  <UniqueID>  (10) 
10

>  <SMILES>  (10) 
Cc1cc(C)c(S(=O)(=O)N2CCN(C(=O)c3ccco3)CC2)c(C)c1

>  <Energy>  (10) 
89.64613405437542

>  <Genealogy>  (10) 
Cc1cc(C)c(S(=O)(=O)N2CCN(C(=O)c3ccco3)CC2)c(C)c1 (3D coordinates assigned)
Cc1cc(C)c(S(=O)(=O)N2CCN(C(=O)c3ccco3)CC2)c(C)c1 (nonaromatic ring conformer: 89.64613405437542 kcal/mol)

>  <smiles>  (10) 
Cc1cc(C)c(S(=O)(=O)N2CCN(C(=O)c3ccco3)CC2)c(C)c1

>  <score_type>  (10) 
oracle

>  <origin>  (10) 
adg

>  <m_score__min__energy>  (10) 
-8.6999999999999993

>  <m_primary>  (10) 
energy

$$$$
10:0
     RDKit          3D

 35 37  0  0  0  0  0  0  0  0999 V2000
   59.3260   33.8350   50.8750 N   0  0  0  0  0  0  0  0  0  0  0  0
   59.9950   33.8480   49.9300 C   0  0  0  0  0  0  0  0  0  0  0  0
   60.8290   33.8630   48.7520 C   0  0  0  0  0  0  0  0  0  0  0  0
   62.1960   33.5810   48.8920 C   0  0  0  0  0  0  0  0  0  0  0  0
   63.0310   33.5690   47.7730 C   0  0  0  0  0  0  0  0  0  0  0  0
   62.5090   33.8330   46.5070 C   0  0  0  0  0  0  0  0  0  0  0  0
   61.1490   34.1160   46.3550 C   0  0  0  0  0  0  0  0  0  0  0  0
   60.2960   34.1470   47.4730 C   0  0  0  0  0  0  0  0  0  0  0  0
   58.8290   34.4270   47.2700 C   0  0  0  0  0  0  0  0  0  0  0  0
   58.4060   34.2170   45.5100 S   0  0  0  0  0  0  0  0  0  0  0  0
   58.2210   32.4450   45.6500 C   0  0  0  0  0  0  0  0  0  0  0  0
   58.8770   31.7690   46.6280 N   0  0  0  0  0  0  0  0  0  0  0  0
   58.7620   30.4190   46.7560 C   0  0  0  0  0  0  0  0  0  0  0  0
   59.4970   29.7290   47.8340 C   0  0  0  0  0  0  0  0  0  0  0  0
   60.1640   30.3500   48.8860 C   0  0  0  0  0  0  0  0  0  0  0  0
   60.7780   29.4490   49.7650 C   0  0  0  0  0  0  0  0  0  0  0  0
   60.6000   28.1170   49.4160 C   0  0  0  0  0  0  0  0  0  0  0  0
   59.6790   28.0630   48.0110 S   0  0  0  0  0  0  0  0  0  0  0  0
   57.9470   29.7160   45.8580 C   0  0  0  0  0  0  0  0  0  0  0  0
   57.2770   30.4260   44.8550 C   0  0  0  0  0  0  0  0  0  0  0  0
   56.3970   29.7080   43.8740 C   0  0  0  0  0  0  0  0  0  0  0  0
   56.0920   30.5290   42.8020 F   0  0  0  0  0  0  0  0  0  0  0  0
   57.0470   28.5810   43.4050 F   0  0  0  0  0  0  0  0  0  0  0  0
   55.2200   29.3300   44.4950 F   0  0  0  0  0  0  0  0  0  0  0  0
   57.4290   31.7740   44.7740 N   0  0  0  0  0  0  0  0  0  0  0  0
   62.6120   33.3684   49.8879 H   0  0  0  0  0  0  0  0  0  0  0  0
   64.1028   33.3509   47.8902 H   0  0  0  0  0  0  0  0  0  0  0  0
   63.1687   33.8184   45.6269 H   0  0  0  0  0  0  0  0  0  0  0  0
   60.7422   34.3162   45.3528 H   0  0  0  0  0  0  0  0  0  0  0  0
   58.2352   33.7266   47.8756 H   0  0  0  0  0  0  0  0  0  0  0  0
   58.6074   35.4592   47.5789 H   0  0  0  0  0  0  0  0  0  0  0  0
   60.2049   31.4417   49.0145 H   0  0  0  0  0  0  0  0  0  0  0  0
   61.3485   29.7672   50.6500 H   0  0  0  0  0  0  0  0  0  0  0  0
   60.9934   27.2480   49.9638 H   0  0  0  0  0  0  0  0  0  0  0  0
   57.8359   28.6247   45.9402 H   0  0  0  0  0  0  0  0  0  0  0  0
  1  2  3  0
  2  3  1  0
  3  4  2  0
  4  5  1  0
  5  6  2  0
  6  7  1  0
  7  8  2  0
  8  9  1  0
  9 10  1  0
 10 11  1  0
 11 12  2  0
 12 13  1  0
 13 14  1  0
 14 15  2  0
 15 16  1  0
 16 17  2  0
 17 18  1  0
 13 19  2  0
 19 20  1  0
 20 21  1  0
 21 22  1  0
 21 23  1  0
 21 24  1  0
 20 25  2  0
  8  3  1  0
 25 11  1  0
 18 14  1  0
  4 26  1  0
  5 27  1  0
  6 28  1  0
  7 29  1  0
  9 30  1  0
  9 31  1  0
 15 32  1  0
 16 33  1  0
 17 34  1  0
 19 35  1  0
M  END
>  <UniqueID>  (11) 
11

>  <SMILES>  (11) 
N#Cc1ccccc1CSc1nc(-c2cccs2)cc(C(F)(F)F)n1

>  <Energy>  (11) 
60.24575015374254

>  <Genealogy>  (11) 
N#Cc1ccccc1CSc1nc(-c2cccs2)cc(C(F)(F)F)n1 (3D coordinates assigned)
N#Cc1ccccc1CSc1nc(-c2cccs2)cc(C(F)(F)F)n1 (optimized conformer: 60.24575015374254 kcal/mol)

>  <smiles>  (11) 
N#Cc1ccccc1CSc1nc(-c2cccs2)cc(C(F)(F)F)n1

>  <score_type>  (11) 
oracle

>  <origin>  (11) 
adg

>  <m_score__min__energy>  (11) 
-7.4100000000000001

>  <m_primary>  (11) 
energy

$$$$
11:0
     RDKit          3D

 51 53  0  0  0  0  0  0  0  0999 V2000
   59.0100   34.9760   44.9130 C   0  0  0  0  0  0  0  0  0  0  0  0
   59.0100   34.0520   46.1030 C   0  0  0  0  0  0  0  0  0  0  0  0
   59.2690   34.5710   47.3790 C   0  0  0  0  0  0  0  0  0  0  0  0
   59.2510   33.7380   48.4950 C   0  0  0  0  0  0  0  0  0  0  0  0
   58.9800   32.3730   48.3350 C   0  0  0  0  0  0  0  0  0  0  0  0
   58.9590   31.4490   49.5310 C   0  0  0  0  0  0  0  0  0  0  0  0
   60.2790   31.2600   50.1820 N   0  0  0  0  0  0  0  0  0  0  0  0
   60.7230   32.3490   51.0660 C   0  0  0  0  0  0  0  0  0  0  0  0
   61.3420   30.6980   49.3220 C   0  0  0  0  0  0  0  0  0  0  0  0
   62.2100   31.7420   48.6600 C   0  0  0  0  0  0  0  0  0  0  0  0
   61.9180   32.1970   47.3630 C   0  0  0  0  0  0  0  0  0  0  0  0
   62.7020   33.1920   46.7710 C   0  0  0  0  0  0  0  0  0  0  0  0
   63.7650   33.7590   47.4770 C   0  0  0  0  0  0  0  0  0  0  0  0
   64.0490   33.3280   48.7760 C   0  0  0  0  0  0  0  0  0  0  0  0
   63.2800   32.3210   49.3640 C   0  0  0  0  0  0  0  0  0  0  0  0
   58.7090   31.8880   47.0950 N   0  0  0  0  0  0  0  0  0  0  0  0
   58.7090   32.6740   45.9820 C   0  0  0  0  0  0  0  0  0  0  0  0
   58.3500   32.0470   44.6590 C   0  0  0  0  0  0  0  0  0  0  0  0
   57.3110   31.0130   44.8350 N   0  0  0  0  0  0  0  0  0  0  0  0
   56.4490   30.9420   43.6390 C   0  0  0  0  0  0  0  0  0  0  0  0
   55.5320   29.7030   43.6910 C   0  0  0  0  0  0  0  0  0  0  0  0
   55.5120   29.1430   44.9880 O   0  0  0  0  0  0  0  0  0  0  0  0
   56.7970   28.6410   45.3120 C   0  0  0  0  0  0  0  0  0  0  0  0
   57.9090   29.6910   45.1040 C   0  0  0  0  0  0  0  0  0  0  0  0
   60.0471   35.2009   44.6234 H   0  0  0  0  0  0  0  0  0  0  0  0
   58.4915   34.4915   44.0726 H   0  0  0  0  0  0  0  0  0  0  0  0
   58.4915   35.9103   45.1742 H   0  0  0  0  0  0  0  0  0  0  0  0
   59.4877   35.6423   47.4996 H   0  0  0  0  0  0  0  0  0  0  0  0
   59.4484   34.1494   49.4959 H   0  0  0  0  0  0  0  0  0  0  0  0
   58.2645   31.8655   50.2755 H   0  0  0  0  0  0  0  0  0  0  0  0
   58.6475   30.4615   49.1598 H   0  0  0  0  0  0  0  0  0  0  0  0
   60.5984   32.0434   52.1153 H   0  0  0  0  0  0  0  0  0  0  0  0
   61.7830   32.5698   50.8718 H   0  0  0  0  0  0  0  0  0  0  0  0
   60.1196   33.2480   50.8718 H   0  0  0  0  0  0  0  0  0  0  0  0
   61.9848   30.0553   49.9414 H   0  0  0  0  0  0  0  0  0  0  0  0
   60.8401   30.1425   48.5161 H   0  0  0  0  0  0  0  0  0  0  0  0
   61.0687   31.7684   46.8108 H   0  0  0  0  0  0  0  0  0  0  0  0
   62.4810   33.5287   45.7474 H   0  0  0  0  0  0  0  0  0  0  0  0
   64.3785   34.5443   47.0112 H   0  0  0  0  0  0  0  0  0  0  0  0
   64.8794   33.7826   49.3361 H   0  0  0  0  0  0  0  0  0  0  0  0
   63.5130   31.9793   50.3833 H   0  0  0  0  0  0  0  0  0  0  0  0
   57.9722   32.8264   43.9810 H   0  0  0  0  0  0  0  0  0  0  0  0
   59.2493   31.5755   44.2361 H   0  0  0  0  0  0  0  0  0  0  0  0
   55.8271   31.8479   43.5896 H   0  0  0  0  0  0  0  0  0  0  0  0
   57.0906   30.8659   42.7488 H   0  0  0  0  0  0  0  0  0  0  0  0
   54.5103   29.9994   43.4112 H   0  0  0  0  0  0  0  0  0  0  0  0
   55.9200   28.9497   42.9896 H   0  0  0  0  0  0  0  0  0  0  0  0
   56.7987   28.3291   46.3668 H   0  0  0  0  0  0  0  0  0  0  0  0
   57.0053   27.7947   44.6408 H   0  0  0  0  0  0  0  0  0  0  0  0
   58.5291   29.7494   46.0107 H   0  0  0  0  0  0  0  0  0  0  0  0
   58.5299   29.3942   44.2459 H   0  0  0  0  0  0  0  0  0  0  0  0
  1  2  1  0
  2  3  2  0
  3  4  1  0
  4  5  2  0
  5  6  1  0
  6  7  1  0
  7  8  1  0
  7  9  1  0
  9 10  1  0
 10 11  2  0
 11 12  1  0
 12 13  2  0
 13 14  1  0
 14 15  2  0
  5 16  1  0
 16 17  2  0
 17 18  1  0
 18 19  1  0
 19 20  1  0
 20 21  1  0
 21 22  1  0
 22 23  1  0
 23 24  1  0
 17  2  1  0
 24 19  1  0
 15 10  1  0
  1 25  1  0
  1 26  1  0
  1 27  1  0
  3 28  1  0
  4 29  1  0
  6 30  1  0
  6 31  1  0
  8 32  1  0
  8 33  1  0
  8 34  1  0
  9 35  1  0
  9 36  1  0
 11 37  1  0
 12 38  1  0
 13 39  1  0
 14 40  1  0
 15 41  1  0
 18 42  1  0
 18 43  1  0
 20 44  1  0
 20 45  1  0
 21 46  1  0
 21 47  1  0
 23 48  1  0
 23 49  1  0
 24 50  1  0
 24 51  1  0
M  END
>  <UniqueID>  (12) 
12

>  <SMILES>  (12) 
Cc1ccc(CN(C)Cc2ccccc2)nc1CN1CCOCC1

>  <Energy>  (12) 
66.80595808251287

>  <Genealogy>  (12) 
Cc1ccc(CN(C)Cc2ccccc2)nc1CN1CCOCC1 (3D coordinates assigned)
Cc1ccc(CN(C)Cc2ccccc2)nc1CN1CCOCC1 (nonaromatic ring conformer: 66.80595808251287 kcal/mol)

>  <smiles>  (12) 
Cc1ccc(CN(C)Cc2ccccc2)nc1CN1CCOCC1

>  <score_type>  (12) 
oracle

>  <origin>  (12) 
adg

>  <m_score__min__energy>  (12) 
-8.0999999999999996

>  <m_primary>  (12) 
energy

$$$$
12:0
     RDKit          3D

 77 81  0  0  0  0  0  0  0  0999 V2000
   58.1600   29.7000   43.4330 H   0  0  0  0  0  0  0  0  0  0  0  0
   57.9080   28.7360   43.5970 O   0  0  0  0  0  0  0  0  0  0  0  0
   58.1200   28.0870   44.8200 C   0  0  0  0  0  0  0  0  0  0  0  0
   58.1070   26.6820   44.8290 C   0  0  0  0  0  0  0  0  0  0  0  0
   57.7500   25.9560   43.6710 C   0  0  0  0  0  0  0  0  0  0  0  0
   57.4906   26.4943   42.7475 H   0  0  0  0  0  0  0  0  0  0  0  0
   57.7240   24.5610   43.6900 C   0  0  0  0  0  0  0  0  0  0  0  0
   57.4403   24.0055   42.7839 H   0  0  0  0  0  0  0  0  0  0  0  0
   58.0560   23.8700   44.8520 C   0  0  0  0  0  0  0  0  0  0  0  0
   58.0299   22.7704   44.8632 H   0  0  0  0  0  0  0  0  0  0  0  0
   58.4220   24.5700   46.0030 C   0  0  0  0  0  0  0  0  0  0  0  0
   58.6837   24.0174   46.9174 H   0  0  0  0  0  0  0  0  0  0  0  0
   58.4590   25.9800   46.0030 C   0  0  0  0  0  0  0  0  0  0  0  0
   58.8530   26.6880   47.1500 C   0  0  0  0  0  0  0  0  0  0  0  0
   59.1370   25.9680   48.3100 O   0  0  0  0  0  0  0  0  0  0  0  0
   58.8920   28.1090   47.1490 C   0  0  0  0  0  0  0  0  0  0  0  0
   59.3660   28.8450   48.2690 C   0  0  0  0  0  0  0  0  0  0  0  0
   60.3970   28.2250   49.1940 C   0  0  0  0  0  0  0  0  0  0  0  0
   60.1044   28.4010   50.2397 H   0  0  0  0  0  0  0  0  0  0  0  0
   60.4541   27.1426   49.0064 H   0  0  0  0  0  0  0  0  0  0  0  0
   61.3798   28.6820   49.0064 H   0  0  0  0  0  0  0  0  0  0  0  0
   59.0280   30.2210   48.4030 C   0  0  0  0  0  0  0  0  0  0  0  0
   59.1100   30.9030   49.6530 C   0  0  0  0  0  0  0  0  0  0  0  0
   59.3210   30.1640   50.8710 N   0  0  0  0  0  0  0  0  0  0  0  0
   58.7050   30.3450   52.0010 C   0  0  0  0  0  0  0  0  0  0  0  0
   57.6580   30.0274   52.1146 H   0  0  0  0  0  0  0  0  0  0  0  0
   59.4220   30.9860   53.1470 C   0  0  0  0  0  0  0  0  0  0  0  0
   58.7290   31.0817   53.9958 H   0  0  0  0  0  0  0  0  0  0  0  0
   60.2812   30.3549   53.4180 H   0  0  0  0  0  0  0  0  0  0  0  0
   59.9410   32.3760   52.7660 C   0  0  0  0  0  0  0  0  0  0  0  0
   59.1679   32.9092   52.1933 H   0  0  0  0  0  0  0  0  0  0  0  0
   60.1793   32.9362   53.6822 H   0  0  0  0  0  0  0  0  0  0  0  0
   61.1530   32.2520   51.9480 N   0  0  0  0  0  0  0  0  0  0  0  0
   60.9750   31.5150   51.2240 H   0  0  0  0  0  0  0  0  0  0  0  0
   62.2840   31.8050   52.7700 C   0  0  0  0  0  0  0  0  0  0  0  0
   63.0481   32.5958   52.7990 H   0  0  0  0  0  0  0  0  0  0  0  0
   61.9278   31.5924   53.7888 H   0  0  0  0  0  0  0  0  0  0  0  0
   62.8930   30.5340   52.1760 C   0  0  0  0  0  0  0  0  0  0  0  0
   63.6781   30.8101   51.4567 H   0  0  0  0  0  0  0  0  0  0  0  0
   63.3213   29.9296   52.9892 H   0  0  0  0  0  0  0  0  0  0  0  0
   61.9080   29.7810   51.5190 O   0  0  0  0  0  0  0  0  0  0  0  0
   61.4750   30.3910   50.8660 H   0  0  0  0  0  0  0  0  0  0  0  0
   58.9190   32.2920   49.6960 C   0  0  0  0  0  0  0  0  0  0  0  0
   59.0150   32.8241   50.6540 H   0  0  0  0  0  0  0  0  0  0  0  0
   58.6110   33.0020   48.5470 C   0  0  0  0  0  0  0  0  0  0  0  0
   58.5136   34.0966   48.5960 H   0  0  0  0  0  0  0  0  0  0  0  0
   58.4220   32.3470   47.3250 C   0  0  0  0  0  0  0  0  0  0  0  0
   58.2330   33.1360   46.1350 N   0  0  0  0  0  0  0  0  0  0  0  0
   57.4640   32.8710   45.4760 H   0  0  0  0  0  0  0  0  0  0  0  0
   59.1310   34.2310   45.7620 C   0  0  0  0  0  0  0  0  0  0  0  0
   58.9681   34.4873   44.7048 H   0  0  0  0  0  0  0  0  0  0  0  0
   58.9156   35.0987   46.4029 H   0  0  0  0  0  0  0  0  0  0  0  0
   60.5960   33.8230   45.9610 C   0  0  0  0  0  0  0  0  0  0  0  0
   60.6876   32.7384   45.8023 H   0  0  0  0  0  0  0  0  0  0  0  0
   61.2067   34.3831   45.2376 H   0  0  0  0  0  0  0  0  0  0  0  0
   61.0990   34.1620   47.3700 C   0  0  0  0  0  0  0  0  0  0  0  0
   60.9690   35.2394   47.5499 H   0  0  0  0  0  0  0  0  0  0  0  0
   60.5195   33.5793   48.1012 H   0  0  0  0  0  0  0  0  0  0  0  0
   62.5310   33.8150   47.5140 N   0  0  0  0  0  0  0  0  0  0  0  0
   62.8140   32.4230   47.1190 C   0  0  0  0  0  0  0  0  0  0  0  0
   62.3628   32.2346   46.1336 H   0  0  0  0  0  0  0  0  0  0  0  0
   63.9059   32.2938   47.0876 H   0  0  0  0  0  0  0  0  0  0  0  0
   62.2420   31.4070   48.1320 C   0  0  0  0  0  0  0  0  0  0  0  0
   61.2001   31.1881   47.8555 H   0  0  0  0  0  0  0  0  0  0  0  0
   62.8805   30.5122   48.0898 H   0  0  0  0  0  0  0  0  0  0  0  0
   62.2640   31.8920   49.5250 N   0  0  0  0  0  0  0  0  0  0  0  0
   61.3350   32.3100   49.7640 H   0  0  0  0  0  0  0  0  0  0  0  0
   63.3030   32.9000   49.7480 C   0  0  0  0  0  0  0  0  0  0  0  0
   63.2836   33.2079   50.8038 H   0  0  0  0  0  0  0  0  0  0  0  0
   64.2773   32.4590   49.4907 H   0  0  0  0  0  0  0  0  0  0  0  0
   63.0770   34.1410   48.8570 C   0  0  0  0  0  0  0  0  0  0  0  0
   62.3698   34.8116   49.3670 H   0  0  0  0  0  0  0  0  0  0  0  0
   64.0594   34.6109   48.7015 H   0  0  0  0  0  0  0  0  0  0  0  0
   58.5460   30.9270   47.2650 C   0  0  0  0  0  0  0  0  0  0  0  0
   58.1570   30.1980   46.1170 C   0  0  0  0  0  0  0  0  0  0  0  0
   57.3970   30.8310   45.1370 O   0  0  0  0  0  0  0  0  0  0  0  0
   58.3990   28.8080   46.0150 C   0  0  0  0  0  0  0  0  0  0  0  0
  1  2  1  0
  2  3  1  0
  3  4  2  0
  4  5  1  0
  5  6  1  0
  5  7  2  0
  7  8  1  0
  7  9  1  0
  9 10  1  0
  9 11  2  0
 11 12  1  0
 11 13  1  0
 13 14  2  0
 14 15  1  0
 14 16  1  0
 16 17  2  0
 17 18  1  0
 18 19  1  0
 18 20  1  0
 18 21  1  0
 17 22  1  0
 22 23  2  0
 23 24  1  0
 24 25  2  0
 25 26  1  0
 25 27  1  0
 27 28  1  0
 27 29  1  0
 27 30  1  0
 30 31  1  0
 30 32  1  0
 30 33  1  0
 33 34  1  0
 33 35  1  0
 35 36  1  0
 35 37  1  0
 35 38  1  0
 38 39  1  0
 38 40  1  0
 38 41  1  0
 41 42  1  0
 23 43  1  0
 43 44  1  0
 43 45  2  0
 45 46  1  0
 45 47  1  0
 47 48  1  0
 48 49  1  0
 48 50  1  0
 50 51  1  0
 50 52  1  0
 50 53  1  0
 53 54  1  0
 53 55  1  0
 53 56  1  0
 56 57  1  0
 56 58  1  0
 56 59  1  0
 59 60  1  0
 60 61  1  0
 60 62  1  0
 60 63  1  0
 63 64  1  0
 63 65  1  0
 63 66  1  0
 66 67  1  0
 66 68  1  0
 68 69  1  0
 68 70  1  0
 68 71  1  0
 71 72  1  0
 71 73  1  0
 47 74  2  0
 74 75  1  0
 75 76  1  0
 75 77  2  0
 77  3  1  0
 13  4  1  0
 77 16  1  0
 74 22  1  0
 71 59  1  0
M  CHG  2  15  -1  76  -1
M  END
>  <UniqueID>  (13) 
13

>  <SMILES>  (13) 
Cc1c2c(/N=C/CCNCCO)ccc(NCCCN3CCNCC3)c2c([O-])c2c(O)c3ccccc3c([O-])c12

>  <Energy>  (13) 
132.6406761451177

>  <Genealogy>  (13) 
Cc1c2c(N=CCCNCCO)ccc(NCCCN3CCNCC3)c2c([O-])c2c(O)c3ccccc3c([O-])c12 (protonated)
Cc1c2c(/N=C/CCNCCO)ccc(NCCCN3CCNCC3)c2c([O-])c2c(O)c3ccccc3c([O-])c12 (cis-trans isomerization)
Cc1c2c(/N=C/CCNCCO)ccc(NCCCN3CCNCC3)c2c([O-])c2c(O)c3ccccc3c([O-])c12 (3D coordinates assigned)
Cc1c2c(/N=C/CCNCCO)ccc(NCCCN3CCNCC3)c2c([O-])c2c(O)c3ccccc3c([O-])c12 (nonaromatic ring conformer: 132.6406761451177 kcal/mol)

>  <smiles>  (13) 
Cc1c2c(N=CCCNCCO)ccc(NCCCN3CCNCC3)c2c(O)c2c(O)c3ccccc3c(O)c12

>  <score_type>  (13) 
oracle

>  <origin>  (13) 
adg

>  <m_score__min__energy>  (13) 
-11.5

>  <m_primary>  (13) 
energy

$$$$
13:0
     RDKit          3D

 67 71  0  0  0  0  0  0  0  0999 V2000
   56.8970   30.5370   43.6440 C   0  0  0  0  0  0  0  0  0  0  0  0
   56.6360   31.2450   44.8500 O   0  0  0  0  0  0  0  0  0  0  0  0
   57.4140   32.3090   45.3310 C   0  0  0  0  0  0  0  0  0  0  0  0
   57.7090   33.3620   44.4580 C   0  0  0  0  0  0  0  0  0  0  0  0
   58.4790   34.4430   44.8900 C   0  0  0  0  0  0  0  0  0  0  0  0
   58.9620   34.4830   46.1980 C   0  0  0  0  0  0  0  0  0  0  0  0
   58.6830   33.4360   47.0950 C   0  0  0  0  0  0  0  0  0  0  0  0
   59.1760   33.4790   48.4530 N   0  0  0  0  0  0  0  0  0  0  0  0
   58.9530   32.3530   49.3690 C   0  0  0  0  0  0  0  0  0  0  0  0
   58.8200   32.8580   50.8140 C   0  0  0  0  0  0  0  0  0  0  0  0
   59.8950   33.8020   51.2350 N   0  0  0  0  0  0  0  0  0  0  0  0
   60.6590   33.2960   52.3940 C   0  0  0  0  0  0  0  0  0  0  0  0
   61.2850   31.9320   52.0750 C   0  0  0  0  0  0  0  0  0  0  0  0
   62.5360   32.1070   51.3150 N   0  0  0  0  0  0  0  0  0  0  0  0
   63.7040   32.6490   51.9670 C   0  0  0  0  0  0  0  0  0  0  0  0
   63.6920   32.8700   53.2100 O   0  0  0  0  0  0  0  0  0  0  0  0
   64.9830   32.8720   51.1680 C   0  0  0  0  0  0  0  0  0  0  0  0
   65.8190   34.0030   51.8430 C   0  0  0  0  0  0  0  0  0  0  0  0
   67.1790   34.2380   51.1580 C   0  0  0  0  0  0  0  0  0  0  0  0
   67.8710   32.9380   50.7000 C   0  0  0  0  0  0  0  0  0  0  0  0
   67.3110   31.7010   51.4060 C   0  0  0  0  0  0  0  0  0  0  0  0
   65.8050   31.5320   51.1380 C   0  0  0  0  0  0  0  0  0  0  0  0
   64.6180   33.3000   49.7910 N   0  0  0  0  0  0  0  0  0  0  0  0
   63.6730   32.4120   49.1500 C   0  0  0  0  0  0  0  0  0  0  0  0
   63.7530   32.1870   47.7640 C   0  0  0  0  0  0  0  0  0  0  0  0
   62.8030   31.3940   47.1200 C   0  0  0  0  0  0  0  0  0  0  0  0
   61.7560   30.8320   47.8480 C   0  0  0  0  0  0  0  0  0  0  0  0
   61.6510   31.0610   49.2210 C   0  0  0  0  0  0  0  0  0  0  0  0
   62.6050   31.8580   49.8900 C   0  0  0  0  0  0  0  0  0  0  0  0
   60.8120   34.2070   50.1490 C   0  0  0  0  0  0  0  0  0  0  0  0
   60.0340   34.5880   48.8870 C   0  0  0  0  0  0  0  0  0  0  0  0
   57.9030   32.3510   46.6520 C   0  0  0  0  0  0  0  0  0  0  0  0
   57.2684   29.5296   43.8833 H   0  0  0  0  0  0  0  0  0  0  0  0
   55.9695   30.4563   43.0581 H   0  0  0  0  0  0  0  0  0  0  0  0
   57.6549   31.0776   43.0581 H   0  0  0  0  0  0  0  0  0  0  0  0
   57.3318   33.3377   43.4250 H   0  0  0  0  0  0  0  0  0  0  0  0
   58.7057   35.2663   44.1966 H   0  0  0  0  0  0  0  0  0  0  0  0
   59.5659   35.3401   46.5307 H   0  0  0  0  0  0  0  0  0  0  0  0
   58.0296   31.8290   49.0815 H   0  0  0  0  0  0  0  0  0  0  0  0
   59.8108   31.6671   49.3077 H   0  0  0  0  0  0  0  0  0  0  0  0
   57.8524   33.3719   50.9117 H   0  0  0  0  0  0  0  0  0  0  0  0
   58.9027   31.9754   51.4653 H   0  0  0  0  0  0  0  0  0  0  0  0
   61.4574   34.0113   52.6407 H   0  0  0  0  0  0  0  0  0  0  0  0
   59.9741   33.1808   53.2470 H   0  0  0  0  0  0  0  0  0  0  0  0
   61.5027   31.4041   53.0152 H   0  0  0  0  0  0  0  0  0  0  0  0
   60.5775   31.3472   51.4688 H   0  0  0  0  0  0  0  0  0  0  0  0
   65.2405   34.9377   51.8032 H   0  0  0  0  0  0  0  0  0  0  0  0
   66.0219   33.6890   52.8775 H   0  0  0  0  0  0  0  0  0  0  0  0
   67.0190   34.8762   50.2765 H   0  0  0  0  0  0  0  0  0  0  0  0
   67.8380   34.7102   51.9015 H   0  0  0  0  0  0  0  0  0  0  0  0
   67.7250   32.8228   49.6158 H   0  0  0  0  0  0  0  0  0  0  0  0
   68.9379   33.0170   50.9560 H   0  0  0  0  0  0  0  0  0  0  0  0
   67.8414   30.8096   51.0398 H   0  0  0  0  0  0  0  0  0  0  0  0
   67.4569   31.8261   52.4891 H   0  0  0  0  0  0  0  0  0  0  0  0
   65.6819   31.0756   50.1448 H   0  0  0  0  0  0  0  0  0  0  0  0
   65.4109   30.9050   51.9514 H   0  0  0  0  0  0  0  0  0  0  0  0
   64.1780   34.2500   49.8190 H   0  0  0  0  0  0  0  0  0  0  0  0
   65.4810   33.3700   49.2030 H   0  0  0  0  0  0  0  0  0  0  0  0
   64.5705   32.6396   47.1836 H   0  0  0  0  0  0  0  0  0  0  0  0
   62.8803   31.2124   46.0379 H   0  0  0  0  0  0  0  0  0  0  0  0
   61.0092   30.2053   47.3386 H   0  0  0  0  0  0  0  0  0  0  0  0
   60.8183   30.6169   49.7861 H   0  0  0  0  0  0  0  0  0  0  0  0
   61.4035   35.0726   50.4819 H   0  0  0  0  0  0  0  0  0  0  0  0
   61.4704   33.3583   49.9117 H   0  0  0  0  0  0  0  0  0  0  0  0
   59.4080   35.4671   49.1001 H   0  0  0  0  0  0  0  0  0  0  0  0
   60.7509   34.8161   48.0845 H   0  0  0  0  0  0  0  0  0  0  0  0
   57.6729   31.5276   47.3441 H   0  0  0  0  0  0  0  0  0  0  0  0
  1  2  1  0
  2  3  1  0
  3  4  2  0
  4  5  1  0
  5  6  2  0
  6  7  1  0
  7  8  1  0
  8  9  1  0
  9 10  1  0
 10 11  1  0
 11 12  1  0
 12 13  1  0
 13 14  1  0
 14 15  1  0
 15 16  2  0
 15 17  1  0
 17 18  1  0
 18 19  1  0
 19 20  1  0
 20 21  1  0
 21 22  1  0
 17 23  1  0
 23 24  1  0
 24 25  2  0
 25 26  1  0
 26 27  2  0
 27 28  1  0
 28 29  2  0
 11 30  1  0
 30 31  1  0
  7 32  2  0
 32  3  1  0
 31  8  1  0
 29 14  1  0
 22 17  1  0
 29 24  1  0
  1 33  1  0
  1 34  1  0
  1 35  1  0
  4 36  1  0
  5 37  1  0
  6 38  1  0
  9 39  1  0
  9 40  1  0
 10 41  1  0
 10 42  1  0
 12 43  1  0
 12 44  1  0
 13 45  1  0
 13 46  1  0
 18 47  1  0
 18 48  1  0
 19 49  1  0
 19 50  1  0
 20 51  1  0
 20 52  1  0
 21 53  1  0
 21 54  1  0
 22 55  1  0
 22 56  1  0
 23 57  1  0
 23 58  1  0
 25 59  1  0
 26 60  1  0
 27 61  1  0
 28 62  1  0
 30 63  1  0
 30 64  1  0
 31 65  1  0
 31 66  1  0
 32 67  1  0
M  CHG  1  23   1
M  END
>  <UniqueID>  (14) 
14

>  <SMILES>  (14) 
COc1cccc(N2CCN(CCN3C(=O)C4(CCCCC4)[NH2+]c4ccccc43)CC2)c1

>  <Energy>  (14) 
93.97882258466889

>  <Genealogy>  (14) 
COc1cccc(N2CCN(CCN3C(=O)C4(CCCCC4)[NH2+]c4ccccc43)CC2)c1 (protonated)
COc1cccc(N2CCN(CCN3C(=O)C4(CCCCC4)[NH2+]c4ccccc43)CC2)c1 (3D coordinates assigned)
COc1cccc(N2CCN(CCN3C(=O)C4(CCCCC4)[NH2+]c4ccccc43)CC2)c1 (nonaromatic ring conformer: 93.97882258466889 kcal/mol)

>  <smiles>  (14) 
COc1cccc(N2CCN(CCN3C(=O)C4(CCCCC4)Nc4ccccc43)CC2)c1

>  <score_type>  (14) 
oracle

>  <origin>  (14) 
adg

>  <m_score__min__energy>  (14) 
-8.0800000000000001

>  <m_primary>  (14) 
energy

$$$$
14:0
     RDKit          3D

 38 40  0  0  0  0  0  0  0  0999 V2000
   55.9013   27.1355   45.5292 H   0  0  0  0  0  0  0  0  0  0  0  0
   56.6530   27.9170   45.3440 C   0  0  0  0  0  0  0  0  0  0  0  0
   56.2710   29.2150   45.2330 N   0  0  0  0  0  0  0  0  0  0  0  0
   57.1810   30.2000   44.9980 C   0  0  0  0  0  0  0  0  0  0  0  0
   56.8230   31.4480   44.9070 N   0  0  0  0  0  0  0  0  0  0  0  0
   57.6210   32.6130   45.1740 C   0  0  0  0  0  0  0  0  0  0  0  0
   57.3820   33.9230   44.7910 C   0  0  0  0  0  0  0  0  0  0  0  0
   56.4970   34.3107   44.2653 H   0  0  0  0  0  0  0  0  0  0  0  0
   58.4870   34.6410   45.2070 C   0  0  0  0  0  0  0  0  0  0  0  0
   58.6283   35.7216   45.0572 H   0  0  0  0  0  0  0  0  0  0  0  0
   59.3670   33.8260   45.8230 N   0  0  0  0  0  0  0  0  0  0  0  0
   60.6960   34.2100   46.3030 C   0  0  0  0  0  0  0  0  0  0  0  0
   61.4569   33.6562   45.7335 H   0  0  0  0  0  0  0  0  0  0  0  0
   60.8177   35.2940   46.1610 H   0  0  0  0  0  0  0  0  0  0  0  0
   60.8580   33.8980   47.7780 C   0  0  0  0  0  0  0  0  0  0  0  0
   59.7450   34.0970   48.6160 C   0  0  0  0  0  0  0  0  0  0  0  0
   58.7975   34.4527   48.1850 H   0  0  0  0  0  0  0  0  0  0  0  0
   59.8280   33.8490   49.9860 C   0  0  0  0  0  0  0  0  0  0  0  0
   58.9497   34.0099   50.6284 H   0  0  0  0  0  0  0  0  0  0  0  0
   61.0220   33.3980   50.5400 C   0  0  0  0  0  0  0  0  0  0  0  0
   61.0843   33.1993   51.6201 H   0  0  0  0  0  0  0  0  0  0  0  0
   62.1400   33.1970   49.7310 C   0  0  0  0  0  0  0  0  0  0  0  0
   63.0764   32.8346   50.1803 H   0  0  0  0  0  0  0  0  0  0  0  0
   62.0870   33.4520   48.3440 C   0  0  0  0  0  0  0  0  0  0  0  0
   63.3190   33.2010   47.4940 C   0  0  0  0  0  0  0  0  0  0  0  0
   63.4770   34.2170   46.5710 F   0  0  0  0  0  0  0  0  0  0  0  0
   64.4710   33.1470   48.2600 F   0  0  0  0  0  0  0  0  0  0  0  0
   63.1880   31.9940   46.8320 F   0  0  0  0  0  0  0  0  0  0  0  0
   58.8560   32.5780   45.7820 C   0  0  0  0  0  0  0  0  0  0  0  0
   59.3482   31.6751   46.1726 H   0  0  0  0  0  0  0  0  0  0  0  0
   58.4980   29.8810   44.8840 N   0  0  0  0  0  0  0  0  0  0  0  0
   58.9260   28.5940   44.9860 C   0  0  0  0  0  0  0  0  0  0  0  0
   60.3820   28.2800   44.8620 C   0  0  0  0  0  0  0  0  0  0  0  0
   60.8233   28.1848   45.8651 H   0  0  0  0  0  0  0  0  0  0  0  0
   60.5078   27.3341   44.3148 H   0  0  0  0  0  0  0  0  0  0  0  0
   60.8865   29.0900   44.3148 H   0  0  0  0  0  0  0  0  0  0  0  0
   57.9990   27.5760   45.2230 C   0  0  0  0  0  0  0  0  0  0  0  0
   58.3241   26.5289   45.3121 H   0  0  0  0  0  0  0  0  0  0  0  0
  1  2  1  0
  2  3  1  0
  3  4  1  0
  4  5  2  0
  5  6  1  0
  6  7  1  0
  7  8  1  0
  7  9  2  0
  9 10  1  0
  9 11  1  0
 11 12  1  0
 12 13  1  0
 12 14  1  0
 12 15  1  0
 15 16  2  0
 16 17  1  0
 16 18  1  0
 18 19  1  0
 18 20  2  0
 20 21  1  0
 20 22  1  0
 22 23  1  0
 22 24  2  0
 24 25  1  0
 25 26  1  0
 25 27  1  0
 25 28  1  0
 11 29  1  0
 29 30  1  0
  4 31  1  0
 31 32  2  0
 32 33  1  0
 33 34  1  0
 33 35  1  0
 33 36  1  0
 32 37  1  0
 37 38  1  0
 37  2  2  0
 29  6  2  0
 24 15  1  0
M  CHG  1   3  -1
M  END
>  <UniqueID>  (15) 
15

>  <SMILES>  (15) 
Cc1cc[n-]/c(=N\c2ccn(Cc3ccccc3C(F)(F)F)c2)n1

>  <Energy>  (15) 
73.95727136243798

>  <Genealogy>  (15) 
Cc1cc[n-]c(=Nc2ccn(Cc3ccccc3C(F)(F)F)c2)n1 (protonated)
Cc1cc[n-]/c(=N\c2ccn(Cc3ccccc3C(F)(F)F)c2)n1 (cis-trans isomerization)
Cc1cc[n-]/c(=N\c2ccn(Cc3ccccc3C(F)(F)F)c2)n1 (3D coordinates assigned)
Cc1cc[n-]/c(=N\c2ccn(Cc3ccccc3C(F)(F)F)c2)n1 (optimized conformer: 73.95727136243798 kcal/mol)

>  <smiles>  (15) 
Cc1cc[nH]c(=Nc2ccn(Cc3ccccc3C(F)(F)F)c2)n1

>  <score_type>  (15) 
oracle

>  <origin>  (15) 
adg

>  <m_score__min__energy>  (15) 
-8.7200000000000006

>  <m_primary>  (15) 
energy

$$$$
15:0
     RDKit          3D

 41 43  0  0  0  0  0  0  0  0999 V2000
   57.6180   34.2460   45.2490 C   0  0  0  0  0  0  0  0  0  0  0  0
   57.6850   33.2930   46.3040 O   0  0  0  0  0  0  0  0  0  0  0  0
   58.7020   32.3350   46.3580 C   0  0  0  0  0  0  0  0  0  0  0  0
   59.8260   32.5570   47.1860 C   0  0  0  0  0  0  0  0  0  0  0  0
   59.9040   33.7910   48.0500 C   0  0  0  0  0  0  0  0  0  0  0  0
   60.8840   31.6250   47.1870 C   0  0  0  0  0  0  0  0  0  0  0  0
   62.0650   31.8560   47.9710 N   0  0  0  0  0  0  0  0  0  0  0  0
   62.2170   31.1980   49.2680 C   0  0  0  0  0  0  0  0  0  0  0  0
   63.1560   32.0250   50.1520 C   0  0  0  0  0  0  0  0  0  0  0  0
   64.3710   32.2990   49.4790 O   0  0  0  0  0  0  0  0  0  0  0  0
   64.1240   33.1170   48.3510 C   0  0  0  0  0  0  0  0  0  0  0  0
   63.2670   32.3780   47.3200 C   0  0  0  0  0  0  0  0  0  0  0  0
   60.7890   30.4600   46.4200 C   0  0  0  0  0  0  0  0  0  0  0  0
   59.6590   30.2080   45.6350 C   0  0  0  0  0  0  0  0  0  0  0  0
   59.5810   29.0620   44.9060 N   0  0  0  0  0  0  0  0  0  0  0  0
   58.5020   28.7950   44.1300 C   0  0  0  0  0  0  0  0  0  0  0  0
   57.4650   29.6760   44.0540 N   0  0  0  0  0  0  0  0  0  0  0  0
   56.2990   29.3440   43.2230 C   0  0  0  0  0  0  0  0  0  0  0  0
   57.4860   30.8340   44.7850 C   0  0  0  0  0  0  0  0  0  0  0  0
   56.4970   31.6180   44.7380 O   0  0  0  0  0  0  0  0  0  0  0  0
   58.6040   31.1430   45.5950 C   0  0  0  0  0  0  0  0  0  0  0  0
   57.5468   35.2584   45.6733 H   0  0  0  0  0  0  0  0  0  0  0  0
   58.5236   34.1711   44.6291 H   0  0  0  0  0  0  0  0  0  0  0  0
   56.7318   34.0451   44.6291 H   0  0  0  0  0  0  0  0  0  0  0  0
   59.8855   33.4981   49.1101 H   0  0  0  0  0  0  0  0  0  0  0  0
   60.8381   34.3307   47.8350 H   0  0  0  0  0  0  0  0  0  0  0  0
   59.0453   34.4440   47.8350 H   0  0  0  0  0  0  0  0  0  0  0  0
   61.2340   31.1145   49.7545 H   0  0  0  0  0  0  0  0  0  0  0  0
   62.6400   30.1931   49.1225 H   0  0  0  0  0  0  0  0  0  0  0  0
   62.6647   32.9748   50.4097 H   0  0  0  0  0  0  0  0  0  0  0  0
   63.3800   31.4495   51.0623 H   0  0  0  0  0  0  0  0  0  0  0  0
   63.5957   34.0262   48.6738 H   0  0  0  0  0  0  0  0  0  0  0  0
   65.0868   33.3775   47.8871 H   0  0  0  0  0  0  0  0  0  0  0  0
   62.9775   33.0728   46.5178 H   0  0  0  0  0  0  0  0  0  0  0  0
   63.8441   31.5450   46.8921 H   0  0  0  0  0  0  0  0  0  0  0  0
   61.6136   29.7321   46.4340 H   0  0  0  0  0  0  0  0  0  0  0  0
   60.3580   28.3650   44.9340 H   0  0  0  0  0  0  0  0  0  0  0  0
   58.4631   27.8576   43.5558 H   0  0  0  0  0  0  0  0  0  0  0  0
   55.4442   29.1006   43.8711 H   0  0  0  0  0  0  0  0  0  0  0  0
   56.0441   30.2053   42.5880 H   0  0  0  0  0  0  0  0  0  0  0  0
   56.5360   28.4777   42.5880 H   0  0  0  0  0  0  0  0  0  0  0  0
  1  2  1  0
  2  3  1  0
  3  4  2  0
  4  5  1  0
  4  6  1  0
  6  7  1  0
  7  8  1  0
  8  9  1  0
  9 10  1  0
 10 11  1  0
 11 12  1  0
  6 13  2  0
 13 14  1  0
 14 15  1  0
 15 16  2  0
 16 17  1  0
 17 18  1  0
 17 19  1  0
 19 20  2  0
 19 21  1  0
 21  3  1  0
 12  7  1  0
 21 14  2  0
  1 22  1  0
  1 23  1  0
  1 24  1  0
  5 25  1  0
  5 26  1  0
  5 27  1  0
  8 28  1  0
  8 29  1  0
  9 30  1  0
  9 31  1  0
 11 32  1  0
 11 33  1  0
 12 34  1  0
 12 35  1  0
 13 36  1  0
 15 37  1  0
 16 38  1  0
 18 39  1  0
 18 40  1  0
 18 41  1  0
M  CHG  1  15   1
M  END
>  <UniqueID>  (16) 
16

>  <SMILES>  (16) 
COc1c(C)c(N2CCOCC2)cc2[nH+]cn(C)c(=O)c12

>  <Energy>  (16) 
62.19122959527829

>  <Genealogy>  (16) 
COc1c(C)c(N2CCOCC2)cc2[nH+]cn(C)c(=O)c12 (protonated)
COc1c(C)c(N2CCOCC2)cc2[nH+]cn(C)c(=O)c12 (3D coordinates assigned)
COc1c(C)c(N2CCOCC2)cc2[nH+]cn(C)c(=O)c12 (nonaromatic ring conformer: 62.19122959527829 kcal/mol)

>  <smiles>  (16) 
COc1c(C)c(N2CCOCC2)cc2ncn(C)c(=O)c12

>  <score_type>  (16) 
oracle

>  <origin>  (16) 
adg

>  <m_score__min__energy>  (16) 
-4.7300000000000004

>  <m_primary>  (16) 
energy

$$$$
16:0
     RDKit          3D

 39 40  0  0  0  0  0  0  0  0999 V2000
   59.7090   29.7220   45.6330 C   0  0  0  0  0  0  0  0  0  0  0  0
   58.3810   30.0970   46.2840 C   0  0  0  0  0  0  0  0  0  0  0  0
   57.4030   30.5160   45.2530 N   0  0  0  0  0  0  0  0  0  0  0  0
   56.5150   29.3940   44.8710 C   0  0  0  0  0  0  0  0  0  0  0  0
   55.7150   29.7540   43.6220 C   0  0  0  0  0  0  0  0  0  0  0  0
   58.0860   31.0870   44.0690 C   0  0  0  0  0  0  0  0  0  0  0  0
   57.4120   32.4010   43.6560 C   0  0  0  0  0  0  0  0  0  0  0  0
   57.3970   33.4050   44.8130 C   0  0  0  0  0  0  0  0  0  0  0  0
   58.5420   33.1860   45.6940 N   0  0  0  0  0  0  0  0  0  0  0  0
   59.5030   34.2180   45.9740 C   0  0  0  0  0  0  0  0  0  0  0  0
   59.4340   35.3190   45.3660 O   0  0  0  0  0  0  0  0  0  0  0  0
   60.5840   34.0110   46.9560 C   0  0  0  0  0  0  0  0  0  0  0  0
   61.8930   33.5760   46.6740 C   0  0  0  0  0  0  0  0  0  0  0  0
   62.6470   33.4750   47.8390 C   0  0  0  0  0  0  0  0  0  0  0  0
   63.9650   33.0890   48.0670 C   0  0  0  0  0  0  0  0  0  0  0  0
   64.2790   33.1410   49.4320 C   0  0  0  0  0  0  0  0  0  0  0  0
   62.9230   33.6600   50.3310 S   0  0  0  0  0  0  0  0  0  0  0  0
   61.9730   33.8070   48.9630 C   0  0  0  0  0  0  0  0  0  0  0  0
   60.3940   34.2520   48.6390 S   0  0  0  0  0  0  0  0  0  0  0  0
   60.4540   29.5116   46.4145 H   0  0  0  0  0  0  0  0  0  0  0  0
   59.5711   28.8277   45.0076 H   0  0  0  0  0  0  0  0  0  0  0  0
   60.0593   30.5564   45.0076 H   0  0  0  0  0  0  0  0  0  0  0  0
   57.9848   29.2266   46.8275 H   0  0  0  0  0  0  0  0  0  0  0  0
   58.5471   30.9324   46.9801 H   0  0  0  0  0  0  0  0  0  0  0  0
   57.1250   28.5017   44.6667 H   0  0  0  0  0  0  0  0  0  0  0  0
   55.8174   29.1922   45.6972 H   0  0  0  0  0  0  0  0  0  0  0  0
   54.7489   30.1887   43.9180 H   0  0  0  0  0  0  0  0  0  0  0  0
   56.2783   30.4854   43.0239 H   0  0  0  0  0  0  0  0  0  0  0  0
   55.5412   28.8473   43.0239 H   0  0  0  0  0  0  0  0  0  0  0  0
   59.1405   31.2804   44.3152 H   0  0  0  0  0  0  0  0  0  0  0  0
   58.0218   30.3715   43.2359 H   0  0  0  0  0  0  0  0  0  0  0  0
   57.9641   32.8368   42.8102 H   0  0  0  0  0  0  0  0  0  0  0  0
   56.3721   32.1837   43.3706 H   0  0  0  0  0  0  0  0  0  0  0  0
   57.4425   34.4263   44.4069 H   0  0  0  0  0  0  0  0  0  0  0  0
   56.4713   33.2684   45.3913 H   0  0  0  0  0  0  0  0  0  0  0  0
   58.6880   32.2240   46.0690 H   0  0  0  0  0  0  0  0  0  0  0  0
   62.2697   33.3464   45.6663 H   0  0  0  0  0  0  0  0  0  0  0  0
   64.6684   32.7830   47.2786 H   0  0  0  0  0  0  0  0  0  0  0  0
   65.2582   32.8844   49.8624 H   0  0  0  0  0  0  0  0  0  0  0  0
  1  2  1  0
  2  3  1  0
  3  4  1  0
  4  5  1  0
  3  6  1  0
  6  7  1  0
  7  8  1  0
  8  9  1  0
  9 10  1  0
 10 11  2  0
 10 12  1  0
 12 13  2  0
 13 14  1  0
 14 15  1  0
 15 16  2  0
 16 17  1  0
 17 18  1  0
 18 19  1  0
 19 12  1  0
 18 14  2  0
  1 20  1  0
  1 21  1  0
  1 22  1  0
  2 23  1  0
  2 24  1  0
  4 25  1  0
  4 26  1  0
  5 27  1  0
  5 28  1  0
  5 29  1  0
  6 30  1  0
  6 31  1  0
  7 32  1  0
  7 33  1  0
  8 34  1  0
  8 35  1  0
  9 36  1  0
 13 37  1  0
 15 38  1  0
 16 39  1  0
M  END
>  <UniqueID>  (17) 
17

>  <SMILES>  (17) 
CCN(CC)CCCNC(=O)c1cc2ccsc2s1

>  <Energy>  (17) 
100.12443297235437

>  <Genealogy>  (17) 
CCN(CC)CCCNC(=O)c1cc2ccsc2s1 (3D coordinates assigned)
CCN(CC)CCCNC(=O)c1cc2ccsc2s1 (optimized conformer: 100.12443297235437 kcal/mol)

>  <smiles>  (17) 
CCN(CC)CCCNC(=O)c1cc2ccsc2s1

>  <score_type>  (17) 
oracle

>  <origin>  (17) 
adg

>  <m_score__min__energy>  (17) 
-6.4500000000000002

>  <m_primary>  (17) 
energy

$$$$
17:0
     RDKit          3D

 48 51  0  0  0  0  0  0  0  0999 V2000
   58.6910   29.5380   47.0880 C   0  0  0  0  0  0  0  0  0  0  0  0
   57.8060   30.5530   46.6280 O   0  0  0  0  0  0  0  0  0  0  0  0
   57.5730   30.8000   45.2700 C   0  0  0  0  0  0  0  0  0  0  0  0
   56.9070   29.8830   44.5110 N   0  0  0  0  0  0  0  0  0  0  0  0
   56.6820   30.0710   43.1840 C   0  0  0  0  0  0  0  0  0  0  0  0
   57.1390   31.2280   42.5560 C   0  0  0  0  0  0  0  0  0  0  0  0
   57.8220   32.1880   43.3040 C   0  0  0  0  0  0  0  0  0  0  0  0
   58.0420   31.9900   44.6770 C   0  0  0  0  0  0  0  0  0  0  0  0
   58.7530   33.0220   45.4680 C   0  0  0  0  0  0  0  0  0  0  0  0
   58.9830   34.2990   44.9250 C   0  0  0  0  0  0  0  0  0  0  0  0
   59.6410   35.2770   45.6750 C   0  0  0  0  0  0  0  0  0  0  0  0
   60.0660   34.9980   46.9760 C   0  0  0  0  0  0  0  0  0  0  0  0
   59.8240   33.7380   47.5390 C   0  0  0  0  0  0  0  0  0  0  0  0
   60.2630   33.4440   48.9190 C   0  0  0  0  0  0  0  0  0  0  0  0
   59.2650   33.3560   49.8970 C   0  0  0  0  0  0  0  0  0  0  0  0
   59.5720   33.1610   51.2100 N   0  0  0  0  0  0  0  0  0  0  0  0
   58.4900   33.0930   52.2010 C   0  0  0  0  0  0  0  0  0  0  0  0
   60.8750   33.0650   51.6160 C   0  0  0  0  0  0  0  0  0  0  0  0
   61.1390   32.9120   52.8430 O   0  0  0  0  0  0  0  0  0  0  0  0
   61.9250   33.1310   50.6760 C   0  0  0  0  0  0  0  0  0  0  0  0
   63.2640   33.0260   51.0960 C   0  0  0  0  0  0  0  0  0  0  0  0
   64.3000   33.0750   50.1720 C   0  0  0  0  0  0  0  0  0  0  0  0
   64.0250   33.2110   48.8170 C   0  0  0  0  0  0  0  0  0  0  0  0
   62.6990   33.3090   48.3550 C   0  0  0  0  0  0  0  0  0  0  0  0
   62.4310   33.3930   46.9780 O   0  0  0  0  0  0  0  0  0  0  0  0
   63.3490   33.8440   45.9870 C   0  0  0  0  0  0  0  0  0  0  0  0
   61.6260   33.3030   49.2960 C   0  0  0  0  0  0  0  0  0  0  0  0
   59.1810   32.7480   46.7790 C   0  0  0  0  0  0  0  0  0  0  0  0
   58.6987   29.5292   48.1879 H   0  0  0  0  0  0  0  0  0  0  0  0
   58.3522   28.5599   46.7158 H   0  0  0  0  0  0  0  0  0  0  0  0
   59.7061   29.7404   46.7158 H   0  0  0  0  0  0  0  0  0  0  0  0
   56.1388   29.3094   42.6053 H   0  0  0  0  0  0  0  0  0  0  0  0
   56.9631   31.3831   41.4813 H   0  0  0  0  0  0  0  0  0  0  0  0
   58.1894   33.1031   42.8165 H   0  0  0  0  0  0  0  0  0  0  0  0
   58.6430   34.5289   43.9044 H   0  0  0  0  0  0  0  0  0  0  0  0
   59.8250   36.2702   45.2394 H   0  0  0  0  0  0  0  0  0  0  0  0
   60.5914   35.7685   47.5593 H   0  0  0  0  0  0  0  0  0  0  0  0
   58.2100   33.4463   49.5988 H   0  0  0  0  0  0  0  0  0  0  0  0
   58.9182   33.1199   53.2139 H   0  0  0  0  0  0  0  0  0  0  0  0
   57.8144   33.9505   52.0657 H   0  0  0  0  0  0  0  0  0  0  0  0
   57.9271   32.1577   52.0657 H   0  0  0  0  0  0  0  0  0  0  0  0
   63.4922   32.9041   52.1651 H   0  0  0  0  0  0  0  0  0  0  0  0
   65.3430   33.0058   50.5147 H   0  0  0  0  0  0  0  0  0  0  0  0
   64.8547   33.2425   48.0955 H   0  0  0  0  0  0  0  0  0  0  0  0
   64.2331   34.2783   46.4767 H   0  0  0  0  0  0  0  0  0  0  0  0
   63.6575   32.9949   45.3594 H   0  0  0  0  0  0  0  0  0  0  0  0
   62.8655   34.6071   45.3594 H   0  0  0  0  0  0  0  0  0  0  0  0
   59.0109   31.7513   47.2121 H   0  0  0  0  0  0  0  0  0  0  0  0
  1  2  1  0
  2  3  1  0
  3  4  2  0
  4  5  1  0
  5  6  2  0
  6  7  1  0
  7  8  2  0
  8  9  1  0
  9 10  2  0
 10 11  1  0
 11 12  2  0
 12 13  1  0
 13 14  1  0
 14 15  2  0
 15 16  1  0
 16 17  1  0
 16 18  1  0
 18 19  2  0
 18 20  1  0
 20 21  2  0
 21 22  1  0
 22 23  2  0
 23 24  1  0
 24 25  1  0
 25 26  1  0
 24 27  2  0
 13 28  2  0
  8  3  1  0
 28  9  1  0
 27 14  1  0
 27 20  1  0
  1 29  1  0
  1 30  1  0
  1 31  1  0
  5 32  1  0
  6 33  1  0
  7 34  1  0
 10 35  1  0
 11 36  1  0
 12 37  1  0
 15 38  1  0
 17 39  1  0
 17 40  1  0
 17 41  1  0
 21 42  1  0
 22 43  1  0
 23 44  1  0
 26 45  1  0
 26 46  1  0
 26 47  1  0
 28 48  1  0
M  END
>  <UniqueID>  (18) 
18

>  <SMILES>  (18) 
COc1ncccc1-c1cccc(-c2cn(C)c(=O)c3cccc(OC)c23)c1

>  <Energy>  (18) 
74.86944775646386

>  <Genealogy>  (18) 
COc1ncccc1-c1cccc(-c2cn(C)c(=O)c3cccc(OC)c23)c1 (3D coordinates assigned)
COc1ncccc1-c1cccc(-c2cn(C)c(=O)c3cccc(OC)c23)c1 (optimized conformer: 74.86944775646386 kcal/mol)

>  <smiles>  (18) 
COc1ncccc1-c1cccc(-c2cn(C)c(=O)c3cccc(OC)c23)c1

>  <score_type>  (18) 
oracle

>  <origin>  (18) 
adg

>  <m_score__min__energy>  (18) 
-8.1300000000000008

>  <m_primary>  (18) 
energy

$$$$
18:0
     RDKit          3D

 52 54  0  0  0  0  0  0  0  0999 V2000
   55.9210   29.7830   43.3840 C   0  0  0  0  0  0  0  0  0  0  0  0
   56.1980   30.0250   44.7590 O   0  0  0  0  0  0  0  0  0  0  0  0
   57.3820   30.6020   45.2480 C   0  0  0  0  0  0  0  0  0  0  0  0
   57.6330   31.9820   45.1320 C   0  0  0  0  0  0  0  0  0  0  0  0
   58.8330   32.5320   45.5970 C   0  0  0  0  0  0  0  0  0  0  0  0
   59.0780   34.0080   45.4890 C   0  0  0  0  0  0  0  0  0  0  0  0
   59.7720   31.7070   46.2260 C   0  0  0  0  0  0  0  0  0  0  0  0
   59.5360   30.3330   46.3770 C   0  0  0  0  0  0  0  0  0  0  0  0
   60.5760   29.4940   47.0770 C   0  0  0  0  0  0  0  0  0  0  0  0
   58.3430   29.7700   45.8580 C   0  0  0  0  0  0  0  0  0  0  0  0
   58.0790   28.3200   45.9560 C   0  0  0  0  0  0  0  0  0  0  0  0
   57.8670   27.6290   47.1590 C   0  0  0  0  0  0  0  0  0  0  0  0
   57.5960   25.9740   46.8130 S   0  0  0  0  0  0  0  0  0  0  0  0
   57.7530   26.2320   45.1610 C   0  0  0  0  0  0  0  0  0  0  0  0
   57.6850   25.5180   43.9860 C   0  0  0  0  0  0  0  0  0  0  0  0
   57.4260   24.1080   43.8070 N   0  0  0  0  0  0  0  0  0  0  0  0
   56.2600   23.6760   43.0310 C   0  0  0  0  0  0  0  0  0  0  0  0
   58.2660   23.0890   44.4540 C   0  0  0  0  0  0  0  0  0  0  0  0
   58.0060   21.6870   43.8670 C   0  0  0  0  0  0  0  0  0  0  0  0
   57.5530   20.6970   44.8760 N   0  0  0  0  0  0  0  0  0  0  0  0
   56.2860   20.0560   44.4790 C   0  0  0  0  0  0  0  0  0  0  0  0
   57.3790   21.3600   46.1810 C   0  0  0  0  0  0  0  0  0  0  0  0
   57.9030   26.4970   43.0030 C   0  0  0  0  0  0  0  0  0  0  0  0
   58.0910   27.7110   43.5870 N   0  0  0  0  0  0  0  0  0  0  0  0
   58.0010   27.4950   44.8860 N   0  0  0  0  0  0  0  0  0  0  0  0
   55.0952   29.0615   43.2978 H   0  0  0  0  0  0  0  0  0  0  0  0
   55.6360   30.7266   42.8958 H   0  0  0  0  0  0  0  0  0  0  0  0
   56.8178   29.3739   42.8958 H   0  0  0  0  0  0  0  0  0  0  0  0
   56.8778   32.6354   44.6708 H   0  0  0  0  0  0  0  0  0  0  0  0
   59.1501   34.4424   46.4970 H   0  0  0  0  0  0  0  0  0  0  0  0
   60.0178   34.1849   44.9454 H   0  0  0  0  0  0  0  0  0  0  0  0
   58.2457   34.4790   44.9454 H   0  0  0  0  0  0  0  0  0  0  0  0
   60.7077   32.1420   46.6071 H   0  0  0  0  0  0  0  0  0  0  0  0
   60.4542   29.5922   48.1658 H   0  0  0  0  0  0  0  0  0  0  0  0
   60.4521   28.4399   46.7878 H   0  0  0  0  0  0  0  0  0  0  0  0
   61.5800   29.8380   46.7878 H   0  0  0  0  0  0  0  0  0  0  0  0
   57.8738   28.0784   48.1630 H   0  0  0  0  0  0  0  0  0  0  0  0
   55.4534   23.3772   43.7167 H   0  0  0  0  0  0  0  0  0  0  0  0
   55.9137   24.5055   42.3970 H   0  0  0  0  0  0  0  0  0  0  0  0
   56.5378   22.8211   42.3970 H   0  0  0  0  0  0  0  0  0  0  0  0
   59.3240   23.3493   44.3029 H   0  0  0  0  0  0  0  0  0  0  0  0
   58.0177   23.0663   45.5254 H   0  0  0  0  0  0  0  0  0  0  0  0
   57.2310   21.7727   43.0911 H   0  0  0  0  0  0  0  0  0  0  0  0
   58.9623   21.3229   43.4634 H   0  0  0  0  0  0  0  0  0  0  0  0
   58.2800   19.9530   45.0010 H   0  0  0  0  0  0  0  0  0  0  0  0
   55.7217   19.7705   45.3791 H   0  0  0  0  0  0  0  0  0  0  0  0
   55.6900   20.7610   43.8809 H   0  0  0  0  0  0  0  0  0  0  0  0
   56.5009   19.1582   43.8809 H   0  0  0  0  0  0  0  0  0  0  0  0
   57.5688   20.6368   46.9879 H   0  0  0  0  0  0  0  0  0  0  0  0
   58.0879   22.1969   46.2645 H   0  0  0  0  0  0  0  0  0  0  0  0
   56.3505   21.7410   46.2645 H   0  0  0  0  0  0  0  0  0  0  0  0
   57.9193   26.3095   41.9192 H   0  0  0  0  0  0  0  0  0  0  0  0
  1  2  1  0
  2  3  1  0
  3  4  2  0
  4  5  1  0
  5  6  1  0
  5  7  2  0
  7  8  1  0
  8  9  1  0
  8 10  2  0
 10 11  1  0
 11 12  2  0
 12 13  1  0
 13 14  1  0
 14 15  2  0
 15 16  1  0
 16 17  1  0
 16 18  1  0
 18 19  1  0
 19 20  1  0
 20 21  1  0
 20 22  1  0
 15 23  1  0
 23 24  2  0
 24 25  1  0
 10  3  1  0
 25 11  1  0
 25 14  1  0
  1 26  1  0
  1 27  1  0
  1 28  1  0
  4 29  1  0
  6 30  1  0
  6 31  1  0
  6 32  1  0
  7 33  1  0
  9 34  1  0
  9 35  1  0
  9 36  1  0
 12 37  1  0
 17 38  1  0
 17 39  1  0
 17 40  1  0
 18 41  1  0
 18 42  1  0
 19 43  1  0
 19 44  1  0
 20 45  1  0
 21 46  1  0
 21 47  1  0
 21 48  1  0
 22 49  1  0
 22 50  1  0
 22 51  1  0
 23 52  1  0
M  CHG  1  20   1
M  END
>  <UniqueID>  (19) 
19

>  <SMILES>  (19) 
COc1cc(C)cc(C)c1-c1csc2c(N(C)CC[NH+](C)C)cnn12

>  <Energy>  (19) 
138.48399057977605

>  <Genealogy>  (19) 
COc1cc(C)cc(C)c1-c1csc2c(N(C)CC[NH+](C)C)cnn12 (protonated)
COc1cc(C)cc(C)c1-c1csc2c(N(C)CC[NH+](C)C)cnn12 (3D coordinates assigned)
COc1cc(C)cc(C)c1-c1csc2c(N(C)CC[NH+](C)C)cnn12 (optimized conformer: 138.48399057977605 kcal/mol)

>  <smiles>  (19) 
COc1cc(C)cc(C)c1-c1csc2c(N(C)CCN(C)C)cnn12

>  <score_type>  (19) 
oracle

>  <origin>  (19) 
adg

>  <m_score__min__energy>  (19) 
-6.2800000000000002

>  <m_primary>  (19) 
energy

$$$$
19:0
     RDKit          3D

 46 49  0  0  0  0  0  0  0  0999 V2000
   51.5490   24.0590   45.0370 C   0  0  0  0  0  0  0  0  0  0  0  0
   52.7280   23.3420   45.6030 C   0  0  0  0  0  0  0  0  0  0  0  0
   52.6780   22.2130   46.4120 C   0  0  0  0  0  0  0  0  0  0  0  0
   53.9430   21.7030   46.7260 C   0  0  0  0  0  0  0  0  0  0  0  0
   54.9890   22.4210   46.1470 C   0  0  0  0  0  0  0  0  0  0  0  0
   56.4290   22.1380   46.2800 C   0  0  0  0  0  0  0  0  0  0  0  0
   57.0290   22.5050   47.3270 O   0  0  0  0  0  0  0  0  0  0  0  0
   57.1680   21.3820   45.2030 C   0  0  0  0  0  0  0  0  0  0  0  0
   56.9310   21.9550   43.8000 C   0  0  0  0  0  0  0  0  0  0  0  0
   57.1940   23.4310   43.7900 C   0  0  0  0  0  0  0  0  0  0  0  0
   56.9840   24.0860   42.7320 O   0  0  0  0  0  0  0  0  0  0  0  0
   57.7740   24.0640   44.9400 N   0  0  0  0  0  0  0  0  0  0  0  0
   57.9380   25.4850   45.0850 C   0  0  0  0  0  0  0  0  0  0  0  0
   58.0970   26.3240   43.9680 C   0  0  0  0  0  0  0  0  0  0  0  0
   58.2360   27.7050   44.1360 C   0  0  0  0  0  0  0  0  0  0  0  0
   58.2070   28.2770   45.4190 C   0  0  0  0  0  0  0  0  0  0  0  0
   58.3640   29.7410   45.5860 C   0  0  0  0  0  0  0  0  0  0  0  0
   57.4060   30.6350   45.2300 N   0  0  0  0  0  0  0  0  0  0  0  0
   57.8020   31.9100   45.4780 C   0  0  0  0  0  0  0  0  0  0  0  0
   57.0270   33.0420   45.2140 C   0  0  0  0  0  0  0  0  0  0  0  0
   57.5570   34.3090   45.5160 C   0  0  0  0  0  0  0  0  0  0  0  0
   58.8450   34.4290   46.0740 C   0  0  0  0  0  0  0  0  0  0  0  0
   59.6150   33.2830   46.3350 C   0  0  0  0  0  0  0  0  0  0  0  0
   59.0650   32.0410   46.0270 C   0  0  0  0  0  0  0  0  0  0  0  0
   59.7360   30.5170   46.2210 S   0  0  0  0  0  0  0  0  0  0  0  0
   58.0210   27.4370   46.5320 C   0  0  0  0  0  0  0  0  0  0  0  0
   57.8810   26.0570   46.3640 C   0  0  0  0  0  0  0  0  0  0  0  0
   54.3350   23.6860   45.2480 S   0  0  0  0  0  0  0  0  0  0  0  0
   50.9229   24.4398   45.8574 H   0  0  0  0  0  0  0  0  0  0  0  0
   51.8940   24.9004   44.4181 H   0  0  0  0  0  0  0  0  0  0  0  0
   50.9606   23.3656   44.4181 H   0  0  0  0  0  0  0  0  0  0  0  0
   51.7389   21.7654   46.7695 H   0  0  0  0  0  0  0  0  0  0  0  0
   54.0971   20.8222   47.3667 H   0  0  0  0  0  0  0  0  0  0  0  0
   58.2453   21.4236   45.4215 H   0  0  0  0  0  0  0  0  0  0  0  0
   56.7887   20.3495   45.2057 H   0  0  0  0  0  0  0  0  0  0  0  0
   57.6075   21.4609   43.0871 H   0  0  0  0  0  0  0  0  0  0  0  0
   55.8845   21.7759   43.5122 H   0  0  0  0  0  0  0  0  0  0  0  0
   58.1840   23.4470   45.6780 H   0  0  0  0  0  0  0  0  0  0  0  0
   58.1121   25.8916   42.9567 H   0  0  0  0  0  0  0  0  0  0  0  0
   58.3694   28.3501   43.2550 H   0  0  0  0  0  0  0  0  0  0  0  0
   56.0217   32.9441   44.7783 H   0  0  0  0  0  0  0  0  0  0  0  0
   56.9621   35.2122   45.3153 H   0  0  0  0  0  0  0  0  0  0  0  0
   59.2500   35.4250   46.3066 H   0  0  0  0  0  0  0  0  0  0  0  0
   60.6222   33.3643   46.7696 H   0  0  0  0  0  0  0  0  0  0  0  0
   57.9855   27.8700   47.5426 H   0  0  0  0  0  0  0  0  0  0  0  0
   57.7247   25.4138   47.2425 H   0  0  0  0  0  0  0  0  0  0  0  0
  1  2  1  0
  2  3  2  0
  3  4  1  0
  4  5  2  0
  5  6  1  0
  6  7  2  0
  6  8  1  0
  8  9  1  0
  9 10  1  0
 10 11  2  0
 10 12  1  0
 12 13  1  0
 13 14  2  0
 14 15  1  0
 15 16  2  0
 16 17  1  0
 17 18  2  0
 18 19  1  0
 19 20  2  0
 20 21  1  0
 21 22  2  0
 22 23  1  0
 23 24  2  0
 24 25  1  0
 16 26  1  0
 26 27  2  0
  5 28  1  0
 28  2  1  0
 27 13  1  0
 25 17  1  0
 24 19  1  0
  1 29  1  0
  1 30  1  0
  1 31  1  0
  3 32  1  0
  4 33  1  0
  8 34  1  0
  8 35  1  0
  9 36  1  0
  9 37  1  0
 12 38  1  0
 14 39  1  0
 15 40  1  0
 20 41  1  0
 21 42  1  0
 22 43  1  0
 23 44  1  0
 26 45  1  0
 27 46  1  0
M  END
>  <UniqueID>  (20) 
20

>  <SMILES>  (20) 
Cc1ccc(C(=O)CCC(=O)Nc2ccc(-c3nc4ccccc4s3)cc2)s1

>  <Energy>  (20) 
110.48993977506592

>  <Genealogy>  (20) 
Cc1ccc(C(=O)CCC(=O)Nc2ccc(-c3nc4ccccc4s3)cc2)s1 (3D coordinates assigned)
Cc1ccc(C(=O)CCC(=O)Nc2ccc(-c3nc4ccccc4s3)cc2)s1 (optimized conformer: 110.48993977506592 kcal/mol)

>  <smiles>  (20) 
Cc1ccc(C(=O)CCC(=O)Nc2ccc(-c3nc4ccccc4s3)cc2)s1

>  <score_type>  (20) 
oracle

>  <origin>  (20) 
adg

>  <m_score__min__energy>  (20) 
-9.1799999999999997

>  <m_primary>  (20) 
energy

$$$$
20:0
     RDKit          3D

 63 64  0  0  0  0  0  0  0  0999 V2000
   57.3960   31.9640   51.3840 C   0  0  0  0  0  0  0  0  0  0  0  0
   58.4360   32.7960   50.9200 O   0  0  0  0  0  0  0  0  0  0  0  0
   59.0080   33.4840   52.0130 C   0  0  0  0  0  0  0  0  0  0  0  0
   60.4890   33.7630   51.7300 C   0  0  0  0  0  0  0  0  0  0  0  0
   60.8650   33.4340   50.3420 N   0  0  0  0  0  0  0  0  0  0  0  0
   62.2940   33.2830   50.2060 C   0  0  0  0  0  0  0  0  0  0  0  0
   63.2740   34.4430   50.8460 S   0  0  0  0  0  0  0  0  0  0  0  0
   62.8720   32.1030   49.5940 N   0  0  0  0  0  0  0  0  0  0  0  0
   63.0120   30.8620   50.3850 C   0  0  0  0  0  0  0  0  0  0  0  0
   61.8490   29.8840   50.1380 C   0  0  0  0  0  0  0  0  0  0  0  0
   60.5400   30.4560   50.5260 N   0  0  0  0  0  0  0  0  0  0  0  0
   60.2770   30.1820   51.9500 C   0  0  0  0  0  0  0  0  0  0  0  0
   59.4470   29.8750   49.7250 C   0  0  0  0  0  0  0  0  0  0  0  0
   62.9500   32.0230   48.1220 C   0  0  0  0  0  0  0  0  0  0  0  0
   61.5800   31.9360   47.4760 C   0  0  0  0  0  0  0  0  0  0  0  0
   61.1320   30.7120   46.9790 C   0  0  0  0  0  0  0  0  0  0  0  0
   59.8840   30.6090   46.3700 C   0  0  0  0  0  0  0  0  0  0  0  0
   59.4360   29.3640   45.9060 C   0  0  0  0  0  0  0  0  0  0  0  0
   58.1740   29.2360   45.3040 C   0  0  0  0  0  0  0  0  0  0  0  0
   57.6930   28.0020   44.8350 O   0  0  0  0  0  0  0  0  0  0  0  0
   58.1510   27.3530   43.6540 C   0  0  0  0  0  0  0  0  0  0  0  0
   57.3590   30.3630   45.1620 C   0  0  0  0  0  0  0  0  0  0  0  0
   56.1010   30.1990   44.5570 O   0  0  0  0  0  0  0  0  0  0  0  0
   55.8960   29.8030   43.2040 C   0  0  0  0  0  0  0  0  0  0  0  0
   57.8070   31.6160   45.6230 C   0  0  0  0  0  0  0  0  0  0  0  0
   59.0750   31.7600   46.2370 C   0  0  0  0  0  0  0  0  0  0  0  0
   59.5320   32.9780   46.7030 N   0  0  0  0  0  0  0  0  0  0  0  0
   58.6930   34.1890   46.5770 C   0  0  0  0  0  0  0  0  0  0  0  0
   60.7770   33.0770   47.2870 C   0  0  0  0  0  0  0  0  0  0  0  0
   61.2250   34.2020   47.6410 O   0  0  0  0  0  0  0  0  0  0  0  0
   57.3921   31.9608   52.4840 H   0  0  0  0  0  0  0  0  0  0  0  0
   56.4313   32.3425   51.0150 H   0  0  0  0  0  0  0  0  0  0  0  0
   57.5535   30.9398   51.0150 H   0  0  0  0  0  0  0  0  0  0  0  0
   58.4786   34.4365   52.1631 H   0  0  0  0  0  0  0  0  0  0  0  0
   58.9203   32.8660   52.9188 H   0  0  0  0  0  0  0  0  0  0  0  0
   60.6881   34.8303   51.9070 H   0  0  0  0  0  0  0  0  0  0  0  0
   61.0855   33.1267   52.4003 H   0  0  0  0  0  0  0  0  0  0  0  0
   60.4080   32.5300   50.0780 H   0  0  0  0  0  0  0  0  0  0  0  0
   60.5000   34.1480   49.6790 H   0  0  0  0  0  0  0  0  0  0  0  0
   63.9553   30.3689   50.1074 H   0  0  0  0  0  0  0  0  0  0  0  0
   63.0037   31.1363   51.4502 H   0  0  0  0  0  0  0  0  0  0  0  0
   61.8210   29.6312   49.0678 H   0  0  0  0  0  0  0  0  0  0  0  0
   62.0228   28.9921   50.7579 H   0  0  0  0  0  0  0  0  0  0  0  0
   60.9055   30.8368   52.5715 H   0  0  0  0  0  0  0  0  0  0  0  0
   59.2167   30.3743   52.1707 H   0  0  0  0  0  0  0  0  0  0  0  0
   60.5126   29.1304   52.1707 H   0  0  0  0  0  0  0  0  0  0  0  0
   58.6777   29.4661   50.3965 H   0  0  0  0  0  0  0  0  0  0  0  0
   59.0024   30.6558   49.0904 H   0  0  0  0  0  0  0  0  0  0  0  0
   59.8455   29.0697   49.0904 H   0  0  0  0  0  0  0  0  0  0  0  0
   63.4620   32.9209   47.7457 H   0  0  0  0  0  0  0  0  0  0  0  0
   63.5022   31.1073   47.8638 H   0  0  0  0  0  0  0  0  0  0  0  0
   61.7701   29.8205   47.0689 H   0  0  0  0  0  0  0  0  0  0  0  0
   60.0797   28.4787   46.0147 H   0  0  0  0  0  0  0  0  0  0  0  0
   58.7652   26.4827   43.9286 H   0  0  0  0  0  0  0  0  0  0  0  0
   57.2871   27.0195   43.0603 H   0  0  0  0  0  0  0  0  0  0  0  0
   58.7547   28.0552   43.0603 H   0  0  0  0  0  0  0  0  0  0  0  0
   55.3904   28.8264   43.1804 H   0  0  0  0  0  0  0  0  0  0  0  0
   55.2720   30.5513   42.6934 H   0  0  0  0  0  0  0  0  0  0  0  0
   56.8673   29.7255   42.6934 H   0  0  0  0  0  0  0  0  0  0  0  0
   57.1608   32.4982   45.5041 H   0  0  0  0  0  0  0  0  0  0  0  0
   58.4346   34.5619   47.5791 H   0  0  0  0  0  0  0  0  0  0  0  0
   59.2484   34.9645   46.0291 H   0  0  0  0  0  0  0  0  0  0  0  0
   57.7718   33.9415   46.0291 H   0  0  0  0  0  0  0  0  0  0  0  0
  1  2  1  0
  2  3  1  0
  3  4  1  0
  4  5  1  0
  5  6  1  0
  6  7  2  0
  6  8  1  0
  8  9  1  0
  9 10  1  0
 10 11  1  0
 11 12  1  0
 11 13  1  0
  8 14  1  0
 14 15  1  0
 15 16  2  0
 16 17  1  0
 17 18  2  0
 18 19  1  0
 19 20  1  0
 20 21  1  0
 19 22  2  0
 22 23  1  0
 23 24  1  0
 22 25  1  0
 25 26  2  0
 26 27  1  0
 27 28  1  0
 27 29  1  0
 29 30  2  0
 29 15  1  0
 26 17  1  0
  1 31  1  0
  1 32  1  0
  1 33  1  0
  3 34  1  0
  3 35  1  0
  4 36  1  0
  4 37  1  0
  5 38  1  0
  5 39  1  0
  9 40  1  0
  9 41  1  0
 10 42  1  0
 10 43  1  0
 12 44  1  0
 12 45  1  0
 12 46  1  0
 13 47  1  0
 13 48  1  0
 13 49  1  0
 14 50  1  0
 14 51  1  0
 16 52  1  0
 18 53  1  0
 21 54  1  0
 21 55  1  0
 21 56  1  0
 24 57  1  0
 24 58  1  0
 24 59  1  0
 25 60  1  0
 28 61  1  0
 28 62  1  0
 28 63  1  0
M  CHG  1   5   1
M  END
>  <UniqueID>  (21) 
21

>  <SMILES>  (21) 
COCC[NH2+]C(=S)N(CCN(C)C)Cc1cc2cc(OC)c(OC)cc2n(C)c1=O

>  <Energy>  (21) 
70.56797382790916

>  <Genealogy>  (21) 
COCC[NH2+]C(=S)N(CCN(C)C)Cc1cc2cc(OC)c(OC)cc2n(C)c1=O (protonated)
COCC[NH2+]C(=S)N(CCN(C)C)Cc1cc2cc(OC)c(OC)cc2n(C)c1=O (3D coordinates assigned)
COCC[NH2+]C(=S)N(CCN(C)C)Cc1cc2cc(OC)c(OC)cc2n(C)c1=O (optimized conformer: 70.56797382790916 kcal/mol)

>  <smiles>  (21) 
COCCNC(=S)N(CCN(C)C)Cc1cc2cc(OC)c(OC)cc2n(C)c1=O

>  <score_type>  (21) 
oracle

>  <origin>  (21) 
adg

>  <m_score__min__energy>  (21) 
-4.2999999999999998

>  <m_primary>  (21) 
energy

$$$$
21:0
     RDKit          3D

 36 36  0  0  0  0  0  0  0  0999 V2000
   60.2660   34.1740   48.7040 C   0  0  0  0  0  0  0  0  0  0  0  0
   59.1730   33.4040   48.2130 O   0  0  0  0  0  0  0  0  0  0  0  0
   58.8070   33.3220   46.8610 C   0  0  0  0  0  0  0  0  0  0  0  0
   59.4690   34.0530   45.8550 C   0  0  0  0  0  0  0  0  0  0  0  0
   59.0610   33.9430   44.5230 C   0  0  0  0  0  0  0  0  0  0  0  0
   58.0000   33.1010   44.1800 C   0  0  0  0  0  0  0  0  0  0  0  0
   57.3440   32.3510   45.1720 C   0  0  0  0  0  0  0  0  0  0  0  0
   56.2270   31.5040   44.8660 N   0  0  0  0  0  0  0  0  0  0  0  0
   56.3000   30.1330   44.4570 C   0  0  0  0  0  0  0  0  0  0  0  0
   55.4770   29.2850   44.8950 O   0  0  0  0  0  0  0  0  0  0  0  0
   57.3590   29.7090   43.4850 C   0  0  0  0  0  0  0  0  0  0  0  0
   58.6170   29.2080   44.2090 C   0  0  0  0  0  0  0  0  0  0  0  0
   58.5050   27.7210   44.6020 C   0  0  0  0  0  0  0  0  0  0  0  0
   57.2410   27.4170   45.3000 N   0  0  0  0  0  0  0  0  0  0  0  0
   57.2770   26.1580   46.0670 C   0  0  0  0  0  0  0  0  0  0  0  0
   55.9000   25.6320   46.3530 C   0  0  0  0  0  0  0  0  0  0  0  0
   55.7520   24.5460   46.9740 O   0  0  0  0  0  0  0  0  0  0  0  0
   54.7830   26.3490   45.9460 O   0  0  0  0  0  0  0  0  0  0  0  0
   57.7430   32.4840   46.5080 C   0  0  0  0  0  0  0  0  0  0  0  0
   60.2551   34.1663   49.8039 H   0  0  0  0  0  0  0  0  0  0  0  0
   61.2108   33.7409   48.3436 H   0  0  0  0  0  0  0  0  0  0  0  0
   60.1763   35.2094   48.3436 H   0  0  0  0  0  0  0  0  0  0  0  0
   60.3093   34.7121   46.1187 H   0  0  0  0  0  0  0  0  0  0  0  0
   59.5767   34.5211   43.7421 H   0  0  0  0  0  0  0  0  0  0  0  0
   57.6771   33.0247   43.1312 H   0  0  0  0  0  0  0  0  0  0  0  0
   56.9626   28.8993   42.8548 H   0  0  0  0  0  0  0  0  0  0  0  0
   57.6359   30.5803   42.8734 H   0  0  0  0  0  0  0  0  0  0  0  0
   59.4837   29.3350   43.5437 H   0  0  0  0  0  0  0  0  0  0  0  0
   58.7338   29.7950   45.1319 H   0  0  0  0  0  0  0  0  0  0  0  0
   58.5605   27.1093   43.6894 H   0  0  0  0  0  0  0  0  0  0  0  0
   59.3316   27.4932   45.2910 H   0  0  0  0  0  0  0  0  0  0  0  0
   56.4590   27.3650   44.6050 H   0  0  0  0  0  0  0  0  0  0  0  0
   57.0200   28.2050   45.9530 H   0  0  0  0  0  0  0  0  0  0  0  0
   57.8311   25.4051   45.4873 H   0  0  0  0  0  0  0  0  0  0  0  0
   57.7689   26.3614   47.0296 H   0  0  0  0  0  0  0  0  0  0  0  0
   57.2127   31.9219   47.2908 H   0  0  0  0  0  0  0  0  0  0  0  0
  1  2  1  0
  2  3  1  0
  3  4  2  0
  4  5  1  0
  5  6  2  0
  6  7  1  0
  7  8  1  0
  8  9  1  0
  9 10  2  0
  9 11  1  0
 11 12  1  0
 12 13  1  0
 13 14  1  0
 14 15  1  0
 15 16  1  0
 16 17  2  0
 16 18  1  0
  7 19  2  0
 19  3  1  0
  1 20  1  0
  1 21  1  0
  1 22  1  0
  4 23  1  0
  5 24  1  0
  6 25  1  0
 11 26  1  0
 11 27  1  0
 12 28  1  0
 12 29  1  0
 13 30  1  0
 13 31  1  0
 14 32  1  0
 14 33  1  0
 15 34  1  0
 15 35  1  0
 19 36  1  0
M  CHG  3   8  -1  14   1  18  -1
M  END
>  <UniqueID>  (22) 
22

>  <SMILES>  (22) 
COc1cccc([N-]C(=O)CCC[NH2+]CC(=O)[O-])c1

>  <Energy>  (22) 
31.992927589412382

>  <Genealogy>  (22) 
COc1cccc([N-]C(=O)CCC[NH2+]CC(=O)[O-])c1 (protonated)
COc1cccc([N-]C(=O)CCC[NH2+]CC(=O)[O-])c1 (3D coordinates assigned)
COc1cccc([N-]C(=O)CCC[NH2+]CC(=O)[O-])c1 (optimized conformer: 31.992927589412382 kcal/mol)

>  <smiles>  (22) 
COc1cccc(NC(=O)CCCNCC(=O)[O-])c1

>  <score_type>  (22) 
oracle

>  <origin>  (22) 
adg

>  <m_score__min__energy>  (22) 
-9.7100000000000009

>  <m_primary>  (22) 
energy

$$$$
22:0
     RDKit          3D

 32 33  0  0  0  0  0  0  0  0999 V2000
   59.4290   34.9640   47.0350 C   0  0  0  0  0  0  0  0  0  0  0  0
   58.6470   33.6540   47.0180 C   0  0  0  0  0  0  0  0  0  0  0  0
   57.3420   33.8030   46.2140 C   0  0  0  0  0  0  0  0  0  0  0  0
   57.3830   33.1610   44.8100 C   0  0  1  0  0  0  0  0  0  0  0  0
   58.6750   33.4870   44.0460 C   0  0  0  0  0  0  0  0  0  0  0  0
   57.1360   31.6780   44.8720 C   0  0  0  0  0  0  0  0  0  0  0  0
   58.0340   30.7670   45.2960 N   0  0  0  0  0  0  0  0  0  0  0  0
   57.3280   29.6210   45.1930 C   0  0  0  0  0  0  0  0  0  0  0  0
   57.8590   28.2830   45.5440 C   0  0  0  0  0  0  0  0  0  0  0  0
   59.2470   28.0940   45.6810 C   0  0  0  0  0  0  0  0  0  0  0  0
   59.7640   26.8380   46.0110 C   0  0  0  0  0  0  0  0  0  0  0  0
   58.9050   25.7570   46.2080 C   0  0  0  0  0  0  0  0  0  0  0  0
   57.5260   25.9280   46.0750 C   0  0  0  0  0  0  0  0  0  0  0  0
   56.9980   27.1820   45.7440 C   0  0  0  0  0  0  0  0  0  0  0  0
   55.6530   27.3090   45.6230 F   0  0  0  0  0  0  0  0  0  0  0  0
   56.0750   29.8340   44.7390 N   0  0  0  0  0  0  0  0  0  0  0  0
   55.9950   31.1160   44.5560 O   0  0  0  0  0  0  0  0  0  0  0  0
   59.6110   35.2689   48.0761 H   0  0  0  0  0  0  0  0  0  0  0  0
   60.3911   34.8234   46.5206 H   0  0  0  0  0  0  0  0  0  0  0  0
   58.8487   35.7441   46.5206 H   0  0  0  0  0  0  0  0  0  0  0  0
   59.2666   32.8707   46.5569 H   0  0  0  0  0  0  0  0  0  0  0  0
   58.3928   33.3832   48.0534 H   0  0  0  0  0  0  0  0  0  0  0  0
   56.5296   33.3301   46.7853 H   0  0  0  0  0  0  0  0  0  0  0  0
   57.1870   34.8814   46.0625 H   0  0  0  0  0  0  0  0  0  0  0  0
   56.5602   33.6134   44.2371 H   0  0  0  0  0  0  0  0  0  0  0  0
   59.4836   33.6910   44.7633 H   0  0  0  0  0  0  0  0  0  0  0  0
   58.9531   32.6309   43.4138 H   0  0  0  0  0  0  0  0  0  0  0  0
   58.5136   34.3726   43.4138 H   0  0  0  0  0  0  0  0  0  0  0  0
   59.9307   28.9419   45.5271 H   0  0  0  0  0  0  0  0  0  0  0  0
   60.8505   26.7019   46.1155 H   0  0  0  0  0  0  0  0  0  0  0  0
   59.3142   24.7697   46.4682 H   0  0  0  0  0  0  0  0  0  0  0  0
   56.8509   25.0736   46.2309 H   0  0  0  0  0  0  0  0  0  0  0  0
  1  2  1  0
  2  3  1  0
  3  4  1  0
  4  5  1  0
  4  6  1  0
  6  7  2  0
  7  8  1  0
  8  9  1  0
  9 10  2  0
 10 11  1  0
 11 12  2  0
 12 13  1  0
 13 14  2  0
 14 15  1  0
  8 16  2  0
 16 17  1  0
 17  6  1  0
 14  9  1  0
  1 18  1  0
  1 19  1  0
  1 20  1  0
  2 21  1  0
  2 22  1  0
  3 23  1  0
  3 24  1  0
  4 25  1  6
  5 26  1  0
  5 27  1  0
  5 28  1  0
 10 29  1  0
 11 30  1  0
 12 31  1  0
 13 32  1  0
M  END
>  <UniqueID>  (23) 
23

>  <SMILES>  (23) 
CCC[C@@H](C)c1nc(-c2ccccc2F)no1

>  <Energy>  (23) 
58.99000237968249

>  <Genealogy>  (23) 
CCC[C@@H](C)c1nc(-c2ccccc2F)no1 (chirality)
CCC[C@@H](C)c1nc(-c2ccccc2F)no1 (3D coordinates assigned)
CCC[C@@H](C)c1nc(-c2ccccc2F)no1 (optimized conformer: 58.99000237968249 kcal/mol)

>  <smiles>  (23) 
CCCC(C)c1nc(-c2ccccc2F)no1

>  <score_type>  (23) 
oracle

>  <origin>  (23) 
adg

>  <m_score__min__energy>  (23) 
-7.2199999999999998

>  <m_primary>  (23) 
energy

$$$$
23:0
     RDKit          3D

 45 48  0  0  0  0  0  0  0  0999 V2000
   64.7540   32.8880   49.4370 C   0  0  0  0  0  0  0  0  0  0  0  0
   63.3750   33.5430   49.4180 C   0  0  0  0  0  0  0  0  0  0  0  0
   62.4910   32.8580   48.4470 N   0  0  0  0  0  0  0  0  0  0  0  0
   63.2010   32.5720   47.1790 C   0  0  0  0  0  0  0  0  0  0  0  0
   63.3880   33.8450   46.3540 C   0  0  0  0  0  0  0  0  0  0  0  0
   61.8930   31.6260   49.0250 C   0  0  0  0  0  0  0  0  0  0  0  0
   60.3880   31.8120   49.2280 C   0  0  0  0  0  0  0  0  0  0  0  0
   59.6950   31.9290   47.9470 N   0  0  0  0  0  0  0  0  0  0  0  0
   59.5300   33.0240   47.1470 C   0  0  0  0  0  0  0  0  0  0  0  0
   59.9230   34.3400   47.3990 C   0  0  0  0  0  0  0  0  0  0  0  0
   59.6890   35.3050   46.4010 C   0  0  0  0  0  0  0  0  0  0  0  0
   59.0800   34.9460   45.1760 C   0  0  0  0  0  0  0  0  0  0  0  0
   58.6970   33.6160   44.9290 C   0  0  0  0  0  0  0  0  0  0  0  0
   58.9310   32.6860   45.9330 C   0  0  0  0  0  0  0  0  0  0  0  0
   58.7330   31.3320   46.0040 C   0  0  0  0  0  0  0  0  0  0  0  0
   58.3130   30.2030   45.3590 C   0  0  0  0  0  0  0  0  0  0  0  0
   57.7640   29.9750   44.1020 C   0  0  0  0  0  0  0  0  0  0  0  0
   57.4610   28.6430   43.7640 C   0  0  0  0  0  0  0  0  0  0  0  0
   57.7150   27.5910   44.6750 C   0  0  0  0  0  0  0  0  0  0  0  0
   58.2790   27.8530   45.9390 C   0  0  0  0  0  0  0  0  0  0  0  0
   58.5730   29.1760   46.2610 C   0  0  0  0  0  0  0  0  0  0  0  0
   59.1190   29.6310   47.3830 O   0  0  0  0  0  0  0  0  0  0  0  0
   59.1980   30.9290   47.1930 C   0  0  0  0  0  0  0  0  0  0  0  0
   65.0735   32.7362   50.4786 H   0  0  0  0  0  0  0  0  0  0  0  0
   64.7057   31.9166   48.9231 H   0  0  0  0  0  0  0  0  0  0  0  0
   65.4764   33.5392   48.9231 H   0  0  0  0  0  0  0  0  0  0  0  0
   62.9295   33.4788   50.4217 H   0  0  0  0  0  0  0  0  0  0  0  0
   63.4844   34.5961   49.1195 H   0  0  0  0  0  0  0  0  0  0  0  0
   64.1881   32.1444   47.4085 H   0  0  0  0  0  0  0  0  0  0  0  0
   62.5986   31.8616   46.5937 H   0  0  0  0  0  0  0  0  0  0  0  0
   63.5142   34.7042   47.0291 H   0  0  0  0  0  0  0  0  0  0  0  0
   64.2808   33.7429   45.7196 H   0  0  0  0  0  0  0  0  0  0  0  0
   62.5036   34.0040   45.7196 H   0  0  0  0  0  0  0  0  0  0  0  0
   62.0654   30.7829   48.3399 H   0  0  0  0  0  0  0  0  0  0  0  0
   62.3632   31.4223   49.9984 H   0  0  0  0  0  0  0  0  0  0  0  0
   59.9892   30.9445   49.7743 H   0  0  0  0  0  0  0  0  0  0  0  0
   60.2243   32.7374   49.7996 H   0  0  0  0  0  0  0  0  0  0  0  0
   60.4019   34.6149   48.3504 H   0  0  0  0  0  0  0  0  0  0  0  0
   59.9832   36.3504   46.5760 H   0  0  0  0  0  0  0  0  0  0  0  0
   58.9043   35.7148   44.4091 H   0  0  0  0  0  0  0  0  0  0  0  0
   58.2299   33.3235   43.9770 H   0  0  0  0  0  0  0  0  0  0  0  0
   57.5745   30.8013   43.4011 H   0  0  0  0  0  0  0  0  0  0  0  0
   57.0220   28.4174   42.7810 H   0  0  0  0  0  0  0  0  0  0  0  0
   57.4693   26.5565   44.3931 H   0  0  0  0  0  0  0  0  0  0  0  0
   58.4810   27.0381   46.6497 H   0  0  0  0  0  0  0  0  0  0  0  0
  1  2  1  0
  2  3  1  0
  3  4  1  0
  4  5  1  0
  3  6  1  0
  6  7  1  0
  7  8  1  0
  8  9  1  0
  9 10  2  0
 10 11  1  0
 11 12  2  0
 12 13  1  0
 13 14  2  0
 14 15  1  0
 15 16  1  0
 16 17  2  0
 17 18  1  0
 18 19  2  0
 19 20  1  0
 20 21  2  0
 21 22  1  0
 22 23  1  0
 23  8  1  0
 14  9  1  0
 23 15  2  0
 21 16  1  0
  1 24  1  0
  1 25  1  0
  1 26  1  0
  2 27  1  0
  2 28  1  0
  4 29  1  0
  4 30  1  0
  5 31  1  0
  5 32  1  0
  5 33  1  0
  6 34  1  0
  6 35  1  0
  7 36  1  0
  7 37  1  0
 10 38  1  0
 11 39  1  0
 12 40  1  0
 13 41  1  0
 17 42  1  0
 18 43  1  0
 19 44  1  0
 20 45  1  0
M  END
>  <UniqueID>  (24) 
24

>  <SMILES>  (24) 
CCN(CC)CCn1c2ccccc2c2c3ccccc3oc21

>  <Energy>  (24) 
143.64409297339608

>  <Genealogy>  (24) 
CCN(CC)CCn1c2ccccc2c2c3ccccc3oc21 (3D coordinates assigned)
CCN(CC)CCn1c2ccccc2c2c3ccccc3oc21 (optimized conformer: 143.64409297339608 kcal/mol)

>  <smiles>  (24) 
CCN(CC)CCn1c2ccccc2c2c3ccccc3oc21

>  <score_type>  (24) 
oracle

>  <origin>  (24) 
adg

>  <m_score__min__energy>  (24) 
-6.9699999999999998

>  <m_primary>  (24) 
energy

$$$$
24:0
     RDKit          3D

 38 38  0  0  0  0  0  0  0  0999 V2000
   63.4250   33.8750   46.3790 C   0  0  0  0  0  0  0  0  0  0  0  0
   63.1680   33.5200   47.8550 C   0  0  0  0  0  0  0  0  0  0  0  0
   61.7870   33.0530   48.1730 N   0  0  0  0  0  0  0  0  0  0  0  0
   61.7180   31.6160   48.5510 C   0  0  0  0  0  0  0  0  0  0  0  0
   61.5100   30.6850   47.3510 C   0  0  0  0  0  0  0  0  0  0  0  0
   61.0590   33.9740   49.0900 C   0  0  0  0  0  0  0  0  0  0  0  0
   59.7770   34.5930   48.5080 C   0  0  0  0  0  0  0  0  0  0  0  0
   60.0130   35.0420   46.7510 S   0  0  0  0  0  0  0  0  0  0  0  0
   58.9900   33.7180   46.0980 C   0  0  0  0  0  0  0  0  0  0  0  0
   58.3020   33.8910   44.8910 C   0  0  0  0  0  0  0  0  0  0  0  0
   57.5100   32.8580   44.3810 C   0  0  0  0  0  0  0  0  0  0  0  0
   57.4020   31.6400   45.0640 C   0  0  0  0  0  0  0  0  0  0  0  0
   56.5940   30.6350   44.5130 O   0  0  0  0  0  0  0  0  0  0  0  0
   56.7400   30.1220   43.1930 C   0  0  0  0  0  0  0  0  0  0  0  0
   58.1060   31.4670   46.2730 C   0  0  0  0  0  0  0  0  0  0  0  0
   58.8980   32.5010   46.7810 C   0  0  0  0  0  0  0  0  0  0  0  0
   64.0692   34.7649   46.3227 H   0  0  0  0  0  0  0  0  0  0  0  0
   63.9222   33.0302   45.8799 H   0  0  0  0  0  0  0  0  0  0  0  0
   62.4672   34.0836   45.8799 H   0  0  0  0  0  0  0  0  0  0  0  0
   63.8693   32.7214   48.1384 H   0  0  0  0  0  0  0  0  0  0  0  0
   63.3079   34.4542   48.4187 H   0  0  0  0  0  0  0  0  0  0  0  0
   61.2680   33.1290   47.2650 H   0  0  0  0  0  0  0  0  0  0  0  0
   62.6593   31.3399   49.0486 H   0  0  0  0  0  0  0  0  0  0  0  0
   60.8487   31.4938   49.2139 H   0  0  0  0  0  0  0  0  0  0  0  0
   61.2832   29.6700   47.7094 H   0  0  0  0  0  0  0  0  0  0  0  0
   60.6722   31.0543   46.7413 H   0  0  0  0  0  0  0  0  0  0  0  0
   62.4253   30.6626   46.7413 H   0  0  0  0  0  0  0  0  0  0  0  0
   60.7854   33.4096   49.9937 H   0  0  0  0  0  0  0  0  0  0  0  0
   61.7422   34.8129   49.2885 H   0  0  0  0  0  0  0  0  0  0  0  0
   58.9566   33.8645   48.5871 H   0  0  0  0  0  0  0  0  0  0  0  0
   59.5359   35.5039   49.0756 H   0  0  0  0  0  0  0  0  0  0  0  0
   58.3847   34.8412   44.3431 H   0  0  0  0  0  0  0  0  0  0  0  0
   56.9671   33.0030   43.4354 H   0  0  0  0  0  0  0  0  0  0  0  0
   57.0408   29.0650   43.2416 H   0  0  0  0  0  0  0  0  0  0  0  0
   55.7822   30.2064   42.6588 H   0  0  0  0  0  0  0  0  0  0  0  0
   57.5098   30.6981   42.6588 H   0  0  0  0  0  0  0  0  0  0  0  0
   58.0319   30.5148   46.8188 H   0  0  0  0  0  0  0  0  0  0  0  0
   59.4507   32.3569   47.7211 H   0  0  0  0  0  0  0  0  0  0  0  0
  1  2  1  0
  2  3  1  0
  3  4  1  0
  4  5  1  0
  3  6  1  0
  6  7  1  0
  7  8  1  0
  8  9  1  0
  9 10  2  0
 10 11  1  0
 11 12  2  0
 12 13  1  0
 13 14  1  0
 12 15  1  0
 15 16  2  0
 16  9  1  0
  1 17  1  0
  1 18  1  0
  1 19  1  0
  2 20  1  0
  2 21  1  0
  3 22  1  0
  4 23  1  0
  4 24  1  0
  5 25  1  0
  5 26  1  0
  5 27  1  0
  6 28  1  0
  6 29  1  0
  7 30  1  0
  7 31  1  0
 10 32  1  0
 11 33  1  0
 14 34  1  0
 14 35  1  0
 14 36  1  0
 15 37  1  0
 16 38  1  0
M  CHG  1   3   1
M  END
>  <UniqueID>  (25) 
25

>  <SMILES>  (25) 
CC[NH+](CC)CCSc1ccc(OC)cc1

>  <Energy>  (25) 
37.91716841370055

>  <Genealogy>  (25) 
CC[NH+](CC)CCSc1ccc(OC)cc1 (protonated)
CC[NH+](CC)CCSc1ccc(OC)cc1 (3D coordinates assigned)
CC[NH+](CC)CCSc1ccc(OC)cc1 (optimized conformer: 37.91716841370055 kcal/mol)

>  <smiles>  (25) 
CCN(CC)CCSc1ccc(OC)cc1

>  <score_type>  (25) 
oracle

>  <origin>  (25) 
adg

>  <m_score__min__energy>  (25) 
-4.3499999999999996

>  <m_primary>  (25) 
energy

$$$$
25:0
     RDKit          3D

 28 29  0  0  0  0  0  0  0  0999 V2000
   56.3030   29.6890   42.8030 C   0  0  0  0  0  0  0  0  0  0  0  0
   55.9050   30.1040   44.1790 C   0  0  0  0  0  0  0  0  0  0  0  0
   55.1570   29.3520   44.8610 O   0  0  0  0  0  0  0  0  0  0  0  0
   56.2790   31.3700   44.6480 O   0  0  0  0  0  0  0  0  0  0  0  0
   57.5080   31.6840   45.2470 C   0  0  0  0  0  0  0  0  0  0  0  0
   57.9370   33.0090   45.4370 C   0  0  0  0  0  0  0  0  0  0  0  0
   59.1660   33.2720   46.0500 C   0  0  0  0  0  0  0  0  0  0  0  0
   59.9850   32.2180   46.4920 C   0  0  0  0  0  0  0  0  0  0  0  0
   61.2910   32.4970   47.1420 C   0  0  0  0  0  0  0  0  0  0  0  0
   62.0850   33.5790   46.7190 C   0  0  0  0  0  0  0  0  0  0  0  0
   63.3140   33.8390   47.3340 C   0  0  0  0  0  0  0  0  0  0  0  0
   63.7640   33.0240   48.3750 C   0  0  0  0  0  0  0  0  0  0  0  0
   64.9560   33.2780   48.9690 F   0  0  0  0  0  0  0  0  0  0  0  0
   62.9860   31.9460   48.8030 C   0  0  0  0  0  0  0  0  0  0  0  0
   61.7560   31.6820   48.1920 C   0  0  0  0  0  0  0  0  0  0  0  0
   59.5430   30.8950   46.3150 C   0  0  0  0  0  0  0  0  0  0  0  0
   58.3130   30.6350   45.7030 C   0  0  0  0  0  0  0  0  0  0  0  0
   57.0632   28.8963   42.8646 H   0  0  0  0  0  0  0  0  0  0  0  0
   55.4215   29.3106   42.2647 H   0  0  0  0  0  0  0  0  0  0  0  0
   56.7179   30.5539   42.2647 H   0  0  0  0  0  0  0  0  0  0  0  0
   57.3029   33.8430   45.1019 H   0  0  0  0  0  0  0  0  0  0  0  0
   59.4950   34.3126   46.1876 H   0  0  0  0  0  0  0  0  0  0  0  0
   61.7368   34.2246   45.8993 H   0  0  0  0  0  0  0  0  0  0  0  0
   63.9276   34.6875   46.9969 H   0  0  0  0  0  0  0  0  0  0  0  0
   63.3413   31.3035   49.6221 H   0  0  0  0  0  0  0  0  0  0  0  0
   61.1476   30.8318   48.5340 H   0  0  0  0  0  0  0  0  0  0  0  0
   60.1690   30.0590   46.6603 H   0  0  0  0  0  0  0  0  0  0  0  0
   57.9752   29.5955   45.5790 H   0  0  0  0  0  0  0  0  0  0  0  0
  1  2  1  0
  2  3  2  0
  2  4  1  0
  4  5  1  0
  5  6  2  0
  6  7  1  0
  7  8  2  0
  8  9  1  0
  9 10  2  0
 10 11  1  0
 11 12  2  0
 12 13  1  0
 12 14  1  0
 14 15  2  0
  8 16  1  0
 16 17  2  0
 17  5  1  0
 15  9  1  0
  1 18  1  0
  1 19  1  0
  1 20  1  0
  6 21  1  0
  7 22  1  0
 10 23  1  0
 11 24  1  0
 14 25  1  0
 15 26  1  0
 16 27  1  0
 17 28  1  0
M  END
>  <UniqueID>  (26) 
26

>  <SMILES>  (26) 
CC(=O)Oc1ccc(-c2ccc(F)cc2)cc1

>  <Energy>  (26) 
36.63118755703631

>  <Genealogy>  (26) 
CC(=O)Oc1ccc(-c2ccc(F)cc2)cc1 (3D coordinates assigned)
CC(=O)Oc1ccc(-c2ccc(F)cc2)cc1 (optimized conformer: 36.63118755703631 kcal/mol)

>  <smiles>  (26) 
CC(=O)Oc1ccc(-c2ccc(F)cc2)cc1

>  <score_type>  (26) 
oracle

>  <origin>  (26) 
adg

>  <m_score__min__energy>  (26) 
-6.8899999999999997

>  <m_primary>  (26) 
energy

$$$$
26:0
     RDKit          3D

 64 67  0  0  0  0  0  0  0  0999 V2000
   55.5890   29.7340   44.1660 C   0  0  0  0  0  0  0  0  0  0  0  0
   56.8270   30.6050   43.9520 C   0  0  0  0  0  0  0  0  0  0  0  0
   57.4520   30.9990   45.2340 N   0  0  0  0  0  0  0  0  0  0  0  0
   57.3700   32.4490   45.5320 C   0  0  0  0  0  0  0  0  0  0  0  0
   58.1570   33.3430   44.5620 C   0  0  0  0  0  0  0  0  0  0  0  0
   58.7630   30.3760   45.5410 C   0  0  0  0  0  0  0  0  0  0  0  0
   58.6800   28.9180   45.9350 C   0  0  0  0  0  0  0  0  0  0  0  0
   58.4320   27.8960   45.0370 C   0  0  0  0  0  0  0  0  0  0  0  0
   58.3760   26.7270   45.7720 C   0  0  0  0  0  0  0  0  0  0  0  0
   58.1080   25.3630   45.2550 C   0  0  0  0  0  0  0  0  0  0  0  0
   57.0260   25.1280   44.3880 C   0  0  0  0  0  0  0  0  0  0  0  0
   56.7840   23.8470   43.8860 C   0  0  0  0  0  0  0  0  0  0  0  0
   57.6150   22.7760   44.2430 C   0  0  0  0  0  0  0  0  0  0  0  0
   57.4010   21.4120   43.6310 C   0  0  0  0  0  0  0  0  0  0  0  0
   57.4560   20.3450   44.6450 N   0  0  0  0  0  0  0  0  0  0  0  0
   56.8350   20.7600   45.8810 C   0  0  0  0  0  0  0  0  0  0  0  0
   57.5510   20.7190   47.0900 C   0  0  0  0  0  0  0  0  0  0  0  0
   56.9510   21.0660   48.2580 N   0  0  0  0  0  0  0  0  0  0  0  0
   55.6490   21.4590   48.3060 C   0  0  0  0  0  0  0  0  0  0  0  0
   55.0640   21.8070   49.5290 C   0  0  0  0  0  0  0  0  0  0  0  0
   53.7220   22.1990   49.5750 C   0  0  0  0  0  0  0  0  0  0  0  0
   52.9610   22.2420   48.4040 C   0  0  0  0  0  0  0  0  0  0  0  0
   53.5370   21.8960   47.1770 C   0  0  0  0  0  0  0  0  0  0  0  0
   54.8830   21.5070   47.1200 C   0  0  0  0  0  0  0  0  0  0  0  0
   55.4880   21.1560   45.9080 C   0  0  0  0  0  0  0  0  0  0  0  0
   58.6930   23.0040   45.1110 C   0  0  0  0  0  0  0  0  0  0  0  0
   58.9360   24.2840   45.6150 C   0  0  0  0  0  0  0  0  0  0  0  0
   58.5740   27.0850   47.0940 C   0  0  0  0  0  0  0  0  0  0  0  0
   58.7670   28.4180   47.1950 N   0  0  0  0  0  0  0  0  0  0  0  0
   58.8700   29.1440   48.4670 C   0  0  0  0  0  0  0  0  0  0  0  0
   60.1200   28.7310   49.2450 C   0  0  0  0  0  0  0  0  0  0  0  0
   55.4108   29.6086   45.2442 H   0  0  0  0  0  0  0  0  0  0  0  0
   54.7159   30.2179   43.7039 H   0  0  0  0  0  0  0  0  0  0  0  0
   55.7495   28.7488   43.7039 H   0  0  0  0  0  0  0  0  0  0  0  0
   57.5604   30.0408   43.3573 H   0  0  0  0  0  0  0  0  0  0  0  0
   56.5136   31.5209   43.4295 H   0  0  0  0  0  0  0  0  0  0  0  0
   56.3122   32.7485   45.4942 H   0  0  0  0  0  0  0  0  0  0  0  0
   57.8213   32.5908   46.5251 H   0  0  0  0  0  0  0  0  0  0  0  0
   58.7776   34.0480   45.1346 H   0  0  0  0  0  0  0  0  0  0  0  0
   58.8026   32.7172   43.9284 H   0  0  0  0  0  0  0  0  0  0  0  0
   57.4544   33.9041   43.9284 H   0  0  0  0  0  0  0  0  0  0  0  0
   59.4005   30.4562   44.6482 H   0  0  0  0  0  0  0  0  0  0  0  0
   59.1735   30.9146   46.4078 H   0  0  0  0  0  0  0  0  0  0  0  0
   58.3041   27.9944   43.9489 H   0  0  0  0  0  0  0  0  0  0  0  0
   56.3649   25.9596   44.1028 H   0  0  0  0  0  0  0  0  0  0  0  0
   55.9359   23.6777   43.2062 H   0  0  0  0  0  0  0  0  0  0  0  0
   56.4149   21.3905   43.1441 H   0  0  0  0  0  0  0  0  0  0  0  0
   58.2048   21.2336   42.9016 H   0  0  0  0  0  0  0  0  0  0  0  0
   56.9550   19.5040   44.2750 H   0  0  0  0  0  0  0  0  0  0  0  0
   58.4490   20.0620   44.8120 H   0  0  0  0  0  0  0  0  0  0  0  0
   58.6048   20.4036   47.0901 H   0  0  0  0  0  0  0  0  0  0  0  0
   55.6592   21.7723   50.4534 H   0  0  0  0  0  0  0  0  0  0  0  0
   53.2642   22.4744   50.5365 H   0  0  0  0  0  0  0  0  0  0  0  0
   51.9056   22.5489   48.4470 H   0  0  0  0  0  0  0  0  0  0  0  0
   52.9343   21.9291   46.2574 H   0  0  0  0  0  0  0  0  0  0  0  0
   54.9072   21.1904   44.9745 H   0  0  0  0  0  0  0  0  0  0  0  0
   59.3509   22.1700   45.3965 H   0  0  0  0  0  0  0  0  0  0  0  0
   59.7815   24.4496   46.2988 H   0  0  0  0  0  0  0  0  0  0  0  0
   58.5742   26.3840   47.9417 H   0  0  0  0  0  0  0  0  0  0  0  0
   58.9173   30.2234   48.2603 H   0  0  0  0  0  0  0  0  0  0  0  0
   57.9869   28.9019   49.0765 H   0  0  0  0  0  0  0  0  0  0  0  0
   59.9187   28.7975   50.3244 H   0  0  0  0  0  0  0  0  0  0  0  0
   60.3885   27.6964   48.9851 H   0  0  0  0  0  0  0  0  0  0  0  0
   60.9520   29.4020   48.9851 H   0  0  0  0  0  0  0  0  0  0  0  0
  1  2  1  0
  2  3  1  0
  3  4  1  0
  4  5  1  0
  3  6  1  0
  6  7  1  0
  7  8  2  0
  8  9  1  0
  9 10  1  0
 10 11  2  0
 11 12  1  0
 12 13  2  0
 13 14  1  0
 14 15  1  0
 15 16  1  0
 16 17  2  0
 17 18  1  0
 18 19  2  0
 19 20  1  0
 20 21  2  0
 21 22  1  0
 22 23  2  0
 23 24  1  0
 24 25  2  0
 13 26  1  0
 26 27  2  0
  9 28  2  0
 28 29  1  0
 29 30  1  0
 30 31  1  0
 29  7  1  0
 27 10  1  0
 25 16  1  0
 24 19  1  0
  1 32  1  0
  1 33  1  0
  1 34  1  0
  2 35  1  0
  2 36  1  0
  4 37  1  0
  4 38  1  0
  5 39  1  0
  5 40  1  0
  5 41  1  0
  6 42  1  0
  6 43  1  0
  8 44  1  0
 11 45  1  0
 12 46  1  0
 14 47  1  0
 14 48  1  0
 15 49  1  0
 15 50  1  0
 17 51  1  0
 20 52  1  0
 21 53  1  0
 22 54  1  0
 23 55  1  0
 25 56  1  0
 26 57  1  0
 27 58  1  0
 28 59  1  0
 30 60  1  0
 30 61  1  0
 31 62  1  0
 31 63  1  0
 31 64  1  0
M  CHG  1  15   1
M  END
>  <UniqueID>  (27) 
27

>  <SMILES>  (27) 
CCN(CC)Cc1cc(-c2ccc(C[NH2+]c3cnc4ccccc4c3)cc2)cn1CC

>  <Energy>  (27) 
101.53487507240757

>  <Genealogy>  (27) 
CCN(CC)Cc1cc(-c2ccc(C[NH2+]c3cnc4ccccc4c3)cc2)cn1CC (protonated)
CCN(CC)Cc1cc(-c2ccc(C[NH2+]c3cnc4ccccc4c3)cc2)cn1CC (3D coordinates assigned)
CCN(CC)Cc1cc(-c2ccc(C[NH2+]c3cnc4ccccc4c3)cc2)cn1CC (optimized conformer: 101.53487507240757 kcal/mol)

>  <smiles>  (27) 
CCN(CC)Cc1cc(-c2ccc(CNc3cnc4ccccc4c3)cc2)cn1CC

>  <score_type>  (27) 
oracle

>  <origin>  (27) 
adg

>  <m_score__min__energy>  (27) 
-7.0499999999999998

>  <m_primary>  (27) 
energy

$$$$
27:0
     RDKit          3D

 44 48  0  0  0  0  0  0  0  0999 V2000
   57.4210   21.2000   43.0560 C   0  0  0  0  0  0  0  0  0  0  0  0
   56.4070   21.8760   43.7910 O   0  0  0  0  0  0  0  0  0  0  0  0
   56.5110   23.2000   44.2450 C   0  0  0  0  0  0  0  0  0  0  0  0
   55.8220   23.5580   45.4240 C   0  0  0  0  0  0  0  0  0  0  0  0
   55.8870   24.8680   45.9280 C   0  0  0  0  0  0  0  0  0  0  0  0
   56.6470   25.8130   45.2420 C   0  0  0  0  0  0  0  0  0  0  0  0
   56.7890   27.1080   45.6270 N   0  0  0  0  0  0  0  0  0  0  0  0
   57.5860   27.7960   44.7680 C   0  0  0  0  0  0  0  0  0  0  0  0
   57.9140   29.2290   44.9400 C   0  0  0  0  0  0  0  0  0  0  0  0
   57.1470   30.2300   44.3140 C   0  0  0  0  0  0  0  0  0  0  0  0
   57.4660   31.5790   44.4870 C   0  0  0  0  0  0  0  0  0  0  0  0
   58.5490   31.9500   45.2900 C   0  0  0  0  0  0  0  0  0  0  0  0
   58.9450   33.6850   45.5160 S   0  0  0  0  0  0  0  0  0  0  0  0
   59.6580   33.4140   47.1480 C   0  0  0  0  0  0  0  0  0  0  0  0
   58.7890   33.1240   48.2090 C   0  0  0  0  0  0  0  0  0  0  0  0
   59.2880   32.8770   49.4900 C   0  0  0  0  0  0  0  0  0  0  0  0
   60.6610   32.9250   49.7310 C   0  0  0  0  0  0  0  0  0  0  0  0
   61.5460   33.2270   48.6900 C   0  0  0  0  0  0  0  0  0  0  0  0
   62.8820   33.2790   48.9360 N   0  0  0  0  0  0  0  0  0  0  0  0
   63.7800   33.5760   47.9620 C   0  0  0  0  0  0  0  0  0  0  0  0
   63.3420   33.8440   46.6650 C   0  0  0  0  0  0  0  0  0  0  0  0
   61.9770   33.8010   46.3760 C   0  0  0  0  0  0  0  0  0  0  0  0
   61.0510   33.4820   47.3860 C   0  0  0  0  0  0  0  0  0  0  0  0
   59.3240   30.9640   45.9090 C   0  0  0  0  0  0  0  0  0  0  0  0
   59.0080   29.6130   45.7380 C   0  0  0  0  0  0  0  0  0  0  0  0
   58.1360   26.8050   43.5020 S   0  0  0  0  0  0  0  0  0  0  0  0
   57.3220   25.4630   44.0870 C   0  0  0  0  0  0  0  0  0  0  0  0
   57.2760   24.1730   43.5630 C   0  0  0  0  0  0  0  0  0  0  0  0
   58.1279   20.7287   43.7547 H   0  0  0  0  0  0  0  0  0  0  0  0
   56.9612   20.4271   42.4226 H   0  0  0  0  0  0  0  0  0  0  0  0
   57.9576   21.9217   42.4226 H   0  0  0  0  0  0  0  0  0  0  0  0
   55.2262   22.8012   45.9553 H   0  0  0  0  0  0  0  0  0  0  0  0
   55.3480   25.1423   46.8468 H   0  0  0  0  0  0  0  0  0  0  0  0
   56.2904   29.9478   43.6842 H   0  0  0  0  0  0  0  0  0  0  0  0
   56.8627   32.3526   43.9895 H   0  0  0  0  0  0  0  0  0  0  0  0
   57.7040   33.0906   48.0311 H   0  0  0  0  0  0  0  0  0  0  0  0
   58.5954   32.6437   50.3121 H   0  0  0  0  0  0  0  0  0  0  0  0
   61.0487   32.7252   50.7408 H   0  0  0  0  0  0  0  0  0  0  0  0
   64.8544   33.6053   48.1959 H   0  0  0  0  0  0  0  0  0  0  0  0
   64.0676   34.0877   45.8750 H   0  0  0  0  0  0  0  0  0  0  0  0
   61.6247   34.0170   45.3566 H   0  0  0  0  0  0  0  0  0  0  0  0
   60.1839   31.2521   46.5316 H   0  0  0  0  0  0  0  0  0  0  0  0
   59.6197   28.8433   46.2314 H   0  0  0  0  0  0  0  0  0  0  0  0
   57.8211   23.9184   42.6421 H   0  0  0  0  0  0  0  0  0  0  0  0
  1  2  1  0
  2  3  1  0
  3  4  2  0
  4  5  1  0
  5  6  2  0
  6  7  1  0
  7  8  2  0
  8  9  1  0
  9 10  2  0
 10 11  1  0
 11 12  2  0
 12 13  1  0
 13 14  1  0
 14 15  2  0
 15 16  1  0
 16 17  2  0
 17 18  1  0
 18 19  2  0
 19 20  1  0
 20 21  2  0
 21 22  1  0
 22 23  2  0
 12 24  1  0
 24 25  2  0
  8 26  1  0
 26 27  1  0
 27 28  2  0
 28  3  1  0
 27  6  1  0
 25  9  1  0
 23 14  1  0
 23 18  1  0
  1 29  1  0
  1 30  1  0
  1 31  1  0
  4 32  1  0
  5 33  1  0
 10 34  1  0
 11 35  1  0
 15 36  1  0
 16 37  1  0
 17 38  1  0
 20 39  1  0
 21 40  1  0
 22 41  1  0
 24 42  1  0
 25 43  1  0
 28 44  1  0
M  END
>  <UniqueID>  (28) 
28

>  <SMILES>  (28) 
COc1ccc2nc(-c3ccc(Sc4cccc5ncccc45)cc3)sc2c1

>  <Energy>  (28) 
85.80167188400632

>  <Genealogy>  (28) 
COc1ccc2nc(-c3ccc(Sc4cccc5ncccc45)cc3)sc2c1 (3D coordinates assigned)
COc1ccc2nc(-c3ccc(Sc4cccc5ncccc45)cc3)sc2c1 (optimized conformer: 85.80167188400632 kcal/mol)

>  <smiles>  (28) 
COc1ccc2nc(-c3ccc(Sc4cccc5ncccc45)cc3)sc2c1

>  <score_type>  (28) 
oracle

>  <origin>  (28) 
adg

>  <m_score__min__energy>  (28) 
-9.2300000000000004

>  <m_primary>  (28) 
energy

$$$$
28:0
     RDKit          3D

 24 25  0  0  0  0  0  0  0  0999 V2000
   57.0320   24.1470   47.3650 C   0  0  0  0  0  0  0  0  0  0  0  0
   58.2150   24.9060   47.1390 O   0  0  0  0  0  0  0  0  0  0  0  0
   58.2390   26.1790   46.5510 C   0  0  0  0  0  0  0  0  0  0  0  0
   57.0230   26.7580   46.1680 C   0  0  0  0  0  0  0  0  0  0  0  0
   56.9930   28.0240   45.5770 C   0  0  0  0  0  0  0  0  0  0  0  0
   58.1850   28.7310   45.3530 C   0  0  0  0  0  0  0  0  0  0  0  0
   58.1630   30.0400   44.7590 N   0  0  0  0  0  0  0  0  0  0  0  0
   57.9400   30.2630   43.4720 N   0  0  0  0  0  0  0  0  0  0  0  0
   57.9690   31.5900   43.2520 C   0  0  0  0  0  0  0  0  0  0  0  0
   57.7120   32.3420   41.6900 Cl  0  0  0  0  0  0  0  0  0  0  0  0
   58.2120   32.2380   44.4460 C   0  0  0  0  0  0  0  0  0  0  0  0
   58.2980   33.9680   44.7230 Cl  0  0  0  0  0  0  0  0  0  0  0  0
   58.3300   31.2290   45.3830 C   0  0  0  0  0  0  0  0  0  0  0  0
   58.5200   31.4660   47.1150 Cl  0  0  0  0  0  0  0  0  0  0  0  0
   59.4030   28.1590   45.7490 C   0  0  0  0  0  0  0  0  0  0  0  0
   59.4340   26.8920   46.3390 C   0  0  0  0  0  0  0  0  0  0  0  0
   56.8659   24.0404   48.4471 H   0  0  0  0  0  0  0  0  0  0  0  0
   56.1730   24.6630   46.9112 H   0  0  0  0  0  0  0  0  0  0  0  0
   57.1430   23.1511   46.9112 H   0  0  0  0  0  0  0  0  0  0  0  0
   56.0829   26.2114   46.3338 H   0  0  0  0  0  0  0  0  0  0  0  0
   56.0301   28.4690   45.2857 H   0  0  0  0  0  0  0  0  0  0  0  0
   57.7780   29.5250   42.7510 H   0  0  0  0  0  0  0  0  0  0  0  0
   60.3413   28.7118   45.5941 H   0  0  0  0  0  0  0  0  0  0  0  0
   60.3959   26.4506   46.6387 H   0  0  0  0  0  0  0  0  0  0  0  0
  1  2  1  0
  2  3  1  0
  3  4  2  0
  4  5  1  0
  5  6  2  0
  6  7  1  0
  7  8  1  0
  8  9  2  0
  9 10  1  0
  9 11  1  0
 11 12  1  0
 11 13  2  0
 13 14  1  0
  6 15  1  0
 15 16  2  0
 16  3  1  0
 13  7  1  0
  1 17  1  0
  1 18  1  0
  1 19  1  0
  4 20  1  0
  5 21  1  0
  8 22  1  0
 15 23  1  0
 16 24  1  0
M  CHG  1   8   1
M  END
>  <UniqueID>  (29) 
29

>  <SMILES>  (29) 
COc1ccc(-n2[nH+]c(Cl)c(Cl)c2Cl)cc1

>  <Energy>  (29) 
61.230658241444026

>  <Genealogy>  (29) 
COc1ccc(-n2[nH+]c(Cl)c(Cl)c2Cl)cc1 (protonated)
COc1ccc(-n2[nH+]c(Cl)c(Cl)c2Cl)cc1 (3D coordinates assigned)
COc1ccc(-n2[nH+]c(Cl)c(Cl)c2Cl)cc1 (optimized conformer: 61.230658241444026 kcal/mol)

>  <smiles>  (29) 
COc1ccc(-n2nc(Cl)c(Cl)c2Cl)cc1

>  <score_type>  (29) 
oracle

>  <origin>  (29) 
adg

>  <m_score__min__energy>  (29) 
-4.6100000000000003

>  <m_primary>  (29) 
energy

$$$$
29:0
     RDKit          3D

 46 49  0  0  0  0  0  0  0  0999 V2000
   57.1650   23.9250   44.9020 C   0  0  0  0  0  0  0  0  0  0  0  0
   57.2610   25.4210   44.8720 C   0  0  0  0  0  0  0  0  0  0  0  0
   56.8960   26.1770   45.9940 C   0  0  0  0  0  0  0  0  0  0  0  0
   57.0230   27.5690   45.9800 C   0  0  0  0  0  0  0  0  0  0  0  0
   57.5300   28.2300   44.8450 C   0  0  0  0  0  0  0  0  0  0  0  0
   57.6680   29.7070   44.8290 C   0  0  0  0  0  0  0  0  0  0  0  0
   57.4680   30.4050   43.6800 N   0  0  0  0  0  0  0  0  0  0  0  0
   57.5790   31.7580   43.6420 C   0  0  0  0  0  0  0  0  0  0  0  0
   57.3950   32.3630   42.5520 O   0  0  0  0  0  0  0  0  0  0  0  0
   57.8990   32.4680   44.8110 C   0  0  0  0  0  0  0  0  0  0  0  0
   58.1290   31.7310   45.9850 C   0  0  0  0  0  0  0  0  0  0  0  0
   57.9910   30.3790   45.9670 N   0  0  0  0  0  0  0  0  0  0  0  0
   58.4340   32.4140   47.2930 C   0  0  0  0  0  0  0  0  0  0  0  0
   58.9650   33.7850   47.1270 N   0  0  1  0  0  0  0  0  0  0  0  0
   60.3740   33.7900   46.7640 C   0  0  0  0  0  0  0  0  0  0  0  0
   60.7290   34.2050   45.6670 O   0  0  0  0  0  0  0  0  0  0  0  0
   61.4230   33.2770   47.7340 C   0  0  1  0  0  0  0  0  0  0  0  0
   62.7910   33.1830   47.1230 C   0  0  0  0  0  0  0  0  0  0  0  0
   63.7040   33.4150   48.3130 C   0  0  0  0  0  0  0  0  0  0  0  0
   62.9930   34.0850   49.3320 O   0  0  0  0  0  0  0  0  0  0  0  0
   61.6530   34.2080   48.9130 C   0  0  0  0  0  0  0  0  0  0  0  0
   58.1500   34.5790   46.1850 C   0  0  0  0  0  0  0  0  0  0  0  0
   58.0900   33.9640   44.7770 C   0  0  0  0  0  0  0  0  0  0  0  0
   57.9100   27.4620   43.7270 C   0  0  0  0  0  0  0  0  0  0  0  0
   57.7830   26.0700   43.7450 C   0  0  0  0  0  0  0  0  0  0  0  0
   57.1429   23.5799   45.9462 H   0  0  0  0  0  0  0  0  0  0  0  0
   56.2446   23.6063   44.3909 H   0  0  0  0  0  0  0  0  0  0  0  0
   58.0372   23.4913   44.3909 H   0  0  0  0  0  0  0  0  0  0  0  0
   56.5074   25.6722   46.8908 H   0  0  0  0  0  0  0  0  0  0  0  0
   56.7243   28.1528   46.8631 H   0  0  0  0  0  0  0  0  0  0  0  0
   57.5074   32.4675   47.8834 H   0  0  0  0  0  0  0  0  0  0  0  0
   59.2123   31.8217   47.7963 H   0  0  0  0  0  0  0  0  0  0  0  0
   58.8690   34.2480   48.0610 H   0  0  0  0  0  0  0  0  0  0  0  0
   61.0141   32.3000   48.0313 H   0  0  0  0  0  0  0  0  0  0  0  0
   62.9605   32.1903   46.6805 H   0  0  0  0  0  0  0  0  0  0  0  0
   62.9529   33.8976   46.3025 H   0  0  0  0  0  0  0  0  0  0  0  0
   64.0633   32.4472   48.6929 H   0  0  0  0  0  0  0  0  0  0  0  0
   64.5614   34.0295   48.0012 H   0  0  0  0  0  0  0  0  0  0  0  0
   60.9804   33.9326   49.7387 H   0  0  0  0  0  0  0  0  0  0  0  0
   61.4475   35.2469   48.6155 H   0  0  0  0  0  0  0  0  0  0  0  0
   57.1261   34.6496   46.5807 H   0  0  0  0  0  0  0  0  0  0  0  0
   58.6234   35.5676   46.0925 H   0  0  0  0  0  0  0  0  0  0  0  0
   57.2491   34.4152   44.2299 H   0  0  0  0  0  0  0  0  0  0  0  0
   59.0499   34.1685   44.2803 H   0  0  0  0  0  0  0  0  0  0  0  0
   58.3100   27.9617   42.8324 H   0  0  0  0  0  0  0  0  0  0  0  0
   58.0945   25.4809   42.8698 H   0  0  0  0  0  0  0  0  0  0  0  0
  1  2  1  0
  2  3  2  0
  3  4  1  0
  4  5  2  0
  5  6  1  0
  6  7  2  0
  7  8  1  0
  8  9  2  0
  8 10  1  0
 10 11  2  0
 11 12  1  0
 11 13  1  0
 13 14  1  0
 14 15  1  0
 15 16  2  0
 15 17  1  0
 17 18  1  0
 18 19  1  0
 19 20  1  0
 20 21  1  0
 14 22  1  0
 22 23  1  0
  5 24  1  0
 24 25  2  0
 25  2  1  0
 12  6  1  0
 21 17  1  0
 23 10  1  0
  1 26  1  0
  1 27  1  0
  1 28  1  0
  3 29  1  0
  4 30  1  0
 13 31  1  0
 13 32  1  0
 14 33  1  1
 17 34  1  1
 18 35  1  0
 18 36  1  0
 19 37  1  0
 19 38  1  0
 21 39  1  0
 21 40  1  0
 22 41  1  0
 22 42  1  0
 23 43  1  0
 23 44  1  0
 24 45  1  0
 25 46  1  0
M  CHG  2  12  -1  14   1
M  END
>  <UniqueID>  (30) 
30

>  <SMILES>  (30) 
Cc1ccc(-c2nc(=O)c3c([n-]2)C[N@@H+](C(=O)[C@H]2CCOC2)CC3)cc1

>  <Energy>  (30) 
57.40848594565311

>  <Genealogy>  (30) 
Cc1ccc(-c2nc(=O)c3c([n-]2)C[NH+](C(=O)C2CCOC2)CC3)cc1 (protonated)
Cc1ccc(-c2nc(=O)c3c([n-]2)C[N@@H+](C(=O)[C@H]2CCOC2)CC3)cc1 (chirality)
Cc1ccc(-c2nc(=O)c3c([n-]2)C[N@@H+](C(=O)[C@H]2CCOC2)CC3)cc1 (3D coordinates assigned)
Cc1ccc(-c2nc(=O)c3c([n-]2)C[N@@H+](C(=O)[C@H]2CCOC2)CC3)cc1 (nonaromatic ring conformer: 57.40848594565311 kcal/mol)

>  <smiles>  (30) 
Cc1ccc(-c2nc(=O)c3c([nH]2)CN(C(=O)C2CCOC2)CC3)cc1

>  <score_type>  (30) 
oracle

>  <origin>  (30) 
adg

>  <m_score__min__energy>  (30) 
-7.71

>  <m_primary>  (30) 
energy

$$$$
30:0
     RDKit          3D

 34 35  0  0  0  0  0  0  0  0999 V2000
   55.8290   30.7650   44.4890 O   0  0  0  0  0  0  0  0  0  0  0  0
   56.8240   30.0500   44.4940 C   0  0  0  0  0  0  0  0  0  0  0  0
   56.6620   28.5880   44.8680 C   0  0  0  0  0  0  0  0  0  0  0  0
   57.9890   27.8080   44.7850 C   0  0  0  0  0  0  0  0  0  0  0  0
   59.1160   28.6240   45.3450 C   0  0  0  0  0  0  0  0  0  0  0  0
   60.4150   27.9010   46.0360 S   0  0  0  0  0  0  0  0  0  0  0  0
   59.0970   30.0710   45.0780 C   0  0  0  0  0  0  0  0  0  0  0  0
   59.8690   30.8390   45.7150 O   0  0  0  0  0  0  0  0  0  0  0  0
   58.1320   30.5710   44.1170 N   0  0  2  0  0  0  0  0  0  0  0  0
   58.1360   32.0490   43.9550 C   0  0  0  0  0  0  0  0  0  0  0  0
   57.6240   32.8400   45.1850 C   0  0  0  0  0  0  0  0  0  0  0  0
   58.3400   34.1820   45.4530 C   0  0  0  0  0  0  0  0  0  0  0  0
   59.4660   34.0680   46.4560 C   0  0  0  0  0  0  0  0  0  0  0  0
   59.2150   34.2290   47.8320 C   0  0  0  0  0  0  0  0  0  0  0  0
   60.2540   34.1050   48.7590 C   0  0  0  0  0  0  0  0  0  0  0  0
   61.5540   33.8410   48.3240 C   0  0  0  0  0  0  0  0  0  0  0  0
   61.8210   33.7140   46.9580 C   0  0  0  0  0  0  0  0  0  0  0  0
   60.7850   33.8390   46.0270 C   0  0  0  0  0  0  0  0  0  0  0  0
   56.2808   28.5273   45.8980 H   0  0  0  0  0  0  0  0  0  0  0  0
   55.9619   28.1347   44.1508 H   0  0  0  0  0  0  0  0  0  0  0  0
   57.8969   26.8753   45.3608 H   0  0  0  0  0  0  0  0  0  0  0  0
   58.2034   27.5836   43.7297 H   0  0  0  0  0  0  0  0  0  0  0  0
   58.3370   30.1420   43.1900 H   0  0  0  0  0  0  0  0  0  0  0  0
   59.1685   32.3677   43.7491 H   0  0  0  0  0  0  0  0  0  0  0  0
   57.4402   32.2718   43.1327 H   0  0  0  0  0  0  0  0  0  0  0  0
   56.5550   33.0499   45.0328 H   0  0  0  0  0  0  0  0  0  0  0  0
   57.8292   32.2063   46.0604 H   0  0  0  0  0  0  0  0  0  0  0  0
   58.7539   34.5528   44.5037 H   0  0  0  0  0  0  0  0  0  0  0  0
   57.5943   34.8709   45.8765 H   0  0  0  0  0  0  0  0  0  0  0  0
   58.1958   34.4536   48.1795 H   0  0  0  0  0  0  0  0  0  0  0  0
   60.0468   34.2157   49.8336 H   0  0  0  0  0  0  0  0  0  0  0  0
   62.3679   33.7330   49.0561 H   0  0  0  0  0  0  0  0  0  0  0  0
   62.8471   33.5155   46.6149 H   0  0  0  0  0  0  0  0  0  0  0  0
   61.0036   33.7576   44.9520 H   0  0  0  0  0  0  0  0  0  0  0  0
  1  2  2  0
  2  3  1  0
  3  4  1  0
  4  5  1  0
  5  6  2  0
  5  7  1  0
  7  8  2  0
  7  9  1  0
  9 10  1  0
 10 11  1  0
 11 12  1  0
 12 13  1  0
 13 14  2  0
 14 15  1  0
 15 16  2  0
 16 17  1  0
 17 18  2  0
  9  2  1  0
 18 13  1  0
  3 19  1  0
  3 20  1  0
  4 21  1  0
  4 22  1  0
  9 23  1  6
 10 24  1  0
 10 25  1  0
 11 26  1  0
 11 27  1  0
 12 28  1  0
 12 29  1  0
 14 30  1  0
 15 31  1  0
 16 32  1  0
 17 33  1  0
 18 34  1  0
M  CHG  1   9   1
M  END
>  <UniqueID>  (31) 
31

>  <SMILES>  (31) 
O=C1CCC(=S)C(=O)[N@@H+]1CCCc1ccccc1

>  <Energy>  (31) 
41.887896420285564

>  <Genealogy>  (31) 
O=C1CCC(=S)C(=O)[NH+]1CCCc1ccccc1 (protonated)
O=C1CCC(=S)C(=O)[N@@H+]1CCCc1ccccc1 (chirality)
O=C1CCC(=S)C(=O)[N@@H+]1CCCc1ccccc1 (3D coordinates assigned)
O=C1CCC(=S)C(=O)[N@@H+]1CCCc1ccccc1 (nonaromatic ring conformer: 41.887896420285564 kcal/mol)

>  <smiles>  (31) 
O=C1CCC(=S)C(=O)N1CCCc1ccccc1

>  <score_type>  (31) 
oracle

>  <origin>  (31) 
adg

>  <m_score__min__energy>  (31) 
-5.71

>  <m_primary>  (31) 
energy

$$$$
31:0
     RDKit          3D

 27 29  0  0  0  0  0  0  0  0999 V2000
   58.8220   30.4680   47.2220 C   0  0  0  0  0  0  0  0  0  0  0  0
   58.4480   31.4280   46.1720 N   0  0  0  0  0  0  0  0  0  0  0  0
   57.7490   30.9810   44.9820 C   0  0  0  0  0  0  0  0  0  0  0  0
   57.0380   29.7630   44.9500 C   0  0  0  0  0  0  0  0  0  0  0  0
   56.4050   29.3440   43.7760 C   0  0  0  0  0  0  0  0  0  0  0  0
   56.4630   30.1340   42.6270 C   0  0  0  0  0  0  0  0  0  0  0  0
   57.1390   31.3550   42.6520 C   0  0  0  0  0  0  0  0  0  0  0  0
   57.7700   31.7880   43.8260 C   0  0  0  0  0  0  0  0  0  0  0  0
   58.4120   33.0680   43.8660 N   0  0  0  0  0  0  0  0  0  0  0  0
   58.8530   33.6190   45.1120 C   0  0  0  0  0  0  0  0  0  0  0  0
   59.2710   34.9560   45.1820 C   0  0  0  0  0  0  0  0  0  0  0  0
   59.6480   35.5120   46.4060 C   0  0  0  0  0  0  0  0  0  0  0  0
   59.6000   34.7400   47.5670 C   0  0  0  0  0  0  0  0  0  0  0  0
   59.1940   33.4050   47.5080 C   0  0  0  0  0  0  0  0  0  0  0  0
   58.8370   32.8210   46.2750 C   0  0  0  0  0  0  0  0  0  0  0  0
   58.6465   30.9185   48.2101 H   0  0  0  0  0  0  0  0  0  0  0  0
   58.2127   29.5578   47.1205 H   0  0  0  0  0  0  0  0  0  0  0  0
   59.8865   30.2099   47.1205 H   0  0  0  0  0  0  0  0  0  0  0  0
   56.9813   29.1392   45.8542 H   0  0  0  0  0  0  0  0  0  0  0  0
   55.8596   28.3889   43.7579 H   0  0  0  0  0  0  0  0  0  0  0  0
   55.9757   29.7943   41.7012 H   0  0  0  0  0  0  0  0  0  0  0  0
   57.1766   31.9794   41.7472 H   0  0  0  0  0  0  0  0  0  0  0  0
   58.4670   33.6460   42.9970 H   0  0  0  0  0  0  0  0  0  0  0  0
   59.3019   35.5689   44.2691 H   0  0  0  0  0  0  0  0  0  0  0  0
   59.9828   36.5587   46.4549 H   0  0  0  0  0  0  0  0  0  0  0  0
   59.8830   35.1845   48.5326 H   0  0  0  0  0  0  0  0  0  0  0  0
   59.1524   32.8052   48.4292 H   0  0  0  0  0  0  0  0  0  0  0  0
  1  2  1  0
  2  3  1  0
  3  4  2  0
  4  5  1  0
  5  6  2  0
  6  7  1  0
  7  8  2  0
  8  9  1  0
  9 10  1  0
 10 11  2  0
 11 12  1  0
 12 13  2  0
 13 14  1  0
 14 15  2  0
 15  2  1  0
  8  3  1  0
 15 10  1  0
  1 16  1  0
  1 17  1  0
  1 18  1  0
  4 19  1  0
  5 20  1  0
  6 21  1  0
  7 22  1  0
  9 23  1  0
 11 24  1  0
 12 25  1  0
 13 26  1  0
 14 27  1  0
M  END
>  <UniqueID>  (32) 
32

>  <SMILES>  (32) 
CN1c2ccccc2Nc2ccccc21

>  <Energy>  (32) 
36.6846269827069

>  <Genealogy>  (32) 
CN1c2ccccc2Nc2ccccc21 (3D coordinates assigned)
CN1c2ccccc2Nc2ccccc21 (nonaromatic ring conformer: 36.6846269827069 kcal/mol)

>  <smiles>  (32) 
CN1c2ccccc2Nc2ccccc21

>  <score_type>  (32) 
oracle

>  <origin>  (32) 
adg

>  <m_score__min__energy>  (32) 
-6.0599999999999996

>  <m_primary>  (32) 
energy

$$$$
32:0
     RDKit          3D

 47 49  0  0  0  0  0  0  0  0999 V2000
   57.3030   31.7500   41.8290 C   0  0  0  0  0  0  0  0  0  0  0  0
   57.4580   31.8380   43.3130 C   0  0  0  0  0  0  0  0  0  0  0  0
   58.2200   32.7440   43.9490 N   0  0  0  0  0  0  0  0  0  0  0  0
   58.0170   32.4940   45.2610 C   0  0  0  0  0  0  0  0  0  0  0  0
   58.6720   33.2520   46.3820 C   0  0  0  0  0  0  0  0  0  0  0  0
   59.8720   32.4710   46.9230 C   0  0  0  0  0  0  0  0  0  0  0  0
   59.0870   34.6530   45.9260 C   0  0  0  0  0  0  0  0  0  0  0  0
   57.1800   31.4970   45.4500 O   0  0  0  0  0  0  0  0  0  0  0  0
   56.8100   31.0720   44.2640 C   0  0  0  0  0  0  0  0  0  0  0  0
   55.8340   29.9590   44.0270 C   0  0  0  0  0  0  0  0  0  0  0  0
   55.8270   28.9720   45.1210 N   0  0  0  0  0  0  0  0  0  0  0  0
   57.1100   28.3220   45.4960 C   0  0  2  0  0  0  0  0  0  0  0  0
   57.9710   27.9800   44.2850 C   0  0  0  0  0  0  0  0  0  0  0  0
   58.5140   26.5830   44.5640 C   0  0  0  0  0  0  0  0  0  0  0  0
   58.2570   26.2850   45.9790 N   0  0  0  0  0  0  0  0  0  0  0  0
   58.1220   24.8340   46.2050 C   0  0  0  0  0  0  0  0  0  0  0  0
   57.2170   24.2260   45.1800 C   0  0  0  0  0  0  0  0  0  0  0  0
   57.6620   23.5580   44.0930 N   0  0  0  0  0  0  0  0  0  0  0  0
   56.6390   23.1570   43.2940 C   0  0  0  0  0  0  0  0  0  0  0  0
   55.3690   23.5130   43.7340 C   0  0  0  0  0  0  0  0  0  0  0  0
   55.5410   24.3640   45.1750 S   0  0  0  0  0  0  0  0  0  0  0  0
   57.0370   27.0300   46.3160 C   0  0  0  0  0  0  0  0  0  0  0  0
   56.3695   31.2200   41.5886 H   0  0  0  0  0  0  0  0  0  0  0  0
   57.2693   32.7636   41.4031 H   0  0  0  0  0  0  0  0  0  0  0  0
   58.1561   31.2016   41.4031 H   0  0  0  0  0  0  0  0  0  0  0  0
   58.8260   33.4790   43.5230 H   0  0  0  0  0  0  0  0  0  0  0  0
   57.9414   33.3690   47.1959 H   0  0  0  0  0  0  0  0  0  0  0  0
   59.8522   32.4839   48.0227 H   0  0  0  0  0  0  0  0  0  0  0  0
   59.8232   31.4312   46.5675 H   0  0  0  0  0  0  0  0  0  0  0  0
   60.8030   32.9367   46.5675 H   0  0  0  0  0  0  0  0  0  0  0  0
   59.2742   35.2848   46.8068 H   0  0  0  0  0  0  0  0  0  0  0  0
   60.0037   34.5854   45.3218 H   0  0  0  0  0  0  0  0  0  0  0  0
   58.2814   35.0956   45.3218 H   0  0  0  0  0  0  0  0  0  0  0  0
   54.8256   30.3882   43.9327 H   0  0  0  0  0  0  0  0  0  0  0  0
   56.1390   29.4371   43.1080 H   0  0  0  0  0  0  0  0  0  0  0  0
   55.1550   28.2170   44.8460 H   0  0  0  0  0  0  0  0  0  0  0  0
   57.5415   29.1078   46.1334 H   0  0  0  0  0  0  0  0  0  0  0  0
   57.3646   27.9822   43.3673 H   0  0  0  0  0  0  0  0  0  0  0  0
   58.7775   28.7124   44.1333 H   0  0  0  0  0  0  0  0  0  0  0  0
   58.0029   25.8469   43.9261 H   0  0  0  0  0  0  0  0  0  0  0  0
   59.5913   26.5352   44.3470 H   0  0  0  0  0  0  0  0  0  0  0  0
   59.1138   24.3632   46.1370 H   0  0  0  0  0  0  0  0  0  0  0  0
   57.6911   24.6680   47.2034 H   0  0  0  0  0  0  0  0  0  0  0  0
   56.8037   22.5911   42.3652 H   0  0  0  0  0  0  0  0  0  0  0  0
   54.4199   23.2796   43.2293 H   0  0  0  0  0  0  0  0  0  0  0  0
   56.1436   26.4499   46.0416 H   0  0  0  0  0  0  0  0  0  0  0  0
   56.9666   27.2334   47.3947 H   0  0  0  0  0  0  0  0  0  0  0  0
  1  2  1  0
  2  3  1  0
  3  4  2  0
  4  5  1  0
  5  6  1  0
  5  7  1  0
  4  8  1  0
  8  9  1  0
  9 10  1  0
 10 11  1  0
 11 12  1  0
 12 13  1  0
 13 14  1  0
 14 15  1  0
 15 16  1  0
 16 17  1  0
 17 18  2  0
 18 19  1  0
 19 20  2  0
 20 21  1  0
 15 22  1  0
  9  2  2  0
 22 12  1  0
 21 17  1  0
  1 23  1  0
  1 24  1  0
  1 25  1  0
  3 26  1  0
  5 27  1  0
  6 28  1  0
  6 29  1  0
  6 30  1  0
  7 31  1  0
  7 32  1  0
  7 33  1  0
 10 34  1  0
 10 35  1  0
 11 36  1  0
 12 37  1  1
 13 38  1  0
 13 39  1  0
 14 40  1  0
 14 41  1  0
 16 42  1  0
 16 43  1  0
 19 44  1  0
 20 45  1  0
 22 46  1  0
 22 47  1  0
M  CHG  1   3   1
M  END
>  <UniqueID>  (33) 
33

>  <SMILES>  (33) 
Cc1[nH+]c(C(C)C)oc1CN[C@@H]1CCN(Cc2nccs2)C1

>  <Energy>  (33) 
109.02536792224876

>  <Genealogy>  (33) 
Cc1[nH+]c(C(C)C)oc1CNC1CCN(Cc2nccs2)C1 (protonated)
Cc1[nH+]c(C(C)C)oc1CN[C@@H]1CCN(Cc2nccs2)C1 (chirality)
Cc1[nH+]c(C(C)C)oc1CN[C@@H]1CCN(Cc2nccs2)C1 (3D coordinates assigned)
Cc1[nH+]c(C(C)C)oc1CN[C@@H]1CCN(Cc2nccs2)C1 (nonaromatic ring conformer: 109.02536792224876 kcal/mol)

>  <smiles>  (33) 
Cc1nc(C(C)C)oc1CNC1CCN(Cc2nccs2)C1

>  <score_type>  (33) 
oracle

>  <origin>  (33) 
adg

>  <m_score__min__energy>  (33) 
-6.3799999999999999

>  <m_primary>  (33) 
energy

$$$$
33:0
     RDKit          3D

 45 47  0  0  0  0  0  0  0  0999 V2000
   56.2800   29.8950   43.0060 C   0  0  0  0  0  0  0  0  0  0  0  0
   57.3060   30.9970   43.3070 C   0  0  0  0  0  0  0  0  0  0  0  0
   57.6360   31.9670   42.1640 C   0  0  0  0  0  0  0  0  0  0  0  0
   58.5080   30.6330   44.1900 C   0  0  2  0  0  0  0  0  0  0  0  0
   58.5610   29.2470   44.7920 C   0  0  0  0  0  0  0  0  0  0  0  0
   59.1660   28.9920   45.9610 C   0  0  0  0  0  0  0  0  0  0  0  0
   58.4940   27.8840   47.1590 Cl  0  0  0  0  0  0  0  0  0  0  0  0
   60.6800   29.8040   46.3390 Cl  0  0  0  0  0  0  0  0  0  0  0  0
   57.3710   31.4960   44.7610 C   0  0  1  0  0  0  0  0  0  0  0  0
   57.7190   32.9480   44.9740 C   0  0  0  0  0  0  0  0  0  0  0  0
   57.3930   33.7860   44.0950 O   0  0  0  0  0  0  0  0  0  0  0  0
   58.3950   33.3920   46.1660 N   0  0  0  0  0  0  0  0  0  0  0  0
   59.2460   34.5890   46.0920 C   0  0  0  0  0  0  0  0  0  0  0  0
   59.9140   34.8880   47.4350 C   0  0  0  0  0  0  0  0  0  0  0  0
   60.4180   33.6410   48.0260 N   0  0  0  0  0  0  0  0  0  0  0  0
   61.8000   33.5160   48.4130 C   0  0  0  0  0  0  0  0  0  0  0  0
   62.7850   33.2140   47.4560 C   0  0  0  0  0  0  0  0  0  0  0  0
   64.1210   33.0660   47.8380 C   0  0  0  0  0  0  0  0  0  0  0  0
   64.4900   33.2340   49.1760 C   0  0  0  0  0  0  0  0  0  0  0  0
   65.7860   33.0780   49.5420 F   0  0  0  0  0  0  0  0  0  0  0  0
   63.5230   33.5570   50.1310 C   0  0  0  0  0  0  0  0  0  0  0  0
   63.8810   33.7240   51.4280 F   0  0  0  0  0  0  0  0  0  0  0  0
   62.1860   33.6980   49.7540 C   0  0  0  0  0  0  0  0  0  0  0  0
   59.5110   32.4900   48.1750 C   0  0  0  0  0  0  0  0  0  0  0  0
   58.1710   32.7380   47.4670 C   0  0  0  0  0  0  0  0  0  0  0  0
   55.8965   29.4831   43.9511 H   0  0  0  0  0  0  0  0  0  0  0  0
   55.4469   30.3183   42.4256 H   0  0  0  0  0  0  0  0  0  0  0  0
   56.7616   29.0942   42.4256 H   0  0  0  0  0  0  0  0  0  0  0  0
   57.9636   32.9298   42.5832 H   0  0  0  0  0  0  0  0  0  0  0  0
   58.4408   31.5439   41.5448 H   0  0  0  0  0  0  0  0  0  0  0  0
   56.7402   32.1224   41.5448 H   0  0  0  0  0  0  0  0  0  0  0  0
   59.5954   30.7194   44.0479 H   0  0  0  0  0  0  0  0  0  0  0  0
   58.0851   28.4163   44.2503 H   0  0  0  0  0  0  0  0  0  0  0  0
   56.6902   31.4395   45.6231 H   0  0  0  0  0  0  0  0  0  0  0  0
   60.0260   34.4263   45.3336 H   0  0  0  0  0  0  0  0  0  0  0  0
   58.6113   35.4467   45.8246 H   0  0  0  0  0  0  0  0  0  0  0  0
   60.7517   35.5838   47.2798 H   0  0  0  0  0  0  0  0  0  0  0  0
   59.1779   35.3418   48.1149 H   0  0  0  0  0  0  0  0  0  0  0  0
   62.5021   33.0935   46.3999 H   0  0  0  0  0  0  0  0  0  0  0  0
   64.8833   32.8170   47.0850 H   0  0  0  0  0  0  0  0  0  0  0  0
   61.4292   33.9531   50.5104 H   0  0  0  0  0  0  0  0  0  0  0  0
   59.9874   31.5999   47.7382 H   0  0  0  0  0  0  0  0  0  0  0  0
   59.3141   32.3406   49.2469 H   0  0  0  0  0  0  0  0  0  0  0  0
   57.6614   31.7764   47.3071 H   0  0  0  0  0  0  0  0  0  0  0  0
   57.5496   33.3931   48.0952 H   0  0  0  0  0  0  0  0  0  0  0  0
  1  2  1  0
  2  3  1  0
  2  4  1  0
  4  5  1  0
  5  6  2  3
  6  7  1  0
  6  8  1  0
  4  9  1  0
  9 10  1  0
 10 11  2  0
 10 12  1  0
 12 13  1  0
 13 14  1  0
 14 15  1  0
 15 16  1  0
 16 17  2  0
 17 18  1  0
 18 19  2  0
 19 20  1  0
 19 21  1  0
 21 22  1  0
 21 23  2  0
 15 24  1  0
 24 25  1  0
  9  2  1  0
 25 12  1  0
 23 16  1  0
  1 26  1  0
  1 27  1  0
  1 28  1  0
  3 29  1  0
  3 30  1  0
  3 31  1  0
  4 32  1  6
  5 33  1  0
  9 34  1  1
 13 35  1  0
 13 36  1  0
 14 37  1  0
 14 38  1  0
 17 39  1  0
 18 40  1  0
 23 41  1  0
 24 42  1  0
 24 43  1  0
 25 44  1  0
 25 45  1  0
M  END
>  <UniqueID>  (34) 
34

>  <SMILES>  (34) 
CC1(C)[C@H](C=C(Cl)Cl)[C@H]1C(=O)N1CCN(c2ccc(F)c(F)c2)CC1

>  <Energy>  (34) 
319.83188995320677

>  <Genealogy>  (34) 
CC1(C)[C@H](C=C(Cl)Cl)[C@H]1C(=O)N1CCN(c2ccc(F)c(F)c2)CC1 (chirality)
CC1(C)[C@H](C=C(Cl)Cl)[C@H]1C(=O)N1CCN(c2ccc(F)c(F)c2)CC1 (3D coordinates assigned)
CC1(C)[C@H](C=C(Cl)Cl)[C@H]1C(=O)N1CCN(c2ccc(F)c(F)c2)CC1 (nonaromatic ring conformer: 319.83188995320677 kcal/mol)

>  <smiles>  (34) 
CC1(C)C(C=C(Cl)Cl)C1C(=O)N1CCN(c2ccc(F)c(F)c2)CC1

>  <score_type>  (34) 
oracle

>  <origin>  (34) 
adg

>  <m_score__min__energy>  (34) 
-8.5700000000000003

>  <m_primary>  (34) 
energy

$$$$
34:0
     RDKit          3D

 27 28  0  0  0  0  0  0  0  0999 V2000
   56.4060   29.9220   43.2080 C   0  0  0  0  0  0  0  0  0  0  0  0
   56.3410   30.5180   44.5000 O   0  0  0  0  0  0  0  0  0  0  0  0
   57.4020   31.2000   45.1180 C   0  0  0  0  0  0  0  0  0  0  0  0
   57.3330   32.5740   45.4140 C   0  0  0  0  0  0  0  0  0  0  0  0
   58.4110   33.2230   46.0310 C   0  0  0  0  0  0  0  0  0  0  0  0
   58.3410   34.5910   46.3250 C   0  0  0  0  0  0  0  0  0  0  0  0
   59.3880   35.2190   46.9240 N   0  0  0  0  0  0  0  0  0  0  0  0
   60.5250   34.5520   47.2540 C   0  0  0  0  0  0  0  0  0  0  0  0
   60.6510   33.1840   46.9840 C   0  0  0  0  0  0  0  0  0  0  0  0
   61.8790   32.5180   47.3530 C   0  0  0  0  0  0  0  0  0  0  0  0
   62.8630   31.9860   47.6490 N   0  0  0  0  0  0  0  0  0  0  0  0
   59.5800   32.5020   46.3620 C   0  0  0  0  0  0  0  0  0  0  0  0
   59.6410   31.1270   46.0620 C   0  0  0  0  0  0  0  0  0  0  0  0
   58.5570   30.4760   45.4420 C   0  0  0  0  0  0  0  0  0  0  0  0
   58.5900   29.1070   45.1320 O   0  0  0  0  0  0  0  0  0  0  0  0
   59.7720   28.3720   44.8280 C   0  0  0  0  0  0  0  0  0  0  0  0
   56.5247   28.8334   43.3119 H   0  0  0  0  0  0  0  0  0  0  0  0
   55.4789   30.1388   42.6571 H   0  0  0  0  0  0  0  0  0  0  0  0
   57.2646   30.3335   42.6571 H   0  0  0  0  0  0  0  0  0  0  0  0
   56.4265   33.1427   45.1593 H   0  0  0  0  0  0  0  0  0  0  0  0
   57.4347   35.1599   46.0701 H   0  0  0  0  0  0  0  0  0  0  0  0
   59.3160   36.2390   47.1360 H   0  0  0  0  0  0  0  0  0  0  0  0
   61.3531   35.0912   47.7372 H   0  0  0  0  0  0  0  0  0  0  0  0
   60.5459   30.5551   46.3150 H   0  0  0  0  0  0  0  0  0  0  0  0
   60.2641   28.0660   45.7630 H   0  0  0  0  0  0  0  0  0  0  0  0
   59.5080   27.4786   44.2432 H   0  0  0  0  0  0  0  0  0  0  0  0
   60.4565   29.0040   44.2432 H   0  0  0  0  0  0  0  0  0  0  0  0
  1  2  1  0
  2  3  1  0
  3  4  2  0
  4  5  1  0
  5  6  2  0
  6  7  1  0
  7  8  2  0
  8  9  1  0
  9 10  1  0
 10 11  3  0
  9 12  2  0
 12 13  1  0
 13 14  2  0
 14 15  1  0
 15 16  1  0
 14  3  1  0
 12  5  1  0
  1 17  1  0
  1 18  1  0
  1 19  1  0
  4 20  1  0
  6 21  1  0
  7 22  1  0
  8 23  1  0
 13 24  1  0
 16 25  1  0
 16 26  1  0
 16 27  1  0
M  CHG  1   7   1
M  END
>  <UniqueID>  (35) 
35

>  <SMILES>  (35) 
COc1cc2c[nH+]cc(C#N)c2cc1OC

>  <Energy>  (35) 
30.854369351954666

>  <Genealogy>  (35) 
COc1cc2c[nH+]cc(C#N)c2cc1OC (protonated)
COc1cc2c[nH+]cc(C#N)c2cc1OC (3D coordinates assigned)
COc1cc2c[nH+]cc(C#N)c2cc1OC (optimized conformer: 30.854369351954666 kcal/mol)

>  <smiles>  (35) 
COc1cc2cncc(C#N)c2cc1OC

>  <score_type>  (35) 
oracle

>  <origin>  (35) 
adg

>  <m_score__min__energy>  (35) 
-3.77

>  <m_primary>  (35) 
energy

$$$$
35:0
     RDKit          3D

 45 47  0  0  0  0  0  0  0  0999 V2000
   60.3230   29.0720   50.1100 C   0  0  0  0  0  0  0  0  0  0  0  0
   61.0720   30.1310   49.3560 C   0  0  0  0  0  0  0  0  0  0  0  0
   61.1020   30.1070   47.9530 C   0  0  0  0  0  0  0  0  0  0  0  0
   61.7670   31.1120   47.2450 C   0  0  0  0  0  0  0  0  0  0  0  0
   62.4110   32.1550   47.9300 C   0  0  0  0  0  0  0  0  0  0  0  0
   63.0930   33.2540   47.1700 C   0  0  0  0  0  0  0  0  0  0  0  0
   62.0920   34.1700   46.6430 N   0  0  0  0  0  0  0  0  0  0  0  0
   60.7680   34.2670   47.1780 C   0  0  0  0  0  0  0  0  0  0  0  0
   60.5680   34.9310   48.2320 O   0  0  0  0  0  0  0  0  0  0  0  0
   59.6370   33.5930   46.4970 C   0  0  0  0  0  0  0  0  0  0  0  0
   59.2710   33.9590   45.1890 C   0  0  0  0  0  0  0  0  0  0  0  0
   58.2090   33.3220   44.5430 C   0  0  0  0  0  0  0  0  0  0  0  0
   57.4880   32.3070   45.1960 C   0  0  0  0  0  0  0  0  0  0  0  0
   56.3970   31.6190   44.5670 N   0  0  0  0  0  0  0  0  0  0  0  0
   56.3630   29.9240   44.2000 S   0  0  0  0  0  0  0  0  0  0  0  0
   55.1510   29.3110   44.8430 O   0  0  0  0  0  0  0  0  0  0  0  0
   56.2690   29.7520   42.7080 O   0  0  0  0  0  0  0  0  0  0  0  0
   57.8080   29.1290   44.8260 C   0  0  0  0  0  0  0  0  0  0  0  0
   59.0780   29.6250   44.4930 C   0  0  0  0  0  0  0  0  0  0  0  0
   60.2290   28.9910   44.9730 C   0  0  0  0  0  0  0  0  0  0  0  0
   60.1180   27.8670   45.7950 C   0  0  0  0  0  0  0  0  0  0  0  0
   58.8560   27.3770   46.1430 C   0  0  0  0  0  0  0  0  0  0  0  0
   57.7010   28.0060   45.6640 C   0  0  0  0  0  0  0  0  0  0  0  0
   56.4870   27.5180   46.0180 F   0  0  0  0  0  0  0  0  0  0  0  0
   57.8490   31.9420   46.4970 C   0  0  0  0  0  0  0  0  0  0  0  0
   58.9130   32.5750   47.1440 C   0  0  0  0  0  0  0  0  0  0  0  0
   62.3530   32.1950   49.3320 C   0  0  0  0  0  0  0  0  0  0  0  0
   61.6860   31.1900   50.0400 C   0  0  0  0  0  0  0  0  0  0  0  0
   60.4409   29.2387   51.1909 H   0  0  0  0  0  0  0  0  0  0  0  0
   59.2562   29.1191   49.8460 H   0  0  0  0  0  0  0  0  0  0  0  0
   60.7228   28.0818   49.8460 H   0  0  0  0  0  0  0  0  0  0  0  0
   60.6000   29.2938   47.4083 H   0  0  0  0  0  0  0  0  0  0  0  0
   61.7860   31.0858   46.1455 H   0  0  0  0  0  0  0  0  0  0  0  0
   63.7715   33.7991   47.8426 H   0  0  0  0  0  0  0  0  0  0  0  0
   63.6705   32.8228   46.3390 H   0  0  0  0  0  0  0  0  0  0  0  0
   59.8263   34.7542   44.6701 H   0  0  0  0  0  0  0  0  0  0  0  0
   57.9356   33.6158   43.5188 H   0  0  0  0  0  0  0  0  0  0  0  0
   59.1686   30.5148   43.8527 H   0  0  0  0  0  0  0  0  0  0  0  0
   61.2226   29.3780   44.7028 H   0  0  0  0  0  0  0  0  0  0  0  0
   61.0240   27.3674   46.1685 H   0  0  0  0  0  0  0  0  0  0  0  0
   58.7704   26.4951   46.7948 H   0  0  0  0  0  0  0  0  0  0  0  0
   57.2899   31.1492   47.0155 H   0  0  0  0  0  0  0  0  0  0  0  0
   59.1866   32.2754   48.1664 H   0  0  0  0  0  0  0  0  0  0  0  0
   62.8345   33.0207   49.8764 H   0  0  0  0  0  0  0  0  0  0  0  0
   61.6429   31.2305   51.1384 H   0  0  0  0  0  0  0  0  0  0  0  0
  1  2  1  0
  2  3  2  0
  3  4  1  0
  4  5  2  0
  5  6  1  0
  6  7  1  0
  7  8  1  0
  8  9  2  0
  8 10  1  0
 10 11  2  0
 11 12  1  0
 12 13  2  0
 13 14  1  0
 14 15  1  0
 15 16  2  0
 15 17  2  0
 15 18  1  0
 18 19  2  0
 19 20  1  0
 20 21  2  0
 21 22  1  0
 22 23  2  0
 23 24  1  0
 13 25  1  0
 25 26  2  0
  5 27  1  0
 27 28  2  0
 28  2  1  0
 26 10  1  0
 23 18  1  0
  1 29  1  0
  1 30  1  0
  1 31  1  0
  3 32  1  0
  4 33  1  0
  6 34  1  0
  6 35  1  0
 11 36  1  0
 12 37  1  0
 19 38  1  0
 20 39  1  0
 21 40  1  0
 22 41  1  0
 25 42  1  0
 26 43  1  0
 27 44  1  0
 28 45  1  0
M  CHG  2   7  -1  14  -1
M  END
>  <UniqueID>  (36) 
36

>  <SMILES>  (36) 
Cc1ccc(C[N-]C(=O)c2ccc([N-]S(=O)(=O)c3ccccc3F)cc2)cc1

>  <Energy>  (36) 
48.53118646634008

>  <Genealogy>  (36) 
Cc1ccc(C[N-]C(=O)c2ccc([N-]S(=O)(=O)c3ccccc3F)cc2)cc1 (protonated)
Cc1ccc(C[N-]C(=O)c2ccc([N-]S(=O)(=O)c3ccccc3F)cc2)cc1 (3D coordinates assigned)
Cc1ccc(C[N-]C(=O)c2ccc([N-]S(=O)(=O)c3ccccc3F)cc2)cc1 (optimized conformer: 48.53118646634008 kcal/mol)

>  <smiles>  (36) 
Cc1ccc(CNC(=O)c2ccc(NS(=O)(=O)c3ccccc3F)cc2)cc1

>  <score_type>  (36) 
oracle

>  <origin>  (36) 
adg

>  <m_score__min__energy>  (36) 
-11.390000000000001

>  <m_primary>  (36) 
energy

$$$$
36:0
     RDKit          3D

 50 53  0  0  0  0  0  0  0  0999 V2000
   64.5790   31.5900   50.3780 C   0  0  0  0  0  0  0  0  0  0  0  0
   63.4700   32.5260   50.2170 N   0  0  0  0  0  0  0  0  0  0  0  0
   63.1270   33.4010   51.3380 C   0  0  0  0  0  0  0  0  0  0  0  0
   63.0740   32.9100   48.8930 C   0  0  0  0  0  0  0  0  0  0  0  0
   64.0070   33.3950   48.0320 N   0  0  0  0  0  0  0  0  0  0  0  0
   63.6660   33.8050   46.7850 C   0  0  0  0  0  0  0  0  0  0  0  0
   62.3770   33.7290   46.3720 N   0  0  0  0  0  0  0  0  0  0  0  0
   61.4010   33.2420   47.1840 C   0  0  0  0  0  0  0  0  0  0  0  0
   60.0300   33.1340   46.6530 C   0  0  0  0  0  0  0  0  0  0  0  0
   59.2510   34.2950   46.5120 C   0  0  0  0  0  0  0  0  0  0  0  0
   57.9510   34.2140   46.0080 C   0  0  0  0  0  0  0  0  0  0  0  0
   57.4160   32.9760   45.6470 C   0  0  0  0  0  0  0  0  0  0  0  0
   58.1790   31.8140   45.7930 C   0  0  0  0  0  0  0  0  0  0  0  0
   59.4830   31.8850   46.2980 C   0  0  0  0  0  0  0  0  0  0  0  0
   60.4190   30.4000   46.4340 Cl  0  0  0  0  0  0  0  0  0  0  0  0
   61.7310   32.8150   48.4880 C   0  0  0  0  0  0  0  0  0  0  0  0
   60.7370   32.2840   49.3850 N   0  0  0  0  0  0  0  0  0  0  0  0
   59.9030   33.1960   50.1680 C   0  0  0  0  0  0  0  0  0  0  0  0
   58.4680   32.6750   50.2250 C   0  0  0  0  0  0  0  0  0  0  0  0
   58.4490   31.2500   50.5930 N   0  0  0  0  0  0  0  0  0  0  0  0
   57.3860   30.7250   51.4210 C   0  0  0  0  0  0  0  0  0  0  0  0
   57.4940   29.4880   51.9810 N   0  0  0  0  0  0  0  0  0  0  0  0
   56.5060   28.9750   52.7590 C   0  0  0  0  0  0  0  0  0  0  0  0
   55.3530   29.7190   52.9980 C   0  0  0  0  0  0  0  0  0  0  0  0
   55.2500   30.9840   52.4210 C   0  0  0  0  0  0  0  0  0  0  0  0
   56.2610   31.4600   51.6480 N   0  0  0  0  0  0  0  0  0  0  0  0
   59.3040   30.3360   49.8170 C   0  0  0  0  0  0  0  0  0  0  0  0
   60.7390   30.8640   49.7490 C   0  0  0  0  0  0  0  0  0  0  0  0
   64.7701   31.4287   51.4492 H   0  0  0  0  0  0  0  0  0  0  0  0
   64.3219   30.6317   49.9030 H   0  0  0  0  0  0  0  0  0  0  0  0
   65.4805   32.0044   49.9030 H   0  0  0  0  0  0  0  0  0  0  0  0
   63.3311   32.8804   52.2853 H   0  0  0  0  0  0  0  0  0  0  0  0
   63.7322   34.3181   51.2858 H   0  0  0  0  0  0  0  0  0  0  0  0
   62.0598   33.6625   51.2858 H   0  0  0  0  0  0  0  0  0  0  0  0
   64.4370   34.2001   46.1072 H   0  0  0  0  0  0  0  0  0  0  0  0
   59.6669   35.2718   46.7998 H   0  0  0  0  0  0  0  0  0  0  0  0
   57.3478   35.1269   45.8953 H   0  0  0  0  0  0  0  0  0  0  0  0
   56.3930   32.9150   45.2473 H   0  0  0  0  0  0  0  0  0  0  0  0
   57.7534   30.8400   45.5101 H   0  0  0  0  0  0  0  0  0  0  0  0
   60.3043   33.2699   51.1895 H   0  0  0  0  0  0  0  0  0  0  0  0
   59.9079   34.1876   49.6919 H   0  0  0  0  0  0  0  0  0  0  0  0
   57.9042   33.2496   50.9746 H   0  0  0  0  0  0  0  0  0  0  0  0
   58.0086   32.7913   49.2323 H   0  0  0  0  0  0  0  0  0  0  0  0
   56.6162   27.9732   53.1998 H   0  0  0  0  0  0  0  0  0  0  0  0
   54.5438   29.3185   53.6264 H   0  0  0  0  0  0  0  0  0  0  0  0
   54.3518   31.5957   52.5913 H   0  0  0  0  0  0  0  0  0  0  0  0
   59.3056   29.3470   50.2985 H   0  0  0  0  0  0  0  0  0  0  0  0
   58.9057   30.2621   48.7943 H   0  0  0  0  0  0  0  0  0  0  0  0
   61.2188   30.7409   50.7312 H   0  0  0  0  0  0  0  0  0  0  0  0
   61.2950   30.2980   48.9871 H   0  0  0  0  0  0  0  0  0  0  0  0
  1  2  1  0
  2  3  1  0
  2  4  1  0
  4  5  2  0
  5  6  1  0
  6  7  2  0
  7  8  1  0
  8  9  1  0
  9 10  2  0
 10 11  1  0
 11 12  2  0
 12 13  1  0
 13 14  2  0
 14 15  1  0
  8 16  2  0
 16 17  1  0
 17 18  1  0
 18 19  1  0
 19 20  1  0
 20 21  1  0
 21 22  2  0
 22 23  1  0
 23 24  2  0
 24 25  1  0
 25 26  2  0
 20 27  1  0
 27 28  1  0
 16  4  1  0
 28 17  1  0
 14  9  1  0
 26 21  1  0
  1 29  1  0
  1 30  1  0
  1 31  1  0
  3 32  1  0
  3 33  1  0
  3 34  1  0
  6 35  1  0
 10 36  1  0
 11 37  1  0
 12 38  1  0
 13 39  1  0
 18 40  1  0
 18 41  1  0
 19 42  1  0
 19 43  1  0
 23 44  1  0
 24 45  1  0
 25 46  1  0
 27 47  1  0
 27 48  1  0
 28 49  1  0
 28 50  1  0
M  END
>  <UniqueID>  (37) 
37

>  <SMILES>  (37) 
CN(C)c1ncnc(-c2ccccc2Cl)c1N1CCN(c2ncccn2)CC1

>  <Energy>  (37) 
69.32860990309656

>  <Genealogy>  (37) 
CN(C)c1ncnc(-c2ccccc2Cl)c1N1CCN(c2ncccn2)CC1 (3D coordinates assigned)
CN(C)c1ncnc(-c2ccccc2Cl)c1N1CCN(c2ncccn2)CC1 (nonaromatic ring conformer: 69.32860990309656 kcal/mol)

>  <smiles>  (37) 
CN(C)c1ncnc(-c2ccccc2Cl)c1N1CCN(c2ncccn2)CC1

>  <score_type>  (37) 
oracle

>  <origin>  (37) 
adg

>  <m_score__min__energy>  (37) 
-7.8099999999999996

>  <m_primary>  (37) 
energy

$$$$
37:0
     RDKit          3D

 56 59  0  0  0  0  0  0  0  0999 V2000
   55.2590   24.6840   45.7910 C   0  0  0  0  0  0  0  0  0  0  0  0
   55.7210   25.9120   46.3460 O   0  0  0  0  0  0  0  0  0  0  0  0
   56.8390   26.6200   45.8800 C   0  0  0  0  0  0  0  0  0  0  0  0
   57.4150   26.3760   44.6190 C   0  0  0  0  0  0  0  0  0  0  0  0
   58.5310   27.1060   44.2040 C   0  0  0  0  0  0  0  0  0  0  0  0
   59.0790   28.0870   45.0330 C   0  0  0  0  0  0  0  0  0  0  0  0
   58.5060   28.3560   46.2890 C   0  0  0  0  0  0  0  0  0  0  0  0
   59.0830   29.3810   47.1920 C   0  0  0  0  0  0  0  0  0  0  0  0
   58.5180   29.5640   48.4140 N   0  0  0  0  0  0  0  0  0  0  0  0
   58.9900   30.4860   49.2860 C   0  0  0  0  0  0  0  0  0  0  0  0
   58.3850   30.6600   50.5320 C   0  0  0  0  0  0  0  0  0  0  0  0
   58.8810   31.6240   51.4110 C   0  0  0  0  0  0  0  0  0  0  0  0
   59.9760   32.4010   51.0310 C   0  0  0  0  0  0  0  0  0  0  0  0
   60.5540   32.2150   49.8130 N   0  0  0  0  0  0  0  0  0  0  0  0
   60.0970   31.2800   48.9290 C   0  0  0  0  0  0  0  0  0  0  0  0
   60.6890   31.1130   47.7010 N   0  0  0  0  0  0  0  0  0  0  0  0
   61.8260   31.9660   47.3020 C   0  0  0  0  0  0  0  0  0  0  0  0
   61.3180   33.2890   46.7120 C   0  0  0  0  0  0  0  0  0  0  0  0
   59.8970   33.5100   47.0570 N   0  0  0  0  0  0  0  0  0  0  0  0
   59.7180   34.7350   47.8570 C   0  0  0  0  0  0  0  0  0  0  0  0
   59.0300   33.5370   45.8550 C   0  0  0  0  0  0  0  0  0  0  0  0
   57.7630   32.7160   46.1120 C   0  0  0  0  0  0  0  0  0  0  0  0
   57.3570   31.9540   44.8820 C   0  0  0  0  0  0  0  0  0  0  0  0
   57.7610   32.3810   43.6080 C   0  0  0  0  0  0  0  0  0  0  0  0
   57.4160   31.6200   42.4900 C   0  0  0  0  0  0  0  0  0  0  0  0
   56.6810   30.4440   42.6490 C   0  0  0  0  0  0  0  0  0  0  0  0
   56.3070   30.0410   43.9330 C   0  0  0  0  0  0  0  0  0  0  0  0
   56.6540   30.7940   45.0100 N   0  0  0  0  0  0  0  0  0  0  0  0
   60.1760   30.1920   46.8160 C   0  0  0  0  0  0  0  0  0  0  0  0
   60.6620   30.0890   45.6570 O   0  0  0  0  0  0  0  0  0  0  0  0
   57.3940   27.6040   46.7080 C   0  0  0  0  0  0  0  0  0  0  0  0
   54.9978   23.9898   46.6033 H   0  0  0  0  0  0  0  0  0  0  0  0
   54.3706   24.8733   45.1706 H   0  0  0  0  0  0  0  0  0  0  0  0
   56.0518   24.2407   45.1706 H   0  0  0  0  0  0  0  0  0  0  0  0
   56.9850   25.6084   43.9588 H   0  0  0  0  0  0  0  0  0  0  0  0
   58.9803   26.9073   43.2198 H   0  0  0  0  0  0  0  0  0  0  0  0
   59.9629   28.6520   44.7022 H   0  0  0  0  0  0  0  0  0  0  0  0
   57.5224   30.0409   50.8194 H   0  0  0  0  0  0  0  0  0  0  0  0
   58.4125   31.7701   52.3955 H   0  0  0  0  0  0  0  0  0  0  0  0
   60.3724   33.1645   51.7165 H   0  0  0  0  0  0  0  0  0  0  0  0
   62.4483   32.1773   48.1841 H   0  0  0  0  0  0  0  0  0  0  0  0
   62.4189   31.4387   46.5402 H   0  0  0  0  0  0  0  0  0  0  0  0
   61.9194   34.1173   47.1148 H   0  0  0  0  0  0  0  0  0  0  0  0
   61.4107   33.2438   45.6168 H   0  0  0  0  0  0  0  0  0  0  0  0
   59.7549   34.4828   48.9271 H   0  0  0  0  0  0  0  0  0  0  0  0
   60.5215   35.4481   47.6205 H   0  0  0  0  0  0  0  0  0  0  0  0
   58.7441   35.1883   47.6205 H   0  0  0  0  0  0  0  0  0  0  0  0
   58.7519   34.5769   45.6284 H   0  0  0  0  0  0  0  0  0  0  0  0
   59.5761   33.1059   45.0030 H   0  0  0  0  0  0  0  0  0  0  0  0
   57.9546   32.0048   46.9290 H   0  0  0  0  0  0  0  0  0  0  0  0
   56.9485   33.4037   46.3833 H   0  0  0  0  0  0  0  0  0  0  0  0
   58.3440   33.3065   43.4914 H   0  0  0  0  0  0  0  0  0  0  0  0
   57.7228   31.9464   41.4853 H   0  0  0  0  0  0  0  0  0  0  0  0
   56.3995   29.8414   41.7729 H   0  0  0  0  0  0  0  0  0  0  0  0
   55.7315   29.1140   44.0726 H   0  0  0  0  0  0  0  0  0  0  0  0
   56.9544   27.7910   47.6988 H   0  0  0  0  0  0  0  0  0  0  0  0
  1  2  1  0
  2  3  1  0
  3  4  2  0
  4  5  1  0
  5  6  2  0
  6  7  1  0
  7  8  1  0
  8  9  2  0
  9 10  1  0
 10 11  2  0
 11 12  1  0
 12 13  2  0
 13 14  1  0
 14 15  2  0
 15 16  1  0
 16 17  1  0
 17 18  1  0
 18 19  1  0
 19 20  1  0
 19 21  1  0
 21 22  1  0
 22 23  1  0
 23 24  2  0
 24 25  1  0
 25 26  2  0
 26 27  1  0
 27 28  2  0
 16 29  1  0
 29 30  2  0
  7 31  2  0
 31  3  1  0
 29  8  1  0
 15 10  1  0
 28 23  1  0
  1 32  1  0
  1 33  1  0
  1 34  1  0
  4 35  1  0
  5 36  1  0
  6 37  1  0
 11 38  1  0
 12 39  1  0
 13 40  1  0
 17 41  1  0
 17 42  1  0
 18 43  1  0
 18 44  1  0
 20 45  1  0
 20 46  1  0
 20 47  1  0
 21 48  1  0
 21 49  1  0
 22 50  1  0
 22 51  1  0
 24 52  1  0
 25 53  1  0
 26 54  1  0
 27 55  1  0
 31 56  1  0
M  END
>  <UniqueID>  (38) 
38

>  <SMILES>  (38) 
COc1cccc(-c2nc3cccnc3n(CCN(C)CCc3ccccn3)c2=O)c1

>  <Energy>  (38) 
71.02002546518854

>  <Genealogy>  (38) 
COc1cccc(-c2nc3cccnc3n(CCN(C)CCc3ccccn3)c2=O)c1 (3D coordinates assigned)
COc1cccc(-c2nc3cccnc3n(CCN(C)CCc3ccccn3)c2=O)c1 (optimized conformer: 71.02002546518854 kcal/mol)

>  <smiles>  (38) 
COc1cccc(-c2nc3cccnc3n(CCN(C)CCc3ccccn3)c2=O)c1

>  <score_type>  (38) 
oracle

>  <origin>  (38) 
adg

>  <m_score__min__energy>  (38) 
-8.3399999999999999

>  <m_primary>  (38) 
energy

$$$$
38:0
     RDKit          3D

 41 43  0  0  0  0  0  0  0  0999 V2000
   59.6920   33.8830   49.5490 C   0  0  0  0  0  0  0  0  0  0  0  0
   58.9150   33.8930   48.2370 C   0  0  0  0  0  0  0  0  0  0  0  0
   59.8390   33.9700   47.0970 N   0  0  0  0  0  0  0  0  0  0  0  0
   59.6050   34.8560   45.9810 C   0  0  0  0  0  0  0  0  0  0  0  0
   60.0180   36.0480   46.0300 O   0  0  0  0  0  0  0  0  0  0  0  0
   58.9440   34.3840   44.7140 C   0  0  0  0  0  0  0  0  0  0  0  0
   57.1500   34.1350   44.9580 S   0  0  0  0  0  0  0  0  0  0  0  0
   57.2580   32.3560   45.1300 C   0  0  0  0  0  0  0  0  0  0  0  0
   56.3600   31.4890   44.6290 N   0  0  0  0  0  0  0  0  0  0  0  0
   56.7970   30.2810   44.9500 N   0  0  0  0  0  0  0  0  0  0  0  0
   57.9460   30.4600   45.6340 C   0  0  0  0  0  0  0  0  0  0  0  0
   58.7830   29.3670   46.1670 C   0  0  0  0  0  0  0  0  0  0  0  0
   59.5320   28.5500   45.3040 C   0  0  0  0  0  0  0  0  0  0  0  0
   60.3340   27.5270   45.8190 C   0  0  0  0  0  0  0  0  0  0  0  0
   60.4020   27.3170   47.2000 C   0  0  0  0  0  0  0  0  0  0  0  0
   59.6610   28.1250   48.0650 C   0  0  0  0  0  0  0  0  0  0  0  0
   58.8500   29.1430   47.5530 C   0  0  0  0  0  0  0  0  0  0  0  0
   58.2310   31.7350   45.7500 O   0  0  0  0  0  0  0  0  0  0  0  0
   61.0530   33.2050   47.1460 C   0  0  0  0  0  0  0  0  0  0  0  0
   62.3010   33.8430   47.0760 C   0  0  0  0  0  0  0  0  0  0  0  0
   63.4770   33.0880   47.1030 C   0  0  0  0  0  0  0  0  0  0  0  0
   63.4130   31.6940   47.2010 C   0  0  0  0  0  0  0  0  0  0  0  0
   62.1720   31.0540   47.2810 C   0  0  0  0  0  0  0  0  0  0  0  0
   60.9940   31.8060   47.2580 C   0  0  0  0  0  0  0  0  0  0  0  0
   58.9866   33.8921   50.3930 H   0  0  0  0  0  0  0  0  0  0  0  0
   60.3134   32.9768   49.6002 H   0  0  0  0  0  0  0  0  0  0  0  0
   60.3365   34.7729   49.6002 H   0  0  0  0  0  0  0  0  0  0  0  0
   58.3205   32.9707   48.1604 H   0  0  0  0  0  0  0  0  0  0  0  0
   58.2527   34.7711   48.2204 H   0  0  0  0  0  0  0  0  0  0  0  0
   59.0980   35.1369   43.9269 H   0  0  0  0  0  0  0  0  0  0  0  0
   59.3930   33.4225   44.4241 H   0  0  0  0  0  0  0  0  0  0  0  0
   59.4873   28.7159   44.2175 H   0  0  0  0  0  0  0  0  0  0  0  0
   60.9123   26.8864   45.1370 H   0  0  0  0  0  0  0  0  0  0  0  0
   61.0385   26.5162   47.6044 H   0  0  0  0  0  0  0  0  0  0  0  0
   59.7153   27.9605   49.1513 H   0  0  0  0  0  0  0  0  0  0  0  0
   58.2619   29.7712   48.2382 H   0  0  0  0  0  0  0  0  0  0  0  0
   62.3538   34.9391   46.9998 H   0  0  0  0  0  0  0  0  0  0  0  0
   64.4539   33.5905   47.0471 H   0  0  0  0  0  0  0  0  0  0  0  0
   64.3393   31.1009   47.2151 H   0  0  0  0  0  0  0  0  0  0  0  0
   62.1230   29.9581   47.3621 H   0  0  0  0  0  0  0  0  0  0  0  0
   60.0191   31.3014   47.3277 H   0  0  0  0  0  0  0  0  0  0  0  0
  1  2  1  0
  2  3  1  0
  3  4  1  0
  4  5  2  0
  4  6  1  0
  6  7  1  0
  7  8  1  0
  8  9  2  0
  9 10  1  0
 10 11  2  0
 11 12  1  0
 12 13  2  0
 13 14  1  0
 14 15  2  0
 15 16  1  0
 16 17  2  0
 11 18  1  0
  3 19  1  0
 19 20  2  0
 20 21  1  0
 21 22  2  0
 22 23  1  0
 23 24  2  0
 18  8  1  0
 24 19  1  0
 17 12  1  0
  1 25  1  0
  1 26  1  0
  1 27  1  0
  2 28  1  0
  2 29  1  0
  6 30  1  0
  6 31  1  0
 13 32  1  0
 14 33  1  0
 15 34  1  0
 16 35  1  0
 17 36  1  0
 20 37  1  0
 21 38  1  0
 22 39  1  0
 23 40  1  0
 24 41  1  0
M  END
>  <UniqueID>  (39) 
39

>  <SMILES>  (39) 
CCN(C(=O)CSc1nnc(-c2ccccc2)o1)c1ccccc1

>  <Energy>  (39) 
76.54597931233404

>  <Genealogy>  (39) 
CCN(C(=O)CSc1nnc(-c2ccccc2)o1)c1ccccc1 (3D coordinates assigned)
CCN(C(=O)CSc1nnc(-c2ccccc2)o1)c1ccccc1 (optimized conformer: 76.54597931233404 kcal/mol)

>  <smiles>  (39) 
CCN(C(=O)CSc1nnc(-c2ccccc2)o1)c1ccccc1

>  <score_type>  (39) 
oracle

>  <origin>  (39) 
adg

>  <m_score__min__energy>  (39) 
-8.0999999999999996

>  <m_primary>  (39) 
energy

$$$$
39:0
     RDKit          3D

 42 44  0  0  0  0  0  0  0  0999 V2000
   58.4590   23.5190   45.2790 C   0  0  0  0  0  0  0  0  0  0  0  0
   57.6480   24.3730   46.1520 N   0  0  0  0  0  0  0  0  0  0  0  0
   56.2450   24.0230   46.4220 C   0  0  0  0  0  0  0  0  0  0  0  0
   55.2990   24.9220   45.6210 C   0  0  0  0  0  0  0  0  0  0  0  0
   55.1660   26.1740   46.2420 O   0  0  0  0  0  0  0  0  0  0  0  0
   58.2250   25.5410   46.7750 C   0  0  0  0  0  0  0  0  0  0  0  0
   57.7530   25.9660   47.8650 O   0  0  0  0  0  0  0  0  0  0  0  0
   59.3450   26.3140   46.1260 C   0  0  0  0  0  0  0  0  0  0  0  0
   58.9620   27.7240   45.9300 N   0  0  0  0  0  0  0  0  0  0  0  0
   59.8140   28.7140   46.3790 C   0  0  0  0  0  0  0  0  0  0  0  0
   59.5010   30.0370   46.2310 N   0  0  0  0  0  0  0  0  0  0  0  0
   58.3250   30.3570   45.6360 C   0  0  0  0  0  0  0  0  0  0  0  0
   57.4960   29.4120   45.1340 C   0  0  0  0  0  0  0  0  0  0  0  0
   56.4780   30.1020   44.5120 C   0  0  0  0  0  0  0  0  0  0  0  0
   56.7190   31.4290   44.6530 N   0  0  0  0  0  0  0  0  0  0  0  0
   57.8450   31.5820   45.3450 N   0  0  0  0  0  0  0  0  0  0  0  0
   58.3930   32.8620   45.6960 C   0  0  0  0  0  0  0  0  0  0  0  0
   58.7110   33.8050   44.7030 C   0  0  0  0  0  0  0  0  0  0  0  0
   59.2680   35.0380   45.0560 C   0  0  0  0  0  0  0  0  0  0  0  0
   59.5230   35.3350   46.3980 C   0  0  0  0  0  0  0  0  0  0  0  0
   59.2300   34.3940   47.3890 C   0  0  0  0  0  0  0  0  0  0  0  0
   58.6730   33.1590   47.0390 C   0  0  0  0  0  0  0  0  0  0  0  0
   57.8020   28.0660   45.2670 C   0  0  0  0  0  0  0  0  0  0  0  0
   57.0320   27.1910   44.7840 O   0  0  0  0  0  0  0  0  0  0  0  0
   59.0871   22.8576   45.8938 H   0  0  0  0  0  0  0  0  0  0  0  0
   57.7979   22.9108   44.6441 H   0  0  0  0  0  0  0  0  0  0  0  0
   59.1005   24.1478   44.6441 H   0  0  0  0  0  0  0  0  0  0  0  0
   56.0734   22.9743   46.1379 H   0  0  0  0  0  0  0  0  0  0  0  0
   56.0450   24.1656   47.4942 H   0  0  0  0  0  0  0  0  0  0  0  0
   55.7040   25.0618   44.6079 H   0  0  0  0  0  0  0  0  0  0  0  0
   54.3101   24.4429   45.5717 H   0  0  0  0  0  0  0  0  0  0  0  0
   56.0640   26.4210   46.5840 H   0  0  0  0  0  0  0  0  0  0  0  0
   60.2355   26.2682   46.7701 H   0  0  0  0  0  0  0  0  0  0  0  0
   59.5597   25.8669   45.1442 H   0  0  0  0  0  0  0  0  0  0  0  0
   60.7606   28.4335   46.8640 H   0  0  0  0  0  0  0  0  0  0  0  0
   60.1720   30.7680   46.5510 H   0  0  0  0  0  0  0  0  0  0  0  0
   55.6188   29.6539   43.9914 H   0  0  0  0  0  0  0  0  0  0  0  0
   58.5210   33.5721   43.6449 H   0  0  0  0  0  0  0  0  0  0  0  0
   59.5061   35.7760   44.2759 H   0  0  0  0  0  0  0  0  0  0  0  0
   59.9540   36.3087   46.6739 H   0  0  0  0  0  0  0  0  0  0  0  0
   59.4373   34.6243   48.4444 H   0  0  0  0  0  0  0  0  0  0  0  0
   58.4534   32.4168   47.8206 H   0  0  0  0  0  0  0  0  0  0  0  0
  1  2  1  0
  2  3  1  0
  3  4  1  0
  4  5  1  0
  2  6  1  0
  6  7  2  0
  6  8  1  0
  8  9  1  0
  9 10  1  0
 10 11  2  0
 11 12  1  0
 12 13  2  0
 13 14  1  0
 14 15  2  0
 15 16  1  0
 16 17  1  0
 17 18  2  0
 18 19  1  0
 19 20  2  0
 20 21  1  0
 21 22  2  0
 13 23  1  0
 23 24  2  0
 23  9  1  0
 16 12  1  0
 22 17  1  0
  1 25  1  0
  1 26  1  0
  1 27  1  0
  3 28  1  0
  3 29  1  0
  4 30  1  0
  4 31  1  0
  5 32  1  0
  8 33  1  0
  8 34  1  0
 10 35  1  0
 11 36  1  0
 14 37  1  0
 18 38  1  0
 19 39  1  0
 20 40  1  0
 21 41  1  0
 22 42  1  0
M  CHG  1  11   1
M  END
>  <UniqueID>  (40) 
40

>  <SMILES>  (40) 
CN(CCO)C(=O)Cn1c[nH+]c2c(cnn2-c2ccccc2)c1=O

>  <Energy>  (40) 
87.85993795819746

>  <Genealogy>  (40) 
CN(CCO)C(=O)Cn1c[nH+]c2c(cnn2-c2ccccc2)c1=O (protonated)
CN(CCO)C(=O)Cn1c[nH+]c2c(cnn2-c2ccccc2)c1=O (3D coordinates assigned)
CN(CCO)C(=O)Cn1c[nH+]c2c(cnn2-c2ccccc2)c1=O (optimized conformer: 87.85993795819746 kcal/mol)

>  <smiles>  (40) 
CN(CCO)C(=O)Cn1cnc2c(cnn2-c2ccccc2)c1=O

>  <score_type>  (40) 
oracle

>  <origin>  (40) 
adg

>  <m_score__min__energy>  (40) 
-7.4100000000000001

>  <m_primary>  (40) 
energy

$$$$
40:0
     RDKit          3D

 35 37  0  0  0  0  0  0  0  0999 V2000
   63.1600   34.1840   50.8750 C   0  0  0  0  0  0  0  0  0  0  0  0
   63.0190   33.8410   49.4220 C   0  0  0  0  0  0  0  0  0  0  0  0
   64.0700   33.2260   48.7300 C   0  0  0  0  0  0  0  0  0  0  0  0
   63.9230   32.8840   47.4220 N   0  0  0  0  0  0  0  0  0  0  0  0
   62.7630   33.1140   46.7500 C   0  0  0  0  0  0  0  0  0  0  0  0
   61.6720   33.7120   47.4010 C   0  0  0  0  0  0  0  0  0  0  0  0
   60.4040   33.9550   46.6820 C   0  0  0  0  0  0  0  0  0  0  0  0
   60.0130   35.1670   46.2370 N   0  0  0  0  0  0  0  0  0  0  0  0
   58.8640   34.9610   45.6690 O   0  0  0  0  0  0  0  0  0  0  0  0
   58.5560   33.6910   45.7480 C   0  0  0  0  0  0  0  0  0  0  0  0
   57.2910   33.0940   45.2160 C   0  0  0  0  0  0  0  0  0  0  0  0
   57.5860   31.9130   44.3770 N   0  0  0  0  0  0  0  0  0  0  0  0
   58.0080   32.3050   43.0240 C   0  0  0  0  0  0  0  0  0  0  0  0
   56.5820   30.8150   44.3240 C   0  0  0  0  0  0  0  0  0  0  0  0
   57.1570   29.4140   44.1320 C   0  0  0  0  0  0  0  0  0  0  0  0
   56.3420   30.0520   43.0170 C   0  0  0  0  0  0  0  0  0  0  0  0
   59.5050   32.9880   46.3970 N   0  0  0  0  0  0  0  0  0  0  0  0
   61.8100   34.0680   48.7510 C   0  0  0  0  0  0  0  0  0  0  0  0
   62.8124   33.3385   51.4867 H   0  0  0  0  0  0  0  0  0  0  0  0
   64.2162   34.3911   51.1020 H   0  0  0  0  0  0  0  0  0  0  0  0
   62.5548   35.0741   51.1020 H   0  0  0  0  0  0  0  0  0  0  0  0
   65.0186   33.0187   49.2468 H   0  0  0  0  0  0  0  0  0  0  0  0
   64.7210   32.4320   46.9220 H   0  0  0  0  0  0  0  0  0  0  0  0
   62.6791   32.8299   45.6906 H   0  0  0  0  0  0  0  0  0  0  0  0
   56.6530   32.7888   46.0585 H   0  0  0  0  0  0  0  0  0  0  0  0
   56.7750   33.8461   44.6011 H   0  0  0  0  0  0  0  0  0  0  0  0
   58.8124   33.0522   43.0928 H   0  0  0  0  0  0  0  0  0  0  0  0
   58.3749   31.4200   42.4835 H   0  0  0  0  0  0  0  0  0  0  0  0
   57.1524   32.7361   42.4835 H   0  0  0  0  0  0  0  0  0  0  0  0
   55.9109   31.3238   45.0316 H   0  0  0  0  0  0  0  0  0  0  0  0
   58.2417   29.2777   44.0102 H   0  0  0  0  0  0  0  0  0  0  0  0
   57.0996   28.4686   44.6914 H   0  0  0  0  0  0  0  0  0  0  0  0
   56.8377   30.3781   42.0907 H   0  0  0  0  0  0  0  0  0  0  0  0
   55.4530   29.7603   42.4385 H   0  0  0  0  0  0  0  0  0  0  0  0
   60.9653   34.5274   49.2852 H   0  0  0  0  0  0  0  0  0  0  0  0
  1  2  1  0
  2  3  2  0
  3  4  1  0
  4  5  2  0
  5  6  1  0
  6  7  1  0
  7  8  2  0
  8  9  1  0
  9 10  1  0
 10 11  1  0
 11 12  1  0
 12 13  1  0
 12 14  1  0
 14 15  1  0
 15 16  1  0
 10 17  2  0
  6 18  2  0
 18  2  1  0
 17  7  1  0
 16 14  1  0
  1 19  1  0
  1 20  1  0
  1 21  1  0
  3 22  1  0
  4 23  1  0
  5 24  1  0
 11 25  1  0
 11 26  1  0
 13 27  1  0
 13 28  1  0
 13 29  1  0
 14 30  1  0
 15 31  1  0
 15 32  1  0
 16 33  1  0
 16 34  1  0
 18 35  1  0
M  CHG  1   4   1
M  END
>  <UniqueID>  (41) 
41

>  <SMILES>  (41) 
Cc1c[nH+]cc(-c2noc(CN(C)C3CC3)n2)c1

>  <Energy>  (41) 
343.4540881719473

>  <Genealogy>  (41) 
Cc1c[nH+]cc(-c2noc(CN(C)C3CC3)n2)c1 (protonated)
Cc1c[nH+]cc(-c2noc(CN(C)C3CC3)n2)c1 (3D coordinates assigned)
Cc1c[nH+]cc(-c2noc(CN(C)C3CC3)n2)c1 (nonaromatic ring conformer: 343.4540881719473 kcal/mol)

>  <smiles>  (41) 
Cc1cncc(-c2noc(CN(C)C3CC3)n2)c1

>  <score_type>  (41) 
oracle

>  <origin>  (41) 
adg

>  <m_score__min__energy>  (41) 
-5.6799999999999997

>  <m_primary>  (41) 
energy

$$$$
41:0
     RDKit          3D

 42 43  0  0  0  0  0  0  0  0999 V2000
   56.9280   23.1100   47.8960 C   0  0  0  0  0  0  0  0  0  0  0  0
   55.5550   23.7470   47.7470 C   0  0  0  0  0  0  0  0  0  0  0  0
   55.4770   24.4550   46.4770 N   0  0  0  0  0  0  0  0  0  0  0  0
   55.9610   25.7890   46.3030 C   0  0  0  0  0  0  0  0  0  0  0  0
   55.1690   26.7190   45.9900 O   0  0  0  0  0  0  0  0  0  0  0  0
   57.4170   26.0760   46.4840 C   0  0  0  0  0  0  0  0  0  0  0  0
   58.0830   26.2000   45.1690 N   0  0  0  0  0  0  0  0  0  0  0  0
   57.3710   25.5240   44.0550 C   0  0  0  0  0  0  0  0  0  0  0  0
   57.4710   24.0150   44.0960 C   0  0  0  0  0  0  0  0  0  0  0  0
   56.5750   23.2210   43.3590 C   0  0  0  0  0  0  0  0  0  0  0  0
   56.6740   21.8270   43.3920 C   0  0  0  0  0  0  0  0  0  0  0  0
   57.6610   21.2130   44.1680 C   0  0  0  0  0  0  0  0  0  0  0  0
   58.5440   21.9930   44.9180 C   0  0  0  0  0  0  0  0  0  0  0  0
   58.4480   23.3870   44.8890 C   0  0  0  0  0  0  0  0  0  0  0  0
   58.6290   27.5430   44.8250 C   0  0  2  0  0  0  0  0  0  0  0  0
   58.8970   28.3700   46.1080 C   0  0  0  0  0  0  0  0  0  0  0  0
   57.7820   29.3880   46.3530 C   0  0  0  0  0  0  0  0  0  0  0  0
   57.0090   29.6520   44.7900 S   0  0  0  0  0  0  0  0  0  0  0  0
   55.5180   29.4850   44.8770 O   0  0  0  0  0  0  0  0  0  0  0  0
   57.3570   31.0030   44.2300 O   0  0  0  0  0  0  0  0  0  0  0  0
   57.7520   28.3570   43.8470 C   0  0  0  0  0  0  0  0  0  0  0  0
   57.1668   22.9992   48.9640 H   0  0  0  0  0  0  0  0  0  0  0  0
   56.9271   22.1203   47.4159 H   0  0  0  0  0  0  0  0  0  0  0  0
   57.6831   23.7498   47.4159 H   0  0  0  0  0  0  0  0  0  0  0  0
   54.7834   22.9636   47.7767 H   0  0  0  0  0  0  0  0  0  0  0  0
   55.3921   24.4578   48.5706 H   0  0  0  0  0  0  0  0  0  0  0  0
   57.5349   27.0174   47.0407 H   0  0  0  0  0  0  0  0  0  0  0  0
   57.8783   25.2479   47.0421 H   0  0  0  0  0  0  0  0  0  0  0  0
   56.3080   25.8030   44.1022 H   0  0  0  0  0  0  0  0  0  0  0  0
   57.8501   25.8526   43.1209 H   0  0  0  0  0  0  0  0  0  0  0  0
   55.7916   23.6994   42.7529 H   0  0  0  0  0  0  0  0  0  0  0  0
   55.9742   21.2126   42.8065 H   0  0  0  0  0  0  0  0  0  0  0  0
   57.7423   20.1162   44.1880 H   0  0  0  0  0  0  0  0  0  0  0  0
   59.3169   21.5090   45.5331 H   0  0  0  0  0  0  0  0  0  0  0  0
   59.1400   23.9959   45.4893 H   0  0  0  0  0  0  0  0  0  0  0  0
   59.5733   27.3457   44.2965 H   0  0  0  0  0  0  0  0  0  0  0  0
   58.9555   27.6878   46.9689 H   0  0  0  0  0  0  0  0  0  0  0  0
   59.8440   28.9148   45.9797 H   0  0  0  0  0  0  0  0  0  0  0  0
   57.0547   28.9909   47.0764 H   0  0  0  0  0  0  0  0  0  0  0  0
   58.1784   30.3260   46.7689 H   0  0  0  0  0  0  0  0  0  0  0  0
   56.9751   27.7133   43.4088 H   0  0  0  0  0  0  0  0  0  0  0  0
   58.3535   28.7640   43.0208 H   0  0  0  0  0  0  0  0  0  0  0  0
  1  2  1  0
  2  3  1  0
  3  4  1  0
  4  5  2  0
  4  6  1  0
  6  7  1  0
  7  8  1  0
  8  9  1  0
  9 10  2  0
 10 11  1  0
 11 12  2  0
 12 13  1  0
 13 14  2  0
  7 15  1  0
 15 16  1  0
 16 17  1  0
 17 18  1  0
 18 19  2  0
 18 20  2  0
 18 21  1  0
 14  9  1  0
 21 15  1  0
  1 22  1  0
  1 23  1  0
  1 24  1  0
  2 25  1  0
  2 26  1  0
  6 27  1  0
  6 28  1  0
  8 29  1  0
  8 30  1  0
 10 31  1  0
 11 32  1  0
 12 33  1  0
 13 34  1  0
 14 35  1  0
 15 36  1  6
 16 37  1  0
 16 38  1  0
 17 39  1  0
 17 40  1  0
 21 41  1  0
 21 42  1  0
M  CHG  1   3  -1
M  END
>  <UniqueID>  (42) 
42

>  <SMILES>  (42) 
CC[N-]C(=O)CN(Cc1ccccc1)[C@@H]1CCS(=O)(=O)C1

>  <Energy>  (42) 
42.64577145491137

>  <Genealogy>  (42) 
CC[N-]C(=O)CN(Cc1ccccc1)C1CCS(=O)(=O)C1 (protonated)
CC[N-]C(=O)CN(Cc1ccccc1)[C@@H]1CCS(=O)(=O)C1 (chirality)
CC[N-]C(=O)CN(Cc1ccccc1)[C@@H]1CCS(=O)(=O)C1 (3D coordinates assigned)
CC[N-]C(=O)CN(Cc1ccccc1)[C@@H]1CCS(=O)(=O)C1 (nonaromatic ring conformer: 42.64577145491137 kcal/mol)

>  <smiles>  (42) 
CCNC(=O)CN(Cc1ccccc1)C1CCS(=O)(=O)C1

>  <score_type>  (42) 
oracle

>  <origin>  (42) 
adg

>  <m_score__min__energy>  (42) 
-9.3000000000000007

>  <m_primary>  (42) 
energy

$$$$
42:0
     RDKit          3D

 42 45  0  0  0  0  0  0  0  0999 V2000
   59.2340   34.5630   54.1120 C   0  0  0  0  0  0  0  0  0  0  0  0
   58.5020   33.5630   53.4110 O   0  0  0  0  0  0  0  0  0  0  0  0
   58.6800   33.2570   52.0540 C   0  0  0  0  0  0  0  0  0  0  0  0
   59.5060   34.0220   51.2080 C   0  0  0  0  0  0  0  0  0  0  0  0
   59.6500   33.6760   49.8620 C   0  0  0  0  0  0  0  0  0  0  0  0
   58.9590   32.5740   49.3330 C   0  0  0  0  0  0  0  0  0  0  0  0
   59.1110   32.1990   47.9550 N   0  0  0  0  0  0  0  0  0  0  0  0
   58.0970   31.8350   47.1920 N   0  0  0  0  0  0  0  0  0  0  0  0
   58.6320   31.4600   46.0120 C   0  0  0  0  0  0  0  0  0  0  0  0
   57.8360   30.9760   44.8640 C   0  0  0  0  0  0  0  0  0  0  0  0
   57.8480   31.6730   43.6430 C   0  0  0  0  0  0  0  0  0  0  0  0
   57.0950   31.2120   42.5580 C   0  0  0  0  0  0  0  0  0  0  0  0
   56.3240   30.0540   42.6830 C   0  0  0  0  0  0  0  0  0  0  0  0
   56.3060   29.3530   43.8920 C   0  0  0  0  0  0  0  0  0  0  0  0
   57.0580   29.8100   44.9780 C   0  0  0  0  0  0  0  0  0  0  0  0
   59.9800   31.5770   45.9970 N   0  0  0  0  0  0  0  0  0  0  0  0
   60.2460   32.0500   47.2320 C   0  0  0  0  0  0  0  0  0  0  0  0
   61.6100   32.4260   47.6610 C   0  0  0  0  0  0  0  0  0  0  0  0
   62.2500   31.6870   48.6710 C   0  0  0  0  0  0  0  0  0  0  0  0
   63.5450   32.0200   49.0750 C   0  0  0  0  0  0  0  0  0  0  0  0
   64.2180   33.0820   48.4660 C   0  0  0  0  0  0  0  0  0  0  0  0
   63.5980   33.8070   47.4460 C   0  0  0  0  0  0  0  0  0  0  0  0
   62.3030   33.4770   47.0370 C   0  0  0  0  0  0  0  0  0  0  0  0
   58.1560   31.7990   50.1830 C   0  0  0  0  0  0  0  0  0  0  0  0
   58.0130   32.1440   51.5300 C   0  0  0  0  0  0  0  0  0  0  0  0
   59.1209   34.4085   55.1952 H   0  0  0  0  0  0  0  0  0  0  0  0
   60.2980   34.4960   53.8412 H   0  0  0  0  0  0  0  0  0  0  0  0
   58.8486   35.5570   53.8412 H   0  0  0  0  0  0  0  0  0  0  0  0
   60.0403   34.8960   51.6087 H   0  0  0  0  0  0  0  0  0  0  0  0
   60.3090   34.2708   49.2124 H   0  0  0  0  0  0  0  0  0  0  0  0
   58.4529   32.5860   43.5404 H   0  0  0  0  0  0  0  0  0  0  0  0
   57.1101   31.7619   41.6055 H   0  0  0  0  0  0  0  0  0  0  0  0
   55.7308   29.6936   41.8296 H   0  0  0  0  0  0  0  0  0  0  0  0
   55.6993   28.4406   43.9890 H   0  0  0  0  0  0  0  0  0  0  0  0
   57.0412   29.2545   45.9273 H   0  0  0  0  0  0  0  0  0  0  0  0
   61.7286   30.8426   49.1454 H   0  0  0  0  0  0  0  0  0  0  0  0
   64.0358   31.4450   49.8741 H   0  0  0  0  0  0  0  0  0  0  0  0
   65.2354   33.3469   48.7896 H   0  0  0  0  0  0  0  0  0  0  0  0
   64.1303   34.6399   46.9633 H   0  0  0  0  0  0  0  0  0  0  0  0
   61.8245   34.0421   46.2236 H   0  0  0  0  0  0  0  0  0  0  0  0
   57.6357   30.9144   49.7871 H   0  0  0  0  0  0  0  0  0  0  0  0
   57.3708   31.5355   52.1836 H   0  0  0  0  0  0  0  0  0  0  0  0
  1  2  1  0
  2  3  1  0
  3  4  2  0
  4  5  1  0
  5  6  2  0
  6  7  1  0
  7  8  1  0
  8  9  2  0
  9 10  1  0
 10 11  2  0
 11 12  1  0
 12 13  2  0
 13 14  1  0
 14 15  2  0
  9 16  1  0
 16 17  2  0
 17 18  1  0
 18 19  2  0
 19 20  1  0
 20 21  2  0
 21 22  1  0
 22 23  2  0
  6 24  1  0
 24 25  2  0
 25  3  1  0
 17  7  1  0
 23 18  1  0
 15 10  1  0
  1 26  1  0
  1 27  1  0
  1 28  1  0
  4 29  1  0
  5 30  1  0
 11 31  1  0
 12 32  1  0
 13 33  1  0
 14 34  1  0
 15 35  1  0
 19 36  1  0
 20 37  1  0
 21 38  1  0
 22 39  1  0
 23 40  1  0
 24 41  1  0
 25 42  1  0
M  END
>  <UniqueID>  (43) 
43

>  <SMILES>  (43) 
COc1ccc(-n2nc(-c3ccccc3)nc2-c2ccccc2)cc1

>  <Energy>  (43) 
88.33559590801255

>  <Genealogy>  (43) 
COc1ccc(-n2nc(-c3ccccc3)nc2-c2ccccc2)cc1 (3D coordinates assigned)
COc1ccc(-n2nc(-c3ccccc3)nc2-c2ccccc2)cc1 (optimized conformer: 88.33559590801255 kcal/mol)

>  <smiles>  (43) 
COc1ccc(-n2nc(-c3ccccc3)nc2-c2ccccc2)cc1

>  <score_type>  (43) 
oracle

>  <origin>  (43) 
adg

>  <m_score__min__energy>  (43) 
-7.2800000000000002

>  <m_primary>  (43) 
energy

$$$$
43:0
     RDKit          3D

 56 58  0  0  0  0  0  0  0  0999 V2000
   55.9640   19.6110   44.5990 C   0  0  0  0  0  0  0  0  0  0  0  0
   56.0180   20.6650   43.6400 O   0  0  0  0  0  0  0  0  0  0  0  0
   56.4790   21.9620   43.9110 C   0  0  0  0  0  0  0  0  0  0  0  0
   56.1910   22.9730   42.9860 C   0  0  0  0  0  0  0  0  0  0  0  0
   56.6430   24.2780   43.1990 C   0  0  0  0  0  0  0  0  0  0  0  0
   57.3910   24.5910   44.3420 C   0  0  0  0  0  0  0  0  0  0  0  0
   57.8640   25.9300   44.5460 N   0  0  0  0  0  0  0  0  0  0  0  0
   58.3150   26.7290   43.3960 C   0  0  0  0  0  0  0  0  0  0  0  0
   58.2860   28.2250   43.7390 C   0  0  0  0  0  0  0  0  0  0  0  0
   57.1510   28.5020   44.6410 N   0  0  0  0  0  0  0  0  0  0  0  0
   56.8850   29.9260   44.7340 C   0  0  0  0  0  0  0  0  0  0  0  0
   55.7440   30.3350   44.5550 O   0  0  0  0  0  0  0  0  0  0  0  0
   57.9700   30.9400   45.0170 C   0  0  0  0  0  0  0  0  0  0  0  0
   57.7910   32.1700   44.1220 C   0  0  0  0  0  0  0  0  0  0  0  0
   57.3750   33.6870   45.0610 S   0  0  0  0  0  0  0  0  0  0  0  0
   58.3790   33.4210   46.5760 C   0  0  0  0  0  0  0  0  0  0  0  0
   59.2780   34.6040   46.9640 C   0  0  0  0  0  0  0  0  0  0  0  0
   60.6540   34.1690   47.4050 C   0  0  0  0  0  0  0  0  0  0  0  0
   61.6270   33.8230   46.4480 C   0  0  0  0  0  0  0  0  0  0  0  0
   62.9090   33.4380   46.8530 C   0  0  0  0  0  0  0  0  0  0  0  0
   63.2320   33.3950   48.2120 C   0  0  0  0  0  0  0  0  0  0  0  0
   62.2720   33.7380   49.1690 C   0  0  0  0  0  0  0  0  0  0  0  0
   60.9880   34.1250   48.7700 C   0  0  0  0  0  0  0  0  0  0  0  0
   57.3610   27.8990   45.9790 C   0  0  0  0  0  0  0  0  0  0  0  0
   57.9770   26.4800   45.9030 C   0  0  0  0  0  0  0  0  0  0  0  0
   57.6550   23.5900   45.2860 C   0  0  0  0  0  0  0  0  0  0  0  0
   57.2110   22.2800   45.0700 C   0  0  0  0  0  0  0  0  0  0  0  0
   55.9858   20.0365   45.6131 H   0  0  0  0  0  0  0  0  0  0  0  0
   55.0353   19.0377   44.4618 H   0  0  0  0  0  0  0  0  0  0  0  0
   56.8292   18.9458   44.4618 H   0  0  0  0  0  0  0  0  0  0  0  0
   55.6048   22.7383   42.0853 H   0  0  0  0  0  0  0  0  0  0  0  0
   56.4104   25.0640   42.4654 H   0  0  0  0  0  0  0  0  0  0  0  0
   59.3425   26.4374   43.1328 H   0  0  0  0  0  0  0  0  0  0  0  0
   57.6403   26.5446   42.5470 H   0  0  0  0  0  0  0  0  0  0  0  0
   59.2263   28.5053   44.2364 H   0  0  0  0  0  0  0  0  0  0  0  0
   58.1708   28.8105   42.8149 H   0  0  0  0  0  0  0  0  0  0  0  0
   56.2960   28.0530   44.2290 H   0  0  0  0  0  0  0  0  0  0  0  0
   57.9143   31.2470   46.0718 H   0  0  0  0  0  0  0  0  0  0  0  0
   58.9497   30.4847   44.8096 H   0  0  0  0  0  0  0  0  0  0  0  0
   58.7287   32.3436   43.5738 H   0  0  0  0  0  0  0  0  0  0  0  0
   56.9500   31.9628   43.4439 H   0  0  0  0  0  0  0  0  0  0  0  0
   57.6922   33.2235   47.4122 H   0  0  0  0  0  0  0  0  0  0  0  0
   59.0507   32.5771   46.3602 H   0  0  0  0  0  0  0  0  0  0  0  0
   59.3810   35.2682   46.0933 H   0  0  0  0  0  0  0  0  0  0  0  0
   58.8036   35.1176   47.8132 H   0  0  0  0  0  0  0  0  0  0  0  0
   61.3777   33.8556   45.3771 H   0  0  0  0  0  0  0  0  0  0  0  0
   63.6646   33.1685   46.1004 H   0  0  0  0  0  0  0  0  0  0  0  0
   64.2408   33.0915   48.5286 H   0  0  0  0  0  0  0  0  0  0  0  0
   62.5269   33.7035   50.2385 H   0  0  0  0  0  0  0  0  0  0  0  0
   60.2372   34.3958   49.5269 H   0  0  0  0  0  0  0  0  0  0  0  0
   58.0384   28.5467   46.5549 H   0  0  0  0  0  0  0  0  0  0  0  0
   56.3769   27.8094   46.4621 H   0  0  0  0  0  0  0  0  0  0  0  0
   59.0396   26.5336   46.1823 H   0  0  0  0  0  0  0  0  0  0  0  0
   57.4298   25.8226   46.5947 H   0  0  0  0  0  0  0  0  0  0  0  0
   58.2139   23.8346   46.2013 H   0  0  0  0  0  0  0  0  0  0  0  0
   57.4351   21.4965   45.8089 H   0  0  0  0  0  0  0  0  0  0  0  0
  1  2  1  0
  2  3  1  0
  3  4  2  0
  4  5  1  0
  5  6  2  0
  6  7  1  0
  7  8  1  0
  8  9  1  0
  9 10  1  0
 10 11  1  0
 11 12  2  0
 11 13  1  0
 13 14  1  0
 14 15  1  0
 15 16  1  0
 16 17  1  0
 17 18  1  0
 18 19  2  0
 19 20  1  0
 20 21  2  0
 21 22  1  0
 22 23  2  0
 10 24  1  0
 24 25  1  0
  6 26  1  0
 26 27  2  0
 27  3  1  0
 25  7  1  0
 23 18  1  0
  1 28  1  0
  1 29  1  0
  1 30  1  0
  4 31  1  0
  5 32  1  0
  8 33  1  0
  8 34  1  0
  9 35  1  0
  9 36  1  0
 10 37  1  0
 13 38  1  0
 13 39  1  0
 14 40  1  0
 14 41  1  0
 16 42  1  0
 16 43  1  0
 17 44  1  0
 17 45  1  0
 19 46  1  0
 20 47  1  0
 21 48  1  0
 22 49  1  0
 23 50  1  0
 24 51  1  0
 24 52  1  0
 25 53  1  0
 25 54  1  0
 26 55  1  0
 27 56  1  0
M  CHG  1  10   1
M  END
>  <UniqueID>  (44) 
44

>  <SMILES>  (44) 
COc1ccc(N2CC[NH+](C(=O)CCSCCc3ccccc3)CC2)cc1

>  <Energy>  (44) 
63.70630930533485

>  <Genealogy>  (44) 
COc1ccc(N2CC[NH+](C(=O)CCSCCc3ccccc3)CC2)cc1 (protonated)
COc1ccc(N2CC[NH+](C(=O)CCSCCc3ccccc3)CC2)cc1 (3D coordinates assigned)
COc1ccc(N2CC[NH+](C(=O)CCSCCc3ccccc3)CC2)cc1 (nonaromatic ring conformer: 63.70630930533485 kcal/mol)

>  <smiles>  (44) 
COc1ccc(N2CCN(C(=O)CCSCCc3ccccc3)CC2)cc1

>  <score_type>  (44) 
oracle

>  <origin>  (44) 
adg

>  <m_score__min__energy>  (44) 
-7.1799999999999997

>  <m_primary>  (44) 
energy

$$$$
44:0
     RDKit          3D

 50 53  0  0  0  0  0  0  0  0999 V2000
   57.3220   25.6130   44.6510 C   0  0  0  0  0  0  0  0  0  0  0  0
   56.3950   26.5310   45.8660 S   0  0  0  0  0  0  0  0  0  0  0  0
   57.0820   26.4880   47.2020 O   0  0  0  0  0  0  0  0  0  0  0  0
   55.0360   25.9040   45.9990 O   0  0  0  0  0  0  0  0  0  0  0  0
   56.1970   28.1800   45.3570 N   0  0  0  0  0  0  0  0  0  0  0  0
   57.0950   29.2610   45.6450 C   0  0  0  0  0  0  0  0  0  0  0  0
   58.0950   29.1620   46.6160 C   0  0  0  0  0  0  0  0  0  0  0  0
   58.9750   30.2200   46.8260 C   0  0  0  0  0  0  0  0  0  0  0  0
   58.8870   31.4220   46.0830 C   0  0  0  0  0  0  0  0  0  0  0  0
   57.8320   31.5390   45.1330 C   0  0  0  0  0  0  0  0  0  0  0  0
   56.9630   30.4470   44.9230 C   0  0  0  0  0  0  0  0  0  0  0  0
   57.6210   32.7540   44.2720 C   0  0  0  0  0  0  0  0  0  0  0  0
   57.6460   34.0410   45.0910 C   0  0  0  0  0  0  0  0  0  0  0  0
   59.0600   34.5870   45.1680 C   0  0  0  0  0  0  0  0  0  0  0  0
   59.9440   33.7810   46.0110 N   0  0  0  0  0  0  0  0  0  0  0  0
   61.0960   34.2760   46.5030 C   0  0  0  0  0  0  0  0  0  0  0  0
   61.7650   33.2700   47.1520 C   0  0  0  0  0  0  0  0  0  0  0  0
   63.0600   33.3850   47.8410 C   0  0  0  0  0  0  0  0  0  0  0  0
   64.1060   33.5970   47.1680 O   0  0  0  0  0  0  0  0  0  0  0  0
   63.1360   33.2690   49.2710 N   0  0  0  0  0  0  0  0  0  0  0  0
   64.3990   33.3600   49.9970 C   0  0  0  0  0  0  0  0  0  0  0  0
   64.7500   32.0300   50.6060 C   0  0  0  0  0  0  0  0  0  0  0  0
   66.1030   31.6680   50.7770 C   0  0  0  0  0  0  0  0  0  0  0  0
   66.4340   30.4420   51.3620 C   0  0  0  0  0  0  0  0  0  0  0  0
   65.4210   29.5670   51.7750 C   0  0  0  0  0  0  0  0  0  0  0  0
   64.0780   29.9140   51.6020 C   0  0  0  0  0  0  0  0  0  0  0  0
   63.7380   31.1440   51.0210 C   0  0  0  0  0  0  0  0  0  0  0  0
   61.0520   32.1350   47.0630 N   0  0  0  0  0  0  0  0  0  0  0  0
   59.9440   32.4590   46.3510 C   0  0  0  0  0  0  0  0  0  0  0  0
   58.0149   24.9269   45.1601 H   0  0  0  0  0  0  0  0  0  0  0  0
   56.6296   25.0347   44.0216 H   0  0  0  0  0  0  0  0  0  0  0  0
   57.8935   26.3110   44.0216 H   0  0  0  0  0  0  0  0  0  0  0  0
   58.1871   28.2450   47.2165 H   0  0  0  0  0  0  0  0  0  0  0  0
   59.7600   30.1194   47.5899 H   0  0  0  0  0  0  0  0  0  0  0  0
   56.1632   30.5332   44.1727 H   0  0  0  0  0  0  0  0  0  0  0  0
   58.4190   32.7976   43.5162 H   0  0  0  0  0  0  0  0  0  0  0  0
   56.6317   32.6695   43.7986 H   0  0  0  0  0  0  0  0  0  0  0  0
   56.9939   34.7876   44.6142 H   0  0  0  0  0  0  0  0  0  0  0  0
   57.2891   33.8252   46.1089 H   0  0  0  0  0  0  0  0  0  0  0  0
   59.4788   34.6177   44.1513 H   0  0  0  0  0  0  0  0  0  0  0  0
   58.9998   35.5878   45.6205 H   0  0  0  0  0  0  0  0  0  0  0  0
   61.4427   35.3149   46.4011 H   0  0  0  0  0  0  0  0  0  0  0  0
   62.2590   33.1310   49.8220 H   0  0  0  0  0  0  0  0  0  0  0  0
   65.1960   33.6620   49.3016 H   0  0  0  0  0  0  0  0  0  0  0  0
   64.2964   34.1046   50.8001 H   0  0  0  0  0  0  0  0  0  0  0  0
   66.8995   32.3522   50.4492 H   0  0  0  0  0  0  0  0  0  0  0  0
   67.4897   30.1646   51.4979 H   0  0  0  0  0  0  0  0  0  0  0  0
   65.6832   28.6037   52.2369 H   0  0  0  0  0  0  0  0  0  0  0  0
   63.2863   29.2207   51.9223 H   0  0  0  0  0  0  0  0  0  0  0  0
   62.6804   31.4166   50.8895 H   0  0  0  0  0  0  0  0  0  0  0  0
  1  2  1  0
  2  3  2  0
  2  4  2  0
  2  5  1  0
  5  6  1  0
  6  7  2  0
  7  8  1  0
  8  9  2  0
  9 10  1  0
 10 11  2  0
 10 12  1  0
 12 13  1  0
 13 14  1  0
 14 15  1  0
 15 16  1  0
 16 17  2  0
 17 18  1  0
 18 19  2  0
 18 20  1  0
 20 21  1  0
 21 22  1  0
 22 23  2  0
 23 24  1  0
 24 25  2  0
 25 26  1  0
 26 27  2  0
 17 28  1  0
 28 29  2  0
 11  6  1  0
 29 15  1  0
 29  9  1  0
 27 22  1  0
  1 30  1  0
  1 31  1  0
  1 32  1  0
  7 33  1  0
  8 34  1  0
 11 35  1  0
 12 36  1  0
 12 37  1  0
 13 38  1  0
 13 39  1  0
 14 40  1  0
 14 41  1  0
 16 42  1  0
 20 43  1  0
 21 44  1  0
 21 45  1  0
 23 46  1  0
 24 47  1  0
 25 48  1  0
 26 49  1  0
 27 50  1  0
M  CHG  1   5  -1
M  END
>  <UniqueID>  (45) 
45

>  <SMILES>  (45) 
CS(=O)(=O)[N-]c1ccc2c(c1)CCCn1cc(C(=O)NCc3ccccc3)nc1-2

>  <Energy>  (45) 
90.53974362005451

>  <Genealogy>  (45) 
CS(=O)(=O)[N-]c1ccc2c(c1)CCCn1cc(C(=O)NCc3ccccc3)nc1-2 (protonated)
CS(=O)(=O)[N-]c1ccc2c(c1)CCCn1cc(C(=O)NCc3ccccc3)nc1-2 (3D coordinates assigned)
CS(=O)(=O)[N-]c1ccc2c(c1)CCCn1cc(C(=O)NCc3ccccc3)nc1-2 (nonaromatic ring conformer: 90.53974362005451 kcal/mol)

>  <smiles>  (45) 
CS(=O)(=O)Nc1ccc2c(c1)CCCn1cc(C(=O)NCc3ccccc3)nc1-2

>  <score_type>  (45) 
oracle

>  <origin>  (45) 
adg

>  <m_score__min__energy>  (45) 
-9.3900000000000006

>  <m_primary>  (45) 
energy

$$$$
45:0
     RDKit          3D

 34 36  0  0  1  0  0  0  0  0999 V2000
   59.7910   33.8170   47.8360 C   0  0  0  0  0  0  0  0  0  0  0  0
   60.4410   32.8210   46.9120 C   0  0  1  0  0  0  0  0  0  0  0  0
   61.9210   33.0490   46.7900 C   0  0  0  0  0  0  0  0  0  0  0  0
   62.6180   31.8930   47.4740 C   0  0  0  0  0  0  0  0  0  0  0  0
   61.4620   31.2280   48.1830 C   0  0  0  0  0  0  0  0  0  0  0  0
   60.2770   31.4480   47.4190 N   0  0  0  0  0  0  0  0  0  0  0  0
   60.1500   30.6250   46.2470 C   0  0  0  0  0  0  0  0  0  0  0  0
   58.8220   30.5430   45.6520 C   0  0  0  0  0  0  0  0  0  0  0  0
   58.2630   31.6090   44.9450 C   0  0  0  0  0  0  0  0  0  0  0  0
   57.0020   31.5250   44.3800 C   0  0  0  0  0  0  0  0  0  0  0  0
   56.2810   30.3710   44.5110 N   0  0  0  0  0  0  0  0  0  0  0  0
   56.7970   29.3180   45.1900 C   0  0  0  0  0  0  0  0  0  0  0  0
   56.0910   28.1790   45.3200 N   0  0  0  0  0  0  0  0  0  0  0  0
   56.5800   27.1200   45.9880 C   0  0  0  0  0  0  0  0  0  0  0  0
   55.9100   26.0460   46.1080 O   0  0  0  0  0  0  0  0  0  0  0  0
   57.7960   27.1270   46.5650 N   0  0  0  0  0  0  0  0  0  0  0  0
   58.5180   28.2680   46.4400 C   0  0  0  0  0  0  0  0  0  0  0  0
   58.0620   29.3740   45.7690 C   0  0  0  0  0  0  0  0  0  0  0  0
   59.9805   33.5266   48.8799 H   0  0  0  0  0  0  0  0  0  0  0  0
   60.2110   34.8168   47.6515 H   0  0  0  0  0  0  0  0  0  0  0  0
   58.7067   33.8350   47.6515 H   0  0  0  0  0  0  0  0  0  0  0  0
   59.9492   32.9536   45.9370 H   0  0  0  0  0  0  0  0  0  0  0  0
   62.2089   33.0863   45.7290 H   0  0  0  0  0  0  0  0  0  0  0  0
   62.2054   34.0035   47.2569 H   0  0  0  0  0  0  0  0  0  0  0  0
   63.0858   31.2160   46.7440 H   0  0  0  0  0  0  0  0  0  0  0  0
   63.4415   32.1931   48.1386 H   0  0  0  0  0  0  0  0  0  0  0  0
   61.6520   30.1481   48.2709 H   0  0  0  0  0  0  0  0  0  0  0  0
   61.3446   31.6504   49.1918 H   0  0  0  0  0  0  0  0  0  0  0  0
   60.8346   31.0227   45.4833 H   0  0  0  0  0  0  0  0  0  0  0  0
   60.3833   29.6034   46.5814 H   0  0  0  0  0  0  0  0  0  0  0  0
   58.8392   32.5394   44.8340 H   0  0  0  0  0  0  0  0  0  0  0  0
   56.5833   32.3805   43.8297 H   0  0  0  0  0  0  0  0  0  0  0  0
   55.1450   28.1380   44.8870 H   0  0  0  0  0  0  0  0  0  0  0  0
   59.5170   28.3085   46.8986 H   0  0  0  0  0  0  0  0  0  0  0  0
  1  2  1  0
  2  3  1  0
  3  4  1  0
  4  5  1  0
  5  6  1  0
  6  7  1  0
  7  8  1  0
  8  9  2  0
  9 10  1  0
 10 11  2  0
 11 12  1  0
 12 13  1  0
 13 14  1  0
 14 15  2  0
 14 16  1  0
 16 17  2  0
 17 18  1  0
  6  2  1  0
 18  8  1  0
 18 12  2  0
  1 19  1  0
  1 20  1  0
  1 21  1  0
  2 22  1  6
  3 23  1  0
  3 24  1  0
  4 25  1  0
  4 26  1  0
  5 27  1  0
  5 28  1  0
  7 29  1  0
  7 30  1  0
  9 31  1  0
 10 32  1  0
 13 33  1  0
 17 34  1  0
M  END
>  <smiles>  (46) 
CC1CCCN1Cc1ccnc2[nH]c(=O)ncc12

>  <score_type>  (46) 
oracle

>  <origin>  (46) 
adg

>  <m_score__min__energy>  (46) 
-7.25

>  <m_primary>  (46) 
energy

$$$$
46:0
     RDKit          3D

 59 61  0  0  0  0  0  0  0  0999 V2000
   55.4240   25.0230   45.6510 C   0  0  0  0  0  0  0  0  0  0  0  0
   55.4760   26.4090   45.9740 O   0  0  0  0  0  0  0  0  0  0  0  0
   56.6580   27.1590   46.0760 C   0  0  0  0  0  0  0  0  0  0  0  0
   57.8060   26.6610   46.7180 C   0  0  0  0  0  0  0  0  0  0  0  0
   58.9620   27.4370   46.7990 C   0  0  0  0  0  0  0  0  0  0  0  0
   58.9910   28.7350   46.2680 C   0  0  0  0  0  0  0  0  0  0  0  0
   60.2580   29.5690   46.3510 C   0  0  0  0  0  0  0  0  0  0  0  0
   60.3160   30.4920   47.5150 N   0  0  0  0  0  0  0  0  0  0  0  0
   61.1550   29.9540   48.6130 C   0  0  0  0  0  0  0  0  0  0  0  0
   61.0670   30.8560   49.8470 C   0  0  0  0  0  0  0  0  0  0  0  0
   59.6810   30.9240   50.3650 N   0  0  0  0  0  0  0  0  0  0  0  0
   59.4080   32.1020   51.2200 C   0  0  0  0  0  0  0  0  0  0  0  0
   60.0970   33.4050   50.7750 C   0  0  0  0  0  0  0  0  0  0  0  0
   60.1370   33.4940   49.3560 O   0  0  0  0  0  0  0  0  0  0  0  0
   61.2900   33.5600   48.5570 C   0  0  0  0  0  0  0  0  0  0  0  0
   62.5080   33.7490   49.2260 C   0  0  0  0  0  0  0  0  0  0  0  0
   63.7090   33.8090   48.5210 C   0  0  0  0  0  0  0  0  0  0  0  0
   63.7060   33.6930   47.1310 C   0  0  0  0  0  0  0  0  0  0  0  0
   62.5030   33.5180   46.4450 C   0  0  0  0  0  0  0  0  0  0  0  0
   61.2790   33.4510   47.1430 C   0  0  0  0  0  0  0  0  0  0  0  0
   60.0620   33.2910   46.4610 O   0  0  0  0  0  0  0  0  0  0  0  0
   59.2110   34.3560   46.0560 C   0  0  0  0  0  0  0  0  0  0  0  0
   58.6190   30.5610   49.3990 C   0  0  0  0  0  0  0  0  0  0  0  0
   58.9770   30.9780   47.9580 C   0  0  0  0  0  0  0  0  0  0  0  0
   57.8540   29.2220   45.6010 C   0  0  0  0  0  0  0  0  0  0  0  0
   56.6830   28.4430   45.5110 C   0  0  0  0  0  0  0  0  0  0  0  0
   55.5250   28.9100   44.8690 O   0  0  0  0  0  0  0  0  0  0  0  0
   55.5210   29.7200   43.6960 C   0  0  0  0  0  0  0  0  0  0  0  0
   55.4018   24.4311   46.5779 H   0  0  0  0  0  0  0  0  0  0  0  0
   54.5175   24.8173   45.0628 H   0  0  0  0  0  0  0  0  0  0  0  0
   56.3125   24.7500   45.0628 H   0  0  0  0  0  0  0  0  0  0  0  0
   57.7920   25.6533   47.1589 H   0  0  0  0  0  0  0  0  0  0  0  0
   59.8601   27.0270   47.2842 H   0  0  0  0  0  0  0  0  0  0  0  0
   61.1163   28.8839   46.4133 H   0  0  0  0  0  0  0  0  0  0  0  0
   60.2749   30.2009   45.4508 H   0  0  0  0  0  0  0  0  0  0  0  0
   60.8300   31.3360   47.1600 H   0  0  0  0  0  0  0  0  0  0  0  0
   60.8035   28.9454   48.8761 H   0  0  0  0  0  0  0  0  0  0  0  0
   62.2010   29.9151   48.2749 H   0  0  0  0  0  0  0  0  0  0  0  0
   61.7240   30.4541   50.6324 H   0  0  0  0  0  0  0  0  0  0  0  0
   61.3807   31.8703   49.5593 H   0  0  0  0  0  0  0  0  0  0  0  0
   58.3217   32.2753   51.2249 H   0  0  0  0  0  0  0  0  0  0  0  0
   59.8175   31.8621   52.2124 H   0  0  0  0  0  0  0  0  0  0  0  0
   59.5379   34.2638   51.1749 H   0  0  0  0  0  0  0  0  0  0  0  0
   61.1280   33.4084   51.1585 H   0  0  0  0  0  0  0  0  0  0  0  0
   62.5157   33.8512   50.3212 H   0  0  0  0  0  0  0  0  0  0  0  0
   64.6578   33.9476   49.0601 H   0  0  0  0  0  0  0  0  0  0  0  0
   64.6536   33.7395   46.5743 H   0  0  0  0  0  0  0  0  0  0  0  0
   62.5095   33.4314   45.3484 H   0  0  0  0  0  0  0  0  0  0  0  0
   58.8072   34.8613   46.9457 H   0  0  0  0  0  0  0  0  0  0  0  0
   59.7854   35.0759   45.4545 H   0  0  0  0  0  0  0  0  0  0  0  0
   58.3821   33.9546   45.4545 H   0  0  0  0  0  0  0  0  0  0  0  0
   58.4721   29.4712   49.4266 H   0  0  0  0  0  0  0  0  0  0  0  0
   57.7019   31.0953   49.6879 H   0  0  0  0  0  0  0  0  0  0  0  0
   58.2153   30.5695   47.2776 H   0  0  0  0  0  0  0  0  0  0  0  0
   59.0076   32.0774   47.9366 H   0  0  0  0  0  0  0  0  0  0  0  0
   57.8783   30.2223   45.1441 H   0  0  0  0  0  0  0  0  0  0  0  0
   55.5158   30.7817   43.9836 H   0  0  0  0  0  0  0  0  0  0  0  0
   56.4202   29.5061   43.0996 H   0  0  0  0  0  0  0  0  0  0  0  0
   54.6239   29.4972   43.0996 H   0  0  0  0  0  0  0  0  0  0  0  0
  1  2  1  0
  2  3  1  0
  3  4  2  0
  4  5  1  0
  5  6  2  0
  6  7  1  0
  7  8  1  0
  8  9  1  0
  9 10  1  0
 10 11  1  0
 11 12  1  0
 12 13  1  0
 13 14  1  0
 14 15  1  0
 15 16  2  0
 16 17  1  0
 17 18  2  0
 18 19  1  0
 19 20  2  0
 20 21  1  0
 21 22  1  0
 11 23  1  0
 23 24  1  0
  6 25  1  0
 25 26  2  0
 26 27  1  0
 27 28  1  0
 26  3  1  0
 24  8  1  0
 20 15  1  0
  1 29  1  0
  1 30  1  0
  1 31  1  0
  4 32  1  0
  5 33  1  0
  7 34  1  0
  7 35  1  0
  8 36  1  0
  9 37  1  0
  9 38  1  0
 10 39  1  0
 10 40  1  0
 12 41  1  0
 12 42  1  0
 13 43  1  0
 13 44  1  0
 16 45  1  0
 17 46  1  0
 18 47  1  0
 19 48  1  0
 22 49  1  0
 22 50  1  0
 22 51  1  0
 23 52  1  0
 23 53  1  0
 24 54  1  0
 24 55  1  0
 25 56  1  0
 28 57  1  0
 28 58  1  0
 28 59  1  0
M  CHG  1   8   1
M  END
>  <UniqueID>  (47) 
46

>  <SMILES>  (47) 
COc1ccc(C[NH+]2CCN(CCOc3ccccc3OC)CC2)cc1OC

>  <Energy>  (47) 
79.38610558876566

>  <Genealogy>  (47) 
COc1ccc(C[NH+]2CCN(CCOc3ccccc3OC)CC2)cc1OC (protonated)
COc1ccc(C[NH+]2CCN(CCOc3ccccc3OC)CC2)cc1OC (3D coordinates assigned)
COc1ccc(C[NH+]2CCN(CCOc3ccccc3OC)CC2)cc1OC (nonaromatic ring conformer: 79.38610558876566 kcal/mol)

>  <smiles>  (47) 
COc1ccc(CN2CCN(CCOc3ccccc3OC)CC2)cc1OC

>  <score_type>  (47) 
oracle

>  <origin>  (47) 
adg

>  <m_score__min__energy>  (47) 
-6.6900000000000004

>  <m_primary>  (47) 
energy

$$$$
47:0
     RDKit          3D

 31 33  0  0  0  0  0  0  0  0999 V2000
   61.9210   33.8290   46.7360 C   0  0  0  0  0  0  0  0  0  0  0  0
   60.5990   34.3020   46.4980 O   0  0  0  0  0  0  0  0  0  0  0  0
   59.5460   33.5070   46.0210 C   0  0  0  0  0  0  0  0  0  0  0  0
   58.4330   34.1460   45.4580 C   0  0  0  0  0  0  0  0  0  0  0  0
   57.3560   33.4030   44.9670 C   0  0  0  0  0  0  0  0  0  0  0  0
   57.3800   32.0070   45.0340 C   0  0  0  0  0  0  0  0  0  0  0  0
   56.3520   31.3040   44.5670 O   0  0  0  0  0  0  0  0  0  0  0  0
   56.3140   29.9750   44.6000 C   0  0  0  0  0  0  0  0  0  0  0  0
   55.2920   29.3840   44.1600 O   0  0  0  0  0  0  0  0  0  0  0  0
   57.3930   29.2410   45.1380 C   0  0  0  0  0  0  0  0  0  0  0  0
   57.3910   27.7570   45.1820 C   0  0  0  0  0  0  0  0  0  0  0  0
   57.7700   27.0060   44.0540 C   0  0  0  0  0  0  0  0  0  0  0  0
   57.7760   25.6090   44.1040 C   0  0  0  0  0  0  0  0  0  0  0  0
   57.4080   24.9480   45.2790 C   0  0  0  0  0  0  0  0  0  0  0  0
   57.0360   25.6840   46.4070 C   0  0  0  0  0  0  0  0  0  0  0  0
   57.0300   27.0820   46.3620 C   0  0  0  0  0  0  0  0  0  0  0  0
   58.4880   29.9550   45.6480 C   0  0  0  0  0  0  0  0  0  0  0  0
   58.4920   31.3510   45.5980 C   0  0  0  0  0  0  0  0  0  0  0  0
   59.5730   32.1000   46.0890 C   0  0  0  0  0  0  0  0  0  0  0  0
   62.0982   33.7656   47.8198 H   0  0  0  0  0  0  0  0  0  0  0  0
   62.0404   32.8324   46.2860 H   0  0  0  0  0  0  0  0  0  0  0  0
   62.6455   34.5237   46.2860 H   0  0  0  0  0  0  0  0  0  0  0  0
   58.4068   35.2443   45.4020 H   0  0  0  0  0  0  0  0  0  0  0  0
   56.4886   33.9172   44.5274 H   0  0  0  0  0  0  0  0  0  0  0  0
   58.0633   27.5212   43.1274 H   0  0  0  0  0  0  0  0  0  0  0  0
   58.0709   25.0291   43.2170 H   0  0  0  0  0  0  0  0  0  0  0  0
   57.4112   23.8486   45.3159 H   0  0  0  0  0  0  0  0  0  0  0  0
   56.7474   25.1631   47.3319 H   0  0  0  0  0  0  0  0  0  0  0  0
   56.7414   27.6567   47.2544 H   0  0  0  0  0  0  0  0  0  0  0  0
   59.3413   29.4167   46.0862 H   0  0  0  0  0  0  0  0  0  0  0  0
   60.4422   31.5878   46.5274 H   0  0  0  0  0  0  0  0  0  0  0  0
  1  2  1  0
  2  3  1  0
  3  4  2  0
  4  5  1  0
  5  6  2  0
  6  7  1  0
  7  8  1  0
  8  9  2  0
  8 10  1  0
 10 11  1  0
 11 12  2  0
 12 13  1  0
 13 14  2  0
 14 15  1  0
 15 16  2  0
 10 17  2  0
 17 18  1  0
 18 19  2  0
 19  3  1  0
 18  6  1  0
 16 11  1  0
  1 20  1  0
  1 21  1  0
  1 22  1  0
  4 23  1  0
  5 24  1  0
 12 25  1  0
 13 26  1  0
 14 27  1  0
 15 28  1  0
 16 29  1  0
 17 30  1  0
 19 31  1  0
M  END
>  <UniqueID>  (48) 
47

>  <SMILES>  (48) 
COc1ccc2oc(=O)c(-c3ccccc3)cc2c1

>  <Energy>  (48) 
43.934212239510316

>  <Genealogy>  (48) 
COc1ccc2oc(=O)c(-c3ccccc3)cc2c1 (3D coordinates assigned)
COc1ccc2oc(=O)c(-c3ccccc3)cc2c1 (optimized conformer: 43.934212239510316 kcal/mol)

>  <smiles>  (48) 
COc1ccc2oc(=O)c(-c3ccccc3)cc2c1

>  <score_type>  (48) 
oracle

>  <origin>  (48) 
adg

>  <m_score__min__energy>  (48) 
-6.9000000000000004

>  <m_primary>  (48) 
energy

$$$$
