0:0
     RDKit          3D

 45 46  0  0  0  0  0  0  0  0999 V2000
   63.3900   33.8360   46.3670 C   0  0  0  0  0  0  0  0  0  0  0  0
   62.8130   32.7430   47.2740 C   0  0  0  0  0  0  0  0  0  0  0  0
   61.5570   33.1600   47.9440 N   0  0  0  0  0  0  0  0  0  0  0  0
   61.6430   32.9940   49.4150 C   0  0  0  0  0  0  0  0  0  0  0  0
   60.5650   33.7970   50.1520 C   0  0  0  0  0  0  0  0  0  0  0  0
   60.4520   32.3790   47.4110 C   0  0  0  0  0  0  0  0  0  0  0  0
   60.6250   31.2040   47.1070 O   0  0  0  0  0  0  0  0  0  0  0  0
   59.1060   33.0230   47.1560 C   0  0  1  0  0  0  0  0  0  0  0  0
   59.3180   34.3520   46.4800 C   0  0  0  0  0  0  0  0  0  0  0  0
   59.5900   35.3380   47.1480 O   0  0  0  0  0  0  0  0  0  0  0  0
   59.2730   34.4520   44.9850 C   0  0  0  0  0  0  0  0  0  0  0  0
   58.0020   33.7830   44.4740 C   0  0  0  0  0  0  0  0  0  0  0  0
   57.9120   32.4010   44.9600 N   0  0  0  0  0  0  0  0  0  0  0  0
   57.3540   31.3600   44.0880 C   0  0  0  0  0  0  0  0  0  0  0  0
   57.8890   30.0070   44.4740 C   0  0  0  0  0  0  0  0  0  0  0  0
   57.0110   28.9460   44.7560 C   0  0  0  0  0  0  0  0  0  0  0  0
   57.5150   27.6850   45.0880 C   0  0  0  0  0  0  0  0  0  0  0  0
   58.8950   27.4720   45.1370 C   0  0  0  0  0  0  0  0  0  0  0  0
   59.7740   28.5200   44.8530 C   0  0  0  0  0  0  0  0  0  0  0  0
   59.2750   29.7830   44.5200 C   0  0  0  0  0  0  0  0  0  0  0  0
   58.2160   32.1110   46.3420 C   0  0  0  0  0  0  0  0  0  0  0  0
   57.7760   31.0570   46.8770 O   0  0  0  0  0  0  0  0  0  0  0  0
   63.8144   34.6400   46.9862 H   0  0  0  0  0  0  0  0  0  0  0  0
   64.1790   33.4068   45.7320 H   0  0  0  0  0  0  0  0  0  0  0  0
   62.5905   34.2454   45.7320 H   0  0  0  0  0  0  0  0  0  0  0  0
   62.6071   31.8514   46.6636 H   0  0  0  0  0  0  0  0  0  0  0  0
   63.5555   32.5358   48.0587 H   0  0  0  0  0  0  0  0  0  0  0  0
   61.3920   34.1730   47.7310 H   0  0  0  0  0  0  0  0  0  0  0  0
   61.5201   31.9285   49.6591 H   0  0  0  0  0  0  0  0  0  0  0  0
   62.6248   33.3684   49.7404 H   0  0  0  0  0  0  0  0  0  0  0  0
   60.7070   33.6912   51.2377 H   0  0  0  0  0  0  0  0  0  0  0  0
   60.6438   34.8583   49.8736 H   0  0  0  0  0  0  0  0  0  0  0  0
   59.5707   33.4177   49.8736 H   0  0  0  0  0  0  0  0  0  0  0  0
   58.5904   33.1937   48.1125 H   0  0  0  0  0  0  0  0  0  0  0  0
   59.2763   35.5109   44.6872 H   0  0  0  0  0  0  0  0  0  0  0  0
   60.1524   33.9500   44.5552 H   0  0  0  0  0  0  0  0  0  0  0  0
   57.1281   34.3485   44.8297 H   0  0  0  0  0  0  0  0  0  0  0  0
   58.0265   33.7704   43.3743 H   0  0  0  0  0  0  0  0  0  0  0  0
   56.2582   31.3568   44.1835 H   0  0  0  0  0  0  0  0  0  0  0  0
   57.6432   31.5738   43.0485 H   0  0  0  0  0  0  0  0  0  0  0  0
   55.9238   29.1085   44.7153 H   0  0  0  0  0  0  0  0  0  0  0  0
   56.8238   26.8589   45.3111 H   0  0  0  0  0  0  0  0  0  0  0  0
   59.2893   26.4791   45.3992 H   0  0  0  0  0  0  0  0  0  0  0  0
   60.8603   28.3513   44.8914 H   0  0  0  0  0  0  0  0  0  0  0  0
   59.9705   30.6045   44.2932 H   0  0  0  0  0  0  0  0  0  0  0  0
  1  2  1  0
  2  3  1  0
  3  4  1  0
  4  5  1  0
  3  6  1  0
  6  7  2  0
  6  8  1  0
  8  9  1  0
  9 10  2  0
  9 11  1  0
 11 12  1  0
 12 13  1  0
 13 14  1  0
 14 15  1  0
 15 16  2  0
 16 17  1  0
 17 18  2  0
 18 19  1  0
 19 20  2  0
 13 21  1  0
 21 22  2  0
 21  8  1  0
 20 15  1  0
  1 23  1  0
  1 24  1  0
  1 25  1  0
  2 26  1  0
  2 27  1  0
  3 28  1  0
  4 29  1  0
  4 30  1  0
  5 31  1  0
  5 32  1  0
  5 33  1  0
  8 34  1  1
 11 35  1  0
 11 36  1  0
 12 37  1  0
 12 38  1  0
 14 39  1  0
 14 40  1  0
 16 41  1  0
 17 42  1  0
 18 43  1  0
 19 44  1  0
 20 45  1  0
M  CHG  1   3   1
M  END
>  <UniqueID>  (1) 
1

>  <SMILES>  (1) 
CC[NH+](CC)C(=O)[C@H]1C(=O)CCN(Cc2ccccc2)C1=O

>  <Energy>  (1) 
40.016217690411025

>  <Genealogy>  (1) 
CC[NH+](CC)C(=O)C1C(=O)CCN(Cc2ccccc2)C1=O (protonated)
CC[NH+](CC)C(=O)[C@H]1C(=O)CCN(Cc2ccccc2)C1=O (chirality)
CC[NH+](CC)C(=O)[C@H]1C(=O)CCN(Cc2ccccc2)C1=O (3D coordinates assigned)
CC[NH+](CC)C(=O)[C@H]1C(=O)CCN(Cc2ccccc2)C1=O (nonaromatic ring conformer: 40.016217690411025 kcal/mol)

>  <smiles>  (1) 
CCN(CC)C(=O)C1C(=O)CCN(Cc2ccccc2)C1=O

>  <score_type>  (1) 
oracle

>  <origin>  (1) 
adg

>  <m_score__min__energy>  (1) 
-6.0899999999999999

>  <m_primary>  (1) 
energy

$$$$
1:0
     RDKit          3D

 43 46  0  0  0  0  0  0  0  0999 V2000
   63.8317   35.0417   47.3935 H   0  0  0  0  0  0  0  0  0  0  0  0
   63.2870   34.1010   47.5620 C   0  0  0  0  0  0  0  0  0  0  0  0
   63.8000   33.1450   48.4620 C   0  0  0  0  0  0  0  0  0  0  0  0
   64.7438   33.3438   48.9909 H   0  0  0  0  0  0  0  0  0  0  0  0
   63.1140   31.9400   48.6880 C   0  0  0  0  0  0  0  0  0  0  0  0
   63.5090   31.1917   49.3909 H   0  0  0  0  0  0  0  0  0  0  0  0
   61.9200   31.7130   48.0010 C   0  0  0  0  0  0  0  0  0  0  0  0
   61.4230   32.6530   47.1170 C   0  0  0  0  0  0  0  0  0  0  0  0
   62.0830   33.8580   46.8790 C   0  0  0  0  0  0  0  0  0  0  0  0
   61.6726   34.5980   46.1761 H   0  0  0  0  0  0  0  0  0  0  0  0
   60.1790   32.1510   46.5780 C   0  0  0  0  0  0  0  0  0  0  0  0
   59.2910   32.7370   45.6750 C   0  0  0  0  0  0  0  0  0  0  0  0
   59.5025   33.7216   45.2324 H   0  0  0  0  0  0  0  0  0  0  0  0
   58.1200   32.0350   45.3470 C   0  0  0  0  0  0  0  0  0  0  0  0
   57.4100   32.4640   44.6245 H   0  0  0  0  0  0  0  0  0  0  0  0
   57.8480   30.7830   45.9380 C   0  0  0  0  0  0  0  0  0  0  0  0
   56.6430   30.0900   45.6090 N   0  0  0  0  0  0  0  0  0  0  0  0
   56.3950   29.4870   44.3350 C   0  0  0  0  0  0  0  0  0  0  0  0
   55.2810   29.6760   43.7780 O   0  0  0  0  0  0  0  0  0  0  0  0
   57.4050   28.5850   43.6700 C   0  0  0  0  0  0  0  0  0  0  0  0
   57.9446   29.1595   42.9026 H   0  0  0  0  0  0  0  0  0  0  0  0
   56.8644   27.7379   43.2227 H   0  0  0  0  0  0  0  0  0  0  0  0
   58.3820   28.0460   44.6390 N   0  0  0  0  0  0  0  0  0  0  0  0
   59.6960   28.4070   44.4880 C   0  0  0  0  0  0  0  0  0  0  0  0
   59.9803   29.0837   43.6687 H   0  0  0  0  0  0  0  0  0  0  0  0
   60.6770   27.9310   45.3550 C   0  0  0  0  0  0  0  0  0  0  0  0
   61.7249   28.2417   45.2310 H   0  0  0  0  0  0  0  0  0  0  0  0
   60.3210   27.0610   46.3770 C   0  0  0  0  0  0  0  0  0  0  0  0
   61.0859   26.6836   47.0716 H   0  0  0  0  0  0  0  0  0  0  0  0
   58.9940   26.6680   46.5200 C   0  0  0  0  0  0  0  0  0  0  0  0
   58.7100   25.9711   47.3223 H   0  0  0  0  0  0  0  0  0  0  0  0
   58.0120   27.1640   45.6350 C   0  0  0  0  0  0  0  0  0  0  0  0
   56.7590   26.8110   45.7590 N   0  0  0  0  0  0  0  0  0  0  0  0
   56.2370   25.4480   45.8090 C   0  0  0  0  0  0  0  0  0  0  0  0
   56.1186   25.1389   46.8580 H   0  0  0  0  0  0  0  0  0  0  0  0
   55.2609   25.4104   45.3033 H   0  0  0  0  0  0  0  0  0  0  0  0
   56.9383   24.7680   45.3033 H   0  0  0  0  0  0  0  0  0  0  0  0
   58.7730   30.2050   46.8290 C   0  0  0  0  0  0  0  0  0  0  0  0
   58.5841   29.2153   47.2704 H   0  0  0  0  0  0  0  0  0  0  0  0
   59.9330   30.9130   47.1400 C   0  0  0  0  0  0  0  0  0  0  0  0
   61.0210   30.5130   48.0940 C   0  0  0  0  0  0  0  0  0  0  0  0
   60.6352   30.3725   49.1145 H   0  0  0  0  0  0  0  0  0  0  0  0
   61.5083   29.5553   47.8587 H   0  0  0  0  0  0  0  0  0  0  0  0
  1  2  1  0
  2  3  2  0
  3  4  1  0
  3  5  1  0
  5  6  1  0
  5  7  2  0
  7  8  1  0
  8  9  2  0
  9 10  1  0
  8 11  1  0
 11 12  2  0
 12 13  1  0
 12 14  1  0
 14 15  1  0
 14 16  2  0
 16 17  1  0
 17 18  1  0
 18 19  2  0
 18 20  1  0
 20 21  1  0
 20 22  1  0
 20 23  1  0
 23 24  1  0
 24 25  1  0
 24 26  2  0
 26 27  1  0
 26 28  1  0
 28 29  1  0
 28 30  2  0
 30 31  1  0
 30 32  1  0
 32 33  2  0
 33 34  1  0
 34 35  1  0
 34 36  1  0
 34 37  1  0
 16 38  1  0
 38 39  1  0
 38 40  2  0
 40 41  1  0
 41 42  1  0
 41 43  1  0
  9  2  1  0
 40 11  1  0
 41  7  1  0
 32 23  1  0
M  CHG  1  17  -1
M  END
>  <UniqueID>  (2) 
2

>  <SMILES>  (2) 
C/N=c1\ccccn1CC(=O)[N-]c1ccc2c(c1)Cc1ccccc1-2

>  <Energy>  (2) 
76.58093527318792

>  <Genealogy>  (2) 
CN=c1ccccn1CC(=O)[N-]c1ccc2c(c1)Cc1ccccc1-2 (protonated)
C/N=c1\ccccn1CC(=O)[N-]c1ccc2c(c1)Cc1ccccc1-2 (cis-trans isomerization)
C/N=c1\ccccn1CC(=O)[N-]c1ccc2c(c1)Cc1ccccc1-2 (3D coordinates assigned)
C/N=c1\ccccn1CC(=O)[N-]c1ccc2c(c1)Cc1ccccc1-2 (nonaromatic ring conformer: 76.58093527318792 kcal/mol)

>  <smiles>  (2) 
CN=c1ccccn1CC(=O)Nc1ccc2c(c1)Cc1ccccc1-2

>  <score_type>  (2) 
oracle

>  <origin>  (2) 
adg

>  <m_score__min__energy>  (2) 
-10.050000000000001

>  <m_primary>  (2) 
energy

$$$$
2:0
     RDKit          3D

 45 47  0  0  0  0  0  0  0  0999 V2000
   59.0134   34.0967   43.7785 H   0  0  0  0  0  0  0  0  0  0  0  0
   58.1860   33.4380   44.0810 C   0  0  0  0  0  0  0  0  0  0  0  0
   57.6060   33.6700   45.2240 N   0  0  0  0  0  0  0  0  0  0  0  0
   58.1330   33.3510   46.5180 C   0  0  0  0  0  0  0  0  0  0  0  0
   57.3370   33.2750   47.4910 O   0  0  0  0  0  0  0  0  0  0  0  0
   59.5700   33.0660   46.7340 C   0  0  0  0  0  0  0  0  0  0  0  0
   59.9330   31.8130   46.7830 N   0  0  0  0  0  0  0  0  0  0  0  0
   60.2890   31.0330   47.9350 C   0  0  0  0  0  0  0  0  0  0  0  0
   61.3250   30.3160   47.9380 O   0  0  0  0  0  0  0  0  0  0  0  0
   59.4730   31.1280   49.1510 C   0  0  0  0  0  0  0  0  0  0  0  0
   59.0960   32.5530   49.9630 S   0  0  0  0  0  0  0  0  0  0  0  0
   58.1570   31.8390   51.1610 C   0  0  0  0  0  0  0  0  0  0  0  0
   57.6519   32.3668   51.9834 H   0  0  0  0  0  0  0  0  0  0  0  0
   58.1280   30.4690   50.9350 C   0  0  0  0  0  0  0  0  0  0  0  0
   57.5802   29.7644   51.5781 H   0  0  0  0  0  0  0  0  0  0  0  0
   58.8620   30.0690   49.8110 C   0  0  0  0  0  0  0  0  0  0  0  0
   58.9462   29.0221   49.4839 H   0  0  0  0  0  0  0  0  0  0  0  0
   60.5740   34.2050   46.7230 C   0  0  0  0  0  0  0  0  0  0  0  0
   60.8277   34.4500   45.6811 H   0  0  0  0  0  0  0  0  0  0  0  0
   60.1226   35.0729   47.2259 H   0  0  0  0  0  0  0  0  0  0  0  0
   61.8330   33.8270   47.4600 C   0  0  0  0  0  0  0  0  0  0  0  0
   61.9420   34.0440   48.8420 C   0  0  0  0  0  0  0  0  0  0  0  0
   61.1066   34.4995   49.3939 H   0  0  0  0  0  0  0  0  0  0  0  0
   63.1080   33.6830   49.5170 C   0  0  0  0  0  0  0  0  0  0  0  0
   63.1997   33.8588   50.5990 H   0  0  0  0  0  0  0  0  0  0  0  0
   64.1570   33.0970   48.8080 C   0  0  0  0  0  0  0  0  0  0  0  0
   65.0825   32.8132   49.3304 H   0  0  0  0  0  0  0  0  0  0  0  0
   64.0360   32.8760   47.4690 N   0  0  0  0  0  0  0  0  0  0  0  0
   64.8270   32.4310   46.9530 H   0  0  0  0  0  0  0  0  0  0  0  0
   62.9080   33.2200   46.7900 C   0  0  0  0  0  0  0  0  0  0  0  0
   62.8376   33.0216   45.7103 H   0  0  0  0  0  0  0  0  0  0  0  0
   57.7920   32.3210   43.1470 C   0  0  0  0  0  0  0  0  0  0  0  0
   56.8787   32.6131   42.6079 H   0  0  0  0  0  0  0  0  0  0  0  0
   58.6250   32.1488   42.4495 H   0  0  0  0  0  0  0  0  0  0  0  0
   57.5300   31.0360   43.8900 C   0  0  0  0  0  0  0  0  0  0  0  0
   58.5860   30.3390   44.5020 C   0  0  0  0  0  0  0  0  0  0  0  0
   59.6125   30.7284   44.4333 H   0  0  0  0  0  0  0  0  0  0  0  0
   58.3360   29.1520   45.1980 C   0  0  0  0  0  0  0  0  0  0  0  0
   59.1670   28.6068   45.6694 H   0  0  0  0  0  0  0  0  0  0  0  0
   57.0330   28.6570   45.2960 C   0  0  0  0  0  0  0  0  0  0  0  0
   56.8393   27.7220   45.8422 H   0  0  0  0  0  0  0  0  0  0  0  0
   55.9760   29.3500   44.7000 C   0  0  0  0  0  0  0  0  0  0  0  0
   54.9499   28.9617   44.7802 H   0  0  0  0  0  0  0  0  0  0  0  0
   56.2210   30.5360   44.0020 C   0  0  0  0  0  0  0  0  0  0  0  0
   55.3855   31.0807   43.5381 H   0  0  0  0  0  0  0  0  0  0  0  0
  1  2  1  0
  2  3  2  0
  3  4  1  0
  4  5  2  0
  4  6  1  0
  6  7  2  0
  7  8  1  0
  8  9  2  0
  8 10  1  0
 10 11  1  0
 11 12  1  0
 12 13  1  0
 12 14  2  0
 14 15  1  0
 14 16  1  0
 16 17  1  0
  6 18  1  0
 18 19  1  0
 18 20  1  0
 18 21  1  0
 21 22  2  0
 22 23  1  0
 22 24  1  0
 24 25  1  0
 24 26  2  0
 26 27  1  0
 26 28  1  0
 28 29  1  0
 28 30  2  0
 30 31  1  0
  2 32  1  0
 32 33  1  0
 32 34  1  0
 32 35  1  0
 35 36  2  0
 36 37  1  0
 36 38  1  0
 38 39  1  0
 38 40  2  0
 40 41  1  0
 40 42  1  0
 42 43  1  0
 42 44  2  0
 44 45  1  0
 16 10  2  0
 30 21  1  0
 44 35  1  0
M  CHG  1  28   1
M  END
>  <UniqueID>  (3) 
3

>  <SMILES>  (3) 
O=C(/N=C\Cc1ccccc1)/C(Cc1ccc[nH+]c1)=N/C(=O)c1cccs1

>  <Energy>  (3) 
82.24876367610291

>  <Genealogy>  (3) 
O=C(N=CCc1ccccc1)C(Cc1ccc[nH+]c1)=NC(=O)c1cccs1 (protonated)
O=C(/N=C\Cc1ccccc1)/C(Cc1ccc[nH+]c1)=N/C(=O)c1cccs1 (cis-trans isomerization)
O=C(/N=C\Cc1ccccc1)/C(Cc1ccc[nH+]c1)=N/C(=O)c1cccs1 (3D coordinates assigned)
O=C(/N=C\Cc1ccccc1)/C(Cc1ccc[nH+]c1)=N/C(=O)c1cccs1 (optimized conformer: 82.24876367610291 kcal/mol)

>  <smiles>  (3) 
O=C(N=CCc1ccccc1)C(Cc1cccnc1)=NC(=O)c1cccs1

>  <score_type>  (3) 
oracle

>  <origin>  (3) 
adg

>  <m_score__min__energy>  (3) 
-6.9900000000000002

>  <m_primary>  (3) 
energy

$$$$
3:0
     RDKit          3D

 27 29  0  0  0  0  0  0  0  0999 V2000
   59.6430   35.7110   46.7910 O   0  0  0  0  0  0  0  0  0  0  0  0
   60.0260   34.5380   46.5370 C   0  0  0  0  0  0  0  0  0  0  0  0
   61.2660   34.0390   47.1730 C   0  0  0  0  0  0  0  0  0  0  0  0
   62.4050   33.8410   46.3730 C   0  0  0  0  0  0  0  0  0  0  0  0
   63.5990   33.3870   46.9390 C   0  0  0  0  0  0  0  0  0  0  0  0
   63.6650   33.1140   48.3070 C   0  0  0  0  0  0  0  0  0  0  0  0
   62.5350   33.2860   49.1090 C   0  0  0  0  0  0  0  0  0  0  0  0
   61.3340   33.7410   48.5540 C   0  0  0  0  0  0  0  0  0  0  0  0
   59.9240   33.8490   49.6050 Cl  0  0  0  0  0  0  0  0  0  0  0  0
   59.1880   33.6610   45.6860 C   0  0  0  0  0  0  0  0  0  0  0  0
   58.6070   34.1140   44.4960 C   0  0  0  0  0  0  0  0  0  0  0  0
   57.7670   32.8450   43.7690 S   0  0  0  0  0  0  0  0  0  0  0  0
   58.1240   31.7100   44.9530 C   0  0  0  0  0  0  0  0  0  0  0  0
   57.7250   30.3740   45.0200 C   0  0  0  0  0  0  0  0  0  0  0  0
   56.7380   29.6460   43.7610 Cl  0  0  0  0  0  0  0  0  0  0  0  0
   58.1280   29.6150   46.1280 C   0  0  0  0  0  0  0  0  0  0  0  0
   58.9060   30.1990   47.1430 C   0  0  0  0  0  0  0  0  0  0  0  0
   59.2960   31.5460   47.0580 C   0  0  0  0  0  0  0  0  0  0  0  0
   58.9070   32.3010   45.9410 C   0  0  0  0  0  0  0  0  0  0  0  0
   62.3558   34.0451   45.2932 H   0  0  0  0  0  0  0  0  0  0  0  0
   64.4877   33.2445   46.3066 H   0  0  0  0  0  0  0  0  0  0  0  0
   64.6075   32.7634   48.7529 H   0  0  0  0  0  0  0  0  0  0  0  0
   62.5894   33.0622   50.1846 H   0  0  0  0  0  0  0  0  0  0  0  0
   58.6858   35.1363   44.0977 H   0  0  0  0  0  0  0  0  0  0  0  0
   57.8340   28.5577   46.2034 H   0  0  0  0  0  0  0  0  0  0  0  0
   59.2119   29.5963   48.0109 H   0  0  0  0  0  0  0  0  0  0  0  0
   59.8986   32.0029   47.8568 H   0  0  0  0  0  0  0  0  0  0  0  0
  1  2  2  0
  2  3  1  0
  3  4  2  0
  4  5  1  0
  5  6  2  0
  6  7  1  0
  7  8  2  0
  8  9  1  0
  2 10  1  0
 10 11  2  0
 11 12  1  0
 12 13  1  0
 13 14  2  0
 14 15  1  0
 14 16  1  0
 16 17  2  0
 17 18  1  0
 18 19  2  0
  8  3  1  0
 19 10  1  0
 19 13  1  0
  4 20  1  0
  5 21  1  0
  6 22  1  0
  7 23  1  0
 11 24  1  0
 16 25  1  0
 17 26  1  0
 18 27  1  0
M  END
>  <UniqueID>  (4) 
4

>  <SMILES>  (4) 
O=C(c1ccccc1Cl)c1csc2c(Cl)cccc12

>  <Energy>  (4) 
70.39284552094718

>  <Genealogy>  (4) 
O=C(c1ccccc1Cl)c1csc2c(Cl)cccc12 (3D coordinates assigned)
O=C(c1ccccc1Cl)c1csc2c(Cl)cccc12 (optimized conformer: 70.39284552094718 kcal/mol)

>  <smiles>  (4) 
O=C(c1ccccc1Cl)c1csc2c(Cl)cccc12

>  <score_type>  (4) 
oracle

>  <origin>  (4) 
adg

>  <m_score__min__energy>  (4) 
-7.8200000000000003

>  <m_primary>  (4) 
energy

$$$$
4:0
     RDKit          3D

 50 53  0  0  0  0  0  0  0  0999 V2000
   58.5300   31.2860   49.8530 C   0  0  0  0  0  0  0  0  0  0  0  0
   59.2110   31.9850   48.6790 C   0  0  0  0  0  0  0  0  0  0  0  0
   58.9240   31.2790   47.4250 N   0  0  0  0  0  0  0  0  0  0  0  0
   59.2670   29.9850   47.1900 C   0  0  0  0  0  0  0  0  0  0  0  0
   59.7760   29.2320   48.0660 O   0  0  0  0  0  0  0  0  0  0  0  0
   59.0390   29.5900   45.9190 N   0  0  0  0  0  0  0  0  0  0  0  0
   59.3890   28.3040   45.3130 C   0  0  0  0  0  0  0  0  0  0  0  0
   58.4540   27.2420   45.7980 C   0  0  0  0  0  0  0  0  0  0  0  0
   58.9490   26.1010   46.3510 N   0  0  0  0  0  0  0  0  0  0  0  0
   58.1190   25.1060   46.7590 C   0  0  0  0  0  0  0  0  0  0  0  0
   56.7400   25.2420   46.6020 C   0  0  0  0  0  0  0  0  0  0  0  0
   56.2510   26.4110   46.0220 C   0  0  0  0  0  0  0  0  0  0  0  0
   57.1120   27.3850   45.6280 N   0  0  0  0  0  0  0  0  0  0  0  0
   58.5640   30.6940   45.3150 C   0  0  0  0  0  0  0  0  0  0  0  0
   58.2180   30.8580   43.9770 C   0  0  0  0  0  0  0  0  0  0  0  0
   57.7670   32.0750   43.5740 N   0  0  0  0  0  0  0  0  0  0  0  0
   57.6450   33.1280   44.4370 C   0  0  0  0  0  0  0  0  0  0  0  0
   57.9930   32.9990   45.8030 C   0  0  0  0  0  0  0  0  0  0  0  0
   57.7710   34.1870   46.7080 C   0  0  0  0  0  0  0  0  0  0  0  0
   59.0210   34.6100   47.3550 N   0  0  0  0  0  0  0  0  0  0  0  0
   60.1810   34.5810   46.4470 C   0  0  0  0  0  0  0  0  0  0  0  0
   61.4320   34.0860   47.1350 C   0  0  0  0  0  0  0  0  0  0  0  0
   62.4860   33.5310   46.3870 C   0  0  0  0  0  0  0  0  0  0  0  0
   63.6450   33.0870   47.0270 C   0  0  0  0  0  0  0  0  0  0  0  0
   63.7630   33.1890   48.4160 C   0  0  0  0  0  0  0  0  0  0  0  0
   62.7190   33.7370   49.1690 C   0  0  0  0  0  0  0  0  0  0  0  0
   62.8680   33.8640   50.9120 Cl  0  0  0  0  0  0  0  0  0  0  0  0
   61.5560   34.1820   48.5310 C   0  0  0  0  0  0  0  0  0  0  0  0
   58.4780   31.7320   46.2180 C   0  0  0  0  0  0  0  0  0  0  0  0
   58.9230   31.6894   50.7979 H   0  0  0  0  0  0  0  0  0  0  0  0
   57.4449   31.4592   49.8035 H   0  0  0  0  0  0  0  0  0  0  0  0
   58.7315   30.2057   49.8035 H   0  0  0  0  0  0  0  0  0  0  0  0
   58.8385   33.0175   48.6067 H   0  0  0  0  0  0  0  0  0  0  0  0
   60.2981   31.9854   48.8467 H   0  0  0  0  0  0  0  0  0  0  0  0
   59.3140   28.3840   44.2185 H   0  0  0  0  0  0  0  0  0  0  0  0
   60.4180   28.0379   45.5965 H   0  0  0  0  0  0  0  0  0  0  0  0
   58.5342   24.1940   47.2127 H   0  0  0  0  0  0  0  0  0  0  0  0
   56.0547   24.4457   46.9281 H   0  0  0  0  0  0  0  0  0  0  0  0
   55.1680   26.5450   45.8833 H   0  0  0  0  0  0  0  0  0  0  0  0
   58.3072   30.0247   43.2645 H   0  0  0  0  0  0  0  0  0  0  0  0
   57.2699   34.0923   44.0635 H   0  0  0  0  0  0  0  0  0  0  0  0
   57.3765   35.0226   46.1112 H   0  0  0  0  0  0  0  0  0  0  0  0
   57.0569   33.8957   47.4923 H   0  0  0  0  0  0  0  0  0  0  0  0
   58.8940   35.5800   47.7280 H   0  0  0  0  0  0  0  0  0  0  0  0
   59.9534   33.9137   45.6027 H   0  0  0  0  0  0  0  0  0  0  0  0
   60.3681   35.6096   46.1051 H   0  0  0  0  0  0  0  0  0  0  0  0
   62.3970   33.4464   45.2939 H   0  0  0  0  0  0  0  0  0  0  0  0
   64.4670   32.6560   46.4366 H   0  0  0  0  0  0  0  0  0  0  0  0
   64.6771   32.8382   48.9173 H   0  0  0  0  0  0  0  0  0  0  0  0
   60.7348   34.6091   49.1254 H   0  0  0  0  0  0  0  0  0  0  0  0
  1  2  1  0
  2  3  1  0
  3  4  1  0
  4  5  2  0
  4  6  1  0
  6  7  1  0
  7  8  1  0
  8  9  2  0
  9 10  1  0
 10 11  2  0
 11 12  1  0
 12 13  2  0
  6 14  1  0
 14 15  2  0
 15 16  1  0
 16 17  2  0
 17 18  1  0
 18 19  1  0
 19 20  1  0
 20 21  1  0
 21 22  1  0
 22 23  2  0
 23 24  1  0
 24 25  2  0
 25 26  1  0
 26 27  1  0
 26 28  2  0
 18 29  2  0
 29  3  1  0
 13  8  1  0
 29 14  1  0
 28 22  1  0
  1 30  1  0
  1 31  1  0
  1 32  1  0
  2 33  1  0
  2 34  1  0
  7 35  1  0
  7 36  1  0
 10 37  1  0
 11 38  1  0
 12 39  1  0
 15 40  1  0
 17 41  1  0
 19 42  1  0
 19 43  1  0
 20 44  1  0
 21 45  1  0
 21 46  1  0
 23 47  1  0
 24 48  1  0
 25 49  1  0
 28 50  1  0
M  END
>  <UniqueID>  (5) 
5

>  <SMILES>  (5) 
CCn1c(=O)n(Cc2ncccn2)c2cncc(CNCc3cccc(Cl)c3)c21

>  <Energy>  (5) 
98.28875431703405

>  <Genealogy>  (5) 
CCn1c(=O)n(Cc2ncccn2)c2cncc(CNCc3cccc(Cl)c3)c21 (3D coordinates assigned)
CCn1c(=O)n(Cc2ncccn2)c2cncc(CNCc3cccc(Cl)c3)c21 (optimized conformer: 98.28875431703405 kcal/mol)

>  <smiles>  (5) 
CCn1c(=O)n(Cc2ncccn2)c2cncc(CNCc3cccc(Cl)c3)c21

>  <score_type>  (5) 
oracle

>  <origin>  (5) 
adg

>  <m_score__min__energy>  (5) 
-7.96

>  <m_primary>  (5) 
energy

$$$$
5:0
     RDKit          3D

 47 50  0  0  0  0  0  0  0  0999 V2000
   67.4120   30.8990   52.0200 C   0  0  0  0  0  0  0  0  0  0  0  0
   66.8140   32.1670   51.7650 O   0  0  0  0  0  0  0  0  0  0  0  0
   65.5860   32.3470   51.1110 C   0  0  0  0  0  0  0  0  0  0  0  0
   64.4150   32.2370   51.8630 C   0  0  0  0  0  0  0  0  0  0  0  0
   63.1640   32.4060   51.2650 C   0  0  0  0  0  0  0  0  0  0  0  0
   63.0590   32.6870   49.8870 C   0  0  0  0  0  0  0  0  0  0  0  0
   61.8090   32.8620   49.2440 C   0  0  0  0  0  0  0  0  0  0  0  0
   60.5490   32.7530   50.0110 C   0  0  0  0  0  0  0  0  0  0  0  0
   59.7560   31.6000   49.9040 C   0  0  0  0  0  0  0  0  0  0  0  0
   58.5640   31.4980   50.6280 C   0  0  0  0  0  0  0  0  0  0  0  0
   58.1610   32.5460   51.4620 C   0  0  0  0  0  0  0  0  0  0  0  0
   58.9490   33.6940   51.5750 C   0  0  0  0  0  0  0  0  0  0  0  0
   60.1420   33.8000   50.8540 C   0  0  0  0  0  0  0  0  0  0  0  0
   61.7770   33.1500   47.8590 C   0  0  0  0  0  0  0  0  0  0  0  0
   60.2540   33.3700   46.9710 S   0  0  0  0  0  0  0  0  0  0  0  0
   59.2420   34.0930   47.8130 O   0  0  0  0  0  0  0  0  0  0  0  0
   60.5340   34.2070   45.7540 O   0  0  0  0  0  0  0  0  0  0  0  0
   59.5710   31.8070   46.4720 C   0  0  0  0  0  0  0  0  0  0  0  0
   60.3350   30.6520   46.7120 C   0  0  0  0  0  0  0  0  0  0  0  0
   59.8740   29.4280   46.3490 N   0  0  0  0  0  0  0  0  0  0  0  0
   58.6700   29.2700   45.7490 C   0  0  0  0  0  0  0  0  0  0  0  0
   57.8640   30.3780   45.4940 C   0  0  0  0  0  0  0  0  0  0  0  0
   58.2880   31.6670   45.8720 C   0  0  0  0  0  0  0  0  0  0  0  0
   57.3930   32.8530   45.5570 C   0  0  0  0  0  0  0  0  0  0  0  0
   56.9830   33.4970   46.7110 F   0  0  0  0  0  0  0  0  0  0  0  0
   58.0600   33.7830   44.7840 F   0  0  0  0  0  0  0  0  0  0  0  0
   56.2670   32.4150   44.8850 F   0  0  0  0  0  0  0  0  0  0  0  0
   62.9870   33.2750   47.1640 C   0  0  0  0  0  0  0  0  0  0  0  0
   64.1750   33.0980   47.7950 N   0  0  0  0  0  0  0  0  0  0  0  0
   64.2460   32.8070   49.1240 C   0  0  0  0  0  0  0  0  0  0  0  0
   65.4970   32.6350   49.7380 C   0  0  0  0  0  0  0  0  0  0  0  0
   67.4867   30.7406   53.1060 H   0  0  0  0  0  0  0  0  0  0  0  0
   66.7931   30.1057   51.5754 H   0  0  0  0  0  0  0  0  0  0  0  0
   68.4178   30.8719   51.5754 H   0  0  0  0  0  0  0  0  0  0  0  0
   64.4782   32.0148   52.9385 H   0  0  0  0  0  0  0  0  0  0  0  0
   62.2524   32.3191   51.8745 H   0  0  0  0  0  0  0  0  0  0  0  0
   60.0728   30.7748   49.2492 H   0  0  0  0  0  0  0  0  0  0  0  0
   57.9435   30.5938   50.5416 H   0  0  0  0  0  0  0  0  0  0  0  0
   57.2222   32.4662   52.0298 H   0  0  0  0  0  0  0  0  0  0  0  0
   58.6301   34.5161   52.2326 H   0  0  0  0  0  0  0  0  0  0  0  0
   60.7622   34.7037   50.9470 H   0  0  0  0  0  0  0  0  0  0  0  0
   61.3172   30.7409   47.1993 H   0  0  0  0  0  0  0  0  0  0  0  0
   58.3275   28.2648   45.4623 H   0  0  0  0  0  0  0  0  0  0  0  0
   56.8925   30.2454   44.9954 H   0  0  0  0  0  0  0  0  0  0  0  0
   62.9737   33.5201   46.0917 H   0  0  0  0  0  0  0  0  0  0  0  0
   65.0510   33.1960   47.2320 H   0  0  0  0  0  0  0  0  0  0  0  0
   66.4153   32.7264   49.1394 H   0  0  0  0  0  0  0  0  0  0  0  0
  1  2  1  0
  2  3  1  0
  3  4  2  0
  4  5  1  0
  5  6  2  0
  6  7  1  0
  7  8  1  0
  8  9  2  0
  9 10  1  0
 10 11  2  0
 11 12  1  0
 12 13  2  0
  7 14  2  0
 14 15  1  0
 15 16  2  0
 15 17  2  0
 15 18  1  0
 18 19  2  0
 19 20  1  0
 20 21  2  0
 21 22  1  0
 22 23  2  0
 23 24  1  0
 24 25  1  0
 24 26  1  0
 24 27  1  0
 14 28  1  0
 28 29  2  0
 29 30  1  0
 30 31  2  0
 31  3  1  0
 30  6  1  0
 13  8  1  0
 23 18  1  0
  1 32  1  0
  1 33  1  0
  1 34  1  0
  4 35  1  0
  5 36  1  0
  9 37  1  0
 10 38  1  0
 11 39  1  0
 12 40  1  0
 13 41  1  0
 19 42  1  0
 21 43  1  0
 22 44  1  0
 28 45  1  0
 29 46  1  0
 31 47  1  0
M  CHG  1  29   1
M  END
>  <UniqueID>  (6) 
6

>  <SMILES>  (6) 
COc1ccc2c(-c3ccccc3)c(S(=O)(=O)c3cnccc3C(F)(F)F)c[nH+]c2c1

>  <Energy>  (6) 
72.44954796223593

>  <Genealogy>  (6) 
COc1ccc2c(-c3ccccc3)c(S(=O)(=O)c3cnccc3C(F)(F)F)c[nH+]c2c1 (protonated)
COc1ccc2c(-c3ccccc3)c(S(=O)(=O)c3cnccc3C(F)(F)F)c[nH+]c2c1 (3D coordinates assigned)
COc1ccc2c(-c3ccccc3)c(S(=O)(=O)c3cnccc3C(F)(F)F)c[nH+]c2c1 (optimized conformer: 72.44954796223593 kcal/mol)

>  <smiles>  (6) 
COc1ccc2c(-c3ccccc3)c(S(=O)(=O)c3cnccc3C(F)(F)F)cnc2c1

>  <score_type>  (6) 
oracle

>  <origin>  (6) 
adg

>  <m_score__min__energy>  (6) 
-6.0700000000000003

>  <m_primary>  (6) 
energy

$$$$
6:0
     RDKit          3D

 40 43  0  0  0  0  0  0  0  0999 V2000
   60.6774   26.3110   45.6003 H   0  0  0  0  0  0  0  0  0  0  0  0
   59.5950   26.4730   45.7110 C   0  0  0  0  0  0  0  0  0  0  0  0
   58.7650   25.3990   45.8620 N   0  0  0  0  0  0  0  0  0  0  0  0
   57.4390   25.6190   46.0260 C   0  0  0  0  0  0  0  0  0  0  0  0
   56.8880   26.8590   46.0030 C   0  0  0  0  0  0  0  0  0  0  0  0
   55.5480   26.7160   45.9980 N   0  0  0  0  0  0  0  0  0  0  0  0
   55.3120   25.4050   46.0390 N   0  0  0  0  0  0  0  0  0  0  0  0
   56.4480   24.7130   46.0590 N   0  0  0  0  0  0  0  0  0  0  0  0
   56.5260   23.2750   46.0520 C   0  0  0  0  0  0  0  0  0  0  0  0
   56.2780   22.5250   47.2180 C   0  0  0  0  0  0  0  0  0  0  0  0
   56.0272   23.0401   48.1570 H   0  0  0  0  0  0  0  0  0  0  0  0
   56.3490   21.1290   47.1880 C   0  0  0  0  0  0  0  0  0  0  0  0
   56.1594   20.5504   48.1041 H   0  0  0  0  0  0  0  0  0  0  0  0
   56.6600   20.4670   45.9980 C   0  0  0  0  0  0  0  0  0  0  0  0
   56.7205   19.3688   45.9787 H   0  0  0  0  0  0  0  0  0  0  0  0
   56.8940   21.2000   44.8330 C   0  0  0  0  0  0  0  0  0  0  0  0
   57.1347   20.6780   43.8951 H   0  0  0  0  0  0  0  0  0  0  0  0
   56.8230   22.5960   44.8560 C   0  0  0  0  0  0  0  0  0  0  0  0
   57.0005   23.1674   43.9329 H   0  0  0  0  0  0  0  0  0  0  0  0
   57.6820   28.0110   45.8560 C   0  0  0  0  0  0  0  0  0  0  0  0
   57.2060   29.2270   45.8150 N   0  0  0  0  0  0  0  0  0  0  0  0
   56.2650   29.7820   44.8880 C   0  0  0  0  0  0  0  0  0  0  0  0
   55.1710   29.1870   44.6960 O   0  0  0  0  0  0  0  0  0  0  0  0
   56.5890   30.9650   44.1440 N   0  0  0  0  0  0  0  0  0  0  0  0
   57.3690   32.0690   44.6210 C   0  0  0  0  0  0  0  0  0  0  0  0
   57.4050   32.3190   45.9980 C   0  0  0  0  0  0  0  0  0  0  0  0
   56.8330   31.6778   46.6848 H   0  0  0  0  0  0  0  0  0  0  0  0
   58.1630   33.3780   46.5060 C   0  0  0  0  0  0  0  0  0  0  0  0
   58.1726   33.5780   47.5876 H   0  0  0  0  0  0  0  0  0  0  0  0
   58.9080   34.1820   45.6410 C   0  0  0  0  0  0  0  0  0  0  0  0
   59.6470   35.2070   46.1350 F   0  0  0  0  0  0  0  0  0  0  0  0
   58.9050   33.9220   44.2670 C   0  0  0  0  0  0  0  0  0  0  0  0
   59.5003   34.5502   43.5881 H   0  0  0  0  0  0  0  0  0  0  0  0
   58.1460   32.8640   43.7540 C   0  0  0  0  0  0  0  0  0  0  0  0
   58.2240   32.5850   42.4290 F   0  0  0  0  0  0  0  0  0  0  0  0
   59.0790   27.7970   45.6950 C   0  0  0  0  0  0  0  0  0  0  0  0
   60.0170   28.9590   45.5110 C   0  0  0  0  0  0  0  0  0  0  0  0
   60.3252   29.3408   46.4955 H   0  0  0  0  0  0  0  0  0  0  0  0
   60.9046   28.6287   44.9515 H   0  0  0  0  0  0  0  0  0  0  0  0
   59.5069   29.7570   44.9515 H   0  0  0  0  0  0  0  0  0  0  0  0
  1  2  1  0
  2  3  1  0
  3  4  1  0
  4  5  2  0
  5  6  1  0
  6  7  2  0
  7  8  1  0
  8  9  1  0
  9 10  2  0
 10 11  1  0
 10 12  1  0
 12 13  1  0
 12 14  2  0
 14 15  1  0
 14 16  1  0
 16 17  1  0
 16 18  2  0
 18 19  1  0
  5 20  1  0
 20 21  2  0
 21 22  1  0
 22 23  2  0
 22 24  1  0
 24 25  1  0
 25 26  2  0
 26 27  1  0
 26 28  1  0
 28 29  1  0
 28 30  2  0
 30 31  1  0
 30 32  1  0
 32 33  1  0
 32 34  2  0
 34 35  1  0
 20 36  1  0
 36 37  1  0
 37 38  1  0
 37 39  1  0
 37 40  1  0
 36  2  2  0
  8  4  1  0
 18  9  1  0
 34 25  1  0
M  CHG  2   3  -1  24  -1
M  END
>  <UniqueID>  (7) 
7

>  <SMILES>  (7) 
Cc1c[n-]c2c(nnn2-c2ccccc2)/c1=N\C(=O)[N-]c1ccc(F)cc1F

>  <Energy>  (7) 
110.71211829906531

>  <Genealogy>  (7) 
Cc1c[n-]c2c(nnn2-c2ccccc2)c1=NC(=O)[N-]c1ccc(F)cc1F (protonated)
Cc1c[n-]c2c(nnn2-c2ccccc2)/c1=N\C(=O)[N-]c1ccc(F)cc1F (cis-trans isomerization)
Cc1c[n-]c2c(nnn2-c2ccccc2)/c1=N\C(=O)[N-]c1ccc(F)cc1F (3D coordinates assigned)
Cc1c[n-]c2c(nnn2-c2ccccc2)/c1=N\C(=O)[N-]c1ccc(F)cc1F (optimized conformer: 110.71211829906531 kcal/mol)

>  <smiles>  (7) 
Cc1c[nH]c2c(nnn2-c2ccccc2)c1=NC(=O)Nc1ccc(F)cc1F

>  <score_type>  (7) 
oracle

>  <origin>  (7) 
adg

>  <m_score__min__energy>  (7) 
-12.029999999999999

>  <m_primary>  (7) 
energy

$$$$
7:0
     RDKit          3D

 33 35  0  0  0  0  0  0  0  0999 V2000
   64.3910   33.0990   49.0410 C   0  0  0  0  0  0  0  0  0  0  0  0
   63.3980   34.1040   48.8710 O   0  0  0  0  0  0  0  0  0  0  0  0
   62.1410   33.8850   48.2850 C   0  0  0  0  0  0  0  0  0  0  0  0
   62.0940   33.3130   47.0110 C   0  0  0  0  0  0  0  0  0  0  0  0
   60.8680   33.0750   46.3850 C   0  0  0  0  0  0  0  0  0  0  0  0
   59.6520   33.4060   47.0200 C   0  0  0  0  0  0  0  0  0  0  0  0
   58.3260   33.1180   46.3060 C   0  0  1  0  0  0  0  0  0  0  0  0
   57.0560   33.4650   47.1070 C   0  0  0  0  0  0  0  0  0  0  0  0
   58.2750   33.8070   44.9610 C   0  0  0  0  0  0  0  0  0  0  0  0
   58.3140   35.0560   44.8110 O   0  0  0  0  0  0  0  0  0  0  0  0
   58.1810   32.9100   43.8560 N   0  0  0  0  0  0  0  0  0  0  0  0
   58.1780   31.6300   44.4670 C   0  0  0  0  0  0  0  0  0  0  0  0
   58.1170   30.4110   43.7960 C   0  0  0  0  0  0  0  0  0  0  0  0
   58.1420   29.2260   44.5530 C   0  0  0  0  0  0  0  0  0  0  0  0
   58.0670   27.6750   43.7360 Cl  0  0  0  0  0  0  0  0  0  0  0  0
   58.2300   29.2850   45.9600 C   0  0  0  0  0  0  0  0  0  0  0  0
   58.2570   28.1430   46.6910 F   0  0  0  0  0  0  0  0  0  0  0  0
   58.2930   30.5260   46.6140 C   0  0  0  0  0  0  0  0  0  0  0  0
   58.2630   31.6910   45.8430 C   0  0  0  0  0  0  0  0  0  0  0  0
   59.7110   33.9810   48.3080 C   0  0  0  0  0  0  0  0  0  0  0  0
   60.9380   34.2180   48.9320 C   0  0  0  0  0  0  0  0  0  0  0  0
   64.5598   32.9282   50.1145 H   0  0  0  0  0  0  0  0  0  0  0  0
   64.0515   32.1647   48.5700 H   0  0  0  0  0  0  0  0  0  0  0  0
   65.3293   33.4272   48.5700 H   0  0  0  0  0  0  0  0  0  0  0  0
   63.0297   33.0480   46.4970 H   0  0  0  0  0  0  0  0  0  0  0  0
   60.8502   32.6229   45.3823 H   0  0  0  0  0  0  0  0  0  0  0  0
   57.2738   33.4055   48.1836 H   0  0  0  0  0  0  0  0  0  0  0  0
   56.7306   34.4850   46.8546 H   0  0  0  0  0  0  0  0  0  0  0  0
   56.2571   32.7522   46.8546 H   0  0  0  0  0  0  0  0  0  0  0  0
   58.0508   30.3759   42.6986 H   0  0  0  0  0  0  0  0  0  0  0  0
   58.3645   30.5799   47.7103 H   0  0  0  0  0  0  0  0  0  0  0  0
   58.7781   34.2460   48.8272 H   0  0  0  0  0  0  0  0  0  0  0  0
   60.9632   34.6678   49.9355 H   0  0  0  0  0  0  0  0  0  0  0  0
  1  2  1  0
  2  3  1  0
  3  4  2  0
  4  5  1  0
  5  6  2  0
  6  7  1  0
  7  8  1  1
  7  9  1  0
  9 10  2  0
  9 11  1  0
 11 12  1  0
 12 13  2  0
 13 14  1  0
 14 15  1  0
 14 16  2  0
 16 17  1  0
 16 18  1  0
 18 19  2  0
  6 20  1  0
 20 21  2  0
 21  3  1  0
 19  7  1  0
 19 12  1  0
  1 22  1  0
  1 23  1  0
  1 24  1  0
  4 25  1  0
  5 26  1  0
  8 27  1  0
  8 28  1  0
  8 29  1  0
 13 30  1  0
 18 31  1  0
 20 32  1  0
 21 33  1  0
M  CHG  1  11  -1
M  END
>  <UniqueID>  (8) 
8

>  <SMILES>  (8) 
COc1ccc([C@@]2(C)C(=O)[N-]c3cc(Cl)c(F)cc32)cc1

>  <Energy>  (8) 
56.228411849787896

>  <Genealogy>  (8) 
COc1ccc(C2(C)C(=O)[N-]c3cc(Cl)c(F)cc32)cc1 (protonated)
COc1ccc([C@@]2(C)C(=O)[N-]c3cc(Cl)c(F)cc32)cc1 (chirality)
COc1ccc([C@@]2(C)C(=O)[N-]c3cc(Cl)c(F)cc32)cc1 (3D coordinates assigned)
COc1ccc([C@@]2(C)C(=O)[N-]c3cc(Cl)c(F)cc32)cc1 (nonaromatic ring conformer: 56.228411849787896 kcal/mol)

>  <smiles>  (8) 
COc1ccc(C2(C)C(=O)Nc3cc(Cl)c(F)cc32)cc1

>  <score_type>  (8) 
oracle

>  <origin>  (8) 
adg

>  <m_score__min__energy>  (8) 
-7.6399999999999997

>  <m_primary>  (8) 
energy

$$$$
8:0
     RDKit          3D

 41 43  0  0  0  0  0  0  0  0999 V2000
   57.4240   25.5940   43.9590 C   0  0  0  0  0  0  0  0  0  0  0  0
   57.9340   26.2990   45.1860 C   0  0  0  0  0  0  0  0  0  0  0  0
   59.1240   25.8250   45.7660 C   0  0  0  0  0  0  0  0  0  0  0  0
   59.6200   26.3930   46.9400 C   0  0  0  0  0  0  0  0  0  0  0  0
   58.9360   27.4400   47.5530 C   0  0  0  0  0  0  0  0  0  0  0  0
   57.7640   27.9370   46.9820 C   0  0  0  0  0  0  0  0  0  0  0  0
   57.2680   27.4050   45.7830 C   0  0  0  0  0  0  0  0  0  0  0  0
   56.0570   27.9700   45.2610 N   0  0  0  0  0  0  0  0  0  0  0  0
   55.9420   29.1910   44.5230 C   0  0  0  0  0  0  0  0  0  0  0  0
   55.1580   30.0980   44.9140 O   0  0  0  0  0  0  0  0  0  0  0  0
   56.6430   29.3520   43.2070 C   0  0  0  0  0  0  0  0  0  0  0  0
   57.3350   31.0300   42.9480 S   0  0  0  0  0  0  0  0  0  0  0  0
   58.4530   30.9970   44.3660 C   0  0  0  0  0  0  0  0  0  0  0  0
   59.2580   29.8770   44.5390 C   0  0  0  0  0  0  0  0  0  0  0  0
   60.1770   29.8220   45.5850 C   0  0  0  0  0  0  0  0  0  0  0  0
   60.8950   28.7890   45.6920 O   0  0  0  0  0  0  0  0  0  0  0  0
   60.3000   30.8660   46.4710 N   0  0  0  0  0  0  0  0  0  0  0  0
   61.3030   30.7860   47.5540 C   0  0  0  0  0  0  0  0  0  0  0  0
   59.4840   31.9770   46.3510 C   0  0  0  0  0  0  0  0  0  0  0  0
   59.5740   33.0670   47.2530 C   0  0  0  0  0  0  0  0  0  0  0  0
   58.7360   34.1750   47.1260 C   0  0  0  0  0  0  0  0  0  0  0  0
   57.7820   34.2200   46.1160 C   0  0  0  0  0  0  0  0  0  0  0  0
   57.6670   33.1650   45.2150 C   0  0  0  0  0  0  0  0  0  0  0  0
   58.5240   32.0490   45.3010 C   0  0  0  0  0  0  0  0  0  0  0  0
   56.8038   24.7367   44.2598 H   0  0  0  0  0  0  0  0  0  0  0  0
   56.8199   26.2913   43.3599 H   0  0  0  0  0  0  0  0  0  0  0  0
   58.2753   25.2384   43.3599 H   0  0  0  0  0  0  0  0  0  0  0  0
   59.6698   24.9975   45.2891 H   0  0  0  0  0  0  0  0  0  0  0  0
   60.5529   26.0132   47.3822 H   0  0  0  0  0  0  0  0  0  0  0  0
   59.3199   27.8752   48.4875 H   0  0  0  0  0  0  0  0  0  0  0  0
   57.2226   28.7559   47.4782 H   0  0  0  0  0  0  0  0  0  0  0  0
   57.4667   28.6245   43.1599 H   0  0  0  0  0  0  0  0  0  0  0  0
   55.8940   29.1855   42.4188 H   0  0  0  0  0  0  0  0  0  0  0  0
   59.1689   29.0281   43.8452 H   0  0  0  0  0  0  0  0  0  0  0  0
   60.7944   30.8266   48.5285 H   0  0  0  0  0  0  0  0  0  0  0  0
   61.8591   29.8407   47.4697 H   0  0  0  0  0  0  0  0  0  0  0  0
   62.0019   31.6313   47.4697 H   0  0  0  0  0  0  0  0  0  0  0  0
   60.3155   33.0386   48.0650 H   0  0  0  0  0  0  0  0  0  0  0  0
   58.8305   35.0166   47.8280 H   0  0  0  0  0  0  0  0  0  0  0  0
   57.1163   35.0913   46.0285 H   0  0  0  0  0  0  0  0  0  0  0  0
   56.8995   33.2026   44.4279 H   0  0  0  0  0  0  0  0  0  0  0  0
  1  2  1  0
  2  3  2  0
  3  4  1  0
  4  5  2  0
  5  6  1  0
  6  7  2  0
  7  8  1  0
  8  9  1  0
  9 10  2  0
  9 11  1  0
 11 12  1  0
 12 13  1  0
 13 14  2  0
 14 15  1  0
 15 16  2  0
 15 17  1  0
 17 18  1  0
 17 19  1  0
 19 20  2  0
 20 21  1  0
 21 22  2  0
 22 23  1  0
 23 24  2  0
  7  2  1  0
 24 13  1  0
 24 19  1  0
  1 25  1  0
  1 26  1  0
  1 27  1  0
  3 28  1  0
  4 29  1  0
  5 30  1  0
  6 31  1  0
 11 32  1  0
 11 33  1  0
 14 34  1  0
 18 35  1  0
 18 36  1  0
 18 37  1  0
 20 38  1  0
 21 39  1  0
 22 40  1  0
 23 41  1  0
M  CHG  1   8  -1
M  END
>  <UniqueID>  (9) 
9

>  <SMILES>  (9) 
Cc1ccccc1[N-]C(=O)CSc1cc(=O)n(C)c2ccccc12

>  <Energy>  (9) 
56.0525022700472

>  <Genealogy>  (9) 
Cc1ccccc1[N-]C(=O)CSc1cc(=O)n(C)c2ccccc12 (protonated)
Cc1ccccc1[N-]C(=O)CSc1cc(=O)n(C)c2ccccc12 (3D coordinates assigned)
Cc1ccccc1[N-]C(=O)CSc1cc(=O)n(C)c2ccccc12 (optimized conformer: 56.0525022700472 kcal/mol)

>  <smiles>  (9) 
Cc1ccccc1NC(=O)CSc1cc(=O)n(C)c2ccccc12

>  <score_type>  (9) 
oracle

>  <origin>  (9) 
adg

>  <m_score__min__energy>  (9) 
-9.9900000000000002

>  <m_primary>  (9) 
energy

$$$$
9:0
     RDKit          3D

 55 58  0  0  0  0  0  0  0  0999 V2000
   60.1730   27.1440   49.1420 O   0  0  0  0  0  0  0  0  0  0  0  0
   59.8620   28.2730   48.6730 C   0  0  0  0  0  0  0  0  0  0  0  0
   59.1570   28.3380   47.3790 C   0  0  0  0  0  0  0  0  0  0  0  0
   58.0660   27.5700   47.0110 C   0  0  0  0  0  0  0  0  0  0  0  0
   57.7420   27.9680   45.7310 C   0  0  0  0  0  0  0  0  0  0  0  0
   58.6590   28.9470   45.3980 C   0  0  0  0  0  0  0  0  0  0  0  0
   58.6870   29.7300   44.1280 C   0  0  0  0  0  0  0  0  0  0  0  0
   57.3730   30.9350   44.1290 S   0  0  0  0  0  0  0  0  0  0  0  0
   56.1600   30.3580   44.8010 O   0  0  0  0  0  0  0  0  0  0  0  0
   57.0160   31.2940   42.7120 O   0  0  0  0  0  0  0  0  0  0  0  0
   57.8990   32.3710   45.0010 C   0  0  0  0  0  0  0  0  0  0  0  0
   57.8040   32.4130   46.3980 C   0  0  0  0  0  0  0  0  0  0  0  0
   58.2610   33.5310   47.1020 C   0  0  0  0  0  0  0  0  0  0  0  0
   58.8180   34.6130   46.4110 C   0  0  0  0  0  0  0  0  0  0  0  0
   59.2640   35.6930   47.0930 F   0  0  0  0  0  0  0  0  0  0  0  0
   58.9180   34.5740   45.0170 C   0  0  0  0  0  0  0  0  0  0  0  0
   58.4640   33.4560   44.3130 C   0  0  0  0  0  0  0  0  0  0  0  0
   59.4870   29.1450   46.3960 O   0  0  0  0  0  0  0  0  0  0  0  0
   60.2110   29.4660   49.4010 N   0  0  0  0  0  0  0  0  0  0  0  0
   59.4140   30.6940   49.2740 C   0  0  0  0  0  0  0  0  0  0  0  0
   59.5400   31.5510   50.5420 C   0  0  0  0  0  0  0  0  0  0  0  0
   60.9530   31.8600   50.9020 N   0  0  0  0  0  0  0  0  0  0  0  0
   61.3660   33.2400   50.5290 C   0  0  0  0  0  0  0  0  0  0  0  0
   62.0800   33.3490   49.1920 C   0  0  0  0  0  0  0  0  0  0  0  0
   63.4870   33.3720   49.1300 C   0  0  0  0  0  0  0  0  0  0  0  0
   64.1390   33.4740   47.8980 C   0  0  0  0  0  0  0  0  0  0  0  0
   63.3980   33.5320   46.7150 C   0  0  0  0  0  0  0  0  0  0  0  0
   62.0030   33.4740   46.7610 C   0  0  0  0  0  0  0  0  0  0  0  0
   61.3460   33.3700   47.9920 C   0  0  0  0  0  0  0  0  0  0  0  0
   61.9390   30.8330   50.4700 C   0  0  0  0  0  0  0  0  0  0  0  0
   61.3180   29.4370   50.3640 C   0  0  0  0  0  0  0  0  0  0  0  0
   57.5616   26.8011   47.6147 H   0  0  0  0  0  0  0  0  0  0  0  0
   56.9229   27.5853   45.1044 H   0  0  0  0  0  0  0  0  0  0  0  0
   59.6546   30.2455   44.0386 H   0  0  0  0  0  0  0  0  0  0  0  0
   58.5503   29.0458   43.2776 H   0  0  0  0  0  0  0  0  0  0  0  0
   57.3681   31.5629   46.9432 H   0  0  0  0  0  0  0  0  0  0  0  0
   58.1828   33.5602   48.1988 H   0  0  0  0  0  0  0  0  0  0  0  0
   59.3548   35.4249   44.4737 H   0  0  0  0  0  0  0  0  0  0  0  0
   58.5496   33.4260   43.2167 H   0  0  0  0  0  0  0  0  0  0  0  0
   59.7740   31.2714   48.4097 H   0  0  0  0  0  0  0  0  0  0  0  0
   58.3580   30.4196   49.1337 H   0  0  0  0  0  0  0  0  0  0  0  0
   59.0054   32.4983   50.3786 H   0  0  0  0  0  0  0  0  0  0  0  0
   59.1094   30.9724   51.3725 H   0  0  0  0  0  0  0  0  0  0  0  0
   60.9810   31.8490   51.9510 H   0  0  0  0  0  0  0  0  0  0  0  0
   60.4641   33.8684   50.4882 H   0  0  0  0  0  0  0  0  0  0  0  0
   62.0863   33.5664   51.2937 H   0  0  0  0  0  0  0  0  0  0  0  0
   64.0762   33.3093   50.0568 H   0  0  0  0  0  0  0  0  0  0  0  0
   65.2378   33.5087   47.8597 H   0  0  0  0  0  0  0  0  0  0  0  0
   63.9131   33.6233   45.7473 H   0  0  0  0  0  0  0  0  0  0  0  0
   61.4205   33.5101   45.8286 H   0  0  0  0  0  0  0  0  0  0  0  0
   60.2484   33.3042   48.0217 H   0  0  0  0  0  0  0  0  0  0  0  0
   62.3378   31.1181   49.4853 H   0  0  0  0  0  0  0  0  0  0  0  0
   62.7338   30.7902   51.2292 H   0  0  0  0  0  0  0  0  0  0  0  0
   62.0809   28.7211   50.0242 H   0  0  0  0  0  0  0  0  0  0  0  0
   60.9388   29.1285   51.3494 H   0  0  0  0  0  0  0  0  0  0  0  0
  1  2  2  0
  2  3  1  0
  3  4  2  0
  4  5  1  0
  5  6  2  0
  6  7  1  0
  7  8  1  0
  8  9  2  0
  8 10  2  0
  8 11  1  0
 11 12  2  0
 12 13  1  0
 13 14  2  0
 14 15  1  0
 14 16  1  0
 16 17  2  0
  6 18  1  0
  2 19  1  0
 19 20  1  0
 20 21  1  0
 21 22  1  0
 22 23  1  0
 23 24  1  0
 24 25  2  0
 25 26  1  0
 26 27  2  0
 27 28  1  0
 28 29  2  0
 22 30  1  0
 30 31  1  0
 18  3  1  0
 31 19  1  0
 17 11  1  0
 29 24  1  0
  4 32  1  0
  5 33  1  0
  7 34  1  0
  7 35  1  0
 12 36  1  0
 13 37  1  0
 16 38  1  0
 17 39  1  0
 20 40  1  0
 20 41  1  0
 21 42  1  0
 21 43  1  0
 22 44  1  0
 23 45  1  0
 23 46  1  0
 25 47  1  0
 26 48  1  0
 27 49  1  0
 28 50  1  0
 29 51  1  0
 30 52  1  0
 30 53  1  0
 31 54  1  0
 31 55  1  0
M  CHG  1  22   1
M  END
>  <UniqueID>  (10) 
10

>  <SMILES>  (10) 
O=C(c1ccc(CS(=O)(=O)c2ccc(F)cc2)o1)N1CC[NH+](Cc2ccccc2)CC1

>  <Energy>  (10) 
90.07391930267144

>  <Genealogy>  (10) 
O=C(c1ccc(CS(=O)(=O)c2ccc(F)cc2)o1)N1CC[NH+](Cc2ccccc2)CC1 (protonated)
O=C(c1ccc(CS(=O)(=O)c2ccc(F)cc2)o1)N1CC[NH+](Cc2ccccc2)CC1 (3D coordinates assigned)
O=C(c1ccc(CS(=O)(=O)c2ccc(F)cc2)o1)N1CC[NH+](Cc2ccccc2)CC1 (nonaromatic ring conformer: 90.07391930267144 kcal/mol)

>  <smiles>  (10) 
O=C(c1ccc(CS(=O)(=O)c2ccc(F)cc2)o1)N1CCN(Cc2ccccc2)CC1

>  <score_type>  (10) 
oracle

>  <origin>  (10) 
adg

>  <m_score__min__energy>  (10) 
-8.0800000000000001

>  <m_primary>  (10) 
energy

$$$$
10:0
     RDKit          3D

 58 61  0  0  0  0  0  0  0  0999 V2000
   58.6050   32.5580   51.2900 C   0  0  0  0  0  0  0  0  0  0  0  0
   59.8130   32.9870   50.6710 O   0  0  0  0  0  0  0  0  0  0  0  0
   60.4160   32.3530   49.5710 C   0  0  0  0  0  0  0  0  0  0  0  0
   59.8860   31.1800   49.0100 C   0  0  0  0  0  0  0  0  0  0  0  0
   60.4990   30.5650   47.9090 C   0  0  0  0  0  0  0  0  0  0  0  0
   59.9130   29.3230   47.3420 C   0  0  0  0  0  0  0  0  0  0  0  0
   60.1980   28.0540   47.8670 C   0  0  0  0  0  0  0  0  0  0  0  0
   59.6540   26.9260   47.2580 C   0  0  0  0  0  0  0  0  0  0  0  0
   58.8450   27.0790   46.1360 C   0  0  0  0  0  0  0  0  0  0  0  0
   58.5840   28.3300   45.6570 N   0  0  0  0  0  0  0  0  0  0  0  0
   57.7870   28.5180   44.4460 C   0  0  0  0  0  0  0  0  0  0  0  0
   56.3550   28.9350   44.8220 C   0  0  0  0  0  0  0  0  0  0  0  0
   55.7550   29.9570   43.8360 C   0  0  0  0  0  0  0  0  0  0  0  0
   56.8210   30.8040   43.1180 C   0  0  0  0  0  0  0  0  0  0  0  0
   57.4870   31.7730   44.0430 C   0  0  0  0  0  0  0  0  0  0  0  0
   58.3210   32.8170   43.6490 C   0  0  0  0  0  0  0  0  0  0  0  0
   58.6300   33.4620   44.8230 C   0  0  0  0  0  0  0  0  0  0  0  0
   59.4060   34.5940   45.0650 C   0  0  0  0  0  0  0  0  0  0  0  0
   59.5190   35.0360   46.3970 C   0  0  0  0  0  0  0  0  0  0  0  0
   58.8600   34.3450   47.4390 C   0  0  0  0  0  0  0  0  0  0  0  0
   58.0830   33.2070   47.1600 C   0  0  0  0  0  0  0  0  0  0  0  0
   57.9880   32.7930   45.8330 C   0  0  0  0  0  0  0  0  0  0  0  0
   57.3080   31.7810   45.3520 O   0  0  0  0  0  0  0  0  0  0  0  0
   59.1130   29.4060   46.2450 N   0  0  0  0  0  0  0  0  0  0  0  0
   61.6650   31.1370   47.3770 C   0  0  0  0  0  0  0  0  0  0  0  0
   62.2090   32.3190   47.9160 C   0  0  0  0  0  0  0  0  0  0  0  0
   63.3700   32.8920   47.3720 O   0  0  0  0  0  0  0  0  0  0  0  0
   63.3940   33.8930   46.3600 C   0  0  0  0  0  0  0  0  0  0  0  0
   61.5730   32.9320   49.0270 C   0  0  0  0  0  0  0  0  0  0  0  0
   62.0360   34.1110   49.6400 O   0  0  0  0  0  0  0  0  0  0  0  0
   63.1740   34.2390   50.4860 C   0  0  0  0  0  0  0  0  0  0  0  0
   58.7188   32.5984   52.3834 H   0  0  0  0  0  0  0  0  0  0  0  0
   57.7808   33.2184   50.9825 H   0  0  0  0  0  0  0  0  0  0  0  0
   58.3819   31.5257   50.9825 H   0  0  0  0  0  0  0  0  0  0  0  0
   58.9761   30.7368   49.4408 H   0  0  0  0  0  0  0  0  0  0  0  0
   60.8447   27.9508   48.7508 H   0  0  0  0  0  0  0  0  0  0  0  0
   59.8618   25.9234   47.6600 H   0  0  0  0  0  0  0  0  0  0  0  0
   58.4181   26.1961   45.6378 H   0  0  0  0  0  0  0  0  0  0  0  0
   58.2447   29.3030   43.8262 H   0  0  0  0  0  0  0  0  0  0  0  0
   57.7535   27.5731   43.8838 H   0  0  0  0  0  0  0  0  0  0  0  0
   55.7180   28.0382   44.8304 H   0  0  0  0  0  0  0  0  0  0  0  0
   56.3971   29.4132   45.8117 H   0  0  0  0  0  0  0  0  0  0  0  0
   55.1729   29.4119   43.0784 H   0  0  0  0  0  0  0  0  0  0  0  0
   55.1285   30.6467   44.4206 H   0  0  0  0  0  0  0  0  0  0  0  0
   57.5844   30.1322   42.6985 H   0  0  0  0  0  0  0  0  0  0  0  0
   56.3190   31.3809   42.3273 H   0  0  0  0  0  0  0  0  0  0  0  0
   58.6556   33.0678   42.6316 H   0  0  0  0  0  0  0  0  0  0  0  0
   59.9123   35.1234   44.2444 H   0  0  0  0  0  0  0  0  0  0  0  0
   60.1242   35.9250   46.6282 H   0  0  0  0  0  0  0  0  0  0  0  0
   58.9557   34.7001   48.4757 H   0  0  0  0  0  0  0  0  0  0  0  0
   57.5667   32.6611   47.9634 H   0  0  0  0  0  0  0  0  0  0  0  0
   62.1630   30.6534   46.5237 H   0  0  0  0  0  0  0  0  0  0  0  0
   63.4179   34.8878   46.8288 H   0  0  0  0  0  0  0  0  0  0  0  0
   64.2892   33.7608   45.7346 H   0  0  0  0  0  0  0  0  0  0  0  0
   62.4935   33.8038   45.7346 H   0  0  0  0  0  0  0  0  0  0  0  0
   62.8547   34.2031   51.5380 H   0  0  0  0  0  0  0  0  0  0  0  0
   63.8736   33.4139   50.2868 H   0  0  0  0  0  0  0  0  0  0  0  0
   63.6729   35.1989   50.2868 H   0  0  0  0  0  0  0  0  0  0  0  0
  1  2  1  0
  2  3  1  0
  3  4  2  0
  4  5  1  0
  5  6  1  0
  6  7  2  0
  7  8  1  0
  8  9  2  0
  9 10  1  0
 10 11  1  0
 11 12  1  0
 12 13  1  0
 13 14  1  0
 14 15  1  0
 15 16  2  0
 16 17  1  0
 17 18  2  0
 18 19  1  0
 19 20  2  0
 20 21  1  0
 21 22  2  0
 22 23  1  0
 10 24  2  0
  5 25  2  0
 25 26  1  0
 26 27  1  0
 27 28  1  0
 26 29  2  0
 29 30  1  0
 30 31  1  0
 29  3  1  0
 24  6  1  0
 23 15  1  0
 22 17  1  0
  1 32  1  0
  1 33  1  0
  1 34  1  0
  4 35  1  0
  7 36  1  0
  8 37  1  0
  9 38  1  0
 11 39  1  0
 11 40  1  0
 12 41  1  0
 12 42  1  0
 13 43  1  0
 13 44  1  0
 14 45  1  0
 14 46  1  0
 16 47  1  0
 18 48  1  0
 19 49  1  0
 20 50  1  0
 21 51  1  0
 25 52  1  0
 28 53  1  0
 28 54  1  0
 28 55  1  0
 31 56  1  0
 31 57  1  0
 31 58  1  0
M  CHG  1  10   1
M  END
>  <UniqueID>  (11) 
11

>  <SMILES>  (11) 
COc1cc(-c2ccc[n+](CCCCc3cc4ccccc4o3)n2)cc(OC)c1OC

>  <Energy>  (11) 
92.93743271697966

>  <Genealogy>  (11) 
COc1cc(-c2ccc[n+](CCCCc3cc4ccccc4o3)n2)cc(OC)c1OC (3D coordinates assigned)
COc1cc(-c2ccc[n+](CCCCc3cc4ccccc4o3)n2)cc(OC)c1OC (optimized conformer: 92.93743271697966 kcal/mol)

>  <smiles>  (11) 
COc1cc(-c2ccc[n+](CCCCc3cc4ccccc4o3)n2)cc(OC)c1OC

>  <score_type>  (11) 
oracle

>  <origin>  (11) 
adg

>  <m_score__min__energy>  (11) 
-7.1399999999999997

>  <m_primary>  (11) 
energy

$$$$
11:0
     RDKit          3D

 29 31  0  0  0  0  0  0  0  0999 V2000
   55.3250   26.7610   45.9950 O   0  0  0  0  0  0  0  0  0  0  0  0
   56.6190   26.2720   46.0520 C   0  0  0  0  0  0  0  0  0  0  0  0
   56.8430   24.9320   46.3290 C   0  0  0  0  0  0  0  0  0  0  0  0
   58.1390   24.4080   46.3940 C   0  0  0  0  0  0  0  0  0  0  0  0
   59.2190   25.2430   46.1780 C   0  0  0  0  0  0  0  0  0  0  0  0
   59.0180   26.5830   45.9000 C   0  0  0  0  0  0  0  0  0  0  0  0
   57.7300   27.0910   45.8380 C   0  0  0  0  0  0  0  0  0  0  0  0
   57.4740   28.5140   45.5440 C   0  0  0  0  0  0  0  0  0  0  0  0
   56.4610   29.0450   44.8370 N   0  0  0  0  0  0  0  0  0  0  0  0
   56.6230   30.3650   44.8240 N   0  0  0  0  0  0  0  0  0  0  0  0
   57.7390   30.6650   45.5240 C   0  0  0  0  0  0  0  0  0  0  0  0
   58.2630   32.0070   45.7450 C   0  0  0  0  0  0  0  0  0  0  0  0
   58.7310   32.3690   46.9870 C   0  0  0  0  0  0  0  0  0  0  0  0
   59.2180   33.6500   47.1530 C   0  0  0  0  0  0  0  0  0  0  0  0
   59.2410   34.5610   46.0940 C   0  0  0  0  0  0  0  0  0  0  0  0
   59.7260   35.8250   46.2710 F   0  0  0  0  0  0  0  0  0  0  0  0
   58.7640   34.1790   44.8420 C   0  0  0  0  0  0  0  0  0  0  0  0
   58.2810   32.9020   44.6840 C   0  0  0  0  0  0  0  0  0  0  0  0
   58.2600   29.5100   45.9660 N   0  0  0  0  0  0  0  0  0  0  0  0
   55.1390   27.6010   45.4370 H   0  0  0  0  0  0  0  0  0  0  0  0
   55.9840   24.2669   46.5013 H   0  0  0  0  0  0  0  0  0  0  0  0
   58.2966   23.3420   46.6148 H   0  0  0  0  0  0  0  0  0  0  0  0
   60.2416   24.8407   46.2273 H   0  0  0  0  0  0  0  0  0  0  0  0
   59.8797   27.2449   45.7283 H   0  0  0  0  0  0  0  0  0  0  0  0
   55.9580   31.0070   44.3340 H   0  0  0  0  0  0  0  0  0  0  0  0
   58.7175   31.6569   47.8253 H   0  0  0  0  0  0  0  0  0  0  0  0
   59.5955   33.9597   48.1387 H   0  0  0  0  0  0  0  0  0  0  0  0
   58.7737   34.8844   43.9980 H   0  0  0  0  0  0  0  0  0  0  0  0
   57.9027   32.5841   43.7012 H   0  0  0  0  0  0  0  0  0  0  0  0
  1  2  1  0
  2  3  2  0
  3  4  1  0
  4  5  2  0
  5  6  1  0
  6  7  2  0
  7  8  1  0
  8  9  2  0
  9 10  1  0
 10 11  1  0
 11 12  1  0
 12 13  2  0
 13 14  1  0
 14 15  2  0
 15 16  1  0
 15 17  1  0
 17 18  2  0
 11 19  2  0
  7  2  1  0
 19  8  1  0
 18 12  1  0
  1 20  1  0
  3 21  1  0
  4 22  1  0
  5 23  1  0
  6 24  1  0
 10 25  1  0
 13 26  1  0
 14 27  1  0
 17 28  1  0
 18 29  1  0
M  END
>  <smiles>  (12) 
Oc1ccccc1-c1n[nH]c(-c2ccc(F)cc2)n1

>  <score_type>  (12) 
oracle

>  <origin>  (12) 
adg

>  <m_score__min__energy>  (12) 
-7.9500000000000002

>  <m_primary>  (12) 
energy

$$$$
12:0
     RDKit          3D

 40 42  0  0  0  0  0  0  0  0999 V2000
   60.9110   31.2610   46.4690 O   0  0  0  0  0  0  0  0  0  0  0  0
   60.4570   30.0830   47.0310 N   0  0  0  0  0  0  0  0  0  0  0  0
   60.6460   29.9110   48.3710 C   0  0  0  0  0  0  0  0  0  0  0  0
   60.2310   28.7370   49.0020 C   0  0  0  0  0  0  0  0  0  0  0  0
   59.6250   27.7340   48.2500 C   0  0  0  0  0  0  0  0  0  0  0  0
   59.4420   27.9120   46.8820 C   0  0  0  0  0  0  0  0  0  0  0  0
   59.8550   29.1060   46.2760 C   0  0  0  0  0  0  0  0  0  0  0  0
   59.6410   29.2820   44.4950 S   0  0  0  0  0  0  0  0  0  0  0  0
   57.8370   29.5770   44.5450 C   0  0  0  0  0  0  0  0  0  0  0  0
   57.5030   31.0660   44.6760 C   0  0  0  0  0  0  0  0  0  0  0  0
   58.4540   31.7420   45.4790 O   0  0  0  0  0  0  0  0  0  0  0  0
   57.8100   32.4640   46.5090 C   0  0  0  0  0  0  0  0  0  0  0  0
   57.3950   33.8300   45.9770 C   0  0  0  0  0  0  0  0  0  0  0  0
   58.7500   34.5870   45.0130 S   0  0  0  0  0  0  0  0  0  0  0  0
   60.0050   34.2990   46.2610 C   0  0  0  0  0  0  0  0  0  0  0  0
   61.2440   33.8370   45.9700 N   0  0  0  0  0  0  0  0  0  0  0  0
   61.9910   33.7190   47.0980 C   0  0  0  0  0  0  0  0  0  0  0  0
   63.3090   33.2600   47.1260 C   0  0  0  0  0  0  0  0  0  0  0  0
   63.9650   33.1710   48.3670 C   0  0  0  0  0  0  0  0  0  0  0  0
   63.3030   33.5450   49.5530 C   0  0  0  0  0  0  0  0  0  0  0  0
   61.9780   34.0090   49.5110 C   0  0  0  0  0  0  0  0  0  0  0  0
   61.3500   34.0850   48.2710 C   0  0  0  0  0  0  0  0  0  0  0  0
   59.7890   34.5870   47.9150 S   0  0  0  0  0  0  0  0  0  0  0  0
   60.3190   31.8660   45.9140 H   0  0  0  0  0  0  0  0  0  0  0  0
   61.1297   30.7045   48.9595 H   0  0  0  0  0  0  0  0  0  0  0  0
   60.3814   28.6054   50.0837 H   0  0  0  0  0  0  0  0  0  0  0  0
   59.2922   26.8046   48.7353 H   0  0  0  0  0  0  0  0  0  0  0  0
   58.9753   27.1190   46.2792 H   0  0  0  0  0  0  0  0  0  0  0  0
   57.3884   29.1926   43.6171 H   0  0  0  0  0  0  0  0  0  0  0  0
   57.4321   29.0589   45.4268 H   0  0  0  0  0  0  0  0  0  0  0  0
   57.4938   31.5199   43.6740 H   0  0  0  0  0  0  0  0  0  0  0  0
   56.5177   31.1580   45.1562 H   0  0  0  0  0  0  0  0  0  0  0  0
   56.9187   31.9128   46.8433 H   0  0  0  0  0  0  0  0  0  0  0  0
   58.4977   32.5907   47.3582 H   0  0  0  0  0  0  0  0  0  0  0  0
   56.5133   33.7128   45.3298 H   0  0  0  0  0  0  0  0  0  0  0  0
   57.1589   34.4844   46.8291 H   0  0  0  0  0  0  0  0  0  0  0  0
   63.8238   32.9739   46.1970 H   0  0  0  0  0  0  0  0  0  0  0  0
   65.0020   32.8069   48.4118 H   0  0  0  0  0  0  0  0  0  0  0  0
   63.8269   33.4732   50.5176 H   0  0  0  0  0  0  0  0  0  0  0  0
   61.4519   34.3037   50.4310 H   0  0  0  0  0  0  0  0  0  0  0  0
  1  2  1  0
  2  3  2  0
  3  4  1  0
  4  5  2  0
  5  6  1  0
  6  7  2  0
  7  8  1  0
  8  9  1  0
  9 10  1  0
 10 11  1  0
 11 12  1  0
 12 13  1  0
 13 14  1  0
 14 15  1  0
 15 16  2  0
 16 17  1  0
 17 18  2  0
 18 19  1  0
 19 20  2  0
 20 21  1  0
 21 22  2  0
 22 23  1  0
  7  2  1  0
 23 15  1  0
 22 17  1  0
  1 24  1  0
  3 25  1  0
  4 26  1  0
  5 27  1  0
  6 28  1  0
  9 29  1  0
  9 30  1  0
 10 31  1  0
 10 32  1  0
 12 33  1  0
 12 34  1  0
 13 35  1  0
 13 36  1  0
 18 37  1  0
 19 38  1  0
 20 39  1  0
 21 40  1  0
M  CHG  1   2   1
M  END
>  <UniqueID>  (13) 
12

>  <SMILES>  (13) 
O[n+]1ccccc1SCCOCCSc1nc2ccccc2s1

>  <Energy>  (13) 
65.01726807460165

>  <Genealogy>  (13) 
O[n+]1ccccc1SCCOCCSc1nc2ccccc2s1 (protonated)
O[n+]1ccccc1SCCOCCSc1nc2ccccc2s1 (3D coordinates assigned)
O[n+]1ccccc1SCCOCCSc1nc2ccccc2s1 (optimized conformer: 65.01726807460165 kcal/mol)

>  <smiles>  (13) 
[O-][n+]1ccccc1SCCOCCSc1nc2ccccc2s1

>  <score_type>  (13) 
oracle

>  <origin>  (13) 
adg

>  <m_score__min__energy>  (13) 
-6.9000000000000004

>  <m_primary>  (13) 
energy

$$$$
13:0
     RDKit          3D

 67 71  0  0  0  0  0  0  0  0999 V2000
   56.6810   20.6860   43.0010 C   0  0  0  0  0  0  0  0  0  0  0  0
   55.9350   21.8150   43.4430 O   0  0  0  0  0  0  0  0  0  0  0  0
   56.5030   22.9630   44.0150 C   0  0  0  0  0  0  0  0  0  0  0  0
   56.8270   24.1050   43.2570 C   0  0  0  0  0  0  0  0  0  0  0  0
   57.3930   25.2230   43.8740 C   0  0  0  0  0  0  0  0  0  0  0  0
   57.6400   25.2190   45.2530 C   0  0  0  0  0  0  0  0  0  0  0  0
   58.3990   26.6100   46.0200 S   0  0  0  0  0  0  0  0  0  0  0  0
   59.5660   26.1470   46.8470 O   0  0  0  0  0  0  0  0  0  0  0  0
   57.4170   27.3010   46.9240 O   0  0  0  0  0  0  0  0  0  0  0  0
   58.9600   27.7230   44.8210 N   0  0  0  0  0  0  0  0  0  0  0  0
   58.2710   28.9480   44.5650 C   0  0  0  0  0  0  0  0  0  0  0  0
   57.2780   28.9780   43.5760 C   0  0  0  0  0  0  0  0  0  0  0  0
   56.5350   30.1390   43.3570 C   0  0  0  0  0  0  0  0  0  0  0  0
   56.7770   31.2780   44.1240 C   0  0  0  0  0  0  0  0  0  0  0  0
   57.7710   31.2630   45.1070 C   0  0  0  0  0  0  0  0  0  0  0  0
   58.5410   30.1080   45.3270 C   0  0  0  0  0  0  0  0  0  0  0  0
   59.5770   30.1390   46.3850 C   0  0  0  0  0  0  0  0  0  0  0  0
   59.7980   29.1590   47.2870 N   0  0  0  0  0  0  0  0  0  0  0  0
   60.8280   29.5970   48.0300 C   0  0  0  0  0  0  0  0  0  0  0  0
   61.2070   30.8370   47.5480 C   0  0  0  0  0  0  0  0  0  0  0  0
   62.2990   31.7080   48.0380 C   0  0  0  0  0  0  0  0  0  0  0  0
   62.7080   32.8070   47.2650 C   0  0  0  0  0  0  0  0  0  0  0  0
   63.7410   33.6380   47.7060 C   0  0  0  0  0  0  0  0  0  0  0  0
   64.3760   33.3840   48.9230 C   0  0  0  0  0  0  0  0  0  0  0  0
   63.9770   32.2950   49.7130 C   0  0  0  0  0  0  0  0  0  0  0  0
   64.6640   32.0050   51.0220 C   0  0  0  0  0  0  0  0  0  0  0  0
   65.3620   30.7050   50.9600 N   0  0  0  0  0  0  0  0  0  0  0  0
   64.6780   29.7120   51.8160 C   0  0  0  0  0  0  0  0  0  0  0  0
   65.5080   28.4220   51.9720 C   0  0  0  0  0  0  0  0  0  0  0  0
   66.5810   28.3780   50.9630 N   0  0  0  0  0  0  0  0  0  0  0  0
   67.2990   27.0960   51.0320 C   0  0  0  0  0  0  0  0  0  0  0  0
   67.5210   29.5020   51.1620 C   0  0  0  0  0  0  0  0  0  0  0  0
   66.7750   30.8370   51.3680 C   0  0  0  0  0  0  0  0  0  0  0  0
   62.9400   31.4590   49.2660 C   0  0  0  0  0  0  0  0  0  0  0  0
   60.4220   31.1360   46.5370 O   0  0  0  0  0  0  0  0  0  0  0  0
   57.3250   24.0830   46.0080 C   0  0  0  0  0  0  0  0  0  0  0  0
   56.7570   22.9640   45.3920 C   0  0  0  0  0  0  0  0  0  0  0  0
   57.0507   20.1266   43.8730 H   0  0  0  0  0  0  0  0  0  0  0  0
   56.0351   20.0344   42.3942 H   0  0  0  0  0  0  0  0  0  0  0  0
   57.5337   21.0247   42.3942 H   0  0  0  0  0  0  0  0  0  0  0  0
   56.6334   24.1165   42.1742 H   0  0  0  0  0  0  0  0  0  0  0  0
   57.6458   26.1101   43.2748 H   0  0  0  0  0  0  0  0  0  0  0  0
   57.0833   28.0815   42.9691 H   0  0  0  0  0  0  0  0  0  0  0  0
   55.7579   30.1555   42.5787 H   0  0  0  0  0  0  0  0  0  0  0  0
   56.1850   32.1897   43.9554 H   0  0  0  0  0  0  0  0  0  0  0  0
   57.9520   32.1628   45.7134 H   0  0  0  0  0  0  0  0  0  0  0  0
   59.3210   28.2360   47.3740 H   0  0  0  0  0  0  0  0  0  0  0  0
   61.2892   29.0631   48.8739 H   0  0  0  0  0  0  0  0  0  0  0  0
   62.2116   33.0149   46.3057 H   0  0  0  0  0  0  0  0  0  0  0  0
   64.0549   34.4952   47.0923 H   0  0  0  0  0  0  0  0  0  0  0  0
   65.1913   34.0392   49.2636 H   0  0  0  0  0  0  0  0  0  0  0  0
   65.3954   32.7995   51.2313 H   0  0  0  0  0  0  0  0  0  0  0  0
   63.9086   31.9667   51.8207 H   0  0  0  0  0  0  0  0  0  0  0  0
   64.5139   30.1522   52.8106 H   0  0  0  0  0  0  0  0  0  0  0  0
   63.7231   29.4484   51.3378 H   0  0  0  0  0  0  0  0  0  0  0  0
   65.9541   28.3971   52.9772 H   0  0  0  0  0  0  0  0  0  0  0  0
   64.8483   27.5532   51.8303 H   0  0  0  0  0  0  0  0  0  0  0  0
   67.4542   26.8189   52.0852 H   0  0  0  0  0  0  0  0  0  0  0  0
   66.7062   26.3163   50.5312 H   0  0  0  0  0  0  0  0  0  0  0  0
   68.2735   27.1941   50.5312 H   0  0  0  0  0  0  0  0  0  0  0  0
   68.1389   29.2978   52.0489 H   0  0  0  0  0  0  0  0  0  0  0  0
   68.1450   29.5922   50.2606 H   0  0  0  0  0  0  0  0  0  0  0  0
   66.8208   31.1176   52.4306 H   0  0  0  0  0  0  0  0  0  0  0  0
   67.2536   31.6122   50.7515 H   0  0  0  0  0  0  0  0  0  0  0  0
   62.6264   30.6026   49.8810 H   0  0  0  0  0  0  0  0  0  0  0  0
   57.5251   24.0708   47.0896 H   0  0  0  0  0  0  0  0  0  0  0  0
   56.5077   22.0775   45.9936 H   0  0  0  0  0  0  0  0  0  0  0  0
  1  2  1  0
  2  3  1  0
  3  4  2  0
  4  5  1  0
  5  6  2  0
  6  7  1  0
  7  8  2  0
  7  9  2  0
  7 10  1  0
 10 11  1  0
 11 12  2  0
 12 13  1  0
 13 14  2  0
 14 15  1  0
 15 16  2  0
 16 17  1  0
 17 18  2  0
 18 19  1  0
 19 20  2  0
 20 21  1  0
 21 22  2  0
 22 23  1  0
 23 24  2  0
 24 25  1  0
 25 26  1  0
 26 27  1  0
 27 28  1  0
 28 29  1  0
 29 30  1  0
 30 31  1  0
 30 32  1  0
 32 33  1  0
 25 34  2  0
 20 35  1  0
  6 36  1  0
 36 37  2  0
 37  3  1  0
 16 11  1  0
 35 17  1  0
 34 21  1  0
 33 27  1  0
  1 38  1  0
  1 39  1  0
  1 40  1  0
  4 41  1  0
  5 42  1  0
 12 43  1  0
 13 44  1  0
 14 45  1  0
 15 46  1  0
 18 47  1  0
 19 48  1  0
 22 49  1  0
 23 50  1  0
 24 51  1  0
 26 52  1  0
 26 53  1  0
 28 54  1  0
 28 55  1  0
 29 56  1  0
 29 57  1  0
 31 58  1  0
 31 59  1  0
 31 60  1  0
 32 61  1  0
 32 62  1  0
 33 63  1  0
 33 64  1  0
 34 65  1  0
 36 66  1  0
 37 67  1  0
M  CHG  2  10  -1  18   1
M  END
>  <UniqueID>  (14) 
13

>  <SMILES>  (14) 
COc1ccc(S(=O)(=O)[N-]c2ccccc2-c2[nH+]cc(-c3cccc(CN4CCN(C)CC4)c3)o2)cc1

>  <Energy>  (14) 
122.77968567741277

>  <Genealogy>  (14) 
COc1ccc(S(=O)(=O)[N-]c2ccccc2-c2[nH+]cc(-c3cccc(CN4CCN(C)CC4)c3)o2)cc1 (protonated)
COc1ccc(S(=O)(=O)[N-]c2ccccc2-c2[nH+]cc(-c3cccc(CN4CCN(C)CC4)c3)o2)cc1 (3D coordinates assigned)
COc1ccc(S(=O)(=O)[N-]c2ccccc2-c2[nH+]cc(-c3cccc(CN4CCN(C)CC4)c3)o2)cc1 (nonaromatic ring conformer: 122.77968567741277 kcal/mol)

>  <smiles>  (14) 
COc1ccc(S(=O)(=O)Nc2ccccc2-c2ncc(-c3cccc(CN4CCN(C)CC4)c3)o2)cc1

>  <score_type>  (14) 
oracle

>  <origin>  (14) 
adg

>  <m_score__min__energy>  (14) 
-9.5800000000000001

>  <m_primary>  (14) 
energy

$$$$
14:0
     RDKit          3D

 46 48  0  0  0  0  0  0  0  0999 V2000
   56.6290   25.5270   46.7120 C   0  0  0  0  0  0  0  0  0  0  0  0
   56.9320   26.5530   45.6270 C   0  0  0  0  0  0  0  0  0  0  0  0
   55.9020   27.5950   45.6140 N   0  0  0  0  0  0  0  0  0  0  0  0
   56.4560   29.0230   44.7910 S   0  0  0  0  0  0  0  0  0  0  0  0
   57.0350   28.6310   43.4610 O   0  0  0  0  0  0  0  0  0  0  0  0
   55.2950   29.9490   44.5470 O   0  0  0  0  0  0  0  0  0  0  0  0
   57.6950   29.8420   45.7380 C   0  0  0  0  0  0  0  0  0  0  0  0
   58.2840   29.1880   46.8260 C   0  0  0  0  0  0  0  0  0  0  0  0
   59.2460   29.8400   47.6030 C   0  0  0  0  0  0  0  0  0  0  0  0
   59.6310   31.1590   47.3040 C   0  0  0  0  0  0  0  0  0  0  0  0
   60.6500   31.8550   48.1300 C   0  0  0  0  0  0  0  0  0  0  0  0
   60.2760   32.4950   49.3420 C   0  0  0  0  0  0  0  0  0  0  0  0
   61.2350   33.1620   50.1460 C   0  0  0  0  0  0  0  0  0  0  0  0
   60.8930   33.8020   51.3450 O   0  0  0  0  0  0  0  0  0  0  0  0
   59.5980   33.7750   51.9330 C   0  0  0  0  0  0  0  0  0  0  0  0
   62.5620   33.1620   49.6910 C   0  0  0  0  0  0  0  0  0  0  0  0
   62.9190   32.5440   48.5250 C   0  0  0  0  0  0  0  0  0  0  0  0
   62.0010   31.8830   47.7170 C   0  0  0  0  0  0  0  0  0  0  0  0
   64.2410   32.6720   48.3260 N   0  0  0  0  0  0  0  0  0  0  0  0
   64.6760   33.3780   49.3940 C   0  0  0  0  0  0  0  0  0  0  0  0
   63.6720   33.7010   50.2470 N   0  0  0  0  0  0  0  0  0  0  0  0
   63.8320   34.4130   51.5180 C   0  0  0  0  0  0  0  0  0  0  0  0
   63.8980   33.4320   52.6900 C   0  0  0  0  0  0  0  0  0  0  0  0
   62.9110   33.7300   53.6110 F   0  0  0  0  0  0  0  0  0  0  0  0
   65.1330   33.5020   53.3100 F   0  0  0  0  0  0  0  0  0  0  0  0
   63.7040   32.1440   52.2230 F   0  0  0  0  0  0  0  0  0  0  0  0
   59.0330   31.8100   46.2090 C   0  0  0  0  0  0  0  0  0  0  0  0
   58.0710   31.1570   45.4350 C   0  0  0  0  0  0  0  0  0  0  0  0
   56.7652   25.9884   47.7012 H   0  0  0  0  0  0  0  0  0  0  0  0
   55.5901   25.1804   46.6090 H   0  0  0  0  0  0  0  0  0  0  0  0
   57.3129   24.6716   46.6090 H   0  0  0  0  0  0  0  0  0  0  0  0
   57.9115   27.0128   45.8250 H   0  0  0  0  0  0  0  0  0  0  0  0
   56.9446   26.0486   44.6495 H   0  0  0  0  0  0  0  0  0  0  0  0
   57.9889   28.1570   47.0707 H   0  0  0  0  0  0  0  0  0  0  0  0
   59.7053   29.3172   48.4549 H   0  0  0  0  0  0  0  0  0  0  0  0
   59.2239   32.4727   49.6624 H   0  0  0  0  0  0  0  0  0  0  0  0
   59.6928   33.7770   53.0289 H   0  0  0  0  0  0  0  0  0  0  0  0
   59.0312   34.6615   51.6124 H   0  0  0  0  0  0  0  0  0  0  0  0
   59.0686   32.8656   51.6124 H   0  0  0  0  0  0  0  0  0  0  0  0
   62.3173   31.3957   46.7829 H   0  0  0  0  0  0  0  0  0  0  0  0
   64.8100   32.3010   47.5330 H   0  0  0  0  0  0  0  0  0  0  0  0
   65.7274   33.6592   49.5534 H   0  0  0  0  0  0  0  0  0  0  0  0
   64.7618   35.0000   51.4872 H   0  0  0  0  0  0  0  0  0  0  0  0
   62.9644   35.0737   51.6618 H   0  0  0  0  0  0  0  0  0  0  0  0
   59.3254   32.8410   45.9608 H   0  0  0  0  0  0  0  0  0  0  0  0
   57.6068   31.6773   44.5842 H   0  0  0  0  0  0  0  0  0  0  0  0
  1  2  1  0
  2  3  1  0
  3  4  1  0
  4  5  2  0
  4  6  2  0
  4  7  1  0
  7  8  2  0
  8  9  1  0
  9 10  2  0
 10 11  1  0
 11 12  2  0
 12 13  1  0
 13 14  1  0
 14 15  1  0
 13 16  2  0
 16 17  1  0
 17 18  2  0
 17 19  1  0
 19 20  2  0
 20 21  1  0
 21 22  1  0
 22 23  1  0
 23 24  1  0
 23 25  1  0
 23 26  1  0
 10 27  1  0
 27 28  2  0
 28  7  1  0
 18 11  1  0
 21 16  1  0
  1 29  1  0
  1 30  1  0
  1 31  1  0
  2 32  1  0
  2 33  1  0
  8 34  1  0
  9 35  1  0
 12 36  1  0
 15 37  1  0
 15 38  1  0
 15 39  1  0
 18 40  1  0
 19 41  1  0
 20 42  1  0
 22 43  1  0
 22 44  1  0
 27 45  1  0
 28 46  1  0
M  CHG  2   3  -1  19   1
M  END
>  <UniqueID>  (15) 
14

>  <SMILES>  (15) 
CC[N-]S(=O)(=O)c1ccc(-c2cc(OC)c3c(c2)[nH+]cn3CC(F)(F)F)cc1

>  <Energy>  (15) 
85.57061256656449

>  <Genealogy>  (15) 
CC[N-]S(=O)(=O)c1ccc(-c2cc(OC)c3c(c2)[nH+]cn3CC(F)(F)F)cc1 (protonated)
CC[N-]S(=O)(=O)c1ccc(-c2cc(OC)c3c(c2)[nH+]cn3CC(F)(F)F)cc1 (3D coordinates assigned)
CC[N-]S(=O)(=O)c1ccc(-c2cc(OC)c3c(c2)[nH+]cn3CC(F)(F)F)cc1 (optimized conformer: 85.57061256656449 kcal/mol)

>  <smiles>  (15) 
CCNS(=O)(=O)c1ccc(-c2cc(OC)c3c(c2)ncn3CC(F)(F)F)cc1

>  <score_type>  (15) 
oracle

>  <origin>  (15) 
adg

>  <m_score__min__energy>  (15) 
-7.1399999999999997

>  <m_primary>  (15) 
energy

$$$$
15:0
     RDKit          3D

 61 65  0  0  0  0  0  0  0  0999 V2000
   59.8020   33.9010   49.6240 C   0  0  0  0  0  0  0  0  0  0  0  0
   59.5700   34.6990   48.4660 O   0  0  0  0  0  0  0  0  0  0  0  0
   59.1130   34.1960   47.2390 C   0  0  0  0  0  0  0  0  0  0  0  0
   57.9050   33.4810   47.1180 C   0  0  0  0  0  0  0  0  0  0  0  0
   57.4910   33.0030   45.8710 C   0  0  0  0  0  0  0  0  0  0  0  0
   58.2740   33.2300   44.7290 C   0  0  0  0  0  0  0  0  0  0  0  0
   57.8290   32.7270   43.3810 C   0  0  0  0  0  0  0  0  0  0  0  0
   57.6690   31.2590   43.4050 N   0  0  0  0  0  0  0  0  0  0  0  0
   56.2850   30.8780   43.7480 C   0  0  0  0  0  0  0  0  0  0  0  0
   56.0670   29.3720   43.5290 C   0  0  0  0  0  0  0  0  0  0  0  0
   57.3860   28.5820   43.5370 C   0  0  0  0  0  0  0  0  0  0  0  0
   58.3820   29.1160   44.6020 C   0  0  0  0  0  0  0  0  0  0  0  0
   59.7010   28.3100   44.4810 C   0  0  0  0  0  0  0  0  0  0  0  0
   60.7660   28.7960   45.4800 C   0  0  0  0  0  0  0  0  0  0  0  0
   60.1670   29.2430   46.7460 N   0  0  0  0  0  0  0  0  0  0  0  0
   60.9770   30.0130   47.6580 C   0  0  0  0  0  0  0  0  0  0  0  0
   61.0310   29.7120   49.0310 C   0  0  0  0  0  0  0  0  0  0  0  0
   61.8110   30.4570   49.8600 N   0  0  0  0  0  0  0  0  0  0  0  0
   62.5530   31.4960   49.3800 C   0  0  0  0  0  0  0  0  0  0  0  0
   63.3590   32.2670   50.2320 C   0  0  0  0  0  0  0  0  0  0  0  0
   64.1130   33.3240   49.7110 C   0  0  0  0  0  0  0  0  0  0  0  0
   64.0670   33.6160   48.3430 C   0  0  0  0  0  0  0  0  0  0  0  0
   63.2670   32.8520   47.4870 C   0  0  0  0  0  0  0  0  0  0  0  0
   62.5100   31.7920   48.0020 C   0  0  0  0  0  0  0  0  0  0  0  0
   61.7280   31.0440   47.1830 N   0  0  0  0  0  0  0  0  0  0  0  0
   58.8480   28.7330   47.1500 C   0  0  0  0  0  0  0  0  0  0  0  0
   57.7940   28.8760   46.0310 C   0  0  0  0  0  0  0  0  0  0  0  0
   58.6360   30.6490   44.3490 C   0  0  0  0  0  0  0  0  0  0  0  0
   59.4780   33.9420   44.8510 C   0  0  0  0  0  0  0  0  0  0  0  0
   59.8910   34.4200   46.0970 C   0  0  0  0  0  0  0  0  0  0  0  0
   59.6265   34.5048   50.5266 H   0  0  0  0  0  0  0  0  0  0  0  0
   59.1169   33.0404   49.6196 H   0  0  0  0  0  0  0  0  0  0  0  0
   60.8417   33.5419   49.6196 H   0  0  0  0  0  0  0  0  0  0  0  0
   57.2851   33.2981   48.0081 H   0  0  0  0  0  0  0  0  0  0  0  0
   56.5464   32.4460   45.7848 H   0  0  0  0  0  0  0  0  0  0  0  0
   56.8668   33.1920   43.1205 H   0  0  0  0  0  0  0  0  0  0  0  0
   58.5915   32.9901   42.6331 H   0  0  0  0  0  0  0  0  0  0  0  0
   56.0945   31.1209   44.8038 H   0  0  0  0  0  0  0  0  0  0  0  0
   55.5932   31.4341   43.0982 H   0  0  0  0  0  0  0  0  0  0  0  0
   55.4204   28.9882   44.3318 H   0  0  0  0  0  0  0  0  0  0  0  0
   55.6030   29.2404   42.5404 H   0  0  0  0  0  0  0  0  0  0  0  0
   57.1657   27.5266   43.7554 H   0  0  0  0  0  0  0  0  0  0  0  0
   57.8546   28.6964   42.5484 H   0  0  0  0  0  0  0  0  0  0  0  0
   59.4881   27.2487   44.6768 H   0  0  0  0  0  0  0  0  0  0  0  0
   60.0964   28.4550   43.4648 H   0  0  0  0  0  0  0  0  0  0  0  0
   61.4618   27.9698   45.6880 H   0  0  0  0  0  0  0  0  0  0  0  0
   61.2900   29.6521   45.0299 H   0  0  0  0  0  0  0  0  0  0  0  0
   60.4427   28.8745   49.4342 H   0  0  0  0  0  0  0  0  0  0  0  0
   61.8390   30.2160   50.8770 H   0  0  0  0  0  0  0  0  0  0  0  0
   63.3978   32.0405   51.3077 H   0  0  0  0  0  0  0  0  0  0  0  0
   64.7445   33.9280   50.3792 H   0  0  0  0  0  0  0  0  0  0  0  0
   64.6618   34.4488   47.9398 H   0  0  0  0  0  0  0  0  0  0  0  0
   63.2324   33.0830   46.4121 H   0  0  0  0  0  0  0  0  0  0  0  0
   58.9452   27.6686   47.4099 H   0  0  0  0  0  0  0  0  0  0  0  0
   58.5072   29.3282   48.0100 H   0  0  0  0  0  0  0  0  0  0  0  0
   57.1961   27.9531   46.0043 H   0  0  0  0  0  0  0  0  0  0  0  0
   57.2020   29.7702   46.2761 H   0  0  0  0  0  0  0  0  0  0  0  0
   58.5646   31.1775   45.3111 H   0  0  0  0  0  0  0  0  0  0  0  0
   59.6341   30.7420   43.8961 H   0  0  0  0  0  0  0  0  0  0  0  0
   60.0989   34.1242   43.9614 H   0  0  0  0  0  0  0  0  0  0  0  0
   60.8357   34.9772   46.1815 H   0  0  0  0  0  0  0  0  0  0  0  0
  1  2  1  0
  2  3  1  0
  3  4  2  0
  4  5  1  0
  5  6  2  0
  6  7  1  0
  7  8  1  0
  8  9  1  0
  9 10  1  0
 10 11  1  0
 11 12  1  0
 12 13  1  0
 13 14  1  0
 14 15  1  0
 15 16  1  0
 16 17  2  0
 17 18  1  0
 18 19  2  0
 19 20  1  0
 20 21  2  0
 21 22  1  0
 22 23  2  0
 23 24  1  0
 24 25  2  0
 15 26  1  0
 26 27  1  0
 12 28  1  0
  6 29  1  0
 29 30  2  0
 30  3  1  0
 28  8  1  0
 27 12  1  0
 25 16  1  0
 24 19  1  0
  1 31  1  0
  1 32  1  0
  1 33  1  0
  4 34  1  0
  5 35  1  0
  7 36  1  0
  7 37  1  0
  9 38  1  0
  9 39  1  0
 10 40  1  0
 10 41  1  0
 11 42  1  0
 11 43  1  0
 13 44  1  0
 13 45  1  0
 14 46  1  0
 14 47  1  0
 17 48  1  0
 18 49  1  0
 20 50  1  0
 21 51  1  0
 22 52  1  0
 23 53  1  0
 26 54  1  0
 26 55  1  0
 27 56  1  0
 27 57  1  0
 28 58  1  0
 28 59  1  0
 29 60  1  0
 30 61  1  0
M  CHG  1  18   1
M  END
>  <UniqueID>  (16) 
15

>  <SMILES>  (16) 
COc1ccc(CN2CCCC3(CCN(c4c[nH+]c5ccccc5n4)CC3)C2)cc1

>  <Energy>  (16) 
84.40682567932328

>  <Genealogy>  (16) 
COc1ccc(CN2CCCC3(CCN(c4c[nH+]c5ccccc5n4)CC3)C2)cc1 (protonated)
COc1ccc(CN2CCCC3(CCN(c4c[nH+]c5ccccc5n4)CC3)C2)cc1 (3D coordinates assigned)
COc1ccc(CN2CCCC3(CCN(c4c[nH+]c5ccccc5n4)CC3)C2)cc1 (nonaromatic ring conformer: 84.40682567932328 kcal/mol)

>  <smiles>  (16) 
COc1ccc(CN2CCCC3(CCN(c4cnc5ccccc5n4)CC3)C2)cc1

>  <score_type>  (16) 
oracle

>  <origin>  (16) 
adg

>  <m_score__min__energy>  (16) 
-8.5800000000000001

>  <m_primary>  (16) 
energy

$$$$
16:0
     RDKit          3D

 33 34  0  0  0  0  0  0  0  0999 V2000
   63.6230   32.7060   47.1220 C   0  0  0  0  0  0  0  0  0  0  0  0
   62.5430   33.7910   47.0010 C   0  0  0  0  0  0  0  0  0  0  0  0
   61.2400   33.2960   46.5040 N   0  0  0  0  0  0  0  0  0  0  0  0
   60.6360   32.2640   47.3820 C   0  0  0  0  0  0  0  0  0  0  0  0
   59.1200   32.1020   47.1600 C   0  0  0  0  0  0  0  0  0  0  0  0
   58.7580   32.4670   45.7850 N   0  0  0  0  0  0  0  0  0  0  0  0
   57.9780   31.5780   44.9610 C   0  0  0  0  0  0  0  0  0  0  0  0
   57.8450   31.8160   43.5830 C   0  0  0  0  0  0  0  0  0  0  0  0
   57.0960   30.9460   42.7850 C   0  0  0  0  0  0  0  0  0  0  0  0
   56.4790   29.8290   43.3520 C   0  0  0  0  0  0  0  0  0  0  0  0
   56.6110   29.5730   44.7210 C   0  0  0  0  0  0  0  0  0  0  0  0
   55.9990   28.4510   45.2730 O   0  0  0  0  0  0  0  0  0  0  0  0
   57.3610   30.4460   45.5240 C   0  0  0  0  0  0  0  0  0  0  0  0
   59.1870   33.7710   45.2580 C   0  0  0  0  0  0  0  0  0  0  0  0
   60.3020   34.3670   46.1230 C   0  0  0  0  0  0  0  0  0  0  0  0
   63.8232   32.5049   48.1848 H   0  0  0  0  0  0  0  0  0  0  0  0
   63.2731   31.7844   46.6340 H   0  0  0  0  0  0  0  0  0  0  0  0
   64.5462   33.0516   46.6340 H   0  0  0  0  0  0  0  0  0  0  0  0
   62.3870   34.2351   47.9952 H   0  0  0  0  0  0  0  0  0  0  0  0
   62.9076   34.5194   46.2618 H   0  0  0  0  0  0  0  0  0  0  0  0
   61.1256   31.3001   47.1792 H   0  0  0  0  0  0  0  0  0  0  0  0
   60.7850   32.5872   48.4228 H   0  0  0  0  0  0  0  0  0  0  0  0
   58.8377   31.0546   47.3424 H   0  0  0  0  0  0  0  0  0  0  0  0
   58.5864   32.7662   47.8558 H   0  0  0  0  0  0  0  0  0  0  0  0
   58.3327   32.6914   43.1294 H   0  0  0  0  0  0  0  0  0  0  0  0
   56.9925   31.1420   41.7076 H   0  0  0  0  0  0  0  0  0  0  0  0
   55.8880   29.1490   42.7209 H   0  0  0  0  0  0  0  0  0  0  0  0
   55.1360   28.0770   44.8920 H   0  0  0  0  0  0  0  0  0  0  0  0
   57.4671   30.2439   46.6001 H   0  0  0  0  0  0  0  0  0  0  0  0
   59.5582   33.6404   44.2308 H   0  0  0  0  0  0  0  0  0  0  0  0
   58.3268   34.4565   45.2700 H   0  0  0  0  0  0  0  0  0  0  0  0
   60.8375   35.1402   45.5526 H   0  0  0  0  0  0  0  0  0  0  0  0
   59.8685   34.8195   47.0270 H   0  0  0  0  0  0  0  0  0  0  0  0
  1  2  1  0
  2  3  1  0
  3  4  1  0
  4  5  1  0
  5  6  1  0
  6  7  1  0
  7  8  2  0
  8  9  1  0
  9 10  2  0
 10 11  1  0
 11 12  1  0
 11 13  2  0
  6 14  1  0
 14 15  1  0
 15  3  1  0
 13  7  1  0
  1 16  1  0
  1 17  1  0
  1 18  1  0
  2 19  1  0
  2 20  1  0
  4 21  1  0
  4 22  1  0
  5 23  1  0
  5 24  1  0
  8 25  1  0
  9 26  1  0
 10 27  1  0
 12 28  1  0
 13 29  1  0
 14 30  1  0
 14 31  1  0
 15 32  1  0
 15 33  1  0
M  END
>  <UniqueID>  (17) 
16

>  <SMILES>  (17) 
CCN1CCN(c2cccc(O)c2)CC1

>  <Energy>  (17) 
42.52558184528363

>  <Genealogy>  (17) 
CCN1CCN(c2cccc(O)c2)CC1 (3D coordinates assigned)
CCN1CCN(c2cccc(O)c2)CC1 (nonaromatic ring conformer: 42.52558184528363 kcal/mol)

>  <smiles>  (17) 
CCN1CCN(c2cccc(O)c2)CC1

>  <score_type>  (17) 
oracle

>  <origin>  (17) 
adg

>  <m_score__min__energy>  (17) 
-6.8099999999999996

>  <m_primary>  (17) 
energy

$$$$
17:0
     RDKit          3D

 36 38  0  0  0  0  0  0  0  0999 V2000
   60.2160   30.4070   48.4090 C   0  0  0  0  0  0  0  0  0  0  0  0
   59.8840   31.5100   49.3760 C   0  0  0  0  0  0  0  0  0  0  0  0
   58.9720   31.2700   50.4180 C   0  0  0  0  0  0  0  0  0  0  0  0
   58.6460   32.2840   51.3210 C   0  0  0  0  0  0  0  0  0  0  0  0
   59.2320   33.5450   51.2000 C   0  0  0  0  0  0  0  0  0  0  0  0
   60.1520   33.7930   50.1800 C   0  0  0  0  0  0  0  0  0  0  0  0
   60.4910   32.7820   49.2680 C   0  0  0  0  0  0  0  0  0  0  0  0
   61.4510   33.0600   48.2370 N   0  0  0  0  0  0  0  0  0  0  0  0
   62.7450   32.6830   48.2480 C   0  0  0  0  0  0  0  0  0  0  0  0
   63.3770   33.1490   47.1120 C   0  0  0  0  0  0  0  0  0  0  0  0
   62.4280   33.8390   46.3820 C   0  0  0  0  0  0  0  0  0  0  0  0
   61.2540   33.7660   47.1040 C   0  0  0  0  0  0  0  0  0  0  0  0
   59.7150   34.4500   46.5920 S   0  0  0  0  0  0  0  0  0  0  0  0
   58.9020   34.8420   47.7950 O   0  0  0  0  0  0  0  0  0  0  0  0
   59.9610   35.6700   45.7500 O   0  0  0  0  0  0  0  0  0  0  0  0
   58.8130   33.2510   45.6700 C   0  0  0  0  0  0  0  0  0  0  0  0
   58.4770   33.4900   44.3290 C   0  0  0  0  0  0  0  0  0  0  0  0
   57.7810   32.5230   43.5980 C   0  0  0  0  0  0  0  0  0  0  0  0
   57.4210   31.3120   44.1990 C   0  0  0  0  0  0  0  0  0  0  0  0
   56.5490   30.0990   43.2790 Cl  0  0  0  0  0  0  0  0  0  0  0  0
   57.7620   31.0680   45.5330 C   0  0  0  0  0  0  0  0  0  0  0  0
   58.4580   32.0320   46.2670 C   0  0  0  0  0  0  0  0  0  0  0  0
   60.4891   29.4996   48.9676 H   0  0  0  0  0  0  0  0  0  0  0  0
   59.3408   30.1985   47.7761 H   0  0  0  0  0  0  0  0  0  0  0  0
   61.0609   30.7162   47.7761 H   0  0  0  0  0  0  0  0  0  0  0  0
   58.5118   30.2764   50.5230 H   0  0  0  0  0  0  0  0  0  0  0  0
   57.9259   32.0886   52.1293 H   0  0  0  0  0  0  0  0  0  0  0  0
   58.9686   34.3438   51.9089 H   0  0  0  0  0  0  0  0  0  0  0  0
   60.6141   34.7872   50.0906 H   0  0  0  0  0  0  0  0  0  0  0  0
   63.2254   32.0929   49.0424 H   0  0  0  0  0  0  0  0  0  0  0  0
   64.4325   32.9997   46.8405 H   0  0  0  0  0  0  0  0  0  0  0  0
   62.5784   34.3457   45.4173 H   0  0  0  0  0  0  0  0  0  0  0  0
   58.7616   34.4396   43.8522 H   0  0  0  0  0  0  0  0  0  0  0  0
   57.5157   32.7146   42.5478 H   0  0  0  0  0  0  0  0  0  0  0  0
   57.4817   30.1151   46.0056 H   0  0  0  0  0  0  0  0  0  0  0  0
   58.7281   31.8348   47.3149 H   0  0  0  0  0  0  0  0  0  0  0  0
  1  2  1  0
  2  3  2  0
  3  4  1  0
  4  5  2  0
  5  6  1  0
  6  7  2  0
  7  8  1  0
  8  9  1  0
  9 10  2  0
 10 11  1  0
 11 12  2  0
 12 13  1  0
 13 14  2  0
 13 15  2  0
 13 16  1  0
 16 17  2  0
 17 18  1  0
 18 19  2  0
 19 20  1  0
 19 21  1  0
 21 22  2  0
  7  2  1  0
 12  8  1  0
 22 16  1  0
  1 23  1  0
  1 24  1  0
  1 25  1  0
  3 26  1  0
  4 27  1  0
  5 28  1  0
  6 29  1  0
  9 30  1  0
 10 31  1  0
 11 32  1  0
 17 33  1  0
 18 34  1  0
 21 35  1  0
 22 36  1  0
M  END
>  <UniqueID>  (18) 
17

>  <SMILES>  (18) 
Cc1ccccc1-n1cccc1S(=O)(=O)c1ccc(Cl)cc1

>  <Energy>  (18) 
72.34387534502066

>  <Genealogy>  (18) 
Cc1ccccc1-n1cccc1S(=O)(=O)c1ccc(Cl)cc1 (3D coordinates assigned)
Cc1ccccc1-n1cccc1S(=O)(=O)c1ccc(Cl)cc1 (optimized conformer: 72.34387534502066 kcal/mol)

>  <smiles>  (18) 
Cc1ccccc1-n1cccc1S(=O)(=O)c1ccc(Cl)cc1

>  <score_type>  (18) 
oracle

>  <origin>  (18) 
adg

>  <m_score__min__energy>  (18) 
-7.8200000000000003

>  <m_primary>  (18) 
energy

$$$$
18:0
     RDKit          3D

 41 43  0  0  0  0  0  0  0  0999 V2000
   61.0983   29.8625   48.0495 H   0  0  0  0  0  0  0  0  0  0  0  0
   60.7270   30.4740   47.2140 C   0  0  0  0  0  0  0  0  0  0  0  0
   61.4890   31.5030   46.8150 C   0  0  0  0  0  0  0  0  0  0  0  0
   61.5837   31.6762   45.7328 H   0  0  0  0  0  0  0  0  0  0  0  0
   62.2120   32.4230   47.7210 C   0  0  0  0  0  0  0  0  0  0  0  0
   63.5850   32.5590   47.8190 C   0  0  0  0  0  0  0  0  0  0  0  0
   64.3429   32.0394   47.2143 H   0  0  0  0  0  0  0  0  0  0  0  0
   63.8170   33.4760   48.8260 C   0  0  0  0  0  0  0  0  0  0  0  0
   64.7970   33.8343   49.1742 H   0  0  0  0  0  0  0  0  0  0  0  0
   62.5810   33.8560   49.3110 C   0  0  0  0  0  0  0  0  0  0  0  0
   62.4139   34.5820   50.1203 H   0  0  0  0  0  0  0  0  0  0  0  0
   61.6120   33.2030   48.6430 N   0  0  0  0  0  0  0  0  0  0  0  0
   59.9060   33.4160   48.8750 S   0  0  0  0  0  0  0  0  0  0  0  0
   59.6550   34.5500   49.8300 O   0  0  0  0  0  0  0  0  0  0  0  0
   59.3260   32.1550   49.4500 O   0  0  0  0  0  0  0  0  0  0  0  0
   59.1610   33.8010   47.3270 C   0  0  0  0  0  0  0  0  0  0  0  0
   57.8160   33.4750   47.1080 C   0  0  0  0  0  0  0  0  0  0  0  0
   57.2450   32.9511   47.8887 H   0  0  0  0  0  0  0  0  0  0  0  0
   57.1970   33.8130   45.9010 C   0  0  0  0  0  0  0  0  0  0  0  0
   56.1394   33.5600   45.7353 H   0  0  0  0  0  0  0  0  0  0  0  0
   57.9230   34.4730   44.9040 C   0  0  0  0  0  0  0  0  0  0  0  0
   57.4370   34.7370   43.9532 H   0  0  0  0  0  0  0  0  0  0  0  0
   59.2660   34.7970   45.1160 C   0  0  0  0  0  0  0  0  0  0  0  0
   59.8362   35.3156   44.3312 H   0  0  0  0  0  0  0  0  0  0  0  0
   59.8860   34.4630   46.3240 C   0  0  0  0  0  0  0  0  0  0  0  0
   60.9430   34.7193   46.4884 H   0  0  0  0  0  0  0  0  0  0  0  0
   59.4270   30.0970   46.6190 C   0  0  0  0  0  0  0  0  0  0  0  0
   58.7930   28.8870   46.9520 C   0  0  0  0  0  0  0  0  0  0  0  0
   59.2525   28.2133   47.6903 H   0  0  0  0  0  0  0  0  0  0  0  0
   57.5810   28.5360   46.3490 C   0  0  0  0  0  0  0  0  0  0  0  0
   57.0830   27.5955   46.6271 H   0  0  0  0  0  0  0  0  0  0  0  0
   56.9960   29.3810   45.3880 C   0  0  0  0  0  0  0  0  0  0  0  0
   55.7800   29.0740   44.7580 O   0  0  0  0  0  0  0  0  0  0  0  0
   55.3100   29.7020   43.5700 C   0  0  0  0  0  0  0  0  0  0  0  0
   54.6704   30.5566   43.8355 H   0  0  0  0  0  0  0  0  0  0  0  0
   56.1673   30.0555   42.9783 H   0  0  0  0  0  0  0  0  0  0  0  0
   54.7292   28.9791   42.9783 H   0  0  0  0  0  0  0  0  0  0  0  0
   57.6460   30.5690   45.0380 C   0  0  0  0  0  0  0  0  0  0  0  0
   57.2000   31.2321   44.2821 H   0  0  0  0  0  0  0  0  0  0  0  0
   58.8570   30.9210   45.6400 C   0  0  0  0  0  0  0  0  0  0  0  0
   59.3655   31.8503   45.3435 H   0  0  0  0  0  0  0  0  0  0  0  0
  1  2  1  0
  2  3  2  0
  3  4  1  0
  3  5  1  0
  5  6  2  0
  6  7  1  0
  6  8  1  0
  8  9  1  0
  8 10  2  0
 10 11  1  0
 10 12  1  0
 12 13  1  0
 13 14  2  0
 13 15  2  0
 13 16  1  0
 16 17  2  0
 17 18  1  0
 17 19  1  0
 19 20  1  0
 19 21  2  0
 21 22  1  0
 21 23  1  0
 23 24  1  0
 23 25  2  0
 25 26  1  0
  2 27  1  0
 27 28  2  0
 28 29  1  0
 28 30  1  0
 30 31  1  0
 30 32  2  0
 32 33  1  0
 33 34  1  0
 34 35  1  0
 34 36  1  0
 34 37  1  0
 32 38  1  0
 38 39  1  0
 38 40  2  0
 40 41  1  0
 12  5  1  0
 25 16  1  0
 40 27  1  0
M  END
>  <UniqueID>  (19) 
18

>  <SMILES>  (19) 
COc1ccc(/C=C\c2cccn2S(=O)(=O)c2ccccc2)cc1

>  <Energy>  (19) 
77.19514458315216

>  <Genealogy>  (19) 
COc1ccc(/C=C\c2cccn2S(=O)(=O)c2ccccc2)cc1 (cis-trans isomerization)
COc1ccc(/C=C\c2cccn2S(=O)(=O)c2ccccc2)cc1 (3D coordinates assigned)
COc1ccc(/C=C\c2cccn2S(=O)(=O)c2ccccc2)cc1 (optimized conformer: 77.19514458315216 kcal/mol)

>  <smiles>  (19) 
COc1ccc(C=Cc2cccn2S(=O)(=O)c2ccccc2)cc1

>  <score_type>  (19) 
oracle

>  <origin>  (19) 
adg

>  <m_score__min__energy>  (19) 
-8.6199999999999992

>  <m_primary>  (19) 
energy

$$$$
19:0
     RDKit          3D

 36 38  0  0  0  0  0  0  0  0999 V2000
   57.2736   31.7992   43.6187 H   0  0  0  0  0  0  0  0  0  0  0  0
   57.8820   31.6280   44.5190 C   0  0  0  0  0  0  0  0  0  0  0  0
   58.1340   30.3520   44.8770 C   0  0  0  0  0  0  0  0  0  0  0  0
   57.0180   29.3830   45.0260 C   0  0  0  0  0  0  0  0  0  0  0  0
   55.8210   29.7540   44.8690 O   0  0  0  0  0  0  0  0  0  0  0  0
   57.3160   27.9730   45.3640 C   0  0  0  0  0  0  0  0  0  0  0  0
   56.2870   27.0830   45.7200 C   0  0  0  0  0  0  0  0  0  0  0  0
   55.2460   27.4376   45.7433 H   0  0  0  0  0  0  0  0  0  0  0  0
   56.5710   25.7520   46.0450 C   0  0  0  0  0  0  0  0  0  0  0  0
   55.5050   24.9110   46.3990 O   0  0  0  0  0  0  0  0  0  0  0  0
   54.7820   24.1000   45.4790 C   0  0  0  0  0  0  0  0  0  0  0  0
   54.1498   23.3909   46.0335 H   0  0  0  0  0  0  0  0  0  0  0  0
   54.1484   24.7389   44.8463 H   0  0  0  0  0  0  0  0  0  0  0  0
   55.4892   23.5436   44.8463 H   0  0  0  0  0  0  0  0  0  0  0  0
   57.9040   25.3040   46.0060 C   0  0  0  0  0  0  0  0  0  0  0  0
   58.1379   24.2595   46.2598 H   0  0  0  0  0  0  0  0  0  0  0  0
   58.9310   26.1780   45.6470 C   0  0  0  0  0  0  0  0  0  0  0  0
   59.9683   25.8142   45.6061 H   0  0  0  0  0  0  0  0  0  0  0  0
   58.6500   27.5170   45.3380 C   0  0  0  0  0  0  0  0  0  0  0  0
   59.7590   28.4310   44.8760 C   0  0  0  0  0  0  0  0  0  0  0  0
   59.8237   28.3863   43.7788 H   0  0  0  0  0  0  0  0  0  0  0  0
   60.6970   28.0934   45.3408 H   0  0  0  0  0  0  0  0  0  0  0  0
   59.5120   29.8830   45.3000 C   0  0  0  0  0  0  0  0  0  0  0  0
   60.2699   30.5275   44.8307 H   0  0  0  0  0  0  0  0  0  0  0  0
   59.5778   29.9411   46.3965 H   0  0  0  0  0  0  0  0  0  0  0  0
   58.3690   32.8070   45.2560 C   0  0  0  0  0  0  0  0  0  0  0  0
   58.8080   33.9330   44.5440 C   0  0  0  0  0  0  0  0  0  0  0  0
   58.7604   33.9392   43.4450 H   0  0  0  0  0  0  0  0  0  0  0  0
   59.3060   35.0480   45.2260 C   0  0  0  0  0  0  0  0  0  0  0  0
   59.6371   35.9337   44.6640 H   0  0  0  0  0  0  0  0  0  0  0  0
   59.3830   35.0370   46.6210 C   0  0  0  0  0  0  0  0  0  0  0  0
   59.7686   35.9170   47.1566 H   0  0  0  0  0  0  0  0  0  0  0  0
   58.9710   33.9100   47.3370 C   0  0  0  0  0  0  0  0  0  0  0  0
   59.0383   33.9018   48.4349 H   0  0  0  0  0  0  0  0  0  0  0  0
   58.4730   32.7920   46.6590 C   0  0  0  0  0  0  0  0  0  0  0  0
   58.1020   31.6940   47.3670 F   0  0  0  0  0  0  0  0  0  0  0  0
  1  2  1  0
  2  3  2  0
  3  4  1  0
  4  5  2  0
  4  6  1  0
  6  7  2  0
  7  8  1  0
  7  9  1  0
  9 10  1  0
 10 11  1  0
 11 12  1  0
 11 13  1  0
 11 14  1  0
  9 15  2  0
 15 16  1  0
 15 17  1  0
 17 18  1  0
 17 19  2  0
 19 20  1  0
 20 21  1  0
 20 22  1  0
 20 23  1  0
 23 24  1  0
 23 25  1  0
  2 26  1  0
 26 27  2  0
 27 28  1  0
 27 29  1  0
 29 30  1  0
 29 31  2  0
 31 32  1  0
 31 33  1  0
 33 34  1  0
 33 35  2  0
 35 36  1  0
 23  3  1  0
 35 26  1  0
 19  6  1  0
M  END
>  <UniqueID>  (20) 
19

>  <SMILES>  (20) 
COc1ccc2c(c1)C(=O)/C(=C/c1ccccc1F)CC2

>  <Energy>  (20) 
48.63713204122739

>  <Genealogy>  (20) 
COc1ccc2c(c1)C(=O)/C(=C/c1ccccc1F)CC2 (cis-trans isomerization)
COc1ccc2c(c1)C(=O)/C(=C/c1ccccc1F)CC2 (3D coordinates assigned)
COc1ccc2c(c1)C(=O)/C(=C/c1ccccc1F)CC2 (nonaromatic ring conformer: 48.63713204122739 kcal/mol)

>  <smiles>  (20) 
COc1ccc2c(c1)C(=O)C(=Cc1ccccc1F)CC2

>  <score_type>  (20) 
oracle

>  <origin>  (20) 
adg

>  <m_score__min__energy>  (20) 
-8.2799999999999994

>  <m_primary>  (20) 
energy

$$$$
20:0
     RDKit          3D

 33 35  0  0  0  0  0  0  0  0999 V2000
   59.0653   24.9991   47.5607 H   0  0  0  0  0  0  0  0  0  0  0  0
   58.5030   25.7250   46.9550 C   0  0  0  0  0  0  0  0  0  0  0  0
   59.1560   26.7400   46.3260 N   0  0  0  0  0  0  0  0  0  0  0  0
   58.4450   27.5960   45.5990 N   0  0  0  0  0  0  0  0  0  0  0  0
   58.8730   28.6660   44.9230 C   0  0  0  0  0  0  0  0  0  0  0  0
   59.9085   29.0267   44.8360 H   0  0  0  0  0  0  0  0  0  0  0  0
   57.7400   29.2270   44.3540 C   0  0  0  0  0  0  0  0  0  0  0  0
   57.7090   30.4450   43.5960 N   0  0  0  0  0  0  0  0  0  0  0  0
   56.7500   30.5800   43.2020 H   0  0  0  0  0  0  0  0  0  0  0  0
   58.3790   30.3810   42.7960 H   0  0  0  0  0  0  0  0  0  0  0  0
   58.0560   31.5460   44.4570 C   0  0  0  0  0  0  0  0  0  0  0  0
   58.3880   32.7990   43.9120 C   0  0  0  0  0  0  0  0  0  0  0  0
   58.3564   32.9468   42.8224 H   0  0  0  0  0  0  0  0  0  0  0  0
   58.7580   33.8580   44.7460 C   0  0  0  0  0  0  0  0  0  0  0  0
   59.0109   34.8366   44.3119 H   0  0  0  0  0  0  0  0  0  0  0  0
   58.8070   33.6750   46.1310 C   0  0  0  0  0  0  0  0  0  0  0  0
   59.2740   35.0030   47.1770 Cl  0  0  0  0  0  0  0  0  0  0  0  0
   58.4900   32.4280   46.6830 C   0  0  0  0  0  0  0  0  0  0  0  0
   58.5324   32.2828   47.7726 H   0  0  0  0  0  0  0  0  0  0  0  0
   58.1200   31.3680   45.8520 C   0  0  0  0  0  0  0  0  0  0  0  0
   57.8773   30.3886   46.2901 H   0  0  0  0  0  0  0  0  0  0  0  0
   56.6270   28.5270   44.6900 N   0  0  0  0  0  0  0  0  0  0  0  0
   57.1150   27.5240   45.4510 C   0  0  0  0  0  0  0  0  0  0  0  0
   56.4110   26.4880   46.0890 C   0  0  0  0  0  0  0  0  0  0  0  0
   55.1180   26.3180   46.0230 N   0  0  0  0  0  0  0  0  0  0  0  0
   54.3680   25.1260   45.6280 C   0  0  0  0  0  0  0  0  0  0  0  0
   53.5406   25.4235   44.9670 H   0  0  0  0  0  0  0  0  0  0  0  0
   53.9790   24.6387   46.5342 H   0  0  0  0  0  0  0  0  0  0  0  0
   55.2670   24.1380   44.8900 C   0  0  0  0  0  0  0  0  0  0  0  0
   55.8205   23.5297   45.6205 H   0  0  0  0  0  0  0  0  0  0  0  0
   54.6499   23.4816   44.2588 H   0  0  0  0  0  0  0  0  0  0  0  0
   55.9785   24.6905   44.2588 H   0  0  0  0  0  0  0  0  0  0  0  0
   57.1460   25.6100   46.8320 N   0  0  0  0  0  0  0  0  0  0  0  0
  1  2  1  0
  2  3  2  0
  3  4  1  0
  4  5  1  0
  5  6  1  0
  5  7  2  0
  7  8  1  0
  8  9  1  0
  8 10  1  0
  8 11  1  0
 11 12  2  0
 12 13  1  0
 12 14  1  0
 14 15  1  0
 14 16  2  0
 16 17  1  0
 16 18  1  0
 18 19  1  0
 18 20  2  0
 20 21  1  0
  7 22  1  0
 22 23  2  0
 23 24  1  0
 24 25  2  0
 25 26  1  0
 26 27  1  0
 26 28  1  0
 26 29  1  0
 29 30  1  0
 29 31  1  0
 29 32  1  0
 24 33  1  0
 33  2  1  0
 23  4  1  0
 20 11  1  0
M  CHG  2   8   1  33  -1
M  END
>  <UniqueID>  (21) 
20

>  <SMILES>  (21) 
CC/N=c1/[n-]cnn2cc([NH2+]c3ccc(Cl)cc3)nc12

>  <Energy>  (21) 
75.95716067163491

>  <Genealogy>  (21) 
CCN=c1[n-]cnn2cc([NH2+]c3ccc(Cl)cc3)nc12 (protonated)
CC/N=c1/[n-]cnn2cc([NH2+]c3ccc(Cl)cc3)nc12 (cis-trans isomerization)
CC/N=c1/[n-]cnn2cc([NH2+]c3ccc(Cl)cc3)nc12 (3D coordinates assigned)
CC/N=c1/[n-]cnn2cc([NH2+]c3ccc(Cl)cc3)nc12 (optimized conformer: 75.95716067163491 kcal/mol)

>  <smiles>  (21) 
CCN=c1[nH]cnn2cc(Nc3ccc(Cl)cc3)nc12

>  <score_type>  (21) 
oracle

>  <origin>  (21) 
adg

>  <m_score__min__energy>  (21) 
-6.9299999999999997

>  <m_primary>  (21) 
energy

$$$$
21:0
     RDKit          3D

 35 37  0  0  0  0  0  0  0  0999 V2000
   57.0130   32.3450   40.6800 C   0  0  0  0  0  0  0  0  0  0  0  0
   58.1800   32.5130   41.6500 C   0  0  0  0  0  0  0  0  0  0  0  0
   57.7830   32.1000   43.0510 C   0  0  0  0  0  0  0  0  0  0  0  0
   57.0190   30.9350   43.2120 C   0  0  0  0  0  0  0  0  0  0  0  0
   56.6510   30.5240   44.4940 C   0  0  0  0  0  0  0  0  0  0  0  0
   55.9590   29.4830   44.6440 O   0  0  0  0  0  0  0  0  0  0  0  0
   57.0250   31.2230   45.5590 O   0  0  0  0  0  0  0  0  0  0  0  0
   57.7600   32.3260   45.4710 C   0  0  0  0  0  0  0  0  0  0  0  0
   58.1190   33.0010   46.6430 C   0  0  0  0  0  0  0  0  0  0  0  0
   58.8870   34.1700   46.5870 C   0  0  0  0  0  0  0  0  0  0  0  0
   59.2630   34.8270   47.8090 N   0  0  0  0  0  0  0  0  0  0  0  0
   60.1640   34.2760   48.7850 C   0  0  0  0  0  0  0  0  0  0  0  0
   59.6960   33.7870   50.0180 C   0  0  0  0  0  0  0  0  0  0  0  0
   60.5880   33.2300   50.9400 C   0  0  0  0  0  0  0  0  0  0  0  0
   61.9480   33.1430   50.6330 C   0  0  0  0  0  0  0  0  0  0  0  0
   62.4180   33.6050   49.4020 C   0  0  0  0  0  0  0  0  0  0  0  0
   61.5290   34.1630   48.4770 C   0  0  0  0  0  0  0  0  0  0  0  0
   59.3320   34.6390   45.3400 C   0  0  0  0  0  0  0  0  0  0  0  0
   58.9790   33.9740   44.1630 C   0  0  0  0  0  0  0  0  0  0  0  0
   58.1800   32.8140   44.2080 C   0  0  0  0  0  0  0  0  0  0  0  0
   56.0806   32.2108   41.2479 H   0  0  0  0  0  0  0  0  0  0  0  0
   56.9308   33.2406   40.0466 H   0  0  0  0  0  0  0  0  0  0  0  0
   57.1868   31.4626   40.0466 H   0  0  0  0  0  0  0  0  0  0  0  0
   59.0199   31.8868   41.3145 H   0  0  0  0  0  0  0  0  0  0  0  0
   58.4730   33.5731   41.6664 H   0  0  0  0  0  0  0  0  0  0  0  0
   56.7117   30.3488   42.3334 H   0  0  0  0  0  0  0  0  0  0  0  0
   57.7944   32.6090   47.6182 H   0  0  0  0  0  0  0  0  0  0  0  0
   58.8540   35.7700   48.0010 H   0  0  0  0  0  0  0  0  0  0  0  0
   58.6240   33.8429   50.2581 H   0  0  0  0  0  0  0  0  0  0  0  0
   60.2183   32.8601   51.9077 H   0  0  0  0  0  0  0  0  0  0  0  0
   62.6493   32.7102   51.3616 H   0  0  0  0  0  0  0  0  0  0  0  0
   63.4883   33.5302   49.1593 H   0  0  0  0  0  0  0  0  0  0  0  0
   61.9014   34.5149   47.5036 H   0  0  0  0  0  0  0  0  0  0  0  0
   59.9641   35.5379   45.2896 H   0  0  0  0  0  0  0  0  0  0  0  0
   59.3276   34.3590   43.1933 H   0  0  0  0  0  0  0  0  0  0  0  0
  1  2  1  0
  2  3  1  0
  3  4  2  0
  4  5  1  0
  5  6  2  0
  5  7  1  0
  7  8  1  0
  8  9  2  0
  9 10  1  0
 10 11  1  0
 11 12  1  0
 12 13  2  0
 13 14  1  0
 14 15  2  0
 15 16  1  0
 16 17  2  0
 10 18  2  0
 18 19  1  0
 19 20  2  0
 20  3  1  0
 20  8  1  0
 17 12  1  0
  1 21  1  0
  1 22  1  0
  1 23  1  0
  2 24  1  0
  2 25  1  0
  4 26  1  0
  9 27  1  0
 11 28  1  0
 13 29  1  0
 14 30  1  0
 15 31  1  0
 16 32  1  0
 17 33  1  0
 18 34  1  0
 19 35  1  0
M  END
>  <UniqueID>  (22) 
21

>  <SMILES>  (22) 
CCc1cc(=O)oc2cc(Nc3ccccc3)ccc12

>  <Energy>  (22) 
46.26801778482781

>  <Genealogy>  (22) 
CCc1cc(=O)oc2cc(Nc3ccccc3)ccc12 (3D coordinates assigned)
CCc1cc(=O)oc2cc(Nc3ccccc3)ccc12 (optimized conformer: 46.26801778482781 kcal/mol)

>  <smiles>  (22) 
CCc1cc(=O)oc2cc(Nc3ccccc3)ccc12

>  <score_type>  (22) 
oracle

>  <origin>  (22) 
adg

>  <m_score__min__energy>  (22) 
-8.1699999999999999

>  <m_primary>  (22) 
energy

$$$$
22:0
     RDKit          3D

 17 18  0  0  0  0  0  0  0  0999 V2000
   56.4480   30.5540   52.4000 Br  0  0  0  0  0  0  0  0  0  0  0  0
   54.5400   30.5850   52.4770 C   0  0  0  0  0  0  0  0  0  0  0  0
   53.8870   30.3740   53.6940 C   0  0  0  0  0  0  0  0  0  0  0  0
   52.4920   30.3980   53.7520 C   0  0  0  0  0  0  0  0  0  0  0  0
   51.7450   30.6300   52.5930 C   0  0  0  0  0  0  0  0  0  0  0  0
   52.3910   30.8440   51.3620 C   0  0  0  0  0  0  0  0  0  0  0  0
   51.6040   31.0900   50.1340 C   0  0  0  0  0  0  0  0  0  0  0  0
   51.0080   32.2640   49.8450 N   0  0  0  0  0  0  0  0  0  0  0  0
   50.4290   32.0020   48.6580 C   0  0  0  0  0  0  0  0  0  0  0  0
   50.6570   30.7420   48.2470 N   0  0  0  0  0  0  0  0  0  0  0  0
   51.3980   30.1660   49.1770 N   0  0  0  0  0  0  0  0  0  0  0  0
   53.7970   30.8190   51.3140 C   0  0  0  0  0  0  0  0  0  0  0  0
   54.4721   30.1889   54.6069 H   0  0  0  0  0  0  0  0  0  0  0  0
   51.9797   30.2340   54.7115 H   0  0  0  0  0  0  0  0  0  0  0  0
   50.6463   30.6452   52.6442 H   0  0  0  0  0  0  0  0  0  0  0  0
   49.8373   32.7346   48.0896 H   0  0  0  0  0  0  0  0  0  0  0  0
   54.3149   30.9842   50.3577 H   0  0  0  0  0  0  0  0  0  0  0  0
  1  2  1  0
  2  3  2  0
  3  4  1  0
  4  5  2  0
  5  6  1  0
  6  7  1  0
  7  8  1  0
  8  9  2  0
  9 10  1  0
 10 11  1  0
  6 12  2  0
 12  2  1  0
 11  7  2  0
  3 13  1  0
  4 14  1  0
  5 15  1  0
  9 16  1  0
 12 17  1  0
M  CHG  1  10  -1
M  END
>  <UniqueID>  (23) 
22

>  <SMILES>  (23) 
Brc1cccc(-c2nc[n-]n2)c1

>  <Energy>  (23) 
49.72403119149949

>  <Genealogy>  (23) 
Brc1cccc(-c2nc[n-]n2)c1 (protonated)
Brc1cccc(-c2nc[n-]n2)c1 (3D coordinates assigned)
Brc1cccc(-c2nc[n-]n2)c1 (optimized conformer: 49.72403119149949 kcal/mol)

>  <smiles>  (23) 
Brc1cccc(-c2nc[nH]n2)c1

>  <score_type>  (23) 
oracle

>  <origin>  (23) 
adg

>  <m_score__min__energy>  (23) 
-8.1400000000000006

>  <m_primary>  (23) 
energy

$$$$
23:0
     RDKit          3D

 40 42  0  0  0  0  0  0  0  0999 V2000
   60.7600   27.3960   49.7620 C   0  0  0  0  0  0  0  0  0  0  0  0
   60.8360   27.4340   48.3410 O   0  0  0  0  0  0  0  0  0  0  0  0
   60.0050   28.2100   47.5130 C   0  0  0  0  0  0  0  0  0  0  0  0
   60.3040   29.5490   47.2240 C   0  0  0  0  0  0  0  0  0  0  0  0
   59.4710   30.3050   46.4040 C   0  0  0  0  0  0  0  0  0  0  0  0
   58.3100   29.7520   45.8480 C   0  0  0  0  0  0  0  0  0  0  0  0
   57.2990   30.7810   44.8150 S   0  0  0  0  0  0  0  0  0  0  0  0
   56.0080   30.0780   44.5010 O   0  0  0  0  0  0  0  0  0  0  0  0
   58.0450   31.0690   43.5410 O   0  0  0  0  0  0  0  0  0  0  0  0
   56.9390   32.2750   45.6170 N   0  0  0  0  0  0  0  0  0  0  0  0
   57.9120   33.2990   45.8410 C   0  0  0  0  0  0  0  0  0  0  0  0
   58.2930   34.1060   44.7610 C   0  0  0  0  0  0  0  0  0  0  0  0
   59.2400   35.1180   44.9340 C   0  0  0  0  0  0  0  0  0  0  0  0
   59.8260   35.3220   46.1840 C   0  0  0  0  0  0  0  0  0  0  0  0
   59.4750   34.5050   47.2620 C   0  0  0  0  0  0  0  0  0  0  0  0
   58.5290   33.4840   47.0980 C   0  0  0  0  0  0  0  0  0  0  0  0
   58.1860   32.4020   48.4940 S   0  0  0  0  0  0  0  0  0  0  0  0
   59.4550   33.1620   49.5530 C   0  0  0  0  0  0  0  0  0  0  0  0
   57.9870   28.3970   46.1220 C   0  0  0  0  0  0  0  0  0  0  0  0
   56.8350   27.7800   45.5840 C   0  0  0  0  0  0  0  0  0  0  0  0
   56.5390   26.4470   45.8700 C   0  0  0  0  0  0  0  0  0  0  0  0
   57.3790   25.7020   46.6940 C   0  0  0  0  0  0  0  0  0  0  0  0
   58.5230   26.2840   47.2370 C   0  0  0  0  0  0  0  0  0  0  0  0
   58.8440   27.6280   46.9620 C   0  0  0  0  0  0  0  0  0  0  0  0
   61.6664   27.8492   50.1899 H   0  0  0  0  0  0  0  0  0  0  0  0
   59.8758   27.9581   50.0971 H   0  0  0  0  0  0  0  0  0  0  0  0
   60.6791   26.3514   50.0971 H   0  0  0  0  0  0  0  0  0  0  0  0
   61.2081   30.0079   47.6506 H   0  0  0  0  0  0  0  0  0  0  0  0
   59.7283   31.3527   46.1893 H   0  0  0  0  0  0  0  0  0  0  0  0
   57.8435   33.9416   43.7706 H   0  0  0  0  0  0  0  0  0  0  0  0
   59.5244   35.7552   44.0836 H   0  0  0  0  0  0  0  0  0  0  0  0
   60.5642   36.1259   46.3207 H   0  0  0  0  0  0  0  0  0  0  0  0
   59.9436   34.6641   48.2444 H   0  0  0  0  0  0  0  0  0  0  0  0
   59.1928   33.0050   50.6097 H   0  0  0  0  0  0  0  0  0  0  0  0
   60.4312   32.6997   49.3448 H   0  0  0  0  0  0  0  0  0  0  0  0
   59.5083   34.2408   49.3448 H   0  0  0  0  0  0  0  0  0  0  0  0
   56.1636   28.3578   44.9318 H   0  0  0  0  0  0  0  0  0  0  0  0
   55.6381   25.9823   45.4428 H   0  0  0  0  0  0  0  0  0  0  0  0
   57.1390   24.6519   46.9167 H   0  0  0  0  0  0  0  0  0  0  0  0
   59.1815   25.6884   47.8864 H   0  0  0  0  0  0  0  0  0  0  0  0
  1  2  1  0
  2  3  1  0
  3  4  2  0
  4  5  1  0
  5  6  2  0
  6  7  1  0
  7  8  2  0
  7  9  2  0
  7 10  1  0
 10 11  1  0
 11 12  2  0
 12 13  1  0
 13 14  2  0
 14 15  1  0
 15 16  2  0
 16 17  1  0
 17 18  1  0
  6 19  1  0
 19 20  2  0
 20 21  1  0
 21 22  2  0
 22 23  1  0
 23 24  2  0
 24  3  1  0
 16 11  1  0
 24 19  1  0
  1 25  1  0
  1 26  1  0
  1 27  1  0
  4 28  1  0
  5 29  1  0
 12 30  1  0
 13 31  1  0
 14 32  1  0
 15 33  1  0
 18 34  1  0
 18 35  1  0
 18 36  1  0
 20 37  1  0
 21 38  1  0
 22 39  1  0
 23 40  1  0
M  CHG  1  10  -1
M  END
>  <UniqueID>  (24) 
23

>  <SMILES>  (24) 
COc1ccc(S(=O)(=O)[N-]c2ccccc2SC)c2ccccc12

>  <Energy>  (24) 
55.23382244784991

>  <Genealogy>  (24) 
COc1ccc(S(=O)(=O)[N-]c2ccccc2SC)c2ccccc12 (protonated)
COc1ccc(S(=O)(=O)[N-]c2ccccc2SC)c2ccccc12 (3D coordinates assigned)
COc1ccc(S(=O)(=O)[N-]c2ccccc2SC)c2ccccc12 (optimized conformer: 55.23382244784991 kcal/mol)

>  <smiles>  (24) 
COc1ccc(S(=O)(=O)Nc2ccccc2SC)c2ccccc12

>  <score_type>  (24) 
oracle

>  <origin>  (24) 
adg

>  <m_score__min__energy>  (24) 
-9.4399999999999995

>  <m_primary>  (24) 
energy

$$$$
24:0
     RDKit          3D

 36 39  0  0  0  0  0  0  0  0999 V2000
   58.2640   27.1780   47.6300 O   0  0  0  0  0  0  0  0  0  0  0  0
   57.6190   27.2200   46.5490 C   0  0  0  0  0  0  0  0  0  0  0  0
   56.8660   26.0280   46.1250 C   0  0  0  0  0  0  0  0  0  0  0  0
   57.3970   24.8030   45.7600 C   0  0  0  0  0  0  0  0  0  0  0  0
   56.3190   24.0130   45.4240 C   0  0  0  0  0  0  0  0  0  0  0  0
   55.2040   24.8060   45.5990 C   0  0  0  0  0  0  0  0  0  0  0  0
   53.4010   24.2690   45.2860 Br  0  0  0  0  0  0  0  0  0  0  0  0
   55.5580   25.9990   46.0130 O   0  0  0  0  0  0  0  0  0  0  0  0
   57.6130   28.4300   45.7720 N   0  0  0  0  0  0  0  0  0  0  0  0
   57.0110   28.4190   44.4340 C   0  0  0  0  0  0  0  0  0  0  0  0
   56.9270   29.8370   43.8560 C   0  0  0  0  0  0  0  0  0  0  0  0
   58.2260   30.5320   43.9750 N   0  0  1  0  0  0  0  0  0  0  0  0
   58.0700   31.9270   43.6560 C   0  0  0  0  0  0  0  0  0  0  0  0
   57.6830   32.3410   42.5300 O   0  0  0  0  0  0  0  0  0  0  0  0
   58.4440   32.7860   44.7470 C   0  0  0  0  0  0  0  0  0  0  0  0
   58.4410   34.1780   44.8470 C   0  0  0  0  0  0  0  0  0  0  0  0
   58.8960   34.7550   46.0440 C   0  0  0  0  0  0  0  0  0  0  0  0
   59.3500   33.9360   47.0980 C   0  0  0  0  0  0  0  0  0  0  0  0
   59.3450   32.5370   46.9600 C   0  0  0  0  0  0  0  0  0  0  0  0
   58.8710   31.9850   45.7670 C   0  0  0  0  0  0  0  0  0  0  0  0
   58.8020   30.5410   45.3620 C   0  0  1  0  0  0  0  0  0  0  0  0
   57.9890   29.7110   46.3770 C   0  0  0  0  0  0  0  0  0  0  0  0
   58.4595   24.5189   45.7419 H   0  0  0  0  0  0  0  0  0  0  0  0
   56.3428   22.9664   45.0861 H   0  0  0  0  0  0  0  0  0  0  0  0
   57.6258   27.7953   43.7683 H   0  0  0  0  0  0  0  0  0  0  0  0
   55.9920   28.0121   44.5121 H   0  0  0  0  0  0  0  0  0  0  0  0
   56.6463   29.7772   42.7941 H   0  0  0  0  0  0  0  0  0  0  0  0
   56.1720   30.4032   44.4212 H   0  0  0  0  0  0  0  0  0  0  0  0
   58.9140   30.1100   43.3060 H   0  0  0  0  0  0  0  0  0  0  0  0
   58.0926   34.8048   44.0129 H   0  0  0  0  0  0  0  0  0  0  0  0
   58.8981   35.8489   46.1594 H   0  0  0  0  0  0  0  0  0  0  0  0
   59.7094   34.3933   48.0316 H   0  0  0  0  0  0  0  0  0  0  0  0
   59.7064   31.8908   47.7735 H   0  0  0  0  0  0  0  0  0  0  0  0
   59.7924   30.0623   45.3572 H   0  0  0  0  0  0  0  0  0  0  0  0
   58.5996   29.5278   47.2734 H   0  0  0  0  0  0  0  0  0  0  0  0
   57.0806   30.2639   46.6584 H   0  0  0  0  0  0  0  0  0  0  0  0
  1  2  2  0
  2  3  1  0
  3  4  2  0
  4  5  1  0
  5  6  2  0
  6  7  1  0
  6  8  1  0
  2  9  1  0
  9 10  1  0
 10 11  1  0
 11 12  1  0
 12 13  1  0
 13 14  2  0
 13 15  1  0
 15 16  2  0
 16 17  1  0
 17 18  2  0
 18 19  1  0
 19 20  2  0
 20 21  1  0
 21 22  1  0
  8  3  1  0
 22  9  1  0
 21 12  1  0
 20 15  1  0
  4 23  1  0
  5 24  1  0
 10 25  1  0
 10 26  1  0
 11 27  1  0
 11 28  1  0
 12 29  1  6
 16 30  1  0
 17 31  1  0
 18 32  1  0
 19 33  1  0
 21 34  1  6
 22 35  1  0
 22 36  1  0
M  CHG  1  12   1
M  END
>  <UniqueID>  (25) 
24

>  <SMILES>  (25) 
O=C(c1ccc(Br)o1)N1CC[N@H+]2C(=O)c3ccccc3[C@H]2C1

>  <Energy>  (25) 
90.06518894570844

>  <Genealogy>  (25) 
O=C(c1ccc(Br)o1)N1CC[NH+]2C(=O)c3ccccc3C2C1 (protonated)
O=C(c1ccc(Br)o1)N1CC[N@H+]2C(=O)c3ccccc3[C@H]2C1 (chirality)
O=C(c1ccc(Br)o1)N1CC[N@H+]2C(=O)c3ccccc3[C@H]2C1 (3D coordinates assigned)
O=C(c1ccc(Br)o1)N1CC[N@H+]2C(=O)c3ccccc3[C@H]2C1 (nonaromatic ring conformer: 90.06518894570844 kcal/mol)

>  <smiles>  (25) 
O=C(c1ccc(Br)o1)N1CCN2C(=O)c3ccccc3C2C1

>  <score_type>  (25) 
oracle

>  <origin>  (25) 
adg

>  <m_score__min__energy>  (25) 
-6.96

>  <m_primary>  (25) 
energy

$$$$
25:0
     RDKit          3D

 56 60  0  0  0  0  0  0  0  0999 V2000
   60.8350   34.4980   55.8270 C   0  0  0  0  0  0  0  0  0  0  0  0
   61.9230   33.8280   55.2000 O   0  0  0  0  0  0  0  0  0  0  0  0
   62.1170   33.7590   53.8130 C   0  0  0  0  0  0  0  0  0  0  0  0
   61.1050   33.1940   53.0270 C   0  0  0  0  0  0  0  0  0  0  0  0
   61.2530   33.0980   51.6400 C   0  0  0  0  0  0  0  0  0  0  0  0
   62.4230   33.5600   51.0170 C   0  0  0  0  0  0  0  0  0  0  0  0
   62.5800   33.4480   49.5470 C   0  0  0  0  0  0  0  0  0  0  0  0
   61.5380   33.8820   48.7200 C   0  0  0  0  0  0  0  0  0  0  0  0
   61.6920   33.8460   47.3370 C   0  0  0  0  0  0  0  0  0  0  0  0
   60.6540   34.3090   46.5170 O   0  0  0  0  0  0  0  0  0  0  0  0
   59.6700   33.5030   45.9260 C   0  0  0  0  0  0  0  0  0  0  0  0
   58.7500   34.1010   45.0570 C   0  0  0  0  0  0  0  0  0  0  0  0
   57.7460   33.3440   44.4490 C   0  0  0  0  0  0  0  0  0  0  0  0
   57.6400   31.9720   44.7160 C   0  0  0  0  0  0  0  0  0  0  0  0
   56.6340   31.2010   44.1120 C   0  0  0  0  0  0  0  0  0  0  0  0
   56.5330   29.8360   44.3930 C   0  0  0  0  0  0  0  0  0  0  0  0
   57.4300   29.2310   45.2780 C   0  0  0  0  0  0  0  0  0  0  0  0
   58.4350   29.9880   45.8870 C   0  0  0  0  0  0  0  0  0  0  0  0
   58.5500   31.3600   45.6100 C   0  0  0  0  0  0  0  0  0  0  0  0
   59.5550   32.1300   46.2150 C   0  0  0  0  0  0  0  0  0  0  0  0
   62.8620   33.4020   46.8110 N   0  0  0  0  0  0  0  0  0  0  0  0
   63.8630   32.9760   47.5810 N   0  0  0  0  0  0  0  0  0  0  0  0
   63.7640   32.9630   48.9420 C   0  0  0  0  0  0  0  0  0  0  0  0
   64.8890   32.4140   49.7390 C   0  0  0  0  0  0  0  0  0  0  0  0
   64.7080   31.2510   50.5010 C   0  0  0  0  0  0  0  0  0  0  0  0
   65.7640   30.7260   51.2500 C   0  0  0  0  0  0  0  0  0  0  0  0
   67.0140   31.3590   51.2590 C   0  0  0  0  0  0  0  0  0  0  0  0
   68.0430   30.7890   52.0230 O   0  0  0  0  0  0  0  0  0  0  0  0
   68.6530   31.4180   53.1460 C   0  0  0  0  0  0  0  0  0  0  0  0
   67.1930   32.5350   50.5070 C   0  0  0  0  0  0  0  0  0  0  0  0
   66.1360   33.0610   49.7590 C   0  0  0  0  0  0  0  0  0  0  0  0
   63.4330   34.1410   51.8020 C   0  0  0  0  0  0  0  0  0  0  0  0
   63.2850   34.2340   53.1890 C   0  0  0  0  0  0  0  0  0  0  0  0
   60.9437   34.4310   56.9196 H   0  0  0  0  0  0  0  0  0  0  0  0
   60.8312   35.5552   55.5230 H   0  0  0  0  0  0  0  0  0  0  0  0
   59.8892   34.0256   55.5230 H   0  0  0  0  0  0  0  0  0  0  0  0
   60.1863   32.8228   53.5047 H   0  0  0  0  0  0  0  0  0  0  0  0
   60.4478   32.6578   51.0334 H   0  0  0  0  0  0  0  0  0  0  0  0
   60.6002   34.2504   49.1613 H   0  0  0  0  0  0  0  0  0  0  0  0
   58.8185   35.1793   44.8506 H   0  0  0  0  0  0  0  0  0  0  0  0
   57.0371   33.8254   43.7593 H   0  0  0  0  0  0  0  0  0  0  0  0
   55.9241   31.6724   43.4164 H   0  0  0  0  0  0  0  0  0  0  0  0
   55.7446   29.2352   43.9160 H   0  0  0  0  0  0  0  0  0  0  0  0
   57.3448   28.1562   45.4958 H   0  0  0  0  0  0  0  0  0  0  0  0
   59.1372   29.5081   46.5846 H   0  0  0  0  0  0  0  0  0  0  0  0
   60.2566   31.6584   46.9187 H   0  0  0  0  0  0  0  0  0  0  0  0
   64.7300   32.6230   47.1170 H   0  0  0  0  0  0  0  0  0  0  0  0
   63.7292   30.7492   50.5091 H   0  0  0  0  0  0  0  0  0  0  0  0
   65.6129   29.8083   51.8374 H   0  0  0  0  0  0  0  0  0  0  0  0
   68.2408   30.9929   54.0730 H   0  0  0  0  0  0  0  0  0  0  0  0
   69.7394   31.2481   53.1161 H   0  0  0  0  0  0  0  0  0  0  0  0
   68.4499   32.4987   53.1161 H   0  0  0  0  0  0  0  0  0  0  0  0
   68.1690   33.0424   50.5079 H   0  0  0  0  0  0  0  0  0  0  0  0
   66.2812   33.9867   49.1828 H   0  0  0  0  0  0  0  0  0  0  0  0
   64.3455   34.5249   51.3225 H   0  0  0  0  0  0  0  0  0  0  0  0
   64.0862   34.6810   53.7958 H   0  0  0  0  0  0  0  0  0  0  0  0
  1  2  1  0
  2  3  1  0
  3  4  2  0
  4  5  1  0
  5  6  2  0
  6  7  1  0
  7  8  2  0
  8  9  1  0
  9 10  1  0
 10 11  1  0
 11 12  2  0
 12 13  1  0
 13 14  2  0
 14 15  1  0
 15 16  2  0
 16 17  1  0
 17 18  2  0
 18 19  1  0
 19 20  2  0
  9 21  2  0
 21 22  1  0
 22 23  2  0
 23 24  1  0
 24 25  2  0
 25 26  1  0
 26 27  2  0
 27 28  1  0
 28 29  1  0
 27 30  1  0
 30 31  2  0
  6 32  1  0
 32 33  2  0
 33  3  1  0
 23  7  1  0
 31 24  1  0
 20 11  1  0
 19 14  1  0
  1 34  1  0
  1 35  1  0
  1 36  1  0
  4 37  1  0
  5 38  1  0
  8 39  1  0
 12 40  1  0
 13 41  1  0
 15 42  1  0
 16 43  1  0
 17 44  1  0
 18 45  1  0
 20 46  1  0
 22 47  1  0
 25 48  1  0
 26 49  1  0
 29 50  1  0
 29 51  1  0
 29 52  1  0
 30 53  1  0
 31 54  1  0
 32 55  1  0
 33 56  1  0
M  CHG  1  22   1
M  END
>  <UniqueID>  (26) 
25

>  <SMILES>  (26) 
COc1ccc(-c2cc(Oc3ccc4ccccc4c3)n[nH+]c2-c2ccc(OC)cc2)cc1

>  <Energy>  (26) 
81.90192979012951

>  <Genealogy>  (26) 
COc1ccc(-c2cc(Oc3ccc4ccccc4c3)n[nH+]c2-c2ccc(OC)cc2)cc1 (protonated)
COc1ccc(-c2cc(Oc3ccc4ccccc4c3)n[nH+]c2-c2ccc(OC)cc2)cc1 (3D coordinates assigned)
COc1ccc(-c2cc(Oc3ccc4ccccc4c3)n[nH+]c2-c2ccc(OC)cc2)cc1 (optimized conformer: 81.90192979012951 kcal/mol)

>  <smiles>  (26) 
COc1ccc(-c2cc(Oc3ccc4ccccc4c3)nnc2-c2ccc(OC)cc2)cc1

>  <score_type>  (26) 
oracle

>  <origin>  (26) 
adg

>  <m_score__min__energy>  (26) 
-7.4000000000000004

>  <m_primary>  (26) 
energy

$$$$
26:0
     RDKit          3D

 49 51  0  0  0  0  0  0  0  0999 V2000
   57.0480   32.7180   40.3900 C   0  0  0  0  0  0  0  0  0  0  0  0
   57.8240   32.3380   41.6500 C   0  0  0  0  0  0  0  0  0  0  0  0
   57.0540   31.3510   42.5410 C   0  0  0  0  0  0  0  0  0  0  0  0
   57.7480   31.0640   43.8480 C   0  0  0  0  0  0  0  0  0  0  0  0
   58.6180   30.0390   44.0280 N   0  0  0  0  0  0  0  0  0  0  0  0
   58.9890   30.0880   45.3180 C   0  0  0  0  0  0  0  0  0  0  0  0
   59.9090   29.2610   45.9610 C   0  0  0  0  0  0  0  0  0  0  0  0
   60.1720   29.5010   47.3210 C   0  0  0  0  0  0  0  0  0  0  0  0
   59.5140   30.5480   48.0030 C   0  0  0  0  0  0  0  0  0  0  0  0
   58.5900   31.3650   47.3290 C   0  0  0  0  0  0  0  0  0  0  0  0
   58.3520   31.1080   45.9770 C   0  0  0  0  0  0  0  0  0  0  0  0
   57.5390   31.7440   45.0550 C   0  0  0  0  0  0  0  0  0  0  0  0
   56.6990   32.9710   45.2900 C   0  0  0  0  0  0  0  0  0  0  0  0
   57.5490   34.2470   45.3200 C   0  0  0  0  0  0  0  0  0  0  0  0
   58.4410   34.2440   46.4810 N   0  0  0  0  0  0  0  0  0  0  0  0
   59.7630   34.8020   46.4160 C   0  0  0  0  0  0  0  0  0  0  0  0
   59.9970   35.7630   45.6330 O   0  0  0  0  0  0  0  0  0  0  0  0
   60.8780   34.2190   47.1970 C   0  0  0  0  0  0  0  0  0  0  0  0
   62.0470   33.8080   46.5330 C   0  0  0  0  0  0  0  0  0  0  0  0
   63.0800   33.1850   47.2360 C   0  0  0  0  0  0  0  0  0  0  0  0
   62.9670   32.9690   48.6220 C   0  0  0  0  0  0  0  0  0  0  0  0
   63.9670   32.3320   49.3690 O   0  0  0  0  0  0  0  0  0  0  0  0
   65.2090   32.9330   49.7260 C   0  0  0  0  0  0  0  0  0  0  0  0
   61.8150   33.4030   49.2870 C   0  0  0  0  0  0  0  0  0  0  0  0
   60.7770   34.0220   48.5840 C   0  0  0  0  0  0  0  0  0  0  0  0
   56.0936   33.1853   40.6741 H   0  0  0  0  0  0  0  0  0  0  0  0
   57.6408   33.4277   39.7943 H   0  0  0  0  0  0  0  0  0  0  0  0
   56.8508   31.8145   39.7943 H   0  0  0  0  0  0  0  0  0  0  0  0
   58.7760   31.8748   41.3515 H   0  0  0  0  0  0  0  0  0  0  0  0
   57.9860   33.2571   42.2323 H   0  0  0  0  0  0  0  0  0  0  0  0
   56.0627   31.7758   42.7576 H   0  0  0  0  0  0  0  0  0  0  0  0
   56.9855   30.4003   41.9919 H   0  0  0  0  0  0  0  0  0  0  0  0
   58.9440   29.3520   43.3140 H   0  0  0  0  0  0  0  0  0  0  0  0
   60.4134   28.4461   45.4210 H   0  0  0  0  0  0  0  0  0  0  0  0
   60.8951   28.8691   47.8575 H   0  0  0  0  0  0  0  0  0  0  0  0
   59.7258   30.7251   49.0678 H   0  0  0  0  0  0  0  0  0  0  0  0
   58.0701   32.1821   47.8506 H   0  0  0  0  0  0  0  0  0  0  0  0
   55.9585   33.0556   44.4810 H   0  0  0  0  0  0  0  0  0  0  0  0
   56.2066   32.8656   46.2680 H   0  0  0  0  0  0  0  0  0  0  0  0
   58.1514   34.3019   44.4013 H   0  0  0  0  0  0  0  0  0  0  0  0
   56.8801   35.1175   45.3886 H   0  0  0  0  0  0  0  0  0  0  0  0
   58.1890   33.5980   47.2610 H   0  0  0  0  0  0  0  0  0  0  0  0
   62.1486   33.9786   45.4511 H   0  0  0  0  0  0  0  0  0  0  0  0
   63.9867   32.8614   46.7038 H   0  0  0  0  0  0  0  0  0  0  0  0
   65.2947   32.9745   50.8219 H   0  0  0  0  0  0  0  0  0  0  0  0
   66.0367   32.3357   49.3158 H   0  0  0  0  0  0  0  0  0  0  0  0
   65.2542   33.9527   49.3158 H   0  0  0  0  0  0  0  0  0  0  0  0
   61.7251   33.2558   50.3734 H   0  0  0  0  0  0  0  0  0  0  0  0
   59.8765   34.3565   49.1200 H   0  0  0  0  0  0  0  0  0  0  0  0
  1  2  1  0
  2  3  1  0
  3  4  1  0
  4  5  1  0
  5  6  1  0
  6  7  2  0
  7  8  1  0
  8  9  2  0
  9 10  1  0
 10 11  2  0
 11 12  1  0
 12 13  1  0
 13 14  1  0
 14 15  1  0
 15 16  1  0
 16 17  2  0
 16 18  1  0
 18 19  2  0
 19 20  1  0
 20 21  2  0
 21 22  1  0
 22 23  1  0
 21 24  1  0
 24 25  2  0
 12  4  2  0
 25 18  1  0
 11  6  1  0
  1 26  1  0
  1 27  1  0
  1 28  1  0
  2 29  1  0
  2 30  1  0
  3 31  1  0
  3 32  1  0
  5 33  1  0
  7 34  1  0
  8 35  1  0
  9 36  1  0
 10 37  1  0
 13 38  1  0
 13 39  1  0
 14 40  1  0
 14 41  1  0
 15 42  1  0
 19 43  1  0
 20 44  1  0
 23 45  1  0
 23 46  1  0
 23 47  1  0
 24 48  1  0
 25 49  1  0
M  END
>  <UniqueID>  (27) 
26

>  <SMILES>  (27) 
CCCc1[nH]c2ccccc2c1CCNC(=O)c1ccc(OC)cc1

>  <Energy>  (27) 
72.46120378989195

>  <Genealogy>  (27) 
CCCc1[nH]c2ccccc2c1CCNC(=O)c1ccc(OC)cc1 (3D coordinates assigned)
CCCc1[nH]c2ccccc2c1CCNC(=O)c1ccc(OC)cc1 (optimized conformer: 72.46120378989195 kcal/mol)

>  <smiles>  (27) 
CCCc1[nH]c2ccccc2c1CCNC(=O)c1ccc(OC)cc1

>  <score_type>  (27) 
oracle

>  <origin>  (27) 
adg

>  <m_score__min__energy>  (27) 
-7.8399999999999999

>  <m_primary>  (27) 
energy

$$$$
27:0
     RDKit          3D

 31 32  0  0  1  0  0  0  0  0999 V2000
   56.5920   30.1090   43.3370 C   0  0  0  0  0  0  0  0  0  0  0  0
   56.3700   30.8660   44.5070 O   0  0  0  0  0  0  0  0  0  0  0  0
   57.4020   31.5950   45.0860 C   0  0  0  0  0  0  0  0  0  0  0  0
   57.3970   32.9740   44.8680 C   0  0  0  0  0  0  0  0  0  0  0  0
   58.4030   33.7770   45.4180 C   0  0  0  0  0  0  0  0  0  0  0  0
   59.4110   33.1650   46.1880 C   0  0  0  0  0  0  0  0  0  0  0  0
   60.3460   33.9640   46.8010 N   0  0  0  0  0  0  0  0  0  0  0  0
   60.9080   33.8260   47.9050 C   0  0  0  0  0  0  0  0  0  0  0  0
   60.1000   33.8530   49.0080 N   0  0  0  0  0  0  0  0  0  0  0  0
   60.5800   33.8090   50.2580 C   0  0  0  0  0  0  0  0  0  0  0  0
   59.7500   33.8330   51.4750 C   0  0  0  0  0  0  0  0  0  0  0  0
   61.9100   33.7390   50.3990 N   0  0  0  0  0  0  0  0  0  0  0  0
   62.7400   33.7090   49.3450 C   0  0  0  0  0  0  0  0  0  0  0  0
   62.2510   33.7500   48.0130 C   0  0  0  0  0  0  0  0  0  0  0  0
   63.2400   33.6950   47.0360 N   0  0  0  0  0  0  0  0  0  0  0  0
   63.6640   34.5340   46.2460 O   0  0  0  0  0  0  0  0  0  0  0  0
   63.7770   32.4070   46.8010 O   0  0  0  0  0  0  0  0  0  0  0  0
   59.3890   31.7730   46.3900 C   0  0  0  0  0  0  0  0  0  0  0  0
   58.3880   30.9960   45.8390 C   0  0  0  0  0  0  0  0  0  0  0  0
   56.8917   29.0872   43.6128 H   0  0  0  0  0  0  0  0  0  0  0  0
   55.6668   30.0721   42.7431 H   0  0  0  0  0  0  0  0  0  0  0  0
   57.3905   30.5776   42.7431 H   0  0  0  0  0  0  0  0  0  0  0  0
   56.6003   33.4307   44.2624 H   0  0  0  0  0  0  0  0  0  0  0  0
   58.4062   34.8644   45.2521 H   0  0  0  0  0  0  0  0  0  0  0  0
   60.3998   33.8142   52.3624 H   0  0  0  0  0  0  0  0  0  0  0  0
   59.1412   34.7491   51.4856 H   0  0  0  0  0  0  0  0  0  0  0  0
   59.0893   32.9536   51.4856 H   0  0  0  0  0  0  0  0  0  0  0  0
   62.3330   33.7060   51.3660 H   0  0  0  0  0  0  0  0  0  0  0  0
   63.8249   33.6513   49.5173 H   0  0  0  0  0  0  0  0  0  0  0  0
   60.1770   31.2981   46.9929 H   0  0  0  0  0  0  0  0  0  0  0  0
   58.3785   29.9079   46.0003 H   0  0  0  0  0  0  0  0  0  0  0  0
  1  2  1  0
  2  3  1  0
  3  4  2  0
  4  5  1  0
  5  6  2  0
  6  7  1  0
  7  8  2  0
  8  9  1  0
  9 10  2  0
 10 11  1  0
 10 12  1  0
 12 13  1  0
 13 14  2  0
 14 15  1  0
 15 16  2  0
 15 17  1  0
  6 18  1  0
 18 19  2  0
 19  3  1  0
 14  8  1  0
  1 20  1  0
  1 21  1  0
  1 22  1  0
  4 23  1  0
  5 24  1  0
 11 25  1  0
 11 26  1  0
 11 27  1  0
 12 28  1  0
 13 29  1  0
 18 30  1  0
 19 31  1  0
M  CHG  2  15   1  17  -1
M  END
>  <smiles>  (28) 
COc1ccc(N=c2nc(C)[nH]cc2[N+](=O)[O-])cc1

>  <score_type>  (28) 
oracle

>  <origin>  (28) 
adg

>  <m_score__min__energy>  (28) 
-6.3300000000000001

>  <m_primary>  (28) 
energy

$$$$
28:0
     RDKit          3D

 52 54  0  0  0  0  0  0  0  0999 V2000
   54.7550   23.4240   45.0030 C   0  0  0  0  0  0  0  0  0  0  0  0
   55.7140   24.5550   45.1940 C   0  0  0  0  0  0  0  0  0  0  0  0
   56.9000   24.6140   44.4600 C   0  0  0  0  0  0  0  0  0  0  0  0
   57.7620   25.6940   44.6450 C   0  0  0  0  0  0  0  0  0  0  0  0
   57.4220   26.6970   45.5640 C   0  0  0  0  0  0  0  0  0  0  0  0
   58.2710   27.8450   45.7770 N   0  0  0  0  0  0  0  0  0  0  0  0
   59.6990   27.8070   45.4240 C   0  0  0  0  0  0  0  0  0  0  0  0
   60.5720   28.4670   46.5150 C   0  0  0  0  0  0  0  0  0  0  0  0
   59.8440   29.4780   47.3170 N   0  0  0  0  0  0  0  0  0  0  0  0
   60.7430   30.4120   48.0290 C   0  0  0  0  0  0  0  0  0  0  0  0
   61.5030   31.3900   47.1010 C   0  0  0  0  0  0  0  0  0  0  0  0
   60.8790   32.8050   47.1060 C   0  0  0  0  0  0  0  0  0  0  0  0
   60.1910   33.0810   48.4570 C   0  0  0  0  0  0  0  0  0  0  0  0
   59.6670   34.5290   48.5480 C   0  0  0  0  0  0  0  0  0  0  0  0
   59.2490   35.1180   47.1860 C   0  0  0  0  0  0  0  0  0  0  0  0
   58.7710   34.0280   46.2250 C   0  0  0  0  0  0  0  0  0  0  0  0
   59.8830   33.0030   45.9290 C   0  0  0  0  0  0  0  0  0  0  0  0
   58.7610   30.1390   46.5730 C   0  0  0  0  0  0  0  0  0  0  0  0
   57.6750   29.1000   46.2680 C   0  0  1  0  0  0  0  0  0  0  0  0
   56.7000   29.6510   45.2650 C   0  0  0  0  0  0  0  0  0  0  0  0
   55.5570   28.8890   44.8810 N   0  0  0  0  0  0  0  0  0  0  0  0
   56.9070   30.7780   44.7400 O   0  0  0  0  0  0  0  0  0  0  0  0
   56.2400   26.5960   46.2340 N   0  0  0  0  0  0  0  0  0  0  0  0
   55.4160   25.5630   46.0560 N   0  0  0  0  0  0  0  0  0  0  0  0
   54.4341   23.0456   45.9848 H   0  0  0  0  0  0  0  0  0  0  0  0
   53.8776   23.7780   44.4419 H   0  0  0  0  0  0  0  0  0  0  0  0
   55.2477   22.6163   44.4419 H   0  0  0  0  0  0  0  0  0  0  0  0
   57.1515   23.8177   43.7440 H   0  0  0  0  0  0  0  0  0  0  0  0
   58.7006   25.7587   44.0750 H   0  0  0  0  0  0  0  0  0  0  0  0
   60.0094   26.7585   45.3042 H   0  0  0  0  0  0  0  0  0  0  0  0
   59.8371   28.3669   44.4873 H   0  0  0  0  0  0  0  0  0  0  0  0
   60.9373   27.6811   47.1925 H   0  0  0  0  0  0  0  0  0  0  0  0
   61.3941   28.9883   46.0028 H   0  0  0  0  0  0  0  0  0  0  0  0
   60.1391   31.0031   48.7332 H   0  0  0  0  0  0  0  0  0  0  0  0
   61.5037   29.7975   48.5327 H   0  0  0  0  0  0  0  0  0  0  0  0
   62.5467   31.4620   47.4410 H   0  0  0  0  0  0  0  0  0  0  0  0
   61.4420   30.9979   46.0751 H   0  0  0  0  0  0  0  0  0  0  0  0
   61.6941   33.5305   46.9673 H   0  0  0  0  0  0  0  0  0  0  0  0
   59.3446   32.3881   48.5736 H   0  0  0  0  0  0  0  0  0  0  0  0
   60.9340   32.9356   49.2550 H   0  0  0  0  0  0  0  0  0  0  0  0
   58.7931   34.5418   49.2159 H   0  0  0  0  0  0  0  0  0  0  0  0
   60.4922   35.1485   48.9291 H   0  0  0  0  0  0  0  0  0  0  0  0
   58.4326   35.8382   47.3437 H   0  0  0  0  0  0  0  0  0  0  0  0
   60.1257   35.6102   46.7399 H   0  0  0  0  0  0  0  0  0  0  0  0
   57.9148   33.5051   46.6761 H   0  0  0  0  0  0  0  0  0  0  0  0
   58.4846   34.5073   45.2772 H   0  0  0  0  0  0  0  0  0  0  0  0
   59.4121   32.0343   45.7058 H   0  0  0  0  0  0  0  0  0  0  0  0
   60.4625   33.3933   45.0794 H   0  0  0  0  0  0  0  0  0  0  0  0
   58.3364   30.9522   47.1801 H   0  0  0  0  0  0  0  0  0  0  0  0
   59.1515   30.5621   45.6357 H   0  0  0  0  0  0  0  0  0  0  0  0
   57.1353   28.8764   47.2001 H   0  0  0  0  0  0  0  0  0  0  0  0
   55.5200   27.8580   45.0440 H   0  0  0  0  0  0  0  0  0  0  0  0
  1  2  1  0
  2  3  2  0
  3  4  1  0
  4  5  2  0
  5  6  1  0
  6  7  1  0
  7  8  1  0
  8  9  1  0
  9 10  1  0
 10 11  1  0
 11 12  1  0
 12 13  1  0
 13 14  1  0
 14 15  1  0
 15 16  1  0
 16 17  1  0
  9 18  1  0
 18 19  1  0
 19 20  1  0
 20 21  1  0
 20 22  2  0
  5 23  1  0
 23 24  2  0
 24  2  1  0
 19  6  1  0
 17 12  1  0
  1 25  1  0
  1 26  1  0
  1 27  1  0
  3 28  1  0
  4 29  1  0
  7 30  1  0
  7 31  1  0
  8 32  1  0
  8 33  1  0
 10 34  1  0
 10 35  1  0
 11 36  1  0
 11 37  1  0
 12 38  1  0
 13 39  1  0
 13 40  1  0
 14 41  1  0
 14 42  1  0
 15 43  1  0
 15 44  1  0
 16 45  1  0
 16 46  1  0
 17 47  1  0
 17 48  1  0
 18 49  1  0
 18 50  1  0
 19 51  1  1
 21 52  1  0
M  CHG  1  21  -1
M  END
>  <UniqueID>  (29) 
27

>  <SMILES>  (29) 
Cc1ccc(N2CCN(CCC3CCCCC3)C[C@H]2C([NH-])=O)nn1

>  <Energy>  (29) 
61.62685766523681

>  <Genealogy>  (29) 
Cc1ccc(N2CCN(CCC3CCCCC3)CC2C([NH-])=O)nn1 (protonated)
Cc1ccc(N2CCN(CCC3CCCCC3)C[C@H]2C([NH-])=O)nn1 (chirality)
Cc1ccc(N2CCN(CCC3CCCCC3)C[C@H]2C([NH-])=O)nn1 (3D coordinates assigned)
Cc1ccc(N2CCN(CCC3CCCCC3)C[C@H]2C([NH-])=O)nn1 (nonaromatic ring conformer: 61.62685766523681 kcal/mol)

>  <smiles>  (29) 
Cc1ccc(N2CCN(CCC3CCCCC3)CC2C(N)=O)nn1

>  <score_type>  (29) 
oracle

>  <origin>  (29) 
adg

>  <m_score__min__energy>  (29) 
-11.99

>  <m_primary>  (29) 
energy

$$$$
29:0
     RDKit          3D

 48 51  0  0  0  0  0  0  0  0999 V2000
   59.0670   33.5840   44.8120 F   0  0  0  0  0  0  0  0  0  0  0  0
   57.8800   32.8780   44.8740 C   0  0  0  0  0  0  0  0  0  0  0  0
   57.4060   32.6870   43.5890 F   0  0  0  0  0  0  0  0  0  0  0  0
   56.9620   33.6140   45.6000 F   0  0  0  0  0  0  0  0  0  0  0  0
   58.1190   31.5490   45.5260 C   0  0  0  0  0  0  0  0  0  0  0  0
   57.3970   30.4770   45.2510 O   0  0  0  0  0  0  0  0  0  0  0  0
   57.8590   29.4850   45.9720 C   0  0  0  0  0  0  0  0  0  0  0  0
   57.3950   28.1720   46.0000 C   0  0  0  0  0  0  0  0  0  0  0  0
   58.0370   27.2540   46.8680 C   0  0  0  0  0  0  0  0  0  0  0  0
   57.6460   25.9090   46.9680 O   0  0  0  0  0  0  0  0  0  0  0  0
   57.2010   25.0950   45.8830 C   0  0  0  0  0  0  0  0  0  0  0  0
   58.1310   23.8870   45.7000 C   0  0  0  0  0  0  0  0  0  0  0  0
   58.0750   23.3670   44.3160 N   0  0  0  0  0  0  0  0  0  0  0  0
   56.9860   24.0080   43.5410 C   0  0  0  0  0  0  0  0  0  0  0  0
   55.7310   23.1190   43.4750 C   0  0  0  0  0  0  0  0  0  0  0  0
   55.9580   21.8500   42.8740 O   0  0  0  0  0  0  0  0  0  0  0  0
   57.2940   21.3850   43.0140 C   0  0  0  0  0  0  0  0  0  0  0  0
   57.9860   21.8850   44.2930 C   0  0  0  0  0  0  0  0  0  0  0  0
   59.1110   27.6940   47.6770 C   0  0  0  0  0  0  0  0  0  0  0  0
   59.5560   29.0280   47.6260 C   0  0  0  0  0  0  0  0  0  0  0  0
   58.9090   29.8970   46.7480 C   0  0  0  0  0  0  0  0  0  0  0  0
   59.0920   31.2400   46.4850 C   0  0  0  0  0  0  0  0  0  0  0  0
   60.1110   32.1330   47.0760 C   0  0  0  0  0  0  0  0  0  0  0  0
   61.4630   31.7540   47.1040 C   0  0  0  0  0  0  0  0  0  0  0  0
   62.4220   32.6050   47.6630 C   0  0  0  0  0  0  0  0  0  0  0  0
   62.0390   33.8400   48.1920 C   0  0  0  0  0  0  0  0  0  0  0  0
   60.6970   34.2270   48.1620 C   0  0  0  0  0  0  0  0  0  0  0  0
   59.7350   33.3780   47.6040 C   0  0  0  0  0  0  0  0  0  0  0  0
   56.5534   27.8563   45.3659 H   0  0  0  0  0  0  0  0  0  0  0  0
   56.1816   24.7386   46.0923 H   0  0  0  0  0  0  0  0  0  0  0  0
   57.2113   25.6947   44.9609 H   0  0  0  0  0  0  0  0  0  0  0  0
   59.1633   24.1926   45.9259 H   0  0  0  0  0  0  0  0  0  0  0  0
   57.8014   23.0900   46.3827 H   0  0  0  0  0  0  0  0  0  0  0  0
   56.7217   24.9620   44.0206 H   0  0  0  0  0  0  0  0  0  0  0  0
   57.3459   24.1680   42.5139 H   0  0  0  0  0  0  0  0  0  0  0  0
   55.3662   22.9571   44.5001 H   0  0  0  0  0  0  0  0  0  0  0  0
   54.9981   23.6452   42.8458 H   0  0  0  0  0  0  0  0  0  0  0  0
   57.2798   20.2853   43.0328 H   0  0  0  0  0  0  0  0  0  0  0  0
   57.8654   21.7800   42.1611 H   0  0  0  0  0  0  0  0  0  0  0  0
   57.4099   21.5473   45.1671 H   0  0  0  0  0  0  0  0  0  0  0  0
   59.0069   21.4761   44.3171 H   0  0  0  0  0  0  0  0  0  0  0  0
   59.6053   26.9832   48.3556 H   0  0  0  0  0  0  0  0  0  0  0  0
   60.3871   29.3740   48.2581 H   0  0  0  0  0  0  0  0  0  0  0  0
   61.7689   30.7842   46.6847 H   0  0  0  0  0  0  0  0  0  0  0  0
   63.4790   32.3015   47.6861 H   0  0  0  0  0  0  0  0  0  0  0  0
   62.7942   34.5078   48.6322 H   0  0  0  0  0  0  0  0  0  0  0  0
   60.3963   35.2001   48.5775 H   0  0  0  0  0  0  0  0  0  0  0  0
   58.6797   33.6875   47.5790 H   0  0  0  0  0  0  0  0  0  0  0  0
  1  2  1  0
  2  3  1  0
  2  4  1  0
  2  5  1  0
  5  6  1  0
  6  7  1  0
  7  8  2  0
  8  9  1  0
  9 10  1  0
 10 11  1  0
 11 12  1  0
 12 13  1  0
 13 14  1  0
 14 15  1  0
 15 16  1  0
 16 17  1  0
 17 18  1  0
  9 19  2  0
 19 20  1  0
 20 21  2  0
 21 22  1  0
 22 23  1  0
 23 24  2  0
 24 25  1  0
 25 26  2  0
 26 27  1  0
 27 28  2  0
 22  5  2  0
 28 23  1  0
 21  7  1  0
 18 13  1  0
  8 29  1  0
 11 30  1  0
 11 31  1  0
 12 32  1  0
 12 33  1  0
 14 34  1  0
 14 35  1  0
 15 36  1  0
 15 37  1  0
 17 38  1  0
 17 39  1  0
 18 40  1  0
 18 41  1  0
 19 42  1  0
 20 43  1  0
 24 44  1  0
 25 45  1  0
 26 46  1  0
 27 47  1  0
 28 48  1  0
M  END
>  <UniqueID>  (30) 
28

>  <SMILES>  (30) 
FC(F)(F)c1oc2cc(OCCN3CCOCC3)ccc2c1-c1ccccc1

>  <Energy>  (30) 
103.69327144829526

>  <Genealogy>  (30) 
FC(F)(F)c1oc2cc(OCCN3CCOCC3)ccc2c1-c1ccccc1 (3D coordinates assigned)
FC(F)(F)c1oc2cc(OCCN3CCOCC3)ccc2c1-c1ccccc1 (nonaromatic ring conformer: 103.69327144829526 kcal/mol)

>  <smiles>  (30) 
FC(F)(F)c1oc2cc(OCCN3CCOCC3)ccc2c1-c1ccccc1

>  <score_type>  (30) 
oracle

>  <origin>  (30) 
adg

>  <m_score__min__energy>  (30) 
-7.6699999999999999

>  <m_primary>  (30) 
energy

$$$$
30:0
     RDKit          3D

 40 43  0  0  0  0  0  0  0  0999 V2000
   57.3180   27.7850   45.8600 C   0  0  0  0  0  0  0  0  0  0  0  0
   57.3060   29.2570   45.6080 C   0  0  0  0  0  0  0  0  0  0  0  0
   56.4070   29.8680   44.8730 O   0  0  0  0  0  0  0  0  0  0  0  0
   56.6400   31.1480   44.8090 N   0  0  0  0  0  0  0  0  0  0  0  0
   57.7450   31.3920   45.5420 C   0  0  0  0  0  0  0  0  0  0  0  0
   58.2790   32.7530   45.7610 C   0  0  0  0  0  0  0  0  0  0  0  0
   58.4240   33.2440   47.0680 C   0  0  0  0  0  0  0  0  0  0  0  0
   58.9340   34.5260   47.2870 C   0  0  0  0  0  0  0  0  0  0  0  0
   59.3170   35.3230   46.2050 C   0  0  0  0  0  0  0  0  0  0  0  0
   59.2000   34.8340   44.9020 C   0  0  0  0  0  0  0  0  0  0  0  0
   58.6910   33.5510   44.6790 C   0  0  0  0  0  0  0  0  0  0  0  0
   58.2130   30.1950   46.0700 C   0  0  0  0  0  0  0  0  0  0  0  0
   59.4400   29.9440   46.8520 C   0  0  0  0  0  0  0  0  0  0  0  0
   59.6220   28.8130   47.3780 O   0  0  0  0  0  0  0  0  0  0  0  0
   60.4540   30.9560   46.9530 N   0  0  0  0  0  0  0  0  0  0  0  0
   61.4190   31.0240   48.0160 C   0  0  0  0  0  0  0  0  0  0  0  0
   61.2790   30.2490   49.1840 C   0  0  0  0  0  0  0  0  0  0  0  0
   62.2100   30.3550   50.2210 C   0  0  0  0  0  0  0  0  0  0  0  0
   63.2830   31.2440   50.1130 C   0  0  0  0  0  0  0  0  0  0  0  0
   64.1890   31.3480   51.1230 N   0  0  0  0  0  0  0  0  0  0  0  0
   65.2410   32.2070   51.0520 C   0  0  0  0  0  0  0  0  0  0  0  0
   65.4140   33.0140   49.9250 C   0  0  0  0  0  0  0  0  0  0  0  0
   64.5000   32.9310   48.8720 C   0  0  0  0  0  0  0  0  0  0  0  0
   63.4210   32.0400   48.9560 C   0  0  0  0  0  0  0  0  0  0  0  0
   62.4850   31.9320   47.9180 C   0  0  0  0  0  0  0  0  0  0  0  0
   57.3195   27.5986   46.9441 H   0  0  0  0  0  0  0  0  0  0  0  0
   56.4235   27.3288   45.4108 H   0  0  0  0  0  0  0  0  0  0  0  0
   58.2198   27.3434   45.4108 H   0  0  0  0  0  0  0  0  0  0  0  0
   58.1347   32.6164   47.9238 H   0  0  0  0  0  0  0  0  0  0  0  0
   59.0343   34.9089   48.3133 H   0  0  0  0  0  0  0  0  0  0  0  0
   59.7105   36.3353   46.3795 H   0  0  0  0  0  0  0  0  0  0  0  0
   59.5085   35.4586   44.0507 H   0  0  0  0  0  0  0  0  0  0  0  0
   58.6125   33.1640   43.6523 H   0  0  0  0  0  0  0  0  0  0  0  0
   60.5180   31.6580   46.1810 H   0  0  0  0  0  0  0  0  0  0  0  0
   60.4308   29.5553   49.2806 H   0  0  0  0  0  0  0  0  0  0  0  0
   62.0980   29.7373   51.1243 H   0  0  0  0  0  0  0  0  0  0  0  0
   65.9577   32.2665   51.8844 H   0  0  0  0  0  0  0  0  0  0  0  0
   66.2639   33.7099   49.8672 H   0  0  0  0  0  0  0  0  0  0  0  0
   64.6264   33.5624   47.9802 H   0  0  0  0  0  0  0  0  0  0  0  0
   62.5864   32.5621   47.0221 H   0  0  0  0  0  0  0  0  0  0  0  0
  1  2  1  0
  2  3  1  0
  3  4  1  0
  4  5  2  0
  5  6  1  0
  6  7  2  0
  7  8  1  0
  8  9  2  0
  9 10  1  0
 10 11  2  0
  5 12  1  0
 12 13  1  0
 13 14  2  0
 13 15  1  0
 15 16  1  0
 16 17  2  0
 17 18  1  0
 18 19  2  0
 19 20  1  0
 20 21  2  0
 21 22  1  0
 22 23  2  0
 23 24  1  0
 24 25  2  0
 12  2  2  0
 25 16  1  0
 11  6  1  0
 24 19  1  0
  1 26  1  0
  1 27  1  0
  1 28  1  0
  7 29  1  0
  8 30  1  0
  9 31  1  0
 10 32  1  0
 11 33  1  0
 15 34  1  0
 17 35  1  0
 18 36  1  0
 21 37  1  0
 22 38  1  0
 23 39  1  0
 25 40  1  0
M  END
>  <UniqueID>  (31) 
29

>  <SMILES>  (31) 
Cc1onc(-c2ccccc2)c1C(=O)Nc1ccc2ncccc2c1

>  <Energy>  (31) 
86.6945287964341

>  <Genealogy>  (31) 
Cc1onc(-c2ccccc2)c1C(=O)Nc1ccc2ncccc2c1 (3D coordinates assigned)
Cc1onc(-c2ccccc2)c1C(=O)Nc1ccc2ncccc2c1 (optimized conformer: 86.6945287964341 kcal/mol)

>  <smiles>  (31) 
Cc1onc(-c2ccccc2)c1C(=O)Nc1ccc2ncccc2c1

>  <score_type>  (31) 
oracle

>  <origin>  (31) 
adg

>  <m_score__min__energy>  (31) 
-8.4000000000000004

>  <m_primary>  (31) 
energy

$$$$
31:0
     RDKit          3D

 35 36  0  0  0  0  0  0  0  0999 V2000
   56.5400   23.7130   47.8000 C   0  0  0  0  0  0  0  0  0  0  0  0
   57.7360   24.3460   47.3600 O   0  0  0  0  0  0  0  0  0  0  0  0
   57.7750   25.4750   46.5280 C   0  0  0  0  0  0  0  0  0  0  0  0
   57.7540   25.2810   45.1430 C   0  0  0  0  0  0  0  0  0  0  0  0
   57.7890   26.3730   44.2710 C   0  0  0  0  0  0  0  0  0  0  0  0
   57.8420   27.6860   44.7740 C   0  0  0  0  0  0  0  0  0  0  0  0
   57.8730   28.8340   43.9080 N   0  0  0  0  0  0  0  0  0  0  0  0
   56.7520   30.1560   44.0080 S   0  0  0  0  0  0  0  0  0  0  0  0
   55.5780   29.7420   44.8520 O   0  0  0  0  0  0  0  0  0  0  0  0
   56.2660   30.5000   42.6290 O   0  0  0  0  0  0  0  0  0  0  0  0
   57.5460   31.5690   44.6960 C   0  0  0  0  0  0  0  0  0  0  0  0
   57.9850   31.5600   46.0280 C   0  0  0  0  0  0  0  0  0  0  0  0
   58.6250   32.6820   46.5640 C   0  0  0  0  0  0  0  0  0  0  0  0
   58.8250   33.8200   45.7740 C   0  0  0  0  0  0  0  0  0  0  0  0
   59.6510   35.2570   46.4600 S   0  0  0  0  0  0  0  0  0  0  0  0
   59.6690   34.5900   48.1530 C   0  0  0  0  0  0  0  0  0  0  0  0
   58.3860   33.8330   44.4450 C   0  0  0  0  0  0  0  0  0  0  0  0
   57.7440   32.7110   43.9090 C   0  0  0  0  0  0  0  0  0  0  0  0
   57.8690   27.8770   46.1640 C   0  0  0  0  0  0  0  0  0  0  0  0
   57.8340   26.7860   47.0360 C   0  0  0  0  0  0  0  0  0  0  0  0
   56.5153   23.6999   48.8996 H   0  0  0  0  0  0  0  0  0  0  0  0
   55.6699   24.2687   47.4202 H   0  0  0  0  0  0  0  0  0  0  0  0
   56.5102   22.6811   47.4202 H   0  0  0  0  0  0  0  0  0  0  0  0
   57.7095   24.2599   44.7363 H   0  0  0  0  0  0  0  0  0  0  0  0
   57.7750   26.2047   43.1840 H   0  0  0  0  0  0  0  0  0  0  0  0
   58.6520   28.9280   43.2180 H   0  0  0  0  0  0  0  0  0  0  0  0
   57.8256   30.6685   46.6524 H   0  0  0  0  0  0  0  0  0  0  0  0
   58.9717   32.6702   47.6079 H   0  0  0  0  0  0  0  0  0  0  0  0
   59.6466   35.4201   48.8744 H   0  0  0  0  0  0  0  0  0  0  0  0
   58.7878   33.9491   48.3040 H   0  0  0  0  0  0  0  0  0  0  0  0
   60.5835   33.9976   48.3040 H   0  0  0  0  0  0  0  0  0  0  0  0
   58.5457   34.7253   43.8218 H   0  0  0  0  0  0  0  0  0  0  0  0
   57.3937   32.7258   42.8664 H   0  0  0  0  0  0  0  0  0  0  0  0
   57.9183   28.8975   46.5717 H   0  0  0  0  0  0  0  0  0  0  0  0
   57.8526   26.9523   48.1232 H   0  0  0  0  0  0  0  0  0  0  0  0
  1  2  1  0
  2  3  1  0
  3  4  2  0
  4  5  1  0
  5  6  2  0
  6  7  1  0
  7  8  1  0
  8  9  2  0
  8 10  2  0
  8 11  1  0
 11 12  2  0
 12 13  1  0
 13 14  2  0
 14 15  1  0
 15 16  1  0
 14 17  1  0
 17 18  2  0
  6 19  1  0
 19 20  2  0
 20  3  1  0
 18 11  1  0
  1 21  1  0
  1 22  1  0
  1 23  1  0
  4 24  1  0
  5 25  1  0
  7 26  1  0
 12 27  1  0
 13 28  1  0
 16 29  1  0
 16 30  1  0
 16 31  1  0
 17 32  1  0
 18 33  1  0
 19 34  1  0
 20 35  1  0
M  END
>  <UniqueID>  (32) 
30

>  <SMILES>  (32) 
COc1ccc(NS(=O)(=O)c2ccc(SC)cc2)cc1

>  <Energy>  (32) 
32.98408730966794

>  <Genealogy>  (32) 
COc1ccc(NS(=O)(=O)c2ccc(SC)cc2)cc1 (3D coordinates assigned)
COc1ccc(NS(=O)(=O)c2ccc(SC)cc2)cc1 (optimized conformer: 32.98408730966794 kcal/mol)

>  <smiles>  (32) 
COc1ccc(NS(=O)(=O)c2ccc(SC)cc2)cc1

>  <score_type>  (32) 
oracle

>  <origin>  (32) 
adg

>  <m_score__min__energy>  (32) 
-7.5199999999999996

>  <m_primary>  (32) 
energy

$$$$
32:0
     RDKit          3D

 44 45  0  0  0  0  0  0  0  0999 V2000
   58.8838   27.5682   46.5449 H   0  0  0  0  0  0  0  0  0  0  0  0
   58.6010   27.2790   45.5220 C   0  0  0  0  0  0  0  0  0  0  0  0
   58.3380   28.3470   44.5380 C   0  0  0  0  0  0  0  0  0  0  0  0
   59.3070   29.0450   44.1390 O   0  0  0  0  0  0  0  0  0  0  0  0
   57.0220   28.5850   44.0070 N   0  0  0  0  0  0  0  0  0  0  0  0
   56.2720   27.8680   44.1260 H   0  0  0  0  0  0  0  0  0  0  0  0
   56.7090   29.7680   43.2100 C   0  0  0  0  0  0  0  0  0  0  0  0
   57.2431   29.7124   42.2500 H   0  0  0  0  0  0  0  0  0  0  0  0
   55.6243   29.8067   43.0314 H   0  0  0  0  0  0  0  0  0  0  0  0
   57.1310   31.0030   43.9410 C   0  0  0  0  0  0  0  0  0  0  0  0
   56.9420   31.1940   45.2260 O   0  0  0  0  0  0  0  0  0  0  0  0
   57.4460   32.3620   45.5530 C   0  0  0  0  0  0  0  0  0  0  0  0
   57.4350   32.7964   46.5636 H   0  0  0  0  0  0  0  0  0  0  0  0
   57.9920   32.9620   44.4350 C   0  0  0  0  0  0  0  0  0  0  0  0
   58.4882   33.9426   44.3872 H   0  0  0  0  0  0  0  0  0  0  0  0
   57.7900   32.0850   43.3920 C   0  0  0  0  0  0  0  0  0  0  0  0
   58.0906   32.2187   42.3423 H   0  0  0  0  0  0  0  0  0  0  0  0
   58.5120   25.9730   45.2300 C   0  0  0  0  0  0  0  0  0  0  0  0
   59.4454   25.4082   45.0892 H   0  0  0  0  0  0  0  0  0  0  0  0
   57.2250   25.2460   45.0860 C   0  0  0  0  0  0  0  0  0  0  0  0
   56.0730   25.6000   45.8100 C   0  0  0  0  0  0  0  0  0  0  0  0
   56.1113   26.4374   46.5223 H   0  0  0  0  0  0  0  0  0  0  0  0
   54.8810   24.8960   45.6310 C   0  0  0  0  0  0  0  0  0  0  0  0
   53.9875   25.1813   46.2057 H   0  0  0  0  0  0  0  0  0  0  0  0
   54.8130   23.8250   44.7220 C   0  0  0  0  0  0  0  0  0  0  0  0
   53.6330   23.0890   44.5130 O   0  0  0  0  0  0  0  0  0  0  0  0
   52.3600   23.3700   45.0940 C   0  0  0  0  0  0  0  0  0  0  0  0
   52.4998   24.0141   45.9746 H   0  0  0  0  0  0  0  0  0  0  0  0
   51.8880   22.4201   45.3854 H   0  0  0  0  0  0  0  0  0  0  0  0
   51.4530   24.0800   44.0940 C   0  0  0  0  0  0  0  0  0  0  0  0
   50.6996   24.6698   44.6368 H   0  0  0  0  0  0  0  0  0  0  0  0
   52.0563   24.7484   43.4621 H   0  0  0  0  0  0  0  0  0  0  0  0
   50.9490   23.3339   43.4621 H   0  0  0  0  0  0  0  0  0  0  0  0
   55.9500   23.4730   43.9810 C   0  0  0  0  0  0  0  0  0  0  0  0
   55.8420   22.4060   43.0720 O   0  0  0  0  0  0  0  0  0  0  0  0
   56.6800   21.2500   43.0350 C   0  0  0  0  0  0  0  0  0  0  0  0
   56.1690   20.4517   42.4767 H   0  0  0  0  0  0  0  0  0  0  0  0
   57.6266   21.5161   42.5420 H   0  0  0  0  0  0  0  0  0  0  0  0
   56.9850   20.7570   44.4470 C   0  0  0  0  0  0  0  0  0  0  0  0
   56.5535   21.4544   45.1801 H   0  0  0  0  0  0  0  0  0  0  0  0
   56.5468   19.7581   44.5892 H   0  0  0  0  0  0  0  0  0  0  0  0
   58.0744   20.7032   44.5892 H   0  0  0  0  0  0  0  0  0  0  0  0
   57.1480   24.1930   44.1620 C   0  0  0  0  0  0  0  0  0  0  0  0
   58.0357   23.9254   43.5701 H   0  0  0  0  0  0  0  0  0  0  0  0
  1  2  1  0
  2  3  1  0
  3  4  2  0
  3  5  1  0
  5  6  1  0
  5  7  1  0
  7  8  1  0
  7  9  1  0
  7 10  1  0
 10 11  1  0
 11 12  1  0
 12 13  1  0
 12 14  2  0
 14 15  1  0
 14 16  1  0
 16 17  1  0
  2 18  2  0
 18 19  1  0
 18 20  1  0
 20 21  2  0
 21 22  1  0
 21 23  1  0
 23 24  1  0
 23 25  2  0
 25 26  1  0
 26 27  1  0
 27 28  1  0
 27 29  1  0
 27 30  1  0
 30 31  1  0
 30 32  1  0
 30 33  1  0
 25 34  1  0
 34 35  1  0
 35 36  1  0
 36 37  1  0
 36 38  1  0
 36 39  1  0
 39 40  1  0
 39 41  1  0
 39 42  1  0
 34 43  2  0
 43 44  1  0
 16 10  2  0
 43 20  1  0
M  END
>  <UniqueID>  (33) 
31

>  <SMILES>  (33) 
CCOc1ccc(/C=C/C(=O)NCc2ccco2)cc1OCC

>  <Energy>  (33) 
65.80115751780744

>  <Genealogy>  (33) 
CCOc1ccc(/C=C/C(=O)NCc2ccco2)cc1OCC (cis-trans isomerization)
CCOc1ccc(/C=C/C(=O)NCc2ccco2)cc1OCC (3D coordinates assigned)
CCOc1ccc(/C=C/C(=O)NCc2ccco2)cc1OCC (optimized conformer: 65.80115751780744 kcal/mol)

>  <smiles>  (33) 
CCOc1ccc(C=CC(=O)NCc2ccco2)cc1OCC

>  <score_type>  (33) 
oracle

>  <origin>  (33) 
adg

>  <m_score__min__energy>  (33) 
-7.0300000000000002

>  <m_primary>  (33) 
energy

$$$$
33:0
     RDKit          3D

 36 37  0  0  0  0  0  0  0  0999 V2000
   61.0650   28.7170   45.1780 C   0  0  0  0  0  0  0  0  0  0  0  0
   59.7920   27.9470   45.3660 C   0  0  0  0  0  0  0  0  0  0  0  0
   59.8300   26.6420   45.8710 C   0  0  0  0  0  0  0  0  0  0  0  0
   58.6450   25.9420   46.1000 C   0  0  0  0  0  0  0  0  0  0  0  0
   57.4000   26.5290   45.8220 C   0  0  0  0  0  0  0  0  0  0  0  0
   56.1710   25.7390   46.0570 C   0  0  0  0  0  0  0  0  0  0  0  0
   54.8960   26.3750   46.1670 N   0  0  0  0  0  0  0  0  0  0  0  0
   56.2390   24.4820   46.1180 O   0  0  0  0  0  0  0  0  0  0  0  0
   57.3500   27.8530   45.3300 C   0  0  0  0  0  0  0  0  0  0  0  0
   56.0820   28.5100   45.1650 N   0  0  0  0  0  0  0  0  0  0  0  0
   55.8350   29.6590   44.3460 C   0  0  0  0  0  0  0  0  0  0  0  0
   54.7520   29.7740   43.7100 O   0  0  0  0  0  0  0  0  0  0  0  0
   56.8450   30.7600   44.2820 C   0  0  0  0  0  0  0  0  0  0  0  0
   57.0630   31.3150   45.5790 O   0  0  0  0  0  0  0  0  0  0  0  0
   58.2710   31.8660   46.0390 C   0  0  0  0  0  0  0  0  0  0  0  0
   59.2210   31.1110   46.7560 C   0  0  0  0  0  0  0  0  0  0  0  0
   60.4100   31.7020   47.1910 C   0  0  0  0  0  0  0  0  0  0  0  0
   60.6670   33.0480   46.9180 C   0  0  0  0  0  0  0  0  0  0  0  0
   62.1590   33.7880   47.4670 Cl  0  0  0  0  0  0  0  0  0  0  0  0
   59.7330   33.8040   46.2030 C   0  0  0  0  0  0  0  0  0  0  0  0
   58.5410   33.2170   45.7630 C   0  0  0  0  0  0  0  0  0  0  0  0
   57.3850   34.1910   44.8690 Cl  0  0  0  0  0  0  0  0  0  0  0  0
   58.5520   28.5570   45.1220 C   0  0  0  0  0  0  0  0  0  0  0  0
   61.4875   28.9726   46.1609 H   0  0  0  0  0  0  0  0  0  0  0  0
   61.7855   28.1031   44.6176 H   0  0  0  0  0  0  0  0  0  0  0  0
   60.8558   29.6401   44.6176 H   0  0  0  0  0  0  0  0  0  0  0  0
   60.7979   26.1665   46.0881 H   0  0  0  0  0  0  0  0  0  0  0  0
   58.6865   24.9192   46.5027 H   0  0  0  0  0  0  0  0  0  0  0  0
   54.0440   25.8070   46.3690 H   0  0  0  0  0  0  0  0  0  0  0  0
   54.7820   27.3920   45.9630 H   0  0  0  0  0  0  0  0  0  0  0  0
   57.7937   30.3589   43.8959 H   0  0  0  0  0  0  0  0  0  0  0  0
   56.4680   31.5501   43.6159 H   0  0  0  0  0  0  0  0  0  0  0  0
   59.0253   30.0508   46.9743 H   0  0  0  0  0  0  0  0  0  0  0  0
   61.1461   31.1057   47.7502 H   0  0  0  0  0  0  0  0  0  0  0  0
   59.9356   34.8631   45.9857 H   0  0  0  0  0  0  0  0  0  0  0  0
   58.5184   29.5967   44.7643 H   0  0  0  0  0  0  0  0  0  0  0  0
  1  2  1  0
  2  3  2  0
  3  4  1  0
  4  5  2  0
  5  6  1  0
  6  7  1  0
  6  8  2  0
  5  9  1  0
  9 10  1  0
 10 11  1  0
 11 12  2  0
 11 13  1  0
 13 14  1  0
 14 15  1  0
 15 16  2  0
 16 17  1  0
 17 18  2  0
 18 19  1  0
 18 20  1  0
 20 21  2  0
 21 22  1  0
  9 23  2  0
 23  2  1  0
 21 15  1  0
  1 24  1  0
  1 25  1  0
  1 26  1  0
  3 27  1  0
  4 28  1  0
  7 29  1  0
  7 30  1  0
 13 31  1  0
 13 32  1  0
 16 33  1  0
 17 34  1  0
 20 35  1  0
 23 36  1  0
M  CHG  1  10  -1
M  END
>  <UniqueID>  (34) 
32

>  <SMILES>  (34) 
Cc1ccc(C(N)=O)c([N-]C(=O)COc2ccc(Cl)cc2Cl)c1

>  <Energy>  (34) 
41.3062841803299

>  <Genealogy>  (34) 
Cc1ccc(C(N)=O)c([N-]C(=O)COc2ccc(Cl)cc2Cl)c1 (protonated)
Cc1ccc(C(N)=O)c([N-]C(=O)COc2ccc(Cl)cc2Cl)c1 (3D coordinates assigned)
Cc1ccc(C(N)=O)c([N-]C(=O)COc2ccc(Cl)cc2Cl)c1 (optimized conformer: 41.3062841803299 kcal/mol)

>  <smiles>  (34) 
Cc1ccc(C(N)=O)c(NC(=O)COc2ccc(Cl)cc2Cl)c1

>  <score_type>  (34) 
oracle

>  <origin>  (34) 
adg

>  <m_score__min__energy>  (34) 
-11.16

>  <m_primary>  (34) 
energy

$$$$
34:0
     RDKit          3D

 47 49  0  0  0  0  0  0  0  0999 V2000
   64.5310   32.6690   49.2660 C   0  0  0  0  0  0  0  0  0  0  0  0
   63.3430   33.1720   48.4960 C   0  0  0  0  0  0  0  0  0  0  0  0
   63.3040   33.0550   47.0980 C   0  0  0  0  0  0  0  0  0  0  0  0
   62.1890   33.5020   46.3850 C   0  0  0  0  0  0  0  0  0  0  0  0
   61.0960   34.0680   47.0580 C   0  0  0  0  0  0  0  0  0  0  0  0
   59.9030   34.5600   46.2790 C   0  0  0  0  0  0  0  0  0  0  0  0
   59.0500   33.4250   45.8710 N   0  0  0  0  0  0  0  0  0  0  0  0
   58.1040   33.8240   44.8060 C   0  0  0  0  0  0  0  0  0  0  0  0
   57.5960   32.6120   44.0280 C   0  0  0  0  0  0  0  0  0  0  0  0
   56.9790   31.6420   44.8610 O   0  0  0  0  0  0  0  0  0  0  0  0
   57.8760   30.7680   45.5480 C   0  0  1  0  0  0  0  0  0  0  0  0
   59.0870   30.2350   44.7380 C   0  0  0  0  0  0  0  0  0  0  0  0
   59.7640   29.1150   45.4430 N   0  0  1  0  0  0  0  0  0  0  0  0
   61.1120   28.9110   44.8800 C   0  0  0  0  0  0  0  0  0  0  0  0
   59.8250   29.2790   46.9250 C   0  0  0  0  0  0  0  0  0  0  0  0
   59.6810   30.7410   47.3730 C   0  0  0  0  0  0  0  0  0  0  0  0
   58.3110   31.3160   46.9390 C   0  0  1  0  0  0  0  0  0  0  0  0
   58.3190   32.8500   47.0250 C   0  0  0  0  0  0  0  0  0  0  0  0
   61.1290   34.1720   48.4570 C   0  0  0  0  0  0  0  0  0  0  0  0
   62.2440   33.7240   49.1730 C   0  0  0  0  0  0  0  0  0  0  0  0
   62.2500   33.8270   50.5280 F   0  0  0  0  0  0  0  0  0  0  0  0
   64.3315   32.7535   50.3444 H   0  0  0  0  0  0  0  0  0  0  0  0
   64.7155   31.6156   49.0087 H   0  0  0  0  0  0  0  0  0  0  0  0
   65.4158   33.2697   49.0087 H   0  0  0  0  0  0  0  0  0  0  0  0
   64.1548   32.6096   46.5616 H   0  0  0  0  0  0  0  0  0  0  0  0
   62.1679   33.4096   45.2891 H   0  0  0  0  0  0  0  0  0  0  0  0
   59.3169   35.2458   46.9085 H   0  0  0  0  0  0  0  0  0  0  0  0
   60.2564   35.0825   45.3778 H   0  0  0  0  0  0  0  0  0  0  0  0
   57.2472   34.3402   45.2636 H   0  0  0  0  0  0  0  0  0  0  0  0
   58.6317   34.4881   44.1057 H   0  0  0  0  0  0  0  0  0  0  0  0
   56.8616   32.9546   43.2842 H   0  0  0  0  0  0  0  0  0  0  0  0
   58.4661   32.1351   43.5532 H   0  0  0  0  0  0  0  0  0  0  0  0
   57.2538   29.8747   45.7060 H   0  0  0  0  0  0  0  0  0  0  0  0
   58.7334   29.8793   43.7590 H   0  0  0  0  0  0  0  0  0  0  0  0
   59.8103   31.0552   44.6190 H   0  0  0  0  0  0  0  0  0  0  0  0
   59.2190   28.2420   45.2440 H   0  0  0  0  0  0  0  0  0  0  0  0
   61.8385   28.8011   45.6986 H   0  0  0  0  0  0  0  0  0  0  0  0
   61.1170   28.0019   44.2608 H   0  0  0  0  0  0  0  0  0  0  0  0
   61.3858   29.7779   44.2608 H   0  0  0  0  0  0  0  0  0  0  0  0
   59.0115   28.6922   47.3765 H   0  0  0  0  0  0  0  0  0  0  0  0
   60.8147   28.9297   47.2544 H   0  0  0  0  0  0  0  0  0  0  0  0
   59.7629   30.7922   48.4687 H   0  0  0  0  0  0  0  0  0  0  0  0
   60.4781   31.3346   46.9015 H   0  0  0  0  0  0  0  0  0  0  0  0
   57.5397   30.9688   47.6422 H   0  0  0  0  0  0  0  0  0  0  0  0
   57.2829   33.2194   47.0191 H   0  0  0  0  0  0  0  0  0  0  0  0
   58.8216   33.1541   47.9550 H   0  0  0  0  0  0  0  0  0  0  0  0
   60.2735   34.6082   48.9935 H   0  0  0  0  0  0  0  0  0  0  0  0
  1  2  1  0
  2  3  2  0
  3  4  1  0
  4  5  2  0
  5  6  1  0
  6  7  1  0
  7  8  1  0
  8  9  1  0
  9 10  1  0
 10 11  1  0
 11 12  1  0
 12 13  1  0
 13 14  1  0
 13 15  1  0
 15 16  1  0
 16 17  1  0
 17 18  1  0
  5 19  1  0
 19 20  2  0
 20 21  1  0
 20  2  1  0
 18  7  1  0
 17 11  1  0
  1 22  1  0
  1 23  1  0
  1 24  1  0
  3 25  1  0
  4 26  1  0
  6 27  1  0
  6 28  1  0
  8 29  1  0
  8 30  1  0
  9 31  1  0
  9 32  1  0
 11 33  1  1
 12 34  1  0
 12 35  1  0
 13 36  1  1
 14 37  1  0
 14 38  1  0
 14 39  1  0
 15 40  1  0
 15 41  1  0
 16 42  1  0
 16 43  1  0
 17 44  1  1
 18 45  1  0
 18 46  1  0
 19 47  1  0
M  CHG  1  13   1
M  END
>  <UniqueID>  (35) 
33

>  <SMILES>  (35) 
Cc1ccc(CN2CCO[C@H]3C[N@@H+](C)CCC3C2)cc1F

>  <Energy>  (35) 
71.9403719873393

>  <Genealogy>  (35) 
Cc1ccc(CN2CCOC3C[NH+](C)CCC3C2)cc1F (protonated)
Cc1ccc(CN2CCO[C@H]3C[N@@H+](C)CCC3C2)cc1F (chirality)
Cc1ccc(CN2CCO[C@H]3C[N@@H+](C)CCC3C2)cc1F (3D coordinates assigned)
Cc1ccc(CN2CCO[C@H]3C[N@@H+](C)CCC3C2)cc1F (nonaromatic ring conformer: 71.9403719873393 kcal/mol)

>  <smiles>  (35) 
Cc1ccc(CN2CCOC3CN(C)CCC3C2)cc1F

>  <score_type>  (35) 
oracle

>  <origin>  (35) 
adg

>  <m_score__min__energy>  (35) 
-4.3200000000000003

>  <m_primary>  (35) 
energy

$$$$
35:0
     RDKit          3D

 38 38  0  0  0  0  0  0  0  0999 V2000
   59.3650   30.2480   48.3540 C   0  0  0  0  0  0  0  0  0  0  0  0
   60.4880   30.4990   47.3570 C   0  0  0  0  0  0  0  0  0  0  0  0
   60.0990   29.7340   45.7440 S   0  0  0  0  0  0  0  0  0  0  0  0
   58.3860   29.2440   46.1700 C   0  0  0  0  0  0  0  0  0  0  0  0
   57.5550   28.9030   44.9220 C   0  0  1  0  0  0  0  0  0  0  0  0
   57.2490   27.4680   44.8710 N   0  0  0  0  0  0  0  0  0  0  0  0
   58.2510   26.4620   45.0780 C   0  0  0  0  0  0  0  0  0  0  0  0
   57.8630   25.0190   45.0980 C   0  0  0  0  0  0  0  0  0  0  0  0
   59.4560   26.7860   45.2540 O   0  0  0  0  0  0  0  0  0  0  0  0
   56.2950   29.7270   44.8620 C   0  0  0  0  0  0  0  0  0  0  0  0
   55.1660   29.1650   44.8430 O   0  0  0  0  0  0  0  0  0  0  0  0
   56.3890   31.1550   44.8650 N   0  0  0  0  0  0  0  0  0  0  0  0
   57.4420   31.8950   44.1780 C   0  0  0  0  0  0  0  0  0  0  0  0
   58.0790   32.8870   45.1120 C   0  0  0  0  0  0  0  0  0  0  0  0
   58.9000   33.9130   44.6160 C   0  0  0  0  0  0  0  0  0  0  0  0
   59.5070   34.8150   45.4950 C   0  0  0  0  0  0  0  0  0  0  0  0
   59.3020   34.6980   46.8730 C   0  0  0  0  0  0  0  0  0  0  0  0
   58.4910   33.6770   47.3740 C   0  0  0  0  0  0  0  0  0  0  0  0
   57.8820   32.7710   46.4990 C   0  0  0  0  0  0  0  0  0  0  0  0
   59.7573   30.3357   49.3779 H   0  0  0  0  0  0  0  0  0  0  0  0
   58.5673   30.9900   48.2022 H   0  0  0  0  0  0  0  0  0  0  0  0
   58.9591   29.2370   48.2022 H   0  0  0  0  0  0  0  0  0  0  0  0
   60.6155   31.5832   47.2215 H   0  0  0  0  0  0  0  0  0  0  0  0
   61.4147   30.0526   47.7469 H   0  0  0  0  0  0  0  0  0  0  0  0
   58.4221   28.3606   46.8245 H   0  0  0  0  0  0  0  0  0  0  0  0
   57.9057   30.0951   46.6748 H   0  0  0  0  0  0  0  0  0  0  0  0
   58.1598   29.1534   44.0380 H   0  0  0  0  0  0  0  0  0  0  0  0
   56.2640   27.1510   44.7140 H   0  0  0  0  0  0  0  0  0  0  0  0
   57.7714   24.6783   46.1399 H   0  0  0  0  0  0  0  0  0  0  0  0
   56.8987   24.8915   44.5844 H   0  0  0  0  0  0  0  0  0  0  0  0
   58.6333   24.4250   44.5844 H   0  0  0  0  0  0  0  0  0  0  0  0
   58.2071   31.1899   43.8211 H   0  0  0  0  0  0  0  0  0  0  0  0
   57.0018   32.4365   43.3277 H   0  0  0  0  0  0  0  0  0  0  0  0
   59.0659   34.0071   43.5327 H   0  0  0  0  0  0  0  0  0  0  0  0
   60.1472   35.6184   45.1016 H   0  0  0  0  0  0  0  0  0  0  0  0
   59.7793   35.4099   47.5626 H   0  0  0  0  0  0  0  0  0  0  0  0
   58.3309   33.5851   48.4584 H   0  0  0  0  0  0  0  0  0  0  0  0
   57.2473   31.9657   46.8974 H   0  0  0  0  0  0  0  0  0  0  0  0
  1  2  1  0
  2  3  1  0
  3  4  1  0
  4  5  1  0
  5  6  1  0
  6  7  1  0
  7  8  1  0
  7  9  2  0
  5 10  1  0
 10 11  2  0
 10 12  1  0
 12 13  1  0
 13 14  1  0
 14 15  2  0
 15 16  1  0
 16 17  2  0
 17 18  1  0
 18 19  2  0
 19 14  1  0
  1 20  1  0
  1 21  1  0
  1 22  1  0
  2 23  1  0
  2 24  1  0
  4 25  1  0
  4 26  1  0
  5 27  1  6
  6 28  1  0
  8 29  1  0
  8 30  1  0
  8 31  1  0
 13 32  1  0
 13 33  1  0
 15 34  1  0
 16 35  1  0
 17 36  1  0
 18 37  1  0
 19 38  1  0
M  CHG  1  12  -1
M  END
>  <UniqueID>  (36) 
34

>  <SMILES>  (36) 
CCSC[C@@H](NC(C)=O)C(=O)[N-]Cc1ccccc1

>  <Energy>  (36) 
23.122483852025493

>  <Genealogy>  (36) 
CCSCC(NC(C)=O)C(=O)[N-]Cc1ccccc1 (protonated)
CCSC[C@@H](NC(C)=O)C(=O)[N-]Cc1ccccc1 (chirality)
CCSC[C@@H](NC(C)=O)C(=O)[N-]Cc1ccccc1 (3D coordinates assigned)
CCSC[C@@H](NC(C)=O)C(=O)[N-]Cc1ccccc1 (optimized conformer: 23.122483852025493 kcal/mol)

>  <smiles>  (36) 
CCSCC(NC(C)=O)C(=O)NCc1ccccc1

>  <score_type>  (36) 
oracle

>  <origin>  (36) 
adg

>  <m_score__min__energy>  (36) 
-8.1999999999999993

>  <m_primary>  (36) 
energy

$$$$
36:0
     RDKit          3D

 35 36  0  0  0  0  0  0  0  0999 V2000
   64.1300   32.5690   48.7880 C   0  0  0  0  0  0  0  0  0  0  0  0
   62.8510   33.1530   48.2660 C   0  0  0  0  0  0  0  0  0  0  0  0
   62.6380   33.2640   46.8850 C   0  0  0  0  0  0  0  0  0  0  0  0
   61.4620   33.8410   46.3970 C   0  0  0  0  0  0  0  0  0  0  0  0
   60.4790   34.3140   47.2820 C   0  0  0  0  0  0  0  0  0  0  0  0
   59.2030   34.9330   46.7480 C   0  0  0  0  0  0  0  0  0  0  0  0
   58.1230   33.9530   46.4850 N   0  0  0  0  0  0  0  0  0  0  0  0
   57.9410   33.6410   45.0490 C   0  0  0  0  0  0  0  0  0  0  0  0
   57.0240   32.4250   44.8680 C   0  0  0  0  0  0  0  0  0  0  0  0
   57.5700   31.2060   45.5200 N   0  0  0  0  0  0  0  0  0  0  0  0
   58.1850   30.3020   44.5350 C   0  0  0  0  0  0  0  0  0  0  0  0
   58.5220   31.4890   46.6200 C   0  0  0  0  0  0  0  0  0  0  0  0
   58.1350   32.7690   47.3750 C   0  0  0  0  0  0  0  0  0  0  0  0
   60.7170   34.2420   48.6660 C   0  0  0  0  0  0  0  0  0  0  0  0
   61.8940   33.6650   49.1530 C   0  0  0  0  0  0  0  0  0  0  0  0
   64.1143   32.5762   49.8879 H   0  0  0  0  0  0  0  0  0  0  0  0
   64.2338   31.5343   48.4295 H   0  0  0  0  0  0  0  0  0  0  0  0
   64.9799   33.1683   48.4295 H   0  0  0  0  0  0  0  0  0  0  0  0
   63.3997   32.8954   46.1821 H   0  0  0  0  0  0  0  0  0  0  0  0
   61.3051   33.9253   45.3115 H   0  0  0  0  0  0  0  0  0  0  0  0
   58.8367   35.6619   47.4859 H   0  0  0  0  0  0  0  0  0  0  0  0
   59.4537   35.3976   45.7830 H   0  0  0  0  0  0  0  0  0  0  0  0
   57.4918   34.5096   44.5453 H   0  0  0  0  0  0  0  0  0  0  0  0
   58.9233   33.4102   44.6110 H   0  0  0  0  0  0  0  0  0  0  0  0
   56.0426   32.6530   45.3093 H   0  0  0  0  0  0  0  0  0  0  0  0
   56.9418   32.2224   43.7899 H   0  0  0  0  0  0  0  0  0  0  0  0
   58.7287   29.5028   45.0601 H   0  0  0  0  0  0  0  0  0  0  0  0
   57.4004   29.8585   43.9043 H   0  0  0  0  0  0  0  0  0  0  0  0
   58.8856   30.8689   43.9043 H   0  0  0  0  0  0  0  0  0  0  0  0
   58.5193   30.6431   47.3232 H   0  0  0  0  0  0  0  0  0  0  0  0
   59.5230   31.6301   46.1862 H   0  0  0  0  0  0  0  0  0  0  0  0
   57.1315   32.6380   47.8061 H   0  0  0  0  0  0  0  0  0  0  0  0
   58.8849   32.9410   48.1611 H   0  0  0  0  0  0  0  0  0  0  0  0
   59.9726   34.6421   49.3701 H   0  0  0  0  0  0  0  0  0  0  0  0
   62.0697   33.6127   50.2376 H   0  0  0  0  0  0  0  0  0  0  0  0
  1  2  1  0
  2  3  2  0
  3  4  1  0
  4  5  2  0
  5  6  1  0
  6  7  1  0
  7  8  1  0
  8  9  1  0
  9 10  1  0
 10 11  1  0
 10 12  1  0
 12 13  1  0
  5 14  1  0
 14 15  2  0
 15  2  1  0
 13  7  1  0
  1 16  1  0
  1 17  1  0
  1 18  1  0
  3 19  1  0
  4 20  1  0
  6 21  1  0
  6 22  1  0
  8 23  1  0
  8 24  1  0
  9 25  1  0
  9 26  1  0
 11 27  1  0
 11 28  1  0
 11 29  1  0
 12 30  1  0
 12 31  1  0
 13 32  1  0
 13 33  1  0
 14 34  1  0
 15 35  1  0
M  END
>  <UniqueID>  (37) 
35

>  <SMILES>  (37) 
Cc1ccc(CN2CCN(C)CC2)cc1

>  <Energy>  (37) 
47.38284775752386

>  <Genealogy>  (37) 
Cc1ccc(CN2CCN(C)CC2)cc1 (3D coordinates assigned)
Cc1ccc(CN2CCN(C)CC2)cc1 (nonaromatic ring conformer: 47.38284775752386 kcal/mol)

>  <smiles>  (37) 
Cc1ccc(CN2CCN(C)CC2)cc1

>  <score_type>  (37) 
oracle

>  <origin>  (37) 
adg

>  <m_score__min__energy>  (37) 
-6.04

>  <m_primary>  (37) 
energy

$$$$
37:0
     RDKit          3D

 30 31  0  0  0  0  0  0  0  0999 V2000
   55.4670   24.3190   46.6050 F   0  0  0  0  0  0  0  0  0  0  0  0
   54.9840   25.1680   45.6280 C   0  0  0  0  0  0  0  0  0  0  0  0
   53.6090   25.0380   45.5700 F   0  0  0  0  0  0  0  0  0  0  0  0
   55.3330   26.5070   45.9680 O   0  0  0  0  0  0  0  0  0  0  0  0
   56.6060   27.1010   45.8800 C   0  0  0  0  0  0  0  0  0  0  0  0
   57.6940   26.3030   46.2610 C   0  0  0  0  0  0  0  0  0  0  0  0
   58.9990   26.7910   46.1980 C   0  0  0  0  0  0  0  0  0  0  0  0
   59.2370   28.0860   45.7470 C   0  0  0  0  0  0  0  0  0  0  0  0
   58.1710   28.9010   45.3640 C   0  0  0  0  0  0  0  0  0  0  0  0
   56.8420   28.4290   45.4320 C   0  0  0  0  0  0  0  0  0  0  0  0
   55.7610   29.2450   45.0610 O   0  0  0  0  0  0  0  0  0  0  0  0
   55.4800   29.7320   43.7460 C   0  0  0  0  0  0  0  0  0  0  0  0
   56.7400   30.2850   43.0700 C   0  0  0  0  0  0  0  0  0  0  0  0
   57.2560   31.4950   43.7870 C   0  0  0  0  0  0  0  0  0  0  0  0
   58.1350   32.4250   43.2760 C   0  0  0  0  0  0  0  0  0  0  0  0
   58.3120   33.3760   44.2070 N   0  0  0  0  0  0  0  0  0  0  0  0
   57.5410   33.0090   45.2490 C   0  0  0  0  0  0  0  0  0  0  0  0
   56.8700   31.8590   45.0250 N   0  0  0  0  0  0  0  0  0  0  0  0
   55.4176   24.9175   44.6486 H   0  0  0  0  0  0  0  0  0  0  0  0
   57.5157   25.2768   46.6148 H   0  0  0  0  0  0  0  0  0  0  0  0
   59.8403   26.1523   46.5048 H   0  0  0  0  0  0  0  0  0  0  0  0
   60.2672   28.4677   45.6924 H   0  0  0  0  0  0  0  0  0  0  0  0
   58.3682   29.9220   45.0053 H   0  0  0  0  0  0  0  0  0  0  0  0
   55.0805   28.9074   43.1373 H   0  0  0  0  0  0  0  0  0  0  0  0
   54.7471   30.5480   43.8297 H   0  0  0  0  0  0  0  0  0  0  0  0
   57.5185   29.5078   43.0726 H   0  0  0  0  0  0  0  0  0  0  0  0
   56.4829   30.5748   42.0405 H   0  0  0  0  0  0  0  0  0  0  0  0
   58.6072   32.3938   42.2830 H   0  0  0  0  0  0  0  0  0  0  0  0
   58.9140   34.2240   44.1350 H   0  0  0  0  0  0  0  0  0  0  0  0
   57.4661   33.5851   46.1831 H   0  0  0  0  0  0  0  0  0  0  0  0
  1  2  1  0
  2  3  1  0
  2  4  1  0
  4  5  1  0
  5  6  2  0
  6  7  1  0
  7  8  2  0
  8  9  1  0
  9 10  2  0
 10 11  1  0
 11 12  1  0
 12 13  1  0
 13 14  1  0
 14 15  2  0
 15 16  1  0
 16 17  1  0
 17 18  2  0
 10  5  1  0
 18 14  1  0
  2 19  1  0
  6 20  1  0
  7 21  1  0
  8 22  1  0
  9 23  1  0
 12 24  1  0
 12 25  1  0
 13 26  1  0
 13 27  1  0
 15 28  1  0
 16 29  1  0
 17 30  1  0
M  END
>  <UniqueID>  (38) 
36

>  <SMILES>  (38) 
FC(F)Oc1ccccc1OCCc1c[nH]cn1

>  <Energy>  (38) 
58.30771699755798

>  <Genealogy>  (38) 
FC(F)Oc1ccccc1OCCc1c[nH]cn1 (3D coordinates assigned)
FC(F)Oc1ccccc1OCCc1c[nH]cn1 (optimized conformer: 58.30771699755798 kcal/mol)

>  <smiles>  (38) 
FC(F)Oc1ccccc1OCCc1c[nH]cn1

>  <score_type>  (38) 
oracle

>  <origin>  (38) 
adg

>  <m_score__min__energy>  (38) 
-5.8399999999999999

>  <m_primary>  (38) 
energy

$$$$
38:0
     RDKit          3D

 41 43  0  0  0  0  0  0  0  0999 V2000
   56.2710   29.6760   42.6220 C   0  0  0  0  0  0  0  0  0  0  0  0
   56.1370   30.6290   43.6700 O   0  0  0  0  0  0  0  0  0  0  0  0
   57.1830   31.0300   44.5140 C   0  0  0  0  0  0  0  0  0  0  0  0
   57.4450   32.3980   44.6440 C   0  0  0  0  0  0  0  0  0  0  0  0
   58.4740   32.8490   45.4750 C   0  0  0  0  0  0  0  0  0  0  0  0
   59.2510   31.9330   46.2040 C   0  0  0  0  0  0  0  0  0  0  0  0
   60.3530   32.3910   47.0760 C   0  0  0  0  0  0  0  0  0  0  0  0
   61.4600   32.9950   46.5940 N   0  0  0  0  0  0  0  0  0  0  0  0
   62.1640   33.3190   47.6960 C   0  0  0  0  0  0  0  0  0  0  0  0
   63.7500   34.1500   47.6370 S   0  0  0  0  0  0  0  0  0  0  0  0
   64.4770   33.0900   48.9240 C   0  0  0  0  0  0  0  0  0  0  0  0
   61.5630   32.9530   48.8420 N   0  0  0  0  0  0  0  0  0  0  0  0
   60.4200   32.3550   48.4640 C   0  0  0  0  0  0  0  0  0  0  0  0
   59.4920   31.7010   49.4120 C   0  0  0  0  0  0  0  0  0  0  0  0
   58.6800   32.4820   50.2480 C   0  0  0  0  0  0  0  0  0  0  0  0
   57.8080   31.8750   51.1560 C   0  0  0  0  0  0  0  0  0  0  0  0
   57.7440   30.4720   51.2510 C   0  0  0  0  0  0  0  0  0  0  0  0
   56.8840   29.8160   52.1440 O   0  0  0  0  0  0  0  0  0  0  0  0
   55.6940   30.3850   52.6780 C   0  0  0  0  0  0  0  0  0  0  0  0
   58.5680   29.6960   50.4290 C   0  0  0  0  0  0  0  0  0  0  0  0
   59.4410   30.3020   49.5210 C   0  0  0  0  0  0  0  0  0  0  0  0
   59.0030   30.5600   46.0580 C   0  0  0  0  0  0  0  0  0  0  0  0
   57.9740   30.1090   45.2260 C   0  0  0  0  0  0  0  0  0  0  0  0
   56.4119   28.6740   43.0534 H   0  0  0  0  0  0  0  0  0  0  0  0
   55.3630   29.6836   42.0012 H   0  0  0  0  0  0  0  0  0  0  0  0
   57.1417   29.9337   42.0012 H   0  0  0  0  0  0  0  0  0  0  0  0
   56.8357   33.1251   44.0872 H   0  0  0  0  0  0  0  0  0  0  0  0
   58.6768   33.9269   45.5589 H   0  0  0  0  0  0  0  0  0  0  0  0
   64.2085   33.4815   49.9163 H   0  0  0  0  0  0  0  0  0  0  0  0
   64.0904   32.0658   48.8170 H   0  0  0  0  0  0  0  0  0  0  0  0
   65.5718   33.0817   48.8170 H   0  0  0  0  0  0  0  0  0  0  0  0
   61.9310   33.0740   49.8120 H   0  0  0  0  0  0  0  0  0  0  0  0
   58.7300   33.5792   50.1885 H   0  0  0  0  0  0  0  0  0  0  0  0
   57.1684   32.4968   51.7997 H   0  0  0  0  0  0  0  0  0  0  0  0
   55.7385   30.3637   53.7769 H   0  0  0  0  0  0  0  0  0  0  0  0
   55.5993   31.4258   52.3349 H   0  0  0  0  0  0  0  0  0  0  0  0
   54.8244   29.8053   52.3349 H   0  0  0  0  0  0  0  0  0  0  0  0
   58.5286   28.5989   50.4978 H   0  0  0  0  0  0  0  0  0  0  0  0
   60.0914   29.6798   48.8886 H   0  0  0  0  0  0  0  0  0  0  0  0
   59.6230   29.8326   46.6024 H   0  0  0  0  0  0  0  0  0  0  0  0
   57.7819   29.0304   45.1275 H   0  0  0  0  0  0  0  0  0  0  0  0
  1  2  1  0
  2  3  1  0
  3  4  2  0
  4  5  1  0
  5  6  2  0
  6  7  1  0
  7  8  1  0
  8  9  2  0
  9 10  1  0
 10 11  1  0
  9 12  1  0
 12 13  1  0
 13 14  1  0
 14 15  2  0
 15 16  1  0
 16 17  2  0
 17 18  1  0
 18 19  1  0
 17 20  1  0
 20 21  2  0
  6 22  1  0
 22 23  2  0
 23  3  1  0
 13  7  2  0
 21 14  1  0
  1 24  1  0
  1 25  1  0
  1 26  1  0
  4 27  1  0
  5 28  1  0
 11 29  1  0
 11 30  1  0
 11 31  1  0
 12 32  1  0
 15 33  1  0
 16 34  1  0
 19 35  1  0
 19 36  1  0
 19 37  1  0
 20 38  1  0
 21 39  1  0
 22 40  1  0
 23 41  1  0
M  END
>  <UniqueID>  (39) 
37

>  <SMILES>  (39) 
COc1ccc(-c2nc(SC)[nH]c2-c2ccc(OC)cc2)cc1

>  <Energy>  (39) 
74.42189854070479

>  <Genealogy>  (39) 
COc1ccc(-c2nc(SC)[nH]c2-c2ccc(OC)cc2)cc1 (3D coordinates assigned)
COc1ccc(-c2nc(SC)[nH]c2-c2ccc(OC)cc2)cc1 (optimized conformer: 74.42189854070479 kcal/mol)

>  <smiles>  (39) 
COc1ccc(-c2nc(SC)[nH]c2-c2ccc(OC)cc2)cc1

>  <score_type>  (39) 
oracle

>  <origin>  (39) 
adg

>  <m_score__min__energy>  (39) 
-6.0199999999999996

>  <m_primary>  (39) 
energy

$$$$
39:0
     RDKit          3D

 40 42  0  0  0  0  0  0  0  0999 V2000
   59.9310   31.0210   47.1630 C   0  0  0  0  0  0  0  0  0  0  0  0
   59.9440   30.2760   45.9510 O   0  0  0  0  0  0  0  0  0  0  0  0
   58.9480   29.3300   45.7680 C   0  0  0  0  0  0  0  0  0  0  0  0
   59.2360   27.9870   45.9210 C   0  0  0  0  0  0  0  0  0  0  0  0
   58.2460   27.0530   45.7390 C   0  0  0  0  0  0  0  0  0  0  0  0
   58.5930   25.6240   45.9140 C   0  0  0  0  0  0  0  0  0  0  0  0
   57.9670   24.9020   44.8270 N   0  0  0  0  0  0  0  0  0  0  0  0
   57.4580   25.3660   43.6720 C   0  0  0  0  0  0  0  0  0  0  0  0
   56.9730   24.3070   42.9600 N   0  0  0  0  0  0  0  0  0  0  0  0
   57.1670   23.1830   43.6500 C   0  0  0  0  0  0  0  0  0  0  0  0
   56.8950   21.8550   43.4430 C   0  0  0  0  0  0  0  0  0  0  0  0
   56.3090   21.4590   42.3520 N   0  0  0  0  0  0  0  0  0  0  0  0
   57.2380   20.9430   44.3760 N   0  0  0  0  0  0  0  0  0  0  0  0
   57.8550   21.3130   45.5350 C   0  0  0  0  0  0  0  0  0  0  0  0
   58.1230   22.6180   45.7390 N   0  0  0  0  0  0  0  0  0  0  0  0
   57.7990   23.5590   44.8350 C   0  0  0  0  0  0  0  0  0  0  0  0
   56.9810   27.4910   45.4040 C   0  0  0  0  0  0  0  0  0  0  0  0
   56.6830   28.8300   45.2470 C   0  0  0  0  0  0  0  0  0  0  0  0
   55.3880   29.2160   44.9080 O   0  0  0  0  0  0  0  0  0  0  0  0
   55.1390   29.7260   43.6110 C   0  0  0  0  0  0  0  0  0  0  0  0
   57.6700   29.7770   45.4280 C   0  0  0  0  0  0  0  0  0  0  0  0
   57.3970   31.1120   45.2780 O   0  0  0  0  0  0  0  0  0  0  0  0
   57.8070   31.9570   44.2510 C   0  0  0  0  0  0  0  0  0  0  0  0
   59.9431   30.3297   48.0185 H   0  0  0  0  0  0  0  0  0  0  0  0
   60.8180   31.6704   47.2038 H   0  0  0  0  0  0  0  0  0  0  0  0
   59.0219   31.6390   47.2038 H   0  0  0  0  0  0  0  0  0  0  0  0
   60.2543   27.6675   46.1875 H   0  0  0  0  0  0  0  0  0  0  0  0
   59.6845   25.4926   45.8761 H   0  0  0  0  0  0  0  0  0  0  0  0
   58.2425   25.2506   46.8875 H   0  0  0  0  0  0  0  0  0  0  0  0
   57.4362   26.4191   43.3550 H   0  0  0  0  0  0  0  0  0  0  0  0
   56.2620   22.1220   41.5470 H   0  0  0  0  0  0  0  0  0  0  0  0
   57.0240   19.9350   44.2040 H   0  0  0  0  0  0  0  0  0  0  0  0
   58.1287   20.5603   46.2890 H   0  0  0  0  0  0  0  0  0  0  0  0
   56.1831   26.7482   45.2571 H   0  0  0  0  0  0  0  0  0  0  0  0
   54.6577   30.7119   43.6908 H   0  0  0  0  0  0  0  0  0  0  0  0
   56.0900   29.8252   43.0672 H   0  0  0  0  0  0  0  0  0  0  0  0
   54.4758   29.0371   43.0672 H   0  0  0  0  0  0  0  0  0  0  0  0
   58.2491   32.8682   44.6803 H   0  0  0  0  0  0  0  0  0  0  0  0
   58.5560   31.4433   43.6305 H   0  0  0  0  0  0  0  0  0  0  0  0
   56.9399   32.2274   43.6305 H   0  0  0  0  0  0  0  0  0  0  0  0
  1  2  1  0
  2  3  1  0
  3  4  2  0
  4  5  1  0
  5  6  1  0
  6  7  1  0
  7  8  1  0
  8  9  2  0
  9 10  1  0
 10 11  1  0
 11 12  2  3
 11 13  1  0
 13 14  1  0
 14 15  2  0
 15 16  1  0
  5 17  2  0
 17 18  1  0
 18 19  1  0
 19 20  1  0
 18 21  2  0
 21 22  1  0
 22 23  1  0
 21  3  1  0
 16  7  1  0
 16 10  2  0
  1 24  1  0
  1 25  1  0
  1 26  1  0
  4 27  1  0
  6 28  1  0
  6 29  1  0
  8 30  1  0
 12 31  1  0
 13 32  1  0
 14 33  1  0
 17 34  1  0
 20 35  1  0
 20 36  1  0
 20 37  1  0
 23 38  1  0
 23 39  1  0
 23 40  1  0
M  END
>  <smiles>  (40) 
COc1cc(Cn2cnc3c(=N)[nH]cnc32)cc(OC)c1OC

>  <score_type>  (40) 
oracle

>  <origin>  (40) 
adg

>  <m_score__min__energy>  (40) 
-6.4199999999999999

>  <m_primary>  (40) 
energy

$$$$
40:0
     RDKit          3D

 33 35  0  0  0  0  0  0  0  0999 V2000
   60.0500   34.2760   48.6090 C   0  0  0  0  0  0  0  0  0  0  0  0
   59.6000   34.5120   47.2060 C   0  0  0  0  0  0  0  0  0  0  0  0
   59.7000   35.6930   46.5530 N   0  0  0  0  0  0  0  0  0  0  0  0
   59.2600   35.5030   45.3080 N   0  0  0  0  0  0  0  0  0  0  0  0
   58.9110   34.2040   45.2300 C   0  0  0  0  0  0  0  0  0  0  0  0
   58.4180   33.5190   44.1310 C   0  0  0  0  0  0  0  0  0  0  0  0
   58.1510   32.1490   44.3020 C   0  0  0  0  0  0  0  0  0  0  0  0
   58.3830   31.5270   45.5580 C   0  0  0  0  0  0  0  0  0  0  0  0
   58.1220   30.0810   45.7770 C   0  0  0  0  0  0  0  0  0  0  0  0
   58.7260   29.4160   46.8590 C   0  0  0  0  0  0  0  0  0  0  0  0
   58.4880   28.0570   47.0840 C   0  0  0  0  0  0  0  0  0  0  0  0
   57.6320   27.3360   46.2340 C   0  0  0  0  0  0  0  0  0  0  0  0
   57.3570   25.9420   46.4260 N   0  0  0  0  0  0  0  0  0  0  0  0
   55.8400   25.1560   46.1290 S   0  0  0  0  0  0  0  0  0  0  0  0
   55.9160   24.2260   44.6130 C   0  0  0  0  0  0  0  0  0  0  0  0
   55.4940   24.2530   47.2810 O   0  0  0  0  0  0  0  0  0  0  0  0
   54.7710   26.2030   45.9990 O   0  0  0  0  0  0  0  0  0  0  0  0
   57.0180   27.9980   45.1660 C   0  0  0  0  0  0  0  0  0  0  0  0
   57.2560   29.3560   44.9370 C   0  0  0  0  0  0  0  0  0  0  0  0
   58.8810   32.2810   46.5850 N   0  0  0  0  0  0  0  0  0  0  0  0
   59.1170   33.5740   46.3840 N   0  0  0  0  0  0  0  0  0  0  0  0
   59.2970   34.6709   49.3069 H   0  0  0  0  0  0  0  0  0  0  0  0
   60.1752   33.1962   48.7772 H   0  0  0  0  0  0  0  0  0  0  0  0
   61.0095   34.7870   48.7772 H   0  0  0  0  0  0  0  0  0  0  0  0
   58.2436   34.0236   43.1692 H   0  0  0  0  0  0  0  0  0  0  0  0
   57.7613   31.5571   43.4607 H   0  0  0  0  0  0  0  0  0  0  0  0
   59.3927   29.9710   47.5353 H   0  0  0  0  0  0  0  0  0  0  0  0
   58.9732   27.5494   47.9307 H   0  0  0  0  0  0  0  0  0  0  0  0
   56.0036   23.1542   44.8444 H   0  0  0  0  0  0  0  0  0  0  0  0
   55.0005   24.4014   44.0289 H   0  0  0  0  0  0  0  0  0  0  0  0
   56.7908   24.5477   44.0289 H   0  0  0  0  0  0  0  0  0  0  0  0
   56.3407   27.4441   44.4993 H   0  0  0  0  0  0  0  0  0  0  0  0
   56.7628   29.8621   44.0940 H   0  0  0  0  0  0  0  0  0  0  0  0
  1  2  1  0
  2  3  2  0
  3  4  1  0
  4  5  2  0
  5  6  1  0
  6  7  2  0
  7  8  1  0
  8  9  1  0
  9 10  2  0
 10 11  1  0
 11 12  2  0
 12 13  1  0
 13 14  1  0
 14 15  1  0
 14 16  2  0
 14 17  2  0
 12 18  1  0
 18 19  2  0
  8 20  2  0
 20 21  1  0
 21  2  1  0
 21  5  1  0
 19  9  1  0
  1 22  1  0
  1 23  1  0
  1 24  1  0
  6 25  1  0
  7 26  1  0
 10 27  1  0
 11 28  1  0
 15 29  1  0
 15 30  1  0
 15 31  1  0
 18 32  1  0
 19 33  1  0
M  CHG  1  13  -1
M  END
>  <UniqueID>  (41) 
38

>  <SMILES>  (41) 
Cc1nnc2ccc(-c3ccc([N-]S(C)(=O)=O)cc3)nn12

>  <Energy>  (41) 
80.27881163049288

>  <Genealogy>  (41) 
Cc1nnc2ccc(-c3ccc([N-]S(C)(=O)=O)cc3)nn12 (protonated)
Cc1nnc2ccc(-c3ccc([N-]S(C)(=O)=O)cc3)nn12 (3D coordinates assigned)
Cc1nnc2ccc(-c3ccc([N-]S(C)(=O)=O)cc3)nn12 (optimized conformer: 80.27881163049288 kcal/mol)

>  <smiles>  (41) 
Cc1nnc2ccc(-c3ccc(NS(C)(=O)=O)cc3)nn12

>  <score_type>  (41) 
oracle

>  <origin>  (41) 
adg

>  <m_score__min__energy>  (41) 
-9.4499999999999993

>  <m_primary>  (41) 
energy

$$$$
41:0
     RDKit          3D

 28 29  0  0  0  0  0  0  0  0999 V2000
   56.2640   26.1240   46.2330 C   0  0  0  0  0  0  0  0  0  0  0  0
   56.7580   27.3500   45.5320 C   0  0  0  0  0  0  0  0  0  0  0  0
   58.1060   27.4710   45.1840 C   0  0  0  0  0  0  0  0  0  0  0  0
   58.5480   28.6270   44.5410 C   0  0  0  0  0  0  0  0  0  0  0  0
   57.6440   29.6630   44.2410 C   0  0  0  0  0  0  0  0  0  0  0  0
   58.0700   30.8710   43.5740 N   0  0  0  0  0  0  0  0  0  0  0  0
   57.4130   32.1720   43.7210 C   0  0  0  0  0  0  0  0  0  0  0  0
   58.0170   32.9460   44.8620 C   0  0  0  0  0  0  0  0  0  0  0  0
   58.8670   34.0370   44.6230 C   0  0  0  0  0  0  0  0  0  0  0  0
   59.4220   34.7380   45.6950 C   0  0  0  0  0  0  0  0  0  0  0  0
   59.1300   34.3370   46.9990 C   0  0  0  0  0  0  0  0  0  0  0  0
   58.3140   33.2710   47.2180 N   0  0  0  0  0  0  0  0  0  0  0  0
   57.7600   32.5730   46.1900 C   0  0  0  0  0  0  0  0  0  0  0  0
   56.2970   29.4990   44.6190 C   0  0  0  0  0  0  0  0  0  0  0  0
   55.4500   30.3990   44.3770 O   0  0  0  0  0  0  0  0  0  0  0  0
   55.8960   28.3620   45.2460 N   0  0  0  0  0  0  0  0  0  0  0  0
   56.3245   26.2742   47.3210 H   0  0  0  0  0  0  0  0  0  0  0  0
   55.2191   25.9339   45.9467 H   0  0  0  0  0  0  0  0  0  0  0  0
   56.8852   25.2625   45.9467 H   0  0  0  0  0  0  0  0  0  0  0  0
   58.8130   26.6607   45.4154 H   0  0  0  0  0  0  0  0  0  0  0  0
   59.6084   28.7295   44.2670 H   0  0  0  0  0  0  0  0  0  0  0  0
   58.9250   30.8430   42.9740 H   0  0  0  0  0  0  0  0  0  0  0  0
   57.5353   32.7457   42.7905 H   0  0  0  0  0  0  0  0  0  0  0  0
   56.3456   32.0080   43.9301 H   0  0  0  0  0  0  0  0  0  0  0  0
   59.0959   34.3398   43.5906 H   0  0  0  0  0  0  0  0  0  0  0  0
   60.0831   35.5982   45.5134 H   0  0  0  0  0  0  0  0  0  0  0  0
   59.5602   34.8836   47.8511 H   0  0  0  0  0  0  0  0  0  0  0  0
   57.1079   31.7126   46.4008 H   0  0  0  0  0  0  0  0  0  0  0  0
  1  2  1  0
  2  3  2  0
  3  4  1  0
  4  5  2  0
  5  6  1  0
  6  7  1  0
  7  8  1  0
  8  9  2  0
  9 10  1  0
 10 11  2  0
 11 12  1  0
 12 13  2  0
  5 14  1  0
 14 15  2  0
 14 16  1  0
 16  2  1  0
 13  8  1  0
  1 17  1  0
  1 18  1  0
  1 19  1  0
  3 20  1  0
  4 21  1  0
  6 22  1  0
  7 23  1  0
  7 24  1  0
  9 25  1  0
 10 26  1  0
 11 27  1  0
 13 28  1  0
M  CHG  1  16  -1
M  END
>  <UniqueID>  (42) 
39

>  <SMILES>  (42) 
Cc1ccc(NCc2cccnc2)c(=O)[n-]1

>  <Energy>  (42) 
28.98907711023303

>  <Genealogy>  (42) 
Cc1ccc(NCc2cccnc2)c(=O)[n-]1 (protonated)
Cc1ccc(NCc2cccnc2)c(=O)[n-]1 (3D coordinates assigned)
Cc1ccc(NCc2cccnc2)c(=O)[n-]1 (optimized conformer: 28.98907711023303 kcal/mol)

>  <smiles>  (42) 
Cc1ccc(NCc2cccnc2)c(=O)[nH]1

>  <score_type>  (42) 
oracle

>  <origin>  (42) 
adg

>  <m_score__min__energy>  (42) 
-8.5199999999999996

>  <m_primary>  (42) 
energy

$$$$
42:0
     RDKit          3D

 41 43  0  0  1  0  0  0  0  0999 V2000
   57.5390   34.0480   44.6770 C   0  0  0  0  0  0  0  0  0  0  0  0
   57.7890   33.9340   46.4810 S   0  0  0  0  0  0  0  0  0  0  0  0
   59.4220   33.2390   46.7150 C   0  0  0  0  0  0  0  0  0  0  0  0
   60.5750   33.9950   46.5660 C   0  0  0  0  0  0  0  0  0  0  0  0
   61.8110   33.4100   46.7580 C   0  0  0  0  0  0  0  0  0  0  0  0
   61.9590   32.0820   47.0980 C   0  0  0  0  0  0  0  0  0  0  0  0
   60.8310   31.3330   47.2470 C   0  0  0  0  0  0  0  0  0  0  0  0
   59.5930   31.9120   47.0560 C   0  0  0  0  0  0  0  0  0  0  0  0
   58.3800   31.1440   47.2070 N   0  0  0  0  0  0  0  0  0  0  0  0
   57.9420   30.4190   46.2090 C   0  0  0  0  0  0  0  0  0  0  0  0
   58.1920   29.0660   46.1320 C   0  0  0  0  0  0  0  0  0  0  0  0
   57.7380   28.2770   45.0820 C   0  0  0  0  0  0  0  0  0  0  0  0
   57.9990   26.8810   45.0040 N   0  0  0  0  0  0  0  0  0  0  0  0
   58.5380   26.2140   46.1890 C   0  0  0  0  0  0  0  0  0  0  0  0
   59.1250   24.8660   45.8900 C   0  0  0  0  0  0  0  0  0  0  0  0
   58.1660   23.9590   45.1650 C   0  0  0  0  0  0  0  0  0  0  0  0
   57.3470   24.6570   44.1370 C   0  0  0  0  0  0  0  0  0  0  0  0
   57.7720   26.0790   43.8450 C   0  0  0  0  0  0  0  0  0  0  0  0
   57.0340   28.9100   44.1320 N   0  0  0  0  0  0  0  0  0  0  0  0
   56.7670   30.2360   44.1690 C   0  0  0  0  0  0  0  0  0  0  0  0
   57.2250   30.9630   45.2040 N   0  0  0  0  0  0  0  0  0  0  0  0
   56.5559   34.4963   44.4707 H   0  0  0  0  0  0  0  0  0  0  0  0
   58.3278   34.6754   44.2364 H   0  0  0  0  0  0  0  0  0  0  0  0
   57.5825   33.0410   44.2364 H   0  0  0  0  0  0  0  0  0  0  0  0
   60.5051   35.0589   46.2953 H   0  0  0  0  0  0  0  0  0  0  0  0
   62.7129   34.0277   46.6349 H   0  0  0  0  0  0  0  0  0  0  0  0
   62.9562   31.6414   47.2443 H   0  0  0  0  0  0  0  0  0  0  0  0
   60.9067   30.2698   47.5188 H   0  0  0  0  0  0  0  0  0  0  0  0
   58.7750   28.5910   46.9348 H   0  0  0  0  0  0  0  0  0  0  0  0
   59.3243   26.8501   46.6215 H   0  0  0  0  0  0  0  0  0  0  0  0
   57.7021   26.0601   46.8873 H   0  0  0  0  0  0  0  0  0  0  0  0
   60.0196   25.0032   45.2648 H   0  0  0  0  0  0  0  0  0  0  0  0
   59.3678   24.3901   46.8516 H   0  0  0  0  0  0  0  0  0  0  0  0
   58.7450   23.1662   44.6688 H   0  0  0  0  0  0  0  0  0  0  0  0
   57.4687   23.5601   45.9165 H   0  0  0  0  0  0  0  0  0  0  0  0
   57.4099   24.0821   43.2013 H   0  0  0  0  0  0  0  0  0  0  0  0
   56.3262   24.7162   44.5425 H   0  0  0  0  0  0  0  0  0  0  0  0
   58.7046   26.0457   43.2627 H   0  0  0  0  0  0  0  0  0  0  0  0
   56.9395   26.5476   43.2996 H   0  0  0  0  0  0  0  0  0  0  0  0
   56.6440   28.4060   43.2920 H   0  0  0  0  0  0  0  0  0  0  0  0
   56.1850   30.7117   43.3659 H   0  0  0  0  0  0  0  0  0  0  0  0
  1  2  1  0
  2  3  1  0
  3  4  2  0
  4  5  1  0
  5  6  2  0
  6  7  1  0
  7  8  2  0
  8  9  1  0
  9 10  2  0
 10 11  1  0
 11 12  2  0
 12 13  1  0
 13 14  1  0
 14 15  1  0
 15 16  1  0
 16 17  1  0
 17 18  1  0
 12 19  1  0
 19 20  1  0
 20 21  2  0
  8  3  1  0
 21 10  1  0
 18 13  1  0
  1 22  1  0
  1 23  1  0
  1 24  1  0
  4 25  1  0
  5 26  1  0
  6 27  1  0
  7 28  1  0
 11 29  1  0
 14 30  1  0
 14 31  1  0
 15 32  1  0
 15 33  1  0
 16 34  1  0
 16 35  1  0
 17 36  1  0
 17 37  1  0
 18 38  1  0
 18 39  1  0
 19 40  1  0
 20 41  1  0
M  END
>  <smiles>  (43) 
CSc1ccccc1N=c1cc(N2CCCCC2)[nH]cn1

>  <score_type>  (43) 
oracle

>  <origin>  (43) 
adg

>  <m_score__min__energy>  (43) 
-7.4800000000000004

>  <m_primary>  (43) 
energy

$$$$
43:0
     RDKit          3D

 44 45  0  0  0  0  0  0  0  0999 V2000
   57.3620   33.5290   44.8160 C   0  0  0  0  0  0  0  0  0  0  0  0
   58.2290   32.8180   44.0900 C   0  0  0  0  0  0  0  0  0  0  0  0
   57.7720   31.7260   43.1670 C   0  0  0  0  0  0  0  0  0  0  0  0
   57.1030   30.6750   43.9270 N   0  0  0  0  0  0  0  0  0  0  0  0
   57.5990   29.4650   44.2360 C   0  0  0  0  0  0  0  0  0  0  0  0
   56.6410   28.8510   45.0240 C   0  0  0  0  0  0  0  0  0  0  0  0
   56.6470   27.4970   45.6160 C   0  0  0  0  0  0  0  0  0  0  0  0
   55.5360   26.9670   45.8800 O   0  0  0  0  0  0  0  0  0  0  0  0
   57.8390   26.7780   45.9760 N   0  0  0  0  0  0  0  0  0  0  0  0
   58.3660   26.4690   47.3030 C   0  0  0  0  0  0  0  0  0  0  0  0
   59.4890   27.4320   47.7490 C   0  0  0  0  0  0  0  0  0  0  0  0
   59.2110   28.8700   47.5330 N   0  0  0  0  0  0  0  0  0  0  0  0
   60.1060   29.5480   46.5790 C   0  0  0  0  0  0  0  0  0  0  0  0
   59.6650   31.0060   46.4170 C   0  0  0  0  0  0  0  0  0  0  0  0
   59.7290   31.7660   47.6950 N   0  0  0  0  0  0  0  0  0  0  0  0
   58.6540   32.7790   47.7900 C   0  0  0  0  0  0  0  0  0  0  0  0
   59.2050   34.1900   47.5930 C   0  0  0  0  0  0  0  0  0  0  0  0
   59.7710   30.9030   48.9020 C   0  0  0  0  0  0  0  0  0  0  0  0
   58.8950   29.6460   48.7550 C   0  0  0  0  0  0  0  0  0  0  0  0
   55.5950   29.6960   45.1450 N   0  0  0  0  0  0  0  0  0  0  0  0
   55.9080   30.7980   44.4810 N   0  0  0  0  0  0  0  0  0  0  0  0
   57.7257   34.3235   45.4842 H   0  0  0  0  0  0  0  0  0  0  0  0
   56.2843   33.3200   44.7457 H   0  0  0  0  0  0  0  0  0  0  0  0
   59.3038   33.0380   44.1705 H   0  0  0  0  0  0  0  0  0  0  0  0
   57.0716   32.1431   42.4284 H   0  0  0  0  0  0  0  0  0  0  0  0
   58.6461   31.2987   42.6538 H   0  0  0  0  0  0  0  0  0  0  0  0
   58.5684   29.0477   43.9260 H   0  0  0  0  0  0  0  0  0  0  0  0
   57.5426   26.5310   48.0298 H   0  0  0  0  0  0  0  0  0  0  0  0
   58.7995   25.4591   47.2566 H   0  0  0  0  0  0  0  0  0  0  0  0
   59.6627   27.2770   48.8241 H   0  0  0  0  0  0  0  0  0  0  0  0
   60.3615   27.1931   47.1231 H   0  0  0  0  0  0  0  0  0  0  0  0
   61.1382   29.5166   46.9580 H   0  0  0  0  0  0  0  0  0  0  0  0
   60.0587   29.0391   45.6050 H   0  0  0  0  0  0  0  0  0  0  0  0
   60.3230   31.4941   45.6830 H   0  0  0  0  0  0  0  0  0  0  0  0
   58.6173   31.0031   46.0819 H   0  0  0  0  0  0  0  0  0  0  0  0
   57.9007   32.5765   47.0144 H   0  0  0  0  0  0  0  0  0  0  0  0
   58.2052   32.7173   48.7924 H   0  0  0  0  0  0  0  0  0  0  0  0
   59.3859   34.6533   48.5741 H   0  0  0  0  0  0  0  0  0  0  0  0
   60.1496   34.1397   47.0315 H   0  0  0  0  0  0  0  0  0  0  0  0
   58.4763   34.7931   47.0315 H   0  0  0  0  0  0  0  0  0  0  0  0
   60.8111   30.5904   49.0768 H   0  0  0  0  0  0  0  0  0  0  0  0
   59.3788   31.4883   49.7467 H   0  0  0  0  0  0  0  0  0  0  0  0
   59.0537   29.0016   49.6322 H   0  0  0  0  0  0  0  0  0  0  0  0
   57.8487   29.9767   48.6780 H   0  0  0  0  0  0  0  0  0  0  0  0
  1  2  2  0
  2  3  1  0
  3  4  1  0
  4  5  1  0
  5  6  2  0
  6  7  1  0
  7  8  2  0
  7  9  1  0
  9 10  1  0
 10 11  1  0
 11 12  1  0
 12 13  1  0
 13 14  1  0
 14 15  1  0
 15 16  1  0
 16 17  1  0
 15 18  1  0
 18 19  1  0
  6 20  1  0
 20 21  2  0
 21  4  1  0
 19 12  1  0
  1 22  1  0
  1 23  1  0
  2 24  1  0
  3 25  1  0
  3 26  1  0
  5 27  1  0
 10 28  1  0
 10 29  1  0
 11 30  1  0
 11 31  1  0
 13 32  1  0
 13 33  1  0
 14 34  1  0
 14 35  1  0
 16 36  1  0
 16 37  1  0
 17 38  1  0
 17 39  1  0
 17 40  1  0
 18 41  1  0
 18 42  1  0
 19 43  1  0
 19 44  1  0
M  CHG  1   9  -1
M  END
>  <UniqueID>  (44) 
40

>  <SMILES>  (44) 
C=CCn1cc(C(=O)[N-]CCN2CCN(CC)CC2)nn1

>  <Energy>  (44) 
91.23261129147613

>  <Genealogy>  (44) 
C=CCn1cc(C(=O)[N-]CCN2CCN(CC)CC2)nn1 (protonated)
C=CCn1cc(C(=O)[N-]CCN2CCN(CC)CC2)nn1 (3D coordinates assigned)
C=CCn1cc(C(=O)[N-]CCN2CCN(CC)CC2)nn1 (nonaromatic ring conformer: 91.23261129147613 kcal/mol)

>  <smiles>  (44) 
C=CCn1cc(C(=O)NCCN2CCN(CC)CC2)nn1

>  <score_type>  (44) 
oracle

>  <origin>  (44) 
adg

>  <m_score__min__energy>  (44) 
-9.2200000000000006

>  <m_primary>  (44) 
energy

$$$$
44:0
     RDKit          3D

 40 43  0  0  0  0  0  0  0  0999 V2000
   55.3780   26.4060   46.0600 O   0  0  0  0  0  0  0  0  0  0  0  0
   56.0670   25.3660   46.0000 C   0  0  0  0  0  0  0  0  0  0  0  0
   55.4220   24.1890   45.5240 N   0  0  0  0  0  0  0  0  0  0  0  0
   56.0130   23.3670   44.7300 C   0  0  0  0  0  0  0  0  0  0  0  0
   57.0560   22.6780   45.2560 N   0  0  0  0  0  0  0  0  0  0  0  0
   57.6940   21.8100   44.4500 C   0  0  0  0  0  0  0  0  0  0  0  0
   57.3360   21.5970   43.1330 C   0  0  0  0  0  0  0  0  0  0  0  0
   58.0400   20.7010   42.4000 F   0  0  0  0  0  0  0  0  0  0  0  0
   56.2700   22.3130   42.6240 C   0  0  0  0  0  0  0  0  0  0  0  0
   55.6330   23.1880   43.4510 N   0  0  0  0  0  0  0  0  0  0  0  0
   57.4300   25.3280   46.3790 N   0  0  0  0  0  0  0  0  0  0  0  0
   58.1820   26.4160   46.8640 C   0  0  0  0  0  0  0  0  0  0  0  0
   59.1490   26.3540   47.8340 C   0  0  0  0  0  0  0  0  0  0  0  0
   59.8560   27.4830   48.2660 C   0  0  0  0  0  0  0  0  0  0  0  0
   59.5900   28.7140   47.7100 C   0  0  0  0  0  0  0  0  0  0  0  0
   58.6070   28.7870   46.7220 C   0  0  0  0  0  0  0  0  0  0  0  0
   58.3620   30.1090   46.1670 C   0  0  0  0  0  0  0  0  0  0  0  0
   57.3400   30.3950   45.2890 C   0  0  0  0  0  0  0  0  0  0  0  0
   57.1300   31.6340   44.7840 N   0  0  0  0  0  0  0  0  0  0  0  0
   57.9300   32.6470   45.1310 C   0  0  0  0  0  0  0  0  0  0  0  0
   57.7590   33.9140   44.6490 C   0  0  0  0  0  0  0  0  0  0  0  0
   58.6030   34.9620   45.0210 C   0  0  0  0  0  0  0  0  0  0  0  0
   59.6400   34.6850   45.9080 C   0  0  0  0  0  0  0  0  0  0  0  0
   59.7980   33.4020   46.3840 C   0  0  0  0  0  0  0  0  0  0  0  0
   58.9560   32.3710   46.0090 C   0  0  0  0  0  0  0  0  0  0  0  0
   59.1650   31.1400   46.5110 N   0  0  0  0  0  0  0  0  0  0  0  0
   57.9390   27.6740   46.3250 C   0  0  0  0  0  0  0  0  0  0  0  0
   58.5423   21.2421   44.8599 H   0  0  0  0  0  0  0  0  0  0  0  0
   55.9451   22.1804   41.5815 H   0  0  0  0  0  0  0  0  0  0  0  0
   54.8290   23.7340   43.0850 H   0  0  0  0  0  0  0  0  0  0  0  0
   57.9010   24.3970   46.2830 H   0  0  0  0  0  0  0  0  0  0  0  0
   59.3783   25.3798   48.2905 H   0  0  0  0  0  0  0  0  0  0  0  0
   60.6229   27.3863   49.0486 H   0  0  0  0  0  0  0  0  0  0  0  0
   60.1355   29.6124   48.0345 H   0  0  0  0  0  0  0  0  0  0  0  0
   56.6649   29.5816   44.9847 H   0  0  0  0  0  0  0  0  0  0  0  0
   56.9342   34.1136   43.9491 H   0  0  0  0  0  0  0  0  0  0  0  0
   58.4531   35.9772   44.6249 H   0  0  0  0  0  0  0  0  0  0  0  0
   60.3268   35.4834   46.2257 H   0  0  0  0  0  0  0  0  0  0  0  0
   60.6196   33.1909   47.0843 H   0  0  0  0  0  0  0  0  0  0  0  0
   57.1720   27.7719   45.5427 H   0  0  0  0  0  0  0  0  0  0  0  0
  1  2  2  0
  2  3  1  0
  3  4  2  3
  4  5  1  0
  5  6  2  0
  6  7  1  0
  7  8  1  0
  7  9  2  0
  9 10  1  0
  2 11  1  0
 11 12  1  0
 12 13  2  0
 13 14  1  0
 14 15  2  0
 15 16  1  0
 16 17  1  0
 17 18  2  0
 18 19  1  0
 19 20  2  0
 20 21  1  0
 21 22  2  0
 22 23  1  0
 23 24  2  0
 24 25  1  0
 25 26  2  0
 16 27  2  0
 10  4  1  0
 27 12  1  0
 26 17  1  0
 25 20  1  0
  6 28  1  0
  9 29  1  0
 10 30  1  0
 11 31  1  0
 13 32  1  0
 14 33  1  0
 15 34  1  0
 18 35  1  0
 21 36  1  0
 22 37  1  0
 23 38  1  0
 24 39  1  0
 27 40  1  0
M  END
>  <smiles>  (45) 
O=C(N=c1ncc(F)c[nH]1)Nc1cccc(-c2cnc3ccccc3n2)c1

>  <score_type>  (45) 
oracle

>  <origin>  (45) 
adg

>  <m_score__min__energy>  (45) 
-8.5999999999999996

>  <m_primary>  (45) 
energy

$$$$
45:0
     RDKit          3D

 56 59  0  0  0  0  0  0  0  0999 V2000
   56.9160   20.7200   42.6840 C   0  0  0  0  0  0  0  0  0  0  0  0
   55.9990   21.6070   43.3150 O   0  0  0  0  0  0  0  0  0  0  0  0
   56.3600   22.5880   44.2480 C   0  0  0  0  0  0  0  0  0  0  0  0
   55.4330   23.5030   44.7820 C   0  0  0  0  0  0  0  0  0  0  0  0
   55.8480   24.4720   45.6990 C   0  0  0  0  0  0  0  0  0  0  0  0
   57.1960   24.5620   46.0810 C   0  0  0  0  0  0  0  0  0  0  0  0
   57.6370   25.6100   47.0780 C   0  0  0  0  0  0  0  0  0  0  0  0
   58.1530   26.9410   46.4700 C   0  0  2  0  0  0  0  0  0  0  0  0
   58.4890   27.9350   47.4970 N   0  0  0  0  0  0  0  0  0  0  0  0
   58.7190   29.3440   47.3440 C   0  0  0  0  0  0  0  0  0  0  0  0
   57.7830   30.0650   46.9130 O   0  0  0  0  0  0  0  0  0  0  0  0
   59.9810   29.9900   47.7400 C   0  0  0  0  0  0  0  0  0  0  0  0
   60.3390   30.0730   49.0960 C   0  0  0  0  0  0  0  0  0  0  0  0
   61.5030   30.7460   49.4750 C   0  0  0  0  0  0  0  0  0  0  0  0
   62.3120   31.3470   48.5060 C   0  0  0  0  0  0  0  0  0  0  0  0
   61.9550   31.2800   47.1570 C   0  0  0  0  0  0  0  0  0  0  0  0
   60.7860   30.6150   46.7750 C   0  0  0  0  0  0  0  0  0  0  0  0
   57.2940   27.4960   45.3620 C   0  0  0  0  0  0  0  0  0  0  0  0
   56.0920   27.7910   45.6030 O   0  0  0  0  0  0  0  0  0  0  0  0
   57.8160   27.6690   44.0440 N   0  0  0  0  0  0  0  0  0  0  0  0
   57.3550   28.7050   43.1300 C   0  0  0  0  0  0  0  0  0  0  0  0
   57.2050   29.9850   43.8770 C   0  0  0  0  0  0  0  0  0  0  0  0
   58.2380   30.7610   44.2520 N   0  0  0  0  0  0  0  0  0  0  0  0
   57.5960   31.7890   44.8510 C   0  0  0  0  0  0  0  0  0  0  0  0
   58.2840   32.9590   45.4330 C   0  0  0  0  0  0  0  0  0  0  0  0
   58.4160   33.0900   46.8280 C   0  0  0  0  0  0  0  0  0  0  0  0
   59.0620   34.2020   47.3760 C   0  0  0  0  0  0  0  0  0  0  0  0
   59.5830   35.1920   46.5390 C   0  0  0  0  0  0  0  0  0  0  0  0
   59.4570   35.0740   45.1530 C   0  0  0  0  0  0  0  0  0  0  0  0
   58.8120   33.9630   44.6000 C   0  0  0  0  0  0  0  0  0  0  0  0
   56.2560   31.6330   44.8370 N   0  0  0  0  0  0  0  0  0  0  0  0
   56.0550   30.5050   44.2270 O   0  0  0  0  0  0  0  0  0  0  0  0
   58.1080   23.6190   45.5830 C   0  0  0  0  0  0  0  0  0  0  0  0
   57.6950   22.6510   44.6630 C   0  0  0  0  0  0  0  0  0  0  0  0
   57.4827   20.1718   43.4510 H   0  0  0  0  0  0  0  0  0  0  0  0
   56.3626   20.0058   42.0566 H   0  0  0  0  0  0  0  0  0  0  0  0
   57.6114   21.2969   42.0566 H   0  0  0  0  0  0  0  0  0  0  0  0
   54.3775   23.4549   44.4760 H   0  0  0  0  0  0  0  0  0  0  0  0
   55.1125   25.1702   46.1252 H   0  0  0  0  0  0  0  0  0  0  0  0
   56.7784   25.8441   47.7246 H   0  0  0  0  0  0  0  0  0  0  0  0
   58.4925   25.1732   47.6140 H   0  0  0  0  0  0  0  0  0  0  0  0
   59.0971   26.6785   45.9702 H   0  0  0  0  0  0  0  0  0  0  0  0
   59.7010   29.6068   49.8613 H   0  0  0  0  0  0  0  0  0  0  0  0
   61.7834   30.8032   50.5371 H   0  0  0  0  0  0  0  0  0  0  0  0
   63.2303   31.8730   48.8060 H   0  0  0  0  0  0  0  0  0  0  0  0
   62.5938   31.7506   46.3951 H   0  0  0  0  0  0  0  0  0  0  0  0
   60.4961   30.5815   45.7144 H   0  0  0  0  0  0  0  0  0  0  0  0
   58.0887   28.8349   42.3208 H   0  0  0  0  0  0  0  0  0  0  0  0
   56.3863   28.4130   42.6983 H   0  0  0  0  0  0  0  0  0  0  0  0
   58.0084   32.3127   47.4911 H   0  0  0  0  0  0  0  0  0  0  0  0
   59.1603   34.2977   48.4674 H   0  0  0  0  0  0  0  0  0  0  0  0
   60.0929   36.0652   46.9720 H   0  0  0  0  0  0  0  0  0  0  0  0
   59.8655   35.8557   44.4957 H   0  0  0  0  0  0  0  0  0  0  0  0
   58.7169   33.8734   43.5078 H   0  0  0  0  0  0  0  0  0  0  0  0
   59.1552   23.6417   45.9189 H   0  0  0  0  0  0  0  0  0  0  0  0
   58.4254   21.9329   44.2619 H   0  0  0  0  0  0  0  0  0  0  0  0
  1  2  1  0
  2  3  1  0
  3  4  2  0
  4  5  1  0
  5  6  2  0
  6  7  1  0
  7  8  1  0
  8  9  1  0
  9 10  1  0
 10 11  2  0
 10 12  1  0
 12 13  2  0
 13 14  1  0
 14 15  2  0
 15 16  1  0
 16 17  2  0
  8 18  1  0
 18 19  2  0
 18 20  1  0
 20 21  1  0
 21 22  1  0
 22 23  2  0
 23 24  1  0
 24 25  1  0
 25 26  2  0
 26 27  1  0
 27 28  2  0
 28 29  1  0
 29 30  2  0
 24 31  2  0
 31 32  1  0
  6 33  1  0
 33 34  2  0
 34  3  1  0
 17 12  1  0
 32 22  1  0
 30 25  1  0
  1 35  1  0
  1 36  1  0
  1 37  1  0
  4 38  1  0
  5 39  1  0
  7 40  1  0
  7 41  1  0
  8 42  1  6
 13 43  1  0
 14 44  1  0
 15 45  1  0
 16 46  1  0
 17 47  1  0
 21 48  1  0
 21 49  1  0
 26 50  1  0
 27 51  1  0
 28 52  1  0
 29 53  1  0
 30 54  1  0
 33 55  1  0
 34 56  1  0
M  CHG  2   9  -1  20  -1
M  END
>  <UniqueID>  (46) 
41

>  <SMILES>  (46) 
COc1ccc(C[C@H]([N-]C(=O)c2ccccc2)C(=O)[N-]Cc2nc(-c3ccccc3)no2)cc1

>  <Energy>  (46) 
94.09321630734352

>  <Genealogy>  (46) 
COc1ccc(CC([N-]C(=O)c2ccccc2)C(=O)[N-]Cc2nc(-c3ccccc3)no2)cc1 (protonated)
COc1ccc(C[C@H]([N-]C(=O)c2ccccc2)C(=O)[N-]Cc2nc(-c3ccccc3)no2)cc1 (chirality)
COc1ccc(C[C@H]([N-]C(=O)c2ccccc2)C(=O)[N-]Cc2nc(-c3ccccc3)no2)cc1 (3D coordinates assigned)
COc1ccc(C[C@H]([N-]C(=O)c2ccccc2)C(=O)[N-]Cc2nc(-c3ccccc3)no2)cc1 (optimized conformer: 94.09321630734352 kcal/mol)

>  <smiles>  (46) 
COc1ccc(CC(NC(=O)c2ccccc2)C(=O)NCc2nc(-c3ccccc3)no2)cc1

>  <score_type>  (46) 
oracle

>  <origin>  (46) 
adg

>  <m_score__min__energy>  (46) 
-14.449999999999999

>  <m_primary>  (46) 
energy

$$$$
46:0
     RDKit          3D

 26 27  0  0  0  0  0  0  0  0999 V2000
   54.7780   30.4640   45.5900 H   0  0  0  0  0  0  0  0  0  0  0  0
   55.1540   29.5940   45.2340 O   0  0  0  0  0  0  0  0  0  0  0  0
   56.5230   29.3280   45.2070 C   0  0  0  0  0  0  0  0  0  0  0  0
   56.9570   28.0080   45.3880 C   0  0  0  0  0  0  0  0  0  0  0  0
   56.2201   27.2061   45.5427 H   0  0  0  0  0  0  0  0  0  0  0  0
   58.3220   27.7050   45.3730 C   0  0  0  0  0  0  0  0  0  0  0  0
   58.8550   26.0500   45.6010 Cl  0  0  0  0  0  0  0  0  0  0  0  0
   59.2610   28.7230   45.1900 C   0  0  0  0  0  0  0  0  0  0  0  0
   60.3351   28.4857   45.1861 H   0  0  0  0  0  0  0  0  0  0  0  0
   58.8370   30.0420   45.0120 C   0  0  0  0  0  0  0  0  0  0  0  0
   59.5807   30.8430   44.8882 H   0  0  0  0  0  0  0  0  0  0  0  0
   57.4640   30.3530   44.9900 C   0  0  0  0  0  0  0  0  0  0  0  0
   57.0150   31.7110   44.8410 N   0  0  0  0  0  0  0  0  0  0  0  0
   57.7510   32.7820   44.7390 C   0  0  0  0  0  0  0  0  0  0  0  0
   57.8590   33.2412   43.7453 H   0  0  0  0  0  0  0  0  0  0  0  0
   58.4500   33.4180   45.8770 C   0  0  0  0  0  0  0  0  0  0  0  0
   58.3580   32.8300   47.1470 C   0  0  0  0  0  0  0  0  0  0  0  0
   57.7780   31.9050   47.2813 H   0  0  0  0  0  0  0  0  0  0  0  0
   59.0000   33.4140   48.2430 C   0  0  0  0  0  0  0  0  0  0  0  0
   58.9368   32.9392   49.2332 H   0  0  0  0  0  0  0  0  0  0  0  0
   59.7220   34.6000   48.0830 C   0  0  0  0  0  0  0  0  0  0  0  0
   60.2340   35.0532   48.9447 H   0  0  0  0  0  0  0  0  0  0  0  0
   59.7930   35.2100   46.8270 C   0  0  0  0  0  0  0  0  0  0  0  0
   60.3535   36.1485   46.7039 H   0  0  0  0  0  0  0  0  0  0  0  0
   59.1530   34.6300   45.7260 C   0  0  0  0  0  0  0  0  0  0  0  0
   59.1890   35.2700   44.5300 F   0  0  0  0  0  0  0  0  0  0  0  0
  1  2  1  0
  2  3  1  0
  3  4  2  0
  4  5  1  0
  4  6  1  0
  6  7  1  0
  6  8  2  0
  8  9  1  0
  8 10  1  0
 10 11  1  0
 10 12  2  0
 12 13  1  0
 13 14  2  0
 14 15  1  0
 14 16  1  0
 16 17  2  0
 17 18  1  0
 17 19  1  0
 19 20  1  0
 19 21  2  0
 21 22  1  0
 21 23  1  0
 23 24  1  0
 23 25  2  0
 25 26  1  0
 12  3  1  0
 25 16  1  0
M  END
>  <UniqueID>  (47) 
42

>  <SMILES>  (47) 
Oc1cc(Cl)ccc1/N=C\c1ccccc1F

>  <Energy>  (47) 
39.166701569452634

>  <Genealogy>  (47) 
Oc1cc(Cl)ccc1/N=C\c1ccccc1F (cis-trans isomerization)
Oc1cc(Cl)ccc1/N=C\c1ccccc1F (3D coordinates assigned)
Oc1cc(Cl)ccc1/N=C\c1ccccc1F (optimized conformer: 39.166701569452634 kcal/mol)

>  <smiles>  (47) 
Oc1cc(Cl)ccc1N=Cc1ccccc1F

>  <score_type>  (47) 
oracle

>  <origin>  (47) 
adg

>  <m_score__min__energy>  (47) 
-7.8099999999999996

>  <m_primary>  (47) 
energy

$$$$
47:0
     RDKit          3D

 28 30  0  0  1  0  0  0  0  0999 V2000
   55.0470   26.0310   46.0080 O   0  0  0  0  0  0  0  0  0  0  0  0
   56.3000   25.9970   45.8890 C   0  0  0  0  0  0  0  0  0  0  0  0
   57.1530   27.0690   46.2720 N   0  0  0  0  0  0  0  0  0  0  0  0
   57.0130   28.2410   45.7480 C   0  0  0  0  0  0  0  0  0  0  0  0
   55.9170   28.6040   45.0720 N   0  0  0  0  0  0  0  0  0  0  0  0
   55.7810   29.8250   44.5310 C   0  0  0  0  0  0  0  0  0  0  0  0
   56.7880   30.7330   44.6690 N   0  0  0  0  0  0  0  0  0  0  0  0
   57.9140   30.4140   45.3410 C   0  0  0  0  0  0  0  0  0  0  0  0
   59.0890   31.0720   45.6580 C   0  0  0  0  0  0  0  0  0  0  0  0
   59.9010   30.2680   46.3670 N   0  0  0  0  0  0  0  0  0  0  0  0
   59.2670   29.0680   46.5250 C   0  0  0  0  0  0  0  0  0  0  0  0
   58.0410   29.1460   45.8970 C   0  0  0  0  0  0  0  0  0  0  0  0
   56.9050   24.7790   45.3240 C   0  0  0  0  0  0  0  0  0  0  0  0
   58.1070   24.3080   45.8110 C   0  0  0  0  0  0  0  0  0  0  0  0
   58.7130   23.1600   45.3040 C   0  0  0  0  0  0  0  0  0  0  0  0
   58.0700   22.4850   44.2790 C   0  0  0  0  0  0  0  0  0  0  0  0
   56.8530   22.9500   43.7780 C   0  0  0  0  0  0  0  0  0  0  0  0
   56.2810   24.0920   44.3030 C   0  0  0  0  0  0  0  0  0  0  0  0
   55.1470   27.9210   44.9630 H   0  0  0  0  0  0  0  0  0  0  0  0
   54.8656   30.0901   43.9816 H   0  0  0  0  0  0  0  0  0  0  0  0
   59.3257   32.1071   45.3706 H   0  0  0  0  0  0  0  0  0  0  0  0
   60.8600   30.4710   46.7550 H   0  0  0  0  0  0  0  0  0  0  0  0
   59.6646   28.1927   47.0595 H   0  0  0  0  0  0  0  0  0  0  0  0
   58.6029   24.8562   46.6256 H   0  0  0  0  0  0  0  0  0  0  0  0
   59.6722   22.8009   45.7052 H   0  0  0  0  0  0  0  0  0  0  0  0
   58.5222   21.5755   43.8567 H   0  0  0  0  0  0  0  0  0  0  0  0
   56.3495   22.4067   42.9648 H   0  0  0  0  0  0  0  0  0  0  0  0
   55.3224   24.4561   43.9049 H   0  0  0  0  0  0  0  0  0  0  0  0
  1  2  2  0
  2  3  1  0
  3  4  2  0
  4  5  1  0
  5  6  1  0
  6  7  2  0
  7  8  1  0
  8  9  2  0
  9 10  1  0
 10 11  1  0
 11 12  2  0
  2 13  1  0
 13 14  2  0
 14 15  1  0
 15 16  2  0
 16 17  1  0
 17 18  2  0
 12  4  1  0
 18 13  1  0
 12  8  1  0
  5 19  1  0
  6 20  1  0
  9 21  1  0
 10 22  1  0
 11 23  1  0
 14 24  1  0
 15 25  1  0
 16 26  1  0
 17 27  1  0
 18 28  1  0
M  END
>  <smiles>  (48) 
O=C(N=c1[nH]cnc2c[nH]cc12)c1ccccc1

>  <score_type>  (48) 
oracle

>  <origin>  (48) 
adg

>  <m_score__min__energy>  (48) 
-6.8300000000000001

>  <m_primary>  (48) 
energy

$$$$
