0:0
     RDKit          3D

 44 45  0  0  0  0  0  0  0  0999 V2000
   56.2690   24.4550   44.4890 C   0  0  0  0  0  0  0  0  0  0  0  0
   55.8660   25.0570   46.1150 S   0  0  0  0  0  0  0  0  0  0  0  0
   55.0910   26.3370   45.9790 O   0  0  0  0  0  0  0  0  0  0  0  0
   55.0160   24.0440   46.8310 O   0  0  0  0  0  0  0  0  0  0  0  0
   57.3140   25.3720   47.0220 N   0  0  0  0  0  0  0  0  0  0  0  0
   58.4920   25.0840   46.2050 C   0  0  0  0  0  0  0  0  0  0  0  0
   59.1160   26.3950   45.6970 C   0  0  2  0  0  0  0  0  0  0  0  0
   59.2950   27.4110   46.8370 C   0  0  0  0  0  0  0  0  0  0  0  0
   59.9520   28.7110   46.3430 C   0  0  0  0  0  0  0  0  0  0  0  0
   59.8350   28.9000   44.8180 C   0  0  0  0  0  0  0  0  0  0  0  0
   58.5260   28.4540   44.2860 N   0  0  2  0  0  0  0  0  0  0  0  0
   57.4290   29.3410   44.7560 C   0  0  0  0  0  0  0  0  0  0  0  0
   57.7460   30.8030   44.5340 C   0  0  0  0  0  0  0  0  0  0  0  0
   57.6850   31.3600   43.2460 C   0  0  0  0  0  0  0  0  0  0  0  0
   57.9730   32.7120   43.0500 C   0  0  0  0  0  0  0  0  0  0  0  0
   58.3300   33.5190   44.1330 C   0  0  0  0  0  0  0  0  0  0  0  0
   58.4210   32.9750   45.4260 C   0  0  0  0  0  0  0  0  0  0  0  0
   58.7570   33.8560   46.6040 C   0  0  0  0  0  0  0  0  0  0  0  0
   58.9920   35.1550   46.1880 F   0  0  0  0  0  0  0  0  0  0  0  0
   59.8920   33.3710   47.2260 F   0  0  0  0  0  0  0  0  0  0  0  0
   57.7150   33.8750   47.5140 F   0  0  0  0  0  0  0  0  0  0  0  0
   58.1020   31.6200   45.6200 C   0  0  0  0  0  0  0  0  0  0  0  0
   58.2530   27.0090   44.5620 C   0  0  0  0  0  0  0  0  0  0  0  0
   56.8790   23.5438   44.5761 H   0  0  0  0  0  0  0  0  0  0  0  0
   55.3422   24.2250   43.9430 H   0  0  0  0  0  0  0  0  0  0  0  0
   56.8349   25.2242   43.9430 H   0  0  0  0  0  0  0  0  0  0  0  0
   59.2313   24.5402   46.8114 H   0  0  0  0  0  0  0  0  0  0  0  0
   58.1912   24.4706   45.3429 H   0  0  0  0  0  0  0  0  0  0  0  0
   60.1116   26.1546   45.2958 H   0  0  0  0  0  0  0  0  0  0  0  0
   58.3081   27.6490   47.2605 H   0  0  0  0  0  0  0  0  0  0  0  0
   59.9521   26.9619   47.5963 H   0  0  0  0  0  0  0  0  0  0  0  0
   59.4640   29.5620   46.8406 H   0  0  0  0  0  0  0  0  0  0  0  0
   61.0230   28.6532   46.5873 H   0  0  0  0  0  0  0  0  0  0  0  0
   59.9648   29.9671   44.5845 H   0  0  0  0  0  0  0  0  0  0  0  0
   60.6136   28.2830   44.3457 H   0  0  0  0  0  0  0  0  0  0  0  0
   58.5950   28.5660   43.2460 H   0  0  0  0  0  0  0  0  0  0  0  0
   56.5096   29.0899   44.2067 H   0  0  0  0  0  0  0  0  0  0  0  0
   57.3037   29.1816   45.8371 H   0  0  0  0  0  0  0  0  0  0  0  0
   57.4093   30.7286   42.3885 H   0  0  0  0  0  0  0  0  0  0  0  0
   57.9186   33.1432   42.0395 H   0  0  0  0  0  0  0  0  0  0  0  0
   58.5412   34.5866   43.9730 H   0  0  0  0  0  0  0  0  0  0  0  0
   58.1314   31.1943   46.6339 H   0  0  0  0  0  0  0  0  0  0  0  0
   57.1942   26.9070   44.8423 H   0  0  0  0  0  0  0  0  0  0  0  0
   58.5100   26.4615   43.6432 H   0  0  0  0  0  0  0  0  0  0  0  0
  1  2  1  0
  2  3  2  0
  2  4  2  0
  2  5  1  0
  5  6  1  0
  6  7  1  0
  7  8  1  0
  8  9  1  0
  9 10  1  0
 10 11  1  0
 11 12  1  0
 12 13  1  0
 13 14  2  0
 14 15  1  0
 15 16  2  0
 16 17  1  0
 17 18  1  0
 18 19  1  0
 18 20  1  0
 18 21  1  0
 17 22  2  0
 11 23  1  0
 23  7  1  0
 22 13  1  0
  1 24  1  0
  1 25  1  0
  1 26  1  0
  6 27  1  0
  6 28  1  0
  7 29  1  6
  8 30  1  0
  8 31  1  0
  9 32  1  0
  9 33  1  0
 10 34  1  0
 10 35  1  0
 11 36  1  6
 12 37  1  0
 12 38  1  0
 14 39  1  0
 15 40  1  0
 16 41  1  0
 22 42  1  0
 23 43  1  0
 23 44  1  0
M  CHG  2   5  -1  11   1
M  END
>  <UniqueID>  (1) 
1

>  <SMILES>  (1) 
CS(=O)(=O)[N-]C[C@@H]1CCC[N@H+](Cc2cccc(C(F)(F)F)c2)C1

>  <Energy>  (1) 
45.432621723013774

>  <Genealogy>  (1) 
CS(=O)(=O)[N-]CC1CCC[NH+](Cc2cccc(C(F)(F)F)c2)C1 (protonated)
CS(=O)(=O)[N-]C[C@@H]1CCC[N@H+](Cc2cccc(C(F)(F)F)c2)C1 (chirality)
CS(=O)(=O)[N-]C[C@@H]1CCC[N@H+](Cc2cccc(C(F)(F)F)c2)C1 (3D coordinates assigned)
CS(=O)(=O)[N-]C[C@@H]1CCC[N@H+](Cc2cccc(C(F)(F)F)c2)C1 (nonaromatic ring conformer: 45.432621723013774 kcal/mol)

>  <smiles>  (1) 
CS(=O)(=O)NCC1CCCN(Cc2cccc(C(F)(F)F)c2)C1

>  <score_type>  (1) 
oracle

>  <origin>  (1) 
adg

>  <m_score__min__energy>  (1) 
-7.8099999999999996

>  <m_primary>  (1) 
energy

$$$$
1:0
     RDKit          3D

 40 42  0  0  0  0  0  0  0  0999 V2000
   59.0540   26.5310   46.0650 C   0  0  0  0  0  0  0  0  0  0  0  0
   58.0730   25.8160   45.1300 C   0  0  0  0  0  0  0  0  0  0  0  0
   57.3920   26.7430   44.2090 N   0  0  0  0  0  0  0  0  0  0  0  0
   58.2030   27.9370   43.9140 C   0  0  0  0  0  0  0  0  0  0  0  0
   57.3310   29.0540   43.3290 C   0  0  0  0  0  0  0  0  0  0  0  0
   56.4490   29.6400   44.3860 C   0  0  0  0  0  0  0  0  0  0  0  0
   55.4980   28.9590   44.8560 O   0  0  0  0  0  0  0  0  0  0  0  0
   56.7390   30.9410   44.9080 N   0  0  0  0  0  0  0  0  0  0  0  0
   57.9040   31.2550   45.6820 C   0  0  0  0  0  0  0  0  0  0  0  0
   58.5440   30.2130   46.3960 C   0  0  0  0  0  0  0  0  0  0  0  0
   59.6780   30.4700   47.1940 C   0  0  0  0  0  0  0  0  0  0  0  0
   60.1660   31.7760   47.2580 C   0  0  0  0  0  0  0  0  0  0  0  0
   59.5630   32.7640   46.5450 C   0  0  0  0  0  0  0  0  0  0  0  0
   60.1970   33.9580   46.6850 C   0  0  0  0  0  0  0  0  0  0  0  0
   59.7430   35.0770   45.9840 C   0  0  0  0  0  0  0  0  0  0  0  0
   58.6280   34.9310   45.1340 C   0  0  0  0  0  0  0  0  0  0  0  0
   57.9840   33.6790   45.0000 C   0  0  0  0  0  0  0  0  0  0  0  0
   58.4460   32.5650   45.7350 C   0  0  0  0  0  0  0  0  0  0  0  0
   61.3690   33.8200   47.6050 C   0  0  0  0  0  0  0  0  0  0  0  0
   61.3490   32.3150   47.9980 C   0  0  0  0  0  0  0  0  0  0  0  0
   58.7773   26.3293   47.1104 H   0  0  0  0  0  0  0  0  0  0  0  0
   60.0735   26.1627   45.8779 H   0  0  0  0  0  0  0  0  0  0  0  0
   59.0155   27.6143   45.8779 H   0  0  0  0  0  0  0  0  0  0  0  0
   58.6282   25.0743   44.5370 H   0  0  0  0  0  0  0  0  0  0  0  0
   57.3027   25.3405   45.7549 H   0  0  0  0  0  0  0  0  0  0  0  0
   56.4990   27.0450   44.6660 H   0  0  0  0  0  0  0  0  0  0  0  0
   57.1510   26.2470   43.3190 H   0  0  0  0  0  0  0  0  0  0  0  0
   58.6714   28.2938   44.8431 H   0  0  0  0  0  0  0  0  0  0  0  0
   58.9737   27.6675   43.1768 H   0  0  0  0  0  0  0  0  0  0  0  0
   57.9796   29.8430   42.9207 H   0  0  0  0  0  0  0  0  0  0  0  0
   56.6995   28.6319   42.5333 H   0  0  0  0  0  0  0  0  0  0  0  0
   58.1508   29.1880   46.3272 H   0  0  0  0  0  0  0  0  0  0  0  0
   60.1671   29.6591   47.7536 H   0  0  0  0  0  0  0  0  0  0  0  0
   60.2440   36.0502   46.0926 H   0  0  0  0  0  0  0  0  0  0  0  0
   58.2554   35.7987   44.5698 H   0  0  0  0  0  0  0  0  0  0  0  0
   57.1233   33.5729   44.3233 H   0  0  0  0  0  0  0  0  0  0  0  0
   62.3057   34.0791   47.0897 H   0  0  0  0  0  0  0  0  0  0  0  0
   61.3110   34.4902   48.4753 H   0  0  0  0  0  0  0  0  0  0  0  0
   62.2743   31.8131   47.6789 H   0  0  0  0  0  0  0  0  0  0  0  0
   61.2828   32.1570   49.0846 H   0  0  0  0  0  0  0  0  0  0  0  0
  1  2  1  0
  2  3  1  0
  3  4  1  0
  4  5  1  0
  5  6  1  0
  6  7  2  0
  6  8  1  0
  8  9  1  0
  9 10  2  0
 10 11  1  0
 11 12  2  0
 12 13  1  0
 13 14  2  0
 14 15  1  0
 15 16  2  0
 16 17  1  0
 17 18  2  0
 14 19  1  0
 19 20  1  0
 18  9  1  0
 20 12  1  0
 18 13  1  0
  1 21  1  0
  1 22  1  0
  1 23  1  0
  2 24  1  0
  2 25  1  0
  3 26  1  0
  3 27  1  0
  4 28  1  0
  4 29  1  0
  5 30  1  0
  5 31  1  0
 10 32  1  0
 11 33  1  0
 15 34  1  0
 16 35  1  0
 17 36  1  0
 19 37  1  0
 19 38  1  0
 20 39  1  0
 20 40  1  0
M  CHG  2   3   1   8  -1
M  END
>  <UniqueID>  (2) 
2

>  <SMILES>  (2) 
CC[NH2+]CCC(=O)[N-]c1ccc2c3c(cccc13)CC2

>  <Energy>  (2) 
63.23880234339159

>  <Genealogy>  (2) 
CC[NH2+]CCC(=O)[N-]c1ccc2c3c(cccc13)CC2 (protonated)
CC[NH2+]CCC(=O)[N-]c1ccc2c3c(cccc13)CC2 (3D coordinates assigned)
CC[NH2+]CCC(=O)[N-]c1ccc2c3c(cccc13)CC2 (nonaromatic ring conformer: 63.23880234339159 kcal/mol)

>  <smiles>  (2) 
CCNCCC(=O)Nc1ccc2c3c(cccc13)CC2

>  <score_type>  (2) 
oracle

>  <origin>  (2) 
adg

>  <m_score__min__energy>  (2) 
-7.6500000000000004

>  <m_primary>  (2) 
energy

$$$$
2:0
     RDKit          3D

 44 46  0  0  0  0  0  0  0  0999 V2000
   58.8715   31.1968   49.4934 H   0  0  0  0  0  0  0  0  0  0  0  0
   59.1790   31.0210   48.4520 C   0  0  0  0  0  0  0  0  0  0  0  0
   58.9370   29.8630   47.9150 N   0  0  0  0  0  0  0  0  0  0  0  0
   59.6880   29.2990   46.7950 C   0  0  0  0  0  0  0  0  0  0  0  0
   59.7282   28.2043   46.8954 H   0  0  0  0  0  0  0  0  0  0  0  0
   60.7096   29.7068   46.7980 H   0  0  0  0  0  0  0  0  0  0  0  0
   59.0000   29.6640   45.4810 C   0  0  0  0  0  0  0  0  0  0  0  0
   59.4504   29.0789   44.6656 H   0  0  0  0  0  0  0  0  0  0  0  0
   59.1342   30.7416   45.3053 H   0  0  0  0  0  0  0  0  0  0  0  0
   57.4960   29.3650   45.5400 C   0  0  0  0  0  0  0  0  0  0  0  0
   57.1672   29.3717   46.5897 H   0  0  0  0  0  0  0  0  0  0  0  0
   57.3131   28.3782   45.0897 H   0  0  0  0  0  0  0  0  0  0  0  0
   56.7320   30.3820   44.7850 N   0  0  0  0  0  0  0  0  0  0  0  0
   57.5570   30.9860   43.7240 C   0  0  0  0  0  0  0  0  0  0  0  0
   58.3648   31.5774   44.1796 H   0  0  0  0  0  0  0  0  0  0  0  0
   57.9916   30.1910   43.1002 H   0  0  0  0  0  0  0  0  0  0  0  0
   56.9305   31.6404   43.1002 H   0  0  0  0  0  0  0  0  0  0  0  0
   55.5340   29.7750   44.1830 C   0  0  0  0  0  0  0  0  0  0  0  0
   54.8571   29.4320   44.9794 H   0  0  0  0  0  0  0  0  0  0  0  0
   55.0188   30.5208   43.5598 H   0  0  0  0  0  0  0  0  0  0  0  0
   55.8307   28.9185   43.5598 H   0  0  0  0  0  0  0  0  0  0  0  0
   59.8550   32.1150   47.7120 C   0  0  0  0  0  0  0  0  0  0  0  0
   59.1160   32.9250   46.8130 C   0  0  0  0  0  0  0  0  0  0  0  0
   57.7360   32.7210   46.5890 C   0  0  0  0  0  0  0  0  0  0  0  0
   57.2117   31.9117   47.1184 H   0  0  0  0  0  0  0  0  0  0  0  0
   57.0310   33.5380   45.7010 C   0  0  0  0  0  0  0  0  0  0  0  0
   55.9567   33.3684   45.5362 H   0  0  0  0  0  0  0  0  0  0  0  0
   57.6830   34.5670   45.0230 C   0  0  0  0  0  0  0  0  0  0  0  0
   57.1227   35.2062   44.3248 H   0  0  0  0  0  0  0  0  0  0  0  0
   59.0450   34.7870   45.2290 C   0  0  0  0  0  0  0  0  0  0  0  0
   59.5551   35.6000   44.6916 H   0  0  0  0  0  0  0  0  0  0  0  0
   59.7690   33.9760   46.1190 C   0  0  0  0  0  0  0  0  0  0  0  0
   61.1330   34.2100   46.3190 C   0  0  0  0  0  0  0  0  0  0  0  0
   61.6304   35.0290   45.7787 H   0  0  0  0  0  0  0  0  0  0  0  0
   61.8710   33.4120   47.2000 C   0  0  0  0  0  0  0  0  0  0  0  0
   63.2410   33.6620   47.3880 C   0  0  0  0  0  0  0  0  0  0  0  0
   63.7274   34.4834   46.8414 H   0  0  0  0  0  0  0  0  0  0  0  0
   63.9870   32.8740   48.2640 C   0  0  0  0  0  0  0  0  0  0  0  0
   65.0588   33.0763   48.4067 H   0  0  0  0  0  0  0  0  0  0  0  0
   63.3780   31.8310   48.9590 C   0  0  0  0  0  0  0  0  0  0  0  0
   63.9711   31.2117   49.6480 H   0  0  0  0  0  0  0  0  0  0  0  0
   62.0170   31.5690   48.7840 C   0  0  0  0  0  0  0  0  0  0  0  0
   61.5463   30.7423   49.3363 H   0  0  0  0  0  0  0  0  0  0  0  0
   61.2390   32.3550   47.9050 C   0  0  0  0  0  0  0  0  0  0  0  0
  1  2  1  0
  2  3  2  0
  3  4  1  0
  4  5  1  0
  4  6  1  0
  4  7  1  0
  7  8  1  0
  7  9  1  0
  7 10  1  0
 10 11  1  0
 10 12  1  0
 10 13  1  0
 13 14  1  0
 14 15  1  0
 14 16  1  0
 14 17  1  0
 13 18  1  0
 18 19  1  0
 18 20  1  0
 18 21  1  0
  2 22  1  0
 22 23  2  0
 23 24  1  0
 24 25  1  0
 24 26  2  0
 26 27  1  0
 26 28  1  0
 28 29  1  0
 28 30  2  0
 30 31  1  0
 30 32  1  0
 32 33  2  0
 33 34  1  0
 33 35  1  0
 35 36  2  0
 36 37  1  0
 36 38  1  0
 38 39  1  0
 38 40  2  0
 40 41  1  0
 40 42  1  0
 42 43  1  0
 42 44  2  0
 44 22  1  0
 32 23  1  0
 44 35  1  0
M  END
>  <UniqueID>  (3) 
3

>  <SMILES>  (3) 
CN(C)CCC/N=C\c1c2ccccc2cc2ccccc12

>  <Energy>  (3) 
58.94368872179049

>  <Genealogy>  (3) 
CN(C)CCC/N=C\c1c2ccccc2cc2ccccc12 (cis-trans isomerization)
CN(C)CCC/N=C\c1c2ccccc2cc2ccccc12 (3D coordinates assigned)
CN(C)CCC/N=C\c1c2ccccc2cc2ccccc12 (optimized conformer: 58.94368872179049 kcal/mol)

>  <smiles>  (3) 
CN(C)CCCN=Cc1c2ccccc2cc2ccccc12

>  <score_type>  (3) 
oracle

>  <origin>  (3) 
adg

>  <m_score__min__energy>  (3) 
-7.6600000000000001

>  <m_primary>  (3) 
energy

$$$$
3:0
     RDKit          3D

 50 52  0  0  0  0  0  0  0  0999 V2000
   57.2910   33.4410   45.7800 C   0  0  0  0  0  0  0  0  0  0  0  0
   58.3810   33.5510   44.7150 C   0  0  0  0  0  0  0  0  0  0  0  0
   59.4620   34.5750   45.0900 C   0  0  0  0  0  0  0  0  0  0  0  0
   59.5690   34.7440   46.5840 C   0  0  0  0  0  0  0  0  0  0  0  0
   58.9770   35.7200   47.1220 O   0  0  0  0  0  0  0  0  0  0  0  0
   60.2140   33.7650   47.4190 N   0  0  0  0  0  0  0  0  0  0  0  0
   59.5550   33.3670   48.6750 C   0  0  0  0  0  0  0  0  0  0  0  0
   60.2870   32.2040   49.3570 C   0  0  0  0  0  0  0  0  0  0  0  0
   60.7260   31.2270   48.3530 N   0  0  0  0  0  0  0  0  0  0  0  0
   60.4270   29.8340   48.5270 C   0  0  0  0  0  0  0  0  0  0  0  0
   61.1540   29.1060   49.4200 N   0  0  0  0  0  0  0  0  0  0  0  0
   60.9210   27.7800   49.6020 C   0  0  0  0  0  0  0  0  0  0  0  0
   59.9480   27.1530   48.8940 N   0  0  0  0  0  0  0  0  0  0  0  0
   59.1880   27.8320   47.9960 C   0  0  0  0  0  0  0  0  0  0  0  0
   58.1880   27.1630   47.2850 C   0  0  0  0  0  0  0  0  0  0  0  0
   57.3840   27.8580   46.3610 C   0  0  0  0  0  0  0  0  0  0  0  0
   56.3710   27.2190   45.6280 O   0  0  0  0  0  0  0  0  0  0  0  0
   56.0070   25.8500   45.7770 C   0  0  0  0  0  0  0  0  0  0  0  0
   57.5870   29.2320   46.1570 C   0  0  0  0  0  0  0  0  0  0  0  0
   56.7640   29.8950   45.2320 O   0  0  0  0  0  0  0  0  0  0  0  0
   56.8530   29.7440   43.8190 C   0  0  0  0  0  0  0  0  0  0  0  0
   58.5950   29.9040   46.8750 C   0  0  0  0  0  0  0  0  0  0  0  0
   59.4050   29.2080   47.7880 C   0  0  0  0  0  0  0  0  0  0  0  0
   61.4250   31.6580   47.1370 C   0  0  0  0  0  0  0  0  0  0  0  0
   61.5190   33.1840   47.0730 C   0  0  0  0  0  0  0  0  0  0  0  0
   57.7487   33.4872   46.7792 H   0  0  0  0  0  0  0  0  0  0  0  0
   56.5796   34.2719   45.6638 H   0  0  0  0  0  0  0  0  0  0  0  0
   56.7600   32.4847   45.6638 H   0  0  0  0  0  0  0  0  0  0  0  0
   58.8548   32.5661   44.5909 H   0  0  0  0  0  0  0  0  0  0  0  0
   57.9065   33.8894   43.7821 H   0  0  0  0  0  0  0  0  0  0  0  0
   60.4310   34.2312   44.6990 H   0  0  0  0  0  0  0  0  0  0  0  0
   59.1848   35.5453   44.6521 H   0  0  0  0  0  0  0  0  0  0  0  0
   59.5406   34.2288   49.3585 H   0  0  0  0  0  0  0  0  0  0  0  0
   58.5336   33.0358   48.4360 H   0  0  0  0  0  0  0  0  0  0  0  0
   61.1643   32.5918   49.8954 H   0  0  0  0  0  0  0  0  0  0  0  0
   59.6022   31.7119   50.0633 H   0  0  0  0  0  0  0  0  0  0  0  0
   61.9130   29.5680   49.9700 H   0  0  0  0  0  0  0  0  0  0  0  0
   61.5236   27.2123   50.3263 H   0  0  0  0  0  0  0  0  0  0  0  0
   58.0279   26.0870   47.4481 H   0  0  0  0  0  0  0  0  0  0  0  0
   55.9412   25.6024   46.8468 H   0  0  0  0  0  0  0  0  0  0  0  0
   55.0314   25.6760   45.2997 H   0  0  0  0  0  0  0  0  0  0  0  0
   56.7673   25.2144   45.2997 H   0  0  0  0  0  0  0  0  0  0  0  0
   57.3985   28.8185   43.5828 H   0  0  0  0  0  0  0  0  0  0  0  0
   55.8409   29.6924   43.3913 H   0  0  0  0  0  0  0  0  0  0  0  0
   57.3884   30.6045   43.3913 H   0  0  0  0  0  0  0  0  0  0  0  0
   58.7494   30.9820   46.7199 H   0  0  0  0  0  0  0  0  0  0  0  0
   62.4401   31.2343   47.1358 H   0  0  0  0  0  0  0  0  0  0  0  0
   60.8597   31.3037   46.2624 H   0  0  0  0  0  0  0  0  0  0  0  0
   62.2788   33.5358   47.7864 H   0  0  0  0  0  0  0  0  0  0  0  0
   61.8029   33.4938   46.0564 H   0  0  0  0  0  0  0  0  0  0  0  0
  1  2  1  0
  2  3  1  0
  3  4  1  0
  4  5  2  0
  4  6  1  0
  6  7  1  0
  7  8  1  0
  8  9  1  0
  9 10  1  0
 10 11  2  0
 11 12  1  0
 12 13  2  0
 13 14  1  0
 14 15  2  0
 15 16  1  0
 16 17  1  0
 17 18  1  0
 16 19  2  0
 19 20  1  0
 20 21  1  0
 19 22  1  0
 22 23  2  0
  9 24  1  0
 24 25  1  0
 25  6  1  0
 23 10  1  0
 23 14  1  0
  1 26  1  0
  1 27  1  0
  1 28  1  0
  2 29  1  0
  2 30  1  0
  3 31  1  0
  3 32  1  0
  7 33  1  0
  7 34  1  0
  8 35  1  0
  8 36  1  0
 11 37  1  0
 12 38  1  0
 15 39  1  0
 18 40  1  0
 18 41  1  0
 18 42  1  0
 21 43  1  0
 21 44  1  0
 21 45  1  0
 22 46  1  0
 24 47  1  0
 24 48  1  0
 25 49  1  0
 25 50  1  0
M  CHG  1  11   1
M  END
>  <UniqueID>  (4) 
4

>  <SMILES>  (4) 
CCCC(=O)N1CCN(c2[nH+]cnc3cc(OC)c(OC)cc23)CC1

>  <Energy>  (4) 
56.127627518073695

>  <Genealogy>  (4) 
CCCC(=O)N1CCN(c2[nH+]cnc3cc(OC)c(OC)cc23)CC1 (protonated)
CCCC(=O)N1CCN(c2[nH+]cnc3cc(OC)c(OC)cc23)CC1 (3D coordinates assigned)
CCCC(=O)N1CCN(c2[nH+]cnc3cc(OC)c(OC)cc23)CC1 (nonaromatic ring conformer: 56.127627518073695 kcal/mol)

>  <smiles>  (4) 
CCCC(=O)N1CCN(c2ncnc3cc(OC)c(OC)cc23)CC1

>  <score_type>  (4) 
oracle

>  <origin>  (4) 
adg

>  <m_score__min__energy>  (4) 
-5.1699999999999999

>  <m_primary>  (4) 
energy

$$$$
4:0
     RDKit          3D

 63 65  0  0  0  0  0  0  0  0999 V2000
   57.3880   32.3300   40.8640 C   0  0  0  0  0  0  0  0  0  0  0  0
   57.4830   31.8630   42.3150 C   0  0  0  0  0  0  0  0  0  0  0  0
   56.9970   30.4820   42.4510 N   0  0  0  0  0  0  0  0  0  0  0  0
   56.1350   30.3310   43.6300 C   0  0  0  0  0  0  0  0  0  0  0  0
   56.9570   29.8310   44.8170 C   0  0  0  0  0  0  0  0  0  0  0  0
   58.3480   30.2650   44.6930 N   0  0  0  0  0  0  0  0  0  0  0  0
   59.0580   30.8310   45.8090 C   0  0  0  0  0  0  0  0  0  0  0  0
   59.2040   32.2250   45.9200 C   0  0  0  0  0  0  0  0  0  0  0  0
   58.6660   33.0920   44.9440 C   0  0  0  0  0  0  0  0  0  0  0  0
   58.7460   34.4740   45.0960 C   0  0  0  0  0  0  0  0  0  0  0  0
   59.3490   35.0160   46.2240 C   0  0  0  0  0  0  0  0  0  0  0  0
   59.9050   34.1810   47.1920 C   0  0  0  0  0  0  0  0  0  0  0  0
   59.8800   32.7700   47.0450 C   0  0  0  0  0  0  0  0  0  0  0  0
   60.4720   31.9320   47.9700 N   0  0  0  0  0  0  0  0  0  0  0  0
   61.4330   32.4800   48.9540 C   0  0  0  0  0  0  0  0  0  0  0  0
   60.2120   30.5740   47.9450 C   0  0  0  0  0  0  0  0  0  0  0  0
   60.5750   29.7270   49.0210 C   0  0  0  0  0  0  0  0  0  0  0  0
   60.3950   28.3330   48.9610 C   0  0  0  0  0  0  0  0  0  0  0  0
   60.7580   27.4700   50.0660 N   0  0  0  0  0  0  0  0  0  0  0  0
   61.0890   27.9010   51.4290 C   0  0  0  0  0  0  0  0  0  0  0  0
   62.1020   26.9460   52.0730 C   0  0  0  0  0  0  0  0  0  0  0  0
   62.0170   25.5980   51.4700 N   0  0  0  0  0  0  0  0  0  0  0  0
   60.9060   24.8340   52.0560 C   0  0  0  0  0  0  0  0  0  0  0  0
   63.2790   24.8600   51.6630 C   0  0  0  0  0  0  0  0  0  0  0  0
   59.8370   27.7660   47.8030 C   0  0  0  0  0  0  0  0  0  0  0  0
   59.6940   26.3690   47.7310 O   0  0  0  0  0  0  0  0  0  0  0  0
   58.6210   25.6900   47.0860 C   0  0  0  0  0  0  0  0  0  0  0  0
   59.4210   28.5990   46.7530 C   0  0  0  0  0  0  0  0  0  0  0  0
   59.5550   29.9980   46.8320 C   0  0  0  0  0  0  0  0  0  0  0  0
   57.1688   33.4077   40.8393 H   0  0  0  0  0  0  0  0  0  0  0  0
   58.3435   32.1384   40.3538 H   0  0  0  0  0  0  0  0  0  0  0  0
   56.5833   31.7803   40.3538 H   0  0  0  0  0  0  0  0  0  0  0  0
   58.5325   31.9099   42.6411 H   0  0  0  0  0  0  0  0  0  0  0  0
   56.8589   32.5198   42.9388 H   0  0  0  0  0  0  0  0  0  0  0  0
   57.8340   29.8670   42.5910 H   0  0  0  0  0  0  0  0  0  0  0  0
   55.6871   31.3038   43.8809 H   0  0  0  0  0  0  0  0  0  0  0  0
   55.3421   29.6020   43.4069 H   0  0  0  0  0  0  0  0  0  0  0  0
   56.5327   30.2356   45.7478 H   0  0  0  0  0  0  0  0  0  0  0  0
   56.9265   28.7316   44.8342 H   0  0  0  0  0  0  0  0  0  0  0  0
   58.7320   30.4140   43.7310 H   0  0  0  0  0  0  0  0  0  0  0  0
   58.1778   32.6707   44.0528 H   0  0  0  0  0  0  0  0  0  0  0  0
   58.3314   35.1369   44.3223 H   0  0  0  0  0  0  0  0  0  0  0  0
   59.3879   36.1076   46.3538 H   0  0  0  0  0  0  0  0  0  0  0  0
   60.3709   34.6235   48.0848 H   0  0  0  0  0  0  0  0  0  0  0  0
   61.0722   32.2743   49.9726 H   0  0  0  0  0  0  0  0  0  0  0  0
   62.4153   32.0062   48.8102 H   0  0  0  0  0  0  0  0  0  0  0  0
   61.5255   33.5666   48.8102 H   0  0  0  0  0  0  0  0  0  0  0  0
   61.0096   30.1716   49.9285 H   0  0  0  0  0  0  0  0  0  0  0  0
   60.7890   26.4370   49.9060 H   0  0  0  0  0  0  0  0  0  0  0  0
   61.5200   28.9124   51.3925 H   0  0  0  0  0  0  0  0  0  0  0  0
   60.1692   27.8975   52.0323 H   0  0  0  0  0  0  0  0  0  0  0  0
   63.1167   27.3436   51.9235 H   0  0  0  0  0  0  0  0  0  0  0  0
   61.8742   26.8650   53.1461 H   0  0  0  0  0  0  0  0  0  0  0  0
   60.9695   24.8777   53.1533 H   0  0  0  0  0  0  0  0  0  0  0  0
   59.9497   25.2664   51.7266 H   0  0  0  0  0  0  0  0  0  0  0  0
   60.9675   23.7863   51.7266 H   0  0  0  0  0  0  0  0  0  0  0  0
   63.4756   24.7450   52.7392 H   0  0  0  0  0  0  0  0  0  0  0  0
   63.1980   23.8669   51.1969 H   0  0  0  0  0  0  0  0  0  0  0  0
   64.1048   25.4175   51.1969 H   0  0  0  0  0  0  0  0  0  0  0  0
   57.9479   25.2640   47.8446 H   0  0  0  0  0  0  0  0  0  0  0  0
   58.0629   26.3997   46.4576 H   0  0  0  0  0  0  0  0  0  0  0  0
   59.0235   24.8818   46.4576 H   0  0  0  0  0  0  0  0  0  0  0  0
   58.9815   28.1497   45.8503 H   0  0  0  0  0  0  0  0  0  0  0  0
  1  2  1  0
  2  3  1  0
  3  4  1  0
  4  5  1  0
  5  6  1  0
  6  7  1  0
  7  8  2  0
  8  9  1  0
  9 10  2  0
 10 11  1  0
 11 12  2  0
 12 13  1  0
 13 14  2  0
 14 15  1  0
 14 16  1  0
 16 17  2  0
 17 18  1  0
 18 19  1  0
 19 20  1  0
 20 21  1  0
 21 22  1  0
 22 23  1  0
 22 24  1  0
 18 25  2  0
 25 26  1  0
 26 27  1  0
 25 28  1  0
 28 29  2  0
 29  7  1  0
 13  8  1  0
 29 16  1  0
  1 30  1  0
  1 31  1  0
  1 32  1  0
  2 33  1  0
  2 34  1  0
  3 35  1  0
  4 36  1  0
  4 37  1  0
  5 38  1  0
  5 39  1  0
  6 40  1  0
  9 41  1  0
 10 42  1  0
 11 43  1  0
 12 44  1  0
 15 45  1  0
 15 46  1  0
 15 47  1  0
 17 48  1  0
 19 49  1  0
 20 50  1  0
 20 51  1  0
 21 52  1  0
 21 53  1  0
 23 54  1  0
 23 55  1  0
 23 56  1  0
 24 57  1  0
 24 58  1  0
 24 59  1  0
 27 60  1  0
 27 61  1  0
 27 62  1  0
 28 63  1  0
M  CHG  1  14   1
M  END
>  <UniqueID>  (5) 
5

>  <SMILES>  (5) 
CCNCCNc1c2ccccc2[n+](C)c2cc(NCCN(C)C)c(OC)cc12

>  <Energy>  (5) 
84.36138294403908

>  <Genealogy>  (5) 
CCNCCNc1c2ccccc2[n+](C)c2cc(NCCN(C)C)c(OC)cc12 (3D coordinates assigned)
CCNCCNc1c2ccccc2[n+](C)c2cc(NCCN(C)C)c(OC)cc12 (optimized conformer: 84.36138294403908 kcal/mol)

>  <smiles>  (5) 
CCNCCNc1c2ccccc2[n+](C)c2cc(NCCN(C)C)c(OC)cc12

>  <score_type>  (5) 
oracle

>  <origin>  (5) 
adg

>  <m_score__min__energy>  (5) 
-5.3200000000000003

>  <m_primary>  (5) 
energy

$$$$
5:0
     RDKit          3D

 52 56  0  0  0  0  0  0  0  0999 V2000
   65.7640   31.9280   50.1100 C   0  0  0  0  0  0  0  0  0  0  0  0
   64.6010   32.8730   50.0820 C   0  0  0  0  0  0  0  0  0  0  0  0
   64.5300   33.9400   50.9850 C   0  0  0  0  0  0  0  0  0  0  0  0
   63.4540   34.7680   50.9770 N   0  0  0  0  0  0  0  0  0  0  0  0
   62.4170   34.5930   50.1190 C   0  0  0  0  0  0  0  0  0  0  0  0
   62.4230   33.5250   49.2030 C   0  0  0  0  0  0  0  0  0  0  0  0
   61.2940   33.3080   48.2600 C   0  0  0  0  0  0  0  0  0  0  0  0
   60.1830   34.1450   48.0840 C   0  0  0  0  0  0  0  0  0  0  0  0
   59.2960   33.6610   47.1200 C   0  0  0  0  0  0  0  0  0  0  0  0
   58.1400   34.2690   46.7520 N   0  0  0  0  0  0  0  0  0  0  0  0
   57.3470   33.7080   45.7920 C   0  0  0  0  0  0  0  0  0  0  0  0
   57.7160   32.4950   45.1780 C   0  0  0  0  0  0  0  0  0  0  0  0
   58.9070   31.8470   45.5670 C   0  0  0  0  0  0  0  0  0  0  0  0
   59.3440   30.6480   44.9840 O   0  0  0  0  0  0  0  0  0  0  0  0
   58.7690   29.3870   45.1950 C   0  0  0  0  0  0  0  0  0  0  0  0
   58.6040   28.4590   44.1510 C   0  0  0  0  0  0  0  0  0  0  0  0
   58.0090   27.2180   44.3980 C   0  0  0  0  0  0  0  0  0  0  0  0
   57.5450   26.8980   45.6790 C   0  0  0  0  0  0  0  0  0  0  0  0
   56.9650   25.6050   45.9020 N   0  0  0  0  0  0  0  0  0  0  0  0
   55.5650   25.3180   45.9950 C   0  0  0  0  0  0  0  0  0  0  0  0
   54.7470   26.2750   46.0000 O   0  0  0  0  0  0  0  0  0  0  0  0
   55.1020   23.9710   46.1890 N   0  0  0  0  0  0  0  0  0  0  0  0
   53.7500   23.5440   45.9500 C   0  0  0  0  0  0  0  0  0  0  0  0
   53.0390   24.0850   44.8660 C   0  0  0  0  0  0  0  0  0  0  0  0
   51.7140   23.7040   44.6280 C   0  0  0  0  0  0  0  0  0  0  0  0
   51.0850   22.7920   45.4770 C   0  0  0  0  0  0  0  0  0  0  0  0
   51.7750   22.2650   46.5710 C   0  0  0  0  0  0  0  0  0  0  0  0
   53.1000   22.6430   46.8140 C   0  0  0  0  0  0  0  0  0  0  0  0
   57.7150   27.8230   46.7240 C   0  0  0  0  0  0  0  0  0  0  0  0
   58.3100   29.0630   46.4770 C   0  0  0  0  0  0  0  0  0  0  0  0
   59.6850   32.4700   46.5380 C   0  0  0  0  0  0  0  0  0  0  0  0
   61.1430   31.9810   47.2080 S   0  0  0  0  0  0  0  0  0  0  0  0
   63.5330   32.6620   49.2000 C   0  0  0  0  0  0  0  0  0  0  0  0
   66.0335   31.7090   51.1538 H   0  0  0  0  0  0  0  0  0  0  0  0
   65.4897   30.9937   49.5984 H   0  0  0  0  0  0  0  0  0  0  0  0
   66.6224   32.3877   49.5984 H   0  0  0  0  0  0  0  0  0  0  0  0
   65.3470   34.1080   51.7021 H   0  0  0  0  0  0  0  0  0  0  0  0
   61.5666   35.2904   50.1399 H   0  0  0  0  0  0  0  0  0  0  0  0
   60.0273   35.0793   48.6432 H   0  0  0  0  0  0  0  0  0  0  0  0
   56.4127   34.2073   45.4958 H   0  0  0  0  0  0  0  0  0  0  0  0
   57.0776   32.0547   44.3979 H   0  0  0  0  0  0  0  0  0  0  0  0
   58.9445   28.7106   43.1358 H   0  0  0  0  0  0  0  0  0  0  0  0
   57.9050   26.4891   43.5808 H   0  0  0  0  0  0  0  0  0  0  0  0
   55.7690   23.2850   46.6100 H   0  0  0  0  0  0  0  0  0  0  0  0
   53.5268   24.8124   44.2004 H   0  0  0  0  0  0  0  0  0  0  0  0
   51.1673   24.1237   43.7707 H   0  0  0  0  0  0  0  0  0  0  0  0
   50.0455   22.4882   45.2844 H   0  0  0  0  0  0  0  0  0  0  0  0
   51.2757   21.5514   47.2429 H   0  0  0  0  0  0  0  0  0  0  0  0
   53.6357   22.2345   47.6836 H   0  0  0  0  0  0  0  0  0  0  0  0
   57.3783   27.5696   47.7401 H   0  0  0  0  0  0  0  0  0  0  0  0
   58.4184   29.7896   47.2958 H   0  0  0  0  0  0  0  0  0  0  0  0
   63.5632   31.8144   48.4996 H   0  0  0  0  0  0  0  0  0  0  0  0
  1  2  1  0
  2  3  2  0
  3  4  1  0
  4  5  2  0
  5  6  1  0
  6  7  1  0
  7  8  2  0
  8  9  1  0
  9 10  2  0
 10 11  1  0
 11 12  2  0
 12 13  1  0
 13 14  1  0
 14 15  1  0
 15 16  2  0
 16 17  1  0
 17 18  2  0
 18 19  1  0
 19 20  1  0
 20 21  2  0
 20 22  1  0
 22 23  1  0
 23 24  2  0
 24 25  1  0
 25 26  2  0
 26 27  1  0
 27 28  2  0
 18 29  1  0
 29 30  2  0
 13 31  2  0
 31 32  1  0
  6 33  2  0
 33  2  1  0
 32  7  1  0
 31  9  1  0
 30 15  1  0
 28 23  1  0
  1 34  1  0
  1 35  1  0
  1 36  1  0
  3 37  1  0
  5 38  1  0
  8 39  1  0
 11 40  1  0
 12 41  1  0
 16 42  1  0
 17 43  1  0
 22 44  1  0
 24 45  1  0
 25 46  1  0
 26 47  1  0
 27 48  1  0
 28 49  1  0
 29 50  1  0
 30 51  1  0
 33 52  1  0
M  CHG  1  19  -1
M  END
>  <UniqueID>  (6) 
6

>  <SMILES>  (6) 
Cc1cncc(-c2cc3nccc(Oc4ccc([N-]C(=O)Nc5ccccc5)cc4)c3s2)c1

>  <Energy>  (6) 
106.66290656834123

>  <Genealogy>  (6) 
Cc1cncc(-c2cc3nccc(Oc4ccc([N-]C(=O)Nc5ccccc5)cc4)c3s2)c1 (protonated)
Cc1cncc(-c2cc3nccc(Oc4ccc([N-]C(=O)Nc5ccccc5)cc4)c3s2)c1 (3D coordinates assigned)
Cc1cncc(-c2cc3nccc(Oc4ccc([N-]C(=O)Nc5ccccc5)cc4)c3s2)c1 (optimized conformer: 106.66290656834123 kcal/mol)

>  <smiles>  (6) 
Cc1cncc(-c2cc3nccc(Oc4ccc(NC(=O)Nc5ccccc5)cc4)c3s2)c1

>  <score_type>  (6) 
oracle

>  <origin>  (6) 
adg

>  <m_score__min__energy>  (6) 
-10.91

>  <m_primary>  (6) 
energy

$$$$
6:0
     RDKit          3D

 41 42  0  0  0  0  0  0  0  0999 V2000
   59.5970   32.4210   47.5610 C   0  0  0  0  0  0  0  0  0  0  0  0
   60.7890   31.4760   47.6430 C   0  0  0  0  0  0  0  0  0  0  0  0
   60.3780   30.1150   47.2820 N   0  0  0  0  0  0  0  0  0  0  0  0
   60.7100   29.1760   48.3600 C   0  0  0  0  0  0  0  0  0  0  0  0
   60.3930   27.7340   47.9390 C   0  0  0  0  0  0  0  0  0  0  0  0
   60.1280   27.5900   46.4940 N   0  0  0  0  0  0  0  0  0  0  0  0
   58.7210   27.3290   46.2230 C   0  0  0  0  0  0  0  0  0  0  0  0
   58.1910   26.1250   46.7350 C   0  0  0  0  0  0  0  0  0  0  0  0
   56.8310   25.8120   46.6300 C   0  0  0  0  0  0  0  0  0  0  0  0
   56.2880   24.6230   47.1390 O   0  0  0  0  0  0  0  0  0  0  0  0
   55.6090   23.6450   46.3570 C   0  0  0  0  0  0  0  0  0  0  0  0
   55.9750   26.7120   46.0110 C   0  0  0  0  0  0  0  0  0  0  0  0
   56.4520   27.9110   45.4820 C   0  0  0  0  0  0  0  0  0  0  0  0
   55.5600   28.7530   44.9030 N   0  0  0  0  0  0  0  0  0  0  0  0
   55.9230   29.9400   44.3680 C   0  0  0  0  0  0  0  0  0  0  0  0
   57.2600   30.3360   44.3850 C   0  0  0  0  0  0  0  0  0  0  0  0
   57.6540   31.6400   43.7420 C   0  0  0  0  0  0  0  0  0  0  0  0
   58.2270   29.4750   44.9380 C   0  0  0  0  0  0  0  0  0  0  0  0
   59.4330   29.8150   44.8500 O   0  0  0  0  0  0  0  0  0  0  0  0
   57.8360   28.2470   45.5510 C   0  0  0  0  0  0  0  0  0  0  0  0
   59.2663   32.6831   48.5769 H   0  0  0  0  0  0  0  0  0  0  0  0
   59.8899   33.3349   47.0235 H   0  0  0  0  0  0  0  0  0  0  0  0
   58.7740   31.9273   47.0235 H   0  0  0  0  0  0  0  0  0  0  0  0
   61.5715   31.8161   46.9488 H   0  0  0  0  0  0  0  0  0  0  0  0
   61.1773   31.4742   48.6722 H   0  0  0  0  0  0  0  0  0  0  0  0
   60.9180   29.8300   46.4300 H   0  0  0  0  0  0  0  0  0  0  0  0
   61.7821   29.2571   48.5923 H   0  0  0  0  0  0  0  0  0  0  0  0
   60.1080   29.4267   49.2459 H   0  0  0  0  0  0  0  0  0  0  0  0
   61.2510   27.0976   48.2013 H   0  0  0  0  0  0  0  0  0  0  0  0
   59.4764   27.4351   48.4686 H   0  0  0  0  0  0  0  0  0  0  0  0
   60.5400   28.3730   45.9550 H   0  0  0  0  0  0  0  0  0  0  0  0
   60.6760   26.7600   46.1670 H   0  0  0  0  0  0  0  0  0  0  0  0
   58.8664   25.4123   47.2308 H   0  0  0  0  0  0  0  0  0  0  0  0
   55.1095   22.9256   47.0225 H   0  0  0  0  0  0  0  0  0  0  0  0
   54.8588   24.1393   45.7223 H   0  0  0  0  0  0  0  0  0  0  0  0
   56.3343   23.1149   45.7223 H   0  0  0  0  0  0  0  0  0  0  0  0
   54.9032   26.4759   45.9364 H   0  0  0  0  0  0  0  0  0  0  0  0
   55.1622   30.5950   43.9183 H   0  0  0  0  0  0  0  0  0  0  0  0
   57.8779   32.3812   44.5233 H   0  0  0  0  0  0  0  0  0  0  0  0
   58.5456   31.4858   43.1166 H   0  0  0  0  0  0  0  0  0  0  0  0
   56.8261   32.0053   43.1166 H   0  0  0  0  0  0  0  0  0  0  0  0
  1  2  1  0
  2  3  1  0
  3  4  1  0
  4  5  1  0
  5  6  1  0
  6  7  1  0
  7  8  2  0
  8  9  1  0
  9 10  1  0
 10 11  1  0
  9 12  2  0
 12 13  1  0
 13 14  1  0
 14 15  1  0
 15 16  2  0
 16 17  1  0
 16 18  1  0
 18 19  2  0
 18 20  1  0
 20  7  1  0
 20 13  2  0
  1 21  1  0
  1 22  1  0
  1 23  1  0
  2 24  1  0
  2 25  1  0
  3 26  1  0
  4 27  1  0
  4 28  1  0
  5 29  1  0
  5 30  1  0
  6 31  1  0
  6 32  1  0
  8 33  1  0
 11 34  1  0
 11 35  1  0
 11 36  1  0
 12 37  1  0
 15 38  1  0
 17 39  1  0
 17 40  1  0
 17 41  1  0
M  CHG  2   6   1  14  -1
M  END
>  <UniqueID>  (7) 
7

>  <SMILES>  (7) 
CCNCC[NH2+]c1cc(OC)cc2[n-]cc(C)c(=O)c12

>  <Energy>  (7) 
48.784044225156386

>  <Genealogy>  (7) 
CCNCC[NH2+]c1cc(OC)cc2[n-]cc(C)c(=O)c12 (protonated)
CCNCC[NH2+]c1cc(OC)cc2[n-]cc(C)c(=O)c12 (3D coordinates assigned)
CCNCC[NH2+]c1cc(OC)cc2[n-]cc(C)c(=O)c12 (optimized conformer: 48.784044225156386 kcal/mol)

>  <smiles>  (7) 
CCNCCNc1cc(OC)cc2[nH]cc(C)c(=O)c12

>  <score_type>  (7) 
oracle

>  <origin>  (7) 
adg

>  <m_score__min__energy>  (7) 
-5.5300000000000002

>  <m_primary>  (7) 
energy

$$$$
7:0
     RDKit          3D

 49 51  0  0  1  0  0  0  0  0999 V2000
   59.4190   29.3120   50.7270 C   0  0  0  0  0  0  0  0  0  0  0  0
   58.1230   29.7440   50.6430 O   0  0  0  0  0  0  0  0  0  0  0  0
   57.9040   31.0280   51.0610 C   0  0  0  0  0  0  0  0  0  0  0  0
   58.4820   32.0620   50.1180 C   0  0  0  0  0  0  0  0  0  0  0  0
   58.5800   31.5410   48.7420 N   0  0  0  0  0  0  0  0  0  0  0  0
   58.6540   32.4650   47.6780 C   0  0  0  0  0  0  0  0  0  0  0  0
   59.0260   33.7710   48.0230 C   0  0  0  0  0  0  0  0  0  0  0  0
   59.3230   34.6940   47.0320 C   0  0  0  0  0  0  0  0  0  0  0  0
   59.2330   34.2640   45.7400 C   0  0  0  0  0  0  0  0  0  0  0  0
   58.8640   32.9810   45.4140 C   0  0  0  0  0  0  0  0  0  0  0  0
   58.5510   32.0200   46.4050 C   0  0  0  0  0  0  0  0  0  0  0  0
   57.9810   30.7940   45.9280 C   0  0  0  0  0  0  0  0  0  0  0  0
   58.1180   29.5310   46.4450 C   0  0  0  0  0  0  0  0  0  0  0  0
   57.4150   28.4360   45.9250 C   0  0  0  0  0  0  0  0  0  0  0  0
   57.5600   27.2580   46.4230 N   0  0  0  0  0  0  0  0  0  0  0  0
   56.6570   26.2420   46.0060 C   0  0  0  0  0  0  0  0  0  0  0  0
   55.4080   26.3490   46.0680 O   0  0  0  0  0  0  0  0  0  0  0  0
   57.2150   25.0010   45.4730 C   0  0  0  0  0  0  0  0  0  0  0  0
   56.5640   24.2710   44.5000 C   0  0  0  0  0  0  0  0  0  0  0  0
   57.0850   23.0880   43.9860 C   0  0  0  0  0  0  0  0  0  0  0  0
   58.3010   22.6140   44.4580 C   0  0  0  0  0  0  0  0  0  0  0  0
   58.9780   23.3290   45.4370 C   0  0  0  0  0  0  0  0  0  0  0  0
   58.4230   24.4970   45.9180 C   0  0  0  0  0  0  0  0  0  0  0  0
   59.0740   25.2180   46.8850 F   0  0  0  0  0  0  0  0  0  0  0  0
   56.5710   28.5740   44.8940 N   0  0  0  0  0  0  0  0  0  0  0  0
   56.4370   29.8140   44.3920 C   0  0  0  0  0  0  0  0  0  0  0  0
   55.5240   30.0520   43.2520 C   0  0  0  0  0  0  0  0  0  0  0  0
   57.1040   30.8660   44.8790 N   0  0  0  0  0  0  0  0  0  0  0  0
   59.7058   29.2164   51.7846 H   0  0  0  0  0  0  0  0  0  0  0  0
   59.5124   28.3341   50.2319 H   0  0  0  0  0  0  0  0  0  0  0  0
   60.0804   30.0383   50.2319 H   0  0  0  0  0  0  0  0  0  0  0  0
   56.8190   31.1915   51.1386 H   0  0  0  0  0  0  0  0  0  0  0  0
   58.4070   31.1492   52.0317 H   0  0  0  0  0  0  0  0  0  0  0  0
   57.8326   32.9498   50.1190 H   0  0  0  0  0  0  0  0  0  0  0  0
   59.4943   32.3181   50.4639 H   0  0  0  0  0  0  0  0  0  0  0  0
   58.6480   30.5220   48.6940 H   0  0  0  0  0  0  0  0  0  0  0  0
   59.0825   34.0645   49.0816 H   0  0  0  0  0  0  0  0  0  0  0  0
   59.6176   35.7254   47.2759 H   0  0  0  0  0  0  0  0  0  0  0  0
   59.4644   34.9706   44.9294 H   0  0  0  0  0  0  0  0  0  0  0  0
   58.8104   32.6929   44.3537 H   0  0  0  0  0  0  0  0  0  0  0  0
   58.8002   29.3729   47.2933 H   0  0  0  0  0  0  0  0  0  0  0  0
   55.5998   24.6370   44.1175 H   0  0  0  0  0  0  0  0  0  0  0  0
   56.5370   22.5321   43.2109 H   0  0  0  0  0  0  0  0  0  0  0  0
   58.7247   21.6801   44.0601 H   0  0  0  0  0  0  0  0  0  0  0  0
   59.9430   22.9694   45.8236 H   0  0  0  0  0  0  0  0  0  0  0  0
   56.0670   27.7520   44.5300 H   0  0  0  0  0  0  0  0  0  0  0  0
   54.5247   30.3125   43.6308 H   0  0  0  0  0  0  0  0  0  0  0  0
   55.9109   30.8793   42.6389 H   0  0  0  0  0  0  0  0  0  0  0  0
   55.4578   29.1411   42.6389 H   0  0  0  0  0  0  0  0  0  0  0  0
  1  2  1  0
  2  3  1  0
  3  4  1  0
  4  5  1  0
  5  6  1  0
  6  7  2  0
  7  8  1  0
  8  9  2  0
  9 10  1  0
 10 11  2  0
 11 12  1  0
 12 13  2  0
 13 14  1  0
 14 15  2  0
 15 16  1  0
 16 17  2  0
 16 18  1  0
 18 19  2  0
 19 20  1  0
 20 21  2  0
 21 22  1  0
 22 23  2  0
 23 24  1  0
 14 25  1  0
 25 26  1  0
 26 27  1  0
 26 28  2  0
 11  6  1  0
 28 12  1  0
 23 18  1  0
  1 29  1  0
  1 30  1  0
  1 31  1  0
  3 32  1  0
  3 33  1  0
  4 34  1  0
  4 35  1  0
  5 36  1  0
  7 37  1  0
  8 38  1  0
  9 39  1  0
 10 40  1  0
 13 41  1  0
 19 42  1  0
 20 43  1  0
 21 44  1  0
 22 45  1  0
 25 46  1  0
 27 47  1  0
 27 48  1  0
 27 49  1  0
M  END
>  <smiles>  (8) 
COCCNc1ccccc1-c1cc(=NC(=O)c2ccccc2F)[nH]c(C)n1

>  <score_type>  (8) 
oracle

>  <origin>  (8) 
adg

>  <m_score__min__energy>  (8) 
-8.3599999999999994

>  <m_primary>  (8) 
energy

$$$$
8:0
     RDKit          3D

 41 43  0  0  0  0  0  0  0  0999 V2000
   57.1723   27.2774   47.5251 H   0  0  0  0  0  0  0  0  0  0  0  0
   58.1160   27.7170   47.1700 C   0  0  0  0  0  0  0  0  0  0  0  0
   58.5910   28.8550   47.7410 N   0  0  0  0  0  0  0  0  0  0  0  0
   59.7500   29.4470   47.3450 C   0  0  0  0  0  0  0  0  0  0  0  0
   60.1150   30.5450   47.9470 N   0  0  0  0  0  0  0  0  0  0  0  0
   61.1480   31.4790   47.5910 C   0  0  0  0  0  0  0  0  0  0  0  0
   62.2420   31.0920   47.1010 O   0  0  0  0  0  0  0  0  0  0  0  0
   60.9540   32.9310   47.8890 C   0  0  0  0  0  0  0  0  0  0  0  0
   61.5149   33.1879   48.7997 H   0  0  0  0  0  0  0  0  0  0  0  0
   61.3185   33.5134   47.0300 H   0  0  0  0  0  0  0  0  0  0  0  0
   59.1890   33.3260   48.1460 S   0  0  0  0  0  0  0  0  0  0  0  0
   58.6660   32.8070   46.4990 C   0  0  0  0  0  0  0  0  0  0  0  0
   58.7840   33.6690   45.3970 C   0  0  0  0  0  0  0  0  0  0  0  0
   59.3840   34.9750   45.5250 C   0  0  0  0  0  0  0  0  0  0  0  0
   59.8640   36.0230   45.6320 N   0  0  0  0  0  0  0  0  0  0  0  0
   58.3400   33.2420   44.1430 C   0  0  0  0  0  0  0  0  0  0  0  0
   58.4203   33.9154   43.2769 H   0  0  0  0  0  0  0  0  0  0  0  0
   57.7910   31.9570   43.9800 C   0  0  0  0  0  0  0  0  0  0  0  0
   57.3240   31.4850   42.7260 C   0  0  0  0  0  0  0  0  0  0  0  0
   57.3800   32.3380   41.4840 C   0  0  0  0  0  0  0  0  0  0  0  0
   57.4496   33.3979   41.7700 H   0  0  0  0  0  0  0  0  0  0  0  0
   58.2619   32.0604   40.8880 H   0  0  0  0  0  0  0  0  0  0  0  0
   56.4694   32.1780   40.8880 H   0  0  0  0  0  0  0  0  0  0  0  0
   56.7930   30.1870   42.6350 C   0  0  0  0  0  0  0  0  0  0  0  0
   56.4294   29.8146   41.6659 H   0  0  0  0  0  0  0  0  0  0  0  0
   56.7220   29.3660   43.7600 C   0  0  0  0  0  0  0  0  0  0  0  0
   56.3041   28.3523   43.6726 H   0  0  0  0  0  0  0  0  0  0  0  0
   57.1780   29.8240   44.9940 C   0  0  0  0  0  0  0  0  0  0  0  0
   57.1180   29.1698   45.8763 H   0  0  0  0  0  0  0  0  0  0  0  0
   57.7130   31.1140   45.1180 C   0  0  0  0  0  0  0  0  0  0  0  0
   58.1540   31.5570   46.3310 N   0  0  0  0  0  0  0  0  0  0  0  0
   58.0890   30.9280   47.1640 H   0  0  0  0  0  0  0  0  0  0  0  0
   60.4730   28.8730   46.2760 C   0  0  0  0  0  0  0  0  0  0  0  0
   61.4014   29.3435   45.9201 H   0  0  0  0  0  0  0  0  0  0  0  0
   60.0020   27.7050   45.6740 C   0  0  0  0  0  0  0  0  0  0  0  0
   60.5582   27.2566   44.8376 H   0  0  0  0  0  0  0  0  0  0  0  0
   58.8250   27.1030   46.1310 C   0  0  0  0  0  0  0  0  0  0  0  0
   58.2870   25.8720   45.4630 C   0  0  0  0  0  0  0  0  0  0  0  0
   57.9706   25.1481   46.2284 H   0  0  0  0  0  0  0  0  0  0  0  0
   57.4250   26.1424   44.8354 H   0  0  0  0  0  0  0  0  0  0  0  0
   59.0710   25.4230   44.8354 H   0  0  0  0  0  0  0  0  0  0  0  0
  1  2  1  0
  2  3  1  0
  3  4  1  0
  4  5  2  0
  5  6  1  0
  6  7  2  0
  6  8  1  0
  8  9  1  0
  8 10  1  0
  8 11  1  0
 11 12  1  0
 12 13  2  0
 13 14  1  0
 14 15  3  0
 13 16  1  0
 16 17  1  0
 16 18  2  0
 18 19  1  0
 19 20  1  0
 20 21  1  0
 20 22  1  0
 20 23  1  0
 19 24  2  0
 24 25  1  0
 24 26  1  0
 26 27  1  0
 26 28  2  0
 28 29  1  0
 28 30  1  0
 30 31  2  0
 31 32  1  0
  4 33  1  0
 33 34  1  0
 33 35  2  0
 35 36  1  0
 35 37  1  0
 37 38  1  0
 38 39  1  0
 38 40  1  0
 38 41  1  0
 37  2  2  0
 31 12  1  0
 30 18  1  0
M  CHG  2   3  -1  31   1
M  END
>  <UniqueID>  (9) 
8

>  <SMILES>  (9) 
Cc1cc/c(=N\C(=O)CSc2[nH+]c3cccc(C)c3cc2C#N)[n-]c1

>  <Energy>  (9) 
49.31357506879558

>  <Genealogy>  (9) 
Cc1ccc(=NC(=O)CSc2[nH+]c3cccc(C)c3cc2C#N)[n-]c1 (protonated)
Cc1cc/c(=N\C(=O)CSc2[nH+]c3cccc(C)c3cc2C#N)[n-]c1 (cis-trans isomerization)
Cc1cc/c(=N\C(=O)CSc2[nH+]c3cccc(C)c3cc2C#N)[n-]c1 (3D coordinates assigned)
Cc1cc/c(=N\C(=O)CSc2[nH+]c3cccc(C)c3cc2C#N)[n-]c1 (optimized conformer: 49.31357506879558 kcal/mol)

>  <smiles>  (9) 
Cc1ccc(=NC(=O)CSc2nc3cccc(C)c3cc2C#N)[nH]c1

>  <score_type>  (9) 
oracle

>  <origin>  (9) 
adg

>  <m_score__min__energy>  (9) 
-8.4499999999999993

>  <m_primary>  (9) 
energy

$$$$
9:0
     RDKit          3D

 54 56  0  0  0  0  0  0  0  0999 V2000
   56.5050   21.8910   44.9930 C   0  0  0  0  0  0  0  0  0  0  0  0
   56.0120   22.7210   43.8810 N   0  0  0  0  0  0  0  0  0  0  0  0
   56.6470   22.2970   42.6240 C   0  0  0  0  0  0  0  0  0  0  0  0
   56.2360   24.1640   44.1410 C   0  0  0  0  0  0  0  0  0  0  0  0
   57.7320   24.4850   44.0630 C   0  0  0  0  0  0  0  0  0  0  0  0
   57.9960   25.8830   44.4390 N   0  0  0  0  0  0  0  0  0  0  0  0
   58.0280   26.8370   43.4590 C   0  0  0  0  0  0  0  0  0  0  0  0
   58.2100   28.1820   43.7780 C   0  0  0  0  0  0  0  0  0  0  0  0
   58.3570   28.5650   45.1120 C   0  0  0  0  0  0  0  0  0  0  0  0
   58.4970   29.9570   45.4390 N   0  0  0  0  0  0  0  0  0  0  0  0
   59.6720   30.4250   46.1780 C   0  0  0  0  0  0  0  0  0  0  0  0
   59.2590   31.5450   47.1420 C   0  0  0  0  0  0  0  0  0  0  0  0
   58.5760   32.6780   46.4600 N   0  0  0  0  0  0  0  0  0  0  0  0
   59.6680   34.0280   46.2290 S   0  0  0  0  0  0  0  0  0  0  0  0
   59.9640   34.1810   44.7630 O   0  0  0  0  0  0  0  0  0  0  0  0
   59.0020   35.2930   46.6970 O   0  0  0  0  0  0  0  0  0  0  0  0
   61.1910   33.8040   47.1030 C   0  0  0  0  0  0  0  0  0  0  0  0
   62.3720   33.5520   46.3850 C   0  0  0  0  0  0  0  0  0  0  0  0
   63.5800   33.3490   47.0570 C   0  0  0  0  0  0  0  0  0  0  0  0
   63.6190   33.3980   48.4520 C   0  0  0  0  0  0  0  0  0  0  0  0
   62.4530   33.6610   49.1760 C   0  0  0  0  0  0  0  0  0  0  0  0
   61.2420   33.8700   48.5080 C   0  0  0  0  0  0  0  0  0  0  0  0
   60.1300   34.1420   49.2360 F   0  0  0  0  0  0  0  0  0  0  0  0
   57.9230   32.3250   45.1750 C   0  0  0  0  0  0  0  0  0  0  0  0
   57.3970   30.8860   45.1650 C   0  0  0  0  0  0  0  0  0  0  0  0
   58.3440   27.5820   46.1150 C   0  0  0  0  0  0  0  0  0  0  0  0
   58.6000   28.0130   47.8050 Cl  0  0  0  0  0  0  0  0  0  0  0  0
   58.1570   26.2370   45.7580 C   0  0  0  0  0  0  0  0  0  0  0  0
   58.1350   25.3570   46.6610 O   0  0  0  0  0  0  0  0  0  0  0  0
   56.2278   22.3577   45.9498 H   0  0  0  0  0  0  0  0  0  0  0  0
   56.0555   20.8890   44.9299 H   0  0  0  0  0  0  0  0  0  0  0  0
   57.5999   21.8063   44.9299 H   0  0  0  0  0  0  0  0  0  0  0  0
   57.5425   21.6991   42.8490 H   0  0  0  0  0  0  0  0  0  0  0  0
   55.9380   21.6905   42.0414 H   0  0  0  0  0  0  0  0  0  0  0  0
   56.9355   23.1843   42.0414 H   0  0  0  0  0  0  0  0  0  0  0  0
   55.6964   24.7577   43.3884 H   0  0  0  0  0  0  0  0  0  0  0  0
   55.8659   24.4111   45.1470 H   0  0  0  0  0  0  0  0  0  0  0  0
   58.2780   23.8198   44.7481 H   0  0  0  0  0  0  0  0  0  0  0  0
   58.0674   24.3335   43.0264 H   0  0  0  0  0  0  0  0  0  0  0  0
   57.9087   26.5394   42.4068 H   0  0  0  0  0  0  0  0  0  0  0  0
   58.2377   28.9391   42.9805 H   0  0  0  0  0  0  0  0  0  0  0  0
   60.1020   29.5894   46.7498 H   0  0  0  0  0  0  0  0  0  0  0  0
   60.4208   30.8092   45.4697 H   0  0  0  0  0  0  0  0  0  0  0  0
   58.5750   31.1252   47.8943 H   0  0  0  0  0  0  0  0  0  0  0  0
   60.1781   31.9417   47.5979 H   0  0  0  0  0  0  0  0  0  0  0  0
   57.8280   33.0230   47.1060 H   0  0  0  0  0  0  0  0  0  0  0  0
   62.3454   33.5142   45.2860 H   0  0  0  0  0  0  0  0  0  0  0  0
   64.4999   33.1507   46.4874 H   0  0  0  0  0  0  0  0  0  0  0  0
   64.5683   33.2294   48.9815 H   0  0  0  0  0  0  0  0  0  0  0  0
   62.4877   33.7038   50.2746 H   0  0  0  0  0  0  0  0  0  0  0  0
   57.0796   33.0109   45.0068 H   0  0  0  0  0  0  0  0  0  0  0  0
   58.6775   32.4126   44.3794 H   0  0  0  0  0  0  0  0  0  0  0  0
   56.6226   30.7742   45.9382 H   0  0  0  0  0  0  0  0  0  0  0  0
   56.9675   30.6616   44.1775 H   0  0  0  0  0  0  0  0  0  0  0  0
  1  2  1  0
  2  3  1  0
  2  4  1  0
  4  5  1  0
  5  6  1  0
  6  7  1  0
  7  8  2  0
  8  9  1  0
  9 10  1  0
 10 11  1  0
 11 12  1  0
 12 13  1  0
 13 14  1  0
 14 15  2  0
 14 16  2  0
 14 17  1  0
 17 18  2  0
 18 19  1  0
 19 20  2  0
 20 21  1  0
 21 22  2  0
 22 23  1  0
 13 24  1  0
 24 25  1  0
  9 26  2  0
 26 27  1  0
 26 28  1  0
 28 29  2  0
 28  6  1  0
 25 10  1  0
 22 17  1  0
  1 30  1  0
  1 31  1  0
  1 32  1  0
  3 33  1  0
  3 34  1  0
  3 35  1  0
  4 36  1  0
  4 37  1  0
  5 38  1  0
  5 39  1  0
  7 40  1  0
  8 41  1  0
 11 42  1  0
 11 43  1  0
 12 44  1  0
 12 45  1  0
 13 46  1  0
 18 47  1  0
 19 48  1  0
 20 49  1  0
 21 50  1  0
 24 51  1  0
 24 52  1  0
 25 53  1  0
 25 54  1  0
M  CHG  1  13   1
M  END
>  <UniqueID>  (10) 
9

>  <SMILES>  (10) 
CN(C)CCn1ccc(N2CC[NH+](S(=O)(=O)c3ccccc3F)CC2)c(Cl)c1=O

>  <Energy>  (10) 
68.0952412025584

>  <Genealogy>  (10) 
CN(C)CCn1ccc(N2CC[NH+](S(=O)(=O)c3ccccc3F)CC2)c(Cl)c1=O (protonated)
CN(C)CCn1ccc(N2CC[NH+](S(=O)(=O)c3ccccc3F)CC2)c(Cl)c1=O (3D coordinates assigned)
CN(C)CCn1ccc(N2CC[NH+](S(=O)(=O)c3ccccc3F)CC2)c(Cl)c1=O (nonaromatic ring conformer: 68.0952412025584 kcal/mol)

>  <smiles>  (10) 
CN(C)CCn1ccc(N2CCN(S(=O)(=O)c3ccccc3F)CC2)c(Cl)c1=O

>  <score_type>  (10) 
oracle

>  <origin>  (10) 
adg

>  <m_score__min__energy>  (10) 
-6.4500000000000002

>  <m_primary>  (10) 
energy

$$$$
10:0
     RDKit          3D

 36 37  0  0  1  0  0  0  0  0999 V2000
   60.5400   28.6210   44.9760 C   0  0  0  0  0  0  0  0  0  0  0  0
   60.2500   28.1880   46.0750 C   0  0  0  0  0  0  0  0  0  0  0  0
   59.8890   27.6830   47.4010 C   0  0  0  0  0  0  0  0  0  0  0  0
   59.0450   28.9640   48.3740 S   0  0  0  0  0  0  0  0  0  0  0  0
   58.9060   30.4880   47.4580 C   0  0  0  0  0  0  0  0  0  0  0  0
   59.6100   31.5920   47.7590 N   0  0  0  0  0  0  0  0  0  0  0  0
   59.4710   32.7160   47.0420 C   0  0  0  0  0  0  0  0  0  0  0  0
   60.2060   33.7720   47.3940 N   0  0  0  0  0  0  0  0  0  0  0  0
   60.0680   34.8910   46.6650 C   0  0  0  0  0  0  0  0  0  0  0  0
   59.2440   35.0400   45.5960 C   0  0  0  0  0  0  0  0  0  0  0  0
   58.4570   33.9360   45.2050 C   0  0  0  0  0  0  0  0  0  0  0  0
   58.6000   32.8120   45.9510 C   0  0  0  0  0  0  0  0  0  0  0  0
   57.8950   31.6800   45.6650 C   0  0  0  0  0  0  0  0  0  0  0  0
   57.0200   31.6580   44.7870 N   0  0  0  0  0  0  0  0  0  0  0  0
   57.1530   31.3780   43.4250 C   0  0  0  0  0  0  0  0  0  0  0  0
   56.9300   29.8160   43.4200 C   0  0  0  0  0  0  0  0  0  0  0  0
   55.7180   29.6530   44.3130 C   0  0  0  0  0  0  0  0  0  0  0  0
   55.8630   28.6620   45.2420 O   0  0  0  0  0  0  0  0  0  0  0  0
   57.0450   27.9670   44.9820 C   0  0  0  0  0  0  0  0  0  0  0  0
   58.0670   30.5660   46.4170 N   0  0  0  0  0  0  0  0  0  0  0  0
   60.8023   29.0126   43.9821 H   0  0  0  0  0  0  0  0  0  0  0  0
   59.2195   26.8177   47.2870 H   0  0  0  0  0  0  0  0  0  0  0  0
   60.8089   27.3899   47.9282 H   0  0  0  0  0  0  0  0  0  0  0  0
   60.6738   35.7609   46.9586 H   0  0  0  0  0  0  0  0  0  0  0  0
   59.1915   35.9938   45.0506 H   0  0  0  0  0  0  0  0  0  0  0  0
   57.7695   33.9838   44.3476 H   0  0  0  0  0  0  0  0  0  0  0  0
   56.3888   31.8978   42.8285 H   0  0  0  0  0  0  0  0  0  0  0  0
   58.1073   31.7028   42.9848 H   0  0  0  0  0  0  0  0  0  0  0  0
   56.7271   29.4470   42.4038 H   0  0  0  0  0  0  0  0  0  0  0  0
   57.8067   29.2476   43.7639 H   0  0  0  0  0  0  0  0  0  0  0  0
   55.5415   30.6026   44.8395 H   0  0  0  0  0  0  0  0  0  0  0  0
   54.8718   29.3746   43.6677 H   0  0  0  0  0  0  0  0  0  0  0  0
   57.5221   27.6865   45.9326 H   0  0  0  0  0  0  0  0  0  0  0  0
   56.8170   27.0591   44.4042 H   0  0  0  0  0  0  0  0  0  0  0  0
   57.7275   28.6076   44.4042 H   0  0  0  0  0  0  0  0  0  0  0  0
   57.5260   29.7050   46.1880 H   0  0  0  0  0  0  0  0  0  0  0  0
  1  2  3  0
  2  3  1  0
  3  4  1  0
  4  5  1  0
  5  6  2  0
  6  7  1  0
  7  8  2  0
  8  9  1  0
  9 10  2  0
 10 11  1  0
 11 12  2  0
 12 13  1  0
 13 14  2  0
 14 15  1  0
 15 16  1  0
 16 17  1  0
 17 18  1  0
 18 19  1  0
 13 20  1  0
 20  5  1  0
 12  7  1  0
  1 21  1  0
  3 22  1  0
  3 23  1  0
  9 24  1  0
 10 25  1  0
 11 26  1  0
 15 27  1  0
 15 28  1  0
 16 29  1  0
 16 30  1  0
 17 31  1  0
 17 32  1  0
 19 33  1  0
 19 34  1  0
 19 35  1  0
 20 36  1  0
M  END
>  <smiles>  (11) 
C#CCSc1nc2ncccc2c(=NCCCOC)[nH]1

>  <score_type>  (11) 
oracle

>  <origin>  (11) 
adg

>  <m_score__min__energy>  (11) 
-5.8200000000000003

>  <m_primary>  (11) 
energy

$$$$
11:0
     RDKit          3D

 56 58  0  0  0  0  0  0  0  0999 V2000
   54.5420   24.7530   45.6200 C   0  0  0  0  0  0  0  0  0  0  0  0
   55.9870   24.4730   46.0360 C   0  0  0  0  0  0  0  0  0  0  0  0
   56.8950   24.5630   44.8710 N   0  0  0  0  0  0  0  0  0  0  0  0
   57.1820   23.2250   44.2870 C   0  0  0  0  0  0  0  0  0  0  0  0
   56.3000   23.0010   43.0650 C   0  0  0  0  0  0  0  0  0  0  0  0
   58.1380   25.2750   45.2410 C   0  0  0  0  0  0  0  0  0  0  0  0
   57.9270   26.7280   45.1900 C   0  0  0  0  0  0  0  0  0  0  0  0
   57.7460   27.9190   45.1630 C   0  0  0  0  0  0  0  0  0  0  0  0
   57.5340   29.3490   45.1130 C   0  0  0  0  0  0  0  0  0  0  0  0
   58.5620   30.2770   45.4170 C   0  0  0  0  0  0  0  0  0  0  0  0
   59.9520   29.7790   45.7760 C   0  0  0  0  0  0  0  0  0  0  0  0
   58.2970   31.6330   45.3450 N   0  0  0  0  0  0  0  0  0  0  0  0
   59.3460   32.6350   45.6540 C   0  0  0  0  0  0  0  0  0  0  0  0
   59.4620   32.8790   47.1410 C   0  0  0  0  0  0  0  0  0  0  0  0
   58.7180   32.1170   48.0580 C   0  0  0  0  0  0  0  0  0  0  0  0
   58.8300   32.3580   49.4300 C   0  0  0  0  0  0  0  0  0  0  0  0
   59.6780   33.3710   49.9130 C   0  0  0  0  0  0  0  0  0  0  0  0
   59.8110   33.6130   51.3710 C   0  0  0  0  0  0  0  0  0  0  0  0
   60.9900   33.2530   52.0510 C   0  0  0  0  0  0  0  0  0  0  0  0
   61.1090   33.4760   53.4250 C   0  0  0  0  0  0  0  0  0  0  0  0
   60.0590   34.0650   54.1350 C   0  0  0  0  0  0  0  0  0  0  0  0
   58.8860   34.4290   53.4690 C   0  0  0  0  0  0  0  0  0  0  0  0
   58.7580   34.2040   52.0950 C   0  0  0  0  0  0  0  0  0  0  0  0
   60.4000   34.1480   48.9930 C   0  0  0  0  0  0  0  0  0  0  0  0
   60.2860   33.9110   47.6220 C   0  0  0  0  0  0  0  0  0  0  0  0
   57.0370   32.0620   44.9970 C   0  0  0  0  0  0  0  0  0  0  0  0
   56.7660   33.2920   44.9340 O   0  0  0  0  0  0  0  0  0  0  0  0
   56.0570   31.1710   44.7170 N   0  0  0  0  0  0  0  0  0  0  0  0
   56.2720   29.8380   44.7660 C   0  0  0  0  0  0  0  0  0  0  0  0
   55.3250   29.0510   44.4950 O   0  0  0  0  0  0  0  0  0  0  0  0
   53.9187   24.8738   46.5183 H   0  0  0  0  0  0  0  0  0  0  0  0
   54.5049   25.6750   45.0213 H   0  0  0  0  0  0  0  0  0  0  0  0
   54.1632   23.9116   45.0213 H   0  0  0  0  0  0  0  0  0  0  0  0
   56.2946   25.2114   46.7911 H   0  0  0  0  0  0  0  0  0  0  0  0
   56.0442   23.4557   46.4504 H   0  0  0  0  0  0  0  0  0  0  0  0
   58.2397   23.1747   43.9892 H   0  0  0  0  0  0  0  0  0  0  0  0
   56.9730   22.4470   45.0360 H   0  0  0  0  0  0  0  0  0  0  0  0
   55.2815   22.7423   43.3903 H   0  0  0  0  0  0  0  0  0  0  0  0
   56.2698   23.9200   42.4612 H   0  0  0  0  0  0  0  0  0  0  0  0
   56.7119   22.1790   42.4612 H   0  0  0  0  0  0  0  0  0  0  0  0
   58.4317   24.9864   46.2610 H   0  0  0  0  0  0  0  0  0  0  0  0
   58.9317   25.0032   44.5295 H   0  0  0  0  0  0  0  0  0  0  0  0
   60.0567   29.7415   46.8704 H   0  0  0  0  0  0  0  0  0  0  0  0
   60.0998   28.7720   45.3588 H   0  0  0  0  0  0  0  0  0  0  0  0
   60.7057   30.4630   45.3588 H   0  0  0  0  0  0  0  0  0  0  0  0
   60.3119   32.2687   45.2760 H   0  0  0  0  0  0  0  0  0  0  0  0
   59.0688   33.5834   45.1705 H   0  0  0  0  0  0  0  0  0  0  0  0
   58.0444   31.3272   47.6941 H   0  0  0  0  0  0  0  0  0  0  0  0
   58.2494   31.7496   50.1391 H   0  0  0  0  0  0  0  0  0  0  0  0
   61.8221   32.7936   51.4974 H   0  0  0  0  0  0  0  0  0  0  0  0
   62.0317   33.1872   53.9496 H   0  0  0  0  0  0  0  0  0  0  0  0
   60.1560   34.2417   55.2164 H   0  0  0  0  0  0  0  0  0  0  0  0
   58.0604   34.8942   54.0275 H   0  0  0  0  0  0  0  0  0  0  0  0
   57.8305   34.4900   51.5774 H   0  0  0  0  0  0  0  0  0  0  0  0
   61.0605   34.9496   49.3553 H   0  0  0  0  0  0  0  0  0  0  0  0
   60.8459   34.5374   46.9120 H   0  0  0  0  0  0  0  0  0  0  0  0
  1  2  1  0
  2  3  1  0
  3  4  1  0
  4  5  1  0
  3  6  1  0
  6  7  1  0
  7  8  3  0
  8  9  1  0
  9 10  2  0
 10 11  1  0
 10 12  1  0
 12 13  1  0
 13 14  1  0
 14 15  2  0
 15 16  1  0
 16 17  2  0
 17 18  1  0
 18 19  2  0
 19 20  1  0
 20 21  2  0
 21 22  1  0
 22 23  2  0
 17 24  1  0
 24 25  2  0
 12 26  1  0
 26 27  2  0
 26 28  1  0
 28 29  1  0
 29 30  2  0
 29  9  1  0
 25 14  1  0
 23 18  1  0
  1 31  1  0
  1 32  1  0
  1 33  1  0
  2 34  1  0
  2 35  1  0
  4 36  1  0
  4 37  1  0
  5 38  1  0
  5 39  1  0
  5 40  1  0
  6 41  1  0
  6 42  1  0
 11 43  1  0
 11 44  1  0
 11 45  1  0
 13 46  1  0
 13 47  1  0
 15 48  1  0
 16 49  1  0
 19 50  1  0
 20 51  1  0
 21 52  1  0
 22 53  1  0
 23 54  1  0
 24 55  1  0
 25 56  1  0
M  CHG  1  28  -1
M  END
>  <UniqueID>  (12) 
10

>  <SMILES>  (12) 
CCN(CC)CC#Cc1c(C)n(Cc2ccc(-c3ccccc3)cc2)c(=O)[n-]c1=O

>  <Energy>  (12) 
67.25329355506753

>  <Genealogy>  (12) 
CCN(CC)CC#Cc1c(C)n(Cc2ccc(-c3ccccc3)cc2)c(=O)[n-]c1=O (protonated)
CCN(CC)CC#Cc1c(C)n(Cc2ccc(-c3ccccc3)cc2)c(=O)[n-]c1=O (3D coordinates assigned)
CCN(CC)CC#Cc1c(C)n(Cc2ccc(-c3ccccc3)cc2)c(=O)[n-]c1=O (optimized conformer: 67.25329355506753 kcal/mol)

>  <smiles>  (12) 
CCN(CC)CC#Cc1c(C)n(Cc2ccc(-c3ccccc3)cc2)c(=O)[nH]c1=O

>  <score_type>  (12) 
oracle

>  <origin>  (12) 
adg

>  <m_score__min__energy>  (12) 
-8.8200000000000003

>  <m_primary>  (12) 
energy

$$$$
12:0
     RDKit          3D

 46 48  0  0  0  0  0  0  0  0999 V2000
   56.6460   20.7240   42.9920 C   0  0  0  0  0  0  0  0  0  0  0  0
   55.8940   21.7490   43.6330 O   0  0  0  0  0  0  0  0  0  0  0  0
   56.4580   22.8750   44.2510 C   0  0  0  0  0  0  0  0  0  0  0  0
   57.8360   22.9750   44.5280 C   0  0  0  0  0  0  0  0  0  0  0  0
   58.3510   24.1230   45.1370 C   0  0  0  0  0  0  0  0  0  0  0  0
   57.5050   25.1920   45.4640 C   0  0  0  0  0  0  0  0  0  0  0  0
   58.1460   26.6260   46.2710 S   0  0  0  0  0  0  0  0  0  0  0  0
   58.6170   26.2560   47.6500 O   0  0  0  0  0  0  0  0  0  0  0  0
   57.0140   27.6020   46.4430 O   0  0  0  0  0  0  0  0  0  0  0  0
   59.4470   27.4140   45.3820 N   0  0  0  0  0  0  0  0  0  0  0  0
   60.2610   28.2920   46.2590 C   0  0  0  0  0  0  0  0  0  0  0  0
   60.2790   29.7770   45.8450 C   0  0  0  0  0  0  0  0  0  0  0  0
   58.9890   30.1960   45.2820 N   0  0  0  0  0  0  0  0  0  0  0  0
   58.4720   31.5200   45.5350 C   0  0  0  0  0  0  0  0  0  0  0  0
   58.0630   32.3340   44.4630 C   0  0  0  0  0  0  0  0  0  0  0  0
   57.5470   33.6110   44.6950 C   0  0  0  0  0  0  0  0  0  0  0  0
   57.4430   34.0980   45.9980 C   0  0  0  0  0  0  0  0  0  0  0  0
   57.8620   33.3110   47.0720 C   0  0  0  0  0  0  0  0  0  0  0  0
   58.3780   32.0300   46.8490 C   0  0  0  0  0  0  0  0  0  0  0  0
   58.8200   31.3100   47.9100 F   0  0  0  0  0  0  0  0  0  0  0  0
   58.3490   29.3630   44.2540 C   0  0  0  0  0  0  0  0  0  0  0  0
   59.0920   28.0290   44.0790 C   0  0  2  0  0  0  0  0  0  0  0  0
   58.3400   27.0800   43.1370 C   0  0  0  0  0  0  0  0  0  0  0  0
   56.1320   25.0860   45.2010 C   0  0  0  0  0  0  0  0  0  0  0  0
   55.6160   23.9350   44.5980 C   0  0  0  0  0  0  0  0  0  0  0  0
   57.1159   20.0836   43.7530 H   0  0  0  0  0  0  0  0  0  0  0  0
   55.9774   20.1170   42.3639 H   0  0  0  0  0  0  0  0  0  0  0  0
   57.4257   21.1795   42.3639 H   0  0  0  0  0  0  0  0  0  0  0  0
   58.5093   22.1462   44.2639 H   0  0  0  0  0  0  0  0  0  0  0  0
   59.4260   24.1880   45.3609 H   0  0  0  0  0  0  0  0  0  0  0  0
   59.8573   28.2257   47.2801 H   0  0  0  0  0  0  0  0  0  0  0  0
   61.2983   27.9347   46.1800 H   0  0  0  0  0  0  0  0  0  0  0  0
   60.4990   30.3919   46.7302 H   0  0  0  0  0  0  0  0  0  0  0  0
   61.0513   29.9100   45.0730 H   0  0  0  0  0  0  0  0  0  0  0  0
   58.1504   31.9611   43.4318 H   0  0  0  0  0  0  0  0  0  0  0  0
   57.2220   34.2339   43.8486 H   0  0  0  0  0  0  0  0  0  0  0  0
   57.0310   35.1017   46.1791 H   0  0  0  0  0  0  0  0  0  0  0  0
   57.7861   33.6998   48.0982 H   0  0  0  0  0  0  0  0  0  0  0  0
   57.3103   29.1588   44.5529 H   0  0  0  0  0  0  0  0  0  0  0  0
   58.3774   29.9060   43.2978 H   0  0  0  0  0  0  0  0  0  0  0  0
   60.0511   28.2446   43.5855 H   0  0  0  0  0  0  0  0  0  0  0  0
   57.7648   26.3541   43.7304 H   0  0  0  0  0  0  0  0  0  0  0  0
   57.6541   27.6605   42.5026 H   0  0  0  0  0  0  0  0  0  0  0  0
   59.0619   26.5449   42.5026 H   0  0  0  0  0  0  0  0  0  0  0  0
   55.4576   25.9122   45.4703 H   0  0  0  0  0  0  0  0  0  0  0  0
   54.5373   23.8631   44.3948 H   0  0  0  0  0  0  0  0  0  0  0  0
  1  2  1  0
  2  3  1  0
  3  4  2  0
  4  5  1  0
  5  6  2  0
  6  7  1  0
  7  8  2  0
  7  9  2  0
  7 10  1  0
 10 11  1  0
 11 12  1  0
 12 13  1  0
 13 14  1  0
 14 15  2  0
 15 16  1  0
 16 17  2  0
 17 18  1  0
 18 19  2  0
 19 20  1  0
 13 21  1  0
 21 22  1  0
 22 23  1  0
  6 24  1  0
 24 25  2  0
 25  3  1  0
 22 10  1  0
 19 14  1  0
  1 26  1  0
  1 27  1  0
  1 28  1  0
  4 29  1  0
  5 30  1  0
 11 31  1  0
 11 32  1  0
 12 33  1  0
 12 34  1  0
 15 35  1  0
 16 36  1  0
 17 37  1  0
 18 38  1  0
 21 39  1  0
 21 40  1  0
 22 41  1  6
 23 42  1  0
 23 43  1  0
 23 44  1  0
 24 45  1  0
 25 46  1  0
M  END
>  <UniqueID>  (13) 
11

>  <SMILES>  (13) 
COc1ccc(S(=O)(=O)N2CCN(c3ccccc3F)C[C@@H]2C)cc1

>  <Energy>  (13) 
59.83840610507647

>  <Genealogy>  (13) 
COc1ccc(S(=O)(=O)N2CCN(c3ccccc3F)C[C@@H]2C)cc1 (chirality)
COc1ccc(S(=O)(=O)N2CCN(c3ccccc3F)C[C@@H]2C)cc1 (3D coordinates assigned)
COc1ccc(S(=O)(=O)N2CCN(c3ccccc3F)C[C@@H]2C)cc1 (nonaromatic ring conformer: 59.83840610507647 kcal/mol)

>  <smiles>  (13) 
COc1ccc(S(=O)(=O)N2CCN(c3ccccc3F)CC2C)cc1

>  <score_type>  (13) 
oracle

>  <origin>  (13) 
adg

>  <m_score__min__energy>  (13) 
-7.9400000000000004

>  <m_primary>  (13) 
energy

$$$$
13:0
     RDKit          3D

 51 52  0  0  0  0  0  0  0  0999 V2000
   56.3880   29.4750   42.6110 C   0  0  0  0  0  0  0  0  0  0  0  0
   55.4640   29.7330   43.7970 C   0  0  0  0  0  0  0  0  0  0  0  0
   55.9540   29.0860   44.9720 O   0  0  0  0  0  0  0  0  0  0  0  0
   57.1750   29.3620   45.6080 C   0  0  0  0  0  0  0  0  0  0  0  0
   57.8330   30.5530   45.2870 C   0  0  0  0  0  0  0  0  0  0  0  0
   59.0490   30.8820   45.8950 C   0  0  0  0  0  0  0  0  0  0  0  0
   59.6280   30.0240   46.8360 C   0  0  0  0  0  0  0  0  0  0  0  0
   60.8420   30.4110   47.4300 O   0  0  0  0  0  0  0  0  0  0  0  0
   61.2920   30.0010   48.7220 C   0  0  0  0  0  0  0  0  0  0  0  0
   60.9060   31.0420   49.7790 C   0  0  0  0  0  0  0  0  0  0  0  0
   61.9690   32.1460   49.8900 C   0  0  0  0  0  0  0  0  0  0  0  0
   61.6620   33.3580   48.9690 C   0  0  0  0  0  0  0  0  0  0  0  0
   61.7460   33.0780   47.5110 N   0  0  2  0  0  0  0  0  0  0  0  0
   63.1140   32.6990   47.0980 C   0  0  0  0  0  0  0  0  0  0  0  0
   61.2090   34.1930   46.6950 C   0  0  0  0  0  0  0  0  0  0  0  0
   59.7410   34.0130   46.3850 C   0  0  0  0  0  0  0  0  0  0  0  0
   59.2620   34.2410   45.0830 C   0  0  0  0  0  0  0  0  0  0  0  0
   57.9020   34.0900   44.7980 C   0  0  0  0  0  0  0  0  0  0  0  0
   57.0110   33.7130   45.8070 C   0  0  0  0  0  0  0  0  0  0  0  0
   57.4800   33.4890   47.1050 C   0  0  0  0  0  0  0  0  0  0  0  0
   58.8390   33.6400   47.3950 C   0  0  0  0  0  0  0  0  0  0  0  0
   58.9770   28.8160   47.1500 C   0  0  0  0  0  0  0  0  0  0  0  0
   57.7620   28.4880   46.5430 C   0  0  0  0  0  0  0  0  0  0  0  0
   57.3867   29.1961   42.9782 H   0  0  0  0  0  0  0  0  0  0  0  0
   55.9803   28.6564   41.9998 H   0  0  0  0  0  0  0  0  0  0  0  0
   56.4633   30.3865   41.9998 H   0  0  0  0  0  0  0  0  0  0  0  0
   55.4055   30.8162   43.9796 H   0  0  0  0  0  0  0  0  0  0  0  0
   54.4679   29.3298   43.5620 H   0  0  0  0  0  0  0  0  0  0  0  0
   57.3901   31.2381   44.5491 H   0  0  0  0  0  0  0  0  0  0  0  0
   59.5540   31.8229   45.6311 H   0  0  0  0  0  0  0  0  0  0  0  0
   60.8290   29.0365   48.9776 H   0  0  0  0  0  0  0  0  0  0  0  0
   62.3874   29.9020   48.7029 H   0  0  0  0  0  0  0  0  0  0  0  0
   59.9445   31.4972   49.4991 H   0  0  0  0  0  0  0  0  0  0  0  0
   60.8283   30.5358   50.7525 H   0  0  0  0  0  0  0  0  0  0  0  0
   62.0080   32.4953   50.9323 H   0  0  0  0  0  0  0  0  0  0  0  0
   62.9313   31.7183   49.5720 H   0  0  0  0  0  0  0  0  0  0  0  0
   60.6423   33.7055   49.1913 H   0  0  0  0  0  0  0  0  0  0  0  0
   62.4365   34.1095   49.1823 H   0  0  0  0  0  0  0  0  0  0  0  0
   61.1390   32.2400   47.3470 H   0  0  0  0  0  0  0  0  0  0  0  0
   63.7325   32.5277   47.9914 H   0  0  0  0  0  0  0  0  0  0  0  0
   63.0739   31.7781   46.4977 H   0  0  0  0  0  0  0  0  0  0  0  0
   63.5535   33.5092   46.4977 H   0  0  0  0  0  0  0  0  0  0  0  0
   61.3421   35.1342   47.2486 H   0  0  0  0  0  0  0  0  0  0  0  0
   61.7575   34.2106   45.7417 H   0  0  0  0  0  0  0  0  0  0  0  0
   59.9595   34.5391   44.2864 H   0  0  0  0  0  0  0  0  0  0  0  0
   57.5320   34.2682   43.7775 H   0  0  0  0  0  0  0  0  0  0  0  0
   55.9414   33.5926   45.5799 H   0  0  0  0  0  0  0  0  0  0  0  0
   56.7785   33.1935   47.8991 H   0  0  0  0  0  0  0  0  0  0  0  0
   59.2035   33.4660   48.4182 H   0  0  0  0  0  0  0  0  0  0  0  0
   59.4279   28.1257   47.8781 H   0  0  0  0  0  0  0  0  0  0  0  0
   57.2614   27.5420   46.7969 H   0  0  0  0  0  0  0  0  0  0  0  0
  1  2  1  0
  2  3  1  0
  3  4  1  0
  4  5  2  0
  5  6  1  0
  6  7  2  0
  7  8  1  0
  8  9  1  0
  9 10  1  0
 10 11  1  0
 11 12  1  0
 12 13  1  0
 13 14  1  0
 13 15  1  0
 15 16  1  0
 16 17  2  0
 17 18  1  0
 18 19  2  0
 19 20  1  0
 20 21  2  0
  7 22  1  0
 22 23  2  0
 23  4  1  0
 21 16  1  0
  1 24  1  0
  1 25  1  0
  1 26  1  0
  2 27  1  0
  2 28  1  0
  5 29  1  0
  6 30  1  0
  9 31  1  0
  9 32  1  0
 10 33  1  0
 10 34  1  0
 11 35  1  0
 11 36  1  0
 12 37  1  0
 12 38  1  0
 13 39  1  1
 14 40  1  0
 14 41  1  0
 14 42  1  0
 15 43  1  0
 15 44  1  0
 17 45  1  0
 18 46  1  0
 19 47  1  0
 20 48  1  0
 21 49  1  0
 22 50  1  0
 23 51  1  0
M  CHG  1  13   1
M  END
>  <UniqueID>  (14) 
12

>  <SMILES>  (14) 
CCOc1ccc(OCCCC[N@H+](C)Cc2ccccc2)cc1

>  <Energy>  (14) 
49.76686424969877

>  <Genealogy>  (14) 
CCOc1ccc(OCCCC[NH+](C)Cc2ccccc2)cc1 (protonated)
CCOc1ccc(OCCCC[N@H+](C)Cc2ccccc2)cc1 (chirality)
CCOc1ccc(OCCCC[N@H+](C)Cc2ccccc2)cc1 (3D coordinates assigned)
CCOc1ccc(OCCCC[N@H+](C)Cc2ccccc2)cc1 (optimized conformer: 49.76686424969877 kcal/mol)

>  <smiles>  (14) 
CCOc1ccc(OCCCCN(C)Cc2ccccc2)cc1

>  <score_type>  (14) 
oracle

>  <origin>  (14) 
adg

>  <m_score__min__energy>  (14) 
-5.1500000000000004

>  <m_primary>  (14) 
energy

$$$$
14:0
     RDKit          3D

 46 47  0  0  0  0  0  0  0  0999 V2000
   57.9630   25.1740   47.8180 O   0  0  0  0  0  0  0  0  0  0  0  0
   57.2510   26.0080   47.1980 C   0  0  0  0  0  0  0  0  0  0  0  0
   56.0400   25.5980   46.5500 N   0  0  0  0  0  0  0  0  0  0  0  0
   55.9010   24.7540   45.3960 C   0  0  0  0  0  0  0  0  0  0  0  0
   56.9460   24.5540   44.4730 C   0  0  0  0  0  0  0  0  0  0  0  0
   56.7440   23.7510   43.3450 C   0  0  0  0  0  0  0  0  0  0  0  0
   55.5020   23.1530   43.1230 C   0  0  0  0  0  0  0  0  0  0  0  0
   54.4550   23.3630   44.0240 C   0  0  0  0  0  0  0  0  0  0  0  0
   54.6530   24.1640   45.1520 C   0  0  0  0  0  0  0  0  0  0  0  0
   57.6170   27.3930   47.1720 N   0  0  0  0  0  0  0  0  0  0  0  0
   58.8830   27.8990   47.7010 C   0  0  0  0  0  0  0  0  0  0  0  0
   59.4250   29.0230   46.8140 C   0  0  0  0  0  0  0  0  0  0  0  0
   58.3420   29.6630   46.0540 N   0  0  0  0  0  0  0  0  0  0  0  0
   58.0530   28.9370   44.8080 C   0  0  0  0  0  0  0  0  0  0  0  0
   56.6620   29.3170   44.2630 C   0  0  1  0  0  0  0  0  0  0  0  0
   55.6820   29.0950   45.2460 O   0  0  0  0  0  0  0  0  0  0  0  0
   56.6010   30.7800   43.7810 C   0  0  0  0  0  0  0  0  0  0  0  0
   56.4470   31.6850   44.8750 O   0  0  0  0  0  0  0  0  0  0  0  0
   57.3750   32.6630   45.2680 C   0  0  0  0  0  0  0  0  0  0  0  0
   58.1940   33.2290   44.2830 C   0  0  0  0  0  0  0  0  0  0  0  0
   59.1370   34.2040   44.6180 C   0  0  0  0  0  0  0  0  0  0  0  0
   59.2720   34.6210   45.9440 C   0  0  0  0  0  0  0  0  0  0  0  0
   58.4620   34.0620   46.9360 C   0  0  0  0  0  0  0  0  0  0  0  0
   57.5190   33.0850   46.6050 C   0  0  0  0  0  0  0  0  0  0  0  0
   57.9235   25.0303   44.6394 H   0  0  0  0  0  0  0  0  0  0  0  0
   57.5656   23.5905   42.6315 H   0  0  0  0  0  0  0  0  0  0  0  0
   55.3479   22.5167   42.2390 H   0  0  0  0  0  0  0  0  0  0  0  0
   53.4744   22.8977   43.8454 H   0  0  0  0  0  0  0  0  0  0  0  0
   53.8230   24.3328   45.8539 H   0  0  0  0  0  0  0  0  0  0  0  0
   56.9780   28.0650   46.6930 H   0  0  0  0  0  0  0  0  0  0  0  0
   58.7212   28.2865   48.7177 H   0  0  0  0  0  0  0  0  0  0  0  0
   59.6140   27.0773   47.7197 H   0  0  0  0  0  0  0  0  0  0  0  0
   59.9141   29.7773   47.4479 H   0  0  0  0  0  0  0  0  0  0  0  0
   60.1449   28.5919   46.1027 H   0  0  0  0  0  0  0  0  0  0  0  0
   58.6630   30.6250   45.7910 H   0  0  0  0  0  0  0  0  0  0  0  0
   58.8161   29.1908   44.0575 H   0  0  0  0  0  0  0  0  0  0  0  0
   58.0665   27.8573   45.0178 H   0  0  0  0  0  0  0  0  0  0  0  0
   56.4669   28.6754   43.3910 H   0  0  0  0  0  0  0  0  0  0  0  0
   55.8640   29.7190   45.9970 H   0  0  0  0  0  0  0  0  0  0  0  0
   57.5324   31.0197   43.2471 H   0  0  0  0  0  0  0  0  0  0  0  0
   55.7305   30.8890   43.1175 H   0  0  0  0  0  0  0  0  0  0  0  0
   58.0940   32.9033   43.2371 H   0  0  0  0  0  0  0  0  0  0  0  0
   59.7739   34.6437   43.8363 H   0  0  0  0  0  0  0  0  0  0  0  0
   60.0149   35.3884   46.2071 H   0  0  0  0  0  0  0  0  0  0  0  0
   58.5668   34.3918   47.9802 H   0  0  0  0  0  0  0  0  0  0  0  0
   56.8874   32.6441   47.3903 H   0  0  0  0  0  0  0  0  0  0  0  0
  1  2  2  0
  2  3  1  0
  3  4  1  0
  4  5  2  0
  5  6  1  0
  6  7  2  0
  7  8  1  0
  8  9  2  0
  2 10  1  0
 10 11  1  0
 11 12  1  0
 12 13  1  0
 13 14  1  0
 14 15  1  0
 15 16  1  0
 15 17  1  0
 17 18  1  0
 18 19  1  0
 19 20  2  0
 20 21  1  0
 21 22  2  0
 22 23  1  0
 23 24  2  0
  9  4  1  0
 24 19  1  0
  5 25  1  0
  6 26  1  0
  7 27  1  0
  8 28  1  0
  9 29  1  0
 10 30  1  0
 11 31  1  0
 11 32  1  0
 12 33  1  0
 12 34  1  0
 13 35  1  0
 14 36  1  0
 14 37  1  0
 15 38  1  6
 16 39  1  0
 17 40  1  0
 17 41  1  0
 20 42  1  0
 21 43  1  0
 22 44  1  0
 23 45  1  0
 24 46  1  0
M  CHG  1   3  -1
M  END
>  <UniqueID>  (15) 
13

>  <SMILES>  (15) 
O=C([N-]c1ccccc1)NCCNC[C@@H](O)COc1ccccc1

>  <Energy>  (15) 
39.80740167116091

>  <Genealogy>  (15) 
O=C([N-]c1ccccc1)NCCNCC(O)COc1ccccc1 (protonated)
O=C([N-]c1ccccc1)NCCNC[C@@H](O)COc1ccccc1 (chirality)
O=C([N-]c1ccccc1)NCCNC[C@@H](O)COc1ccccc1 (3D coordinates assigned)
O=C([N-]c1ccccc1)NCCNC[C@@H](O)COc1ccccc1 (optimized conformer: 39.80740167116091 kcal/mol)

>  <smiles>  (15) 
O=C(NCCNCC(O)COc1ccccc1)Nc1ccccc1

>  <score_type>  (15) 
oracle

>  <origin>  (15) 
adg

>  <m_score__min__energy>  (15) 
-10.699999999999999

>  <m_primary>  (15) 
energy

$$$$
15:0
     RDKit          3D

 45 47  0  0  0  0  0  0  0  0999 V2000
   59.6814   35.6493   45.2573 H   0  0  0  0  0  0  0  0  0  0  0  0
   59.4840   34.8170   45.9490 C   0  0  0  0  0  0  0  0  0  0  0  0
   58.2660   34.2580   45.9300 C   0  0  0  0  0  0  0  0  0  0  0  0
   57.4159   34.8294   46.3311 H   0  0  0  0  0  0  0  0  0  0  0  0
   58.0200   32.9010   45.3900 C   0  0  0  0  0  0  0  0  0  0  0  0
   57.7000   32.7790   44.0310 C   0  0  0  0  0  0  0  0  0  0  0  0
   57.6444   33.6812   43.4042 H   0  0  0  0  0  0  0  0  0  0  0  0
   57.4490   31.5200   43.4570 C   0  0  0  0  0  0  0  0  0  0  0  0
   57.1110   31.3730   42.1020 O   0  0  0  0  0  0  0  0  0  0  0  0
   57.4350   32.3110   41.0820 C   0  0  0  0  0  0  0  0  0  0  0  0
   57.7612   33.2553   41.5424 H   0  0  0  0  0  0  0  0  0  0  0  0
   58.2461   31.9081   40.4576 H   0  0  0  0  0  0  0  0  0  0  0  0
   56.5482   32.4946   40.4576 H   0  0  0  0  0  0  0  0  0  0  0  0
   57.5340   30.3690   44.2500 C   0  0  0  0  0  0  0  0  0  0  0  0
   57.2690   29.1280   43.6490 O   0  0  0  0  0  0  0  0  0  0  0  0
   58.1080   27.9810   43.7560 C   0  0  0  0  0  0  0  0  0  0  0  0
   58.2779   27.7487   44.8177 H   0  0  0  0  0  0  0  0  0  0  0  0
   57.6219   27.1242   43.2664 H   0  0  0  0  0  0  0  0  0  0  0  0
   59.0718   28.1847   43.2664 H   0  0  0  0  0  0  0  0  0  0  0  0
   57.8820   30.4830   45.6080 C   0  0  0  0  0  0  0  0  0  0  0  0
   57.9512   29.5772   46.2283 H   0  0  0  0  0  0  0  0  0  0  0  0
   58.1430   31.7410   46.1840 C   0  0  0  0  0  0  0  0  0  0  0  0
   58.5520   31.8650   47.5240 O   0  0  0  0  0  0  0  0  0  0  0  0
   59.5010   31.0210   48.1670 C   0  0  0  0  0  0  0  0  0  0  0  0
   59.3954   31.1149   49.2579 H   0  0  0  0  0  0  0  0  0  0  0  0
   59.3236   29.9768   47.8700 H   0  0  0  0  0  0  0  0  0  0  0  0
   60.5173   31.3191   47.8700 H   0  0  0  0  0  0  0  0  0  0  0  0
   60.5830   34.3810   46.8470 C   0  0  0  0  0  0  0  0  0  0  0  0
   60.4240   34.5480   48.2300 C   0  0  0  0  0  0  0  0  0  0  0  0
   59.4956   34.9897   48.6211 H   0  0  0  0  0  0  0  0  0  0  0  0
   61.4310   34.1600   49.1170 C   0  0  0  0  0  0  0  0  0  0  0  0
   61.2844   34.2932   50.1990 H   0  0  0  0  0  0  0  0  0  0  0  0
   62.6300   33.6010   48.6410 C   0  0  0  0  0  0  0  0  0  0  0  0
   63.7090   33.1850   49.5750 C   0  0  0  0  0  0  0  0  0  0  0  0
   64.0870   33.9410   51.0360 S   0  0  0  0  0  0  0  0  0  0  0  0
   65.3540   32.9280   51.4690 C   0  0  0  0  0  0  0  0  0  0  0  0
   65.9596   33.0049   52.3841 H   0  0  0  0  0  0  0  0  0  0  0  0
   65.5030   31.9770   50.4700 C   0  0  0  0  0  0  0  0  0  0  0  0
   66.2669   31.1862   50.5030 H   0  0  0  0  0  0  0  0  0  0  0  0
   64.5920   32.1160   49.4160 C   0  0  0  0  0  0  0  0  0  0  0  0
   64.5739   31.4454   48.5442 H   0  0  0  0  0  0  0  0  0  0  0  0
   62.7980   33.4530   47.2520 C   0  0  0  0  0  0  0  0  0  0  0  0
   63.7336   33.0278   46.8598 H   0  0  0  0  0  0  0  0  0  0  0  0
   61.7900   33.8400   46.3650 C   0  0  0  0  0  0  0  0  0  0  0  0
   61.9408   33.7210   45.2819 H   0  0  0  0  0  0  0  0  0  0  0  0
  1  2  1  0
  2  3  2  0
  3  4  1  0
  3  5  1  0
  5  6  2  0
  6  7  1  0
  6  8  1  0
  8  9  1  0
  9 10  1  0
 10 11  1  0
 10 12  1  0
 10 13  1  0
  8 14  2  0
 14 15  1  0
 15 16  1  0
 16 17  1  0
 16 18  1  0
 16 19  1  0
 14 20  1  0
 20 21  1  0
 20 22  2  0
 22 23  1  0
 23 24  1  0
 24 25  1  0
 24 26  1  0
 24 27  1  0
  2 28  1  0
 28 29  2  0
 29 30  1  0
 29 31  1  0
 31 32  1  0
 31 33  2  0
 33 34  1  0
 34 35  1  0
 35 36  1  0
 36 37  1  0
 36 38  2  0
 38 39  1  0
 38 40  1  0
 40 41  1  0
 33 42  1  0
 42 43  1  0
 42 44  2  0
 44 45  1  0
 22  5  1  0
 44 28  1  0
 40 34  2  0
M  END
>  <UniqueID>  (16) 
14

>  <SMILES>  (16) 
COc1cc(OC)c(OC)cc1/C=C/c1ccc(-c2cccs2)cc1

>  <Energy>  (16) 
81.2872400203944

>  <Genealogy>  (16) 
COc1cc(OC)c(OC)cc1/C=C/c1ccc(-c2cccs2)cc1 (cis-trans isomerization)
COc1cc(OC)c(OC)cc1/C=C/c1ccc(-c2cccs2)cc1 (3D coordinates assigned)
COc1cc(OC)c(OC)cc1/C=C/c1ccc(-c2cccs2)cc1 (optimized conformer: 81.2872400203944 kcal/mol)

>  <smiles>  (16) 
COc1cc(OC)c(OC)cc1C=Cc1ccc(-c2cccs2)cc1

>  <score_type>  (16) 
oracle

>  <origin>  (16) 
adg

>  <m_score__min__energy>  (16) 
-7.9900000000000002

>  <m_primary>  (16) 
energy

$$$$
16:0
     RDKit          3D

 42 43  0  0  0  0  0  0  0  0999 V2000
   57.0130   27.2350   45.5830 C   0  0  0  0  0  0  0  0  0  0  0  0
   57.3680   28.7120   45.7250 C   0  0  0  0  0  0  0  0  0  0  0  0
   56.4850   29.5640   44.8550 C   0  0  0  0  0  0  0  0  0  0  0  0
   55.2440   29.3400   44.8660 O   0  0  0  0  0  0  0  0  0  0  0  0
   57.0310   30.6580   44.0040 C   0  0  0  0  0  0  0  0  0  0  0  0
   56.8730   30.6140   42.6050 C   0  0  0  0  0  0  0  0  0  0  0  0
   57.3750   31.6360   41.7990 C   0  0  0  0  0  0  0  0  0  0  0  0
   58.0420   32.7150   42.3720 C   0  0  0  0  0  0  0  0  0  0  0  0
   58.2080   32.7800   43.7550 C   0  0  0  0  0  0  0  0  0  0  0  0
   57.7030   31.7590   44.5870 C   0  0  0  0  0  0  0  0  0  0  0  0
   57.8390   31.8130   45.9850 O   0  0  0  0  0  0  0  0  0  0  0  0
   57.7100   32.9820   46.7940 C   0  0  0  0  0  0  0  0  0  0  0  0
   58.7090   32.9770   47.9640 C   0  0  0  0  0  0  0  0  0  0  0  0
   59.8860   33.8350   47.6900 N   0  0  0  0  0  0  0  0  0  0  0  0
   60.8010   33.8900   48.8630 C   0  0  0  0  0  0  0  0  0  0  0  0
   61.9580   32.8870   48.7510 C   0  0  0  0  0  0  0  0  0  0  0  0
   62.8240   33.1760   47.5120 C   0  0  0  0  0  0  0  0  0  0  0  0
   62.0360   33.8740   46.3910 C   0  0  0  0  0  0  0  0  0  0  0  0
   60.5610   33.4570   46.4190 C   0  0  0  0  0  0  0  0  0  0  0  0
   56.9051   26.7862   46.5815 H   0  0  0  0  0  0  0  0  0  0  0  0
   56.0657   27.1369   45.0326 H   0  0  0  0  0  0  0  0  0  0  0  0
   57.8122   26.7171   45.0326 H   0  0  0  0  0  0  0  0  0  0  0  0
   57.2381   29.0140   46.7747 H   0  0  0  0  0  0  0  0  0  0  0  0
   58.4124   28.8536   45.4100 H   0  0  0  0  0  0  0  0  0  0  0  0
   56.3482   29.7647   42.1431 H   0  0  0  0  0  0  0  0  0  0  0  0
   57.2434   31.5890   40.7079 H   0  0  0  0  0  0  0  0  0  0  0  0
   58.4387   33.5176   41.7329 H   0  0  0  0  0  0  0  0  0  0  0  0
   58.7374   33.6349   44.2010 H   0  0  0  0  0  0  0  0  0  0  0  0
   57.8954   33.8692   46.1707 H   0  0  0  0  0  0  0  0  0  0  0  0
   56.6926   32.9995   47.2117 H   0  0  0  0  0  0  0  0  0  0  0  0
   58.2012   33.3477   48.8666 H   0  0  0  0  0  0  0  0  0  0  0  0
   59.0645   31.9455   48.1040 H   0  0  0  0  0  0  0  0  0  0  0  0
   61.2192   34.9047   48.9374 H   0  0  0  0  0  0  0  0  0  0  0  0
   60.2159   33.6283   49.7570 H   0  0  0  0  0  0  0  0  0  0  0  0
   62.5847   32.9594   49.6521 H   0  0  0  0  0  0  0  0  0  0  0  0
   61.5357   31.8760   48.6539 H   0  0  0  0  0  0  0  0  0  0  0  0
   63.6613   33.8239   47.8105 H   0  0  0  0  0  0  0  0  0  0  0  0
   63.1782   32.2112   47.1200 H   0  0  0  0  0  0  0  0  0  0  0  0
   62.1051   34.9634   46.5265 H   0  0  0  0  0  0  0  0  0  0  0  0
   62.4665   33.5797   45.4225 H   0  0  0  0  0  0  0  0  0  0  0  0
   60.0399   33.9473   45.5835 H   0  0  0  0  0  0  0  0  0  0  0  0
   60.5218   32.3611   46.3329 H   0  0  0  0  0  0  0  0  0  0  0  0
  1  2  1  0
  2  3  1  0
  3  4  2  0
  3  5  1  0
  5  6  2  0
  6  7  1  0
  7  8  2  0
  8  9  1  0
  9 10  2  0
 10 11  1  0
 11 12  1  0
 12 13  1  0
 13 14  1  0
 14 15  1  0
 15 16  1  0
 16 17  1  0
 17 18  1  0
 18 19  1  0
 10  5  1  0
 19 14  1  0
  1 20  1  0
  1 21  1  0
  1 22  1  0
  2 23  1  0
  2 24  1  0
  6 25  1  0
  7 26  1  0
  8 27  1  0
  9 28  1  0
 12 29  1  0
 12 30  1  0
 13 31  1  0
 13 32  1  0
 15 33  1  0
 15 34  1  0
 16 35  1  0
 16 36  1  0
 17 37  1  0
 17 38  1  0
 18 39  1  0
 18 40  1  0
 19 41  1  0
 19 42  1  0
M  END
>  <UniqueID>  (17) 
15

>  <SMILES>  (17) 
CCC(=O)c1ccccc1OCCN1CCCCC1

>  <Energy>  (17) 
47.651626724442345

>  <Genealogy>  (17) 
CCC(=O)c1ccccc1OCCN1CCCCC1 (3D coordinates assigned)
CCC(=O)c1ccccc1OCCN1CCCCC1 (nonaromatic ring conformer: 47.651626724442345 kcal/mol)

>  <smiles>  (17) 
CCC(=O)c1ccccc1OCCN1CCCCC1

>  <score_type>  (17) 
oracle

>  <origin>  (17) 
adg

>  <m_score__min__energy>  (17) 
-7.2999999999999998

>  <m_primary>  (17) 
energy

$$$$
17:0
     RDKit          3D

 49 52  0  0  0  0  0  0  0  0999 V2000
   56.8360   24.4130   43.3330 C   0  0  0  0  0  0  0  0  0  0  0  0
   56.0880   23.1200   43.0050 C   0  0  0  0  0  0  0  0  0  0  0  0
   57.0100   21.8900   42.9380 C   0  0  0  0  0  0  0  0  0  0  0  0
   56.5150   20.6600   43.7240 C   0  0  0  0  0  0  0  0  0  0  0  0
   57.4260   20.3010   44.8260 N   0  0  0  0  0  0  0  0  0  0  0  0
   56.9820   20.8630   46.1130 C   0  0  0  0  0  0  0  0  0  0  0  0
   57.3280   22.3270   46.2440 C   0  0  0  0  0  0  0  0  0  0  0  0
   58.4990   22.8360   45.6650 C   0  0  0  0  0  0  0  0  0  0  0  0
   58.8310   24.1860   45.8090 C   0  0  0  0  0  0  0  0  0  0  0  0
   57.9990   25.0570   46.5380 C   0  0  0  0  0  0  0  0  0  0  0  0
   58.3650   26.4900   46.6870 C   0  0  0  0  0  0  0  0  0  0  0  0
   59.3030   27.0310   47.5710 C   0  0  0  0  0  0  0  0  0  0  0  0
   59.4370   28.4220   47.4720 C   0  0  0  0  0  0  0  0  0  0  0  0
   58.6100   28.9880   46.5110 C   0  0  0  0  0  0  0  0  0  0  0  0
   58.5330   30.4120   46.1660 C   0  0  0  0  0  0  0  0  0  0  0  0
   57.4510   30.9660   45.5560 N   0  0  0  0  0  0  0  0  0  0  0  0
   57.8070   32.2530   45.4460 C   0  0  0  0  0  0  0  0  0  0  0  0
   57.0690   33.2990   44.8950 C   0  0  0  0  0  0  0  0  0  0  0  0
   57.6520   34.5800   44.8940 C   0  0  0  0  0  0  0  0  0  0  0  0
   58.9440   34.7770   45.4360 C   0  0  0  0  0  0  0  0  0  0  0  0
   59.6600   33.6960   45.9850 C   0  0  0  0  0  0  0  0  0  0  0  0
   59.0500   32.4440   45.9710 C   0  0  0  0  0  0  0  0  0  0  0  0
   59.5380   31.2880   46.4380 N   0  0  0  0  0  0  0  0  0  0  0  0
   57.7170   27.7630   45.7870 S   0  0  0  0  0  0  0  0  0  0  0  0
   56.8220   24.5400   47.1130 C   0  0  0  0  0  0  0  0  0  0  0  0
   56.4940   23.1880   46.9700 C   0  0  0  0  0  0  0  0  0  0  0  0
   56.9040   24.5305   44.4246 H   0  0  0  0  0  0  0  0  0  0  0  0
   57.8485   24.3695   42.9052 H   0  0  0  0  0  0  0  0  0  0  0  0
   56.2936   25.2690   42.9052 H   0  0  0  0  0  0  0  0  0  0  0  0
   55.3297   22.9472   43.7829 H   0  0  0  0  0  0  0  0  0  0  0  0
   55.6360   23.2458   42.0101 H   0  0  0  0  0  0  0  0  0  0  0  0
   57.1157   21.6001   41.8822 H   0  0  0  0  0  0  0  0  0  0  0  0
   57.9588   22.1917   43.4057 H   0  0  0  0  0  0  0  0  0  0  0  0
   55.5226   20.8829   44.1429 H   0  0  0  0  0  0  0  0  0  0  0  0
   56.4735   19.8087   43.0287 H   0  0  0  0  0  0  0  0  0  0  0  0
   57.4440   19.2600   44.9330 H   0  0  0  0  0  0  0  0  0  0  0  0
   58.3970   20.6310   44.6110 H   0  0  0  0  0  0  0  0  0  0  0  0
   55.8909   20.7481   46.1925 H   0  0  0  0  0  0  0  0  0  0  0  0
   57.5006   20.3195   46.9165 H   0  0  0  0  0  0  0  0  0  0  0  0
   59.1608   22.1685   45.0936 H   0  0  0  0  0  0  0  0  0  0  0  0
   59.7521   24.5721   45.3479 H   0  0  0  0  0  0  0  0  0  0  0  0
   59.8826   26.4207   48.2792 H   0  0  0  0  0  0  0  0  0  0  0  0
   60.1292   29.0081   48.0943 H   0  0  0  0  0  0  0  0  0  0  0  0
   56.0663   33.1294   44.4757 H   0  0  0  0  0  0  0  0  0  0  0  0
   57.1006   35.4321   44.4698 H   0  0  0  0  0  0  0  0  0  0  0  0
   59.3922   35.7815   45.4284 H   0  0  0  0  0  0  0  0  0  0  0  0
   60.6651   33.8353   46.4097 H   0  0  0  0  0  0  0  0  0  0  0  0
   56.1545   25.2057   47.6798 H   0  0  0  0  0  0  0  0  0  0  0  0
   55.5746   22.7976   47.4308 H   0  0  0  0  0  0  0  0  0  0  0  0
  1  2  1  0
  2  3  1  0
  3  4  1  0
  4  5  1  0
  5  6  1  0
  6  7  1  0
  7  8  2  0
  8  9  1  0
  9 10  2  0
 10 11  1  0
 11 12  2  0
 12 13  1  0
 13 14  2  0
 14 15  1  0
 15 16  2  0
 16 17  1  0
 17 18  2  0
 18 19  1  0
 19 20  2  0
 20 21  1  0
 21 22  2  0
 22 23  1  0
 14 24  1  0
 10 25  1  0
 25 26  2  0
 26  7  1  0
 24 11  1  0
 23 15  1  0
 22 17  1  0
  1 27  1  0
  1 28  1  0
  1 29  1  0
  2 30  1  0
  2 31  1  0
  3 32  1  0
  3 33  1  0
  4 34  1  0
  4 35  1  0
  5 36  1  0
  5 37  1  0
  6 38  1  0
  6 39  1  0
  8 40  1  0
  9 41  1  0
 12 42  1  0
 13 43  1  0
 18 44  1  0
 19 45  1  0
 20 46  1  0
 21 47  1  0
 25 48  1  0
 26 49  1  0
M  CHG  2   5   1  23  -1
M  END
>  <UniqueID>  (18) 
16

>  <SMILES>  (18) 
CCCC[NH2+]Cc1ccc(-c2ccc(-c3nc4ccccc4[n-]3)s2)cc1

>  <Energy>  (18) 
110.45884425256685

>  <Genealogy>  (18) 
CCCC[NH2+]Cc1ccc(-c2ccc(-c3nc4ccccc4[n-]3)s2)cc1 (protonated)
CCCC[NH2+]Cc1ccc(-c2ccc(-c3nc4ccccc4[n-]3)s2)cc1 (3D coordinates assigned)
CCCC[NH2+]Cc1ccc(-c2ccc(-c3nc4ccccc4[n-]3)s2)cc1 (optimized conformer: 110.45884425256685 kcal/mol)

>  <smiles>  (18) 
CCCCNCc1ccc(-c2ccc(-c3nc4ccccc4[nH]3)s2)cc1

>  <score_type>  (18) 
oracle

>  <origin>  (18) 
adg

>  <m_score__min__energy>  (18) 
-8.0099999999999998

>  <m_primary>  (18) 
energy

$$$$
18:0
     RDKit          3D

 52 55  0  0  0  0  0  0  0  0999 V2000
   60.7750   27.1180   50.1270 C   0  0  0  0  0  0  0  0  0  0  0  0
   60.1940   27.1210   48.8290 O   0  0  0  0  0  0  0  0  0  0  0  0
   59.7970   28.2780   48.1430 C   0  0  0  0  0  0  0  0  0  0  0  0
   59.9760   29.5790   48.6830 C   0  0  0  0  0  0  0  0  0  0  0  0
   59.5700   30.7170   47.9630 C   0  0  0  0  0  0  0  0  0  0  0  0
   58.9580   30.5330   46.7210 C   0  0  0  0  0  0  0  0  0  0  0  0
   58.4480   31.4320   45.7860 C   0  0  0  0  0  0  0  0  0  0  0  0
   58.0350   30.6500   44.7060 C   0  0  0  0  0  0  0  0  0  0  0  0
   58.2020   29.3310   44.9690 N   0  0  0  0  0  0  0  0  0  0  0  0
   57.9080   28.1930   44.0940 C   0  0  0  0  0  0  0  0  0  0  0  0
   58.7820   29.2720   46.1920 C   0  0  0  0  0  0  0  0  0  0  0  0
   59.2010   28.1270   46.8760 C   0  0  0  0  0  0  0  0  0  0  0  0
   57.4770   31.2220   43.4310 C   0  0  0  0  0  0  0  0  0  0  0  0
   57.8000   32.7200   43.3040 C   0  0  0  0  0  0  0  0  0  0  0  0
   57.5550   33.4640   44.6320 C   0  0  0  0  0  0  0  0  0  0  0  0
   58.4980   32.9490   45.7490 C   0  0  1  0  0  0  0  0  0  0  0  0
   58.1280   33.6160   47.1110 C   0  0  0  0  0  0  0  0  0  0  0  0
   59.1270   34.6210   47.5280 N   0  0  0  0  0  0  0  0  0  0  0  0
   60.2540   34.6880   46.5850 C   0  0  0  0  0  0  0  0  0  0  0  0
   61.4580   33.9710   47.1500 C   0  0  0  0  0  0  0  0  0  0  0  0
   61.4070   33.4080   48.4370 C   0  0  0  0  0  0  0  0  0  0  0  0
   62.5070   32.7070   48.9420 C   0  0  0  0  0  0  0  0  0  0  0  0
   63.6610   32.5570   48.1660 C   0  0  0  0  0  0  0  0  0  0  0  0
   63.7150   33.1130   46.8820 C   0  0  0  0  0  0  0  0  0  0  0  0
   62.6160   33.8080   46.3700 C   0  0  0  0  0  0  0  0  0  0  0  0
   59.9782   27.1221   50.8854 H   0  0  0  0  0  0  0  0  0  0  0  0
   61.3935   26.2166   50.2498 H   0  0  0  0  0  0  0  0  0  0  0  0
   61.4027   28.0129   50.2498 H   0  0  0  0  0  0  0  0  0  0  0  0
   60.4369   29.6981   49.6746 H   0  0  0  0  0  0  0  0  0  0  0  0
   59.7305   31.7270   48.3681 H   0  0  0  0  0  0  0  0  0  0  0  0
   57.6795   27.3086   44.7069 H   0  0  0  0  0  0  0  0  0  0  0  0
   57.0423   28.4327   43.4591 H   0  0  0  0  0  0  0  0  0  0  0  0
   58.7815   27.9834   43.4591 H   0  0  0  0  0  0  0  0  0  0  0  0
   59.0679   27.1287   46.4337 H   0  0  0  0  0  0  0  0  0  0  0  0
   57.9155   30.6869   42.5758 H   0  0  0  0  0  0  0  0  0  0  0  0
   56.3837   31.1019   43.4452 H   0  0  0  0  0  0  0  0  0  0  0  0
   58.8562   32.8353   43.0190 H   0  0  0  0  0  0  0  0  0  0  0  0
   57.1391   33.1525   42.5384 H   0  0  0  0  0  0  0  0  0  0  0  0
   57.7343   34.5385   44.4790 H   0  0  0  0  0  0  0  0  0  0  0  0
   56.5159   33.2831   44.9444 H   0  0  0  0  0  0  0  0  0  0  0  0
   59.5399   33.2332   45.5400 H   0  0  0  0  0  0  0  0  0  0  0  0
   57.1499   34.1090   47.0102 H   0  0  0  0  0  0  0  0  0  0  0  0
   58.1009   32.8276   47.8776 H   0  0  0  0  0  0  0  0  0  0  0  0
   59.4820   34.4070   48.4900 H   0  0  0  0  0  0  0  0  0  0  0  0
   58.6650   35.5590   47.5570 H   0  0  0  0  0  0  0  0  0  0  0  0
   59.9617   34.2133   45.6367 H   0  0  0  0  0  0  0  0  0  0  0  0
   60.5146   35.7431   46.4154 H   0  0  0  0  0  0  0  0  0  0  0  0
   60.4995   33.5190   49.0487 H   0  0  0  0  0  0  0  0  0  0  0  0
   62.4644   32.2727   49.9517 H   0  0  0  0  0  0  0  0  0  0  0  0
   64.5244   32.0034   48.5636 H   0  0  0  0  0  0  0  0  0  0  0  0
   64.6253   33.0024   46.2744 H   0  0  0  0  0  0  0  0  0  0  0  0
   62.6572   34.2284   45.3544 H   0  0  0  0  0  0  0  0  0  0  0  0
  1  2  1  0
  2  3  1  0
  3  4  2  0
  4  5  1  0
  5  6  2  0
  6  7  1  0
  7  8  2  0
  8  9  1  0
  9 10  1  0
  9 11  1  0
 11 12  2  0
  8 13  1  0
 13 14  1  0
 14 15  1  0
 15 16  1  0
 16 17  1  0
 17 18  1  0
 18 19  1  0
 19 20  1  0
 20 21  2  0
 21 22  1  0
 22 23  2  0
 23 24  1  0
 24 25  2  0
 12  3  1  0
 25 20  1  0
 11  6  1  0
 16  7  1  0
  1 26  1  0
  1 27  1  0
  1 28  1  0
  4 29  1  0
  5 30  1  0
 10 31  1  0
 10 32  1  0
 10 33  1  0
 12 34  1  0
 13 35  1  0
 13 36  1  0
 14 37  1  0
 14 38  1  0
 15 39  1  0
 15 40  1  0
 16 41  1  6
 17 42  1  0
 17 43  1  0
 18 44  1  0
 18 45  1  0
 19 46  1  0
 19 47  1  0
 21 48  1  0
 22 49  1  0
 23 50  1  0
 24 51  1  0
 25 52  1  0
M  CHG  1  18   1
M  END
>  <UniqueID>  (19) 
17

>  <SMILES>  (19) 
COc1ccc2c3c(n(C)c2c1)CCC[C@H]3C[NH2+]Cc1ccccc1

>  <Energy>  (19) 
92.94171776541612

>  <Genealogy>  (19) 
COc1ccc2c3c(n(C)c2c1)CCCC3C[NH2+]Cc1ccccc1 (protonated)
COc1ccc2c3c(n(C)c2c1)CCC[C@H]3C[NH2+]Cc1ccccc1 (chirality)
COc1ccc2c3c(n(C)c2c1)CCC[C@H]3C[NH2+]Cc1ccccc1 (3D coordinates assigned)
COc1ccc2c3c(n(C)c2c1)CCC[C@H]3C[NH2+]Cc1ccccc1 (nonaromatic ring conformer: 92.94171776541612 kcal/mol)

>  <smiles>  (19) 
COc1ccc2c3c(n(C)c2c1)CCCC3CNCc1ccccc1

>  <score_type>  (19) 
oracle

>  <origin>  (19) 
adg

>  <m_score__min__energy>  (19) 
-6.4699999999999998

>  <m_primary>  (19) 
energy

$$$$
19:0
     RDKit          3D

 62 65  0  0  0  0  0  0  0  0999 V2000
   57.7201   34.6047   44.5040 H   0  0  0  0  0  0  0  0  0  0  0  0
   57.7900   33.5740   44.8820 C   0  0  0  0  0  0  0  0  0  0  0  0
   57.2590   32.5560   44.1650 N   0  0  0  0  0  0  0  0  0  0  0  0
   57.3740   31.2590   44.5610 C   0  0  0  0  0  0  0  0  0  0  0  0
   56.8560   30.2510   43.7390 C   0  0  0  0  0  0  0  0  0  0  0  0
   56.2967   30.5198   42.8308 H   0  0  0  0  0  0  0  0  0  0  0  0
   57.0450   28.9070   44.0650 C   0  0  0  0  0  0  0  0  0  0  0  0
   56.6095   28.1215   43.4299 H   0  0  0  0  0  0  0  0  0  0  0  0
   57.7880   28.5570   45.1990 C   0  0  0  0  0  0  0  0  0  0  0  0
   58.0420   27.1430   45.5230 C   0  0  0  0  0  0  0  0  0  0  0  0
   59.3560   26.6980   45.7290 C   0  0  0  0  0  0  0  0  0  0  0  0
   60.1873   27.4182   45.7144 H   0  0  0  0  0  0  0  0  0  0  0  0
   59.6130   25.3410   45.9530 C   0  0  0  0  0  0  0  0  0  0  0  0
   60.6422   25.0024   46.1431 H   0  0  0  0  0  0  0  0  0  0  0  0
   58.5570   24.4050   45.9360 C   0  0  0  0  0  0  0  0  0  0  0  0
   58.7660   23.0250   46.0800 O   0  0  0  0  0  0  0  0  0  0  0  0
   59.5870   22.2330   45.2230 C   0  0  0  0  0  0  0  0  0  0  0  0
   59.9616   21.3626   45.7817 H   0  0  0  0  0  0  0  0  0  0  0  0
   60.4303   22.8443   44.8693 H   0  0  0  0  0  0  0  0  0  0  0  0
   58.7750   21.7460   44.0070 C   0  0  0  0  0  0  0  0  0  0  0  0
   59.0246   20.6898   43.8278 H   0  0  0  0  0  0  0  0  0  0  0  0
   59.0474   22.4008   43.1661 H   0  0  0  0  0  0  0  0  0  0  0  0
   57.3030   21.8540   44.1670 N   0  0  2  0  0  0  0  0  0  0  0  0
   57.1500   22.4650   45.0050 H   0  0  0  0  0  0  0  0  0  0  0  0
   56.6840   20.5450   44.4740 C   0  0  0  0  0  0  0  0  0  0  0  0
   56.6226   20.4152   45.5646 H   0  0  0  0  0  0  0  0  0  0  0  0
   55.6727   20.5075   44.0428 H   0  0  0  0  0  0  0  0  0  0  0  0
   57.2966   19.7396   44.0428 H   0  0  0  0  0  0  0  0  0  0  0  0
   56.6650   22.5130   43.0030 C   0  0  0  0  0  0  0  0  0  0  0  0
   56.3336   21.7380   42.2963 H   0  0  0  0  0  0  0  0  0  0  0  0
   57.4094   23.1826   42.5474 H   0  0  0  0  0  0  0  0  0  0  0  0
   55.4530   23.3650   43.4040 C   0  0  0  0  0  0  0  0  0  0  0  0
   55.3851   23.4127   44.5009 H   0  0  0  0  0  0  0  0  0  0  0  0
   55.5691   24.3812   42.9993 H   0  0  0  0  0  0  0  0  0  0  0  0
   54.5361   22.9117   42.9993 H   0  0  0  0  0  0  0  0  0  0  0  0
   57.2460   24.8590   45.7430 C   0  0  0  0  0  0  0  0  0  0  0  0
   56.4141   24.1394   45.7424 H   0  0  0  0  0  0  0  0  0  0  0  0
   56.9860   26.2200   45.5510 C   0  0  0  0  0  0  0  0  0  0  0  0
   55.9504   26.5675   45.4216 H   0  0  0  0  0  0  0  0  0  0  0  0
   58.3160   29.5590   46.0240 C   0  0  0  0  0  0  0  0  0  0  0  0
   58.9481   29.2788   46.8795 H   0  0  0  0  0  0  0  0  0  0  0  0
   58.0480   30.9290   45.7730 C   0  0  0  0  0  0  0  0  0  0  0  0
   58.4930   32.0030   46.6140 C   0  0  0  0  0  0  0  0  0  0  0  0
   58.9160   31.8550   47.8520 N   0  0  0  0  0  0  0  0  0  0  0  0
   60.2580   31.8000   48.3590 C   0  0  0  0  0  0  0  0  0  0  0  0
   61.3080   32.4050   47.6500 C   0  0  0  0  0  0  0  0  0  0  0  0
   61.1154   32.8554   46.6651 H   0  0  0  0  0  0  0  0  0  0  0  0
   62.6070   32.4380   48.1940 C   0  0  0  0  0  0  0  0  0  0  0  0
   63.6690   33.0650   47.5330 O   0  0  0  0  0  0  0  0  0  0  0  0
   63.5270   33.9060   46.3910 C   0  0  0  0  0  0  0  0  0  0  0  0
   63.3521   34.9417   46.7178 H   0  0  0  0  0  0  0  0  0  0  0  0
   64.4453   33.8622   45.7869 H   0  0  0  0  0  0  0  0  0  0  0  0
   62.6740   33.5631   45.7869 H   0  0  0  0  0  0  0  0  0  0  0  0
   62.8430   31.8420   49.4420 C   0  0  0  0  0  0  0  0  0  0  0  0
   64.4430   31.9080   50.1730 Cl  0  0  0  0  0  0  0  0  0  0  0  0
   61.8150   31.1740   50.1110 C   0  0  0  0  0  0  0  0  0  0  0  0
   62.0188   30.6751   51.0700 H   0  0  0  0  0  0  0  0  0  0  0  0
   60.5270   31.1370   49.5660 C   0  0  0  0  0  0  0  0  0  0  0  0
   59.2550   30.3010   50.4390 Cl  0  0  0  0  0  0  0  0  0  0  0  0
   58.4280   33.3210   46.1030 C   0  0  0  0  0  0  0  0  0  0  0  0
   58.9440   34.4430   46.8530 C   0  0  0  0  0  0  0  0  0  0  0  0
   59.3560   35.3420   47.4550 N   0  0  0  0  0  0  0  0  0  0  0  0
  1  2  1  0
  2  3  1  0
  3  4  1  0
  4  5  2  0
  5  6  1  0
  5  7  1  0
  7  8  1  0
  7  9  2  0
  9 10  1  0
 10 11  2  0
 11 12  1  0
 11 13  1  0
 13 14  1  0
 13 15  2  0
 15 16  1  0
 16 17  1  0
 17 18  1  0
 17 19  1  0
 17 20  1  0
 20 21  1  0
 20 22  1  0
 20 23  1  0
 23 24  1  1
 23 25  1  0
 25 26  1  0
 25 27  1  0
 25 28  1  0
 23 29  1  0
 29 30  1  0
 29 31  1  0
 29 32  1  0
 32 33  1  0
 32 34  1  0
 32 35  1  0
 15 36  1  0
 36 37  1  0
 36 38  2  0
 38 39  1  0
  9 40  1  0
 40 41  1  0
 40 42  2  0
 42 43  1  0
 43 44  2  0
 44 45  1  0
 45 46  2  0
 46 47  1  0
 46 48  1  0
 48 49  1  0
 49 50  1  0
 50 51  1  0
 50 52  1  0
 50 53  1  0
 48 54  2  0
 54 55  1  0
 54 56  1  0
 56 57  1  0
 56 58  2  0
 58 59  1  0
 43 60  1  0
 60 61  1  0
 61 62  3  0
 60  2  2  0
 42  4  1  0
 58 45  1  0
 38 10  1  0
M  CHG  2   3  -1  23   1
M  END
>  <UniqueID>  (20) 
18

>  <SMILES>  (20) 
CC[N@@H+](C)CCOc1ccc(-c2ccc3[n-]cc(C#N)/c(=N/c4cc(OC)c(Cl)cc4Cl)c3c2)cc1

>  <Energy>  (20) 
97.4118724382226

>  <Genealogy>  (20) 
CC[NH+](C)CCOc1ccc(-c2ccc3[n-]cc(C#N)c(=Nc4cc(OC)c(Cl)cc4Cl)c3c2)cc1 (protonated)
CC[N@@H+](C)CCOc1ccc(-c2ccc3[n-]cc(C#N)c(=Nc4cc(OC)c(Cl)cc4Cl)c3c2)cc1 (chirality)
CC[N@@H+](C)CCOc1ccc(-c2ccc3[n-]cc(C#N)/c(=N/c4cc(OC)c(Cl)cc4Cl)c3c2)cc1 (cis-trans isomerization)
CC[N@@H+](C)CCOc1ccc(-c2ccc3[n-]cc(C#N)/c(=N/c4cc(OC)c(Cl)cc4Cl)c3c2)cc1 (3D coordinates assigned)
CC[N@@H+](C)CCOc1ccc(-c2ccc3[n-]cc(C#N)/c(=N/c4cc(OC)c(Cl)cc4Cl)c3c2)cc1 (optimized conformer: 97.4118724382226 kcal/mol)

>  <smiles>  (20) 
CCN(C)CCOc1ccc(-c2ccc3[nH]cc(C#N)c(=Nc4cc(OC)c(Cl)cc4Cl)c3c2)cc1

>  <score_type>  (20) 
oracle

>  <origin>  (20) 
adg

>  <m_score__min__energy>  (20) 
-8.9399999999999995

>  <m_primary>  (20) 
energy

$$$$
20:0
     RDKit          3D

 74 77  0  0  0  0  0  0  0  0999 V2000
   59.8870   25.8740   46.0545 H   0  0  0  0  0  0  0  0  0  0  0  0
   59.2790   26.7020   45.6610 C   0  0  0  0  0  0  0  0  0  0  0  0
   58.5420   26.5310   44.4900 C   0  0  0  0  0  0  0  0  0  0  0  0
   58.5607   25.5640   43.9661 H   0  0  0  0  0  0  0  0  0  0  0  0
   57.7820   27.5820   43.9820 C   0  0  0  0  0  0  0  0  0  0  0  0
   57.2205   27.4404   43.0467 H   0  0  0  0  0  0  0  0  0  0  0  0
   57.7200   28.8260   44.6470 C   0  0  0  0  0  0  0  0  0  0  0  0
   58.4730   29.0040   45.8490 C   0  0  0  0  0  0  0  0  0  0  0  0
   59.2450   27.9230   46.3330 C   0  0  0  0  0  0  0  0  0  0  0  0
   59.8294   28.0476   47.2565 H   0  0  0  0  0  0  0  0  0  0  0  0
   58.4730   30.2500   46.6630 C   0  0  0  0  0  0  0  0  0  0  0  0
   58.5330   30.1360   47.9590 N   0  0  0  0  0  0  0  0  0  0  0  0
   59.6490   30.4870   48.6920 O   0  0  0  0  0  0  0  0  0  0  0  0
   60.6380   29.5220   49.0280 C   0  0  0  0  0  0  0  0  0  0  0  0
   60.7612   28.8275   48.1839 H   0  0  0  0  0  0  0  0  0  0  0  0
   61.5788   30.0511   49.2400 H   0  0  0  0  0  0  0  0  0  0  0  0
   60.2420   28.7230   50.2780 C   0  0  0  0  0  0  0  0  0  0  0  0
   59.4305   28.0296   50.0119 H   0  0  0  0  0  0  0  0  0  0  0  0
   61.1341   28.1831   50.6281 H   0  0  0  0  0  0  0  0  0  0  0  0
   59.7630   29.6270   51.4210 C   0  0  0  0  0  0  0  0  0  0  0  0
   60.1036   29.2072   52.3790 H   0  0  0  0  0  0  0  0  0  0  0  0
   60.1814   30.6334   51.2720 H   0  0  0  0  0  0  0  0  0  0  0  0
   58.2850   29.7260   51.4330 N   0  0  0  0  0  0  0  0  0  0  0  0
   57.8260   31.0850   51.0380 C   0  0  0  0  0  0  0  0  0  0  0  0
   58.6514   31.7931   51.2030 H   0  0  0  0  0  0  0  0  0  0  0  0
   57.5279   31.0317   49.9805 H   0  0  0  0  0  0  0  0  0  0  0  0
   56.5980   31.5730   51.8320 C   0  0  0  0  0  0  0  0  0  0  0  0
   56.9266   31.9434   52.8143 H   0  0  0  0  0  0  0  0  0  0  0  0
   56.1072   32.3785   51.2660 H   0  0  0  0  0  0  0  0  0  0  0  0
   55.6410   30.4810   52.0250 N   0  0  0  0  0  0  0  0  0  0  0  0
   54.8590   30.8620   52.6180 H   0  0  0  0  0  0  0  0  0  0  0  0
   56.2270   29.3230   52.7350 C   0  0  0  0  0  0  0  0  0  0  0  0
   55.8671   29.3341   53.7744 H   0  0  0  0  0  0  0  0  0  0  0  0
   55.9122   28.4193   52.1926 H   0  0  0  0  0  0  0  0  0  0  0  0
   57.7650   29.3250   52.7530 C   0  0  0  0  0  0  0  0  0  0  0  0
   58.1193   30.0349   53.5149 H   0  0  0  0  0  0  0  0  0  0  0  0
   58.1243   28.3127   52.9899 H   0  0  0  0  0  0  0  0  0  0  0  0
   58.4010   31.5950   46.0510 C   0  0  0  0  0  0  0  0  0  0  0  0
   59.3280   32.5900   46.4040 C   0  0  0  0  0  0  0  0  0  0  0  0
   60.2097   32.3234   47.0053 H   0  0  0  0  0  0  0  0  0  0  0  0
   59.1410   33.9230   45.9970 C   0  0  0  0  0  0  0  0  0  0  0  0
   60.1300   34.9520   46.3710 C   0  0  0  0  0  0  0  0  0  0  0  0
   60.0020   36.1370   45.9520 O   0  0  0  0  0  0  0  0  0  0  0  0
   61.2230   34.5950   47.1710 O   0  0  0  0  0  0  0  0  0  0  0  0
   62.2990   33.7910   46.7070 C   0  0  0  0  0  0  0  0  0  0  0  0
   63.0559   34.4366   46.2377 H   0  0  0  0  0  0  0  0  0  0  0  0
   61.9096   33.0663   45.9768 H   0  0  0  0  0  0  0  0  0  0  0  0
   62.9460   33.0190   47.8750 C   0  0  0  0  0  0  0  0  0  0  0  0
   64.0371   33.1344   47.7957 H   0  0  0  0  0  0  0  0  0  0  0  0
   62.6048   31.9778   47.7776 H   0  0  0  0  0  0  0  0  0  0  0  0
   62.5350   33.4610   49.2330 N   0  0  0  0  0  0  0  0  0  0  0  0
   61.3310   32.7870   49.7710 C   0  0  0  0  0  0  0  0  0  0  0  0
   61.5451   32.4392   50.7924 H   0  0  0  0  0  0  0  0  0  0  0  0
   61.0876   31.9445   49.1070 H   0  0  0  0  0  0  0  0  0  0  0  0
   60.1230   33.7210   49.8110 C   0  0  0  0  0  0  0  0  0  0  0  0
   59.8545   33.9286   50.8573 H   0  0  0  0  0  0  0  0  0  0  0  0
   60.3717   34.6640   49.3022 H   0  0  0  0  0  0  0  0  0  0  0  0
   59.2729   33.2430   49.3022 H   0  0  0  0  0  0  0  0  0  0  0  0
   63.6460   33.4670   50.2080 C   0  0  0  0  0  0  0  0  0  0  0  0
   63.9151   34.5065   50.4470 H   0  0  0  0  0  0  0  0  0  0  0  0
   63.3268   32.9442   51.1217 H   0  0  0  0  0  0  0  0  0  0  0  0
   64.8570   32.7550   49.6230 C   0  0  0  0  0  0  0  0  0  0  0  0
   65.4925   32.3814   50.4394 H   0  0  0  0  0  0  0  0  0  0  0  0
   64.5217   31.9102   49.0033 H   0  0  0  0  0  0  0  0  0  0  0  0
   65.4322   33.4587   49.0033 H   0  0  0  0  0  0  0  0  0  0  0  0
   58.0060   34.2540   45.2390 C   0  0  0  0  0  0  0  0  0  0  0  0
   57.8279   35.2989   44.9448 H   0  0  0  0  0  0  0  0  0  0  0  0
   57.1030   33.2590   44.8580 C   0  0  0  0  0  0  0  0  0  0  0  0
   56.2203   33.5208   44.2561 H   0  0  0  0  0  0  0  0  0  0  0  0
   57.3180   31.9290   45.2400 C   0  0  0  0  0  0  0  0  0  0  0  0
   56.4470   30.9360   44.8100 O   0  0  0  0  0  0  0  0  0  0  0  0
   56.9000   29.8960   43.9560 C   0  0  0  0  0  0  0  0  0  0  0  0
   57.5189   30.3459   43.1657 H   0  0  0  0  0  0  0  0  0  0  0  0
   56.0000   29.3971   43.5672 H   0  0  0  0  0  0  0  0  0  0  0  0
  1  2  1  0
  2  3  2  0
  3  4  1  0
  3  5  1  0
  5  6  1  0
  5  7  2  0
  7  8  1  0
  8  9  2  0
  9 10  1  0
  8 11  1  0
 11 12  2  0
 12 13  1  0
 13 14  1  0
 14 15  1  0
 14 16  1  0
 14 17  1  0
 17 18  1  0
 17 19  1  0
 17 20  1  0
 20 21  1  0
 20 22  1  0
 20 23  1  0
 23 24  1  0
 24 25  1  0
 24 26  1  0
 24 27  1  0
 27 28  1  0
 27 29  1  0
 27 30  1  0
 30 31  1  0
 30 32  1  0
 32 33  1  0
 32 34  1  0
 32 35  1  0
 35 36  1  0
 35 37  1  0
 11 38  1  0
 38 39  2  0
 39 40  1  0
 39 41  1  0
 41 42  1  0
 42 43  2  0
 42 44  1  0
 44 45  1  0
 45 46  1  0
 45 47  1  0
 45 48  1  0
 48 49  1  0
 48 50  1  0
 48 51  1  0
 51 52  1  0
 52 53  1  0
 52 54  1  0
 52 55  1  0
 55 56  1  0
 55 57  1  0
 55 58  1  0
 51 59  1  0
 59 60  1  0
 59 61  1  0
 59 62  1  0
 62 63  1  0
 62 64  1  0
 62 65  1  0
 41 66  2  0
 66 67  1  0
 66 68  1  0
 68 69  1  0
 68 70  2  0
 70 71  1  0
 71 72  1  0
 72 73  1  0
 72 74  1  0
  9  2  1  0
 35 23  1  0
 70 38  1  0
 72  7  1  0
M  END
>  <UniqueID>  (21) 
19

>  <SMILES>  (21) 
CCN(CC)CCOC(=O)c1ccc2c(c1)/C(=N\OCCCN1CCNCC1)c1ccccc1CO2

>  <Energy>  (21) 
99.62565264228395

>  <Genealogy>  (21) 
CCN(CC)CCOC(=O)c1ccc2c(c1)/C(=N\OCCCN1CCNCC1)c1ccccc1CO2 (cis-trans isomerization)
CCN(CC)CCOC(=O)c1ccc2c(c1)/C(=N\OCCCN1CCNCC1)c1ccccc1CO2 (3D coordinates assigned)
CCN(CC)CCOC(=O)c1ccc2c(c1)/C(=N\OCCCN1CCNCC1)c1ccccc1CO2 (nonaromatic ring conformer: 99.62565264228395 kcal/mol)

>  <smiles>  (21) 
CCN(CC)CCOC(=O)c1ccc2c(c1)C(=NOCCCN1CCNCC1)c1ccccc1CO2

>  <score_type>  (21) 
oracle

>  <origin>  (21) 
adg

>  <m_score__min__energy>  (21) 
-9.9800000000000004

>  <m_primary>  (21) 
energy

$$$$
21:0
     RDKit          3D

 36 37  0  0  0  0  0  0  0  0999 V2000
   60.0170   28.3350   44.5170 C   0  0  0  0  0  0  0  0  0  0  0  0
   58.7100   27.5450   44.4580 C   0  0  0  0  0  0  0  0  0  0  0  0
   57.7550   28.0100   45.4760 N   0  0  0  0  0  0  0  0  0  0  0  0
   57.4190   27.1650   46.6360 C   0  0  0  0  0  0  0  0  0  0  0  0
   56.5700   25.9910   46.2440 C   0  0  0  0  0  0  0  0  0  0  0  0
   57.0860   24.8430   46.1860 O   0  0  0  0  0  0  0  0  0  0  0  0
   55.1790   26.1710   45.9460 N   0  0  0  0  0  0  0  0  0  0  0  0
   54.3180   25.0450   45.6120 C   0  0  0  0  0  0  0  0  0  0  0  0
   56.8720   29.0970   45.1390 C   0  0  0  0  0  0  0  0  0  0  0  0
   55.6390   28.8770   44.9830 O   0  0  0  0  0  0  0  0  0  0  0  0
   57.3820   30.4690   44.9690 C   0  0  0  0  0  0  0  0  0  0  0  0
   57.4090   31.0830   43.7050 C   0  0  0  0  0  0  0  0  0  0  0  0
   57.8780   32.3540   43.5820 N   0  0  0  0  0  0  0  0  0  0  0  0
   58.3150   33.0490   44.6640 C   0  0  0  0  0  0  0  0  0  0  0  0
   58.7980   34.3560   44.5270 C   0  0  0  0  0  0  0  0  0  0  0  0
   59.2420   35.0550   45.6550 C   0  0  0  0  0  0  0  0  0  0  0  0
   59.2080   34.4500   46.9190 C   0  0  0  0  0  0  0  0  0  0  0  0
   58.7270   33.1430   47.0600 C   0  0  0  0  0  0  0  0  0  0  0  0
   58.2770   32.4420   45.9360 C   0  0  0  0  0  0  0  0  0  0  0  0
   57.8090   31.1700   46.0540 N   0  0  0  0  0  0  0  0  0  0  0  0
   60.2963   28.5038   45.5675 H   0  0  0  0  0  0  0  0  0  0  0  0
   60.8123   27.7662   44.0130 H   0  0  0  0  0  0  0  0  0  0  0  0
   59.8831   29.3035   44.0130 H   0  0  0  0  0  0  0  0  0  0  0  0
   58.2606   27.6706   43.4619 H   0  0  0  0  0  0  0  0  0  0  0  0
   58.9363   26.4865   44.6536 H   0  0  0  0  0  0  0  0  0  0  0  0
   58.3508   26.7951   47.0887 H   0  0  0  0  0  0  0  0  0  0  0  0
   56.8477   27.7764   47.3500 H   0  0  0  0  0  0  0  0  0  0  0  0
   54.7680   27.1310   45.9450 H   0  0  0  0  0  0  0  0  0  0  0  0
   53.9567   24.5725   46.5374 H   0  0  0  0  0  0  0  0  0  0  0  0
   53.4600   25.4015   45.0232 H   0  0  0  0  0  0  0  0  0  0  0  0
   54.8869   24.3104   45.0232 H   0  0  0  0  0  0  0  0  0  0  0  0
   57.0523   30.5379   42.8186 H   0  0  0  0  0  0  0  0  0  0  0  0
   58.8284   34.8319   43.5357 H   0  0  0  0  0  0  0  0  0  0  0  0
   59.6191   36.0829   45.5494 H   0  0  0  0  0  0  0  0  0  0  0  0
   59.5601   35.0035   47.8020 H   0  0  0  0  0  0  0  0  0  0  0  0
   58.7029   32.6683   48.0520 H   0  0  0  0  0  0  0  0  0  0  0  0
  1  2  1  0
  2  3  1  0
  3  4  1  0
  4  5  1  0
  5  6  2  0
  5  7  1  0
  7  8  1  0
  3  9  1  0
  9 10  2  0
  9 11  1  0
 11 12  2  0
 12 13  1  0
 13 14  2  0
 14 15  1  0
 15 16  2  0
 16 17  1  0
 17 18  2  0
 18 19  1  0
 19 20  2  0
 20 11  1  0
 19 14  1  0
  1 21  1  0
  1 22  1  0
  1 23  1  0
  2 24  1  0
  2 25  1  0
  4 26  1  0
  4 27  1  0
  7 28  1  0
  8 29  1  0
  8 30  1  0
  8 31  1  0
 12 32  1  0
 15 33  1  0
 16 34  1  0
 17 35  1  0
 18 36  1  0
M  END
>  <UniqueID>  (22) 
20

>  <SMILES>  (22) 
CCN(CC(=O)NC)C(=O)c1cnc2ccccc2n1

>  <Energy>  (22) 
38.037941848596574

>  <Genealogy>  (22) 
CCN(CC(=O)NC)C(=O)c1cnc2ccccc2n1 (3D coordinates assigned)
CCN(CC(=O)NC)C(=O)c1cnc2ccccc2n1 (optimized conformer: 38.037941848596574 kcal/mol)

>  <smiles>  (22) 
CCN(CC(=O)NC)C(=O)c1cnc2ccccc2n1

>  <score_type>  (22) 
oracle

>  <origin>  (22) 
adg

>  <m_score__min__energy>  (22) 
-7.5300000000000002

>  <m_primary>  (22) 
energy

$$$$
22:0
     RDKit          3D

 56 59  0  0  0  0  0  0  0  0999 V2000
   53.7220   24.8400   45.6210 C   0  0  0  0  0  0  0  0  0  0  0  0
   54.5880   25.9290   45.9260 O   0  0  0  0  0  0  0  0  0  0  0  0
   55.9890   25.8440   45.9700 C   0  0  0  0  0  0  0  0  0  0  0  0
   56.5890   24.6710   45.5120 C   0  0  0  0  0  0  0  0  0  0  0  0
   57.9750   24.5310   45.5280 C   0  0  0  0  0  0  0  0  0  0  0  0
   58.7830   25.5640   46.0100 C   0  0  0  0  0  0  0  0  0  0  0  0
   60.1300   25.4060   45.9960 N   0  0  0  0  0  0  0  0  0  0  0  0
   60.9660   26.3690   46.4480 C   0  0  0  0  0  0  0  0  0  0  0  0
   60.4590   27.5590   46.9630 C   0  0  0  0  0  0  0  0  0  0  0  0
   59.0680   27.7930   46.9890 C   0  0  0  0  0  0  0  0  0  0  0  0
   58.5250   29.1220   47.5310 C   0  0  2  0  0  0  0  0  0  0  0  0
   58.1140   30.0060   46.5140 O   0  0  0  0  0  0  0  0  0  0  0  0
   59.4790   29.7960   48.5620 C   0  0  0  0  0  0  0  0  0  0  0  0
   59.6370   31.2720   48.4010 N   0  0  0  0  0  0  0  0  0  0  0  0
   60.8600   31.5930   47.6140 C   0  0  0  0  0  0  0  0  0  0  0  0
   61.5060   32.9590   47.9580 C   0  0  0  0  0  0  0  0  0  0  0  0
   60.5570   33.9490   48.5050 N   0  0  0  0  0  0  0  0  0  0  0  0
   60.0140   34.9280   47.5400 C   0  0  0  0  0  0  0  0  0  0  0  0
   59.1340   34.3080   46.4790 C   0  0  0  0  0  0  0  0  0  0  0  0
   57.8510   33.8330   46.8030 C   0  0  0  0  0  0  0  0  0  0  0  0
   57.0180   33.3160   45.8090 C   0  0  0  0  0  0  0  0  0  0  0  0
   57.4580   33.2630   44.4830 C   0  0  0  0  0  0  0  0  0  0  0  0
   58.7300   33.7320   44.1500 C   0  0  0  0  0  0  0  0  0  0  0  0
   59.5610   34.2630   45.1400 C   0  0  0  0  0  0  0  0  0  0  0  0
   59.6100   33.4620   49.5300 C   0  0  0  0  0  0  0  0  0  0  0  0
   59.6840   31.9430   49.7170 C   0  0  0  0  0  0  0  0  0  0  0  0
   58.2050   26.7670   46.4940 C   0  0  0  0  0  0  0  0  0  0  0  0
   56.7960   26.8920   46.4550 C   0  0  0  0  0  0  0  0  0  0  0  0
   53.3609   24.3859   46.5555 H   0  0  0  0  0  0  0  0  0  0  0  0
   52.8652   25.2056   45.0360 H   0  0  0  0  0  0  0  0  0  0  0  0
   54.2712   24.0876   45.0360 H   0  0  0  0  0  0  0  0  0  0  0  0
   55.9623   23.8494   45.1349 H   0  0  0  0  0  0  0  0  0  0  0  0
   58.4355   23.6026   45.1593 H   0  0  0  0  0  0  0  0  0  0  0  0
   62.0538   26.2106   46.4083 H   0  0  0  0  0  0  0  0  0  0  0  0
   61.1483   28.3226   47.3526 H   0  0  0  0  0  0  0  0  0  0  0  0
   57.6141   28.8599   48.0893 H   0  0  0  0  0  0  0  0  0  0  0  0
   58.5360   29.7350   45.6620 H   0  0  0  0  0  0  0  0  0  0  0  0
   59.0840   29.6026   49.5703 H   0  0  0  0  0  0  0  0  0  0  0  0
   60.4742   29.3590   48.3930 H   0  0  0  0  0  0  0  0  0  0  0  0
   58.8200   31.6490   47.8630 H   0  0  0  0  0  0  0  0  0  0  0  0
   61.6044   30.8046   47.7993 H   0  0  0  0  0  0  0  0  0  0  0  0
   60.5477   31.6512   46.5609 H   0  0  0  0  0  0  0  0  0  0  0  0
   62.2977   32.7899   48.7028 H   0  0  0  0  0  0  0  0  0  0  0  0
   61.8937   33.3749   47.0163 H   0  0  0  0  0  0  0  0  0  0  0  0
   59.4203   35.6699   48.0942 H   0  0  0  0  0  0  0  0  0  0  0  0
   60.8725   35.3810   47.0226 H   0  0  0  0  0  0  0  0  0  0  0  0
   57.5016   33.8689   47.8454 H   0  0  0  0  0  0  0  0  0  0  0  0
   56.0140   32.9498   46.0695 H   0  0  0  0  0  0  0  0  0  0  0  0
   56.8017   32.8516   43.7019 H   0  0  0  0  0  0  0  0  0  0  0  0
   59.0783   33.6835   43.1077 H   0  0  0  0  0  0  0  0  0  0  0  0
   60.5554   34.6482   44.8702 H   0  0  0  0  0  0  0  0  0  0  0  0
   59.8455   33.9480   50.4883 H   0  0  0  0  0  0  0  0  0  0  0  0
   58.5928   33.7098   49.1924 H   0  0  0  0  0  0  0  0  0  0  0  0
   60.6242   31.6834   50.2256 H   0  0  0  0  0  0  0  0  0  0  0  0
   58.8291   31.6105   50.3241 H   0  0  0  0  0  0  0  0  0  0  0  0
   56.3241   27.8207   46.8084 H   0  0  0  0  0  0  0  0  0  0  0  0
  1  2  1  0
  2  3  1  0
  3  4  2  0
  4  5  1  0
  5  6  2  0
  6  7  1  0
  7  8  2  0
  8  9  1  0
  9 10  2  0
 10 11  1  0
 11 12  1  0
 11 13  1  0
 13 14  1  0
 14 15  1  0
 15 16  1  0
 16 17  1  0
 17 18  1  0
 18 19  1  0
 19 20  2  0
 20 21  1  0
 21 22  2  0
 22 23  1  0
 23 24  2  0
 17 25  1  0
 25 26  1  0
 10 27  1  0
 27 28  2  0
 28  3  1  0
 27  6  1  0
 26 14  1  0
 24 19  1  0
  1 29  1  0
  1 30  1  0
  1 31  1  0
  4 32  1  0
  5 33  1  0
  8 34  1  0
  9 35  1  0
 11 36  1  1
 12 37  1  0
 13 38  1  0
 13 39  1  0
 14 40  1  0
 15 41  1  0
 15 42  1  0
 16 43  1  0
 16 44  1  0
 18 45  1  0
 18 46  1  0
 20 47  1  0
 21 48  1  0
 22 49  1  0
 23 50  1  0
 24 51  1  0
 25 52  1  0
 25 53  1  0
 26 54  1  0
 26 55  1  0
 28 56  1  0
M  CHG  1  14   1
M  END
>  <UniqueID>  (23) 
21

>  <SMILES>  (23) 
COc1ccc2nccc([C@H](O)C[NH+]3CCN(Cc4ccccc4)CC3)c2c1

>  <Energy>  (23) 
87.64000001024495

>  <Genealogy>  (23) 
COc1ccc2nccc(C(O)C[NH+]3CCN(Cc4ccccc4)CC3)c2c1 (protonated)
COc1ccc2nccc([C@H](O)C[NH+]3CCN(Cc4ccccc4)CC3)c2c1 (chirality)
COc1ccc2nccc([C@H](O)C[NH+]3CCN(Cc4ccccc4)CC3)c2c1 (3D coordinates assigned)
COc1ccc2nccc([C@H](O)C[NH+]3CCN(Cc4ccccc4)CC3)c2c1 (nonaromatic ring conformer: 87.64000001024495 kcal/mol)

>  <smiles>  (23) 
COc1ccc2nccc(C(O)CN3CCN(Cc4ccccc4)CC3)c2c1

>  <score_type>  (23) 
oracle

>  <origin>  (23) 
adg

>  <m_score__min__energy>  (23) 
-8

>  <m_primary>  (23) 
energy

$$$$
23:0
     RDKit          3D

 38 40  0  0  0  0  0  0  0  0999 V2000
   59.6410   35.5920   45.9100 O   0  0  0  0  0  0  0  0  0  0  0  0
   59.9300   34.3970   46.1950 C   0  0  0  0  0  0  0  0  0  0  0  0
   59.2010   33.3170   45.5910 N   0  0  0  0  0  0  0  0  0  0  0  0
   58.0600   33.5440   44.7090 C   0  0  0  0  0  0  0  0  0  0  0  0
   57.4380   32.2400   44.3290 C   0  0  0  0  0  0  0  0  0  0  0  0
   57.5340   31.6070   43.1090 C   0  0  0  0  0  0  0  0  0  0  0  0
   56.7700   30.4710   43.2680 C   0  0  0  0  0  0  0  0  0  0  0  0
   56.2570   30.4480   44.5140 N   0  0  0  0  0  0  0  0  0  0  0  0
   56.6760   31.5210   45.1190 O   0  0  0  0  0  0  0  0  0  0  0  0
   61.0640   34.1100   47.1480 C   0  0  0  0  0  0  0  0  0  0  0  0
   60.7020   32.9450   48.1080 C   0  0  0  0  0  0  0  0  0  0  0  0
   61.8480   31.9430   48.3300 C   0  0  0  0  0  0  0  0  0  0  0  0
   63.1500   32.6280   48.3990 N   0  0  0  0  0  0  0  0  0  0  0  0
   64.1340   32.2550   49.3870 C   0  0  0  0  0  0  0  0  0  0  0  0
   65.3460   32.8770   49.4280 N   0  0  0  0  0  0  0  0  0  0  0  0
   66.2820   32.5370   50.3530 C   0  0  0  0  0  0  0  0  0  0  0  0
   66.0070   31.5380   51.2840 C   0  0  0  0  0  0  0  0  0  0  0  0
   64.7640   30.9100   51.2350 C   0  0  0  0  0  0  0  0  0  0  0  0
   63.8560   31.2770   50.2950 N   0  0  0  0  0  0  0  0  0  0  0  0
   63.5170   33.6040   47.3590 C   0  0  0  0  0  0  0  0  0  0  0  0
   62.3670   33.8510   46.3760 C   0  0  0  0  0  0  0  0  0  0  0  0
   59.4950   32.3320   45.7780 H   0  0  0  0  0  0  0  0  0  0  0  0
   57.3155   34.1643   45.2295 H   0  0  0  0  0  0  0  0  0  0  0  0
   58.4045   34.0574   43.7992 H   0  0  0  0  0  0  0  0  0  0  0  0
   58.0900   31.9321   42.2173 H   0  0  0  0  0  0  0  0  0  0  0  0
   56.6047   29.7030   42.4981 H   0  0  0  0  0  0  0  0  0  0  0  0
   61.2305   34.9976   47.7760 H   0  0  0  0  0  0  0  0  0  0  0  0
   60.4221   33.3728   49.0820 H   0  0  0  0  0  0  0  0  0  0  0  0
   59.8770   32.3887   47.6391 H   0  0  0  0  0  0  0  0  0  0  0  0
   61.6757   31.4044   49.2735 H   0  0  0  0  0  0  0  0  0  0  0  0
   61.8676   31.2434   47.4814 H   0  0  0  0  0  0  0  0  0  0  0  0
   67.2550   33.0498   50.3664 H   0  0  0  0  0  0  0  0  0  0  0  0
   66.7532   31.2517   52.0398 H   0  0  0  0  0  0  0  0  0  0  0  0
   64.5188   30.1175   51.9574 H   0  0  0  0  0  0  0  0  0  0  0  0
   63.7825   34.5558   47.8423 H   0  0  0  0  0  0  0  0  0  0  0  0
   64.3675   33.1959   46.7933 H   0  0  0  0  0  0  0  0  0  0  0  0
   62.6018   34.7266   45.7530 H   0  0  0  0  0  0  0  0  0  0  0  0
   62.2393   32.9637   45.7385 H   0  0  0  0  0  0  0  0  0  0  0  0
  1  2  2  0
  2  3  1  0
  3  4  1  0
  4  5  1  0
  5  6  2  0
  6  7  1  0
  7  8  2  0
  8  9  1  0
  2 10  1  0
 10 11  1  0
 11 12  1  0
 12 13  1  0
 13 14  1  0
 14 15  2  0
 15 16  1  0
 16 17  2  0
 17 18  1  0
 18 19  2  0
 13 20  1  0
 20 21  1  0
  9  5  1  0
 21 10  1  0
 19 14  1  0
  3 22  1  0
  4 23  1  0
  4 24  1  0
  6 25  1  0
  7 26  1  0
 10 27  1  0
 11 28  1  0
 11 29  1  0
 12 30  1  0
 12 31  1  0
 16 32  1  0
 17 33  1  0
 18 34  1  0
 20 35  1  0
 20 36  1  0
 21 37  1  0
 21 38  1  0
M  END
>  <UniqueID>  (24) 
22

>  <SMILES>  (24) 
O=C(NCc1ccno1)C1CCN(c2ncccn2)CC1

>  <Energy>  (24) 
69.16007131618021

>  <Genealogy>  (24) 
O=C(NCc1ccno1)C1CCN(c2ncccn2)CC1 (3D coordinates assigned)
O=C(NCc1ccno1)C1CCN(c2ncccn2)CC1 (nonaromatic ring conformer: 69.16007131618021 kcal/mol)

>  <smiles>  (24) 
O=C(NCc1ccno1)C1CCN(c2ncccn2)CC1

>  <score_type>  (24) 
oracle

>  <origin>  (24) 
adg

>  <m_score__min__energy>  (24) 
-7.3899999999999997

>  <m_primary>  (24) 
energy

$$$$
24:0
     RDKit          3D

 49 52  0  0  0  0  0  0  0  0999 V2000
   55.1440   29.3430   45.1830 O   0  0  0  0  0  0  0  0  0  0  0  0
   56.0800   29.8400   44.5030 C   0  0  0  0  0  0  0  0  0  0  0  0
   55.8350   30.2370   43.1940 O   0  0  0  0  0  0  0  0  0  0  0  0
   57.4280   29.9950   45.0960 C   0  0  0  0  0  0  0  0  0  0  0  0
   58.2110   28.8600   45.4280 C   0  0  0  0  0  0  0  0  0  0  0  0
   57.6970   27.4740   45.3650 C   0  0  0  0  0  0  0  0  0  0  0  0
   57.8460   26.6150   44.2800 C   0  0  0  0  0  0  0  0  0  0  0  0
   57.3680   25.3220   44.5230 C   0  0  0  0  0  0  0  0  0  0  0  0
   56.8640   25.1430   45.8050 C   0  0  0  0  0  0  0  0  0  0  0  0
   57.0190   26.5960   46.6350 S   0  0  0  0  0  0  0  0  0  0  0  0
   59.4860   29.0320   45.8680 N   0  0  0  0  0  0  0  0  0  0  0  0
   60.0410   30.2540   46.0400 C   0  0  0  0  0  0  0  0  0  0  0  0
   59.3030   31.4090   45.7780 C   0  0  0  0  0  0  0  0  0  0  0  0
   57.9920   31.2870   45.2670 C   0  0  0  0  0  0  0  0  0  0  0  0
   57.1880   32.5330   44.9450 C   0  0  0  0  0  0  0  0  0  0  0  0
   58.0300   33.8180   44.9600 C   0  0  0  0  0  0  0  0  0  0  0  0
   58.9910   33.8580   46.0800 N   0  0  0  0  0  0  0  0  0  0  0  0
   58.3640   33.8590   47.4250 C   0  0  0  0  0  0  0  0  0  0  0  0
   59.2390   34.5620   48.4760 C   0  0  0  0  0  0  0  0  0  0  0  0
   60.0480   33.6340   49.1990 O   0  0  0  0  0  0  0  0  0  0  0  0
   61.3040   33.1440   48.7930 C   0  0  0  0  0  0  0  0  0  0  0  0
   62.3250   34.0020   48.3340 C   0  0  0  0  0  0  0  0  0  0  0  0
   63.5460   33.4830   47.9040 C   0  0  0  0  0  0  0  0  0  0  0  0
   63.7680   32.1070   47.9250 C   0  0  0  0  0  0  0  0  0  0  0  0
   62.7730   31.2440   48.3880 C   0  0  0  0  0  0  0  0  0  0  0  0
   61.5410   31.7510   48.8440 C   0  0  0  0  0  0  0  0  0  0  0  0
   60.4590   30.8110   49.3300 C   0  0  0  0  0  0  0  0  0  0  0  0
   59.2230   31.1370   48.7980 F   0  0  0  0  0  0  0  0  0  0  0  0
   60.7590   29.5130   48.9550 F   0  0  0  0  0  0  0  0  0  0  0  0
   60.3770   30.8780   50.7080 F   0  0  0  0  0  0  0  0  0  0  0  0
   59.9650   32.7580   45.9390 C   0  0  0  0  0  0  0  0  0  0  0  0
   58.2957   26.9224   43.3243 H   0  0  0  0  0  0  0  0  0  0  0  0
   57.3895   24.5217   43.7686 H   0  0  0  0  0  0  0  0  0  0  0  0
   56.4376   24.2121   46.2070 H   0  0  0  0  0  0  0  0  0  0  0  0
   61.0809   30.3375   46.3887 H   0  0  0  0  0  0  0  0  0  0  0  0
   56.7473   32.4156   43.9440 H   0  0  0  0  0  0  0  0  0  0  0  0
   56.4198   32.6368   45.7254 H   0  0  0  0  0  0  0  0  0  0  0  0
   58.5887   33.8834   44.0147 H   0  0  0  0  0  0  0  0  0  0  0  0
   57.3398   34.6653   45.0848 H   0  0  0  0  0  0  0  0  0  0  0  0
   57.3970   34.3798   47.3642 H   0  0  0  0  0  0  0  0  0  0  0  0
   58.2374   32.8121   47.7381 H   0  0  0  0  0  0  0  0  0  0  0  0
   59.8941   35.2850   47.9679 H   0  0  0  0  0  0  0  0  0  0  0  0
   58.5740   35.0664   49.1925 H   0  0  0  0  0  0  0  0  0  0  0  0
   62.1570   35.0889   48.3150 H   0  0  0  0  0  0  0  0  0  0  0  0
   64.3355   34.1609   47.5475 H   0  0  0  0  0  0  0  0  0  0  0  0
   64.7288   31.7004   47.5762 H   0  0  0  0  0  0  0  0  0  0  0  0
   62.9530   30.1589   48.3966 H   0  0  0  0  0  0  0  0  0  0  0  0
   60.5887   32.9517   45.0538 H   0  0  0  0  0  0  0  0  0  0  0  0
   60.5648   32.7256   46.8605 H   0  0  0  0  0  0  0  0  0  0  0  0
  1  2  2  0
  2  3  1  0
  2  4  1  0
  4  5  2  0
  5  6  1  0
  6  7  2  0
  7  8  1  0
  8  9  2  0
  9 10  1  0
  5 11  1  0
 11 12  2  0
 12 13  1  0
 13 14  2  0
 14 15  1  0
 15 16  1  0
 16 17  1  0
 17 18  1  0
 18 19  1  0
 19 20  1  0
 20 21  1  0
 21 22  2  0
 22 23  1  0
 23 24  2  0
 24 25  1  0
 25 26  2  0
 26 27  1  0
 27 28  1  0
 27 29  1  0
 27 30  1  0
 17 31  1  0
 14  4  1  0
 26 21  1  0
 10  6  1  0
 31 13  1  0
  7 32  1  0
  8 33  1  0
  9 34  1  0
 12 35  1  0
 15 36  1  0
 15 37  1  0
 16 38  1  0
 16 39  1  0
 18 40  1  0
 18 41  1  0
 19 42  1  0
 19 43  1  0
 22 44  1  0
 23 45  1  0
 24 46  1  0
 25 47  1  0
 31 48  1  0
 31 49  1  0
M  CHG  1   3  -1
M  END
>  <UniqueID>  (25) 
23

>  <SMILES>  (25) 
O=C([O-])c1c(-c2cccs2)ncc2c1CCN(CCOc1ccccc1C(F)(F)F)C2

>  <Energy>  (25) 
98.83018618463578

>  <Genealogy>  (25) 
O=C([O-])c1c(-c2cccs2)ncc2c1CCN(CCOc1ccccc1C(F)(F)F)C2 (protonated)
O=C([O-])c1c(-c2cccs2)ncc2c1CCN(CCOc1ccccc1C(F)(F)F)C2 (3D coordinates assigned)
O=C([O-])c1c(-c2cccs2)ncc2c1CCN(CCOc1ccccc1C(F)(F)F)C2 (nonaromatic ring conformer: 98.83018618463578 kcal/mol)

>  <smiles>  (25) 
O=C(O)c1c(-c2cccs2)ncc2c1CCN(CCOc1ccccc1C(F)(F)F)C2

>  <score_type>  (25) 
oracle

>  <origin>  (25) 
adg

>  <m_score__min__energy>  (25) 
-10.42

>  <m_primary>  (25) 
energy

$$$$
25:0
     RDKit          3D

 34 37  0  0  0  0  0  0  0  0999 V2000
   59.2270   22.2940   44.8710 C   0  0  0  0  0  0  0  0  0  0  0  0
   59.2390   23.2660   45.9120 O   0  0  0  0  0  0  0  0  0  0  0  0
   58.8900   24.6130   45.7410 C   0  0  0  0  0  0  0  0  0  0  0  0
   57.7710   25.0150   44.9890 C   0  0  0  0  0  0  0  0  0  0  0  0
   57.4650   26.3720   44.8490 C   0  0  0  0  0  0  0  0  0  0  0  0
   58.2690   27.3530   45.4540 C   0  0  0  0  0  0  0  0  0  0  0  0
   57.9450   28.7950   45.3050 C   0  0  0  0  0  0  0  0  0  0  0  0
   56.7660   29.2140   44.6370 C   0  0  0  0  0  0  0  0  0  0  0  0
   56.4720   30.5400   44.5010 N   0  0  0  0  0  0  0  0  0  0  0  0
   57.3240   31.4610   45.0120 C   0  0  0  0  0  0  0  0  0  0  0  0
   57.1430   32.8040   44.9390 N   0  0  0  0  0  0  0  0  0  0  0  0
   58.2420   33.2650   45.5800 C   0  0  0  0  0  0  0  0  0  0  0  0
   58.5930   34.5940   45.8100 C   0  0  0  0  0  0  0  0  0  0  0  0
   59.7930   34.8460   46.5040 C   0  0  0  0  0  0  0  0  0  0  0  0
   60.6060   33.7760   46.9460 C   0  0  0  0  0  0  0  0  0  0  0  0
   60.2280   32.4420   46.7010 C   0  0  0  0  0  0  0  0  0  0  0  0
   59.0340   32.2310   46.0120 C   0  0  0  0  0  0  0  0  0  0  0  0
   58.4470   31.0840   45.6510 N   0  0  0  0  0  0  0  0  0  0  0  0
   58.8010   29.7880   45.8220 C   0  0  0  0  0  0  0  0  0  0  0  0
   59.3870   26.9460   46.2050 C   0  0  0  0  0  0  0  0  0  0  0  0
   59.6910   25.5880   46.3440 C   0  0  0  0  0  0  0  0  0  0  0  0
   59.2146   21.2858   45.3108 H   0  0  0  0  0  0  0  0  0  0  0  0
   58.3305   22.4338   44.2491 H   0  0  0  0  0  0  0  0  0  0  0  0
   60.1267   22.4117   44.2491 H   0  0  0  0  0  0  0  0  0  0  0  0
   57.1337   24.2579   44.5088 H   0  0  0  0  0  0  0  0  0  0  0  0
   56.5868   26.6746   44.2598 H   0  0  0  0  0  0  0  0  0  0  0  0
   56.0796   28.4606   44.2232 H   0  0  0  0  0  0  0  0  0  0  0  0
   57.9543   35.4189   45.4613 H   0  0  0  0  0  0  0  0  0  0  0  0
   60.1002   35.8832   46.7038 H   0  0  0  0  0  0  0  0  0  0  0  0
   61.5410   33.9879   47.4854 H   0  0  0  0  0  0  0  0  0  0  0  0
   60.8496   31.6000   47.0395 H   0  0  0  0  0  0  0  0  0  0  0  0
   59.7285   29.5186   46.3484 H   0  0  0  0  0  0  0  0  0  0  0  0
   60.0262   27.7010   46.6860 H   0  0  0  0  0  0  0  0  0  0  0  0
   60.5686   25.2838   46.9333 H   0  0  0  0  0  0  0  0  0  0  0  0
  1  2  1  0
  2  3  1  0
  3  4  2  0
  4  5  1  0
  5  6  2  0
  6  7  1  0
  7  8  1  0
  8  9  2  0
  9 10  1  0
 10 11  2  0
 11 12  1  0
 12 13  2  0
 13 14  1  0
 14 15  2  0
 15 16  1  0
 16 17  2  0
 17 18  1  0
 18 19  1  0
  6 20  1  0
 20 21  2  0
 21  3  1  0
 19  7  2  0
 18 10  1  0
 17 12  1  0
  1 22  1  0
  1 23  1  0
  1 24  1  0
  4 25  1  0
  5 26  1  0
  8 27  1  0
 13 28  1  0
 14 29  1  0
 15 30  1  0
 16 31  1  0
 19 32  1  0
 20 33  1  0
 21 34  1  0
M  END
>  <UniqueID>  (26) 
24

>  <SMILES>  (26) 
COc1ccc(-c2cnc3nc4ccccc4n3c2)cc1

>  <Energy>  (26) 
87.63620741632428

>  <Genealogy>  (26) 
COc1ccc(-c2cnc3nc4ccccc4n3c2)cc1 (3D coordinates assigned)
COc1ccc(-c2cnc3nc4ccccc4n3c2)cc1 (optimized conformer: 87.63620741632428 kcal/mol)

>  <smiles>  (26) 
COc1ccc(-c2cnc3nc4ccccc4n3c2)cc1

>  <score_type>  (26) 
oracle

>  <origin>  (26) 
adg

>  <m_score__min__energy>  (26) 
-7.25

>  <m_primary>  (26) 
energy

$$$$
26:0
     RDKit          3D

 61 66  0  0  0  0  0  0  0  0999 V2000
   62.7270   27.1250   53.1090 C   0  0  0  0  0  0  0  0  0  0  0  0
   62.1210   28.4120   53.0760 O   0  0  0  0  0  0  0  0  0  0  0  0
   61.4740   28.9540   51.9550 C   0  0  0  0  0  0  0  0  0  0  0  0
   62.2560   29.5540   50.9610 C   0  0  0  0  0  0  0  0  0  0  0  0
   61.6590   30.1050   49.8230 C   0  0  0  0  0  0  0  0  0  0  0  0
   60.2680   30.0490   49.6560 C   0  0  0  0  0  0  0  0  0  0  0  0
   59.6600   30.6450   48.5010 N   0  0  0  0  0  0  0  0  0  0  0  0
   59.8580   31.9100   48.1560 N   0  0  0  0  0  0  0  0  0  0  0  0
   59.1480   32.1460   47.0310 C   0  0  0  0  0  0  0  0  0  0  0  0
   59.2150   33.3860   46.3120 N   0  0  0  0  0  0  0  0  0  0  0  0
   58.6460   33.6940   45.1340 C   0  0  0  0  0  0  0  0  0  0  0  0
   58.9210   35.0150   44.8640 C   0  0  0  0  0  0  0  0  0  0  0  0
   59.6470   35.5420   45.8710 N   0  0  0  0  0  0  0  0  0  0  0  0
   59.8010   34.5210   46.7400 C   0  0  0  0  0  0  0  0  0  0  0  0
   58.4790   30.9910   46.6490 C   0  0  0  0  0  0  0  0  0  0  0  0
   58.8500   30.0630   47.5880 C   0  0  0  0  0  0  0  0  0  0  0  0
   58.5810   28.6340   47.3740 C   0  0  0  0  0  0  0  0  0  0  0  0
   59.0540   27.7580   48.1460 O   0  0  0  0  0  0  0  0  0  0  0  0
   57.7940   28.2600   46.2220 N   0  0  0  0  0  0  0  0  0  0  0  0
   57.6180   26.8740   45.8700 C   0  0  0  0  0  0  0  0  0  0  0  0
   57.1680   25.9520   46.8270 C   0  0  0  0  0  0  0  0  0  0  0  0
   57.0050   24.6050   46.4910 C   0  0  0  0  0  0  0  0  0  0  0  0
   57.2880   24.1560   45.1910 C   0  0  0  0  0  0  0  0  0  0  0  0
   57.1270   22.7650   44.8520 N   0  0  0  0  0  0  0  0  0  0  0  0
   56.1660   21.9370   45.5890 C   0  0  0  0  0  0  0  0  0  0  0  0
   55.9470   20.6060   44.8680 C   0  0  0  0  0  0  0  0  0  0  0  0
   55.9410   20.8250   43.4730 O   0  0  0  0  0  0  0  0  0  0  0  0
   57.2550   21.0910   43.0140 C   0  0  0  0  0  0  0  0  0  0  0  0
   58.0160   22.1320   43.8680 C   0  0  0  0  0  0  0  0  0  0  0  0
   57.7520   25.0770   44.2370 C   0  0  0  0  0  0  0  0  0  0  0  0
   57.9150   26.4230   44.5740 C   0  0  0  0  0  0  0  0  0  0  0  0
   57.0350   29.3040   45.4990 C   0  0  0  0  0  0  0  0  0  0  0  0
   57.8470   30.6080   45.3420 C   0  0  0  0  0  0  0  0  0  0  0  0
   59.4780   29.4690   50.6610 C   0  0  0  0  0  0  0  0  0  0  0  0
   60.0740   28.9180   51.7990 C   0  0  0  0  0  0  0  0  0  0  0  0
   62.8729   26.8151   54.1543 H   0  0  0  0  0  0  0  0  0  0  0  0
   62.0757   26.3999   52.5991 H   0  0  0  0  0  0  0  0  0  0  0  0
   63.7009   27.1651   52.5991 H   0  0  0  0  0  0  0  0  0  0  0  0
   63.3493   29.5923   51.0761 H   0  0  0  0  0  0  0  0  0  0  0  0
   62.2836   30.5847   49.0551 H   0  0  0  0  0  0  0  0  0  0  0  0
   58.0635   33.0110   44.4982 H   0  0  0  0  0  0  0  0  0  0  0  0
   58.5979   35.5584   43.9638 H   0  0  0  0  0  0  0  0  0  0  0  0
   60.3448   34.6062   47.6924 H   0  0  0  0  0  0  0  0  0  0  0  0
   56.9419   26.2914   47.8486 H   0  0  0  0  0  0  0  0  0  0  0  0
   56.6525   23.8916   47.2505 H   0  0  0  0  0  0  0  0  0  0  0  0
   56.5550   21.7423   46.5993 H   0  0  0  0  0  0  0  0  0  0  0  0
   55.2068   22.4720   45.6503 H   0  0  0  0  0  0  0  0  0  0  0  0
   56.7586   19.9102   45.1270 H   0  0  0  0  0  0  0  0  0  0  0  0
   54.9835   20.1744   45.1768 H   0  0  0  0  0  0  0  0  0  0  0  0
   57.8239   20.1496   43.0265 H   0  0  0  0  0  0  0  0  0  0  0  0
   57.1616   21.5132   42.0025 H   0  0  0  0  0  0  0  0  0  0  0  0
   58.8379   21.6289   44.3985 H   0  0  0  0  0  0  0  0  0  0  0  0
   58.4064   22.9128   43.1987 H   0  0  0  0  0  0  0  0  0  0  0  0
   57.9885   24.7362   43.2182 H   0  0  0  0  0  0  0  0  0  0  0  0
   58.2788   27.1348   43.8183 H   0  0  0  0  0  0  0  0  0  0  0  0
   56.7749   28.9255   44.4995 H   0  0  0  0  0  0  0  0  0  0  0  0
   56.1333   29.5347   46.0852 H   0  0  0  0  0  0  0  0  0  0  0  0
   58.6345   30.4563   44.5892 H   0  0  0  0  0  0  0  0  0  0  0  0
   57.1698   31.4141   45.0231 H   0  0  0  0  0  0  0  0  0  0  0  0
   58.3836   29.4480   50.5524 H   0  0  0  0  0  0  0  0  0  0  0  0
   59.4478   28.4546   52.5756 H   0  0  0  0  0  0  0  0  0  0  0  0
  1  2  1  0
  2  3  1  0
  3  4  2  0
  4  5  1  0
  5  6  2  0
  6  7  1  0
  7  8  1  0
  8  9  2  0
  9 10  1  0
 10 11  1  0
 11 12  2  0
 12 13  1  0
 13 14  2  0
  9 15  1  0
 15 16  2  0
 16 17  1  0
 17 18  2  0
 17 19  1  0
 19 20  1  0
 20 21  2  0
 21 22  1  0
 22 23  2  0
 23 24  1  0
 24 25  1  0
 25 26  1  0
 26 27  1  0
 27 28  1  0
 28 29  1  0
 23 30  1  0
 30 31  2  0
 19 32  1  0
 32 33  1  0
  6 34  1  0
 34 35  2  0
 35  3  1  0
 16  7  1  0
 31 20  1  0
 14 10  1  0
 33 15  1  0
 29 24  1  0
  1 36  1  0
  1 37  1  0
  1 38  1  0
  4 39  1  0
  5 40  1  0
 11 41  1  0
 12 42  1  0
 14 43  1  0
 21 44  1  0
 22 45  1  0
 25 46  1  0
 25 47  1  0
 26 48  1  0
 26 49  1  0
 28 50  1  0
 28 51  1  0
 29 52  1  0
 29 53  1  0
 30 54  1  0
 31 55  1  0
 32 56  1  0
 32 57  1  0
 33 58  1  0
 33 59  1  0
 34 60  1  0
 35 61  1  0
M  END
>  <UniqueID>  (27) 
25

>  <SMILES>  (27) 
COc1ccc(-n2nc(-n3ccnc3)c3c2C(=O)N(c2ccc(N4CCOCC4)cc2)CC3)cc1

>  <Energy>  (27) 
157.3847835822579

>  <Genealogy>  (27) 
COc1ccc(-n2nc(-n3ccnc3)c3c2C(=O)N(c2ccc(N4CCOCC4)cc2)CC3)cc1 (3D coordinates assigned)
COc1ccc(-n2nc(-n3ccnc3)c3c2C(=O)N(c2ccc(N4CCOCC4)cc2)CC3)cc1 (nonaromatic ring conformer: 157.3847835822579 kcal/mol)

>  <smiles>  (27) 
COc1ccc(-n2nc(-n3ccnc3)c3c2C(=O)N(c2ccc(N4CCOCC4)cc2)CC3)cc1

>  <score_type>  (27) 
oracle

>  <origin>  (27) 
adg

>  <m_score__min__energy>  (27) 
-7.3899999999999997

>  <m_primary>  (27) 
energy

$$$$
27:0
     RDKit          3D

 53 57  0  0  0  0  0  0  0  0999 V2000
   58.5830   33.0470   43.9590 O   0  0  0  0  0  0  0  0  0  0  0  0
   57.8420   32.1960   44.5230 C   0  0  0  0  0  0  0  0  0  0  0  0
   56.9090   31.3710   43.6980 C   0  0  0  0  0  0  0  0  0  0  0  0
   56.3810   30.3350   44.4990 O   0  0  0  0  0  0  0  0  0  0  0  0
   56.9420   29.0820   44.1450 C   0  0  0  0  0  0  0  0  0  0  0  0
   58.0980   28.7090   45.1040 C   0  0  2  0  0  0  0  0  0  0  0  0
   58.2770   27.1650   45.1690 C   0  0  0  0  0  0  0  0  0  0  0  0
   59.4200   26.8020   46.1430 C   0  0  1  0  0  0  0  0  0  0  0  0
   60.7360   27.4470   45.6530 C   0  0  0  0  0  0  0  0  0  0  0  0
   60.5730   28.9820   45.6070 C   0  0  2  0  0  0  0  0  0  0  0  0
   60.2330   29.5080   47.0180 C   0  0  0  0  0  0  0  0  0  0  0  0
   58.9170   28.8640   47.5060 C   0  0  2  0  0  0  0  0  0  0  0  0
   59.0800   27.3300   47.5540 C   0  0  0  0  0  0  0  0  0  0  0  0
   57.7740   29.2300   46.5330 C   0  0  0  0  0  0  0  0  0  0  0  0
   59.4330   29.3510   44.6310 C   0  0  0  0  0  0  0  0  0  0  0  0
   57.8560   32.0430   45.9520 N   0  0  0  0  0  0  0  0  0  0  0  0
   58.8540   32.6090   46.8190 C   0  0  0  0  0  0  0  0  0  0  0  0
   58.4820   33.0400   48.0990 C   0  0  0  0  0  0  0  0  0  0  0  0
   59.4310   33.5680   48.9790 C   0  0  0  0  0  0  0  0  0  0  0  0
   60.7760   33.6570   48.5950 C   0  0  0  0  0  0  0  0  0  0  0  0
   61.7390   34.1820   49.4710 C   0  0  0  0  0  0  0  0  0  0  0  0
   63.0800   34.2510   49.0810 C   0  0  0  0  0  0  0  0  0  0  0  0
   63.4690   33.7940   47.8200 C   0  0  0  0  0  0  0  0  0  0  0  0
   62.5200   33.2700   46.9370 C   0  0  0  0  0  0  0  0  0  0  0  0
   61.1700   33.2010   47.3130 C   0  0  0  0  0  0  0  0  0  0  0  0
   60.2070   32.6730   46.4370 C   0  0  0  0  0  0  0  0  0  0  0  0
   56.0895   32.0029   43.3250 H   0  0  0  0  0  0  0  0  0  0  0  0
   57.4507   30.9404   42.8429 H   0  0  0  0  0  0  0  0  0  0  0  0
   56.1621   28.3084   44.2017 H   0  0  0  0  0  0  0  0  0  0  0  0
   57.3396   29.1493   43.1216 H   0  0  0  0  0  0  0  0  0  0  0  0
   57.3412   26.7050   45.5191 H   0  0  0  0  0  0  0  0  0  0  0  0
   58.5270   26.7897   44.1657 H   0  0  0  0  0  0  0  0  0  0  0  0
   59.5391   25.7091   46.1803 H   0  0  0  0  0  0  0  0  0  0  0  0
   61.5514   27.1857   46.3435 H   0  0  0  0  0  0  0  0  0  0  0  0
   60.9736   27.0739   44.6459 H   0  0  0  0  0  0  0  0  0  0  0  0
   61.5126   29.4389   45.2628 H   0  0  0  0  0  0  0  0  0  0  0  0
   61.0467   29.2491   47.7114 H   0  0  0  0  0  0  0  0  0  0  0  0
   60.1144   30.6010   46.9824 H   0  0  0  0  0  0  0  0  0  0  0  0
   58.6772   29.2381   48.5123 H   0  0  0  0  0  0  0  0  0  0  0  0
   59.8925   27.0695   48.2482 H   0  0  0  0  0  0  0  0  0  0  0  0
   58.1409   26.8729   47.8992 H   0  0  0  0  0  0  0  0  0  0  0  0
   56.8376   28.7713   46.8834 H   0  0  0  0  0  0  0  0  0  0  0  0
   57.6668   30.3243   46.5004 H   0  0  0  0  0  0  0  0  0  0  0  0
   59.3201   30.4447   44.5999 H   0  0  0  0  0  0  0  0  0  0  0  0
   59.6800   28.9723   43.6282 H   0  0  0  0  0  0  0  0  0  0  0  0
   57.0380   31.5630   46.3960 H   0  0  0  0  0  0  0  0  0  0  0  0
   57.4313   32.9620   48.4151 H   0  0  0  0  0  0  0  0  0  0  0  0
   59.1213   33.9147   49.9759 H   0  0  0  0  0  0  0  0  0  0  0  0
   61.4380   34.5400   50.4666 H   0  0  0  0  0  0  0  0  0  0  0  0
   63.8307   34.6664   49.7694 H   0  0  0  0  0  0  0  0  0  0  0  0
   64.5261   33.8465   47.5203 H   0  0  0  0  0  0  0  0  0  0  0  0
   62.8325   32.9110   45.9453 H   0  0  0  0  0  0  0  0  0  0  0  0
   60.5126   32.3071   45.4457 H   0  0  0  0  0  0  0  0  0  0  0  0
  1  2  2  0
  2  3  1  0
  3  4  1  0
  4  5  1  0
  6  5  1  6
  6  7  1  0
  7  8  1  0
  8  9  1  0
  9 10  1  0
 10 11  1  0
 11 12  1  0
 12 13  1  0
 12 14  1  0
 10 15  1  0
  2 16  1  0
 16 17  1  0
 17 18  2  0
 18 19  1  0
 19 20  2  0
 20 21  1  0
 21 22  2  0
 22 23  1  0
 23 24  2  0
 24 25  1  0
 25 26  2  0
 14  6  1  0
 26 17  1  0
 15  6  1  0
 25 20  1  0
 13  8  1  0
  3 27  1  0
  3 28  1  0
  5 29  1  0
  5 30  1  0
  7 31  1  0
  7 32  1  0
  8 33  1  1
  9 34  1  0
  9 35  1  0
 10 36  1  6
 11 37  1  0
 11 38  1  0
 12 39  1  1
 13 40  1  0
 13 41  1  0
 14 42  1  0
 14 43  1  0
 15 44  1  0
 15 45  1  0
 16 46  1  0
 18 47  1  0
 19 48  1  0
 21 49  1  0
 22 50  1  0
 23 51  1  0
 24 52  1  0
 26 53  1  0
M  END
>  <UniqueID>  (28) 
26

>  <SMILES>  (28) 
O=C(COCC12CC3CC(CC(C3)C1)C2)Nc1ccc2ccccc2c1

>  <Energy>  (28) 
60.63224444104036

>  <Genealogy>  (28) 
O=C(COCC12CC3CC(CC(C3)C1)C2)Nc1ccc2ccccc2c1 (3D coordinates assigned)
O=C(COCC12CC3CC(CC(C3)C1)C2)Nc1ccc2ccccc2c1 (nonaromatic ring conformer: 60.63224444104036 kcal/mol)

>  <smiles>  (28) 
O=C(COCC12CC3CC(CC(C3)C1)C2)Nc1ccc2ccccc2c1

>  <score_type>  (28) 
oracle

>  <origin>  (28) 
adg

>  <m_score__min__energy>  (28) 
-8.6400000000000006

>  <m_primary>  (28) 
energy

$$$$
28:0
     RDKit          3D

 52 54  0  0  0  0  0  0  0  0999 V2000
   67.6180   34.9770   51.9280 C   0  0  0  0  0  0  0  0  0  0  0  0
   67.8060   34.3950   50.5880 N   0  0  0  0  0  0  0  0  0  0  0  0
   69.1980   34.6010   50.1550 C   0  0  0  0  0  0  0  0  0  0  0  0
   67.4770   32.9520   50.5830 C   0  0  0  0  0  0  0  0  0  0  0  0
   65.9850   32.7260   50.8550 C   0  0  0  0  0  0  0  0  0  0  0  0
   65.1950   33.7810   50.3030 O   0  0  0  0  0  0  0  0  0  0  0  0
   64.0440   33.6160   49.5150 C   0  0  0  0  0  0  0  0  0  0  0  0
   62.8350   34.2840   49.7820 C   0  0  0  0  0  0  0  0  0  0  0  0
   61.7190   34.0790   48.9650 C   0  0  0  0  0  0  0  0  0  0  0  0
   61.7900   33.2090   47.8630 C   0  0  0  0  0  0  0  0  0  0  0  0
   60.6040   32.9900   46.9960 C   0  0  0  0  0  0  0  0  0  0  0  0
   60.0370   34.0590   46.2820 C   0  0  0  0  0  0  0  0  0  0  0  0
   58.9200   33.8540   45.4710 C   0  0  0  0  0  0  0  0  0  0  0  0
   58.3550   32.5820   45.3600 C   0  0  0  0  0  0  0  0  0  0  0  0
   58.9050   31.4950   46.0610 C   0  0  0  0  0  0  0  0  0  0  0  0
   58.3090   30.1400   45.9390 C   0  0  0  0  0  0  0  0  0  0  0  0
   58.8360   29.0580   46.6650 C   0  0  0  0  0  0  0  0  0  0  0  0
   58.2730   27.7840   46.5500 C   0  0  0  0  0  0  0  0  0  0  0  0
   57.1800   27.5670   45.6990 C   0  0  0  0  0  0  0  0  0  0  0  0
   56.5510   26.2000   45.6030 C   0  0  0  0  0  0  0  0  0  0  0  0
   55.2450   26.1760   46.2570 N   0  0  0  0  0  0  0  0  0  0  0  0
   56.6410   28.6460   44.9830 C   0  0  0  0  0  0  0  0  0  0  0  0
   57.2030   29.9200   45.0980 C   0  0  0  0  0  0  0  0  0  0  0  0
   60.0310   31.7100   46.8790 C   0  0  0  0  0  0  0  0  0  0  0  0
   63.0040   32.5510   47.5950 C   0  0  0  0  0  0  0  0  0  0  0  0
   64.1170   32.7570   48.4140 C   0  0  0  0  0  0  0  0  0  0  0  0
   67.8612   34.2241   52.6922 H   0  0  0  0  0  0  0  0  0  0  0  0
   68.2809   35.8469   52.0463 H   0  0  0  0  0  0  0  0  0  0  0  0
   66.5715   35.2947   52.0463 H   0  0  0  0  0  0  0  0  0  0  0  0
   69.8464   34.6970   51.0384 H   0  0  0  0  0  0  0  0  0  0  0  0
   69.5253   33.7415   49.5515 H   0  0  0  0  0  0  0  0  0  0  0  0
   69.2623   35.5184   49.5515 H   0  0  0  0  0  0  0  0  0  0  0  0
   67.7313   32.5288   49.6000 H   0  0  0  0  0  0  0  0  0  0  0  0
   68.0560   32.4585   51.3774 H   0  0  0  0  0  0  0  0  0  0  0  0
   65.6777   31.7722   50.4013 H   0  0  0  0  0  0  0  0  0  0  0  0
   65.8279   32.7053   51.9435 H   0  0  0  0  0  0  0  0  0  0  0  0
   62.7673   34.9713   50.6382 H   0  0  0  0  0  0  0  0  0  0  0  0
   60.7775   34.6029   49.1864 H   0  0  0  0  0  0  0  0  0  0  0  0
   60.4765   35.0642   46.3628 H   0  0  0  0  0  0  0  0  0  0  0  0
   58.4829   34.6978   44.9170 H   0  0  0  0  0  0  0  0  0  0  0  0
   57.4736   32.4296   44.7197 H   0  0  0  0  0  0  0  0  0  0  0  0
   59.6987   29.2152   47.3292 H   0  0  0  0  0  0  0  0  0  0  0  0
   58.6895   26.9473   47.1301 H   0  0  0  0  0  0  0  0  0  0  0  0
   56.4269   25.9351   44.5426 H   0  0  0  0  0  0  0  0  0  0  0  0
   57.2082   25.4763   46.1074 H   0  0  0  0  0  0  0  0  0  0  0  0
   55.1280   25.2560   46.7400 H   0  0  0  0  0  0  0  0  0  0  0  0
   55.2210   26.9240   46.9880 H   0  0  0  0  0  0  0  0  0  0  0  0
   55.7716   28.4884   44.3278 H   0  0  0  0  0  0  0  0  0  0  0  0
   56.7772   30.7578   44.5263 H   0  0  0  0  0  0  0  0  0  0  0  0
   60.4682   30.8666   47.4336 H   0  0  0  0  0  0  0  0  0  0  0  0
   63.0776   31.8695   46.7347 H   0  0  0  0  0  0  0  0  0  0  0  0
   65.0607   32.2380   48.1904 H   0  0  0  0  0  0  0  0  0  0  0  0
  1  2  1  0
  2  3  1  0
  2  4  1  0
  4  5  1  0
  5  6  1  0
  6  7  1  0
  7  8  2  0
  8  9  1  0
  9 10  2  0
 10 11  1  0
 11 12  2  0
 12 13  1  0
 13 14  2  0
 14 15  1  0
 15 16  1  0
 16 17  2  0
 17 18  1  0
 18 19  2  0
 19 20  1  0
 20 21  1  0
 19 22  1  0
 22 23  2  0
 15 24  2  0
 10 25  1  0
 25 26  2  0
 26  7  1  0
 24 11  1  0
 23 16  1  0
  1 27  1  0
  1 28  1  0
  1 29  1  0
  3 30  1  0
  3 31  1  0
  3 32  1  0
  4 33  1  0
  4 34  1  0
  5 35  1  0
  5 36  1  0
  8 37  1  0
  9 38  1  0
 12 39  1  0
 13 40  1  0
 14 41  1  0
 17 42  1  0
 18 43  1  0
 20 44  1  0
 20 45  1  0
 21 46  1  0
 21 47  1  0
 22 48  1  0
 23 49  1  0
 24 50  1  0
 25 51  1  0
 26 52  1  0
M  END
>  <UniqueID>  (29) 
27

>  <SMILES>  (29) 
CN(C)CCOc1ccc(-c2cccc(-c3ccc(CN)cc3)c2)cc1

>  <Energy>  (29) 
62.448310747397144

>  <Genealogy>  (29) 
CN(C)CCOc1ccc(-c2cccc(-c3ccc(CN)cc3)c2)cc1 (3D coordinates assigned)
CN(C)CCOc1ccc(-c2cccc(-c3ccc(CN)cc3)c2)cc1 (optimized conformer: 62.448310747397144 kcal/mol)

>  <smiles>  (29) 
CN(C)CCOc1ccc(-c2cccc(-c3ccc(CN)cc3)c2)cc1

>  <score_type>  (29) 
oracle

>  <origin>  (29) 
adg

>  <m_score__min__energy>  (29) 
-7.8600000000000003

>  <m_primary>  (29) 
energy

$$$$
29:0
     RDKit          3D

 45 48  0  0  0  0  0  0  0  0999 V2000
   55.8680   29.8090   43.9480 C   0  0  0  0  0  0  0  0  0  0  0  0
   56.2460   29.3680   45.2470 O   0  0  0  0  0  0  0  0  0  0  0  0
   57.2350   28.4050   45.5040 C   0  0  0  0  0  0  0  0  0  0  0  0
   57.0350   27.0370   45.2300 C   0  0  0  0  0  0  0  0  0  0  0  0
   58.0360   26.1060   45.5170 C   0  0  0  0  0  0  0  0  0  0  0  0
   59.2430   26.5240   46.0800 C   0  0  0  0  0  0  0  0  0  0  0  0
   59.4550   27.8760   46.3540 C   0  0  0  0  0  0  0  0  0  0  0  0
   58.4600   28.8240   46.0620 C   0  0  0  0  0  0  0  0  0  0  0  0
   58.6940   30.2150   46.3490 N   0  0  0  0  0  0  0  0  0  0  0  0
   58.9170   30.5840   47.6440 C   0  0  0  0  0  0  0  0  0  0  0  0
   59.1590   31.9200   47.9900 C   0  0  0  0  0  0  0  0  0  0  0  0
   59.4670   32.2280   49.4060 C   0  0  0  0  0  0  0  0  0  0  0  0
   58.5390   32.2140   50.2590 O   0  0  0  0  0  0  0  0  0  0  0  0
   60.8260   32.4200   49.8160 N   0  0  0  0  0  0  0  0  0  0  0  0
   61.9440   32.7020   48.9590 C   0  0  0  0  0  0  0  0  0  0  0  0
   62.2050   33.9910   48.4680 C   0  0  0  0  0  0  0  0  0  0  0  0
   63.2900   34.2040   47.6160 C   0  0  0  0  0  0  0  0  0  0  0  0
   64.0970   33.1240   47.2520 C   0  0  0  0  0  0  0  0  0  0  0  0
   63.8180   31.8770   47.7170 N   0  0  0  0  0  0  0  0  0  0  0  0
   62.7650   31.6460   48.5470 C   0  0  0  0  0  0  0  0  0  0  0  0
   59.1280   32.9060   46.9750 C   0  0  0  0  0  0  0  0  0  0  0  0
   59.2650   34.2820   47.2600 C   0  0  0  0  0  0  0  0  0  0  0  0
   59.2440   35.2280   46.2330 C   0  0  0  0  0  0  0  0  0  0  0  0
   59.0730   34.8250   44.9110 C   0  0  0  0  0  0  0  0  0  0  0  0
   58.9050   33.4740   44.6080 C   0  0  0  0  0  0  0  0  0  0  0  0
   58.9170   32.5040   45.6310 C   0  0  0  0  0  0  0  0  0  0  0  0
   58.7100   31.1420   45.3410 C   0  0  0  0  0  0  0  0  0  0  0  0
   58.5390   30.7720   44.1440 O   0  0  0  0  0  0  0  0  0  0  0  0
   55.1545   30.6415   44.0366 H   0  0  0  0  0  0  0  0  0  0  0  0
   56.7606   30.1477   43.4016 H   0  0  0  0  0  0  0  0  0  0  0  0
   55.3967   28.9787   43.4016 H   0  0  0  0  0  0  0  0  0  0  0  0
   56.0856   26.7007   44.7878 H   0  0  0  0  0  0  0  0  0  0  0  0
   57.8727   25.0403   45.2987 H   0  0  0  0  0  0  0  0  0  0  0  0
   60.0275   25.7874   46.3078 H   0  0  0  0  0  0  0  0  0  0  0  0
   60.4061   28.2011   46.8009 H   0  0  0  0  0  0  0  0  0  0  0  0
   58.9065   29.8168   48.4322 H   0  0  0  0  0  0  0  0  0  0  0  0
   61.5557   34.8316   48.7541 H   0  0  0  0  0  0  0  0  0  0  0  0
   63.5072   35.2128   47.2350 H   0  0  0  0  0  0  0  0  0  0  0  0
   64.9597   33.2823   46.5881 H   0  0  0  0  0  0  0  0  0  0  0  0
   64.4250   31.0770   47.4280 H   0  0  0  0  0  0  0  0  0  0  0  0
   62.5578   30.6237   48.8962 H   0  0  0  0  0  0  0  0  0  0  0  0
   59.3896   34.6123   48.3018 H   0  0  0  0  0  0  0  0  0  0  0  0
   59.3630   36.2957   46.4692 H   0  0  0  0  0  0  0  0  0  0  0  0
   59.0704   35.5732   44.1047 H   0  0  0  0  0  0  0  0  0  0  0  0
   58.7620   33.1629   43.5627 H   0  0  0  0  0  0  0  0  0  0  0  0
  1  2  1  0
  2  3  1  0
  3  4  2  0
  4  5  1  0
  5  6  2  0
  6  7  1  0
  7  8  2  0
  8  9  1  0
  9 10  1  0
 10 11  2  0
 11 12  1  0
 12 13  2  0
 12 14  1  0
 14 15  1  0
 15 16  2  0
 16 17  1  0
 17 18  2  0
 18 19  1  0
 19 20  2  0
 11 21  1  0
 21 22  2  0
 22 23  1  0
 23 24  2  0
 24 25  1  0
 25 26  2  0
 26 27  1  0
 27 28  2  0
  8  3  1  0
 27  9  1  0
 20 15  1  0
 26 21  1  0
  1 29  1  0
  1 30  1  0
  1 31  1  0
  4 32  1  0
  5 33  1  0
  6 34  1  0
  7 35  1  0
 10 36  1  0
 16 37  1  0
 17 38  1  0
 18 39  1  0
 19 40  1  0
 20 41  1  0
 22 42  1  0
 23 43  1  0
 24 44  1  0
 25 45  1  0
M  CHG  2  14  -1  19   1
M  END
>  <UniqueID>  (30) 
28

>  <SMILES>  (30) 
COc1ccccc1-n1cc(C(=O)[N-]c2ccc[nH+]c2)c2ccccc2c1=O

>  <Energy>  (30) 
73.41645951078343

>  <Genealogy>  (30) 
COc1ccccc1-n1cc(C(=O)[N-]c2ccc[nH+]c2)c2ccccc2c1=O (protonated)
COc1ccccc1-n1cc(C(=O)[N-]c2ccc[nH+]c2)c2ccccc2c1=O (3D coordinates assigned)
COc1ccccc1-n1cc(C(=O)[N-]c2ccc[nH+]c2)c2ccccc2c1=O (optimized conformer: 73.41645951078343 kcal/mol)

>  <smiles>  (30) 
COc1ccccc1-n1cc(C(=O)Nc2cccnc2)c2ccccc2c1=O

>  <score_type>  (30) 
oracle

>  <origin>  (30) 
adg

>  <m_score__min__energy>  (30) 
-7.71

>  <m_primary>  (30) 
energy

$$$$
30:0
     RDKit          3D

 72 75  0  0  0  0  0  0  0  0999 V2000
   56.8440   28.6690   45.2030 C   0  0  0  0  0  0  0  0  0  0  0  0
   55.5810   29.2340   44.9280 O   0  0  0  0  0  0  0  0  0  0  0  0
   55.6560   30.0950   43.8060 C   0  0  0  0  0  0  0  0  0  0  0  0
   57.1060   30.5440   43.5810 C   0  0  0  0  0  0  0  0  0  0  0  0
   57.4330   31.8950   44.2470 C   0  0  0  0  0  0  0  0  0  0  0  0
   58.5090   31.8240   45.2490 N   0  0  0  0  0  0  0  0  0  0  0  0
   58.8780   33.1400   45.7850 C   0  0  0  0  0  0  0  0  0  0  0  0
   58.3290   33.3050   47.2050 C   0  0  0  0  0  0  0  0  0  0  0  0
   59.3530   32.9860   48.2160 N   0  0  0  0  0  0  0  0  0  0  0  0
   60.7360   32.8430   47.8250 C   0  0  0  0  0  0  0  0  0  0  0  0
   61.3360   31.5720   47.8210 C   0  0  0  0  0  0  0  0  0  0  0  0
   62.6760   31.4220   47.4510 C   0  0  0  0  0  0  0  0  0  0  0  0
   63.4290   32.5390   47.0820 C   0  0  0  0  0  0  0  0  0  0  0  0
   62.8430   33.8080   47.0820 C   0  0  0  0  0  0  0  0  0  0  0  0
   61.5030   33.9620   47.4520 C   0  0  0  0  0  0  0  0  0  0  0  0
   58.9820   32.7840   49.5980 C   0  0  0  0  0  0  0  0  0  0  0  0
   59.4650   33.6370   50.6090 C   0  0  0  0  0  0  0  0  0  0  0  0
   59.1110   33.4280   51.9460 C   0  0  0  0  0  0  0  0  0  0  0  0
   58.2760   32.3570   52.2930 C   0  0  0  0  0  0  0  0  0  0  0  0
   57.9280   32.1270   53.5900 N   0  0  0  0  0  0  0  0  0  0  0  0
   57.1290   31.0780   53.9260 C   0  0  0  0  0  0  0  0  0  0  0  0
   56.6450   30.2150   52.9250 C   0  0  0  0  0  0  0  0  0  0  0  0
   55.7900   29.0430   53.2430 C   0  0  0  0  0  0  0  0  0  0  0  0
   54.4360   29.0020   52.8770 C   0  0  0  0  0  0  0  0  0  0  0  0
   53.6480   27.8910   53.1870 C   0  0  0  0  0  0  0  0  0  0  0  0
   54.1780   26.7740   53.8790 C   0  0  0  0  0  0  0  0  0  0  0  0
   53.3130   25.6200   54.2000 N   0  0  0  0  0  0  0  0  0  0  0  0
   54.1570   24.4630   54.5870 C   0  0  0  0  0  0  0  0  0  0  0  0
   52.5000   25.2630   53.0110 C   0  0  0  0  0  0  0  0  0  0  0  0
   52.3720   25.8840   55.3210 C   0  0  0  0  0  0  0  0  0  0  0  0
   55.5560   26.8260   54.2230 C   0  0  0  0  0  0  0  0  0  0  0  0
   56.3400   27.9380   53.9060 C   0  0  0  0  0  0  0  0  0  0  0  0
   57.0020   30.4510   51.6320 N   0  0  0  0  0  0  0  0  0  0  0  0
   57.7980   31.4950   51.2890 C   0  0  0  0  0  0  0  0  0  0  0  0
   58.1460   31.7090   49.9520 C   0  0  0  0  0  0  0  0  0  0  0  0
   56.9877   28.6047   46.2917 H   0  0  0  0  0  0  0  0  0  0  0  0
   56.8978   27.6610   44.7659 H   0  0  0  0  0  0  0  0  0  0  0  0
   57.6313   29.3007   44.7659 H   0  0  0  0  0  0  0  0  0  0  0  0
   55.2979   29.5612   42.9134 H   0  0  0  0  0  0  0  0  0  0  0  0
   55.0296   30.9804   43.9895 H   0  0  0  0  0  0  0  0  0  0  0  0
   57.7777   29.7780   43.9958 H   0  0  0  0  0  0  0  0  0  0  0  0
   57.2445   30.6715   42.4972 H   0  0  0  0  0  0  0  0  0  0  0  0
   57.7376   32.6028   43.4620 H   0  0  0  0  0  0  0  0  0  0  0  0
   56.5247   32.2161   44.7779 H   0  0  0  0  0  0  0  0  0  0  0  0
   59.3530   31.3610   44.8410 H   0  0  0  0  0  0  0  0  0  0  0  0
   59.9742   33.2293   45.8065 H   0  0  0  0  0  0  0  0  0  0  0  0
   58.4502   33.9227   45.1414 H   0  0  0  0  0  0  0  0  0  0  0  0
   58.0008   34.3457   47.3435 H   0  0  0  0  0  0  0  0  0  0  0  0
   57.4859   32.6104   47.3339 H   0  0  0  0  0  0  0  0  0  0  0  0
   60.7473   30.6892   48.1110 H   0  0  0  0  0  0  0  0  0  0  0  0
   63.1375   30.4235   47.4505 H   0  0  0  0  0  0  0  0  0  0  0  0
   64.4832   32.4200   46.7914 H   0  0  0  0  0  0  0  0  0  0  0  0
   63.4367   34.6870   46.7905 H   0  0  0  0  0  0  0  0  0  0  0  0
   61.0466   34.9628   47.4514 H   0  0  0  0  0  0  0  0  0  0  0  0
   60.1266   34.4752   50.3449 H   0  0  0  0  0  0  0  0  0  0  0  0
   59.4885   34.1052   52.7263 H   0  0  0  0  0  0  0  0  0  0  0  0
   58.2810   32.7520   54.3500 H   0  0  0  0  0  0  0  0  0  0  0  0
   56.8617   30.9047   54.9788 H   0  0  0  0  0  0  0  0  0  0  0  0
   53.9907   29.8530   52.3408 H   0  0  0  0  0  0  0  0  0  0  0  0
   52.5899   27.8832   52.8864 H   0  0  0  0  0  0  0  0  0  0  0  0
   54.2062   24.3956   55.6838 H   0  0  0  0  0  0  0  0  0  0  0  0
   53.7197   23.5384   54.1821 H   0  0  0  0  0  0  0  0  0  0  0  0
   55.1709   24.5971   54.1821 H   0  0  0  0  0  0  0  0  0  0  0  0
   51.5383   24.8407   53.3378 H   0  0  0  0  0  0  0  0  0  0  0  0
   52.3184   26.1642   52.4069 H   0  0  0  0  0  0  0  0  0  0  0  0
   53.0406   24.5195   52.4069 H   0  0  0  0  0  0  0  0  0  0  0  0
   52.8927   25.7379   56.2789 H   0  0  0  0  0  0  0  0  0  0  0  0
   52.0063   26.9194   55.2566 H   0  0  0  0  0  0  0  0  0  0  0  0
   51.5211   25.1899   55.2566 H   0  0  0  0  0  0  0  0  0  0  0  0
   56.0137   25.9749   54.7486 H   0  0  0  0  0  0  0  0  0  0  0  0
   57.4050   27.9462   54.1810 H   0  0  0  0  0  0  0  0  0  0  0  0
   57.7642   31.0333   49.1725 H   0  0  0  0  0  0  0  0  0  0  0  0
  1  2  1  0
  2  3  1  0
  3  4  1  0
  4  5  1  0
  5  6  1  0
  6  7  1  0
  7  8  1  0
  8  9  1  0
  9 10  1  0
 10 11  2  0
 11 12  1  0
 12 13  2  0
 13 14  1  0
 14 15  2  0
  9 16  1  0
 16 17  2  0
 17 18  1  0
 18 19  2  0
 19 20  1  0
 20 21  2  0
 21 22  1  0
 22 23  1  0
 23 24  2  0
 24 25  1  0
 25 26  2  0
 26 27  1  0
 27 28  1  0
 27 29  1  0
 27 30  1  0
 26 31  1  0
 31 32  2  0
 22 33  2  0
 33 34  1  0
 34 35  2  0
 15 10  1  0
 35 16  1  0
 34 19  1  0
 32 23  1  0
  1 36  1  0
  1 37  1  0
  1 38  1  0
  3 39  1  0
  3 40  1  0
  4 41  1  0
  4 42  1  0
  5 43  1  0
  5 44  1  0
  6 45  1  0
  7 46  1  0
  7 47  1  0
  8 48  1  0
  8 49  1  0
 11 50  1  0
 12 51  1  0
 13 52  1  0
 14 53  1  0
 15 54  1  0
 17 55  1  0
 18 56  1  0
 20 57  1  0
 21 58  1  0
 24 59  1  0
 25 60  1  0
 28 61  1  0
 28 62  1  0
 28 63  1  0
 29 64  1  0
 29 65  1  0
 29 66  1  0
 30 67  1  0
 30 68  1  0
 30 69  1  0
 31 70  1  0
 32 71  1  0
 35 72  1  0
M  CHG  2  20   1  27   1
M  END
>  <UniqueID>  (31) 
29

>  <SMILES>  (31) 
COCCCNCCN(c1ccccc1)c1ccc2[nH+]cc(-c3ccc([N+](C)(C)C)cc3)nc2c1

>  <Energy>  (31) 
101.97199549138936

>  <Genealogy>  (31) 
COCCCNCCN(c1ccccc1)c1ccc2[nH+]cc(-c3ccc([N+](C)(C)C)cc3)nc2c1 (protonated)
COCCCNCCN(c1ccccc1)c1ccc2[nH+]cc(-c3ccc([N+](C)(C)C)cc3)nc2c1 (3D coordinates assigned)
COCCCNCCN(c1ccccc1)c1ccc2[nH+]cc(-c3ccc([N+](C)(C)C)cc3)nc2c1 (optimized conformer: 101.97199549138936 kcal/mol)

>  <smiles>  (31) 
COCCCNCCN(c1ccccc1)c1ccc2ncc(-c3ccc([N+](C)(C)C)cc3)nc2c1

>  <score_type>  (31) 
oracle

>  <origin>  (31) 
adg

>  <m_score__min__energy>  (31) 
-6

>  <m_primary>  (31) 
energy

$$$$
31:0
     RDKit          3D

 52 55  0  0  0  0  0  0  0  0999 V2000
   60.6790   34.2300   49.5700 C   0  0  0  0  0  0  0  0  0  0  0  0
   60.2710   34.3470   48.2110 O   0  0  0  0  0  0  0  0  0  0  0  0
   59.7570   33.2910   47.4420 C   0  0  0  0  0  0  0  0  0  0  0  0
   58.4430   33.3060   46.9350 C   0  0  0  0  0  0  0  0  0  0  0  0
   57.9680   32.2380   46.1720 C   0  0  0  0  0  0  0  0  0  0  0  0
   58.7920   31.1390   45.9020 C   0  0  0  0  0  0  0  0  0  0  0  0
   58.3060   30.0440   45.1100 N   0  0  0  0  0  0  0  0  0  0  0  0
   57.7360   30.0910   43.8740 C   0  0  0  0  0  0  0  0  0  0  0  0
   57.4840   31.3500   43.1020 C   0  0  0  0  0  0  0  0  0  0  0  0
   57.4100   28.8620   43.4050 N   0  0  0  0  0  0  0  0  0  0  0  0
   57.8010   28.0200   44.3770 C   0  0  0  0  0  0  0  0  0  0  0  0
   57.6980   26.6320   44.4030 C   0  0  0  0  0  0  0  0  0  0  0  0
   58.1630   25.9540   45.5540 C   0  0  0  0  0  0  0  0  0  0  0  0
   58.0980   24.4770   45.6340 C   0  0  0  0  0  0  0  0  0  0  0  0
   58.4920   23.9060   46.6880 O   0  0  0  0  0  0  0  0  0  0  0  0
   57.5900   23.6800   44.5480 N   0  0  0  0  0  0  0  0  0  0  0  0
   56.4910   24.1500   43.7000 C   0  0  0  0  0  0  0  0  0  0  0  0
   55.5440   22.9850   43.3970 C   0  0  0  0  0  0  0  0  0  0  0  0
   56.2570   21.8780   42.8770 O   0  0  0  0  0  0  0  0  0  0  0  0
   57.1430   21.3730   43.8580 C   0  0  0  0  0  0  0  0  0  0  0  0
   58.2230   22.4040   44.2010 C   0  0  0  0  0  0  0  0  0  0  0  0
   58.7290   26.6970   46.6240 C   0  0  0  0  0  0  0  0  0  0  0  0
   58.8160   28.1000   46.5620 C   0  0  0  0  0  0  0  0  0  0  0  0
   58.3450   28.7290   45.4080 C   0  0  0  0  0  0  0  0  0  0  0  0
   60.1010   31.1190   46.4050 C   0  0  0  0  0  0  0  0  0  0  0  0
   60.5900   32.1920   47.1770 C   0  0  0  0  0  0  0  0  0  0  0  0
   61.8940   32.2020   47.6950 O   0  0  0  0  0  0  0  0  0  0  0  0
   62.9700   32.9620   47.1550 C   0  0  0  0  0  0  0  0  0  0  0  0
   59.8325   34.4727   50.2292 H   0  0  0  0  0  0  0  0  0  0  0  0
   61.0123   33.2001   49.7654 H   0  0  0  0  0  0  0  0  0  0  0  0
   61.5074   34.9268   49.7654 H   0  0  0  0  0  0  0  0  0  0  0  0
   57.7871   34.1646   47.1416 H   0  0  0  0  0  0  0  0  0  0  0  0
   56.9402   32.2601   45.7806 H   0  0  0  0  0  0  0  0  0  0  0  0
   57.3174   32.1821   43.8019 H   0  0  0  0  0  0  0  0  0  0  0  0
   58.3554   31.5724   42.4687 H   0  0  0  0  0  0  0  0  0  0  0  0
   56.5941   31.2199   42.4687 H   0  0  0  0  0  0  0  0  0  0  0  0
   56.9610   28.6210   42.4930 H   0  0  0  0  0  0  0  0  0  0  0  0
   57.2682   26.0794   43.5545 H   0  0  0  0  0  0  0  0  0  0  0  0
   55.9387   24.9447   44.2229 H   0  0  0  0  0  0  0  0  0  0  0  0
   56.8987   24.5450   42.7578 H   0  0  0  0  0  0  0  0  0  0  0  0
   55.0360   22.6829   44.3247 H   0  0  0  0  0  0  0  0  0  0  0  0
   54.8096   23.3143   42.6472 H   0  0  0  0  0  0  0  0  0  0  0  0
   56.5736   21.1315   44.7676 H   0  0  0  0  0  0  0  0  0  0  0  0
   57.6313   20.4712   43.4601 H   0  0  0  0  0  0  0  0  0  0  0  0
   58.8148   22.0442   45.0556 H   0  0  0  0  0  0  0  0  0  0  0  0
   58.8820   22.5467   43.3319 H   0  0  0  0  0  0  0  0  0  0  0  0
   59.1043   26.1687   47.5128 H   0  0  0  0  0  0  0  0  0  0  0  0
   59.2404   28.6811   47.3940 H   0  0  0  0  0  0  0  0  0  0  0  0
   60.7522   30.2577   46.1950 H   0  0  0  0  0  0  0  0  0  0  0  0
   63.5684   33.3847   47.9755 H   0  0  0  0  0  0  0  0  0  0  0  0
   63.6046   32.3107   46.5361 H   0  0  0  0  0  0  0  0  0  0  0  0
   62.5683   33.7779   46.5361 H   0  0  0  0  0  0  0  0  0  0  0  0
  1  2  1  0
  2  3  1  0
  3  4  2  0
  4  5  1  0
  5  6  2  0
  6  7  1  0
  7  8  1  0
  8  9  1  0
  8 10  2  0
 10 11  1  0
 11 12  2  0
 12 13  1  0
 13 14  1  0
 14 15  2  0
 14 16  1  0
 16 17  1  0
 17 18  1  0
 18 19  1  0
 19 20  1  0
 20 21  1  0
 13 22  2  0
 22 23  1  0
 23 24  2  0
  6 25  1  0
 25 26  2  0
 26 27  1  0
 27 28  1  0
 26  3  1  0
 24  7  1  0
 24 11  1  0
 21 16  1  0
  1 29  1  0
  1 30  1  0
  1 31  1  0
  4 32  1  0
  5 33  1  0
  9 34  1  0
  9 35  1  0
  9 36  1  0
 10 37  1  0
 12 38  1  0
 17 39  1  0
 17 40  1  0
 18 41  1  0
 18 42  1  0
 20 43  1  0
 20 44  1  0
 21 45  1  0
 21 46  1  0
 22 47  1  0
 23 48  1  0
 25 49  1  0
 28 50  1  0
 28 51  1  0
 28 52  1  0
M  CHG  1  10   1
M  END
>  <UniqueID>  (32) 
30

>  <SMILES>  (32) 
COc1ccc(-n2c(C)[nH+]c3cc(C(=O)N4CCOCC4)ccc32)cc1OC

>  <Energy>  (32) 
104.16067885471658

>  <Genealogy>  (32) 
COc1ccc(-n2c(C)[nH+]c3cc(C(=O)N4CCOCC4)ccc32)cc1OC (protonated)
COc1ccc(-n2c(C)[nH+]c3cc(C(=O)N4CCOCC4)ccc32)cc1OC (3D coordinates assigned)
COc1ccc(-n2c(C)[nH+]c3cc(C(=O)N4CCOCC4)ccc32)cc1OC (nonaromatic ring conformer: 104.16067885471658 kcal/mol)

>  <smiles>  (32) 
COc1ccc(-n2c(C)nc3cc(C(=O)N4CCOCC4)ccc32)cc1OC

>  <score_type>  (32) 
oracle

>  <origin>  (32) 
adg

>  <m_score__min__energy>  (32) 
-6.4199999999999999

>  <m_primary>  (32) 
energy

$$$$
32:0
     RDKit          3D

 41 43  0  0  0  0  0  0  0  0999 V2000
   60.3210   33.9860   48.2380 C   0  0  0  0  0  0  0  0  0  0  0  0
   60.9430   33.4460   47.0180 N   0  0  0  0  0  0  0  0  0  0  0  0
   62.4110   33.4850   47.1070 C   0  0  0  0  0  0  0  0  0  0  0  0
   60.4220   34.0670   45.7800 C   0  0  0  0  0  0  0  0  0  0  0  0
   58.8830   34.0740   45.6680 C   0  0  0  0  0  0  0  0  0  0  0  0
   58.4420   33.2500   44.5390 N   0  0  0  0  0  0  0  0  0  0  0  0
   57.8120   31.9640   44.6980 C   0  0  0  0  0  0  0  0  0  0  0  0
   56.7110   31.5780   43.9170 C   0  0  0  0  0  0  0  0  0  0  0  0
   56.1190   30.3280   44.1050 C   0  0  0  0  0  0  0  0  0  0  0  0
   56.6220   29.4290   45.0530 C   0  0  0  0  0  0  0  0  0  0  0  0
   57.7250   29.8060   45.8440 C   0  0  0  0  0  0  0  0  0  0  0  0
   58.3030   31.0740   45.6640 C   0  0  0  0  0  0  0  0  0  0  0  0
   58.2510   28.9500   46.8620 N   0  0  0  0  0  0  0  0  0  0  0  0
   58.6860   27.6250   46.5500 C   0  0  0  0  0  0  0  0  0  0  0  0
   60.0120   27.2620   46.8410 C   0  0  0  0  0  0  0  0  0  0  0  0
   60.4700   25.9710   46.5760 C   0  0  0  0  0  0  0  0  0  0  0  0
   59.6050   25.0250   46.0320 C   0  0  0  0  0  0  0  0  0  0  0  0
   58.2790   25.3650   45.7580 C   0  0  0  0  0  0  0  0  0  0  0  0
   57.8050   26.6680   46.0080 C   0  0  0  0  0  0  0  0  0  0  0  0
   56.3740   26.9600   45.7820 C   0  0  0  0  0  0  0  0  0  0  0  0
   55.5290   26.0490   45.9860 O   0  0  0  0  0  0  0  0  0  0  0  0
   55.9060   28.2060   45.2550 N   0  0  0  0  0  0  0  0  0  0  0  0
   60.8151   33.5570   49.1222 H   0  0  0  0  0  0  0  0  0  0  0  0
   60.4303   35.0805   48.2517 H   0  0  0  0  0  0  0  0  0  0  0  0
   59.2527   33.7240   48.2517 H   0  0  0  0  0  0  0  0  0  0  0  0
   62.7141   33.4931   48.1644 H   0  0  0  0  0  0  0  0  0  0  0  0
   62.8321   32.5977   46.6116 H   0  0  0  0  0  0  0  0  0  0  0  0
   62.7844   34.3934   46.6116 H   0  0  0  0  0  0  0  0  0  0  0  0
   60.7742   35.1085   45.7432 H   0  0  0  0  0  0  0  0  0  0  0  0
   60.7944   33.4580   44.9431 H   0  0  0  0  0  0  0  0  0  0  0  0
   58.4515   33.6739   46.5974 H   0  0  0  0  0  0  0  0  0  0  0  0
   58.5450   35.1079   45.5045 H   0  0  0  0  0  0  0  0  0  0  0  0
   58.5860   33.6090   43.5660 H   0  0  0  0  0  0  0  0  0  0  0  0
   56.3134   32.2633   43.1540 H   0  0  0  0  0  0  0  0  0  0  0  0
   55.2450   30.0453   43.4998 H   0  0  0  0  0  0  0  0  0  0  0  0
   59.1553   31.3736   46.2916 H   0  0  0  0  0  0  0  0  0  0  0  0
   58.7040   29.4130   47.6830 H   0  0  0  0  0  0  0  0  0  0  0  0
   60.6954   28.0027   47.2819 H   0  0  0  0  0  0  0  0  0  0  0  0
   61.5132   25.7008   46.7966 H   0  0  0  0  0  0  0  0  0  0  0  0
   59.9670   24.0086   45.8179 H   0  0  0  0  0  0  0  0  0  0  0  0
   57.5974   24.6080   45.3428 H   0  0  0  0  0  0  0  0  0  0  0  0
  1  2  1  0
  2  3  1  0
  2  4  1  0
  4  5  1  0
  5  6  1  0
  6  7  1  0
  7  8  2  0
  8  9  1  0
  9 10  2  0
 10 11  1  0
 11 12  2  0
 11 13  1  0
 13 14  1  0
 14 15  2  0
 15 16  1  0
 16 17  2  0
 17 18  1  0
 18 19  2  0
 19 20  1  0
 20 21  2  0
 20 22  1  0
 12  7  1  0
 19 14  1  0
 22 10  1  0
  1 23  1  0
  1 24  1  0
  1 25  1  0
  3 26  1  0
  3 27  1  0
  3 28  1  0
  4 29  1  0
  4 30  1  0
  5 31  1  0
  5 32  1  0
  6 33  1  0
  8 34  1  0
  9 35  1  0
 12 36  1  0
 13 37  1  0
 15 38  1  0
 16 39  1  0
 17 40  1  0
 18 41  1  0
M  CHG  1  22  -1
M  END
>  <UniqueID>  (33) 
31

>  <SMILES>  (33) 
CN(C)CCNc1ccc2c(c1)Nc1ccccc1C(=O)[N-]2

>  <Energy>  (33) 
62.70729701410689

>  <Genealogy>  (33) 
CN(C)CCNc1ccc2c(c1)Nc1ccccc1C(=O)[N-]2 (protonated)
CN(C)CCNc1ccc2c(c1)Nc1ccccc1C(=O)[N-]2 (3D coordinates assigned)
CN(C)CCNc1ccc2c(c1)Nc1ccccc1C(=O)[N-]2 (nonaromatic ring conformer: 62.70729701410689 kcal/mol)

>  <smiles>  (33) 
CN(C)CCNc1ccc2c(c1)Nc1ccccc1C(=O)N2

>  <score_type>  (33) 
oracle

>  <origin>  (33) 
adg

>  <m_score__min__energy>  (33) 
-9.3499999999999996

>  <m_primary>  (33) 
energy

$$$$
33:0
     RDKit          3D

 51 53  0  0  0  0  0  0  0  0999 V2000
   57.3950   31.5690   43.0740 C   0  0  0  0  0  0  0  0  0  0  0  0
   56.4090   30.4820   43.4910 C   0  0  0  0  0  0  0  0  0  0  0  0
   56.6310   30.0930   44.8330 O   0  0  0  0  0  0  0  0  0  0  0  0
   57.3710   28.8830   44.8920 C   0  0  0  0  0  0  0  0  0  0  0  0
   58.8560   29.1810   44.6730 C   0  0  0  0  0  0  0  0  0  0  0  0
   59.3220   30.3620   45.5410 C   0  0  0  0  0  0  0  0  0  0  0  0
   59.5760   29.9860   46.9800 C   0  0  0  0  0  0  0  0  0  0  0  0
   60.1110   28.7860   47.4490 C   0  0  0  0  0  0  0  0  0  0  0  0
   60.1560   28.7860   48.8000 N   0  0  0  0  0  0  0  0  0  0  0  0
   60.6660   27.7110   49.6460 C   0  0  0  0  0  0  0  0  0  0  0  0
   59.6450   29.9650   49.2010 C   0  0  0  0  0  0  0  0  0  0  0  0
   59.5000   30.4230   50.5130 C   0  0  0  0  0  0  0  0  0  0  0  0
   58.9390   31.6950   50.7130 C   0  0  0  0  0  0  0  0  0  0  0  0
   58.5270   32.4740   49.6150 C   0  0  0  0  0  0  0  0  0  0  0  0
   58.6690   31.9930   48.2980 C   0  0  0  0  0  0  0  0  0  0  0  0
   58.1900   32.8140   47.1770 C   0  0  0  0  0  0  0  0  0  0  0  0
   57.3940   32.3080   46.3400 O   0  0  0  0  0  0  0  0  0  0  0  0
   58.6240   34.1660   47.0020 N   0  0  0  0  0  0  0  0  0  0  0  0
   59.9220   34.5380   46.4530 C   0  0  0  0  0  0  0  0  0  0  0  0
   61.0070   33.9240   47.2890 C   0  0  0  0  0  0  0  0  0  0  0  0
   61.1290   34.2640   48.6470 C   0  0  0  0  0  0  0  0  0  0  0  0
   62.1080   33.6570   49.4380 C   0  0  0  0  0  0  0  0  0  0  0  0
   62.9650   32.7010   48.8860 C   0  0  0  0  0  0  0  0  0  0  0  0
   63.9080   32.1130   49.6620 F   0  0  0  0  0  0  0  0  0  0  0  0
   62.8390   32.3460   47.5380 C   0  0  0  0  0  0  0  0  0  0  0  0
   63.6570   31.4060   47.0030 F   0  0  0  0  0  0  0  0  0  0  0  0
   61.8600   32.9510   46.7430 C   0  0  0  0  0  0  0  0  0  0  0  0
   59.2570   30.7260   48.1200 C   0  0  0  0  0  0  0  0  0  0  0  0
   57.8224   32.0402   43.9714 H   0  0  0  0  0  0  0  0  0  0  0  0
   58.2020   31.1218   42.4750 H   0  0  0  0  0  0  0  0  0  0  0  0
   56.8715   32.3287   42.4750 H   0  0  0  0  0  0  0  0  0  0  0  0
   55.3835   30.8674   43.3918 H   0  0  0  0  0  0  0  0  0  0  0  0
   56.5524   29.6064   42.8408 H   0  0  0  0  0  0  0  0  0  0  0  0
   57.2324   28.4164   45.8784 H   0  0  0  0  0  0  0  0  0  0  0  0
   57.0155   28.1976   44.1085 H   0  0  0  0  0  0  0  0  0  0  0  0
   59.4433   28.2889   44.9363 H   0  0  0  0  0  0  0  0  0  0  0  0
   59.0050   29.4465   43.6160 H   0  0  0  0  0  0  0  0  0  0  0  0
   60.2546   30.7608   45.1152 H   0  0  0  0  0  0  0  0  0  0  0  0
   58.5116   31.1058   45.5385 H   0  0  0  0  0  0  0  0  0  0  0  0
   60.4485   27.9569   46.8097 H   0  0  0  0  0  0  0  0  0  0  0  0
   60.5365   27.9840   50.7037 H   0  0  0  0  0  0  0  0  0  0  0  0
   60.1114   26.7846   49.4359 H   0  0  0  0  0  0  0  0  0  0  0  0
   61.7343   27.5545   49.4359 H   0  0  0  0  0  0  0  0  0  0  0  0
   59.8165   29.8044   51.3658 H   0  0  0  0  0  0  0  0  0  0  0  0
   58.8207   32.0853   51.7346 H   0  0  0  0  0  0  0  0  0  0  0  0
   58.0897   33.4686   49.7869 H   0  0  0  0  0  0  0  0  0  0  0  0
   60.0026   34.1715   45.4190 H   0  0  0  0  0  0  0  0  0  0  0  0
   60.0256   35.6331   46.4600 H   0  0  0  0  0  0  0  0  0  0  0  0
   60.4519   35.0101   49.0886 H   0  0  0  0  0  0  0  0  0  0  0  0
   62.2044   33.9325   50.4986 H   0  0  0  0  0  0  0  0  0  0  0  0
   61.7578   32.6636   45.6861 H   0  0  0  0  0  0  0  0  0  0  0  0
  1  2  1  0
  2  3  1  0
  3  4  1  0
  4  5  1  0
  5  6  1  0
  6  7  1  0
  7  8  2  0
  8  9  1  0
  9 10  1  0
  9 11  1  0
 11 12  2  0
 12 13  1  0
 13 14  2  0
 14 15  1  0
 15 16  1  0
 16 17  2  0
 16 18  1  0
 18 19  1  0
 19 20  1  0
 20 21  2  0
 21 22  1  0
 22 23  2  0
 23 24  1  0
 23 25  1  0
 25 26  1  0
 25 27  2  0
 15 28  2  0
 28  7  1  0
 28 11  1  0
 27 20  1  0
  1 29  1  0
  1 30  1  0
  1 31  1  0
  2 32  1  0
  2 33  1  0
  4 34  1  0
  4 35  1  0
  5 36  1  0
  5 37  1  0
  6 38  1  0
  6 39  1  0
  8 40  1  0
 10 41  1  0
 10 42  1  0
 10 43  1  0
 12 44  1  0
 13 45  1  0
 14 46  1  0
 19 47  1  0
 19 48  1  0
 21 49  1  0
 22 50  1  0
 27 51  1  0
M  CHG  1  18  -1
M  END
>  <UniqueID>  (34) 
32

>  <SMILES>  (34) 
CCOCCCc1cn(C)c2cccc(C(=O)[N-]Cc3ccc(F)c(F)c3)c12

>  <Energy>  (34) 
86.18616740440093

>  <Genealogy>  (34) 
CCOCCCc1cn(C)c2cccc(C(=O)[N-]Cc3ccc(F)c(F)c3)c12 (protonated)
CCOCCCc1cn(C)c2cccc(C(=O)[N-]Cc3ccc(F)c(F)c3)c12 (3D coordinates assigned)
CCOCCCc1cn(C)c2cccc(C(=O)[N-]Cc3ccc(F)c(F)c3)c12 (optimized conformer: 86.18616740440093 kcal/mol)

>  <smiles>  (34) 
CCOCCCc1cn(C)c2cccc(C(=O)NCc3ccc(F)c(F)c3)c12

>  <score_type>  (34) 
oracle

>  <origin>  (34) 
adg

>  <m_score__min__energy>  (34) 
-9.0500000000000007

>  <m_primary>  (34) 
energy

$$$$
34:0
     RDKit          3D

 63 67  0  0  0  0  0  0  0  0999 V2000
   56.5110   30.1910   42.8910 C   0  0  0  0  0  0  0  0  0  0  0  0
   57.2740   29.6410   44.0580 C   0  0  0  0  0  0  0  0  0  0  0  0
   58.5310   30.1680   44.3930 C   0  0  0  0  0  0  0  0  0  0  0  0
   59.2260   29.6790   45.5040 C   0  0  0  0  0  0  0  0  0  0  0  0
   58.6750   28.6560   46.2870 C   0  0  0  0  0  0  0  0  0  0  0  0
   59.3830   28.1770   47.4410 N   0  0  0  0  0  0  0  0  0  0  0  0
   59.6740   26.7570   47.6290 C   0  0  0  0  0  0  0  0  0  0  0  0
   60.3790   26.6580   48.8960 N   0  0  0  0  0  0  0  0  0  0  0  0
   60.4810   27.9640   49.4350 C   0  0  0  0  0  0  0  0  0  0  0  0
   61.0240   28.1870   50.5490 O   0  0  0  0  0  0  0  0  0  0  0  0
   59.8570   29.0060   48.5600 C   0  0  2  0  0  0  0  0  0  0  0  0
   58.6720   29.7110   49.2770 C   0  0  0  0  0  0  0  0  0  0  0  0
   58.9860   31.1700   49.6610 C   0  0  0  0  0  0  0  0  0  0  0  0
   60.3530   31.3050   50.2160 N   0  0  2  0  0  0  0  0  0  0  0  0
   60.5490   32.6860   50.7440 C   0  0  0  0  0  0  0  0  0  0  0  0
   60.4160   33.7830   49.6660 C   0  0  0  0  0  0  0  0  0  0  0  0
   61.5510   33.8080   48.6630 C   0  0  0  0  0  0  0  0  0  0  0  0
   62.8730   33.8450   49.1460 C   0  0  0  0  0  0  0  0  0  0  0  0
   63.9560   33.8040   48.2660 C   0  0  0  0  0  0  0  0  0  0  0  0
   63.7370   33.7260   46.8920 C   0  0  0  0  0  0  0  0  0  0  0  0
   62.4350   33.7010   46.3910 C   0  0  0  0  0  0  0  0  0  0  0  0
   61.3330   33.7550   47.2610 C   0  0  0  0  0  0  0  0  0  0  0  0
   59.9770   33.7470   46.6700 C   0  0  0  0  0  0  0  0  0  0  0  0
   59.0220   32.8150   47.1120 C   0  0  0  0  0  0  0  0  0  0  0  0
   57.7430   32.7970   46.5480 C   0  0  0  0  0  0  0  0  0  0  0  0
   57.4130   33.6960   45.5300 C   0  0  0  0  0  0  0  0  0  0  0  0
   58.3650   34.6110   45.0700 C   0  0  0  0  0  0  0  0  0  0  0  0
   59.6460   34.6330   45.6320 C   0  0  0  0  0  0  0  0  0  0  0  0
   61.4010   30.9460   49.2110 C   0  0  0  0  0  0  0  0  0  0  0  0
   60.9090   30.0230   48.0770 C   0  0  0  0  0  0  0  0  0  0  0  0
   57.4000   28.1600   45.9800 C   0  0  0  0  0  0  0  0  0  0  0  0
   56.7040   28.6480   44.8710 C   0  0  0  0  0  0  0  0  0  0  0  0
   55.6693   30.7977   43.2563 H   0  0  0  0  0  0  0  0  0  0  0  0
   57.1771   30.8180   42.2801 H   0  0  0  0  0  0  0  0  0  0  0  0
   56.1267   29.3609   42.2801 H   0  0  0  0  0  0  0  0  0  0  0  0
   58.9710   30.9682   43.7798 H   0  0  0  0  0  0  0  0  0  0  0  0
   60.2088   30.0991   45.7640 H   0  0  0  0  0  0  0  0  0  0  0  0
   58.7402   26.1767   47.6646 H   0  0  0  0  0  0  0  0  0  0  0  0
   60.2755   26.3554   46.8002 H   0  0  0  0  0  0  0  0  0  0  0  0
   57.8012   29.7046   48.6049 H   0  0  0  0  0  0  0  0  0  0  0  0
   58.4745   29.1597   50.2082 H   0  0  0  0  0  0  0  0  0  0  0  0
   58.9006   31.8015   48.7644 H   0  0  0  0  0  0  0  0  0  0  0  0
   58.2683   31.4851   50.4328 H   0  0  0  0  0  0  0  0  0  0  0  0
   60.4190   30.6400   51.0220 H   0  0  0  0  0  0  0  0  0  0  0  0
   59.7951   32.8708   51.5235 H   0  0  0  0  0  0  0  0  0  0  0  0
   61.5758   32.7398   51.1349 H   0  0  0  0  0  0  0  0  0  0  0  0
   59.4759   33.6174   49.1193 H   0  0  0  0  0  0  0  0  0  0  0  0
   60.4380   34.7484   50.1927 H   0  0  0  0  0  0  0  0  0  0  0  0
   63.0546   33.9069   50.2291 H   0  0  0  0  0  0  0  0  0  0  0  0
   64.9835   33.8333   48.6577 H   0  0  0  0  0  0  0  0  0  0  0  0
   64.5920   33.6841   46.2012 H   0  0  0  0  0  0  0  0  0  0  0  0
   62.2698   33.6385   45.3053 H   0  0  0  0  0  0  0  0  0  0  0  0
   59.2819   32.0975   47.9042 H   0  0  0  0  0  0  0  0  0  0  0  0
   56.9951   32.0741   46.9060 H   0  0  0  0  0  0  0  0  0  0  0  0
   56.4046   33.6837   45.0908 H   0  0  0  0  0  0  0  0  0  0  0  0
   58.1063   35.3146   44.2650 H   0  0  0  0  0  0  0  0  0  0  0  0
   60.3960   35.3463   45.2597 H   0  0  0  0  0  0  0  0  0  0  0  0
   61.7766   31.8758   48.7589 H   0  0  0  0  0  0  0  0  0  0  0  0
   62.1779   30.3881   49.7542 H   0  0  0  0  0  0  0  0  0  0  0  0
   60.4630   30.6432   47.2855 H   0  0  0  0  0  0  0  0  0  0  0  0
   61.7762   29.4570   47.7061 H   0  0  0  0  0  0  0  0  0  0  0  0
   56.9462   27.3842   46.6142 H   0  0  0  0  0  0  0  0  0  0  0  0
   55.7053   28.2526   44.6338 H   0  0  0  0  0  0  0  0  0  0  0  0
  1  2  1  0
  2  3  2  0
  3  4  1  0
  4  5  2  0
  5  6  1  0
  6  7  1  0
  7  8  1  0
  8  9  1  0
  9 10  2  0
  9 11  1  0
 11 12  1  0
 12 13  1  0
 13 14  1  0
 14 15  1  0
 15 16  1  0
 16 17  1  0
 17 18  2  0
 18 19  1  0
 19 20  2  0
 20 21  1  0
 21 22  2  0
 22 23  1  0
 23 24  2  0
 24 25  1  0
 25 26  2  0
 26 27  1  0
 27 28  2  0
 14 29  1  0
 29 30  1  0
  5 31  1  0
 31 32  2  0
 32  2  1  0
 11  6  1  6
 22 17  1  0
 28 23  1  0
 30 11  1  0
  1 33  1  0
  1 34  1  0
  1 35  1  0
  3 36  1  0
  4 37  1  0
  7 38  1  0
  7 39  1  0
 12 40  1  0
 12 41  1  0
 13 42  1  0
 13 43  1  0
 14 44  1  1
 15 45  1  0
 15 46  1  0
 16 47  1  0
 16 48  1  0
 18 49  1  0
 19 50  1  0
 20 51  1  0
 21 52  1  0
 24 53  1  0
 25 54  1  0
 26 55  1  0
 27 56  1  0
 28 57  1  0
 29 58  1  0
 29 59  1  0
 30 60  1  0
 30 61  1  0
 31 62  1  0
 32 63  1  0
M  CHG  2   8  -1  14   1
M  END
>  <UniqueID>  (35) 
33

>  <SMILES>  (35) 
Cc1ccc(N2C[N-]C(=O)C23CC[NH+](CCc2ccccc2-c2ccccc2)CC3)cc1

>  <Energy>  (35) 
101.58031012258934

>  <Genealogy>  (35) 
Cc1ccc(N2C[N-]C(=O)C23CC[NH+](CCc2ccccc2-c2ccccc2)CC3)cc1 (protonated)
Cc1ccc(N2C[N-]C(=O)C23CC[NH+](CCc2ccccc2-c2ccccc2)CC3)cc1 (3D coordinates assigned)
Cc1ccc(N2C[N-]C(=O)C23CC[NH+](CCc2ccccc2-c2ccccc2)CC3)cc1 (nonaromatic ring conformer: 101.58031012258934 kcal/mol)

>  <smiles>  (35) 
Cc1ccc(N2CNC(=O)C23CCN(CCc2ccccc2-c2ccccc2)CC3)cc1

>  <score_type>  (35) 
oracle

>  <origin>  (35) 
adg

>  <m_score__min__energy>  (35) 
-9.5199999999999996

>  <m_primary>  (35) 
energy

$$$$
35:0
     RDKit          3D

 46 47  0  0  0  0  0  0  0  0999 V2000
   63.7080   32.9580   47.1150 C   0  0  0  0  0  0  0  0  0  0  0  0
   62.4260   33.6460   46.6480 C   0  0  0  0  0  0  0  0  0  0  0  0
   61.6950   34.2550   47.7780 N   0  0  0  0  0  0  0  0  0  0  0  0
   61.8690   33.4710   49.0210 C   0  0  0  0  0  0  0  0  0  0  0  0
   62.5710   34.3190   50.0770 C   0  0  0  0  0  0  0  0  0  0  0  0
   59.9880   34.4600   47.4100 S   0  0  0  0  0  0  0  0  0  0  0  0
   59.2580   34.9660   48.6240 O   0  0  0  0  0  0  0  0  0  0  0  0
   59.8290   35.4920   46.3290 O   0  0  0  0  0  0  0  0  0  0  0  0
   59.2300   32.9500   46.8940 C   0  0  0  0  0  0  0  0  0  0  0  0
   59.4680   31.7630   47.5980 C   0  0  0  0  0  0  0  0  0  0  0  0
   58.8780   30.5640   47.1860 C   0  0  0  0  0  0  0  0  0  0  0  0
   58.0380   30.5330   46.0580 C   0  0  0  0  0  0  0  0  0  0  0  0
   57.3980   29.2750   45.6040 C   0  0  0  0  0  0  0  0  0  0  0  0
   56.2610   29.3330   45.0610 O   0  0  0  0  0  0  0  0  0  0  0  0
   58.0470   28.0010   45.7780 N   0  0  0  0  0  0  0  0  0  0  0  0
   57.5250   26.7610   45.2720 C   0  0  0  0  0  0  0  0  0  0  0  0
   57.9080   26.3240   43.9970 C   0  0  0  0  0  0  0  0  0  0  0  0
   57.3960   25.1340   43.4700 C   0  0  0  0  0  0  0  0  0  0  0  0
   56.4900   24.3580   44.2140 C   0  0  0  0  0  0  0  0  0  0  0  0
   55.8990   23.1020   43.6250 C   0  0  0  0  0  0  0  0  0  0  0  0
   55.7230   22.1680   44.6290 F   0  0  0  0  0  0  0  0  0  0  0  0
   56.7360   22.5730   42.6580 F   0  0  0  0  0  0  0  0  0  0  0  0
   54.6740   23.3680   43.0370 F   0  0  0  0  0  0  0  0  0  0  0  0
   56.0670   24.8240   45.4700 C   0  0  0  0  0  0  0  0  0  0  0  0
   56.5800   26.0130   45.9960 C   0  0  0  0  0  0  0  0  0  0  0  0
   57.7840   31.7330   45.3690 C   0  0  0  0  0  0  0  0  0  0  0  0
   58.3760   32.9290   45.7820 C   0  0  0  0  0  0  0  0  0  0  0  0
   63.7363   32.9428   48.2145 H   0  0  0  0  0  0  0  0  0  0  0  0
   63.7306   31.9266   46.7333 H   0  0  0  0  0  0  0  0  0  0  0  0
   64.5800   33.5094   46.7333 H   0  0  0  0  0  0  0  0  0  0  0  0
   62.6860   34.4331   45.9249 H   0  0  0  0  0  0  0  0  0  0  0  0
   61.7766   32.8880   46.1857 H   0  0  0  0  0  0  0  0  0  0  0  0
   60.8830   33.1619   49.3981 H   0  0  0  0  0  0  0  0  0  0  0  0
   62.4805   32.5824   48.8055 H   0  0  0  0  0  0  0  0  0  0  0  0
   62.2819   33.9698   51.0792 H   0  0  0  0  0  0  0  0  0  0  0  0
   63.6605   34.2266   49.9566 H   0  0  0  0  0  0  0  0  0  0  0  0
   62.2768   35.3721   49.9566 H   0  0  0  0  0  0  0  0  0  0  0  0
   60.1236   31.7739   48.4812 H   0  0  0  0  0  0  0  0  0  0  0  0
   59.0721   29.6385   47.7479 H   0  0  0  0  0  0  0  0  0  0  0  0
   58.9230   27.9480   46.3430 H   0  0  0  0  0  0  0  0  0  0  0  0
   58.6172   26.9218   43.4057 H   0  0  0  0  0  0  0  0  0  0  0  0
   57.7041   24.8032   42.4672 H   0  0  0  0  0  0  0  0  0  0  0  0
   55.3260   24.2484   46.0442 H   0  0  0  0  0  0  0  0  0  0  0  0
   56.2425   26.3655   46.9818 H   0  0  0  0  0  0  0  0  0  0  0  0
   57.1132   31.7295   44.4972 H   0  0  0  0  0  0  0  0  0  0  0  0
   58.1711   33.8593   45.2319 H   0  0  0  0  0  0  0  0  0  0  0  0
  1  2  1  0
  2  3  1  0
  3  4  1  0
  4  5  1  0
  3  6  1  0
  6  7  2  0
  6  8  2  0
  6  9  1  0
  9 10  2  0
 10 11  1  0
 11 12  2  0
 12 13  1  0
 13 14  2  0
 13 15  1  0
 15 16  1  0
 16 17  2  0
 17 18  1  0
 18 19  2  0
 19 20  1  0
 20 21  1  0
 20 22  1  0
 20 23  1  0
 19 24  1  0
 24 25  2  0
 12 26  1  0
 26 27  2  0
 27  9  1  0
 25 16  1  0
  1 28  1  0
  1 29  1  0
  1 30  1  0
  2 31  1  0
  2 32  1  0
  4 33  1  0
  4 34  1  0
  5 35  1  0
  5 36  1  0
  5 37  1  0
 10 38  1  0
 11 39  1  0
 15 40  1  0
 17 41  1  0
 18 42  1  0
 24 43  1  0
 25 44  1  0
 26 45  1  0
 27 46  1  0
M  END
>  <UniqueID>  (36) 
34

>  <SMILES>  (36) 
CCN(CC)S(=O)(=O)c1ccc(C(=O)Nc2ccc(C(F)(F)F)cc2)cc1

>  <Energy>  (36) 
51.987085165647414

>  <Genealogy>  (36) 
CCN(CC)S(=O)(=O)c1ccc(C(=O)Nc2ccc(C(F)(F)F)cc2)cc1 (3D coordinates assigned)
CCN(CC)S(=O)(=O)c1ccc(C(=O)Nc2ccc(C(F)(F)F)cc2)cc1 (optimized conformer: 51.987085165647414 kcal/mol)

>  <smiles>  (36) 
CCN(CC)S(=O)(=O)c1ccc(C(=O)Nc2ccc(C(F)(F)F)cc2)cc1

>  <score_type>  (36) 
oracle

>  <origin>  (36) 
adg

>  <m_score__min__energy>  (36) 
-7.3300000000000001

>  <m_primary>  (36) 
energy

$$$$
36:0
     RDKit          3D

 48 50  0  0  0  0  0  0  0  0999 V2000
   58.5230   31.3920   49.7660 C   0  0  0  0  0  0  0  0  0  0  0  0
   59.2550   32.5890   49.5200 O   0  0  0  0  0  0  0  0  0  0  0  0
   59.4130   33.1810   48.2560 C   0  0  0  0  0  0  0  0  0  0  0  0
   58.4620   33.0040   47.2330 C   0  0  0  0  0  0  0  0  0  0  0  0
   58.6200   33.6360   45.9900 C   0  0  0  0  0  0  0  0  0  0  0  0
   57.5520   33.5080   44.9330 C   0  0  0  0  0  0  0  0  0  0  0  0
   57.8850   32.4020   43.9220 C   0  0  0  0  0  0  0  0  0  0  0  0
   57.2910   31.0760   44.3270 C   0  0  0  0  0  0  0  0  0  0  0  0
   57.9420   30.2710   45.2770 C   0  0  0  0  0  0  0  0  0  0  0  0
   57.3580   29.0760   45.7060 C   0  0  0  0  0  0  0  0  0  0  0  0
   56.1180   28.6780   45.1960 C   0  0  0  0  0  0  0  0  0  0  0  0
   55.5360   27.4930   45.6270 O   0  0  0  0  0  0  0  0  0  0  0  0
   55.4620   29.4770   44.2540 C   0  0  0  0  0  0  0  0  0  0  0  0
   56.0440   30.6720   43.8200 C   0  0  0  0  0  0  0  0  0  0  0  0
   59.7390   34.4480   45.7680 C   0  0  0  0  0  0  0  0  0  0  0  0
   60.6980   34.6130   46.7680 C   0  0  0  0  0  0  0  0  0  0  0  0
   60.5480   33.9820   48.0130 C   0  0  0  0  0  0  0  0  0  0  0  0
   61.6020   34.1750   49.0850 C   0  0  0  0  0  0  0  0  0  0  0  0
   62.0100   32.8860   49.7000 N   0  0  0  0  0  0  0  0  0  0  0  0
   62.9030   33.1080   50.8490 C   0  0  0  0  0  0  0  0  0  0  0  0
   64.3330   33.0880   50.3270 C   0  0  0  0  0  0  0  0  0  0  0  0
   64.2640   32.3790   48.9860 C   0  0  0  0  0  0  0  0  0  0  0  0
   62.7920   32.0490   48.7760 C   0  0  0  0  0  0  0  0  0  0  0  0
   58.4280   31.2367   50.8508 H   0  0  0  0  0  0  0  0  0  0  0  0
   57.5216   31.4761   49.3186 H   0  0  0  0  0  0  0  0  0  0  0  0
   59.0541   30.5389   49.3186 H   0  0  0  0  0  0  0  0  0  0  0  0
   57.5855   32.3633   47.4100 H   0  0  0  0  0  0  0  0  0  0  0  0
   56.5949   33.2697   45.4200 H   0  0  0  0  0  0  0  0  0  0  0  0
   57.4903   34.4625   44.3898 H   0  0  0  0  0  0  0  0  0  0  0  0
   57.4837   32.6863   42.9381 H   0  0  0  0  0  0  0  0  0  0  0  0
   58.9787   32.2900   43.8854 H   0  0  0  0  0  0  0  0  0  0  0  0
   58.9150   30.5826   45.6846 H   0  0  0  0  0  0  0  0  0  0  0  0
   57.8746   28.4473   46.4462 H   0  0  0  0  0  0  0  0  0  0  0  0
   54.4862   29.1647   43.8537 H   0  0  0  0  0  0  0  0  0  0  0  0
   55.5243   31.2978   43.0795 H   0  0  0  0  0  0  0  0  0  0  0  0
   59.8625   34.9579   44.8012 H   0  0  0  0  0  0  0  0  0  0  0  0
   61.5796   35.2432   46.5791 H   0  0  0  0  0  0  0  0  0  0  0  0
   62.4859   34.6489   48.6332 H   0  0  0  0  0  0  0  0  0  0  0  0
   61.1723   34.8084   49.8750 H   0  0  0  0  0  0  0  0  0  0  0  0
   61.1620   32.3630   50.0240 H   0  0  0  0  0  0  0  0  0  0  0  0
   62.6854   34.0822   51.3112 H   0  0  0  0  0  0  0  0  0  0  0  0
   62.7571   32.3271   51.6099 H   0  0  0  0  0  0  0  0  0  0  0  0
   64.7109   34.1133   50.2010 H   0  0  0  0  0  0  0  0  0  0  0  0
   65.0153   32.5790   51.0237 H   0  0  0  0  0  0  0  0  0  0  0  0
   64.6287   33.0373   48.1838 H   0  0  0  0  0  0  0  0  0  0  0  0
   64.8914   31.4756   48.9690 H   0  0  0  0  0  0  0  0  0  0  0  0
   62.5035   32.2674   47.7372 H   0  0  0  0  0  0  0  0  0  0  0  0
   62.6047   30.9825   48.9696 H   0  0  0  0  0  0  0  0  0  0  0  0
  1  2  1  0
  2  3  1  0
  3  4  2  0
  4  5  1  0
  5  6  1  0
  6  7  1  0
  7  8  1  0
  8  9  2  0
  9 10  1  0
 10 11  2  0
 11 12  1  0
 11 13  1  0
 13 14  2  0
  5 15  2  0
 15 16  1  0
 16 17  2  0
 17 18  1  0
 18 19  1  0
 19 20  1  0
 20 21  1  0
 21 22  1  0
 22 23  1  0
 17  3  1  0
 23 19  1  0
 14  8  1  0
  1 24  1  0
  1 25  1  0
  1 26  1  0
  4 27  1  0
  6 28  1  0
  6 29  1  0
  7 30  1  0
  7 31  1  0
  9 32  1  0
 10 33  1  0
 13 34  1  0
 14 35  1  0
 15 36  1  0
 16 37  1  0
 18 38  1  0
 18 39  1  0
 19 40  1  0
 20 41  1  0
 20 42  1  0
 21 43  1  0
 21 44  1  0
 22 45  1  0
 22 46  1  0
 23 47  1  0
 23 48  1  0
M  CHG  2  12  -1  19   1
M  END
>  <UniqueID>  (37) 
35

>  <SMILES>  (37) 
COc1cc(CCc2ccc([O-])cc2)ccc1C[NH+]1CCCC1

>  <Energy>  (37) 
48.117877783817825

>  <Genealogy>  (37) 
COc1cc(CCc2ccc([O-])cc2)ccc1C[NH+]1CCCC1 (protonated)
COc1cc(CCc2ccc([O-])cc2)ccc1C[NH+]1CCCC1 (3D coordinates assigned)
COc1cc(CCc2ccc([O-])cc2)ccc1C[NH+]1CCCC1 (nonaromatic ring conformer: 48.117877783817825 kcal/mol)

>  <smiles>  (37) 
COc1cc(CCc2ccc(O)cc2)ccc1CN1CCCC1

>  <score_type>  (37) 
oracle

>  <origin>  (37) 
adg

>  <m_score__min__energy>  (37) 
-9.4299999999999997

>  <m_primary>  (37) 
energy

$$$$
37:0
     RDKit          3D

 35 35  0  0  0  0  0  0  0  0999 V2000
   55.2365   30.7330   44.2777 H   0  0  0  0  0  0  0  0  0  0  0  0
   56.2970   30.4920   44.4430 C   0  0  0  0  0  0  0  0  0  0  0  0
   56.6320   29.2330   44.4070 N   0  0  0  0  0  0  0  0  0  0  0  0
   57.4240   28.5450   43.3920 C   0  0  0  0  0  0  0  0  0  0  0  0
   57.7417   29.2692   42.6274 H   0  0  0  0  0  0  0  0  0  0  0  0
   56.8095   27.7567   42.9328 H   0  0  0  0  0  0  0  0  0  0  0  0
   58.6750   27.8980   44.0330 C   0  0  0  0  0  0  0  0  0  0  0  0
   59.5396   28.5441   43.8210 H   0  0  0  0  0  0  0  0  0  0  0  0
   58.7611   26.8937   43.5925 H   0  0  0  0  0  0  0  0  0  0  0  0
   58.5970   27.7000   45.5070 N   0  0  2  0  0  0  0  0  0  0  0  0
   57.7690   28.2620   45.8210 H   0  0  0  0  0  0  0  0  0  0  0  0
   59.8120   28.2230   46.1990 C   0  0  0  0  0  0  0  0  0  0  0  0
   60.3700   27.3762   46.6250 H   0  0  0  0  0  0  0  0  0  0  0  0
   59.4820   28.9184   46.9848 H   0  0  0  0  0  0  0  0  0  0  0  0
   60.7320   28.9910   45.2440 C   0  0  0  0  0  0  0  0  0  0  0  0
   61.4483   29.5890   45.8266 H   0  0  0  0  0  0  0  0  0  0  0  0
   61.2796   28.2782   44.6100 H   0  0  0  0  0  0  0  0  0  0  0  0
   60.1285   29.6572   44.6100 H   0  0  0  0  0  0  0  0  0  0  0  0
   58.3150   26.2850   45.8630 C   0  0  0  0  0  0  0  0  0  0  0  0
   58.4617   25.6599   44.9699 H   0  0  0  0  0  0  0  0  0  0  0  0
   59.0030   25.9989   46.6722 H   0  0  0  0  0  0  0  0  0  0  0  0
   56.8770   26.0850   46.3760 C   0  0  0  0  0  0  0  0  0  0  0  0
   56.5467   25.0617   46.1441 H   0  0  0  0  0  0  0  0  0  0  0  0
   56.8564   26.2467   47.4639 H   0  0  0  0  0  0  0  0  0  0  0  0
   55.9790   27.0400   45.7330 N   0  0  0  0  0  0  0  0  0  0  0  0
   56.2460   27.0970   44.7230 H   0  0  0  0  0  0  0  0  0  0  0  0
   56.1630   27.9860   46.1410 H   0  0  0  0  0  0  0  0  0  0  0  0
   57.2180   31.6290   44.6870 C   0  0  0  0  0  0  0  0  0  0  0  0
   57.7780   32.2420   46.1570 S   0  0  0  0  0  0  0  0  0  0  0  0
   58.6860   33.4920   45.5050 C   0  0  0  0  0  0  0  0  0  0  0  0
   59.7080   34.7480   46.5090 Br  0  0  0  0  0  0  0  0  0  0  0  0
   58.5630   33.4590   44.1250 C   0  0  0  0  0  0  0  0  0  0  0  0
   59.0616   34.1752   43.4554 H   0  0  0  0  0  0  0  0  0  0  0  0
   57.7400   32.4220   43.6690 C   0  0  0  0  0  0  0  0  0  0  0  0
   57.5256   32.2498   42.6039 H   0  0  0  0  0  0  0  0  0  0  0  0
  1  2  1  0
  2  3  2  0
  3  4  1  0
  4  5  1  0
  4  6  1  0
  4  7  1  0
  7  8  1  0
  7  9  1  0
  7 10  1  0
 10 11  1  1
 10 12  1  0
 12 13  1  0
 12 14  1  0
 12 15  1  0
 15 16  1  0
 15 17  1  0
 15 18  1  0
 10 19  1  0
 19 20  1  0
 19 21  1  0
 19 22  1  0
 22 23  1  0
 22 24  1  0
 22 25  1  0
 25 26  1  0
 25 27  1  0
  2 28  1  0
 28 29  1  0
 29 30  1  0
 30 31  1  0
 30 32  2  0
 32 33  1  0
 32 34  1  0
 34 35  1  0
 34 28  2  0
M  CHG  1  10   1
M  END
>  <UniqueID>  (38) 
36

>  <SMILES>  (38) 
CC[N@H+](CCN)CC/N=C\c1ccc(Br)s1

>  <Energy>  (38) 
64.82278408793941

>  <Genealogy>  (38) 
CC[NH+](CCN)CCN=Cc1ccc(Br)s1 (protonated)
CC[N@H+](CCN)CCN=Cc1ccc(Br)s1 (chirality)
CC[N@H+](CCN)CC/N=C\c1ccc(Br)s1 (cis-trans isomerization)
CC[N@H+](CCN)CC/N=C\c1ccc(Br)s1 (3D coordinates assigned)
CC[N@H+](CCN)CC/N=C\c1ccc(Br)s1 (optimized conformer: 64.82278408793941 kcal/mol)

>  <smiles>  (38) 
CCN(CCN)CCN=Cc1ccc(Br)s1

>  <score_type>  (38) 
oracle

>  <origin>  (38) 
adg

>  <m_score__min__energy>  (38) 
-4.5199999999999996

>  <m_primary>  (38) 
energy

$$$$
38:0
     RDKit          3D

 38 39  0  0  0  0  0  0  0  0999 V2000
   59.9950   33.4450   50.2740 C   0  0  0  0  0  0  0  0  0  0  0  0
   61.2210   32.5280   50.2170 C   0  0  0  0  0  0  0  0  0  0  0  0
   61.6690   32.2870   48.8330 N   0  0  0  0  0  0  0  0  0  0  0  0
   63.0950   32.6290   48.6210 C   0  0  0  0  0  0  0  0  0  0  0  0
   63.4660   32.7540   47.1310 C   0  0  0  0  0  0  0  0  0  0  0  0
   62.6520   33.8370   46.4120 C   0  0  0  0  0  0  0  0  0  0  0  0
   61.3440   33.9370   46.9750 O   0  0  0  0  0  0  0  0  0  0  0  0
   60.1370   33.7630   46.2750 C   0  0  0  0  0  0  0  0  0  0  0  0
   59.4670   34.8270   45.6390 C   0  0  0  0  0  0  0  0  0  0  0  0
   58.2720   34.5990   44.9510 C   0  0  0  0  0  0  0  0  0  0  0  0
   57.7270   33.3140   44.8950 C   0  0  0  0  0  0  0  0  0  0  0  0
   58.3800   32.2470   45.5260 C   0  0  0  0  0  0  0  0  0  0  0  0
   59.5940   32.4720   46.1990 C   0  0  0  0  0  0  0  0  0  0  0  0
   60.2620   31.3990   46.8060 O   0  0  0  0  0  0  0  0  0  0  0  0
   59.9540   30.0410   46.4860 C   0  0  0  0  0  0  0  0  0  0  0  0
   58.4390   29.8290   46.4050 C   0  0  0  0  0  0  0  0  0  0  0  0
   57.8100   30.8830   45.5380 C   0  0  0  0  0  0  0  0  0  0  0  0
   56.7710   30.6130   44.8800 O   0  0  0  0  0  0  0  0  0  0  0  0
   59.7325   33.6414   51.3240 H   0  0  0  0  0  0  0  0  0  0  0  0
   60.2241   34.3952   49.7695 H   0  0  0  0  0  0  0  0  0  0  0  0
   59.1482   32.9568   49.7695 H   0  0  0  0  0  0  0  0  0  0  0  0
   62.0418   32.9977   50.7789 H   0  0  0  0  0  0  0  0  0  0  0  0
   60.9403   31.5592   50.6559 H   0  0  0  0  0  0  0  0  0  0  0  0
   61.0780   32.8480   48.1770 H   0  0  0  0  0  0  0  0  0  0  0  0
   61.4910   31.2830   48.5970 H   0  0  0  0  0  0  0  0  0  0  0  0
   63.3032   33.5888   49.1163 H   0  0  0  0  0  0  0  0  0  0  0  0
   63.6971   31.8113   49.0438 H   0  0  0  0  0  0  0  0  0  0  0  0
   64.5340   33.0055   47.0533 H   0  0  0  0  0  0  0  0  0  0  0  0
   63.2411   31.7913   46.6486 H   0  0  0  0  0  0  0  0  0  0  0  0
   63.1655   34.8042   46.5158 H   0  0  0  0  0  0  0  0  0  0  0  0
   62.5618   33.5671   45.3495 H   0  0  0  0  0  0  0  0  0  0  0  0
   59.8868   35.8427   45.6842 H   0  0  0  0  0  0  0  0  0  0  0  0
   57.7589   35.4342   44.4519 H   0  0  0  0  0  0  0  0  0  0  0  0
   56.7846   33.1397   44.3552 H   0  0  0  0  0  0  0  0  0  0  0  0
   60.4055   29.7883   45.5153 H   0  0  0  0  0  0  0  0  0  0  0  0
   60.3579   29.3929   47.2777 H   0  0  0  0  0  0  0  0  0  0  0  0
   58.2339   28.8369   45.9765 H   0  0  0  0  0  0  0  0  0  0  0  0
   58.0137   29.8979   47.4171 H   0  0  0  0  0  0  0  0  0  0  0  0
  1  2  1  0
  2  3  1  0
  3  4  1  0
  4  5  1  0
  5  6  1  0
  6  7  1  0
  7  8  1  0
  8  9  2  0
  9 10  1  0
 10 11  2  0
 11 12  1  0
 12 13  2  0
 13 14  1  0
 14 15  1  0
 15 16  1  0
 16 17  1  0
 17 18  2  0
 13  8  1  0
 17 12  1  0
  1 19  1  0
  1 20  1  0
  1 21  1  0
  2 22  1  0
  2 23  1  0
  3 24  1  0
  3 25  1  0
  4 26  1  0
  4 27  1  0
  5 28  1  0
  5 29  1  0
  6 30  1  0
  6 31  1  0
  9 32  1  0
 10 33  1  0
 11 34  1  0
 15 35  1  0
 15 36  1  0
 16 37  1  0
 16 38  1  0
M  CHG  1   3   1
M  END
>  <UniqueID>  (39) 
37

>  <SMILES>  (39) 
CC[NH2+]CCCOc1cccc2c1OCCC2=O

>  <Energy>  (39) 
36.22189658819196

>  <Genealogy>  (39) 
CC[NH2+]CCCOc1cccc2c1OCCC2=O (protonated)
CC[NH2+]CCCOc1cccc2c1OCCC2=O (3D coordinates assigned)
CC[NH2+]CCCOc1cccc2c1OCCC2=O (nonaromatic ring conformer: 36.22189658819196 kcal/mol)

>  <smiles>  (39) 
CCNCCCOc1cccc2c1OCCC2=O

>  <score_type>  (39) 
oracle

>  <origin>  (39) 
adg

>  <m_score__min__energy>  (39) 
-3.4900000000000002

>  <m_primary>  (39) 
energy

$$$$
39:0
     RDKit          3D

 43 44  0  0  0  0  0  0  0  0999 V2000
   59.2900   34.9740   47.3730 C   0  0  0  0  0  0  0  0  0  0  0  0
   59.7470   33.6200   47.0160 N   0  0  0  0  0  0  0  0  0  0  0  0
   58.6450   32.8880   46.3640 C   0  0  0  0  0  0  0  0  0  0  0  0
   60.2190   32.9080   48.2240 C   0  0  0  0  0  0  0  0  0  0  0  0
   59.2450   33.1160   49.3950 C   0  0  0  0  0  0  0  0  0  0  0  0
   58.3080   31.9020   49.6010 C   0  0  0  0  0  0  0  0  0  0  0  0
   57.4110   32.0530   50.7580 N   0  0  0  0  0  0  0  0  0  0  0  0
   58.0630   31.6890   52.0210 C   0  0  0  0  0  0  0  0  0  0  0  0
   57.7010   30.2830   52.3780 C   0  0  0  0  0  0  0  0  0  0  0  0
   58.5410   29.5480   52.9620 O   0  0  0  0  0  0  0  0  0  0  0  0
   56.4220   29.7640   51.9990 N   0  0  0  0  0  0  0  0  0  0  0  0
   55.2680   29.7920   52.8490 C   0  0  0  0  0  0  0  0  0  0  0  0
   55.3040   29.0490   54.0340 C   0  0  0  0  0  0  0  0  0  0  0  0
   54.2280   29.0730   54.9220 C   0  0  0  0  0  0  0  0  0  0  0  0
   53.0930   29.8300   54.6310 C   0  0  0  0  0  0  0  0  0  0  0  0
   53.0170   30.5550   53.4330 C   0  0  0  0  0  0  0  0  0  0  0  0
   51.8610   31.2940   53.1300 C   0  0  0  0  0  0  0  0  0  0  0  0
   51.7660   31.9860   51.9200 C   0  0  0  0  0  0  0  0  0  0  0  0
   50.6190   32.7130   51.6250 O   0  0  0  0  0  0  0  0  0  0  0  0
   52.8180   31.9410   51.0040 C   0  0  0  0  0  0  0  0  0  0  0  0
   53.9770   31.2170   51.2940 C   0  0  0  0  0  0  0  0  0  0  0  0
   54.1040   30.5310   52.5190 C   0  0  0  0  0  0  0  0  0  0  0  0
   59.2566   35.0729   48.4680 H   0  0  0  0  0  0  0  0  0  0  0  0
   59.9870   35.7174   46.9588 H   0  0  0  0  0  0  0  0  0  0  0  0
   58.2851   35.1429   46.9588 H   0  0  0  0  0  0  0  0  0  0  0  0
   57.9892   32.4524   47.1322 H   0  0  0  0  0  0  0  0  0  0  0  0
   58.0650   33.5810   45.7368 H   0  0  0  0  0  0  0  0  0  0  0  0
   59.0589   32.0847   45.7368 H   0  0  0  0  0  0  0  0  0  0  0  0
   60.2933   31.8330   48.0032 H   0  0  0  0  0  0  0  0  0  0  0  0
   61.2031   33.3091   48.5081 H   0  0  0  0  0  0  0  0  0  0  0  0
   59.8265   33.2744   50.3152 H   0  0  0  0  0  0  0  0  0  0  0  0
   58.6184   33.9893   49.1610 H   0  0  0  0  0  0  0  0  0  0  0  0
   57.6944   31.7763   48.6967 H   0  0  0  0  0  0  0  0  0  0  0  0
   58.9448   31.0258   49.7927 H   0  0  0  0  0  0  0  0  0  0  0  0
   56.5610   31.4580   50.6210 H   0  0  0  0  0  0  0  0  0  0  0  0
   59.1542   31.7698   51.9076 H   0  0  0  0  0  0  0  0  0  0  0  0
   57.7273   32.3691   52.8178 H   0  0  0  0  0  0  0  0  0  0  0  0
   56.1895   28.4398   54.2680 H   0  0  0  0  0  0  0  0  0  0  0  0
   54.2749   28.4927   55.8553 H   0  0  0  0  0  0  0  0  0  0  0  0
   52.2552   29.8583   55.3433 H   0  0  0  0  0  0  0  0  0  0  0  0
   51.0281   31.3278   53.8478 H   0  0  0  0  0  0  0  0  0  0  0  0
   52.7341   32.4788   50.0481 H   0  0  0  0  0  0  0  0  0  0  0  0
   54.7965   31.1819   50.5611 H   0  0  0  0  0  0  0  0  0  0  0  0
  1  2  1  0
  2  3  1  0
  2  4  1  0
  4  5  1  0
  5  6  1  0
  6  7  1  0
  7  8  1  0
  8  9  1  0
  9 10  2  0
  9 11  1  0
 11 12  1  0
 12 13  2  0
 13 14  1  0
 14 15  2  0
 15 16  1  0
 16 17  2  0
 17 18  1  0
 18 19  1  0
 18 20  2  0
 20 21  1  0
 21 22  2  0
 22 12  1  0
 22 16  1  0
  1 23  1  0
  1 24  1  0
  1 25  1  0
  3 26  1  0
  3 27  1  0
  3 28  1  0
  4 29  1  0
  4 30  1  0
  5 31  1  0
  5 32  1  0
  6 33  1  0
  6 34  1  0
  7 35  1  0
  8 36  1  0
  8 37  1  0
 13 38  1  0
 14 39  1  0
 15 40  1  0
 17 41  1  0
 20 42  1  0
 21 43  1  0
M  CHG  2  11  -1  19  -1
M  END
>  <UniqueID>  (40) 
38

>  <SMILES>  (40) 
CN(C)CCCNCC(=O)[N-]c1cccc2cc([O-])ccc12

>  <Energy>  (40) 
52.660594430770686

>  <Genealogy>  (40) 
CN(C)CCCNCC(=O)[N-]c1cccc2cc([O-])ccc12 (protonated)
CN(C)CCCNCC(=O)[N-]c1cccc2cc([O-])ccc12 (3D coordinates assigned)
CN(C)CCCNCC(=O)[N-]c1cccc2cc([O-])ccc12 (optimized conformer: 52.660594430770686 kcal/mol)

>  <smiles>  (40) 
CN(C)CCCNCC(=O)Nc1cccc2cc(O)ccc12

>  <score_type>  (40) 
oracle

>  <origin>  (40) 
adg

>  <m_score__min__energy>  (40) 
-11.15

>  <m_primary>  (40) 
energy

$$$$
40:0
     RDKit          3D

 48 50  0  0  0  0  0  0  0  0999 V2000
   60.5460   30.3740   47.8380 C   0  0  0  0  0  0  0  0  0  0  0  0
   60.4050   29.1090   47.1020 N   0  0  0  0  0  0  0  0  0  0  0  0
   60.6060   29.3280   45.6480 C   0  0  0  0  0  0  0  0  0  0  0  0
   59.9300   28.2250   44.8220 C   0  0  0  0  0  0  0  0  0  0  0  0
   58.4570   28.1910   45.0300 N   0  0  0  0  0  0  0  0  0  0  0  0
   57.7290   28.9200   43.9720 C   0  0  0  0  0  0  0  0  0  0  0  0
   56.4450   29.5210   44.4950 C   0  0  0  0  0  0  0  0  0  0  0  0
   55.6100   28.7790   45.0740 O   0  0  0  0  0  0  0  0  0  0  0  0
   56.2240   30.9380   44.4900 N   0  0  0  0  0  0  0  0  0  0  0  0
   57.1590   31.9130   44.9590 C   0  0  0  0  0  0  0  0  0  0  0  0
   57.4780   33.0090   44.1500 C   0  0  0  0  0  0  0  0  0  0  0  0
   58.3270   34.0130   44.6280 C   0  0  0  0  0  0  0  0  0  0  0  0
   58.8820   33.9200   45.9150 C   0  0  0  0  0  0  0  0  0  0  0  0
   59.7120   35.0230   46.4500 C   0  0  0  0  0  0  0  0  0  0  0  0
   59.9340   36.0300   45.7300 O   0  0  0  0  0  0  0  0  0  0  0  0
   60.3190   34.9610   47.7500 N   0  0  0  0  0  0  0  0  0  0  0  0
   61.4730   34.1870   48.1210 C   0  0  0  0  0  0  0  0  0  0  0  0
   62.2080   33.5480   47.1130 C   0  0  0  0  0  0  0  0  0  0  0  0
   63.3260   32.7750   47.4360 C   0  0  0  0  0  0  0  0  0  0  0  0
   63.7350   32.6560   48.7670 C   0  0  0  0  0  0  0  0  0  0  0  0
   64.8260   31.9130   49.0770 F   0  0  0  0  0  0  0  0  0  0  0  0
   63.0220   33.3090   49.7770 C   0  0  0  0  0  0  0  0  0  0  0  0
   61.8980   34.0800   49.4570 C   0  0  0  0  0  0  0  0  0  0  0  0
   58.6320   32.7730   46.6860 C   0  0  0  0  0  0  0  0  0  0  0  0
   57.7720   31.7790   46.2140 C   0  0  0  0  0  0  0  0  0  0  0  0
   58.0490   28.6910   46.3660 C   0  0  0  0  0  0  0  0  0  0  0  0
   59.1280   28.4320   47.4280 C   0  0  0  0  0  0  0  0  0  0  0  0
   60.5237   30.1735   48.9193 H   0  0  0  0  0  0  0  0  0  0  0  0
   61.5025   30.8479   47.5726 H   0  0  0  0  0  0  0  0  0  0  0  0
   59.7173   31.0469   47.5726 H   0  0  0  0  0  0  0  0  0  0  0  0
   60.1749   30.3007   45.3687 H   0  0  0  0  0  0  0  0  0  0  0  0
   61.6857   29.3078   45.4386 H   0  0  0  0  0  0  0  0  0  0  0  0
   60.1333   28.4054   43.7561 H   0  0  0  0  0  0  0  0  0  0  0  0
   60.3400   27.2582   45.1493 H   0  0  0  0  0  0  0  0  0  0  0  0
   58.3705   29.7268   43.5879 H   0  0  0  0  0  0  0  0  0  0  0  0
   57.4756   28.2067   43.1739 H   0  0  0  0  0  0  0  0  0  0  0  0
   57.0600   33.0815   43.1351 H   0  0  0  0  0  0  0  0  0  0  0  0
   58.5611   34.8798   43.9926 H   0  0  0  0  0  0  0  0  0  0  0  0
   61.9028   33.6558   46.0617 H   0  0  0  0  0  0  0  0  0  0  0  0
   63.8852   32.2593   46.6415 H   0  0  0  0  0  0  0  0  0  0  0  0
   63.3446   33.2168   50.8246 H   0  0  0  0  0  0  0  0  0  0  0  0
   61.3464   34.6030   50.2522 H   0  0  0  0  0  0  0  0  0  0  0  0
   59.1162   32.6569   47.6669 H   0  0  0  0  0  0  0  0  0  0  0  0
   57.5745   30.8880   46.8282 H   0  0  0  0  0  0  0  0  0  0  0  0
   57.8673   29.7739   46.3003 H   0  0  0  0  0  0  0  0  0  0  0  0
   57.1377   28.1538   46.6676 H   0  0  0  0  0  0  0  0  0  0  0  0
   58.7671   28.8038   48.3983 H   0  0  0  0  0  0  0  0  0  0  0  0
   59.3176   27.3490   47.4610 H   0  0  0  0  0  0  0  0  0  0  0  0
  1  2  1  0
  2  3  1  0
  3  4  1  0
  4  5  1  0
  5  6  1  0
  6  7  1  0
  7  8  2  0
  7  9  1  0
  9 10  1  0
 10 11  2  0
 11 12  1  0
 12 13  2  0
 13 14  1  0
 14 15  2  0
 14 16  1  0
 16 17  1  0
 17 18  2  0
 18 19  1  0
 19 20  2  0
 20 21  1  0
 20 22  1  0
 22 23  2  0
 13 24  1  0
 24 25  2  0
  5 26  1  0
 26 27  1  0
 27  2  1  0
 25 10  1  0
 23 17  1  0
  1 28  1  0
  1 29  1  0
  1 30  1  0
  3 31  1  0
  3 32  1  0
  4 33  1  0
  4 34  1  0
  6 35  1  0
  6 36  1  0
 11 37  1  0
 12 38  1  0
 18 39  1  0
 19 40  1  0
 22 41  1  0
 23 42  1  0
 24 43  1  0
 25 44  1  0
 26 45  1  0
 26 46  1  0
 27 47  1  0
 27 48  1  0
M  CHG  2   9  -1  16  -1
M  END
>  <UniqueID>  (41) 
39

>  <SMILES>  (41) 
CN1CCN(CC(=O)[N-]c2ccc(C(=O)[N-]c3ccc(F)cc3)cc2)CC1

>  <Energy>  (41) 
72.45016843267943

>  <Genealogy>  (41) 
CN1CCN(CC(=O)[N-]c2ccc(C(=O)[N-]c3ccc(F)cc3)cc2)CC1 (protonated)
CN1CCN(CC(=O)[N-]c2ccc(C(=O)[N-]c3ccc(F)cc3)cc2)CC1 (3D coordinates assigned)
CN1CCN(CC(=O)[N-]c2ccc(C(=O)[N-]c3ccc(F)cc3)cc2)CC1 (nonaromatic ring conformer: 72.45016843267943 kcal/mol)

>  <smiles>  (41) 
CN1CCN(CC(=O)Nc2ccc(C(=O)Nc3ccc(F)cc3)cc2)CC1

>  <score_type>  (41) 
oracle

>  <origin>  (41) 
adg

>  <m_score__min__energy>  (41) 
-11.5

>  <m_primary>  (41) 
energy

$$$$
41:0
     RDKit          3D

 36 37  0  0  0  0  0  0  0  0999 V2000
   59.6690   33.6730   50.1270 C   0  0  0  0  0  0  0  0  0  0  0  0
   59.7980   34.2400   49.0720 C   0  0  0  0  0  0  0  0  0  0  0  0
   59.9520   34.9290   47.7850 C   0  0  0  0  0  0  0  0  0  0  0  0
   60.3370   33.9680   46.7430 N   0  0  0  0  0  0  0  0  0  0  0  0
   61.7440   33.8270   46.3440 C   0  0  0  0  0  0  0  0  0  0  0  0
   62.5360   33.2110   47.4640 C   0  0  0  0  0  0  0  0  0  0  0  0
   62.1160   32.0010   48.0410 C   0  0  0  0  0  0  0  0  0  0  0  0
   62.8780   31.4010   49.0490 C   0  0  0  0  0  0  0  0  0  0  0  0
   64.0680   31.9960   49.4770 C   0  0  0  0  0  0  0  0  0  0  0  0
   64.4990   33.1920   48.8960 C   0  0  0  0  0  0  0  0  0  0  0  0
   63.7400   33.7960   47.8890 C   0  0  0  0  0  0  0  0  0  0  0  0
   59.3430   33.1080   46.1530 C   0  0  0  0  0  0  0  0  0  0  0  0
   59.3270   31.7370   46.4490 C   0  0  0  0  0  0  0  0  0  0  0  0
   58.3530   30.9040   45.8890 C   0  0  0  0  0  0  0  0  0  0  0  0
   57.3800   31.4270   45.0300 C   0  0  0  0  0  0  0  0  0  0  0  0
   56.4230   30.5510   44.4960 O   0  0  0  0  0  0  0  0  0  0  0  0
   56.5930   29.8110   43.2920 C   0  0  0  0  0  0  0  0  0  0  0  0
   57.3930   32.8030   44.7340 C   0  0  0  0  0  0  0  0  0  0  0  0
   58.3680   33.6350   45.2920 C   0  0  0  0  0  0  0  0  0  0  0  0
   59.5512   33.1553   51.0904 H   0  0  0  0  0  0  0  0  0  0  0  0
   58.9983   35.4027   47.5091 H   0  0  0  0  0  0  0  0  0  0  0  0
   60.7363   35.6948   47.8772 H   0  0  0  0  0  0  0  0  0  0  0  0
   61.8079   33.1823   45.4550 H   0  0  0  0  0  0  0  0  0  0  0  0
   62.1558   34.8207   46.1140 H   0  0  0  0  0  0  0  0  0  0  0  0
   61.1855   31.5241   47.6993 H   0  0  0  0  0  0  0  0  0  0  0  0
   62.5400   30.4591   49.5057 H   0  0  0  0  0  0  0  0  0  0  0  0
   64.6651   31.5233   50.2707 H   0  0  0  0  0  0  0  0  0  0  0  0
   65.4368   33.6588   49.2315 H   0  0  0  0  0  0  0  0  0  0  0  0
   64.0871   34.7325   47.4281 H   0  0  0  0  0  0  0  0  0  0  0  0
   60.0847   31.3146   47.1253 H   0  0  0  0  0  0  0  0  0  0  0  0
   58.3518   29.8297   46.1256 H   0  0  0  0  0  0  0  0  0  0  0  0
   56.8332   28.7654   43.5351 H   0  0  0  0  0  0  0  0  0  0  0  0
   55.6632   29.8468   42.7053 H   0  0  0  0  0  0  0  0  0  0  0  0
   57.4139   30.2489   42.7053 H   0  0  0  0  0  0  0  0  0  0  0  0
   56.6327   33.2255   44.0607 H   0  0  0  0  0  0  0  0  0  0  0  0
   58.3710   34.7091   45.0548 H   0  0  0  0  0  0  0  0  0  0  0  0
  1  2  3  0
  2  3  1  0
  3  4  1  0
  4  5  1  0
  5  6  1  0
  6  7  2  0
  7  8  1  0
  8  9  2  0
  9 10  1  0
 10 11  2  0
  4 12  1  0
 12 13  2  0
 13 14  1  0
 14 15  2  0
 15 16  1  0
 16 17  1  0
 15 18  1  0
 18 19  2  0
 11  6  1  0
 19 12  1  0
  1 20  1  0
  3 21  1  0
  3 22  1  0
  5 23  1  0
  5 24  1  0
  7 25  1  0
  8 26  1  0
  9 27  1  0
 10 28  1  0
 11 29  1  0
 13 30  1  0
 14 31  1  0
 17 32  1  0
 17 33  1  0
 17 34  1  0
 18 35  1  0
 19 36  1  0
M  END
>  <UniqueID>  (42) 
40

>  <SMILES>  (42) 
C#CCN(Cc1ccccc1)c1ccc(OC)cc1

>  <Energy>  (42) 
34.86819618247498

>  <Genealogy>  (42) 
C#CCN(Cc1ccccc1)c1ccc(OC)cc1 (3D coordinates assigned)
C#CCN(Cc1ccccc1)c1ccc(OC)cc1 (optimized conformer: 34.86819618247498 kcal/mol)

>  <smiles>  (42) 
C#CCN(Cc1ccccc1)c1ccc(OC)cc1

>  <score_type>  (42) 
oracle

>  <origin>  (42) 
adg

>  <m_score__min__energy>  (42) 
-5.9800000000000004

>  <m_primary>  (42) 
energy

$$$$
42:0
     RDKit          3D

 45 48  0  0  0  0  0  0  0  0999 V2000
   65.1690   31.6550   50.7430 C   0  0  0  0  0  0  0  0  0  0  0  0
   64.0250   31.2430   50.0030 O   0  0  0  0  0  0  0  0  0  0  0  0
   63.4510   31.9870   48.9630 C   0  0  0  0  0  0  0  0  0  0  0  0
   64.1230   33.0460   48.3080 C   0  0  0  0  0  0  0  0  0  0  0  0
   63.4690   33.7710   47.2850 C   0  0  0  0  0  0  0  0  0  0  0  0
   62.1930   33.4520   46.9110 N   0  0  0  0  0  0  0  0  0  0  0  0
   61.5700   32.4080   47.5200 C   0  0  0  0  0  0  0  0  0  0  0  0
   62.1570   31.7040   48.5310 C   0  0  0  0  0  0  0  0  0  0  0  0
   61.1890   30.8070   48.9450 C   0  0  0  0  0  0  0  0  0  0  0  0
   61.3010   29.8110   50.0520 C   0  0  0  0  0  0  0  0  0  0  0  0
   60.0730   30.9900   48.1980 N   0  0  0  0  0  0  0  0  0  0  0  0
   60.3110   31.9630   47.3230 N   0  0  0  0  0  0  0  0  0  0  0  0
   59.3510   32.4020   46.3490 C   0  0  0  0  0  0  0  0  0  0  0  0
   59.3730   33.7300   45.8970 C   0  0  0  0  0  0  0  0  0  0  0  0
   58.4140   34.1810   44.9860 C   0  0  0  0  0  0  0  0  0  0  0  0
   57.4230   33.3120   44.5220 C   0  0  0  0  0  0  0  0  0  0  0  0
   57.3890   31.9840   44.9610 C   0  0  0  0  0  0  0  0  0  0  0  0
   56.3440   31.1200   44.4870 N   0  0  0  0  0  0  0  0  0  0  0  0
   56.2580   29.7090   44.7280 C   0  0  0  0  0  0  0  0  0  0  0  0
   55.1530   29.1310   44.5490 O   0  0  0  0  0  0  0  0  0  0  0  0
   57.4410   28.9130   45.1310 C   0  0  0  0  0  0  0  0  0  0  0  0
   57.4350   28.2040   46.3440 C   0  0  0  0  0  0  0  0  0  0  0  0
   58.5470   27.4480   46.7270 C   0  0  0  0  0  0  0  0  0  0  0  0
   59.6690   27.3800   45.8950 C   0  0  0  0  0  0  0  0  0  0  0  0
   61.0640   26.4310   46.3760 Cl  0  0  0  0  0  0  0  0  0  0  0  0
   59.6780   28.0700   44.6790 C   0  0  0  0  0  0  0  0  0  0  0  0
   58.5700   28.8320   44.2970 C   0  0  0  0  0  0  0  0  0  0  0  0
   58.3400   31.5390   45.8960 C   0  0  0  0  0  0  0  0  0  0  0  0
   64.9564   31.5784   51.8195 H   0  0  0  0  0  0  0  0  0  0  0  0
   66.0217   31.0075   50.4907 H   0  0  0  0  0  0  0  0  0  0  0  0
   65.4130   32.6975   50.4907 H   0  0  0  0  0  0  0  0  0  0  0  0
   65.1530   33.3051   48.5942 H   0  0  0  0  0  0  0  0  0  0  0  0
   63.9919   34.5997   46.7852 H   0  0  0  0  0  0  0  0  0  0  0  0
   61.7120   34.0260   46.1860 H   0  0  0  0  0  0  0  0  0  0  0  0
   61.2426   30.3304   51.0199 H   0  0  0  0  0  0  0  0  0  0  0  0
   60.4789   29.0841   49.9758 H   0  0  0  0  0  0  0  0  0  0  0  0
   62.2640   29.2848   49.9758 H   0  0  0  0  0  0  0  0  0  0  0  0
   60.1488   34.4195   46.2614 H   0  0  0  0  0  0  0  0  0  0  0  0
   58.4393   35.2226   44.6333 H   0  0  0  0  0  0  0  0  0  0  0  0
   56.6671   33.6732   43.8092 H   0  0  0  0  0  0  0  0  0  0  0  0
   56.5501   28.2440   46.9962 H   0  0  0  0  0  0  0  0  0  0  0  0
   58.5393   26.9059   47.6841 H   0  0  0  0  0  0  0  0  0  0  0  0
   60.5583   28.0132   44.0219 H   0  0  0  0  0  0  0  0  0  0  0  0
   58.5815   29.3713   43.3384 H   0  0  0  0  0  0  0  0  0  0  0  0
   58.2918   30.5076   46.2754 H   0  0  0  0  0  0  0  0  0  0  0  0
  1  2  1  0
  2  3  1  0
  3  4  2  0
  4  5  1  0
  5  6  2  0
  6  7  1  0
  7  8  2  0
  8  9  1  0
  9 10  1  0
  9 11  2  0
 11 12  1  0
 12 13  1  0
 13 14  2  0
 14 15  1  0
 15 16  2  0
 16 17  1  0
 17 18  1  0
 18 19  1  0
 19 20  2  0
 19 21  1  0
 21 22  2  0
 22 23  1  0
 23 24  2  0
 24 25  1  0
 24 26  1  0
 26 27  2  0
 17 28  2  0
  8  3  1  0
 28 13  1  0
 12  7  1  0
 27 21  1  0
  1 29  1  0
  1 30  1  0
  1 31  1  0
  4 32  1  0
  5 33  1  0
  6 34  1  0
 10 35  1  0
 10 36  1  0
 10 37  1  0
 14 38  1  0
 15 39  1  0
 16 40  1  0
 22 41  1  0
 23 42  1  0
 26 43  1  0
 27 44  1  0
 28 45  1  0
M  CHG  2   6   1  18  -1
M  END
>  <UniqueID>  (43) 
41

>  <SMILES>  (43) 
COc1cc[nH+]c2c1c(C)nn2-c1cccc([N-]C(=O)c2ccc(Cl)cc2)c1

>  <Energy>  (43) 
97.36551594932766

>  <Genealogy>  (43) 
COc1cc[nH+]c2c1c(C)nn2-c1cccc([N-]C(=O)c2ccc(Cl)cc2)c1 (protonated)
COc1cc[nH+]c2c1c(C)nn2-c1cccc([N-]C(=O)c2ccc(Cl)cc2)c1 (3D coordinates assigned)
COc1cc[nH+]c2c1c(C)nn2-c1cccc([N-]C(=O)c2ccc(Cl)cc2)c1 (optimized conformer: 97.36551594932766 kcal/mol)

>  <smiles>  (43) 
COc1ccnc2c1c(C)nn2-c1cccc(NC(=O)c2ccc(Cl)cc2)c1

>  <score_type>  (43) 
oracle

>  <origin>  (43) 
adg

>  <m_score__min__energy>  (43) 
-9.0600000000000005

>  <m_primary>  (43) 
energy

$$$$
43:0
     RDKit          3D

 50 52  0  0  1  0  0  0  0  0999 V2000
   61.1610   33.7670   50.7860 C   0  0  0  0  0  0  0  0  0  0  0  0
   61.0920   33.8440   49.3120 C   0  0  0  0  0  0  0  0  0  0  0  0
   59.8630   34.0050   48.7170 C   0  0  0  0  0  0  0  0  0  0  0  0
   59.8060   34.0780   47.3440 C   0  0  0  0  0  0  0  0  0  0  0  0
   58.6970   34.2270   46.7570 N   0  0  0  0  0  0  0  0  0  0  0  0
   58.2740   33.6170   45.2280 S   0  0  0  0  0  0  0  0  0  0  0  0
   59.1880   34.0530   44.1170 O   0  0  0  0  0  0  0  0  0  0  0  0
   56.9340   34.2790   44.8840 O   0  0  0  0  0  0  0  0  0  0  0  0
   57.9670   31.9150   45.1660 C   0  0  0  0  0  0  0  0  0  0  0  0
   58.1820   31.0550   46.2390 C   0  0  0  0  0  0  0  0  0  0  0  0
   57.9250   29.7040   46.1680 C   0  0  0  0  0  0  0  0  0  0  0  0
   57.4380   29.1720   45.0010 C   0  0  0  0  0  0  0  0  0  0  0  0
   57.1440   27.7850   44.8340 N   0  0  0  0  0  0  0  0  0  0  0  0
   58.1930   26.8730   45.1210 C   0  0  0  0  0  0  0  0  0  0  0  0
   59.2930   27.4030   45.5010 O   0  0  0  0  0  0  0  0  0  0  0  0
   58.0590   25.4410   45.0020 C   0  0  0  0  0  0  0  0  0  0  0  0
   58.9390   24.5690   45.6110 C   0  0  0  0  0  0  0  0  0  0  0  0
   58.7970   23.1960   45.4890 C   0  0  0  0  0  0  0  0  0  0  0  0
   57.7390   22.6980   44.7310 C   0  0  0  0  0  0  0  0  0  0  0  0
   57.5760   21.2350   44.5940 C   0  0  0  0  0  0  0  0  0  0  0  0
   56.8440   23.5450   44.1130 C   0  0  0  0  0  0  0  0  0  0  0  0
   55.7510   23.0890   43.3310 N   0  0  0  0  0  0  0  0  0  0  0  0
   54.6080   23.5160   43.5690 O   0  0  0  0  0  0  0  0  0  0  0  0
   55.8780   22.1840   42.3050 O   0  0  0  0  0  0  0  0  0  0  0  0
   57.0250   24.9210   44.2630 C   0  0  0  0  0  0  0  0  0  0  0  0
   57.2060   29.9850   43.8990 C   0  0  0  0  0  0  0  0  0  0  0  0
   57.4780   31.3300   44.0170 C   0  0  0  0  0  0  0  0  0  0  0  0
   60.9240   33.9940   46.6020 N   0  0  0  0  0  0  0  0  0  0  0  0
   62.1330   33.8360   47.1920 C   0  0  0  0  0  0  0  0  0  0  0  0
   63.3900   33.7410   46.3750 C   0  0  0  0  0  0  0  0  0  0  0  0
   62.2030   33.7630   48.5320 N   0  0  0  0  0  0  0  0  0  0  0  0
   60.4877   34.5184   51.2243 H   0  0  0  0  0  0  0  0  0  0  0  0
   60.8544   32.7633   51.1155 H   0  0  0  0  0  0  0  0  0  0  0  0
   62.1922   33.9620   51.1155 H   0  0  0  0  0  0  0  0  0  0  0  0
   58.9479   34.0738   49.3235 H   0  0  0  0  0  0  0  0  0  0  0  0
   58.5722   31.4704   47.1798 H   0  0  0  0  0  0  0  0  0  0  0  0
   58.1085   29.0575   47.0388 H   0  0  0  0  0  0  0  0  0  0  0  0
   56.2250   27.4430   44.5210 H   0  0  0  0  0  0  0  0  0  0  0  0
   59.7712   24.9729   46.2062 H   0  0  0  0  0  0  0  0  0  0  0  0
   59.5052   22.5129   45.9806 H   0  0  0  0  0  0  0  0  0  0  0  0
   57.5249   20.7766   45.5927 H   0  0  0  0  0  0  0  0  0  0  0  0
   56.6483   21.0194   44.0437 H   0  0  0  0  0  0  0  0  0  0  0  0
   58.4335   20.8205   44.0437 H   0  0  0  0  0  0  0  0  0  0  0  0
   56.3188   25.6088   43.7750 H   0  0  0  0  0  0  0  0  0  0  0  0
   56.8163   29.5668   42.9592 H   0  0  0  0  0  0  0  0  0  0  0  0
   57.2947   31.9745   43.1447 H   0  0  0  0  0  0  0  0  0  0  0  0
   60.8980   34.0490   45.5620 H   0  0  0  0  0  0  0  0  0  0  0  0
   64.2593   33.6753   47.0459 H   0  0  0  0  0  0  0  0  0  0  0  0
   63.3479   32.8435   45.7404 H   0  0  0  0  0  0  0  0  0  0  0  0
   63.4833   34.6347   45.7404 H   0  0  0  0  0  0  0  0  0  0  0  0
  1  2  1  0
  2  3  2  0
  3  4  1  0
  4  5  2  0
  5  6  1  0
  6  7  2  0
  6  8  2  0
  6  9  1  0
  9 10  2  0
 10 11  1  0
 11 12  2  0
 12 13  1  0
 13 14  1  0
 14 15  2  0
 14 16  1  0
 16 17  2  0
 17 18  1  0
 18 19  2  0
 19 20  1  0
 19 21  1  0
 21 22  1  0
 22 23  2  0
 22 24  1  0
 21 25  2  0
 12 26  1  0
 26 27  2  0
  4 28  1  0
 28 29  1  0
 29 30  1  0
 29 31  2  0
 31  2  1  0
 27  9  1  0
 25 16  1  0
  1 32  1  0
  1 33  1  0
  1 34  1  0
  3 35  1  0
 10 36  1  0
 11 37  1  0
 13 38  1  0
 17 39  1  0
 18 40  1  0
 20 41  1  0
 20 42  1  0
 20 43  1  0
 25 44  1  0
 26 45  1  0
 27 46  1  0
 28 47  1  0
 30 48  1  0
 30 49  1  0
 30 50  1  0
M  CHG  2  22   1  24  -1
M  END
>  <smiles>  (44) 
Cc1cc(=NS(=O)(=O)c2ccc(NC(=O)c3ccc(C)c([N+](=O)[O-])c3)cc2)[nH]c(C)n1

>  <score_type>  (44) 
oracle

>  <origin>  (44) 
adg

>  <m_score__min__energy>  (44) 
-10.19

>  <m_primary>  (44) 
energy

$$$$
44:0
     RDKit          3D

 52 55  0  0  0  0  0  0  0  0999 V2000
   63.2860   33.5920   47.9870 C   0  0  0  0  0  0  0  0  0  0  0  0
   62.5260   33.8410   48.8890 C   0  0  0  0  0  0  0  0  0  0  0  0
   61.6050   34.1470   49.9890 C   0  0  0  0  0  0  0  0  0  0  0  0
   60.2750   33.5860   49.7060 N   0  0  0  0  0  0  0  0  0  0  0  0
   59.4660   33.1100   50.8000 C   0  0  0  0  0  0  0  0  0  0  0  0
   59.5410   33.7360   52.0530 C   0  0  0  0  0  0  0  0  0  0  0  0
   58.7520   33.2830   53.1270 C   0  0  0  0  0  0  0  0  0  0  0  0
   58.7970   33.8800   54.3960 O   0  0  0  0  0  0  0  0  0  0  0  0
   59.2650   35.2000   54.6480 C   0  0  0  0  0  0  0  0  0  0  0  0
   57.8890   32.2000   52.9310 C   0  0  0  0  0  0  0  0  0  0  0  0
   57.7970   31.5680   51.6870 C   0  0  0  0  0  0  0  0  0  0  0  0
   56.9070   30.4910   51.5530 O   0  0  0  0  0  0  0  0  0  0  0  0
   55.5630   30.4930   52.0230 C   0  0  0  0  0  0  0  0  0  0  0  0
   58.5890   32.0290   50.6190 C   0  0  0  0  0  0  0  0  0  0  0  0
   59.7190   33.6360   48.3720 C   0  0  0  0  0  0  0  0  0  0  0  0
   59.5270   34.8780   47.7350 C   0  0  0  0  0  0  0  0  0  0  0  0
   58.9970   34.9450   46.4420 C   0  0  0  0  0  0  0  0  0  0  0  0
   58.6530   33.7700   45.7700 C   0  0  0  0  0  0  0  0  0  0  0  0
   58.1380   33.8160   44.5140 N   0  0  0  0  0  0  0  0  0  0  0  0
   57.8020   32.6800   43.8470 C   0  0  0  0  0  0  0  0  0  0  0  0
   57.9880   31.4300   44.4640 C   0  0  0  0  0  0  0  0  0  0  0  0
   57.6400   30.1660   43.7830 C   0  0  0  0  0  0  0  0  0  0  0  0
   56.6480   29.9910   42.8320 C   0  0  0  0  0  0  0  0  0  0  0  0
   56.6300   28.6950   42.4660 N   0  0  0  0  0  0  0  0  0  0  0  0
   57.5740   28.0530   43.1340 N   0  0  0  0  0  0  0  0  0  0  0  0
   57.8040   26.6150   43.0590 C   0  0  0  0  0  0  0  0  0  0  0  0
   58.2040   28.9120   43.9570 C   0  0  0  0  0  0  0  0  0  0  0  0
   58.5040   31.3900   45.7240 N   0  0  0  0  0  0  0  0  0  0  0  0
   58.8400   32.5230   46.3930 C   0  0  0  0  0  0  0  0  0  0  0  0
   59.3690   32.4560   47.6850 C   0  0  0  0  0  0  0  0  0  0  0  0
   63.9795   33.3648   47.1639 H   0  0  0  0  0  0  0  0  0  0  0  0
   61.9933   33.7101   50.9208 H   0  0  0  0  0  0  0  0  0  0  0  0
   61.5202   35.2387   50.0942 H   0  0  0  0  0  0  0  0  0  0  0  0
   60.2219   34.5878   52.1975 H   0  0  0  0  0  0  0  0  0  0  0  0
   59.3242   35.3670   55.7336 H   0  0  0  0  0  0  0  0  0  0  0  0
   60.2628   35.3266   54.2026 H   0  0  0  0  0  0  0  0  0  0  0  0
   58.5698   35.9268   54.2026 H   0  0  0  0  0  0  0  0  0  0  0  0
   57.2732   31.8398   53.7683 H   0  0  0  0  0  0  0  0  0  0  0  0
   55.5592   30.4930   53.1230 H   0  0  0  0  0  0  0  0  0  0  0  0
   55.0471   31.3919   51.6546 H   0  0  0  0  0  0  0  0  0  0  0  0
   55.0444   29.5956   51.6546 H   0  0  0  0  0  0  0  0  0  0  0  0
   58.5204   31.5393   49.6364 H   0  0  0  0  0  0  0  0  0  0  0  0
   59.7970   35.8059   48.2605 H   0  0  0  0  0  0  0  0  0  0  0  0
   58.8516   35.9209   45.9557 H   0  0  0  0  0  0  0  0  0  0  0  0
   57.3868   32.7383   42.8300 H   0  0  0  0  0  0  0  0  0  0  0  0
   55.9863   30.7782   42.4415 H   0  0  0  0  0  0  0  0  0  0  0  0
   55.9760   28.2580   41.7800 H   0  0  0  0  0  0  0  0  0  0  0  0
   57.8703   26.2007   44.0759 H   0  0  0  0  0  0  0  0  0  0  0  0
   56.9707   26.1379   42.5223 H   0  0  0  0  0  0  0  0  0  0  0  0
   58.7445   26.4216   42.5223 H   0  0  0  0  0  0  0  0  0  0  0  0
   59.0234   28.6623   44.6471 H   0  0  0  0  0  0  0  0  0  0  0  0
   59.5128   31.4781   48.1678 H   0  0  0  0  0  0  0  0  0  0  0  0
  1  2  3  0
  2  3  1  0
  3  4  1  0
  4  5  1  0
  5  6  2  0
  6  7  1  0
  7  8  1  0
  8  9  1  0
  7 10  2  0
 10 11  1  0
 11 12  1  0
 12 13  1  0
 11 14  2  0
  4 15  1  0
 15 16  2  0
 16 17  1  0
 17 18  2  0
 18 19  1  0
 19 20  2  0
 20 21  1  0
 21 22  1  0
 22 23  1  0
 23 24  2  0
 24 25  1  0
 25 26  1  0
 25 27  1  0
 21 28  2  0
 28 29  1  0
 29 30  2  0
 14  5  1  0
 30 15  1  0
 29 18  1  0
 27 22  2  0
  1 31  1  0
  3 32  1  0
  3 33  1  0
  6 34  1  0
  9 35  1  0
  9 36  1  0
  9 37  1  0
 10 38  1  0
 13 39  1  0
 13 40  1  0
 13 41  1  0
 14 42  1  0
 16 43  1  0
 17 44  1  0
 20 45  1  0
 23 46  1  0
 24 47  1  0
 26 48  1  0
 26 49  1  0
 26 50  1  0
 27 51  1  0
 30 52  1  0
M  CHG  1  24   1
M  END
>  <UniqueID>  (45) 
42

>  <SMILES>  (45) 
C#CCN(c1cc(OC)cc(OC)c1)c1ccc2ncc(-c3c[nH+]n(C)c3)nc2c1

>  <Energy>  (45) 
94.56970620434406

>  <Genealogy>  (45) 
C#CCN(c1cc(OC)cc(OC)c1)c1ccc2ncc(-c3c[nH+]n(C)c3)nc2c1 (protonated)
C#CCN(c1cc(OC)cc(OC)c1)c1ccc2ncc(-c3c[nH+]n(C)c3)nc2c1 (3D coordinates assigned)
C#CCN(c1cc(OC)cc(OC)c1)c1ccc2ncc(-c3c[nH+]n(C)c3)nc2c1 (optimized conformer: 94.56970620434406 kcal/mol)

>  <smiles>  (45) 
C#CCN(c1cc(OC)cc(OC)c1)c1ccc2ncc(-c3cnn(C)c3)nc2c1

>  <score_type>  (45) 
oracle

>  <origin>  (45) 
adg

>  <m_score__min__energy>  (45) 
-7.5700000000000003

>  <m_primary>  (45) 
energy

$$$$
45:0
     RDKit          3D

 40 42  0  0  0  0  0  0  0  0999 V2000
   55.3840   25.1200   45.7220 C   0  0  0  0  0  0  0  0  0  0  0  0
   56.4300   25.2860   46.7460 N   0  0  0  0  0  0  0  0  0  0  0  0
   56.2970   24.2270   47.7600 C   0  0  0  0  0  0  0  0  0  0  0  0
   57.7770   25.2580   46.1370 C   0  0  0  0  0  0  0  0  0  0  0  0
   58.2330   26.6690   45.7430 C   0  0  0  0  0  0  0  0  0  0  0  0
   57.3170   27.6810   46.2770 N   0  0  0  0  0  0  0  0  0  0  0  0
   57.0120   28.9360   45.6440 C   0  0  0  0  0  0  0  0  0  0  0  0
   57.7730   30.0940   45.8740 C   0  0  0  0  0  0  0  0  0  0  0  0
   57.4060   31.2860   45.2310 C   0  0  0  0  0  0  0  0  0  0  0  0
   58.1710   32.4920   45.4220 N   0  0  0  0  0  0  0  0  0  0  0  0
   58.5000   33.3880   44.4550 C   0  0  0  0  0  0  0  0  0  0  0  0
   59.2010   34.4600   44.9920 C   0  0  0  0  0  0  0  0  0  0  0  0
   59.2960   34.1940   46.3390 C   0  0  0  0  0  0  0  0  0  0  0  0
   59.9090   34.9230   47.3560 C   0  0  0  0  0  0  0  0  0  0  0  0
   59.8760   34.3930   48.6560 C   0  0  0  0  0  0  0  0  0  0  0  0
   59.2460   33.1560   48.9070 C   0  0  0  0  0  0  0  0  0  0  0  0
   58.6360   32.4390   47.8610 C   0  0  0  0  0  0  0  0  0  0  0  0
   58.6650   32.9960   46.5750 C   0  0  0  0  0  0  0  0  0  0  0  0
   56.3260   31.2880   44.4050 N   0  0  0  0  0  0  0  0  0  0  0  0
   55.5910   30.1660   44.2010 C   0  0  0  0  0  0  0  0  0  0  0  0
   55.9330   29.0070   44.8190 N   0  0  0  0  0  0  0  0  0  0  0  0
   54.4117   24.9657   46.2127 H   0  0  0  0  0  0  0  0  0  0  0  0
   55.3389   26.0222   45.0943 H   0  0  0  0  0  0  0  0  0  0  0  0
   55.6204   24.2481   45.0943 H   0  0  0  0  0  0  0  0  0  0  0  0
   56.3529   24.6720   48.7644 H   0  0  0  0  0  0  0  0  0  0  0  0
   55.3282   23.7208   47.6366 H   0  0  0  0  0  0  0  0  0  0  0  0
   57.1105   23.4970   47.6366 H   0  0  0  0  0  0  0  0  0  0  0  0
   58.4905   24.8388   46.8617 H   0  0  0  0  0  0  0  0  0  0  0  0
   57.7382   24.6368   45.2301 H   0  0  0  0  0  0  0  0  0  0  0  0
   59.2413   26.8474   46.1450 H   0  0  0  0  0  0  0  0  0  0  0  0
   58.2392   26.7436   44.6455 H   0  0  0  0  0  0  0  0  0  0  0  0
   56.7670   27.4240   47.1280 H   0  0  0  0  0  0  0  0  0  0  0  0
   58.6425   30.0669   46.5472 H   0  0  0  0  0  0  0  0  0  0  0  0
   58.2455   33.2790   43.3904 H   0  0  0  0  0  0  0  0  0  0  0  0
   59.5960   35.3351   44.4552 H   0  0  0  0  0  0  0  0  0  0  0  0
   60.4032   35.8833   47.1472 H   0  0  0  0  0  0  0  0  0  0  0  0
   60.3443   34.9458   49.4837 H   0  0  0  0  0  0  0  0  0  0  0  0
   59.2315   32.7486   49.9287 H   0  0  0  0  0  0  0  0  0  0  0  0
   58.1505   31.4696   48.0471 H   0  0  0  0  0  0  0  0  0  0  0  0
   54.7168   30.1957   43.5339 H   0  0  0  0  0  0  0  0  0  0  0  0
  1  2  1  0
  2  3  1  0
  2  4  1  0
  4  5  1  0
  5  6  1  0
  6  7  1  0
  7  8  2  0
  8  9  1  0
  9 10  1  0
 10 11  1  0
 11 12  2  0
 12 13  1  0
 13 14  2  0
 14 15  1  0
 15 16  2  0
 16 17  1  0
 17 18  2  0
  9 19  2  0
 19 20  1  0
 20 21  2  0
 21  7  1  0
 18 10  1  0
 18 13  1  0
  1 22  1  0
  1 23  1  0
  1 24  1  0
  3 25  1  0
  3 26  1  0
  3 27  1  0
  4 28  1  0
  4 29  1  0
  5 30  1  0
  5 31  1  0
  6 32  1  0
  8 33  1  0
 11 34  1  0
 12 35  1  0
 14 36  1  0
 15 37  1  0
 16 38  1  0
 17 39  1  0
 20 40  1  0
M  END
>  <UniqueID>  (46) 
43

>  <SMILES>  (46) 
CN(C)CCNc1cc(-n2ccc3ccccc32)ncn1

>  <Energy>  (46) 
79.13896895285147

>  <Genealogy>  (46) 
CN(C)CCNc1cc(-n2ccc3ccccc32)ncn1 (3D coordinates assigned)
CN(C)CCNc1cc(-n2ccc3ccccc32)ncn1 (optimized conformer: 79.13896895285147 kcal/mol)

>  <smiles>  (46) 
CN(C)CCNc1cc(-n2ccc3ccccc32)ncn1

>  <score_type>  (46) 
oracle

>  <origin>  (46) 
adg

>  <m_score__min__energy>  (46) 
-7.1699999999999999

>  <m_primary>  (46) 
energy

$$$$
46:0
     RDKit          3D

 58 59  0  0  0  0  0  0  0  0999 V2000
   56.6000   30.7380   43.1150 C   0  0  0  0  0  0  0  0  0  0  0  0
   55.5720   30.0760   44.0270 C   0  0  0  0  0  0  0  0  0  0  0  0
   56.2110   29.4620   45.1460 O   0  0  0  0  0  0  0  0  0  0  0  0
   57.5930   29.4580   45.4010 C   0  0  0  0  0  0  0  0  0  0  0  0
   58.1690   30.1870   46.4590 C   0  0  0  0  0  0  0  0  0  0  0  0
   59.5500   30.1320   46.6950 C   0  0  0  0  0  0  0  0  0  0  0  0
   60.1470   30.8440   47.8870 C   0  0  0  0  0  0  0  0  0  0  0  0
   59.1220   31.5190   48.6960 N   0  0  0  0  0  0  0  0  0  0  0  0
   59.1990   32.9790   48.5720 C   0  0  0  0  0  0  0  0  0  0  0  0
   58.7780   33.3920   47.1920 C   0  0  0  0  0  0  0  0  0  0  0  0
   57.4240   33.4060   46.8340 C   0  0  0  0  0  0  0  0  0  0  0  0
   57.0450   33.8270   45.5590 C   0  0  0  0  0  0  0  0  0  0  0  0
   58.0240   34.2420   44.6560 C   0  0  0  0  0  0  0  0  0  0  0  0
   59.3350   34.2400   45.0210 N   0  0  0  0  0  0  0  0  0  0  0  0
   59.7290   33.8320   46.2590 C   0  0  0  0  0  0  0  0  0  0  0  0
   60.3620   29.3590   45.8550 C   0  0  0  0  0  0  0  0  0  0  0  0
   59.8020   28.6460   44.7970 C   0  0  0  0  0  0  0  0  0  0  0  0
   58.4130   28.6780   44.5720 C   0  0  0  0  0  0  0  0  0  0  0  0
   57.8060   27.9310   43.5510 O   0  0  0  0  0  0  0  0  0  0  0  0
   58.1320   26.5810   43.2190 C   0  0  0  0  0  0  0  0  0  0  0  0
   57.7720   25.6590   44.3500 C   0  0  0  0  0  0  0  0  0  0  0  0
   57.0080   24.6840   44.1140 O   0  0  0  0  0  0  0  0  0  0  0  0
   58.3140   25.8410   45.6770 N   0  0  0  0  0  0  0  0  0  0  0  0
   59.7550   25.7020   45.9340 C   0  0  0  0  0  0  0  0  0  0  0  0
   60.1320   26.3830   47.2440 C   0  0  0  0  0  0  0  0  0  0  0  0
   57.4140   26.2090   46.7820 C   0  0  0  0  0  0  0  0  0  0  0  0
   55.9540   26.0160   46.3720 C   0  0  0  0  0  0  0  0  0  0  0  0
   55.5240   27.1130   45.6180 O   0  0  0  0  0  0  0  0  0  0  0  0
   57.3684   31.2328   43.7271 H   0  0  0  0  0  0  0  0  0  0  0  0
   57.0727   29.9742   42.4801 H   0  0  0  0  0  0  0  0  0  0  0  0
   56.1002   31.4844   42.4801 H   0  0  0  0  0  0  0  0  0  0  0  0
   54.8657   30.8382   44.3880 H   0  0  0  0  0  0  0  0  0  0  0  0
   55.0391   29.3018   43.4556 H   0  0  0  0  0  0  0  0  0  0  0  0
   57.5297   30.8053   47.1063 H   0  0  0  0  0  0  0  0  0  0  0  0
   60.6678   30.1073   48.5164 H   0  0  0  0  0  0  0  0  0  0  0  0
   60.8422   31.6096   47.5120 H   0  0  0  0  0  0  0  0  0  0  0  0
   59.2510   31.2550   49.7020 H   0  0  0  0  0  0  0  0  0  0  0  0
   58.5320   33.4446   49.3125 H   0  0  0  0  0  0  0  0  0  0  0  0
   60.2341   33.3058   48.7503 H   0  0  0  0  0  0  0  0  0  0  0  0
   56.6600   33.0853   47.5575 H   0  0  0  0  0  0  0  0  0  0  0  0
   55.9841   33.8317   45.2685 H   0  0  0  0  0  0  0  0  0  0  0  0
   57.7357   34.5715   43.6469 H   0  0  0  0  0  0  0  0  0  0  0  0
   60.0550   34.5620   44.3370 H   0  0  0  0  0  0  0  0  0  0  0  0
   60.7954   33.8474   46.5282 H   0  0  0  0  0  0  0  0  0  0  0  0
   61.4468   29.3147   46.0315 H   0  0  0  0  0  0  0  0  0  0  0  0
   60.4496   28.0543   44.1333 H   0  0  0  0  0  0  0  0  0  0  0  0
   57.5737   26.2847   42.3187 H   0  0  0  0  0  0  0  0  0  0  0  0
   59.2141   26.5115   43.0342 H   0  0  0  0  0  0  0  0  0  0  0  0
   60.0104   24.6338   45.9948 H   0  0  0  0  0  0  0  0  0  0  0  0
   60.3103   26.1787   45.1128 H   0  0  0  0  0  0  0  0  0  0  0  0
   59.7909   25.7668   48.0890 H   0  0  0  0  0  0  0  0  0  0  0  0
   61.2244   26.5019   47.2943 H   0  0  0  0  0  0  0  0  0  0  0  0
   59.6529   27.3719   47.2943 H   0  0  0  0  0  0  0  0  0  0  0  0
   57.6321   25.5737   47.6531 H   0  0  0  0  0  0  0  0  0  0  0  0
   57.5752   27.2675   47.0340 H   0  0  0  0  0  0  0  0  0  0  0  0
   55.8620   25.1003   45.7695 H   0  0  0  0  0  0  0  0  0  0  0  0
   55.3318   25.9300   47.2750 H   0  0  0  0  0  0  0  0  0  0  0  0
   56.2340   27.2870   44.9510 H   0  0  0  0  0  0  0  0  0  0  0  0
  1  2  1  0
  2  3  1  0
  3  4  1  0
  4  5  2  0
  5  6  1  0
  6  7  1  0
  7  8  1  0
  8  9  1  0
  9 10  1  0
 10 11  2  0
 11 12  1  0
 12 13  2  0
 13 14  1  0
 14 15  2  0
  6 16  2  0
 16 17  1  0
 17 18  2  0
 18 19  1  0
 19 20  1  0
 20 21  1  0
 21 22  2  0
 21 23  1  0
 23 24  1  0
 24 25  1  0
 23 26  1  0
 26 27  1  0
 27 28  1  0
 18  4  1  0
 15 10  1  0
  1 29  1  0
  1 30  1  0
  1 31  1  0
  2 32  1  0
  2 33  1  0
  5 34  1  0
  7 35  1  0
  7 36  1  0
  8 37  1  0
  9 38  1  0
  9 39  1  0
 11 40  1  0
 12 41  1  0
 13 42  1  0
 14 43  1  0
 15 44  1  0
 16 45  1  0
 17 46  1  0
 20 47  1  0
 20 48  1  0
 24 49  1  0
 24 50  1  0
 25 51  1  0
 25 52  1  0
 25 53  1  0
 26 54  1  0
 26 55  1  0
 27 56  1  0
 27 57  1  0
 28 58  1  0
M  CHG  1  14   1
M  END
>  <UniqueID>  (47) 
44

>  <SMILES>  (47) 
CCOc1cc(CNCc2ccc[nH+]c2)ccc1OCC(=O)N(CC)CCO

>  <Energy>  (47) 
43.256060509077884

>  <Genealogy>  (47) 
CCOc1cc(CNCc2ccc[nH+]c2)ccc1OCC(=O)N(CC)CCO (protonated)
CCOc1cc(CNCc2ccc[nH+]c2)ccc1OCC(=O)N(CC)CCO (3D coordinates assigned)
CCOc1cc(CNCc2ccc[nH+]c2)ccc1OCC(=O)N(CC)CCO (optimized conformer: 43.256060509077884 kcal/mol)

>  <smiles>  (47) 
CCOc1cc(CNCc2cccnc2)ccc1OCC(=O)N(CC)CCO

>  <score_type>  (47) 
oracle

>  <origin>  (47) 
adg

>  <m_score__min__energy>  (47) 
-7.2400000000000002

>  <m_primary>  (47) 
energy

$$$$
