0:0
     RDKit          3D

 41 42  0  0  0  0  0  0  0  0999 V2000
   56.5470   30.9450   44.7720 O   0  0  0  0  0  0  0  0  0  0  0  0
   55.8610   30.0290   44.2440 C   0  0  0  0  0  0  0  0  0  0  0  0
   55.5400   28.8320   44.9590 N   0  0  0  0  0  0  0  0  0  0  0  0
   56.4710   27.9110   45.5500 C   0  0  0  0  0  0  0  0  0  0  0  0
   57.8280   28.2410   45.7310 C   0  0  0  0  0  0  0  0  0  0  0  0
   58.7120   27.3320   46.3400 C   0  0  0  0  0  0  0  0  0  0  0  0
   60.1790   27.6740   46.5020 C   0  0  2  0  0  0  0  0  0  0  0  0
   60.7430   26.9110   47.5390 O   0  0  0  0  0  0  0  0  0  0  0  0
   60.3420   29.1680   46.8120 C   0  0  0  0  0  0  0  0  0  0  0  0
   60.9150   29.3470   48.1530 N   0  0  0  0  0  0  0  0  0  0  0  0
   59.8780   29.4570   49.1920 C   0  0  0  0  0  0  0  0  0  0  0  0
   60.1090   30.6560   50.1240 C   0  0  0  0  0  0  0  0  0  0  0  0
   61.3340   31.8160   49.4190 S   0  0  0  0  0  0  0  0  0  0  0  0
   60.2290   32.5150   48.1880 C   0  0  0  0  0  0  0  0  0  0  0  0
   60.7550   33.1530   47.0560 C   0  0  0  0  0  0  0  0  0  0  0  0
   59.8950   33.6830   46.0880 C   0  0  0  0  0  0  0  0  0  0  0  0
   58.5090   33.5650   46.2420 C   0  0  0  0  0  0  0  0  0  0  0  0
   57.3390   34.2860   44.9160 Br  0  0  0  0  0  0  0  0  0  0  0  0
   57.9830   32.9190   47.3680 C   0  0  0  0  0  0  0  0  0  0  0  0
   58.8410   32.3890   48.3350 C   0  0  0  0  0  0  0  0  0  0  0  0
   58.2270   26.0860   46.7680 C   0  0  0  0  0  0  0  0  0  0  0  0
   56.8770   25.7640   46.6120 C   0  0  0  0  0  0  0  0  0  0  0  0
   56.0000   26.6750   46.0150 C   0  0  0  0  0  0  0  0  0  0  0  0
   54.6560   26.3420   45.8790 O   0  0  0  0  0  0  0  0  0  0  0  0
   55.5015   30.1524   43.2118 H   0  0  0  0  0  0  0  0  0  0  0  0
   58.2004   29.2193   45.3928 H   0  0  0  0  0  0  0  0  0  0  0  0
   60.6996   27.4424   45.5611 H   0  0  0  0  0  0  0  0  0  0  0  0
   61.6110   27.3370   47.7660 H   0  0  0  0  0  0  0  0  0  0  0  0
   61.0112   29.6230   46.0669 H   0  0  0  0  0  0  0  0  0  0  0  0
   59.3552   29.6526   46.7751 H   0  0  0  0  0  0  0  0  0  0  0  0
   61.5410   28.5360   48.3730 H   0  0  0  0  0  0  0  0  0  0  0  0
   58.8992   29.5725   48.7036 H   0  0  0  0  0  0  0  0  0  0  0  0
   59.9174   28.5437   49.8038 H   0  0  0  0  0  0  0  0  0  0  0  0
   59.1560   31.1857   50.2700 H   0  0  0  0  0  0  0  0  0  0  0  0
   60.4960   30.2817   51.0833 H   0  0  0  0  0  0  0  0  0  0  0  0
   61.8444   33.2370   46.9287 H   0  0  0  0  0  0  0  0  0  0  0  0
   60.3085   34.1928   45.2053 H   0  0  0  0  0  0  0  0  0  0  0  0
   56.8936   32.8289   47.4911 H   0  0  0  0  0  0  0  0  0  0  0  0
   58.4264   31.8721   49.2130 H   0  0  0  0  0  0  0  0  0  0  0  0
   58.9134   25.3600   47.2283 H   0  0  0  0  0  0  0  0  0  0  0  0
   56.5022   24.7901   46.9600 H   0  0  0  0  0  0  0  0  0  0  0  0
  1  2  2  0
  2  3  1  0
  3  4  1  0
  4  5  2  0
  5  6  1  0
  6  7  1  0
  7  8  1  0
  7  9  1  0
  9 10  1  0
 10 11  1  0
 11 12  1  0
 12 13  1  0
 13 14  1  0
 14 15  2  0
 15 16  1  0
 16 17  2  0
 17 18  1  0
 17 19  1  0
 19 20  2  0
  6 21  2  0
 21 22  1  0
 22 23  2  0
 23 24  1  0
 23  4  1  0
 20 14  1  0
  2 25  1  0
  5 26  1  0
  7 27  1  6
  8 28  1  0
  9 29  1  0
  9 30  1  0
 10 31  1  0
 11 32  1  0
 11 33  1  0
 12 34  1  0
 12 35  1  0
 15 36  1  0
 16 37  1  0
 19 38  1  0
 20 39  1  0
 21 40  1  0
 22 41  1  0
M  CHG  2   3  -1  24  -1
M  END
>  <UniqueID>  (1) 
1

>  <SMILES>  (1) 
O=C[N-]c1cc([C@H](O)CNCCSc2ccc(Br)cc2)ccc1[O-]

>  <Energy>  (1) 
38.75152168587932

>  <Genealogy>  (1) 
O=C[N-]c1cc(C(O)CNCCSc2ccc(Br)cc2)ccc1[O-] (protonated)
O=C[N-]c1cc([C@H](O)CNCCSc2ccc(Br)cc2)ccc1[O-] (chirality)
O=C[N-]c1cc([C@H](O)CNCCSc2ccc(Br)cc2)ccc1[O-] (3D coordinates assigned)
O=C[N-]c1cc([C@H](O)CNCCSc2ccc(Br)cc2)ccc1[O-] (optimized conformer: 38.75152168587932 kcal/mol)

>  <smiles>  (1) 
O=CNc1cc(C(O)CNCCSc2ccc(Br)cc2)ccc1O

>  <score_type>  (1) 
oracle

>  <origin>  (1) 
adg

>  <m_score__min__energy>  (1) 
-14.92

>  <m_primary>  (1) 
energy

$$$$
1:0
     RDKit          3D

 32 33  0  0  0  0  0  0  0  0999 V2000
   55.6310   24.3570   46.0700 C   0  0  0  0  0  0  0  0  0  0  0  0
   56.1950   25.4080   45.8960 C   0  0  0  0  0  0  0  0  0  0  0  0
   56.8830   26.6910   45.6840 C   0  0  2  0  0  0  0  0  0  0  0  0
   57.8620   26.9530   46.8230 C   0  0  0  0  0  0  0  0  0  0  0  0
   55.9060   27.7730   45.6240 N   0  0  0  0  0  0  0  0  0  0  0  0
   56.1010   28.9760   44.8730 C   0  0  0  0  0  0  0  0  0  0  0  0
   55.1460   29.7790   44.6930 O   0  0  0  0  0  0  0  0  0  0  0  0
   57.4350   29.2530   44.2560 C   0  0  0  0  0  0  0  0  0  0  0  0
   58.2030   30.1770   45.1070 N   0  0  0  0  0  0  0  0  0  0  0  0
   59.3850   29.7460   45.6450 C   0  0  0  0  0  0  0  0  0  0  0  0
   60.1630   30.5910   46.4350 C   0  0  0  0  0  0  0  0  0  0  0  0
   59.7390   31.9000   46.6740 C   0  0  0  0  0  0  0  0  0  0  0  0
   60.4880   32.7430   47.4440 N   0  0  0  0  0  0  0  0  0  0  0  0
   60.0960   34.0230   47.6850 C   0  0  0  0  0  0  0  0  0  0  0  0
   58.9050   34.5080   47.1420 C   0  0  0  0  0  0  0  0  0  0  0  0
   58.1190   33.6710   46.3500 C   0  0  0  0  0  0  0  0  0  0  0  0
   58.5280   32.3490   46.1060 C   0  0  0  0  0  0  0  0  0  0  0  0
   57.7700   31.4650   45.3130 C   0  0  0  0  0  0  0  0  0  0  0  0
   56.6910   31.8610   44.7880 O   0  0  0  0  0  0  0  0  0  0  0  0
   55.1163   23.3979   46.2288 H   0  0  0  0  0  0  0  0  0  0  0  0
   57.4361   26.6448   44.7343 H   0  0  0  0  0  0  0  0  0  0  0  0
   57.3490   26.8157   47.7863 H   0  0  0  0  0  0  0  0  0  0  0  0
   58.7039   26.2485   46.7522 H   0  0  0  0  0  0  0  0  0  0  0  0
   58.2395   27.9838   46.7522 H   0  0  0  0  0  0  0  0  0  0  0  0
   57.9901   28.3092   44.1500 H   0  0  0  0  0  0  0  0  0  0  0  0
   57.2866   29.7124   43.2676 H   0  0  0  0  0  0  0  0  0  0  0  0
   59.7261   28.7183   45.4514 H   0  0  0  0  0  0  0  0  0  0  0  0
   61.1068   30.2283   46.8682 H   0  0  0  0  0  0  0  0  0  0  0  0
   61.3860   32.4100   47.8650 H   0  0  0  0  0  0  0  0  0  0  0  0
   60.7200   34.6785   48.3103 H   0  0  0  0  0  0  0  0  0  0  0  0
   58.5885   35.5432   47.3374 H   0  0  0  0  0  0  0  0  0  0  0  0
   57.1798   34.0455   45.9168 H   0  0  0  0  0  0  0  0  0  0  0  0
  1  2  3  0
  2  3  1  0
  3  4  1  0
  3  5  1  0
  5  6  1  0
  6  7  2  0
  6  8  1  0
  8  9  1  0
  9 10  1  0
 10 11  2  0
 11 12  1  0
 12 13  2  0
 13 14  1  0
 14 15  2  0
 15 16  1  0
 16 17  2  0
 17 18  1  0
 18 19  2  0
 18  9  1  0
 17 12  1  0
  1 20  1  0
  3 21  1  6
  4 22  1  0
  4 23  1  0
  4 24  1  0
  8 25  1  0
  8 26  1  0
 10 27  1  0
 11 28  1  0
 13 29  1  0
 14 30  1  0
 15 31  1  0
 16 32  1  0
M  CHG  2   5  -1  13   1
M  END
>  <UniqueID>  (2) 
2

>  <SMILES>  (2) 
C#C[C@H](C)[N-]C(=O)Cn1ccc2[nH+]cccc2c1=O

>  <Energy>  (2) 
30.74859571552466

>  <Genealogy>  (2) 
C#CC(C)[N-]C(=O)Cn1ccc2[nH+]cccc2c1=O (protonated)
C#C[C@H](C)[N-]C(=O)Cn1ccc2[nH+]cccc2c1=O (chirality)
C#C[C@H](C)[N-]C(=O)Cn1ccc2[nH+]cccc2c1=O (3D coordinates assigned)
C#C[C@H](C)[N-]C(=O)Cn1ccc2[nH+]cccc2c1=O (optimized conformer: 30.74859571552466 kcal/mol)

>  <smiles>  (2) 
C#CC(C)NC(=O)Cn1ccc2ncccc2c1=O

>  <score_type>  (2) 
oracle

>  <origin>  (2) 
adg

>  <m_score__min__energy>  (2) 
-7.1399999999999997

>  <m_primary>  (2) 
energy

$$$$
2:0
     RDKit          3D

 38 39  0  0  0  0  0  0  0  0999 V2000
   55.0450   22.9070   48.3560 C   0  0  0  0  0  0  0  0  0  0  0  0
   54.4940   22.6810   47.0640 O   0  0  0  0  0  0  0  0  0  0  0  0
   55.2170   22.7730   45.8630 C   0  0  0  0  0  0  0  0  0  0  0  0
   55.9380   21.6770   45.3490 C   0  0  0  0  0  0  0  0  0  0  0  0
   56.6390   21.7920   44.1460 C   0  0  0  0  0  0  0  0  0  0  0  0
   56.6370   22.9980   43.4470 C   0  0  0  0  0  0  0  0  0  0  0  0
   55.9250   24.0920   43.9430 C   0  0  0  0  0  0  0  0  0  0  0  0
   55.2150   23.9930   45.1520 C   0  0  0  0  0  0  0  0  0  0  0  0
   54.3850   25.1650   45.6220 C   0  0  0  0  0  0  0  0  0  0  0  0
   55.2230   26.3000   45.9960 N   0  0  0  0  0  0  0  0  0  0  0  0
   56.5640   26.2400   46.5010 C   0  0  0  0  0  0  0  0  0  0  0  0
   56.7950   25.5010   47.4950 O   0  0  0  0  0  0  0  0  0  0  0  0
   57.6870   27.0720   45.9300 C   0  0  0  0  0  0  0  0  0  0  0  0
   57.3100   27.7100   44.6570 N   0  0  0  0  0  0  0  0  0  0  0  0
   57.4740   29.1430   44.7180 C   0  0  0  0  0  0  0  0  0  0  0  0
   57.0010   29.9590   43.6740 C   0  0  0  0  0  0  0  0  0  0  0  0
   57.1450   31.3480   43.7410 C   0  0  0  0  0  0  0  0  0  0  0  0
   57.7820   31.9350   44.8390 C   0  0  0  0  0  0  0  0  0  0  0  0
   57.9980   33.8310   44.9170 Br  0  0  0  0  0  0  0  0  0  0  0  0
   58.2730   31.1320   45.8720 C   0  0  0  0  0  0  0  0  0  0  0  0
   58.1190   29.7440   45.8140 C   0  0  0  0  0  0  0  0  0  0  0  0
   54.3156   22.6078   49.1231 H   0  0  0  0  0  0  0  0  0  0  0  0
   55.9635   22.3130   48.4719 H   0  0  0  0  0  0  0  0  0  0  0  0
   55.2819   23.9749   48.4719 H   0  0  0  0  0  0  0  0  0  0  0  0
   55.9490   20.7243   45.8987 H   0  0  0  0  0  0  0  0  0  0  0  0
   57.1938   20.9289   43.7495 H   0  0  0  0  0  0  0  0  0  0  0  0
   57.1966   23.0879   42.5042 H   0  0  0  0  0  0  0  0  0  0  0  0
   55.9197   25.0388   43.3831 H   0  0  0  0  0  0  0  0  0  0  0  0
   53.7090   25.4722   44.8104 H   0  0  0  0  0  0  0  0  0  0  0  0
   53.8155   24.8502   46.5089 H   0  0  0  0  0  0  0  0  0  0  0  0
   57.9522   27.8557   46.6549 H   0  0  0  0  0  0  0  0  0  0  0  0
   58.5392   26.4042   45.7356 H   0  0  0  0  0  0  0  0  0  0  0  0
   56.3260   27.4660   44.3990 H   0  0  0  0  0  0  0  0  0  0  0  0
   57.9230   27.3260   43.8990 H   0  0  0  0  0  0  0  0  0  0  0  0
   56.5150   29.5013   42.7998 H   0  0  0  0  0  0  0  0  0  0  0  0
   56.7567   31.9802   42.9289 H   0  0  0  0  0  0  0  0  0  0  0  0
   58.7813   31.5929   46.7318 H   0  0  0  0  0  0  0  0  0  0  0  0
   58.5050   29.1171   46.6314 H   0  0  0  0  0  0  0  0  0  0  0  0
  1  2  1  0
  2  3  1  0
  3  4  2  0
  4  5  1  0
  5  6  2  0
  6  7  1  0
  7  8  2  0
  8  9  1  0
  9 10  1  0
 10 11  1  0
 11 12  2  0
 11 13  1  0
 13 14  1  0
 14 15  1  0
 15 16  2  0
 16 17  1  0
 17 18  2  0
 18 19  1  0
 18 20  1  0
 20 21  2  0
  8  3  1  0
 21 15  1  0
  1 22  1  0
  1 23  1  0
  1 24  1  0
  4 25  1  0
  5 26  1  0
  6 27  1  0
  7 28  1  0
  9 29  1  0
  9 30  1  0
 13 31  1  0
 13 32  1  0
 14 33  1  0
 14 34  1  0
 16 35  1  0
 17 36  1  0
 20 37  1  0
 21 38  1  0
M  CHG  2  10  -1  14   1
M  END
>  <UniqueID>  (3) 
3

>  <SMILES>  (3) 
COc1ccccc1C[N-]C(=O)C[NH2+]c1ccc(Br)cc1

>  <Energy>  (3) 
32.76100601269092

>  <Genealogy>  (3) 
COc1ccccc1C[N-]C(=O)C[NH2+]c1ccc(Br)cc1 (protonated)
COc1ccccc1C[N-]C(=O)C[NH2+]c1ccc(Br)cc1 (3D coordinates assigned)
COc1ccccc1C[N-]C(=O)C[NH2+]c1ccc(Br)cc1 (optimized conformer: 32.76100601269092 kcal/mol)

>  <smiles>  (3) 
COc1ccccc1CNC(=O)CNc1ccc(Br)cc1

>  <score_type>  (3) 
oracle

>  <origin>  (3) 
adg

>  <m_score__min__energy>  (3) 
-8.2899999999999991

>  <m_primary>  (3) 
energy

$$$$
3:0
     RDKit          3D

 46 48  0  0  0  0  0  0  0  0999 V2000
   60.3840   26.8960   46.3870 C   0  0  0  0  0  0  0  0  0  0  0  0
   59.4650   25.7620   45.9510 C   0  0  0  0  0  0  0  0  0  0  0  0
   58.1390   26.3100   45.6040 N   0  0  0  0  0  0  0  0  0  0  0  0
   57.0990   25.9790   46.6030 C   0  0  0  0  0  0  0  0  0  0  0  0
   55.9040   25.2720   45.9650 C   0  0  0  0  0  0  0  0  0  0  0  0
   57.7630   26.1600   44.1750 C   0  0  0  0  0  0  0  0  0  0  0  0
   58.2650   27.2650   43.2100 C   0  0  0  0  0  0  0  0  0  0  0  0
   57.4120   28.4740   43.1710 N   0  0  0  0  0  0  0  0  0  0  0  0
   57.8150   29.4880   44.1230 C   0  0  0  0  0  0  0  0  0  0  0  0
   58.0220   29.1590   45.4680 C   0  0  0  0  0  0  0  0  0  0  0  0
   58.3840   30.1330   46.4000 C   0  0  0  0  0  0  0  0  0  0  0  0
   58.5200   31.4880   46.0200 C   0  0  0  0  0  0  0  0  0  0  0  0
   58.2450   31.8310   44.6690 C   0  0  0  0  0  0  0  0  0  0  0  0
   57.8800   30.8390   43.7440 C   0  0  0  0  0  0  0  0  0  0  0  0
   58.3320   33.1610   44.2460 C   0  0  0  0  0  0  0  0  0  0  0  0
   58.6950   34.1680   45.1340 C   0  0  0  0  0  0  0  0  0  0  0  0
   58.7680   35.4450   44.6800 F   0  0  0  0  0  0  0  0  0  0  0  0
   58.9830   33.8620   46.4720 C   0  0  0  0  0  0  0  0  0  0  0  0
   59.3510   34.8850   47.3590 C   0  0  0  0  0  0  0  0  0  0  0  0
   59.6390   34.5780   48.6850 C   0  0  0  0  0  0  0  0  0  0  0  0
   59.5660   33.2960   49.1160 N   0  0  0  0  0  0  0  0  0  0  0  0
   59.2110   32.2750   48.2940 C   0  0  0  0  0  0  0  0  0  0  0  0
   58.9000   32.5190   46.9330 C   0  0  0  0  0  0  0  0  0  0  0  0
   60.4183   26.9383   47.4857 H   0  0  0  0  0  0  0  0  0  0  0  0
   61.3964   26.7188   45.9951 H   0  0  0  0  0  0  0  0  0  0  0  0
   60.0009   27.8497   45.9951 H   0  0  0  0  0  0  0  0  0  0  0  0
   59.8951   25.2584   45.0727 H   0  0  0  0  0  0  0  0  0  0  0  0
   59.3595   25.0385   46.7729 H   0  0  0  0  0  0  0  0  0  0  0  0
   57.5364   25.3197   47.3672 H   0  0  0  0  0  0  0  0  0  0  0  0
   56.7420   26.9189   47.0492 H   0  0  0  0  0  0  0  0  0  0  0  0
   55.2446   24.8819   46.7543 H   0  0  0  0  0  0  0  0  0  0  0  0
   55.3463   25.9856   45.3407 H   0  0  0  0  0  0  0  0  0  0  0  0
   56.2609   24.4396   45.3407 H   0  0  0  0  0  0  0  0  0  0  0  0
   58.1659   25.1992   43.8221 H   0  0  0  0  0  0  0  0  0  0  0  0
   56.6654   26.2296   44.1530 H   0  0  0  0  0  0  0  0  0  0  0  0
   59.2746   27.5659   43.5264 H   0  0  0  0  0  0  0  0  0  0  0  0
   58.2447   26.8327   42.1987 H   0  0  0  0  0  0  0  0  0  0  0  0
   57.4840   28.9040   42.2190 H   0  0  0  0  0  0  0  0  0  0  0  0
   56.4060   28.2160   43.2970 H   0  0  0  0  0  0  0  0  0  0  0  0
   57.8974   28.1163   45.7955 H   0  0  0  0  0  0  0  0  0  0  0  0
   58.5661   29.8422   47.4451 H   0  0  0  0  0  0  0  0  0  0  0  0
   57.6418   31.1240   42.7086 H   0  0  0  0  0  0  0  0  0  0  0  0
   58.1107   33.4138   43.1986 H   0  0  0  0  0  0  0  0  0  0  0  0
   59.4115   35.9255   47.0074 H   0  0  0  0  0  0  0  0  0  0  0  0
   59.9263   35.3772   49.3841 H   0  0  0  0  0  0  0  0  0  0  0  0
   59.1644   31.2491   48.6882 H   0  0  0  0  0  0  0  0  0  0  0  0
  1  2  1  0
  2  3  1  0
  3  4  1  0
  4  5  1  0
  3  6  1  0
  6  7  1  0
  7  8  1  0
  8  9  1  0
  9 10  2  0
 10 11  1  0
 11 12  2  0
 12 13  1  0
 13 14  2  0
 13 15  1  0
 15 16  2  0
 16 17  1  0
 16 18  1  0
 18 19  2  0
 19 20  1  0
 20 21  2  0
 21 22  1  0
 22 23  2  0
 14  9  1  0
 23 18  1  0
 23 12  1  0
  1 24  1  0
  1 25  1  0
  1 26  1  0
  2 27  1  0
  2 28  1  0
  4 29  1  0
  4 30  1  0
  5 31  1  0
  5 32  1  0
  5 33  1  0
  6 34  1  0
  6 35  1  0
  7 36  1  0
  7 37  1  0
  8 38  1  0
  8 39  1  0
 10 40  1  0
 11 41  1  0
 14 42  1  0
 15 43  1  0
 19 44  1  0
 20 45  1  0
 22 46  1  0
M  CHG  1   8   1
M  END
>  <UniqueID>  (4) 
4

>  <SMILES>  (4) 
CCN(CC)CC[NH2+]c1ccc2c(c1)cc(F)c1ccncc12

>  <Energy>  (4) 
68.72185991626623

>  <Genealogy>  (4) 
CCN(CC)CC[NH2+]c1ccc2c(c1)cc(F)c1ccncc12 (protonated)
CCN(CC)CC[NH2+]c1ccc2c(c1)cc(F)c1ccncc12 (3D coordinates assigned)
CCN(CC)CC[NH2+]c1ccc2c(c1)cc(F)c1ccncc12 (optimized conformer: 68.72185991626623 kcal/mol)

>  <smiles>  (4) 
CCN(CC)CCNc1ccc2c(c1)cc(F)c1ccncc12

>  <score_type>  (4) 
oracle

>  <origin>  (4) 
adg

>  <m_score__min__energy>  (4) 
-5.6500000000000004

>  <m_primary>  (4) 
energy

$$$$
4:0
     RDKit          3D

 39 40  0  0  0  0  0  0  0  0999 V2000
   58.1300   32.6920   43.1160 C   0  0  0  0  0  0  0  0  0  0  0  0
   57.4740   32.0100   41.9210 C   0  0  0  0  0  0  0  0  0  0  0  0
   56.6180   30.9530   42.3530 O   0  0  0  0  0  0  0  0  0  0  0  0
   56.7390   30.3280   43.5970 C   0  0  0  0  0  0  0  0  0  0  0  0
   55.8670   30.5080   44.4910 O   0  0  0  0  0  0  0  0  0  0  0  0
   57.8720   29.4890   43.8510 N   0  0  0  0  0  0  0  0  0  0  0  0
   57.9520   28.6030   44.9760 C   0  0  0  0  0  0  0  0  0  0  0  0
   57.2550   27.3880   45.0080 C   0  0  0  0  0  0  0  0  0  0  0  0
   57.5020   26.6390   46.1550 C   0  0  0  0  0  0  0  0  0  0  0  0
   56.9370   25.3180   46.4780 C   0  0  0  0  0  0  0  0  0  0  0  0
   57.7980   24.0940   46.5130 C   0  0  0  0  0  0  0  0  0  0  0  0
   55.7060   25.2130   46.7280 O   0  0  0  0  0  0  0  0  0  0  0  0
   58.5670   27.4990   47.1340 S   0  0  0  0  0  0  0  0  0  0  0  0
   58.7310   28.8340   46.1200 C   0  0  0  0  0  0  0  0  0  0  0  0
   59.4890   30.0530   46.4680 C   0  0  0  0  0  0  0  0  0  0  0  0
   60.7840   29.9490   46.9980 C   0  0  0  0  0  0  0  0  0  0  0  0
   61.5130   31.0980   47.3210 C   0  0  0  0  0  0  0  0  0  0  0  0
   60.9490   32.3740   47.1280 C   0  0  0  0  0  0  0  0  0  0  0  0
   61.6420   33.5560   47.4280 O   0  0  0  0  0  0  0  0  0  0  0  0
   63.0360   33.7480   47.2110 C   0  0  0  0  0  0  0  0  0  0  0  0
   59.6500   32.4750   46.6200 C   0  0  0  0  0  0  0  0  0  0  0  0
   58.9220   31.3270   46.2980 C   0  0  0  0  0  0  0  0  0  0  0  0
   57.7242   32.2701   44.0473 H   0  0  0  0  0  0  0  0  0  0  0  0
   59.2169   32.5264   43.0815 H   0  0  0  0  0  0  0  0  0  0  0  0
   57.9223   33.7717   43.0815 H   0  0  0  0  0  0  0  0  0  0  0  0
   56.8814   32.7499   41.3630 H   0  0  0  0  0  0  0  0  0  0  0  0
   58.2604   31.5887   41.2776 H   0  0  0  0  0  0  0  0  0  0  0  0
   58.7200   29.6160   43.2550 H   0  0  0  0  0  0  0  0  0  0  0  0
   56.5789   27.0583   44.2054 H   0  0  0  0  0  0  0  0  0  0  0  0
   57.9949   23.8140   47.5584 H   0  0  0  0  0  0  0  0  0  0  0  0
   57.2813   23.2675   46.0032 H   0  0  0  0  0  0  0  0  0  0  0  0
   58.7505   24.3010   46.0032 H   0  0  0  0  0  0  0  0  0  0  0  0
   61.2292   28.9564   47.1607 H   0  0  0  0  0  0  0  0  0  0  0  0
   62.5309   31.0047   47.7274 H   0  0  0  0  0  0  0  0  0  0  0  0
   63.5516   33.8190   48.1801 H   0  0  0  0  0  0  0  0  0  0  0  0
   63.4392   32.8969   46.6426 H   0  0  0  0  0  0  0  0  0  0  0  0
   63.1942   34.6764   46.6426 H   0  0  0  0  0  0  0  0  0  0  0  0
   59.1976   33.4668   46.4727 H   0  0  0  0  0  0  0  0  0  0  0  0
   57.8976   31.4213   45.9086 H   0  0  0  0  0  0  0  0  0  0  0  0
  1  2  1  0
  2  3  1  0
  3  4  1  0
  4  5  2  0
  4  6  1  0
  6  7  1  0
  7  8  1  0
  8  9  2  0
  9 10  1  0
 10 11  1  0
 10 12  2  0
  9 13  1  0
 13 14  1  0
 14 15  1  0
 15 16  2  0
 16 17  1  0
 17 18  2  0
 18 19  1  0
 19 20  1  0
 18 21  1  0
 21 22  2  0
 14  7  2  0
 22 15  1  0
  1 23  1  0
  1 24  1  0
  1 25  1  0
  2 26  1  0
  2 27  1  0
  6 28  1  0
  8 29  1  0
 11 30  1  0
 11 31  1  0
 11 32  1  0
 16 33  1  0
 17 34  1  0
 20 35  1  0
 20 36  1  0
 20 37  1  0
 21 38  1  0
 22 39  1  0
M  END
>  <UniqueID>  (5) 
5

>  <SMILES>  (5) 
CCOC(=O)Nc1cc(C(C)=O)sc1-c1ccc(OC)cc1

>  <Energy>  (5) 
65.10679903571386

>  <Genealogy>  (5) 
CCOC(=O)Nc1cc(C(C)=O)sc1-c1ccc(OC)cc1 (3D coordinates assigned)
CCOC(=O)Nc1cc(C(C)=O)sc1-c1ccc(OC)cc1 (optimized conformer: 65.10679903571386 kcal/mol)

>  <smiles>  (5) 
CCOC(=O)Nc1cc(C(C)=O)sc1-c1ccc(OC)cc1

>  <score_type>  (5) 
oracle

>  <origin>  (5) 
adg

>  <m_score__min__energy>  (5) 
-7.1699999999999999

>  <m_primary>  (5) 
energy

$$$$
5:0
     RDKit          3D

 30 30  0  0  0  0  0  0  0  0999 V2000
   59.8230   33.8510   49.5730 C   0  0  0  0  0  0  0  0  0  0  0  0
   61.0870   34.2110   48.7770 C   0  0  0  0  0  0  0  0  0  0  0  0
   61.1110   33.7080   47.3740 N   0  0  0  0  0  0  0  0  0  0  0  0
   62.4380   33.8330   46.7200 C   0  0  0  0  0  0  0  0  0  0  0  0
   63.4300   32.7470   47.1530 C   0  0  0  0  0  0  0  0  0  0  0  0
   60.0720   34.3350   46.5150 C   0  0  0  0  0  0  0  0  0  0  0  0
   59.1810   33.3160   45.8420 C   0  0  0  0  0  0  0  0  0  0  0  0
   58.9570   32.0610   46.4350 C   0  0  0  0  0  0  0  0  0  0  0  0
   58.1470   31.1160   45.7990 C   0  0  0  0  0  0  0  0  0  0  0  0
   57.5540   31.4130   44.5680 C   0  0  0  0  0  0  0  0  0  0  0  0
   56.4490   30.1190   43.7020 Br  0  0  0  0  0  0  0  0  0  0  0  0
   57.7720   32.6600   43.9720 C   0  0  0  0  0  0  0  0  0  0  0  0
   58.5830   33.6070   44.6050 C   0  0  0  0  0  0  0  0  0  0  0  0
   60.0381   33.9123   50.6500 H   0  0  0  0  0  0  0  0  0  0  0  0
   59.0170   34.5553   49.3194 H   0  0  0  0  0  0  0  0  0  0  0  0
   59.5090   32.8277   49.3194 H   0  0  0  0  0  0  0  0  0  0  0  0
   61.1717   35.3074   48.7482 H   0  0  0  0  0  0  0  0  0  0  0  0
   61.9261   33.7222   49.2938 H   0  0  0  0  0  0  0  0  0  0  0  0
   60.8930   32.6830   47.4170 H   0  0  0  0  0  0  0  0  0  0  0  0
   62.2987   33.7650   45.6310 H   0  0  0  0  0  0  0  0  0  0  0  0
   62.8615   34.8019   47.0230 H   0  0  0  0  0  0  0  0  0  0  0  0
   63.4697   32.7035   48.2514 H   0  0  0  0  0  0  0  0  0  0  0  0
   63.1029   31.7734   46.7591 H   0  0  0  0  0  0  0  0  0  0  0  0
   64.4291   32.9849   46.7591 H   0  0  0  0  0  0  0  0  0  0  0  0
   59.4477   34.9910   47.1394 H   0  0  0  0  0  0  0  0  0  0  0  0
   60.5892   34.8987   45.7246 H   0  0  0  0  0  0  0  0  0  0  0  0
   59.4210   31.8219   47.4033 H   0  0  0  0  0  0  0  0  0  0  0  0
   57.9756   30.1359   46.2682 H   0  0  0  0  0  0  0  0  0  0  0  0
   57.3049   32.8956   43.0044 H   0  0  0  0  0  0  0  0  0  0  0  0
   58.7535   34.5851   44.1316 H   0  0  0  0  0  0  0  0  0  0  0  0
  1  2  1  0
  2  3  1  0
  3  4  1  0
  4  5  1  0
  3  6  1  0
  6  7  1  0
  7  8  2  0
  8  9  1  0
  9 10  2  0
 10 11  1  0
 10 12  1  0
 12 13  2  0
 13  7  1  0
  1 14  1  0
  1 15  1  0
  1 16  1  0
  2 17  1  0
  2 18  1  0
  3 19  1  0
  4 20  1  0
  4 21  1  0
  5 22  1  0
  5 23  1  0
  5 24  1  0
  6 25  1  0
  6 26  1  0
  8 27  1  0
  9 28  1  0
 12 29  1  0
 13 30  1  0
M  CHG  1   3   1
M  END
>  <UniqueID>  (6) 
6

>  <SMILES>  (6) 
CC[NH+](CC)Cc1ccc(Br)cc1

>  <Energy>  (6) 
30.366204552633793

>  <Genealogy>  (6) 
CC[NH+](CC)Cc1ccc(Br)cc1 (protonated)
CC[NH+](CC)Cc1ccc(Br)cc1 (3D coordinates assigned)
CC[NH+](CC)Cc1ccc(Br)cc1 (optimized conformer: 30.366204552633793 kcal/mol)

>  <smiles>  (6) 
CCN(CC)Cc1ccc(Br)cc1

>  <score_type>  (6) 
oracle

>  <origin>  (6) 
adg

>  <m_score__min__energy>  (6) 
-3.8100000000000001

>  <m_primary>  (6) 
energy

$$$$
6:0
     RDKit          3D

 40 42  0  0  0  0  0  0  0  0999 V2000
   59.6270   35.6410   45.2550 C   0  0  0  0  0  0  0  0  0  0  0  0
   59.6480   35.3440   46.7490 C   0  0  0  0  0  0  0  0  0  0  0  0
   59.8820   33.9160   46.9960 N   0  0  0  0  0  0  0  0  0  0  0  0
   58.9680   32.9080   47.0830 C   0  0  0  0  0  0  0  0  0  0  0  0
   57.4940   33.0640   46.8400 C   0  0  0  0  0  0  0  0  0  0  0  0
   57.2450   33.4820   45.4510 N   0  0  0  0  0  0  0  0  0  0  0  0
   58.1180   32.7980   44.4830 C   0  0  0  0  0  0  0  0  0  0  0  0
   57.8370   31.3180   44.4360 C   0  0  0  0  0  0  0  0  0  0  0  0
   58.8620   30.3940   44.6990 C   0  0  0  0  0  0  0  0  0  0  0  0
   58.5900   29.0230   44.7140 C   0  0  0  0  0  0  0  0  0  0  0  0
   57.2970   28.5620   44.4480 C   0  0  0  0  0  0  0  0  0  0  0  0
   56.2780   29.4730   44.1570 C   0  0  0  0  0  0  0  0  0  0  0  0
   56.5450   30.8450   44.1460 C   0  0  0  0  0  0  0  0  0  0  0  0
   59.5450   31.7050   47.3300 N   0  0  0  0  0  0  0  0  0  0  0  0
   60.8600   31.9680   47.3700 C   0  0  0  0  0  0  0  0  0  0  0  0
   61.9100   31.0710   47.5470 C   0  0  0  0  0  0  0  0  0  0  0  0
   63.2190   31.5850   47.5200 C   0  0  0  0  0  0  0  0  0  0  0  0
   63.4410   32.9660   47.3160 C   0  0  0  0  0  0  0  0  0  0  0  0
   62.3560   33.8450   47.1360 C   0  0  0  0  0  0  0  0  0  0  0  0
   61.0700   33.3020   47.1680 C   0  0  0  0  0  0  0  0  0  0  0  0
   59.5502   36.7270   45.0981 H   0  0  0  0  0  0  0  0  0  0  0  0
   60.5537   35.2686   44.7941 H   0  0  0  0  0  0  0  0  0  0  0  0
   58.7619   35.1419   44.7941 H   0  0  0  0  0  0  0  0  0  0  0  0
   60.4521   35.9276   47.2209 H   0  0  0  0  0  0  0  0  0  0  0  0
   58.6722   35.6192   47.1758 H   0  0  0  0  0  0  0  0  0  0  0  0
   56.9924   32.1026   47.0248 H   0  0  0  0  0  0  0  0  0  0  0  0
   57.0993   33.8329   47.5205 H   0  0  0  0  0  0  0  0  0  0  0  0
   56.2600   33.2190   45.2140 H   0  0  0  0  0  0  0  0  0  0  0  0
   57.9484   33.2260   43.4840 H   0  0  0  0  0  0  0  0  0  0  0  0
   59.1621   32.9414   44.7982 H   0  0  0  0  0  0  0  0  0  0  0  0
   59.8839   30.7513   44.8941 H   0  0  0  0  0  0  0  0  0  0  0  0
   59.3942   28.3058   44.9353 H   0  0  0  0  0  0  0  0  0  0  0  0
   57.0821   27.4834   44.4678 H   0  0  0  0  0  0  0  0  0  0  0  0
   55.2635   29.1096   43.9361 H   0  0  0  0  0  0  0  0  0  0  0  0
   55.7411   31.5576   43.9095 H   0  0  0  0  0  0  0  0  0  0  0  0
   59.0760   30.7780   47.4350 H   0  0  0  0  0  0  0  0  0  0  0  0
   61.7225   29.9983   47.7025 H   0  0  0  0  0  0  0  0  0  0  0  0
   64.0751   30.9082   47.6585 H   0  0  0  0  0  0  0  0  0  0  0  0
   64.4691   33.3568   47.2977 H   0  0  0  0  0  0  0  0  0  0  0  0
   62.5158   34.9215   46.9758 H   0  0  0  0  0  0  0  0  0  0  0  0
  1  2  1  0
  2  3  1  0
  3  4  1  0
  4  5  1  0
  5  6  1  0
  6  7  1  0
  7  8  1  0
  8  9  2  0
  9 10  1  0
 10 11  2  0
 11 12  1  0
 12 13  2  0
  4 14  2  0
 14 15  1  0
 15 16  2  0
 16 17  1  0
 17 18  2  0
 18 19  1  0
 19 20  2  0
 20  3  1  0
 13  8  1  0
 20 15  1  0
  1 21  1  0
  1 22  1  0
  1 23  1  0
  2 24  1  0
  2 25  1  0
  5 26  1  0
  5 27  1  0
  6 28  1  0
  7 29  1  0
  7 30  1  0
  9 31  1  0
 10 32  1  0
 11 33  1  0
 12 34  1  0
 13 35  1  0
 14 36  1  0
 16 37  1  0
 17 38  1  0
 18 39  1  0
 19 40  1  0
M  CHG  1  14   1
M  END
>  <UniqueID>  (7) 
7

>  <SMILES>  (7) 
CCn1c(CNCc2ccccc2)[nH+]c2ccccc21

>  <Energy>  (7) 
73.16912216309562

>  <Genealogy>  (7) 
CCn1c(CNCc2ccccc2)[nH+]c2ccccc21 (protonated)
CCn1c(CNCc2ccccc2)[nH+]c2ccccc21 (3D coordinates assigned)
CCn1c(CNCc2ccccc2)[nH+]c2ccccc21 (optimized conformer: 73.16912216309562 kcal/mol)

>  <smiles>  (7) 
CCn1c(CNCc2ccccc2)nc2ccccc21

>  <score_type>  (7) 
oracle

>  <origin>  (7) 
adg

>  <m_score__min__energy>  (7) 
-5.6299999999999999

>  <m_primary>  (7) 
energy

$$$$
7:0
     RDKit          3D

 50 53  0  0  0  0  0  0  0  0999 V2000
   60.2480   31.6460   51.4160 C   0  0  0  0  0  0  0  0  0  0  0  0
   60.8600   31.7290   50.1340 O   0  0  0  0  0  0  0  0  0  0  0  0
   62.2190   32.0080   49.9170 C   0  0  0  0  0  0  0  0  0  0  0  0
   63.2380   31.4030   50.6790 C   0  0  0  0  0  0  0  0  0  0  0  0
   64.5800   31.6930   50.4180 C   0  0  0  0  0  0  0  0  0  0  0  0
   64.9200   32.5850   49.3990 C   0  0  0  0  0  0  0  0  0  0  0  0
   63.9190   33.1910   48.6390 C   0  0  0  0  0  0  0  0  0  0  0  0
   62.5680   32.9120   48.8950 C   0  0  0  0  0  0  0  0  0  0  0  0
   61.5500   33.5440   48.1070 N   0  0  0  0  0  0  0  0  0  0  0  0
   60.7040   34.5880   48.6870 C   0  0  0  0  0  0  0  0  0  0  0  0
   59.2630   34.3640   48.2240 C   0  0  0  0  0  0  0  0  0  0  0  0
   59.1320   34.3740   46.7400 N   0  0  0  0  0  0  0  0  0  0  0  0
   58.0640   33.4800   46.3280 C   0  0  0  0  0  0  0  0  0  0  0  0
   56.9990   33.4740   46.9310 O   0  0  0  0  0  0  0  0  0  0  0  0
   58.2450   32.5340   45.1670 C   0  0  0  0  0  0  0  0  0  0  0  0
   57.3110   31.4570   45.2430 O   0  0  0  0  0  0  0  0  0  0  0  0
   57.7010   30.1190   45.3720 C   0  0  0  0  0  0  0  0  0  0  0  0
   57.2980   29.1830   44.3970 C   0  0  0  0  0  0  0  0  0  0  0  0
   56.3510   29.6990   43.0110 Cl  0  0  0  0  0  0  0  0  0  0  0  0
   57.6150   27.8180   44.5400 C   0  0  0  0  0  0  0  0  0  0  0  0
   58.3510   27.3700   45.6450 C   0  0  0  0  0  0  0  0  0  0  0  0
   58.7640   25.5130   45.8340 Br  0  0  0  0  0  0  0  0  0  0  0  0
   58.7770   28.3150   46.5790 C   0  0  0  0  0  0  0  0  0  0  0  0
   59.7190   28.0760   47.9490 S   0  0  0  0  0  0  0  0  0  0  0  0
   59.7770   29.7030   48.3900 C   0  0  0  0  0  0  0  0  0  0  0  0
   59.0560   30.4520   47.4630 C   0  0  0  0  0  0  0  0  0  0  0  0
   58.4780   29.6670   46.4540 C   0  0  0  0  0  0  0  0  0  0  0  0
   60.3870   34.0750   45.9950 C   0  0  0  0  0  0  0  0  0  0  0  0
   61.3140   33.0970   46.7330 C   0  0  0  0  0  0  0  0  0  0  0  0
   61.0162   31.7502   52.1964 H   0  0  0  0  0  0  0  0  0  0  0  0
   59.5067   32.4518   51.5213 H   0  0  0  0  0  0  0  0  0  0  0  0
   59.7481   30.6718   51.5213 H   0  0  0  0  0  0  0  0  0  0  0  0
   62.9762   30.6993   51.4829 H   0  0  0  0  0  0  0  0  0  0  0  0
   65.3705   31.2173   51.0169 H   0  0  0  0  0  0  0  0  0  0  0  0
   65.9773   32.8100   49.1953 H   0  0  0  0  0  0  0  0  0  0  0  0
   64.1904   33.8910   47.8351 H   0  0  0  0  0  0  0  0  0  0  0  0
   60.7525   34.5366   49.7847 H   0  0  0  0  0  0  0  0  0  0  0  0
   61.0533   35.5785   48.3602 H   0  0  0  0  0  0  0  0  0  0  0  0
   58.9185   33.3901   48.6019 H   0  0  0  0  0  0  0  0  0  0  0  0
   58.6531   35.1900   48.6187 H   0  0  0  0  0  0  0  0  0  0  0  0
   58.8630   35.3490   46.4680 H   0  0  0  0  0  0  0  0  0  0  0  0
   58.0879   33.0825   44.2265 H   0  0  0  0  0  0  0  0  0  0  0  0
   59.2641   32.1214   45.2027 H   0  0  0  0  0  0  0  0  0  0  0  0
   57.2821   27.0979   43.7780 H   0  0  0  0  0  0  0  0  0  0  0  0
   60.3003   30.1077   49.2688 H   0  0  0  0  0  0  0  0  0  0  0  0
   58.9507   31.5456   47.5165 H   0  0  0  0  0  0  0  0  0  0  0  0
   60.1195   33.6360   45.0225 H   0  0  0  0  0  0  0  0  0  0  0  0
   60.9344   35.0228   45.8856 H   0  0  0  0  0  0  0  0  0  0  0  0
   60.8465   32.1015   46.7525 H   0  0  0  0  0  0  0  0  0  0  0  0
   62.2777   33.0560   46.2042 H   0  0  0  0  0  0  0  0  0  0  0  0
  1  2  1  0
  2  3  1  0
  3  4  2  0
  4  5  1  0
  5  6  2  0
  6  7  1  0
  7  8  2  0
  8  9  1  0
  9 10  1  0
 10 11  1  0
 11 12  1  0
 12 13  1  0
 13 14  2  0
 13 15  1  0
 15 16  1  0
 16 17  1  0
 17 18  2  0
 18 19  1  0
 18 20  1  0
 20 21  2  0
 21 22  1  0
 21 23  1  0
 23 24  1  0
 24 25  1  0
 25 26  2  0
 26 27  1  0
 12 28  1  0
 28 29  1  0
  8  3  1  0
 29  9  1  0
 27 17  1  0
 27 23  2  0
  1 30  1  0
  1 31  1  0
  1 32  1  0
  4 33  1  0
  5 34  1  0
  6 35  1  0
  7 36  1  0
 10 37  1  0
 10 38  1  0
 11 39  1  0
 11 40  1  0
 12 41  1  0
 15 42  1  0
 15 43  1  0
 20 44  1  0
 25 45  1  0
 26 46  1  0
 28 47  1  0
 28 48  1  0
 29 49  1  0
 29 50  1  0
M  CHG  1  12   1
M  END
>  <UniqueID>  (8) 
8

>  <SMILES>  (8) 
COc1ccccc1N1CC[NH+](C(=O)COc2c(Cl)cc(Br)c3sccc23)CC1

>  <Energy>  (8) 
100.69761358989186

>  <Genealogy>  (8) 
COc1ccccc1N1CC[NH+](C(=O)COc2c(Cl)cc(Br)c3sccc23)CC1 (protonated)
COc1ccccc1N1CC[NH+](C(=O)COc2c(Cl)cc(Br)c3sccc23)CC1 (3D coordinates assigned)
COc1ccccc1N1CC[NH+](C(=O)COc2c(Cl)cc(Br)c3sccc23)CC1 (nonaromatic ring conformer: 100.69761358989186 kcal/mol)

>  <smiles>  (8) 
COc1ccccc1N1CCN(C(=O)COc2c(Cl)cc(Br)c3sccc23)CC1

>  <score_type>  (8) 
oracle

>  <origin>  (8) 
adg

>  <m_score__min__energy>  (8) 
-7.0300000000000002

>  <m_primary>  (8) 
energy

$$$$
8:0
     RDKit          3D

 42 43  0  0  0  0  0  0  0  0999 V2000
   56.1180   29.7590   43.4750 C   0  0  0  0  0  0  0  0  0  0  0  0
   56.2480   29.9310   44.8800 O   0  0  0  0  0  0  0  0  0  0  0  0
   57.4870   30.0520   45.5180 C   0  0  0  0  0  0  0  0  0  0  0  0
   57.9810   29.0290   46.2680 N   0  0  0  0  0  0  0  0  0  0  0  0
   59.1860   29.1190   46.8870 C   0  0  0  0  0  0  0  0  0  0  0  0
   59.9400   30.2830   46.7510 C   0  0  0  0  0  0  0  0  0  0  0  0
   59.4580   31.3120   46.0040 N   0  0  0  0  0  0  0  0  0  0  0  0
   58.2440   31.2330   45.3870 C   0  0  0  0  0  0  0  0  0  0  0  0
   57.7600   32.3850   44.5410 C   0  0  0  0  0  0  0  0  0  0  0  0
   57.0210   33.4380   45.3790 C   0  0  0  0  0  0  0  0  0  0  0  0
   57.8190   33.8640   46.6230 C   0  0  0  0  0  0  0  0  0  0  0  0
   59.2260   34.1570   46.2660 N   0  0  0  0  0  0  0  0  0  0  0  0
   59.2890   35.2140   45.2350 C   0  0  0  0  0  0  0  0  0  0  0  0
   59.9900   34.5670   47.4650 C   0  0  0  0  0  0  0  0  0  0  0  0
   61.2250   33.7170   47.6320 C   0  0  0  0  0  0  0  0  0  0  0  0
   61.3290   32.8080   48.6990 C   0  0  0  0  0  0  0  0  0  0  0  0
   62.4840   32.0350   48.8530 C   0  0  0  0  0  0  0  0  0  0  0  0
   63.5410   32.1650   47.9480 C   0  0  0  0  0  0  0  0  0  0  0  0
   63.4450   33.0690   46.8870 C   0  0  0  0  0  0  0  0  0  0  0  0
   62.2920   33.8440   46.7280 C   0  0  0  0  0  0  0  0  0  0  0  0
   55.4664   28.8969   43.2699 H   0  0  0  0  0  0  0  0  0  0  0  0
   55.6770   30.6651   43.0339 H   0  0  0  0  0  0  0  0  0  0  0  0
   57.1100   29.5820   43.0339 H   0  0  0  0  0  0  0  0  0  0  0  0
   59.5638   28.2805   47.4905 H   0  0  0  0  0  0  0  0  0  0  0  0
   60.9191   30.3689   47.2449 H   0  0  0  0  0  0  0  0  0  0  0  0
   60.0400   32.1750   45.9060 H   0  0  0  0  0  0  0  0  0  0  0  0
   58.6262   32.8594   44.0567 H   0  0  0  0  0  0  0  0  0  0  0  0
   57.0569   31.9882   43.7938 H   0  0  0  0  0  0  0  0  0  0  0  0
   56.8419   34.3250   44.7535 H   0  0  0  0  0  0  0  0  0  0  0  0
   56.0772   32.9901   45.7235 H   0  0  0  0  0  0  0  0  0  0  0  0
   57.3606   34.7658   47.0550 H   0  0  0  0  0  0  0  0  0  0  0  0
   57.8028   33.0412   47.3529 H   0  0  0  0  0  0  0  0  0  0  0  0
   59.3477   36.1984   45.7223 H   0  0  0  0  0  0  0  0  0  0  0  0
   60.1797   35.0617   44.6077 H   0  0  0  0  0  0  0  0  0  0  0  0
   58.3866   35.1686   44.6077 H   0  0  0  0  0  0  0  0  0  0  0  0
   60.2891   35.6202   47.3589 H   0  0  0  0  0  0  0  0  0  0  0  0
   59.3510   34.4369   48.3508 H   0  0  0  0  0  0  0  0  0  0  0  0
   60.4999   32.7045   49.4145 H   0  0  0  0  0  0  0  0  0  0  0  0
   62.5608   31.3232   49.6881 H   0  0  0  0  0  0  0  0  0  0  0  0
   64.4485   31.5556   48.0710 H   0  0  0  0  0  0  0  0  0  0  0  0
   64.2778   33.1712   46.1756 H   0  0  0  0  0  0  0  0  0  0  0  0
   62.2206   34.5554   45.8921 H   0  0  0  0  0  0  0  0  0  0  0  0
  1  2  1  0
  2  3  1  0
  3  4  2  0
  4  5  1  0
  5  6  2  0
  6  7  1  0
  7  8  2  0
  8  9  1  0
  9 10  1  0
 10 11  1  0
 11 12  1  0
 12 13  1  0
 12 14  1  0
 14 15  1  0
 15 16  2  0
 16 17  1  0
 17 18  2  0
 18 19  1  0
 19 20  2  0
  8  3  1  0
 20 15  1  0
  1 21  1  0
  1 22  1  0
  1 23  1  0
  5 24  1  0
  6 25  1  0
  7 26  1  0
  9 27  1  0
  9 28  1  0
 10 29  1  0
 10 30  1  0
 11 31  1  0
 11 32  1  0
 13 33  1  0
 13 34  1  0
 13 35  1  0
 14 36  1  0
 14 37  1  0
 16 38  1  0
 17 39  1  0
 18 40  1  0
 19 41  1  0
 20 42  1  0
M  CHG  1   7   1
M  END
>  <UniqueID>  (9) 
9

>  <SMILES>  (9) 
COc1ncc[nH+]c1CCCN(C)Cc1ccccc1

>  <Energy>  (9) 
38.85710138418511

>  <Genealogy>  (9) 
COc1ncc[nH+]c1CCCN(C)Cc1ccccc1 (protonated)
COc1ncc[nH+]c1CCCN(C)Cc1ccccc1 (3D coordinates assigned)
COc1ncc[nH+]c1CCCN(C)Cc1ccccc1 (optimized conformer: 38.85710138418511 kcal/mol)

>  <smiles>  (9) 
COc1nccnc1CCCN(C)Cc1ccccc1

>  <score_type>  (9) 
oracle

>  <origin>  (9) 
adg

>  <m_score__min__energy>  (9) 
-5.0099999999999998

>  <m_primary>  (9) 
energy

$$$$
9:0
     RDKit          3D

 46 48  0  0  0  0  0  0  0  0999 V2000
   65.7850   31.0860   51.2240 C   0  0  0  0  0  0  0  0  0  0  0  0
   66.8070   31.9460   50.4890 C   0  0  0  0  0  0  0  0  0  0  0  0
   66.1250   33.0350   49.7780 N   0  0  0  0  0  0  0  0  0  0  0  0
   64.9000   33.4600   50.4710 C   0  0  0  0  0  0  0  0  0  0  0  0
   63.7170   33.5170   49.5400 C   0  0  0  0  0  0  0  0  0  0  0  0
   62.5390   34.1750   49.9140 C   0  0  0  0  0  0  0  0  0  0  0  0
   61.4530   34.1860   49.0390 C   0  0  0  0  0  0  0  0  0  0  0  0
   61.5350   33.5430   47.7920 C   0  0  0  0  0  0  0  0  0  0  0  0
   60.3790   33.5510   46.8600 C   0  0  0  0  0  0  0  0  0  0  0  0
   60.0510   34.5510   45.9400 C   0  0  0  0  0  0  0  0  0  0  0  0
   58.8940   34.2770   45.1990 C   0  0  0  0  0  0  0  0  0  0  0  0
   58.3070   33.0590   45.5170 C   0  0  0  0  0  0  0  0  0  0  0  0
   57.0450   32.4940   44.9140 C   0  0  0  0  0  0  0  0  0  0  0  0
   57.0090   31.0150   44.8900 N   0  0  0  0  0  0  0  0  0  0  0  0
   58.3230   30.4050   44.5920 C   0  0  0  0  0  0  0  0  0  0  0  0
   58.1680   28.9140   44.2620 C   0  0  0  0  0  0  0  0  0  0  0  0
   57.3090   28.6880   43.0820 N   0  0  0  0  0  0  0  0  0  0  0  0
   56.3450   29.7730   42.8220 C   0  0  0  0  0  0  0  0  0  0  0  0
   55.8760   30.4440   44.1210 C   0  0  0  0  0  0  0  0  0  0  0  0
   59.2120   32.3390   46.7360 S   0  0  0  0  0  0  0  0  0  0  0  0
   62.7370   32.8890   47.4650 C   0  0  0  0  0  0  0  0  0  0  0  0
   63.7810   32.8900   48.3360 N   0  0  0  0  0  0  0  0  0  0  0  0
   65.9218   31.2011   52.3094 H   0  0  0  0  0  0  0  0  0  0  0  0
   64.7696   31.4054   50.9465 H   0  0  0  0  0  0  0  0  0  0  0  0
   65.9262   30.0310   50.9465 H   0  0  0  0  0  0  0  0  0  0  0  0
   67.5151   32.3717   51.2152 H   0  0  0  0  0  0  0  0  0  0  0  0
   67.3491   31.3228   49.7625 H   0  0  0  0  0  0  0  0  0  0  0  0
   65.8790   32.7110   48.8130 H   0  0  0  0  0  0  0  0  0  0  0  0
   64.6825   32.7455   51.2786 H   0  0  0  0  0  0  0  0  0  0  0  0
   65.0681   34.4713   50.8698 H   0  0  0  0  0  0  0  0  0  0  0  0
   62.4707   34.6789   50.8894 H   0  0  0  0  0  0  0  0  0  0  0  0
   60.5252   34.7019   49.3271 H   0  0  0  0  0  0  0  0  0  0  0  0
   60.6456   35.4673   45.8100 H   0  0  0  0  0  0  0  0  0  0  0  0
   58.4893   34.9608   44.4384 H   0  0  0  0  0  0  0  0  0  0  0  0
   56.1878   32.8530   45.5025 H   0  0  0  0  0  0  0  0  0  0  0  0
   57.0075   32.8340   43.8685 H   0  0  0  0  0  0  0  0  0  0  0  0
   58.7731   30.9203   43.7307 H   0  0  0  0  0  0  0  0  0  0  0  0
   58.9680   30.5055   45.4774 H   0  0  0  0  0  0  0  0  0  0  0  0
   59.1633   28.4906   44.0615 H   0  0  0  0  0  0  0  0  0  0  0  0
   57.6906   28.4260   45.1245 H   0  0  0  0  0  0  0  0  0  0  0  0
   57.9210   28.5930   42.2370 H   0  0  0  0  0  0  0  0  0  0  0  0
   56.8245   30.5297   42.1836 H   0  0  0  0  0  0  0  0  0  0  0  0
   55.4653   29.3366   42.3262 H   0  0  0  0  0  0  0  0  0  0  0  0
   55.1735   31.2524   43.8700 H   0  0  0  0  0  0  0  0  0  0  0  0
   55.3928   29.6777   44.7449 H   0  0  0  0  0  0  0  0  0  0  0  0
   62.8328   32.3734   46.4981 H   0  0  0  0  0  0  0  0  0  0  0  0
  1  2  1  0
  2  3  1  0
  3  4  1  0
  4  5  1  0
  5  6  2  0
  6  7  1  0
  7  8  2  0
  8  9  1  0
  9 10  2  0
 10 11  1  0
 11 12  2  0
 12 13  1  0
 13 14  1  0
 14 15  1  0
 15 16  1  0
 16 17  1  0
 17 18  1  0
 18 19  1  0
 12 20  1  0
  8 21  1  0
 21 22  2  0
 22  5  1  0
 20  9  1  0
 19 14  1  0
  1 23  1  0
  1 24  1  0
  1 25  1  0
  2 26  1  0
  2 27  1  0
  3 28  1  0
  4 29  1  0
  4 30  1  0
  6 31  1  0
  7 32  1  0
 10 33  1  0
 11 34  1  0
 13 35  1  0
 13 36  1  0
 15 37  1  0
 15 38  1  0
 16 39  1  0
 16 40  1  0
 17 41  1  0
 18 42  1  0
 18 43  1  0
 19 44  1  0
 19 45  1  0
 21 46  1  0
M  END
>  <UniqueID>  (10) 
10

>  <SMILES>  (10) 
CCNCc1ccc(-c2ccc(CN3CCNCC3)s2)cn1

>  <Energy>  (10) 
83.44732400772489

>  <Genealogy>  (10) 
CCNCc1ccc(-c2ccc(CN3CCNCC3)s2)cn1 (3D coordinates assigned)
CCNCc1ccc(-c2ccc(CN3CCNCC3)s2)cn1 (nonaromatic ring conformer: 83.44732400772489 kcal/mol)

>  <smiles>  (10) 
CCNCc1ccc(-c2ccc(CN3CCNCC3)s2)cn1

>  <score_type>  (10) 
oracle

>  <origin>  (10) 
adg

>  <m_score__min__energy>  (10) 
-8.0700000000000003

>  <m_primary>  (10) 
energy

$$$$
10:0
     RDKit          3D

 27 29  0  0  0  0  0  0  0  0999 V2000
   60.0850   34.5840   48.7780 C   0  0  0  0  0  0  0  0  0  0  0  0
   59.4590   34.1300   47.5040 C   0  0  0  0  0  0  0  0  0  0  0  0
   59.3460   34.8810   46.3510 C   0  0  0  0  0  0  0  0  0  0  0  0
   58.6920   34.0760   45.4420 C   0  0  0  0  0  0  0  0  0  0  0  0
   58.4480   32.8870   46.1040 C   0  0  0  0  0  0  0  0  0  0  0  0
   57.7690   31.7180   45.5410 C   0  0  0  0  0  0  0  0  0  0  0  0
   56.6230   31.7770   44.8390 N   0  0  0  0  0  0  0  0  0  0  0  0
   56.3310   30.5300   44.5050 N   0  0  0  0  0  0  0  0  0  0  0  0
   57.3110   29.7580   45.0160 C   0  0  0  0  0  0  0  0  0  0  0  0
   57.3790   28.2900   44.8780 C   0  0  0  0  0  0  0  0  0  0  0  0
   57.8030   27.7020   43.6740 C   0  0  0  0  0  0  0  0  0  0  0  0
   57.8650   26.3100   43.5510 C   0  0  0  0  0  0  0  0  0  0  0  0
   57.5040   25.4950   44.6280 C   0  0  0  0  0  0  0  0  0  0  0  0
   57.5900   23.5950   44.4580 Br  0  0  0  0  0  0  0  0  0  0  0  0
   57.0820   26.0720   45.8290 C   0  0  0  0  0  0  0  0  0  0  0  0
   57.0190   27.4630   45.9560 C   0  0  0  0  0  0  0  0  0  0  0  0
   58.1980   30.4840   45.6540 O   0  0  0  0  0  0  0  0  0  0  0  0
   58.9140   32.9480   47.3300 O   0  0  0  0  0  0  0  0  0  0  0  0
   59.5213   34.1752   49.6296 H   0  0  0  0  0  0  0  0  0  0  0  0
   61.1252   34.2289   48.8224 H   0  0  0  0  0  0  0  0  0  0  0  0
   60.0706   35.6830   48.8224 H   0  0  0  0  0  0  0  0  0  0  0  0
   59.7036   35.9088   46.1906 H   0  0  0  0  0  0  0  0  0  0  0  0
   58.4209   34.3275   44.4060 H   0  0  0  0  0  0  0  0  0  0  0  0
   58.0876   28.3397   42.8240 H   0  0  0  0  0  0  0  0  0  0  0  0
   58.1981   25.8562   42.6060 H   0  0  0  0  0  0  0  0  0  0  0  0
   56.7988   25.4303   46.6763 H   0  0  0  0  0  0  0  0  0  0  0  0
   56.6863   27.9120   46.9035 H   0  0  0  0  0  0  0  0  0  0  0  0
  1  2  1  0
  2  3  2  0
  3  4  1  0
  4  5  2  0
  5  6  1  0
  6  7  2  0
  7  8  1  0
  8  9  2  0
  9 10  1  0
 10 11  2  0
 11 12  1  0
 12 13  2  0
 13 14  1  0
 13 15  1  0
 15 16  2  0
  9 17  1  0
  5 18  1  0
 18  2  1  0
 17  6  1  0
 16 10  1  0
  1 19  1  0
  1 20  1  0
  1 21  1  0
  3 22  1  0
  4 23  1  0
 11 24  1  0
 12 25  1  0
 15 26  1  0
 16 27  1  0
M  END
>  <UniqueID>  (11) 
11

>  <SMILES>  (11) 
Cc1ccc(-c2nnc(-c3ccc(Br)cc3)o2)o1

>  <Energy>  (11) 
87.51262563894188

>  <Genealogy>  (11) 
Cc1ccc(-c2nnc(-c3ccc(Br)cc3)o2)o1 (3D coordinates assigned)
Cc1ccc(-c2nnc(-c3ccc(Br)cc3)o2)o1 (optimized conformer: 87.51262563894188 kcal/mol)

>  <smiles>  (11) 
Cc1ccc(-c2nnc(-c3ccc(Br)cc3)o2)o1

>  <score_type>  (11) 
oracle

>  <origin>  (11) 
adg

>  <m_score__min__energy>  (11) 
-7.0499999999999998

>  <m_primary>  (11) 
energy

$$$$
11:0
     RDKit          3D

 41 43  0  0  0  0  0  0  0  0999 V2000
   65.0600   33.0660   49.8230 C   0  0  0  0  0  0  0  0  0  0  0  0
   64.2270   32.0270   49.0700 C   0  0  0  0  0  0  0  0  0  0  0  0
   62.9210   32.5380   48.6000 N   0  0  0  0  0  0  0  0  0  0  0  0
   62.9690   33.8750   47.9550 C   0  0  0  0  0  0  0  0  0  0  0  0
   63.3630   33.8660   46.4710 C   0  0  0  0  0  0  0  0  0  0  0  0
   61.7990   32.2780   49.5290 C   0  0  0  0  0  0  0  0  0  0  0  0
   60.5300   31.8660   48.7700 C   0  0  0  0  0  0  0  0  0  0  0  0
   60.6670   32.1070   47.3310 N   0  0  0  0  0  0  0  0  0  0  0  0
   59.5650   32.5010   46.4920 C   0  0  0  0  0  0  0  0  0  0  0  0
   59.2470   33.8620   46.2600 C   0  0  0  0  0  0  0  0  0  0  0  0
   58.1490   34.2200   45.4530 C   0  0  0  0  0  0  0  0  0  0  0  0
   57.3530   33.2320   44.8560 C   0  0  0  0  0  0  0  0  0  0  0  0
   57.6890   31.9010   45.0740 C   0  0  0  0  0  0  0  0  0  0  0  0
   58.7570   31.5290   45.8790 C   0  0  0  0  0  0  0  0  0  0  0  0
   58.8360   30.0240   46.0140 C   0  0  0  0  0  0  0  0  0  0  0  0
   57.6770   29.6290   45.1510 C   0  0  0  0  0  0  0  0  0  0  0  0
   56.6950   28.6800   45.3170 C   0  0  0  0  0  0  0  0  0  0  0  0
   55.5260   29.1970   44.8710 N   0  0  0  0  0  0  0  0  0  0  0  0
   55.7270   30.4530   44.4830 N   0  0  0  0  0  0  0  0  0  0  0  0
   57.0400   30.6960   44.6200 C   0  0  0  0  0  0  0  0  0  0  0  0
   64.9403   32.9168   50.9062 H   0  0  0  0  0  0  0  0  0  0  0  0
   66.1200   32.9524   49.5521 H   0  0  0  0  0  0  0  0  0  0  0  0
   64.7186   34.0760   49.5521 H   0  0  0  0  0  0  0  0  0  0  0  0
   64.8022   31.6884   48.1957 H   0  0  0  0  0  0  0  0  0  0  0  0
   64.0169   31.2106   49.7766 H   0  0  0  0  0  0  0  0  0  0  0  0
   61.9717   34.3311   48.0405 H   0  0  0  0  0  0  0  0  0  0  0  0
   63.7542   34.4405   48.4780 H   0  0  0  0  0  0  0  0  0  0  0  0
   64.4592   33.8410   46.3828 H   0  0  0  0  0  0  0  0  0  0  0  0
   62.9355   32.9774   45.9835 H   0  0  0  0  0  0  0  0  0  0  0  0
   62.9766   34.7732   45.9835 H   0  0  0  0  0  0  0  0  0  0  0  0
   62.0838   31.4683   50.2169 H   0  0  0  0  0  0  0  0  0  0  0  0
   61.5863   33.2036   50.0839 H   0  0  0  0  0  0  0  0  0  0  0  0
   60.3444   30.7948   48.9376 H   0  0  0  0  0  0  0  0  0  0  0  0
   59.6905   32.4703   49.1443 H   0  0  0  0  0  0  0  0  0  0  0  0
   61.6110   31.9980   46.8930 H   0  0  0  0  0  0  0  0  0  0  0  0
   59.8653   34.6493   46.7158 H   0  0  0  0  0  0  0  0  0  0  0  0
   57.9145   35.2823   45.2901 H   0  0  0  0  0  0  0  0  0  0  0  0
   56.4876   33.5025   44.2331 H   0  0  0  0  0  0  0  0  0  0  0  0
   59.7869   29.6281   45.6281 H   0  0  0  0  0  0  0  0  0  0  0  0
   58.7968   29.6470   47.0466 H   0  0  0  0  0  0  0  0  0  0  0  0
   56.8355   27.6741   45.7395 H   0  0  0  0  0  0  0  0  0  0  0  0
  1  2  1  0
  2  3  1  0
  3  4  1  0
  4  5  1  0
  3  6  1  0
  6  7  1  0
  7  8  1  0
  8  9  1  0
  9 10  2  0
 10 11  1  0
 11 12  2  0
 12 13  1  0
 13 14  2  0
 14 15  1  0
 15 16  1  0
 16 17  2  0
 17 18  1  0
 18 19  1  0
 19 20  2  0
 14  9  1  0
 20 16  1  0
 20 13  1  0
  1 21  1  0
  1 22  1  0
  1 23  1  0
  2 24  1  0
  2 25  1  0
  4 26  1  0
  4 27  1  0
  5 28  1  0
  5 29  1  0
  5 30  1  0
  6 31  1  0
  6 32  1  0
  7 33  1  0
  7 34  1  0
  8 35  1  0
 10 36  1  0
 11 37  1  0
 12 38  1  0
 15 39  1  0
 15 40  1  0
 17 41  1  0
M  CHG  1  18  -1
M  END
>  <UniqueID>  (12) 
12

>  <SMILES>  (12) 
CCN(CC)CCNc1cccc2c1Cc1c[n-]nc1-2

>  <Energy>  (12) 
116.77704937582459

>  <Genealogy>  (12) 
CCN(CC)CCNc1cccc2c1Cc1c[n-]nc1-2 (protonated)
CCN(CC)CCNc1cccc2c1Cc1c[n-]nc1-2 (3D coordinates assigned)
CCN(CC)CCNc1cccc2c1Cc1c[n-]nc1-2 (nonaromatic ring conformer: 116.77704937582459 kcal/mol)

>  <smiles>  (12) 
CCN(CC)CCNc1cccc2c1Cc1c[nH]nc1-2

>  <score_type>  (12) 
oracle

>  <origin>  (12) 
adg

>  <m_score__min__energy>  (12) 
-9.1099999999999994

>  <m_primary>  (12) 
energy

$$$$
12:0
     RDKit          3D

 49 50  0  0  0  0  0  0  0  0999 V2000
   57.8200   27.6870   44.3880 C   0  0  0  0  0  0  0  0  0  0  0  0
   57.0970   28.2210   45.6190 C   0  0  0  0  0  0  0  0  0  0  0  0
   55.8690   28.9110   45.2360 N   0  0  0  0  0  0  0  0  0  0  0  0
   55.7200   29.8540   44.1650 C   0  0  0  0  0  0  0  0  0  0  0  0
   54.7530   29.7120   43.3690 O   0  0  0  0  0  0  0  0  0  0  0  0
   56.6850   30.9970   43.9380 C   0  0  0  0  0  0  0  0  0  0  0  0
   57.3190   31.4450   45.2030 N   0  0  0  0  0  0  0  0  0  0  0  0
   57.0660   32.8900   45.4710 C   0  0  0  0  0  0  0  0  0  0  0  0
   58.2420   33.7800   45.0350 C   0  0  0  0  0  0  0  0  0  0  0  0
   59.5040   33.4240   45.7330 N   0  0  0  0  0  0  0  0  0  0  0  0
   59.7700   34.3290   46.8730 C   0  0  0  0  0  0  0  0  0  0  0  0
   61.1280   34.0500   47.4760 C   0  0  0  0  0  0  0  0  0  0  0  0
   62.2140   33.8090   46.6190 C   0  0  0  0  0  0  0  0  0  0  0  0
   63.4770   33.5200   47.1390 C   0  0  0  0  0  0  0  0  0  0  0  0
   63.6660   33.4590   48.5180 C   0  0  0  0  0  0  0  0  0  0  0  0
   62.5950   33.6880   49.3840 C   0  0  0  0  0  0  0  0  0  0  0  0
   61.3140   33.9870   48.8760 C   0  0  0  0  0  0  0  0  0  0  0  0
   60.2100   34.2120   49.7190 O   0  0  0  0  0  0  0  0  0  0  0  0
   59.5040   33.2160   50.4600 C   0  0  0  0  0  0  0  0  0  0  0  0
   58.7250   32.2980   49.5230 C   0  0  0  0  0  0  0  0  0  0  0  0
   59.5610   31.9990   46.1450 C   0  0  0  0  0  0  0  0  0  0  0  0
   58.7660   31.1080   45.1830 C   0  0  0  0  0  0  0  0  0  0  0  0
   58.6677   27.0609   44.7034 H   0  0  0  0  0  0  0  0  0  0  0  0
   57.1235   27.0849   43.7861 H   0  0  0  0  0  0  0  0  0  0  0  0
   58.1907   28.5298   43.7861 H   0  0  0  0  0  0  0  0  0  0  0  0
   56.8471   27.3811   46.2839 H   0  0  0  0  0  0  0  0  0  0  0  0
   57.7569   28.9332   46.1361 H   0  0  0  0  0  0  0  0  0  0  0  0
   57.4714   30.6660   43.2437 H   0  0  0  0  0  0  0  0  0  0  0  0
   56.1192   31.8435   43.5216 H   0  0  0  0  0  0  0  0  0  0  0  0
   56.8920   30.8990   45.9910 H   0  0  0  0  0  0  0  0  0  0  0  0
   56.1654   33.1993   44.9204 H   0  0  0  0  0  0  0  0  0  0  0  0
   56.9359   33.0128   46.5563 H   0  0  0  0  0  0  0  0  0  0  0  0
   58.3915   33.6637   43.9514 H   0  0  0  0  0  0  0  0  0  0  0  0
   57.9936   34.8194   45.2956 H   0  0  0  0  0  0  0  0  0  0  0  0
   59.7391   35.3707   46.5210 H   0  0  0  0  0  0  0  0  0  0  0  0
   59.0020   34.1612   47.6424 H   0  0  0  0  0  0  0  0  0  0  0  0
   62.0684   33.8482   45.5294 H   0  0  0  0  0  0  0  0  0  0  0  0
   64.3233   33.3404   46.4596 H   0  0  0  0  0  0  0  0  0  0  0  0
   64.6617   33.2298   48.9256 H   0  0  0  0  0  0  0  0  0  0  0  0
   62.7518   33.6347   50.4715 H   0  0  0  0  0  0  0  0  0  0  0  0
   60.2241   32.6167   51.0365 H   0  0  0  0  0  0  0  0  0  0  0  0
   58.7947   33.7150   51.1367 H   0  0  0  0  0  0  0  0  0  0  0  0
   58.1257   31.5917   50.1162 H   0  0  0  0  0  0  0  0  0  0  0  0
   58.0590   32.9013   48.8886 H   0  0  0  0  0  0  0  0  0  0  0  0
   59.4286   31.7391   48.8886 H   0  0  0  0  0  0  0  0  0  0  0  0
   60.6107   31.6702   46.1531 H   0  0  0  0  0  0  0  0  0  0  0  0
   59.1171   31.9097   47.1475 H   0  0  0  0  0  0  0  0  0  0  0  0
   59.1523   31.2489   44.1627 H   0  0  0  0  0  0  0  0  0  0  0  0
   58.8825   30.0622   45.5034 H   0  0  0  0  0  0  0  0  0  0  0  0
  1  2  1  0
  2  3  1  0
  3  4  1  0
  4  5  2  0
  4  6  1  0
  6  7  1  0
  7  8  1  0
  8  9  1  0
  9 10  1  0
 10 11  1  0
 11 12  1  0
 12 13  2  0
 13 14  1  0
 14 15  2  0
 15 16  1  0
 16 17  2  0
 17 18  1  0
 18 19  1  0
 19 20  1  0
 10 21  1  0
 21 22  1  0
 22  7  1  0
 17 12  1  0
  1 23  1  0
  1 24  1  0
  1 25  1  0
  2 26  1  0
  2 27  1  0
  6 28  1  0
  6 29  1  0
  7 30  1  0
  8 31  1  0
  8 32  1  0
  9 33  1  0
  9 34  1  0
 11 35  1  0
 11 36  1  0
 13 37  1  0
 14 38  1  0
 15 39  1  0
 16 40  1  0
 19 41  1  0
 19 42  1  0
 20 43  1  0
 20 44  1  0
 20 45  1  0
 21 46  1  0
 21 47  1  0
 22 48  1  0
 22 49  1  0
M  CHG  2   3  -1   7   1
M  END
>  <UniqueID>  (13) 
13

>  <SMILES>  (13) 
CC[N-]C(=O)C[NH+]1CCN(Cc2ccccc2OCC)CC1

>  <Energy>  (13) 
56.4094556843275

>  <Genealogy>  (13) 
CC[N-]C(=O)C[NH+]1CCN(Cc2ccccc2OCC)CC1 (protonated)
CC[N-]C(=O)C[NH+]1CCN(Cc2ccccc2OCC)CC1 (3D coordinates assigned)
CC[N-]C(=O)C[NH+]1CCN(Cc2ccccc2OCC)CC1 (nonaromatic ring conformer: 56.4094556843275 kcal/mol)

>  <smiles>  (13) 
CCNC(=O)CN1CCN(Cc2ccccc2OCC)CC1

>  <score_type>  (13) 
oracle

>  <origin>  (13) 
adg

>  <m_score__min__energy>  (13) 
-7.1100000000000003

>  <m_primary>  (13) 
energy

$$$$
13:0
     RDKit          3D

 43 45  0  0  0  0  0  0  0  0999 V2000
   57.2790   23.4580   44.1170 C   0  0  0  0  0  0  0  0  0  0  0  0
   57.2290   24.9210   44.4490 C   0  0  0  0  0  0  0  0  0  0  0  0
   56.6940   25.3510   45.6690 C   0  0  0  0  0  0  0  0  0  0  0  0
   56.6810   26.7100   45.9960 C   0  0  0  0  0  0  0  0  0  0  0  0
   57.2060   27.6670   45.1040 C   0  0  0  0  0  0  0  0  0  0  0  0
   57.2440   29.1530   45.4430 C   0  0  1  0  0  0  0  0  0  0  0  0
   58.4790   29.9220   44.8840 C   0  0  0  0  0  0  0  0  0  0  0  0
   58.1060   31.1440   44.1390 N   0  0  2  0  0  0  0  0  0  0  0  0
   57.7720   32.2610   45.0110 C   0  0  0  0  0  0  0  0  0  0  0  0
   56.6400   32.8160   44.9190 O   0  0  0  0  0  0  0  0  0  0  0  0
   58.7430   32.7970   46.0090 C   0  0  0  0  0  0  0  0  0  0  0  0
   59.4900   33.9680   45.7780 C   0  0  0  0  0  0  0  0  0  0  0  0
   60.3860   34.4350   46.7410 C   0  0  0  0  0  0  0  0  0  0  0  0
   60.5400   33.7310   47.9390 C   0  0  0  0  0  0  0  0  0  0  0  0
   61.4850   34.2220   48.9890 C   0  0  0  0  0  0  0  0  0  0  0  0
   59.8080   32.6080   48.1560 N   0  0  0  0  0  0  0  0  0  0  0  0
   58.9280   32.1310   47.2360 C   0  0  0  0  0  0  0  0  0  0  0  0
   57.0260   30.8690   43.1710 C   0  0  0  0  0  0  0  0  0  0  0  0
   55.8580   30.0580   43.7730 C   0  0  0  0  0  0  0  0  0  0  0  0
   56.0100   29.7860   45.1510 O   0  0  0  0  0  0  0  0  0  0  0  0
   57.7760   27.2210   43.8970 C   0  0  0  0  0  0  0  0  0  0  0  0
   57.7870   25.8620   43.5730 C   0  0  0  0  0  0  0  0  0  0  0  0
   57.2990   22.8714   45.0473 H   0  0  0  0  0  0  0  0  0  0  0  0
   56.3897   23.1846   43.5302 H   0  0  0  0  0  0  0  0  0  0  0  0
   58.1849   23.2459   43.5302 H   0  0  0  0  0  0  0  0  0  0  0  0
   56.2813   24.6150   46.3747 H   0  0  0  0  0  0  0  0  0  0  0  0
   56.2575   27.0354   46.9576 H   0  0  0  0  0  0  0  0  0  0  0  0
   57.3869   29.2009   46.5326 H   0  0  0  0  0  0  0  0  0  0  0  0
   59.1255   30.2081   45.7267 H   0  0  0  0  0  0  0  0  0  0  0  0
   58.9957   29.2515   44.1816 H   0  0  0  0  0  0  0  0  0  0  0  0
   58.9610   31.4100   43.5980 H   0  0  0  0  0  0  0  0  0  0  0  0
   59.3668   34.5179   44.8333 H   0  0  0  0  0  0  0  0  0  0  0  0
   60.9671   35.3510   46.5585 H   0  0  0  0  0  0  0  0  0  0  0  0
   61.0706   34.0067   49.9849 H   0  0  0  0  0  0  0  0  0  0  0  0
   62.4539   33.7133   48.8772 H   0  0  0  0  0  0  0  0  0  0  0  0
   61.6257   35.3072   48.8772 H   0  0  0  0  0  0  0  0  0  0  0  0
   58.3555   31.2169   47.4519 H   0  0  0  0  0  0  0  0  0  0  0  0
   56.6325   31.8288   42.8050 H   0  0  0  0  0  0  0  0  0  0  0  0
   57.4602   30.2633   42.3619 H   0  0  0  0  0  0  0  0  0  0  0  0
   54.9286   30.6292   43.6316 H   0  0  0  0  0  0  0  0  0  0  0  0
   55.8362   29.0888   43.2531 H   0  0  0  0  0  0  0  0  0  0  0  0
   58.2174   27.9500   43.2015 H   0  0  0  0  0  0  0  0  0  0  0  0
   58.2359   25.5289   42.6256 H   0  0  0  0  0  0  0  0  0  0  0  0
  1  2  1  0
  2  3  2  0
  3  4  1  0
  4  5  2  0
  5  6  1  0
  6  7  1  0
  7  8  1  0
  8  9  1  0
  9 10  2  0
  9 11  1  0
 11 12  2  0
 12 13  1  0
 13 14  2  0
 14 15  1  0
 14 16  1  0
 16 17  2  0
  8 18  1  0
 18 19  1  0
 19 20  1  0
  5 21  1  0
 21 22  2  0
 22  2  1  0
 20  6  1  0
 17 11  1  0
  1 23  1  0
  1 24  1  0
  1 25  1  0
  3 26  1  0
  4 27  1  0
  6 28  1  1
  7 29  1  0
  7 30  1  0
  8 31  1  6
 12 32  1  0
 13 33  1  0
 15 34  1  0
 15 35  1  0
 15 36  1  0
 17 37  1  0
 18 38  1  0
 18 39  1  0
 19 40  1  0
 19 41  1  0
 21 42  1  0
 22 43  1  0
M  CHG  1   8   1
M  END
>  <UniqueID>  (14) 
14

>  <SMILES>  (14) 
Cc1ccc([C@H]2C[N@H+](C(=O)c3ccc(C)nc3)CCO2)cc1

>  <Energy>  (14) 
66.04235707567982

>  <Genealogy>  (14) 
Cc1ccc(C2C[NH+](C(=O)c3ccc(C)nc3)CCO2)cc1 (protonated)
Cc1ccc([C@H]2C[N@H+](C(=O)c3ccc(C)nc3)CCO2)cc1 (chirality)
Cc1ccc([C@H]2C[N@H+](C(=O)c3ccc(C)nc3)CCO2)cc1 (3D coordinates assigned)
Cc1ccc([C@H]2C[N@H+](C(=O)c3ccc(C)nc3)CCO2)cc1 (nonaromatic ring conformer: 66.04235707567982 kcal/mol)

>  <smiles>  (14) 
Cc1ccc(C2CN(C(=O)c3ccc(C)nc3)CCO2)cc1

>  <score_type>  (14) 
oracle

>  <origin>  (14) 
adg

>  <m_score__min__energy>  (14) 
-6.3499999999999996

>  <m_primary>  (14) 
energy

$$$$
14:0
     RDKit          3D

 43 46  0  0  0  0  0  0  0  0999 V2000
   59.6670   34.6050   48.8500 C   0  0  0  0  0  0  0  0  0  0  0  0
   60.9610   34.0970   48.2790 C   0  0  0  0  0  0  0  0  0  0  0  0
   61.9460   33.5670   49.1300 C   0  0  0  0  0  0  0  0  0  0  0  0
   63.1480   33.0840   48.6050 C   0  0  0  0  0  0  0  0  0  0  0  0
   64.4810   32.3680   49.7700 Br  0  0  0  0  0  0  0  0  0  0  0  0
   63.3730   33.1260   47.2280 C   0  0  0  0  0  0  0  0  0  0  0  0
   62.4000   33.6480   46.3730 C   0  0  0  0  0  0  0  0  0  0  0  0
   61.1840   34.1360   46.8890 C   0  0  0  0  0  0  0  0  0  0  0  0
   60.1800   34.6680   46.0600 O   0  0  0  0  0  0  0  0  0  0  0  0
   59.2490   33.9080   45.2890 C   0  0  0  0  0  0  0  0  0  0  0  0
   58.1800   33.2600   46.1900 C   0  0  0  0  0  0  0  0  0  0  0  0
   58.3720   31.8060   46.3120 N   0  0  0  0  0  0  0  0  0  0  0  0
   57.9850   30.9100   45.2430 C   0  0  0  0  0  0  0  0  0  0  0  0
   56.8110   31.1230   44.4950 C   0  0  0  0  0  0  0  0  0  0  0  0
   56.3700   30.1610   43.5820 C   0  0  0  0  0  0  0  0  0  0  0  0
   57.0850   28.9730   43.4110 C   0  0  0  0  0  0  0  0  0  0  0  0
   58.2610   28.7570   44.1340 C   0  0  0  0  0  0  0  0  0  0  0  0
   58.7210   29.7270   45.0300 C   0  0  0  0  0  0  0  0  0  0  0  0
   60.3160   29.5250   45.8200 S   0  0  0  0  0  0  0  0  0  0  0  0
   59.7190   30.0640   47.4220 C   0  0  0  0  0  0  0  0  0  0  0  0
   60.1180   29.3830   48.5770 C   0  0  0  0  0  0  0  0  0  0  0  0
   59.7720   29.8800   49.8360 C   0  0  0  0  0  0  0  0  0  0  0  0
   59.0300   31.0600   49.9410 C   0  0  0  0  0  0  0  0  0  0  0  0
   58.6090   31.7310   48.7890 C   0  0  0  0  0  0  0  0  0  0  0  0
   58.9340   31.2300   47.5140 C   0  0  0  0  0  0  0  0  0  0  0  0
   59.7181   34.5849   49.9486 H   0  0  0  0  0  0  0  0  0  0  0  0
   59.4961   35.6370   48.5097 H   0  0  0  0  0  0  0  0  0  0  0  0
   58.8397   33.9649   48.5097 H   0  0  0  0  0  0  0  0  0  0  0  0
   61.7700   33.5321   50.2153 H   0  0  0  0  0  0  0  0  0  0  0  0
   64.3195   32.7468   46.8152 H   0  0  0  0  0  0  0  0  0  0  0  0
   62.5847   33.6782   45.2890 H   0  0  0  0  0  0  0  0  0  0  0  0
   58.7541   34.5730   44.5659 H   0  0  0  0  0  0  0  0  0  0  0  0
   59.7972   33.1093   44.7679 H   0  0  0  0  0  0  0  0  0  0  0  0
   58.2380   33.7115   47.1914 H   0  0  0  0  0  0  0  0  0  0  0  0
   57.1958   33.4362   45.7314 H   0  0  0  0  0  0  0  0  0  0  0  0
   56.2377   32.0520   44.6301 H   0  0  0  0  0  0  0  0  0  0  0  0
   55.4565   30.3399   42.9959 H   0  0  0  0  0  0  0  0  0  0  0  0
   56.7226   28.2085   42.7080 H   0  0  0  0  0  0  0  0  0  0  0  0
   58.8256   27.8228   43.9982 H   0  0  0  0  0  0  0  0  0  0  0  0
   60.7043   28.4560   48.4939 H   0  0  0  0  0  0  0  0  0  0  0  0
   60.0833   29.3430   50.7442 H   0  0  0  0  0  0  0  0  0  0  0  0
   58.7766   31.4619   50.9331 H   0  0  0  0  0  0  0  0  0  0  0  0
   58.0204   32.6559   48.8793 H   0  0  0  0  0  0  0  0  0  0  0  0
  1  2  1  0
  2  3  2  0
  3  4  1  0
  4  5  1  0
  4  6  2  0
  6  7  1  0
  7  8  2  0
  8  9  1  0
  9 10  1  0
 10 11  1  0
 11 12  1  0
 12 13  1  0
 13 14  2  0
 14 15  1  0
 15 16  2  0
 16 17  1  0
 17 18  2  0
 18 19  1  0
 19 20  1  0
 20 21  2  0
 21 22  1  0
 22 23  2  0
 23 24  1  0
 24 25  2  0
  8  2  1  0
 25 12  1  0
 18 13  1  0
 25 20  1  0
  1 26  1  0
  1 27  1  0
  1 28  1  0
  3 29  1  0
  6 30  1  0
  7 31  1  0
 10 32  1  0
 10 33  1  0
 11 34  1  0
 11 35  1  0
 14 36  1  0
 15 37  1  0
 16 38  1  0
 17 39  1  0
 21 40  1  0
 22 41  1  0
 23 42  1  0
 24 43  1  0
M  END
>  <UniqueID>  (15) 
15

>  <SMILES>  (15) 
Cc1cc(Br)ccc1OCCN1c2ccccc2Sc2ccccc21

>  <Energy>  (15) 
65.64383008493509

>  <Genealogy>  (15) 
Cc1cc(Br)ccc1OCCN1c2ccccc2Sc2ccccc21 (3D coordinates assigned)
Cc1cc(Br)ccc1OCCN1c2ccccc2Sc2ccccc21 (nonaromatic ring conformer: 65.64383008493509 kcal/mol)

>  <smiles>  (15) 
Cc1cc(Br)ccc1OCCN1c2ccccc2Sc2ccccc21

>  <score_type>  (15) 
oracle

>  <origin>  (15) 
adg

>  <m_score__min__energy>  (15) 
-8.1099999999999994

>  <m_primary>  (15) 
energy

$$$$
15:0
     RDKit          3D

 47 48  0  0  0  0  0  0  0  0999 V2000
   58.3980   33.7650   44.6460 C   0  0  0  0  0  0  0  0  0  0  0  0
   59.6300   33.8980   45.5400 C   0  0  0  0  0  0  0  0  0  0  0  0
   59.2710   34.1640   46.9540 N   0  0  0  0  0  0  0  0  0  0  0  0
   58.2480   33.1850   47.3960 C   0  0  0  0  0  0  0  0  0  0  0  0
   58.6150   32.5680   48.7440 C   0  0  0  0  0  0  0  0  0  0  0  0
   60.4650   34.1320   47.8440 C   0  0  0  0  0  0  0  0  0  0  0  0
   61.7660   34.1600   47.0260 C   0  0  0  0  0  0  0  0  0  0  0  0
   62.5500   32.8420   47.1290 C   0  0  0  0  0  0  0  0  0  0  0  0
   61.7310   31.7250   47.7920 C   0  0  0  0  0  0  0  0  0  0  0  0
   61.4290   30.5670   46.8280 C   0  0  0  0  0  0  0  0  0  0  0  0
   60.0140   30.5710   46.4550 N   0  0  0  0  0  0  0  0  0  0  0  0
   59.1750   29.4000   46.4420 C   0  0  0  0  0  0  0  0  0  0  0  0
   59.5630   28.1710   47.0260 C   0  0  0  0  0  0  0  0  0  0  0  0
   58.7030   27.0490   46.9900 C   0  0  0  0  0  0  0  0  0  0  0  0
   57.4300   27.1240   46.3780 C   0  0  0  0  0  0  0  0  0  0  0  0
   56.5590   25.9760   46.3610 N   0  0  0  0  0  0  0  0  0  0  0  0
   56.9950   24.8310   46.5900 O   0  0  0  0  0  0  0  0  0  0  0  0
   55.2360   26.1190   46.0080 O   0  0  0  0  0  0  0  0  0  0  0  0
   57.0810   28.3600   45.8100 C   0  0  0  0  0  0  0  0  0  0  0  0
   55.9790   28.7380   45.1410 N   0  0  0  0  0  0  0  0  0  0  0  0
   56.1690   29.9870   44.8100 O   0  0  0  0  0  0  0  0  0  0  0  0
   57.3210   30.4650   45.2090 N   0  0  0  0  0  0  0  0  0  0  0  0
   57.9130   29.4390   45.8450 C   0  0  0  0  0  0  0  0  0  0  0  0
   57.4991   33.6680   45.2725 H   0  0  0  0  0  0  0  0  0  0  0  0
   58.3076   34.6586   44.0109 H   0  0  0  0  0  0  0  0  0  0  0  0
   58.5004   32.8727   44.0109 H   0  0  0  0  0  0  0  0  0  0  0  0
   60.2058   32.9620   45.4909 H   0  0  0  0  0  0  0  0  0  0  0  0
   60.2206   34.7515   45.1756 H   0  0  0  0  0  0  0  0  0  0  0  0
   57.2787   33.6969   47.4884 H   0  0  0  0  0  0  0  0  0  0  0  0
   58.1935   32.3793   46.6491 H   0  0  0  0  0  0  0  0  0  0  0  0
   58.2352   33.2066   49.5551 H   0  0  0  0  0  0  0  0  0  0  0  0
   58.1652   31.5674   48.8239 H   0  0  0  0  0  0  0  0  0  0  0  0
   59.7090   32.4857   48.8239 H   0  0  0  0  0  0  0  0  0  0  0  0
   60.4404   35.0073   48.5098 H   0  0  0  0  0  0  0  0  0  0  0  0
   60.4400   33.2006   48.4287 H   0  0  0  0  0  0  0  0  0  0  0  0
   61.5159   34.3409   45.9702 H   0  0  0  0  0  0  0  0  0  0  0  0
   62.4010   34.9611   47.4322 H   0  0  0  0  0  0  0  0  0  0  0  0
   62.8332   32.5191   46.1163 H   0  0  0  0  0  0  0  0  0  0  0  0
   63.4354   33.0261   47.7552 H   0  0  0  0  0  0  0  0  0  0  0  0
   62.2983   31.3323   48.6487 H   0  0  0  0  0  0  0  0  0  0  0  0
   60.7699   32.1569   48.1079 H   0  0  0  0  0  0  0  0  0  0  0  0
   62.0431   30.6795   45.9223 H   0  0  0  0  0  0  0  0  0  0  0  0
   61.6641   29.6156   47.3276 H   0  0  0  0  0  0  0  0  0  0  0  0
   59.5910   31.4930   46.2020 H   0  0  0  0  0  0  0  0  0  0  0  0
   60.5453   28.0873   47.5138 H   0  0  0  0  0  0  0  0  0  0  0  0
   59.0294   26.1024   47.4454 H   0  0  0  0  0  0  0  0  0  0  0  0
   55.1320   28.1810   44.8980 H   0  0  0  0  0  0  0  0  0  0  0  0
  1  2  1  0
  2  3  1  0
  3  4  1  0
  4  5  1  0
  3  6  1  0
  6  7  1  0
  7  8  1  0
  8  9  1  0
  9 10  1  0
 10 11  1  0
 11 12  1  0
 12 13  2  0
 13 14  1  0
 14 15  2  0
 15 16  1  0
 16 17  2  0
 16 18  1  0
 15 19  1  0
 19 20  2  0
 20 21  1  0
 21 22  1  0
 22 23  2  0
 23 12  1  0
 23 19  1  0
  1 24  1  0
  1 25  1  0
  1 26  1  0
  2 27  1  0
  2 28  1  0
  4 29  1  0
  4 30  1  0
  5 31  1  0
  5 32  1  0
  5 33  1  0
  6 34  1  0
  6 35  1  0
  7 36  1  0
  7 37  1  0
  8 38  1  0
  8 39  1  0
  9 40  1  0
  9 41  1  0
 10 42  1  0
 10 43  1  0
 11 44  1  0
 13 45  1  0
 14 46  1  0
 20 47  1  0
M  CHG  3  16   1  18  -1  20   1
M  END
>  <UniqueID>  (16) 
16

>  <SMILES>  (16) 
CCN(CC)CCCCCNc1ccc([N+](=O)[O-])c2[nH+]onc12

>  <Energy>  (16) 
85.89993293534472

>  <Genealogy>  (16) 
CCN(CC)CCCCCNc1ccc([N+](=O)[O-])c2[nH+]onc12 (protonated)
CCN(CC)CCCCCNc1ccc([N+](=O)[O-])c2[nH+]onc12 (3D coordinates assigned)
CCN(CC)CCCCCNc1ccc([N+](=O)[O-])c2[nH+]onc12 (optimized conformer: 85.89993293534472 kcal/mol)

>  <smiles>  (16) 
CCN(CC)CCCCCNc1ccc([N+](=O)[O-])c2nonc12

>  <score_type>  (16) 
oracle

>  <origin>  (16) 
adg

>  <m_score__min__energy>  (16) 
-6.6399999999999997

>  <m_primary>  (16) 
energy

$$$$
16:0
     RDKit          3D

 47 50  0  0  0  0  0  0  0  0999 V2000
   57.7240   31.7040   50.8930 C   0  0  0  0  0  0  0  0  0  0  0  0
   58.5390   32.2270   49.7100 C   0  0  0  0  0  0  0  0  0  0  0  0
   60.0420   31.9270   49.8530 C   0  0  0  0  0  0  0  0  0  0  0  0
   60.9450   33.0210   49.2540 C   0  0  0  0  0  0  0  0  0  0  0  0
   62.2580   32.4630   48.6550 C   0  0  0  0  0  0  0  0  0  0  0  0
   62.1580   32.1570   47.1520 C   0  0  0  0  0  0  0  0  0  0  0  0
   60.7730   31.8800   46.7540 N   0  0  0  0  0  0  0  0  0  0  0  0
   59.8480   32.7760   46.3120 C   0  0  0  0  0  0  0  0  0  0  0  0
   59.9840   34.1630   46.1860 C   0  0  0  0  0  0  0  0  0  0  0  0
   58.8830   34.8950   45.7040 C   0  0  0  0  0  0  0  0  0  0  0  0
   57.6780   34.2430   45.3620 C   0  0  0  0  0  0  0  0  0  0  0  0
   57.5550   32.8500   45.4990 C   0  0  0  0  0  0  0  0  0  0  0  0
   58.6590   32.1510   45.9780 C   0  0  0  0  0  0  0  0  0  0  0  0
   58.8600   30.8180   46.2260 C   0  0  0  0  0  0  0  0  0  0  0  0
   58.0270   29.7640   46.0760 N   0  0  0  0  0  0  0  0  0  0  0  0
   58.4800   28.5150   46.4030 C   0  0  0  0  0  0  0  0  0  0  0  0
   57.6490   27.3770   46.2620 C   0  0  0  0  0  0  0  0  0  0  0  0
   56.2990   27.4720   45.7570 N   0  0  0  0  0  0  0  0  0  0  0  0
   55.9250   28.4520   45.0800 O   0  0  0  0  0  0  0  0  0  0  0  0
   55.4030   26.4490   45.9750 O   0  0  0  0  0  0  0  0  0  0  0  0
   58.1570   26.1180   46.6320 C   0  0  0  0  0  0  0  0  0  0  0  0
   59.4590   25.9810   47.1200 C   0  0  0  0  0  0  0  0  0  0  0  0
   60.2850   27.0950   47.2560 C   0  0  0  0  0  0  0  0  0  0  0  0
   59.8150   28.3660   46.9060 C   0  0  0  0  0  0  0  0  0  0  0  0
   60.6240   29.4640   47.0470 N   0  0  0  0  0  0  0  0  0  0  0  0
   60.1360   30.6820   46.6960 C   0  0  0  0  0  0  0  0  0  0  0  0
   58.2039   32.0120   51.8336 H   0  0  0  0  0  0  0  0  0  0  0  0
   56.7058   32.1177   50.8483 H   0  0  0  0  0  0  0  0  0  0  0  0
   57.6759   30.6060   50.8483 H   0  0  0  0  0  0  0  0  0  0  0  0
   58.1701   31.7513   48.7893 H   0  0  0  0  0  0  0  0  0  0  0  0
   58.4173   33.3197   49.6765 H   0  0  0  0  0  0  0  0  0  0  0  0
   60.2773   31.8282   50.9230 H   0  0  0  0  0  0  0  0  0  0  0  0
   60.2421   31.0002   49.2953 H   0  0  0  0  0  0  0  0  0  0  0  0
   60.3885   33.5372   48.4579 H   0  0  0  0  0  0  0  0  0  0  0  0
   61.2211   33.7028   50.0719 H   0  0  0  0  0  0  0  0  0  0  0  0
   63.0550   33.2056   48.8080 H   0  0  0  0  0  0  0  0  0  0  0  0
   62.4726   31.5136   49.1675 H   0  0  0  0  0  0  0  0  0  0  0  0
   62.5270   33.0242   46.5847 H   0  0  0  0  0  0  0  0  0  0  0  0
   62.7650   31.2648   46.9388 H   0  0  0  0  0  0  0  0  0  0  0  0
   60.9241   34.6664   46.4558 H   0  0  0  0  0  0  0  0  0  0  0  0
   58.9619   35.9865   45.5925 H   0  0  0  0  0  0  0  0  0  0  0  0
   56.8281   34.8308   44.9850 H   0  0  0  0  0  0  0  0  0  0  0  0
   56.6209   32.3313   45.2374 H   0  0  0  0  0  0  0  0  0  0  0  0
   57.5188   25.2273   46.5355 H   0  0  0  0  0  0  0  0  0  0  0  0
   59.8351   24.9857   47.3991 H   0  0  0  0  0  0  0  0  0  0  0  0
   61.3090   26.9751   47.6394 H   0  0  0  0  0  0  0  0  0  0  0  0
   61.5910   29.3620   47.4240 H   0  0  0  0  0  0  0  0  0  0  0  0
  1  2  1  0
  2  3  1  0
  3  4  1  0
  4  5  1  0
  5  6  1  0
  6  7  1  0
  7  8  1  0
  8  9  2  0
  9 10  1  0
 10 11  2  0
 11 12  1  0
 12 13  2  0
 13 14  1  0
 14 15  2  0
 15 16  1  0
 16 17  2  0
 17 18  1  0
 18 19  2  0
 18 20  1  0
 17 21  1  0
 21 22  2  0
 22 23  1  0
 23 24  2  0
 24 25  1  0
 25 26  2  0
 26  7  1  0
 13  8  1  0
 26 14  1  0
 24 16  1  0
  1 27  1  0
  1 28  1  0
  1 29  1  0
  2 30  1  0
  2 31  1  0
  3 32  1  0
  3 33  1  0
  4 34  1  0
  4 35  1  0
  5 36  1  0
  5 37  1  0
  6 38  1  0
  6 39  1  0
  9 40  1  0
 10 41  1  0
 11 42  1  0
 12 43  1  0
 21 44  1  0
 22 45  1  0
 23 46  1  0
 25 47  1  0
M  CHG  3  18   1  20  -1  25   1
M  END
>  <UniqueID>  (17) 
17

>  <SMILES>  (17) 
CCCCCCn1c2ccccc2c2nc3c([N+](=O)[O-])cccc3[nH+]c21

>  <Energy>  (17) 
96.24106649761433

>  <Genealogy>  (17) 
CCCCCCn1c2ccccc2c2nc3c([N+](=O)[O-])cccc3[nH+]c21 (protonated)
CCCCCCn1c2ccccc2c2nc3c([N+](=O)[O-])cccc3[nH+]c21 (3D coordinates assigned)
CCCCCCn1c2ccccc2c2nc3c([N+](=O)[O-])cccc3[nH+]c21 (optimized conformer: 96.24106649761433 kcal/mol)

>  <smiles>  (17) 
CCCCCCn1c2ccccc2c2nc3c([N+](=O)[O-])cccc3nc21

>  <score_type>  (17) 
oracle

>  <origin>  (17) 
adg

>  <m_score__min__energy>  (17) 
-6.7599999999999998

>  <m_primary>  (17) 
energy

$$$$
17:0
     RDKit          3D

 40 41  0  0  0  0  0  0  0  0999 V2000
   59.9530   29.2880   46.5960 C   0  0  0  0  0  0  0  0  0  0  0  0
   59.2870   28.0050   46.1650 C   0  0  0  0  0  0  0  0  0  0  0  0
   59.4610   26.8300   46.9310 C   0  0  0  0  0  0  0  0  0  0  0  0
   60.3860   26.8270   48.4310 Cl  0  0  0  0  0  0  0  0  0  0  0  0
   58.8930   25.6240   46.5080 C   0  0  0  0  0  0  0  0  0  0  0  0
   58.1470   25.5700   45.3330 C   0  0  0  0  0  0  0  0  0  0  0  0
   57.9400   26.7280   44.5830 C   0  0  0  0  0  0  0  0  0  0  0  0
   58.4770   27.9530   45.0010 C   0  0  0  0  0  0  0  0  0  0  0  0
   58.1990   29.1220   44.2140 N   0  0  0  0  0  0  0  0  0  0  0  0
   56.9700   29.8540   44.3390 C   0  0  0  0  0  0  0  0  0  0  0  0
   56.1250   29.5360   45.2200 O   0  0  0  0  0  0  0  0  0  0  0  0
   56.6660   31.0000   43.4060 C   0  0  0  0  0  0  0  0  0  0  0  0
   57.7380   32.0180   43.3530 N   0  0  0  0  0  0  0  0  0  0  0  0
   58.1190   32.3450   41.9650 C   0  0  0  0  0  0  0  0  0  0  0  0
   57.4020   33.2290   44.1310 C   0  0  0  0  0  0  0  0  0  0  0  0
   58.3020   33.3500   45.3320 C   0  0  0  0  0  0  0  0  0  0  0  0
   58.2090   32.4300   46.3910 C   0  0  0  0  0  0  0  0  0  0  0  0
   59.0350   32.5620   47.5110 C   0  0  0  0  0  0  0  0  0  0  0  0
   59.9540   33.6120   47.5860 C   0  0  0  0  0  0  0  0  0  0  0  0
   60.0470   34.5350   46.5400 C   0  0  0  0  0  0  0  0  0  0  0  0
   59.2230   34.4070   45.4170 C   0  0  0  0  0  0  0  0  0  0  0  0
   59.9784   29.3369   47.6946 H   0  0  0  0  0  0  0  0  0  0  0  0
   60.9803   29.3176   46.2038 H   0  0  0  0  0  0  0  0  0  0  0  0
   59.3860   30.1452   46.2038 H   0  0  0  0  0  0  0  0  0  0  0  0
   59.0363   24.7125   47.1069 H   0  0  0  0  0  0  0  0  0  0  0  0
   57.7207   24.6135   44.9961 H   0  0  0  0  0  0  0  0  0  0  0  0
   57.3503   26.6791   43.6557 H   0  0  0  0  0  0  0  0  0  0  0  0
   58.7900   29.2920   43.3710 H   0  0  0  0  0  0  0  0  0  0  0  0
   56.5197   30.5954   42.3936 H   0  0  0  0  0  0  0  0  0  0  0  0
   55.7642   31.4994   43.7900 H   0  0  0  0  0  0  0  0  0  0  0  0
   58.9537   33.0614   41.9730 H   0  0  0  0  0  0  0  0  0  0  0  0
   58.4286   31.4271   41.4438 H   0  0  0  0  0  0  0  0  0  0  0  0
   57.2587   32.7902   41.4438 H   0  0  0  0  0  0  0  0  0  0  0  0
   57.5285   34.1160   43.4929 H   0  0  0  0  0  0  0  0  0  0  0  0
   56.3594   33.1542   44.4735 H   0  0  0  0  0  0  0  0  0  0  0  0
   57.4843   31.6041   46.3381 H   0  0  0  0  0  0  0  0  0  0  0  0
   58.9614   31.8375   48.3354 H   0  0  0  0  0  0  0  0  0  0  0  0
   60.6040   33.7123   48.4677 H   0  0  0  0  0  0  0  0  0  0  0  0
   60.7690   35.3627   46.6002 H   0  0  0  0  0  0  0  0  0  0  0  0
   59.2966   35.1369   44.5973 H   0  0  0  0  0  0  0  0  0  0  0  0
  1  2  1  0
  2  3  2  0
  3  4  1  0
  3  5  1  0
  5  6  2  0
  6  7  1  0
  7  8  2  0
  8  9  1  0
  9 10  1  0
 10 11  2  0
 10 12  1  0
 12 13  1  0
 13 14  1  0
 13 15  1  0
 15 16  1  0
 16 17  2  0
 17 18  1  0
 18 19  2  0
 19 20  1  0
 20 21  2  0
  8  2  1  0
 21 16  1  0
  1 22  1  0
  1 23  1  0
  1 24  1  0
  5 25  1  0
  6 26  1  0
  7 27  1  0
  9 28  1  0
 12 29  1  0
 12 30  1  0
 14 31  1  0
 14 32  1  0
 14 33  1  0
 15 34  1  0
 15 35  1  0
 17 36  1  0
 18 37  1  0
 19 38  1  0
 20 39  1  0
 21 40  1  0
M  END
>  <UniqueID>  (18) 
18

>  <SMILES>  (18) 
Cc1c(Cl)cccc1NC(=O)CN(C)Cc1ccccc1

>  <Energy>  (18) 
48.506823430700045

>  <Genealogy>  (18) 
Cc1c(Cl)cccc1NC(=O)CN(C)Cc1ccccc1 (3D coordinates assigned)
Cc1c(Cl)cccc1NC(=O)CN(C)Cc1ccccc1 (optimized conformer: 48.506823430700045 kcal/mol)

>  <smiles>  (18) 
Cc1c(Cl)cccc1NC(=O)CN(C)Cc1ccccc1

>  <score_type>  (18) 
oracle

>  <origin>  (18) 
adg

>  <m_score__min__energy>  (18) 
-7.5800000000000001

>  <m_primary>  (18) 
energy

$$$$
18:0
     RDKit          3D

 53 55  0  0  0  0  0  0  0  0999 V2000
   57.5840   30.8470   51.2440 C   0  0  0  0  0  0  0  0  0  0  0  0
   58.7100   30.6140   50.3330 N   0  0  0  0  0  0  0  0  0  0  0  0
   59.4830   31.8440   50.0850 C   0  0  0  0  0  0  0  0  0  0  0  0
   59.2480   32.3860   48.6990 C   0  0  0  0  0  0  0  0  0  0  0  0
   58.4780   31.7310   47.7920 N   0  0  0  0  0  0  0  0  0  0  0  0
   58.4690   32.5650   46.7360 C   0  0  0  0  0  0  0  0  0  0  0  0
   57.8050   32.3860   45.5220 C   0  0  0  0  0  0  0  0  0  0  0  0
   57.0630   31.2140   45.3110 O   0  0  0  0  0  0  0  0  0  0  0  0
   56.8940   30.5600   44.0530 C   0  0  0  0  0  0  0  0  0  0  0  0
   56.7370   29.0480   44.2310 C   0  0  0  0  0  0  0  0  0  0  0  0
   57.3930   28.3340   43.1260 N   0  0  0  0  0  0  0  0  0  0  0  0
   58.4820   27.4790   43.6180 C   0  0  0  0  0  0  0  0  0  0  0  0
   58.8580   27.8590   45.0260 C   0  0  0  0  0  0  0  0  0  0  0  0
   59.7580   28.9090   45.2660 C   0  0  0  0  0  0  0  0  0  0  0  0
   60.1160   29.2450   46.5760 C   0  0  0  0  0  0  0  0  0  0  0  0
   59.5810   28.5300   47.6640 C   0  0  0  0  0  0  0  0  0  0  0  0
   59.9100   28.8280   48.9950 O   0  0  0  0  0  0  0  0  0  0  0  0
   60.7690   28.0360   49.8080 C   0  0  0  0  0  0  0  0  0  0  0  0
   58.6880   27.4800   47.4190 C   0  0  0  0  0  0  0  0  0  0  0  0
   58.3290   27.1440   46.1110 C   0  0  0  0  0  0  0  0  0  0  0  0
   57.9170   33.4260   44.5650 C   0  0  0  0  0  0  0  0  0  0  0  0
   58.6730   34.5850   44.8500 C   0  0  0  0  0  0  0  0  0  0  0  0
   59.3270   34.7260   46.0870 C   0  0  0  0  0  0  0  0  0  0  0  0
   59.2050   33.6820   47.0060 C   0  0  0  0  0  0  0  0  0  0  0  0
   59.7180   33.5810   48.2430 N   0  0  0  0  0  0  0  0  0  0  0  0
   60.4860   34.5950   48.9650 C   0  0  0  0  0  0  0  0  0  0  0  0
   57.9332   30.7747   52.2846 H   0  0  0  0  0  0  0  0  0  0  0  0
   57.1692   31.8500   51.0653 H   0  0  0  0  0  0  0  0  0  0  0  0
   56.8052   30.0910   51.0653 H   0  0  0  0  0  0  0  0  0  0  0  0
   59.3280   29.8690   50.7290 H   0  0  0  0  0  0  0  0  0  0  0  0
   58.3290   30.2730   49.4210 H   0  0  0  0  0  0  0  0  0  0  0  0
   59.1843   32.6059   50.8201 H   0  0  0  0  0  0  0  0  0  0  0  0
   60.5514   31.5996   50.1786 H   0  0  0  0  0  0  0  0  0  0  0  0
   55.9952   30.9583   43.5596 H   0  0  0  0  0  0  0  0  0  0  0  0
   57.7883   30.7473   43.4405 H   0  0  0  0  0  0  0  0  0  0  0  0
   57.1972   28.7448   45.1830 H   0  0  0  0  0  0  0  0  0  0  0  0
   55.6660   28.7970   44.2338 H   0  0  0  0  0  0  0  0  0  0  0  0
   56.6810   27.7050   42.6860 H   0  0  0  0  0  0  0  0  0  0  0  0
   58.1531   26.4294   43.6022 H   0  0  0  0  0  0  0  0  0  0  0  0
   59.3593   27.6121   42.9680 H   0  0  0  0  0  0  0  0  0  0  0  0
   60.1835   29.4699   44.4208 H   0  0  0  0  0  0  0  0  0  0  0  0
   60.8188   30.0717   46.7566 H   0  0  0  0  0  0  0  0  0  0  0  0
   60.5548   28.2335   50.8687 H   0  0  0  0  0  0  0  0  0  0  0  0
   60.5992   26.9709   49.5918 H   0  0  0  0  0  0  0  0  0  0  0  0
   61.8168   28.2915   49.5918 H   0  0  0  0  0  0  0  0  0  0  0  0
   58.2656   26.9149   48.2629 H   0  0  0  0  0  0  0  0  0  0  0  0
   57.6285   26.3152   45.9312 H   0  0  0  0  0  0  0  0  0  0  0  0
   57.4113   33.3298   43.5929 H   0  0  0  0  0  0  0  0  0  0  0  0
   58.7507   35.3839   44.0979 H   0  0  0  0  0  0  0  0  0  0  0  0
   59.9135   35.6264   46.3221 H   0  0  0  0  0  0  0  0  0  0  0  0
   60.3694   34.4411   50.0479 H   0  0  0  0  0  0  0  0  0  0  0  0
   61.5490   34.5110   48.6950 H   0  0  0  0  0  0  0  0  0  0  0  0
   60.1171   35.5955   48.6950 H   0  0  0  0  0  0  0  0  0  0  0  0
  1  2  1  0
  2  3  1  0
  3  4  1  0
  4  5  2  0
  5  6  1  0
  6  7  2  0
  7  8  1  0
  8  9  1  0
  9 10  1  0
 10 11  1  0
 11 12  1  0
 12 13  1  0
 13 14  2  0
 14 15  1  0
 15 16  2  0
 16 17  1  0
 17 18  1  0
 16 19  1  0
 19 20  2  0
  7 21  1  0
 21 22  2  0
 22 23  1  0
 23 24  2  0
 24 25  1  0
 25 26  1  0
 25  4  1  0
 24  6  1  0
 20 13  1  0
  1 27  1  0
  1 28  1  0
  1 29  1  0
  2 30  1  0
  2 31  1  0
  3 32  1  0
  3 33  1  0
  9 34  1  0
  9 35  1  0
 10 36  1  0
 10 37  1  0
 11 38  1  0
 12 39  1  0
 12 40  1  0
 14 41  1  0
 15 42  1  0
 18 43  1  0
 18 44  1  0
 18 45  1  0
 19 46  1  0
 20 47  1  0
 21 48  1  0
 22 49  1  0
 23 50  1  0
 26 51  1  0
 26 52  1  0
 26 53  1  0
M  CHG  1   2   1
M  END
>  <UniqueID>  (19) 
19

>  <SMILES>  (19) 
C[NH2+]Cc1nc2c(OCCNCc3ccc(OC)cc3)cccc2n1C

>  <Energy>  (19) 
86.28272268108931

>  <Genealogy>  (19) 
C[NH2+]Cc1nc2c(OCCNCc3ccc(OC)cc3)cccc2n1C (protonated)
C[NH2+]Cc1nc2c(OCCNCc3ccc(OC)cc3)cccc2n1C (3D coordinates assigned)
C[NH2+]Cc1nc2c(OCCNCc3ccc(OC)cc3)cccc2n1C (optimized conformer: 86.28272268108931 kcal/mol)

>  <smiles>  (19) 
CNCc1nc2c(OCCNCc3ccc(OC)cc3)cccc2n1C

>  <score_type>  (19) 
oracle

>  <origin>  (19) 
adg

>  <m_score__min__energy>  (19) 
-5.25

>  <m_primary>  (19) 
energy

$$$$
19:0
     RDKit          3D

 41 42  0  0  0  0  0  0  0  0999 V2000
   59.8550   29.4760   45.6030 C   0  0  0  0  0  0  0  0  0  0  0  0
   58.9850   28.2330   45.4210 C   0  0  0  0  0  0  0  0  0  0  0  0
   58.8150   27.8270   43.9440 C   0  0  0  0  0  0  0  0  0  0  0  0
   57.4170   27.8290   43.4670 N   0  0  0  0  0  0  0  0  0  0  0  0
   56.9170   29.1280   42.9720 C   0  0  0  0  0  0  0  0  0  0  0  0
   56.3700   30.0640   44.0710 C   0  0  0  0  0  0  0  0  0  0  0  0
   57.0750   31.4260   44.1060 C   0  0  0  0  0  0  0  0  0  0  0  0
   57.3970   31.8110   45.4820 N   0  0  0  0  0  0  0  0  0  0  0  0
   58.2130   32.9590   45.7910 C   0  0  0  0  0  0  0  0  0  0  0  0
   58.4970   33.9010   44.7850 C   0  0  0  0  0  0  0  0  0  0  0  0
   59.2340   35.0500   45.0670 C   0  0  0  0  0  0  0  0  0  0  0  0
   59.7030   35.2860   46.3560 C   0  0  0  0  0  0  0  0  0  0  0  0
   59.4520   34.3620   47.3790 C   0  0  0  0  0  0  0  0  0  0  0  0
   59.9440   34.6000   48.6710 C   0  0  0  0  0  0  0  0  0  0  0  0
   59.7230   33.6730   49.6900 C   0  0  0  0  0  0  0  0  0  0  0  0
   59.0190   32.4980   49.4260 C   0  0  0  0  0  0  0  0  0  0  0  0
   58.5210   32.2460   48.1450 C   0  0  0  0  0  0  0  0  0  0  0  0
   58.7100   33.1790   47.1040 C   0  0  0  0  0  0  0  0  0  0  0  0
   59.9929   29.6731   46.6764 H   0  0  0  0  0  0  0  0  0  0  0  0
   60.8350   29.3098   45.1318 H   0  0  0  0  0  0  0  0  0  0  0  0
   59.3634   30.3399   45.1318 H   0  0  0  0  0  0  0  0  0  0  0  0
   59.4510   27.3968   45.9628 H   0  0  0  0  0  0  0  0  0  0  0  0
   57.9854   28.4711   45.8136 H   0  0  0  0  0  0  0  0  0  0  0  0
   59.3905   28.5313   43.3253 H   0  0  0  0  0  0  0  0  0  0  0  0
   59.1734   26.7904   43.8604 H   0  0  0  0  0  0  0  0  0  0  0  0
   56.7910   27.5070   44.2410 H   0  0  0  0  0  0  0  0  0  0  0  0
   57.3250   27.1140   42.7080 H   0  0  0  0  0  0  0  0  0  0  0  0
   57.7446   29.6432   42.4625 H   0  0  0  0  0  0  0  0  0  0  0  0
   56.0730   28.9041   42.3030 H   0  0  0  0  0  0  0  0  0  0  0  0
   55.2979   30.2292   43.8887 H   0  0  0  0  0  0  0  0  0  0  0  0
   56.5521   29.5750   45.0394 H   0  0  0  0  0  0  0  0  0  0  0  0
   58.0050   31.3656   43.5216 H   0  0  0  0  0  0  0  0  0  0  0  0
   56.4012   32.1824   43.6773 H   0  0  0  0  0  0  0  0  0  0  0  0
   57.0300   31.2230   46.2640 H   0  0  0  0  0  0  0  0  0  0  0  0
   58.1323   33.7282   43.7617 H   0  0  0  0  0  0  0  0  0  0  0  0
   59.4461   35.7741   44.2666 H   0  0  0  0  0  0  0  0  0  0  0  0
   60.2730   36.2016   46.5725 H   0  0  0  0  0  0  0  0  0  0  0  0
   60.5065   35.5215   48.8816 H   0  0  0  0  0  0  0  0  0  0  0  0
   60.1044   33.8689   50.7030 H   0  0  0  0  0  0  0  0  0  0  0  0
   58.8550   31.7660   50.2305 H   0  0  0  0  0  0  0  0  0  0  0  0
   57.9764   31.3111   47.9464 H   0  0  0  0  0  0  0  0  0  0  0  0
  1  2  1  0
  2  3  1  0
  3  4  1  0
  4  5  1  0
  5  6  1  0
  6  7  1  0
  7  8  1  0
  8  9  1  0
  9 10  2  0
 10 11  1  0
 11 12  2  0
 12 13  1  0
 13 14  2  0
 14 15  1  0
 15 16  2  0
 16 17  1  0
 17 18  2  0
 18  9  1  0
 18 13  1  0
  1 19  1  0
  1 20  1  0
  1 21  1  0
  2 22  1  0
  2 23  1  0
  3 24  1  0
  3 25  1  0
  4 26  1  0
  4 27  1  0
  5 28  1  0
  5 29  1  0
  6 30  1  0
  6 31  1  0
  7 32  1  0
  7 33  1  0
  8 34  1  0
 10 35  1  0
 11 36  1  0
 12 37  1  0
 14 38  1  0
 15 39  1  0
 16 40  1  0
 17 41  1  0
M  CHG  1   4   1
M  END
>  <UniqueID>  (20) 
20

>  <SMILES>  (20) 
CCC[NH2+]CCCNc1cccc2ccccc12

>  <Energy>  (20) 
43.83451322613714

>  <Genealogy>  (20) 
CCC[NH2+]CCCNc1cccc2ccccc12 (protonated)
CCC[NH2+]CCCNc1cccc2ccccc12 (3D coordinates assigned)
CCC[NH2+]CCCNc1cccc2ccccc12 (optimized conformer: 43.83451322613714 kcal/mol)

>  <smiles>  (20) 
CCCNCCCNc1cccc2ccccc12

>  <score_type>  (20) 
oracle

>  <origin>  (20) 
adg

>  <m_score__min__energy>  (20) 
-4.9500000000000002

>  <m_primary>  (20) 
energy

$$$$
20:0
     RDKit          3D

 62 65  0  0  0  0  0  0  0  0999 V2000
   60.8570   34.2910   47.2830 C   0  0  0  0  0  0  0  0  0  0  0  0
   61.8640   33.5650   46.3930 C   0  0  0  0  0  0  0  0  0  0  0  0
   63.3260   33.8730   46.7780 C   0  0  0  0  0  0  0  0  0  0  0  0
   64.1340   32.6620   47.0160 N   0  0  0  0  0  0  0  0  0  0  0  0
   63.3910   31.5620   47.6640 C   0  0  0  0  0  0  0  0  0  0  0  0
   62.8060   31.9670   49.0220 C   0  0  0  0  0  0  0  0  0  0  0  0
   61.4760   31.5760   49.3570 C   0  0  0  0  0  0  0  0  0  0  0  0
   60.6460   30.7770   48.4210 C   0  0  0  0  0  0  0  0  0  0  0  0
   60.7290   29.3750   48.4300 C   0  0  0  0  0  0  0  0  0  0  0  0
   59.9240   28.6170   47.5760 C   0  0  0  0  0  0  0  0  0  0  0  0
   59.0280   29.2510   46.7130 C   0  0  0  0  0  0  0  0  0  0  0  0
   58.9300   30.6480   46.7050 C   0  0  0  0  0  0  0  0  0  0  0  0
   57.7820   31.4630   45.5960 S   0  0  0  0  0  0  0  0  0  0  0  0
   57.8000   33.0250   46.5380 C   0  0  0  0  0  0  0  0  0  0  0  0
   57.8330   34.2080   45.5830 C   0  0  0  0  0  0  0  0  0  0  0  0
   59.7270   31.4080   47.5680 C   0  0  0  0  0  0  0  0  0  0  0  0
   60.9540   31.9070   50.6290 C   0  0  0  0  0  0  0  0  0  0  0  0
   59.5830   31.5370   51.0450 C   0  0  0  0  0  0  0  0  0  0  0  0
   59.2290   30.1930   51.2440 C   0  0  0  0  0  0  0  0  0  0  0  0
   57.9310   29.8550   51.6370 C   0  0  0  0  0  0  0  0  0  0  0  0
   56.9680   30.8570   51.8350 C   0  0  0  0  0  0  0  0  0  0  0  0
   55.5660   30.4900   52.2160 C   0  0  0  0  0  0  0  0  0  0  0  0
   57.3110   32.1960   51.5990 C   0  0  0  0  0  0  0  0  0  0  0  0
   58.6100   32.5350   51.2070 C   0  0  0  0  0  0  0  0  0  0  0  0
   61.7210   32.5780   51.5200 N   0  0  0  0  0  0  0  0  0  0  0  0
   62.9860   32.9760   51.2450 C   0  0  0  0  0  0  0  0  0  0  0  0
   63.7010   33.6730   52.2260 C   0  0  0  0  0  0  0  0  0  0  0  0
   65.0040   34.0960   51.9790 C   0  0  0  0  0  0  0  0  0  0  0  0
   65.6010   33.8240   50.7500 C   0  0  0  0  0  0  0  0  0  0  0  0
   64.8990   33.1300   49.7610 C   0  0  0  0  0  0  0  0  0  0  0  0
   63.5710   32.6900   49.9870 C   0  0  0  0  0  0  0  0  0  0  0  0
   61.1054   34.1119   48.3395 H   0  0  0  0  0  0  0  0  0  0  0  0
   60.8954   35.3705   47.0752 H   0  0  0  0  0  0  0  0  0  0  0  0
   59.8449   33.9134   47.0752 H   0  0  0  0  0  0  0  0  0  0  0  0
   61.6968   32.4815   46.4829 H   0  0  0  0  0  0  0  0  0  0  0  0
   61.7102   33.9150   45.3616 H   0  0  0  0  0  0  0  0  0  0  0  0
   63.7887   34.4466   45.9614 H   0  0  0  0  0  0  0  0  0  0  0  0
   63.3024   34.4395   47.7206 H   0  0  0  0  0  0  0  0  0  0  0  0
   64.5290   32.3140   46.1130 H   0  0  0  0  0  0  0  0  0  0  0  0
   64.9500   32.9280   47.6120 H   0  0  0  0  0  0  0  0  0  0  0  0
   62.5673   31.2554   47.0026 H   0  0  0  0  0  0  0  0  0  0  0  0
   64.0989   30.7382   47.8379 H   0  0  0  0  0  0  0  0  0  0  0  0
   61.4304   28.8719   49.1119 H   0  0  0  0  0  0  0  0  0  0  0  0
   59.9962   27.5194   47.5835 H   0  0  0  0  0  0  0  0  0  0  0  0
   58.3982   28.6524   46.0385 H   0  0  0  0  0  0  0  0  0  0  0  0
   56.8955   33.0850   47.1611 H   0  0  0  0  0  0  0  0  0  0  0  0
   58.6954   33.0513   47.1765 H   0  0  0  0  0  0  0  0  0  0  0  0
   57.8591   35.1443   46.1598 H   0  0  0  0  0  0  0  0  0  0  0  0
   58.7297   34.1427   44.9492 H   0  0  0  0  0  0  0  0  0  0  0  0
   56.9341   34.1928   44.9492 H   0  0  0  0  0  0  0  0  0  0  0  0
   59.6331   32.5039   47.5781 H   0  0  0  0  0  0  0  0  0  0  0  0
   59.9773   29.4017   51.0898 H   0  0  0  0  0  0  0  0  0  0  0  0
   57.6629   28.7994   51.7918 H   0  0  0  0  0  0  0  0  0  0  0  0
   55.4780   30.4670   53.3122 H   0  0  0  0  0  0  0  0  0  0  0  0
   54.8680   31.2357   51.8077 H   0  0  0  0  0  0  0  0  0  0  0  0
   55.3228   29.4979   51.8077 H   0  0  0  0  0  0  0  0  0  0  0  0
   56.5540   32.9844   51.7229 H   0  0  0  0  0  0  0  0  0  0  0  0
   58.8700   33.5882   51.0250 H   0  0  0  0  0  0  0  0  0  0  0  0
   63.2308   33.8876   53.1970 H   0  0  0  0  0  0  0  0  0  0  0  0
   65.5613   34.6441   52.7529 H   0  0  0  0  0  0  0  0  0  0  0  0
   66.6313   34.1576   50.5570 H   0  0  0  0  0  0  0  0  0  0  0  0
   65.3831   32.9227   48.7953 H   0  0  0  0  0  0  0  0  0  0  0  0
  1  2  1  0
  2  3  1  0
  3  4  1  0
  4  5  1  0
  5  6  1  0
  6  7  2  0
  7  8  1  0
  8  9  2  0
  9 10  1  0
 10 11  2  0
 11 12  1  0
 12 13  1  0
 13 14  1  0
 14 15  1  0
 12 16  2  0
  7 17  1  0
 17 18  1  0
 18 19  2  0
 19 20  1  0
 20 21  2  0
 21 22  1  0
 21 23  1  0
 23 24  2  0
 17 25  2  0
 25 26  1  0
 26 27  2  0
 27 28  1  0
 28 29  2  0
 29 30  1  0
 30 31  2  0
 31  6  1  0
 16  8  1  0
 24 18  1  0
 31 26  1  0
  1 32  1  0
  1 33  1  0
  1 34  1  0
  2 35  1  0
  2 36  1  0
  3 37  1  0
  3 38  1  0
  4 39  1  0
  4 40  1  0
  5 41  1  0
  5 42  1  0
  9 43  1  0
 10 44  1  0
 11 45  1  0
 14 46  1  0
 14 47  1  0
 15 48  1  0
 15 49  1  0
 15 50  1  0
 16 51  1  0
 19 52  1  0
 20 53  1  0
 22 54  1  0
 22 55  1  0
 22 56  1  0
 23 57  1  0
 24 58  1  0
 27 59  1  0
 28 60  1  0
 29 61  1  0
 30 62  1  0
M  CHG  1   4   1
M  END
>  <UniqueID>  (21) 
21

>  <SMILES>  (21) 
CCC[NH2+]Cc1c(-c2cccc(SCC)c2)c(-c2ccc(C)cc2)nc2ccccc12

>  <Energy>  (21) 
78.04435444372234

>  <Genealogy>  (21) 
CCC[NH2+]Cc1c(-c2cccc(SCC)c2)c(-c2ccc(C)cc2)nc2ccccc12 (protonated)
CCC[NH2+]Cc1c(-c2cccc(SCC)c2)c(-c2ccc(C)cc2)nc2ccccc12 (3D coordinates assigned)
CCC[NH2+]Cc1c(-c2cccc(SCC)c2)c(-c2ccc(C)cc2)nc2ccccc12 (optimized conformer: 78.04435444372234 kcal/mol)

>  <smiles>  (21) 
CCCNCc1c(-c2cccc(SCC)c2)c(-c2ccc(C)cc2)nc2ccccc12

>  <score_type>  (21) 
oracle

>  <origin>  (21) 
adg

>  <m_score__min__energy>  (21) 
-7.1299999999999999

>  <m_primary>  (21) 
energy

$$$$
21:0
     RDKit          3D

 59 63  0  0  0  0  0  0  0  0999 V2000
   57.0620   27.6990   45.2810 C   0  0  0  0  0  0  0  0  0  0  0  0
   56.6830   28.9980   44.6250 C   0  0  0  0  0  0  0  0  0  0  0  0
   55.5500   29.4250   44.7980 O   0  0  0  0  0  0  0  0  0  0  0  0
   57.6310   29.7270   43.7950 N   0  0  0  0  0  0  0  0  0  0  0  0
   58.8850   29.9940   44.5230 C   0  0  0  0  0  0  0  0  0  0  0  0
   58.7130   31.0390   45.6490 C   0  0  0  0  0  0  0  0  0  0  0  0
   57.5550   31.9500   45.4430 N   0  0  0  0  0  0  0  0  0  0  0  0
   57.6990   33.1640   46.3030 C   0  0  2  0  0  0  0  0  0  0  0  0
   58.1370   34.3770   45.4370 C   0  0  0  0  0  0  0  0  0  0  0  0
   59.6480   34.5590   45.6440 C   0  0  0  0  0  0  0  0  0  0  0  0
   59.9060   33.8370   46.9060 C   0  0  0  0  0  0  0  0  0  0  0  0
   61.0460   33.9390   47.7050 C   0  0  0  0  0  0  0  0  0  0  0  0
   61.0750   33.2790   48.9510 C   0  0  0  0  0  0  0  0  0  0  0  0
   62.2750   33.3660   49.8210 C   0  0  0  0  0  0  0  0  0  0  0  0
   62.6480   34.5890   50.4050 C   0  0  0  0  0  0  0  0  0  0  0  0
   63.7800   34.6700   51.2160 C   0  0  0  0  0  0  0  0  0  0  0  0
   64.5550   33.5330   51.4570 C   0  0  0  0  0  0  0  0  0  0  0  0
   64.2040   32.2980   50.8870 C   0  0  0  0  0  0  0  0  0  0  0  0
   65.0250   31.0880   51.1460 C   0  0  0  0  0  0  0  0  0  0  0  0
   64.4300   29.9140   51.6450 C   0  0  0  0  0  0  0  0  0  0  0  0
   65.2040   28.7760   51.8880 C   0  0  0  0  0  0  0  0  0  0  0  0
   66.5770   28.7950   51.6360 C   0  0  0  0  0  0  0  0  0  0  0  0
   67.1800   29.9540   51.1410 C   0  0  0  0  0  0  0  0  0  0  0  0
   66.4100   31.0950   50.8960 C   0  0  0  0  0  0  0  0  0  0  0  0
   63.0620   32.2240   50.0680 C   0  0  0  0  0  0  0  0  0  0  0  0
   59.9350   32.5520   49.3690 C   0  0  0  0  0  0  0  0  0  0  0  0
   58.8010   32.4710   48.5490 C   0  0  0  0  0  0  0  0  0  0  0  0
   58.8250   33.0860   47.2920 C   0  0  0  0  0  0  0  0  0  0  0  0
   57.3940   32.2430   44.0050 C   0  0  0  0  0  0  0  0  0  0  0  0
   57.0410   30.9610   43.2200 C   0  0  0  0  0  0  0  0  0  0  0  0
   57.0277   27.8166   46.3742 H   0  0  0  0  0  0  0  0  0  0  0  0
   56.3556   26.9136   44.9743 H   0  0  0  0  0  0  0  0  0  0  0  0
   58.0800   27.4167   44.9743 H   0  0  0  0  0  0  0  0  0  0  0  0
   57.8890   29.1130   42.9860 H   0  0  0  0  0  0  0  0  0  0  0  0
   59.2402   29.0529   44.9682 H   0  0  0  0  0  0  0  0  0  0  0  0
   59.6072   30.4016   43.8003 H   0  0  0  0  0  0  0  0  0  0  0  0
   58.5709   30.5053   46.6003 H   0  0  0  0  0  0  0  0  0  0  0  0
   59.6187   31.6633   45.6514 H   0  0  0  0  0  0  0  0  0  0  0  0
   56.7207   33.2511   46.7983 H   0  0  0  0  0  0  0  0  0  0  0  0
   57.9227   34.1800   44.3762 H   0  0  0  0  0  0  0  0  0  0  0  0
   57.5899   35.2850   45.7306 H   0  0  0  0  0  0  0  0  0  0  0  0
   60.2161   34.1156   44.8129 H   0  0  0  0  0  0  0  0  0  0  0  0
   59.9538   35.6150   45.6813 H   0  0  0  0  0  0  0  0  0  0  0  0
   61.9117   34.5273   47.3667 H   0  0  0  0  0  0  0  0  0  0  0  0
   62.0427   35.4889   50.2211 H   0  0  0  0  0  0  0  0  0  0  0  0
   64.0634   35.6323   51.6673 H   0  0  0  0  0  0  0  0  0  0  0  0
   65.4463   33.6053   52.0976 H   0  0  0  0  0  0  0  0  0  0  0  0
   63.3486   29.8921   51.8450 H   0  0  0  0  0  0  0  0  0  0  0  0
   64.7303   27.8633   52.2787 H   0  0  0  0  0  0  0  0  0  0  0  0
   67.1839   27.8977   51.8271 H   0  0  0  0  0  0  0  0  0  0  0  0
   68.2621   29.9689   50.9437 H   0  0  0  0  0  0  0  0  0  0  0  0
   66.8900   32.0043   50.5052 H   0  0  0  0  0  0  0  0  0  0  0  0
   62.7802   31.2621   49.6149 H   0  0  0  0  0  0  0  0  0  0  0  0
   59.9388   32.0461   50.3458 H   0  0  0  0  0  0  0  0  0  0  0  0
   57.9046   31.9315   48.8888 H   0  0  0  0  0  0  0  0  0  0  0  0
   56.5869   32.9790   43.8751 H   0  0  0  0  0  0  0  0  0  0  0  0
   58.3430   32.6429   43.6184 H   0  0  0  0  0  0  0  0  0  0  0  0
   55.9466   30.8504   43.2099 H   0  0  0  0  0  0  0  0  0  0  0  0
   57.4609   31.0772   42.2100 H   0  0  0  0  0  0  0  0  0  0  0  0
  1  2  1  0
  2  3  2  0
  2  4  1  0
  4  5  1  0
  5  6  1  0
  6  7  1  0
  7  8  1  0
  8  9  1  0
  9 10  1  0
 10 11  1  0
 11 12  2  0
 12 13  1  0
 13 14  1  0
 14 15  2  0
 15 16  1  0
 16 17  2  0
 17 18  1  0
 18 19  1  0
 19 20  2  0
 20 21  1  0
 21 22  2  0
 22 23  1  0
 23 24  2  0
 18 25  2  0
 13 26  2  0
 26 27  1  0
 27 28  2  0
  7 29  1  0
 29 30  1  0
 30  4  1  0
 28  8  1  0
 28 11  1  0
 25 14  1  0
 24 19  1  0
  1 31  1  0
  1 32  1  0
  1 33  1  0
  4 34  1  0
  5 35  1  0
  5 36  1  0
  6 37  1  0
  6 38  1  0
  8 39  1  1
  9 40  1  0
  9 41  1  0
 10 42  1  0
 10 43  1  0
 12 44  1  0
 15 45  1  0
 16 46  1  0
 17 47  1  0
 20 48  1  0
 21 49  1  0
 22 50  1  0
 23 51  1  0
 24 52  1  0
 25 53  1  0
 26 54  1  0
 27 55  1  0
 29 56  1  0
 29 57  1  0
 30 58  1  0
 30 59  1  0
M  CHG  1   4   1
M  END
>  <UniqueID>  (22) 
22

>  <SMILES>  (22) 
CC(=O)[NH+]1CCN([C@@H]2CCc3cc(-c4cccc(-c5ccccc5)c4)ccc32)CC1

>  <Energy>  (22) 
100.0623846875171

>  <Genealogy>  (22) 
CC(=O)[NH+]1CCN(C2CCc3cc(-c4cccc(-c5ccccc5)c4)ccc32)CC1 (protonated)
CC(=O)[NH+]1CCN([C@@H]2CCc3cc(-c4cccc(-c5ccccc5)c4)ccc32)CC1 (chirality)
CC(=O)[NH+]1CCN([C@@H]2CCc3cc(-c4cccc(-c5ccccc5)c4)ccc32)CC1 (3D coordinates assigned)
CC(=O)[NH+]1CCN([C@@H]2CCc3cc(-c4cccc(-c5ccccc5)c4)ccc32)CC1 (nonaromatic ring conformer: 100.0623846875171 kcal/mol)

>  <smiles>  (22) 
CC(=O)N1CCN(C2CCc3cc(-c4cccc(-c5ccccc5)c4)ccc32)CC1

>  <score_type>  (22) 
oracle

>  <origin>  (22) 
adg

>  <m_score__min__energy>  (22) 
-8.5999999999999996

>  <m_primary>  (22) 
energy

$$$$
22:0
     RDKit          3D

 49 51  0  0  0  0  0  0  0  0999 V2000
   58.1690   25.2540   45.3210 C   0  0  0  0  0  0  0  0  0  0  0  0
   57.7200   26.5780   44.9040 N   0  0  0  0  0  0  0  0  0  0  0  0
   58.1740   27.8030   45.5120 C   0  0  0  0  0  0  0  0  0  0  0  0
   58.8230   27.8110   46.7490 C   0  0  0  0  0  0  0  0  0  0  0  0
   59.2960   29.0030   47.2900 C   0  0  0  0  0  0  0  0  0  0  0  0
   59.1280   30.2350   46.6140 C   0  0  0  0  0  0  0  0  0  0  0  0
   59.6960   31.4400   47.1070 C   0  0  0  0  0  0  0  0  0  0  0  0
   60.5870   31.4220   48.2590 N   0  0  0  0  0  0  0  0  0  0  0  0
   61.8860   30.8330   47.8950 C   0  0  0  0  0  0  0  0  0  0  0  0
   63.0400   31.8180   48.1400 C   0  0  0  0  0  0  0  0  0  0  0  0
   62.6070   33.2190   47.9380 N   0  0  0  0  0  0  0  0  0  0  0  0
   63.2810   33.8200   46.7740 C   0  0  0  0  0  0  0  0  0  0  0  0
   62.8980   34.0190   49.1380 C   0  0  0  0  0  0  0  0  0  0  0  0
   59.4250   32.6530   46.4200 C   0  0  0  0  0  0  0  0  0  0  0  0
   59.8990   33.9020   46.8970 C   0  0  0  0  0  0  0  0  0  0  0  0
   59.7140   35.0700   46.1620 C   0  0  0  0  0  0  0  0  0  0  0  0
   59.0590   35.0270   44.9400 C   0  0  0  0  0  0  0  0  0  0  0  0
   58.5360   33.8240   44.4720 C   0  0  0  0  0  0  0  0  0  0  0  0
   58.6550   32.6270   45.2240 C   0  0  0  0  0  0  0  0  0  0  0  0
   58.0510   31.4560   44.8080 N   0  0  0  0  0  0  0  0  0  0  0  0
   57.0110   31.5000   43.7530 C   0  0  0  0  0  0  0  0  0  0  0  0
   58.3670   30.2570   45.4140 C   0  0  0  0  0  0  0  0  0  0  0  0
   57.9540   29.0180   44.8540 C   0  0  0  0  0  0  0  0  0  0  0  0
   58.1866   25.2020   46.4196 H   0  0  0  0  0  0  0  0  0  0  0  0
   57.4789   24.4924   44.9289 H   0  0  0  0  0  0  0  0  0  0  0  0
   59.1800   25.0693   44.9289 H   0  0  0  0  0  0  0  0  0  0  0  0
   57.0340   26.6280   44.1170 H   0  0  0  0  0  0  0  0  0  0  0  0
   58.9612   26.8687   47.2994 H   0  0  0  0  0  0  0  0  0  0  0  0
   59.8105   28.9872   48.2621 H   0  0  0  0  0  0  0  0  0  0  0  0
   60.1620   30.9050   49.0580 H   0  0  0  0  0  0  0  0  0  0  0  0
   60.7100   32.3830   48.6470 H   0  0  0  0  0  0  0  0  0  0  0  0
   62.0517   29.9304   48.5016 H   0  0  0  0  0  0  0  0  0  0  0  0
   61.8647   30.5863   46.8232 H   0  0  0  0  0  0  0  0  0  0  0  0
   63.3982   31.6996   49.1733 H   0  0  0  0  0  0  0  0  0  0  0  0
   63.8423   31.5967   47.4207 H   0  0  0  0  0  0  0  0  0  0  0  0
   64.0603   34.5149   47.1200 H   0  0  0  0  0  0  0  0  0  0  0  0
   63.7407   33.0266   46.1664 H   0  0  0  0  0  0  0  0  0  0  0  0
   62.5452   34.3673   46.1664 H   0  0  0  0  0  0  0  0  0  0  0  0
   62.6814   33.4235   50.0371 H   0  0  0  0  0  0  0  0  0  0  0  0
   63.9591   34.3088   49.1370 H   0  0  0  0  0  0  0  0  0  0  0  0
   62.2711   34.9228   49.1370 H   0  0  0  0  0  0  0  0  0  0  0  0
   60.4215   33.9486   47.8639 H   0  0  0  0  0  0  0  0  0  0  0  0
   60.0879   36.0285   46.5511 H   0  0  0  0  0  0  0  0  0  0  0  0
   58.9526   35.9431   44.3405 H   0  0  0  0  0  0  0  0  0  0  0  0
   58.0207   33.8016   43.5004 H   0  0  0  0  0  0  0  0  0  0  0  0
   56.0161   31.5421   44.2204 H   0  0  0  0  0  0  0  0  0  0  0  0
   57.1605   32.3926   43.1278 H   0  0  0  0  0  0  0  0  0  0  0  0
   57.0845   30.5979   43.1278 H   0  0  0  0  0  0  0  0  0  0  0  0
   57.4479   29.0140   43.8773 H   0  0  0  0  0  0  0  0  0  0  0  0
  1  2  1  0
  2  3  1  0
  3  4  2  0
  4  5  1  0
  5  6  2  0
  6  7  1  0
  7  8  1  0
  8  9  1  0
  9 10  1  0
 10 11  1  0
 11 12  1  0
 11 13  1  0
  7 14  2  0
 14 15  1  0
 15 16  2  0
 16 17  1  0
 17 18  2  0
 18 19  1  0
 19 20  2  0
 20 21  1  0
 20 22  1  0
 22 23  2  0
 23  3  1  0
 22  6  1  0
 19 14  1  0
  1 24  1  0
  1 25  1  0
  1 26  1  0
  2 27  1  0
  4 28  1  0
  5 29  1  0
  8 30  1  0
  8 31  1  0
  9 32  1  0
  9 33  1  0
 10 34  1  0
 10 35  1  0
 12 36  1  0
 12 37  1  0
 12 38  1  0
 13 39  1  0
 13 40  1  0
 13 41  1  0
 15 42  1  0
 16 43  1  0
 17 44  1  0
 18 45  1  0
 21 46  1  0
 21 47  1  0
 21 48  1  0
 23 49  1  0
M  CHG  2   8   1  20   1
M  END
>  <UniqueID>  (23) 
23

>  <SMILES>  (23) 
CNc1ccc2c([NH2+]CCN(C)C)c3ccccc3[n+](C)c2c1

>  <Energy>  (23) 
76.42308620177391

>  <Genealogy>  (23) 
CNc1ccc2c([NH2+]CCN(C)C)c3ccccc3[n+](C)c2c1 (protonated)
CNc1ccc2c([NH2+]CCN(C)C)c3ccccc3[n+](C)c2c1 (3D coordinates assigned)
CNc1ccc2c([NH2+]CCN(C)C)c3ccccc3[n+](C)c2c1 (optimized conformer: 76.42308620177391 kcal/mol)

>  <smiles>  (23) 
CNc1ccc2c(NCCN(C)C)c3ccccc3[n+](C)c2c1

>  <score_type>  (23) 
oracle

>  <origin>  (23) 
adg

>  <m_score__min__energy>  (23) 
-3.8700000000000001

>  <m_primary>  (23) 
energy

$$$$
23:0
     RDKit          3D

 37 40  0  0  0  0  0  0  0  0999 V2000
   55.5340   25.4320   45.9750 C   0  0  0  0  0  0  0  0  0  0  0  0
   55.6880   26.8470   45.9580 O   0  0  0  0  0  0  0  0  0  0  0  0
   56.8720   27.5110   45.6030 C   0  0  0  0  0  0  0  0  0  0  0  0
   57.9750   26.7400   45.2160 C   0  0  0  0  0  0  0  0  0  0  0  0
   59.1770   27.3530   44.8560 C   0  0  0  0  0  0  0  0  0  0  0  0
   59.2870   28.7440   44.8740 C   0  0  0  0  0  0  0  0  0  0  0  0
   58.1910   29.5370   45.2530 C   0  0  0  0  0  0  0  0  0  0  0  0
   58.3070   30.9750   45.2770 N   0  0  0  0  0  0  0  0  0  0  0  0
   57.3980   31.7310   44.5660 C   0  0  0  0  0  0  0  0  0  0  0  0
   57.4650   33.0950   44.5690 N   0  0  0  0  0  0  0  0  0  0  0  0
   58.4560   33.6880   45.2720 C   0  0  0  0  0  0  0  0  0  0  0  0
   58.6610   34.9710   45.4190 O   0  0  0  0  0  0  0  0  0  0  0  0
   59.7010   35.1660   46.1870 N   0  0  0  0  0  0  0  0  0  0  0  0
   60.1860   33.9480   46.5410 C   0  0  0  0  0  0  0  0  0  0  0  0
   61.3790   33.7650   47.3890 C   0  0  0  0  0  0  0  0  0  0  0  0
   61.2860   33.8340   48.7900 C   0  0  0  0  0  0  0  0  0  0  0  0
   62.4210   33.6350   49.5830 C   0  0  0  0  0  0  0  0  0  0  0  0
   63.6530   33.3540   48.9850 C   0  0  0  0  0  0  0  0  0  0  0  0
   65.2020   33.0810   50.0690 Br  0  0  0  0  0  0  0  0  0  0  0  0
   63.7480   33.2590   47.5930 C   0  0  0  0  0  0  0  0  0  0  0  0
   62.6140   33.4560   46.7990 C   0  0  0  0  0  0  0  0  0  0  0  0
   59.3840   32.9790   45.9600 C   0  0  0  0  0  0  0  0  0  0  0  0
   59.3030   31.5910   46.0040 C   0  0  0  0  0  0  0  0  0  0  0  0
   60.0950   30.9200   46.7210 O   0  0  0  0  0  0  0  0  0  0  0  0
   56.9870   28.9150   45.6220 C   0  0  0  0  0  0  0  0  0  0  0  0
   55.4957   25.0798   47.0164 H   0  0  0  0  0  0  0  0  0  0  0  0
   54.6008   25.1585   45.4609 H   0  0  0  0  0  0  0  0  0  0  0  0
   56.3865   24.9642   45.4609 H   0  0  0  0  0  0  0  0  0  0  0  0
   57.8940   25.6432   45.1954 H   0  0  0  0  0  0  0  0  0  0  0  0
   60.0389   26.7381   44.5576 H   0  0  0  0  0  0  0  0  0  0  0  0
   60.2363   29.2218   44.5901 H   0  0  0  0  0  0  0  0  0  0  0  0
   56.6082   31.2281   43.9886 H   0  0  0  0  0  0  0  0  0  0  0  0
   60.3165   34.0454   49.2647 H   0  0  0  0  0  0  0  0  0  0  0  0
   62.3441   33.6997   50.6784 H   0  0  0  0  0  0  0  0  0  0  0  0
   64.7153   33.0292   47.1224 H   0  0  0  0  0  0  0  0  0  0  0  0
   62.6906   33.3682   45.7052 H   0  0  0  0  0  0  0  0  0  0  0  0
   56.1271   29.5289   45.9282 H   0  0  0  0  0  0  0  0  0  0  0  0
  1  2  1  0
  2  3  1  0
  3  4  2  0
  4  5  1  0
  5  6  2  0
  6  7  1  0
  7  8  1  0
  8  9  1  0
  9 10  2  0
 10 11  1  0
 11 12  1  0
 12 13  1  0
 13 14  2  0
 14 15  1  0
 15 16  2  0
 16 17  1  0
 17 18  2  0
 18 19  1  0
 18 20  1  0
 20 21  2  0
 14 22  1  0
 22 23  1  0
 23 24  2  0
  7 25  2  0
 25  3  1  0
 23  8  1  0
 22 11  2  0
 21 15  1  0
  1 26  1  0
  1 27  1  0
  1 28  1  0
  4 29  1  0
  5 30  1  0
  6 31  1  0
  9 32  1  0
 16 33  1  0
 17 34  1  0
 20 35  1  0
 21 36  1  0
 25 37  1  0
M  END
>  <UniqueID>  (24) 
24

>  <SMILES>  (24) 
COc1cccc(-n2cnc3onc(-c4ccc(Br)cc4)c3c2=O)c1

>  <Energy>  (24) 
97.4128670553412

>  <Genealogy>  (24) 
COc1cccc(-n2cnc3onc(-c4ccc(Br)cc4)c3c2=O)c1 (3D coordinates assigned)
COc1cccc(-n2cnc3onc(-c4ccc(Br)cc4)c3c2=O)c1 (optimized conformer: 97.4128670553412 kcal/mol)

>  <smiles>  (24) 
COc1cccc(-n2cnc3onc(-c4ccc(Br)cc4)c3c2=O)c1

>  <score_type>  (24) 
oracle

>  <origin>  (24) 
adg

>  <m_score__min__energy>  (24) 
-8.7799999999999994

>  <m_primary>  (24) 
energy

$$$$
24:0
     RDKit          3D

 52 55  0  0  0  0  0  0  0  0999 V2000
   68.3750   33.9120   50.4660 C   0  0  0  0  0  0  0  0  0  0  0  0
   67.4030   34.2260   51.4910 N   0  0  0  0  0  0  0  0  0  0  0  0
   67.3660   35.6180   51.8340 C   0  0  0  0  0  0  0  0  0  0  0  0
   66.1180   33.6340   51.2590 C   0  0  0  0  0  0  0  0  0  0  0  0
   66.1440   32.2000   50.8960 C   0  0  0  0  0  0  0  0  0  0  0  0
   65.4710   31.9120   49.7390 O   0  0  0  0  0  0  0  0  0  0  0  0
   64.2410   32.1650   49.2580 C   0  0  0  0  0  0  0  0  0  0  0  0
   63.0550   31.5960   49.6430 C   0  0  0  0  0  0  0  0  0  0  0  0
   61.8290   31.9260   49.0790 C   0  0  0  0  0  0  0  0  0  0  0  0
   61.7570   32.8710   48.0790 C   0  0  0  0  0  0  0  0  0  0  0  0
   60.5060   33.2660   47.4430 C   0  0  0  0  0  0  0  0  0  0  0  0
   60.0480   34.5450   47.6660 C   0  0  0  0  0  0  0  0  0  0  0  0
   58.8940   35.0110   47.1190 N   0  0  0  0  0  0  0  0  0  0  0  0
   58.1660   34.2230   46.3410 C   0  0  0  0  0  0  0  0  0  0  0  0
   57.0000   34.3870   45.6650 N   0  0  0  0  0  0  0  0  0  0  0  0
   56.7260   33.2650   45.0400 N   0  0  0  0  0  0  0  0  0  0  0  0
   57.6910   32.3440   45.2830 C   0  0  0  0  0  0  0  0  0  0  0  0
   57.6370   31.0380   44.7220 N   0  0  0  0  0  0  0  0  0  0  0  0
   56.9820   30.7750   43.4320 C   0  0  0  0  0  0  0  0  0  0  0  0
   56.2840   29.4420   43.5330 C   0  0  0  0  0  0  0  0  0  0  0  0
   55.9740   29.1250   44.8360 O   0  0  0  0  0  0  0  0  0  0  0  0
   57.0960   28.9240   45.6340 C   0  0  0  0  0  0  0  0  0  0  0  0
   58.2190   29.8720   45.3720 C   0  0  0  0  0  0  0  0  0  0  0  0
   58.5980   32.9390   46.0990 C   0  0  0  0  0  0  0  0  0  0  0  0
   59.7650   32.4420   46.6410 C   0  0  0  0  0  0  0  0  0  0  0  0
   62.9330   33.4620   47.6710 C   0  0  0  0  0  0  0  0  0  0  0  0
   64.1430   33.1280   48.2360 C   0  0  0  0  0  0  0  0  0  0  0  0
   69.3203   33.6066   50.9383 H   0  0  0  0  0  0  0  0  0  0  0  0
   67.9957   33.0907   49.8402 H   0  0  0  0  0  0  0  0  0  0  0  0
   68.5479   34.8000   49.8402 H   0  0  0  0  0  0  0  0  0  0  0  0
   67.3631   35.7259   52.9287 H   0  0  0  0  0  0  0  0  0  0  0  0
   68.2511   36.1217   51.4182 H   0  0  0  0  0  0  0  0  0  0  0  0
   66.4554   36.0740   51.4182 H   0  0  0  0  0  0  0  0  0  0  0  0
   65.5221   33.7423   52.1772 H   0  0  0  0  0  0  0  0  0  0  0  0
   65.6895   34.1613   50.3939 H   0  0  0  0  0  0  0  0  0  0  0  0
   67.1928   31.8920   50.7733 H   0  0  0  0  0  0  0  0  0  0  0  0
   65.6378   31.6545   51.7061 H   0  0  0  0  0  0  0  0  0  0  0  0
   63.0749   30.8384   50.4403 H   0  0  0  0  0  0  0  0  0  0  0  0
   60.9124   31.4310   49.4321 H   0  0  0  0  0  0  0  0  0  0  0  0
   60.6372   35.2142   48.3102 H   0  0  0  0  0  0  0  0  0  0  0  0
   56.4010   35.2320   45.6240 H   0  0  0  0  0  0  0  0  0  0  0  0
   56.2487   31.5661   43.2165 H   0  0  0  0  0  0  0  0  0  0  0  0
   57.7241   30.7597   42.6202 H   0  0  0  0  0  0  0  0  0  0  0  0
   55.3550   29.4811   42.9453 H   0  0  0  0  0  0  0  0  0  0  0  0
   56.9645   28.6694   43.1457 H   0  0  0  0  0  0  0  0  0  0  0  0
   56.7934   29.0320   46.6860 H   0  0  0  0  0  0  0  0  0  0  0  0
   57.4732   27.9184   45.3964 H   0  0  0  0  0  0  0  0  0  0  0  0
   58.6973   30.1644   46.3184 H   0  0  0  0  0  0  0  0  0  0  0  0
   58.9895   29.4084   44.7385 H   0  0  0  0  0  0  0  0  0  0  0  0
   60.0907   31.4119   46.4341 H   0  0  0  0  0  0  0  0  0  0  0  0
   62.9042   34.2196   46.8740 H   0  0  0  0  0  0  0  0  0  0  0  0
   65.0566   33.6263   47.8798 H   0  0  0  0  0  0  0  0  0  0  0  0
  1  2  1  0
  2  3  1  0
  2  4  1  0
  4  5  1  0
  5  6  1  0
  6  7  1  0
  7  8  2  0
  8  9  1  0
  9 10  2  0
 10 11  1  0
 11 12  2  0
 12 13  1  0
 13 14  2  0
 14 15  1  0
 15 16  1  0
 16 17  2  0
 17 18  1  0
 18 19  1  0
 19 20  1  0
 20 21  1  0
 21 22  1  0
 22 23  1  0
 17 24  1  0
 24 25  2  0
 10 26  1  0
 26 27  2  0
 27  7  1  0
 25 11  1  0
 24 14  1  0
 23 18  1  0
  1 28  1  0
  1 29  1  0
  1 30  1  0
  3 31  1  0
  3 32  1  0
  3 33  1  0
  4 34  1  0
  4 35  1  0
  5 36  1  0
  5 37  1  0
  8 38  1  0
  9 39  1  0
 12 40  1  0
 15 41  1  0
 19 42  1  0
 19 43  1  0
 20 44  1  0
 20 45  1  0
 22 46  1  0
 22 47  1  0
 23 48  1  0
 23 49  1  0
 25 50  1  0
 26 51  1  0
 27 52  1  0
M  END
>  <smiles>  (25) 
CN(C)CCOc1ccc(-c2cnc3[nH]nc(N4CCOCC4)c3c2)cc1

>  <score_type>  (25) 
oracle

>  <origin>  (25) 
adg

>  <m_score__min__energy>  (25) 
-7.9000000000000004

>  <m_primary>  (25) 
energy

$$$$
25:0
     RDKit          3D

 42 42  0  0  0  0  0  0  0  0999 V2000
   58.2620   34.2280   46.4960 C   0  0  0  0  0  0  0  0  0  0  0  0
   59.6730   34.4080   45.9530 C   0  0  0  0  0  0  0  0  0  0  0  0
   60.6510   33.8220   46.8980 N   0  0  0  0  0  0  0  0  0  0  0  0
   62.0470   33.8420   46.4130 C   0  0  0  0  0  0  0  0  0  0  0  0
   62.9720   33.1020   47.3760 C   0  0  0  0  0  0  0  0  0  0  0  0
   60.5040   34.3110   48.2910 C   0  0  0  0  0  0  0  0  0  0  0  0
   60.0720   33.2450   49.3230 C   0  0  0  0  0  0  0  0  0  0  0  0
   60.2010   31.8910   48.7770 N   0  0  0  0  0  0  0  0  0  0  0  0
   58.8950   31.2290   48.6790 C   0  0  0  0  0  0  0  0  0  0  0  0
   59.0150   29.9380   47.8660 C   0  0  0  0  0  0  0  0  0  0  0  0
   59.4680   30.2330   46.4640 C   0  0  0  0  0  0  0  0  0  0  0  0
   60.6870   30.4760   46.2500 O   0  0  0  0  0  0  0  0  0  0  0  0
   58.4980   30.3310   45.3500 C   0  0  0  0  0  0  0  0  0  0  0  0
   58.3420   31.5490   44.6680 C   0  0  0  0  0  0  0  0  0  0  0  0
   57.4310   31.6590   43.6150 C   0  0  0  0  0  0  0  0  0  0  0  0
   56.6710   30.5540   43.2280 C   0  0  0  0  0  0  0  0  0  0  0  0
   56.8240   29.3350   43.8910 C   0  0  0  0  0  0  0  0  0  0  0  0
   57.7340   29.2130   44.9490 C   0  0  0  0  0  0  0  0  0  0  0  0
   57.9390   27.6330   45.6970 Cl  0  0  0  0  0  0  0  0  0  0  0  0
   58.2891   34.2315   47.5957 H   0  0  0  0  0  0  0  0  0  0  0  0
   57.6251   35.0522   46.1423 H   0  0  0  0  0  0  0  0  0  0  0  0
   57.8524   33.2703   46.1423 H   0  0  0  0  0  0  0  0  0  0  0  0
   59.7573   33.9025   44.9796 H   0  0  0  0  0  0  0  0  0  0  0  0
   59.8821   35.4811   45.8318 H   0  0  0  0  0  0  0  0  0  0  0  0
   62.0921   33.3568   45.4268 H   0  0  0  0  0  0  0  0  0  0  0  0
   62.3786   34.8885   46.3435 H   0  0  0  0  0  0  0  0  0  0  0  0
   62.6833   33.3329   48.4120 H   0  0  0  0  0  0  0  0  0  0  0  0
   62.8885   32.0186   47.2049 H   0  0  0  0  0  0  0  0  0  0  0  0
   64.0107   33.4213   47.2049 H   0  0  0  0  0  0  0  0  0  0  0  0
   61.4732   34.7209   48.6113 H   0  0  0  0  0  0  0  0  0  0  0  0
   59.6959   35.0570   48.2678 H   0  0  0  0  0  0  0  0  0  0  0  0
   60.7077   33.3330   50.2164 H   0  0  0  0  0  0  0  0  0  0  0  0
   59.0159   33.4170   49.5779 H   0  0  0  0  0  0  0  0  0  0  0  0
   60.5830   31.9700   47.8060 H   0  0  0  0  0  0  0  0  0  0  0  0
   58.5327   30.9893   49.6896 H   0  0  0  0  0  0  0  0  0  0  0  0
   58.1876   31.9047   48.1761 H   0  0  0  0  0  0  0  0  0  0  0  0
   59.7463   29.2736   48.3494 H   0  0  0  0  0  0  0  0  0  0  0  0
   58.0283   29.4536   47.8241 H   0  0  0  0  0  0  0  0  0  0  0  0
   58.9414   32.4222   44.9652 H   0  0  0  0  0  0  0  0  0  0  0  0
   57.3122   32.6182   43.0897 H   0  0  0  0  0  0  0  0  0  0  0  0
   55.9516   30.6437   42.4007 H   0  0  0  0  0  0  0  0  0  0  0  0
   56.2264   28.4651   43.5808 H   0  0  0  0  0  0  0  0  0  0  0  0
  1  2  1  0
  2  3  1  0
  3  4  1  0
  4  5  1  0
  3  6  1  0
  6  7  1  0
  7  8  1  0
  8  9  1  0
  9 10  1  0
 10 11  1  0
 11 12  2  0
 11 13  1  0
 13 14  2  0
 14 15  1  0
 15 16  2  0
 16 17  1  0
 17 18  2  0
 18 19  1  0
 18 13  1  0
  1 20  1  0
  1 21  1  0
  1 22  1  0
  2 23  1  0
  2 24  1  0
  4 25  1  0
  4 26  1  0
  5 27  1  0
  5 28  1  0
  5 29  1  0
  6 30  1  0
  6 31  1  0
  7 32  1  0
  7 33  1  0
  8 34  1  0
  9 35  1  0
  9 36  1  0
 10 37  1  0
 10 38  1  0
 14 39  1  0
 15 40  1  0
 16 41  1  0
 17 42  1  0
M  END
>  <UniqueID>  (26) 
25

>  <SMILES>  (26) 
CCN(CC)CCNCCC(=O)c1ccccc1Cl

>  <Energy>  (26) 
39.51122220421872

>  <Genealogy>  (26) 
CCN(CC)CCNCCC(=O)c1ccccc1Cl (3D coordinates assigned)
CCN(CC)CCNCCC(=O)c1ccccc1Cl (optimized conformer: 39.51122220421872 kcal/mol)

>  <smiles>  (26) 
CCN(CC)CCNCCC(=O)c1ccccc1Cl

>  <score_type>  (26) 
oracle

>  <origin>  (26) 
adg

>  <m_score__min__energy>  (26) 
-6.3099999999999996

>  <m_primary>  (26) 
energy

$$$$
26:0
     RDKit          3D

 47 49  0  0  0  0  0  0  0  0999 V2000
   57.1320   31.2610   42.5420 O   0  0  0  0  0  0  0  0  0  0  0  0
   57.2790   30.8680   43.9850 S   0  0  0  0  0  0  0  0  0  0  0  0
   55.9130   30.6190   44.5580 O   0  0  0  0  0  0  0  0  0  0  0  0
   58.2500   29.4300   44.0930 N   0  0  0  0  0  0  0  0  0  0  0  0
   57.3770   28.2540   44.1760 C   0  0  0  0  0  0  0  0  0  0  0  0
   57.8460   27.2590   45.2520 C   0  0  0  0  0  0  0  0  0  0  0  0
   57.9550   27.7950   46.7040 C   0  0  0  0  0  0  0  0  0  0  0  0
   59.0380   28.7710   46.9890 N   0  0  0  0  0  0  0  0  0  0  0  0
   59.3620   28.9110   48.4100 C   0  0  0  0  0  0  0  0  0  0  0  0
   60.1320   30.2080   48.6430 C   0  0  0  0  0  0  0  0  0  0  0  0
   61.1490   30.5050   47.6080 N   0  0  0  0  0  0  0  0  0  0  0  0
   62.0460   31.6440   47.8110 C   0  0  0  0  0  0  0  0  0  0  0  0
   62.7810   31.7990   49.0150 C   0  0  0  0  0  0  0  0  0  0  0  0
   63.6420   32.8850   49.2010 C   0  0  0  0  0  0  0  0  0  0  0  0
   63.7880   33.8450   48.2030 C   0  0  0  0  0  0  0  0  0  0  0  0
   63.0700   33.7260   47.0150 C   0  0  0  0  0  0  0  0  0  0  0  0
   62.2070   32.6440   46.8190 C   0  0  0  0  0  0  0  0  0  0  0  0
   61.1600   29.8110   46.2980 C   0  0  0  0  0  0  0  0  0  0  0  0
   60.2680   28.5680   46.2190 C   0  0  0  0  0  0  0  0  0  0  0  0
   58.0610   32.1750   44.8570 C   0  0  0  0  0  0  0  0  0  0  0  0
   58.2940   33.4530   44.3660 C   0  0  0  0  0  0  0  0  0  0  0  0
   58.8220   34.3200   45.3270 C   0  0  0  0  0  0  0  0  0  0  0  0
   58.9950   33.7210   46.5680 C   0  0  0  0  0  0  0  0  0  0  0  0
   59.6440   34.5810   48.1390 Br  0  0  0  0  0  0  0  0  0  0  0  0
   58.4920   32.1190   46.4820 S   0  0  0  0  0  0  0  0  0  0  0  0
   58.7840   29.5250   44.9830 H   0  0  0  0  0  0  0  0  0  0  0  0
   56.3572   28.5860   44.4204 H   0  0  0  0  0  0  0  0  0  0  0  0
   57.4076   27.7404   43.2037 H   0  0  0  0  0  0  0  0  0  0  0  0
   57.1356   26.4192   45.2602 H   0  0  0  0  0  0  0  0  0  0  0  0
   58.8743   26.9920   44.9669 H   0  0  0  0  0  0  0  0  0  0  0  0
   56.9991   28.2806   46.9499 H   0  0  0  0  0  0  0  0  0  0  0  0
   58.2012   26.9130   47.3135 H   0  0  0  0  0  0  0  0  0  0  0  0
   58.4313   28.9293   48.9960 H   0  0  0  0  0  0  0  0  0  0  0  0
   59.9836   28.0598   48.7248 H   0  0  0  0  0  0  0  0  0  0  0  0
   59.4106   31.0381   48.6659 H   0  0  0  0  0  0  0  0  0  0  0  0
   60.6737   30.0876   49.5928 H   0  0  0  0  0  0  0  0  0  0  0  0
   62.6716   31.0523   49.8153 H   0  0  0  0  0  0  0  0  0  0  0  0
   64.2066   32.9814   50.1401 H   0  0  0  0  0  0  0  0  0  0  0  0
   64.4690   34.6958   48.3523 H   0  0  0  0  0  0  0  0  0  0  0  0
   63.1827   34.4865   46.2282 H   0  0  0  0  0  0  0  0  0  0  0  0
   61.6425   32.5670   45.8780 H   0  0  0  0  0  0  0  0  0  0  0  0
   60.8220   30.5234   45.5311 H   0  0  0  0  0  0  0  0  0  0  0  0
   62.1912   29.4610   46.1430 H   0  0  0  0  0  0  0  0  0  0  0  0
   60.0093   28.3740   45.1676 H   0  0  0  0  0  0  0  0  0  0  0  0
   60.8139   27.7103   46.6390 H   0  0  0  0  0  0  0  0  0  0  0  0
   58.0847   33.7520   43.3283 H   0  0  0  0  0  0  0  0  0  0  0  0
   59.0749   35.3705   45.1211 H   0  0  0  0  0  0  0  0  0  0  0  0
  1  2  2  0
  2  3  2  0
  2  4  1  0
  4  5  1  0
  5  6  1  0
  6  7  1  0
  7  8  1  0
  8  9  1  0
  9 10  1  0
 10 11  1  0
 11 12  1  0
 12 13  2  0
 13 14  1  0
 14 15  2  0
 15 16  1  0
 16 17  2  0
 11 18  1  0
 18 19  1  0
  2 20  1  0
 20 21  2  0
 21 22  1  0
 22 23  2  0
 23 24  1  0
 23 25  1  0
 19  8  1  0
 25 20  1  0
 17 12  1  0
  4 26  1  0
  5 27  1  0
  5 28  1  0
  6 29  1  0
  6 30  1  0
  7 31  1  0
  7 32  1  0
  9 33  1  0
  9 34  1  0
 10 35  1  0
 10 36  1  0
 13 37  1  0
 14 38  1  0
 15 39  1  0
 16 40  1  0
 17 41  1  0
 18 42  1  0
 18 43  1  0
 19 44  1  0
 19 45  1  0
 21 46  1  0
 22 47  1  0
M  END
>  <UniqueID>  (27) 
26

>  <SMILES>  (27) 
O=S(=O)(NCCCN1CCN(c2ccccc2)CC1)c1ccc(Br)s1

>  <Energy>  (27) 
82.71224732185313

>  <Genealogy>  (27) 
O=S(=O)(NCCCN1CCN(c2ccccc2)CC1)c1ccc(Br)s1 (3D coordinates assigned)
O=S(=O)(NCCCN1CCN(c2ccccc2)CC1)c1ccc(Br)s1 (nonaromatic ring conformer: 82.71224732185313 kcal/mol)

>  <smiles>  (27) 
O=S(=O)(NCCCN1CCN(c2ccccc2)CC1)c1ccc(Br)s1

>  <score_type>  (27) 
oracle

>  <origin>  (27) 
adg

>  <m_score__min__energy>  (27) 
-8.5399999999999991

>  <m_primary>  (27) 
energy

$$$$
27:0
     RDKit          3D

 68 71  0  0  0  0  0  0  0  0999 V2000
   54.8330   25.0100   45.7160 C   0  0  0  0  0  0  0  0  0  0  0  0
   55.2120   26.3680   45.9180 O   0  0  0  0  0  0  0  0  0  0  0  0
   56.5380   26.8240   45.9900 C   0  0  0  0  0  0  0  0  0  0  0  0
   57.5900   25.9920   46.4170 C   0  0  0  0  0  0  0  0  0  0  0  0
   58.8930   26.4830   46.4850 C   0  0  0  0  0  0  0  0  0  0  0  0
   59.1650   27.8000   46.1190 C   0  0  0  0  0  0  0  0  0  0  0  0
   58.1350   28.6420   45.6750 C   0  0  0  0  0  0  0  0  0  0  0  0
   56.8060   28.1550   45.6250 C   0  0  0  0  0  0  0  0  0  0  0  0
   55.7140   28.9510   45.2320 O   0  0  0  0  0  0  0  0  0  0  0  0
   55.5730   29.6320   43.9860 C   0  0  0  0  0  0  0  0  0  0  0  0
   56.5190   30.8350   43.9220 C   0  0  0  0  0  0  0  0  0  0  0  0
   58.0020   30.4220   43.9210 C   0  0  0  0  0  0  0  0  0  0  0  0
   58.4580   29.9760   45.2480 N   0  0  0  0  0  0  0  0  0  0  0  0
   59.1820   30.8770   46.1200 C   0  0  0  0  0  0  0  0  0  0  0  0
   60.1050   30.4350   46.8550 O   0  0  0  0  0  0  0  0  0  0  0  0
   58.8440   32.3440   46.2150 C   0  0  0  0  0  0  0  0  0  0  0  0
   58.6210   32.7610   47.6750 C   0  0  0  0  0  0  0  0  0  0  0  0
   59.9170   33.3020   48.2980 C   0  0  0  0  0  0  0  0  0  0  0  0
   59.7140   33.7620   49.7590 C   0  0  0  0  0  0  0  0  0  0  0  0
   59.8820   32.6520   50.7380 N   0  0  0  0  0  0  0  0  0  0  0  0
   60.4200   31.4390   50.0780 C   0  0  0  0  0  0  0  0  0  0  0  0
   61.8930   31.6080   49.6810 C   0  0  0  0  0  0  0  0  0  0  0  0
   62.6710   32.1520   50.7980 N   0  0  0  0  0  0  0  0  0  0  0  0
   64.1030   32.0770   50.7360 C   0  0  0  0  0  0  0  0  0  0  0  0
   64.8110   33.1450   50.1630 C   0  0  0  0  0  0  0  0  0  0  0  0
   66.2060   33.1250   50.1140 C   0  0  0  0  0  0  0  0  0  0  0  0
   66.9070   32.0430   50.6440 C   0  0  0  0  0  0  0  0  0  0  0  0
   66.2150   30.9680   51.2090 C   0  0  0  0  0  0  0  0  0  0  0  0
   64.8060   30.9560   51.2450 C   0  0  0  0  0  0  0  0  0  0  0  0
   64.0730   29.7800   51.8570 C   0  0  0  0  0  0  0  0  0  0  0  0
   64.9300   28.7040   52.0130 F   0  0  0  0  0  0  0  0  0  0  0  0
   63.0250   29.4120   51.0360 F   0  0  0  0  0  0  0  0  0  0  0  0
   63.5640   30.0990   53.1060 F   0  0  0  0  0  0  0  0  0  0  0  0
   62.0260   32.3430   52.0970 C   0  0  0  0  0  0  0  0  0  0  0  0
   60.6830   33.0800   51.9290 C   0  0  0  0  0  0  0  0  0  0  0  0
   54.6959   24.5187   46.6906 H   0  0  0  0  0  0  0  0  0  0  0  0
   53.8901   24.9727   45.1507 H   0  0  0  0  0  0  0  0  0  0  0  0
   55.6203   24.4898   45.1507 H   0  0  0  0  0  0  0  0  0  0  0  0
   57.3829   24.9490   46.6985 H   0  0  0  0  0  0  0  0  0  0  0  0
   59.7084   25.8294   46.8284 H   0  0  0  0  0  0  0  0  0  0  0  0
   60.1949   28.1818   46.1788 H   0  0  0  0  0  0  0  0  0  0  0  0
   55.8124   28.9393   43.1658 H   0  0  0  0  0  0  0  0  0  0  0  0
   54.5368   29.9888   43.8909 H   0  0  0  0  0  0  0  0  0  0  0  0
   56.3097   31.3992   43.0012 H   0  0  0  0  0  0  0  0  0  0  0  0
   56.3435   31.4452   44.8202 H   0  0  0  0  0  0  0  0  0  0  0  0
   58.1396   29.5989   43.2044 H   0  0  0  0  0  0  0  0  0  0  0  0
   58.5969   31.3033   43.6391 H   0  0  0  0  0  0  0  0  0  0  0  0
   59.6729   32.9325   45.7949 H   0  0  0  0  0  0  0  0  0  0  0  0
   57.9176   32.5285   45.6513 H   0  0  0  0  0  0  0  0  0  0  0  0
   57.8501   33.5448   47.7113 H   0  0  0  0  0  0  0  0  0  0  0  0
   58.3001   31.8775   48.2464 H   0  0  0  0  0  0  0  0  0  0  0  0
   60.6777   32.5077   48.2791 H   0  0  0  0  0  0  0  0  0  0  0  0
   60.2357   34.1753   47.7100 H   0  0  0  0  0  0  0  0  0  0  0  0
   60.4503   34.5469   49.9867 H   0  0  0  0  0  0  0  0  0  0  0  0
   58.6828   34.1338   49.8508 H   0  0  0  0  0  0  0  0  0  0  0  0
   58.9320   32.3800   51.0830 H   0  0  0  0  0  0  0  0  0  0  0  0
   60.3339   30.5893   50.7713 H   0  0  0  0  0  0  0  0  0  0  0  0
   59.8381   31.2638   49.1611 H   0  0  0  0  0  0  0  0  0  0  0  0
   62.3052   30.6285   49.3969 H   0  0  0  0  0  0  0  0  0  0  0  0
   61.9533   32.3073   48.8340 H   0  0  0  0  0  0  0  0  0  0  0  0
   64.2625   34.0042   49.7495 H   0  0  0  0  0  0  0  0  0  0  0  0
   66.7522   33.9633   49.6570 H   0  0  0  0  0  0  0  0  0  0  0  0
   68.0067   32.0351   50.6176 H   0  0  0  0  0  0  0  0  0  0  0  0
   66.7767   30.1213   51.6305 H   0  0  0  0  0  0  0  0  0  0  0  0
   61.8450   31.3614   52.5592 H   0  0  0  0  0  0  0  0  0  0  0  0
   62.6860   32.9472   52.7368 H   0  0  0  0  0  0  0  0  0  0  0  0
   60.0788   32.9021   52.8308 H   0  0  0  0  0  0  0  0  0  0  0  0
   60.9269   34.1416   51.7757 H   0  0  0  0  0  0  0  0  0  0  0  0
  1  2  1  0
  2  3  1  0
  3  4  2  0
  4  5  1  0
  5  6  2  0
  6  7  1  0
  7  8  2  0
  8  9  1  0
  9 10  1  0
 10 11  1  0
 11 12  1  0
 12 13  1  0
 13 14  1  0
 14 15  2  0
 14 16  1  0
 16 17  1  0
 17 18  1  0
 18 19  1  0
 19 20  1  0
 20 21  1  0
 21 22  1  0
 22 23  1  0
 23 24  1  0
 24 25  2  0
 25 26  1  0
 26 27  2  0
 27 28  1  0
 28 29  2  0
 29 30  1  0
 30 31  1  0
 30 32  1  0
 30 33  1  0
 23 34  1  0
 34 35  1  0
  8  3  1  0
 35 20  1  0
 13  7  1  0
 29 24  1  0
  1 36  1  0
  1 37  1  0
  1 38  1  0
  4 39  1  0
  5 40  1  0
  6 41  1  0
 10 42  1  0
 10 43  1  0
 11 44  1  0
 11 45  1  0
 12 46  1  0
 12 47  1  0
 16 48  1  0
 16 49  1  0
 17 50  1  0
 17 51  1  0
 18 52  1  0
 18 53  1  0
 19 54  1  0
 19 55  1  0
 20 56  1  0
 21 57  1  0
 21 58  1  0
 22 59  1  0
 22 60  1  0
 25 61  1  0
 26 62  1  0
 27 63  1  0
 28 64  1  0
 34 65  1  0
 34 66  1  0
 35 67  1  0
 35 68  1  0
M  CHG  1  20   1
M  END
>  <UniqueID>  (28) 
27

>  <SMILES>  (28) 
COc1cccc2c1OCCCN2C(=O)CCCC[NH+]1CCN(c2ccccc2C(F)(F)F)CC1

>  <Energy>  (28) 
93.5372359817929

>  <Genealogy>  (28) 
COc1cccc2c1OCCCN2C(=O)CCCC[NH+]1CCN(c2ccccc2C(F)(F)F)CC1 (protonated)
COc1cccc2c1OCCCN2C(=O)CCCC[NH+]1CCN(c2ccccc2C(F)(F)F)CC1 (3D coordinates assigned)
COc1cccc2c1OCCCN2C(=O)CCCC[NH+]1CCN(c2ccccc2C(F)(F)F)CC1 (nonaromatic ring conformer: 93.5372359817929 kcal/mol)

>  <smiles>  (28) 
COc1cccc2c1OCCCN2C(=O)CCCCN1CCN(c2ccccc2C(F)(F)F)CC1

>  <score_type>  (28) 
oracle

>  <origin>  (28) 
adg

>  <m_score__min__energy>  (28) 
-4.5700000000000003

>  <m_primary>  (28) 
energy

$$$$
28:0
     RDKit          3D

 29 31  0  0  0  0  0  0  0  0999 V2000
   60.2400   25.2350   46.6550 F   0  0  0  0  0  0  0  0  0  0  0  0
   59.1930   26.0170   46.3000 C   0  0  0  0  0  0  0  0  0  0  0  0
   57.8770   25.6370   46.6570 C   0  0  0  0  0  0  0  0  0  0  0  0
   56.7800   26.4420   46.2950 C   0  0  0  0  0  0  0  0  0  0  0  0
   57.0460   27.6070   45.5790 C   0  0  0  0  0  0  0  0  0  0  0  0
   56.1790   28.5230   45.1290 N   0  0  0  0  0  0  0  0  0  0  0  0
   56.9680   29.4330   44.5050 C   0  0  0  0  0  0  0  0  0  0  0  0
   56.4330   30.6660   43.8460 C   0  0  0  0  0  0  0  0  0  0  0  0
   56.2710   31.7170   44.7980 O   0  0  0  0  0  0  0  0  0  0  0  0
   57.2910   32.5740   45.2420 C   0  0  0  0  0  0  0  0  0  0  0  0
   57.8260   32.3630   46.5190 C   0  0  0  0  0  0  0  0  0  0  0  0
   58.8400   33.1900   47.0110 C   0  0  0  0  0  0  0  0  0  0  0  0
   59.3300   34.2370   46.2260 C   0  0  0  0  0  0  0  0  0  0  0  0
   58.8070   34.4560   44.9490 C   0  0  0  0  0  0  0  0  0  0  0  0
   57.7930   33.6300   44.4540 C   0  0  0  0  0  0  0  0  0  0  0  0
   58.2930   29.1350   44.5520 N   0  0  0  0  0  0  0  0  0  0  0  0
   58.3110   27.9760   45.2330 C   0  0  0  0  0  0  0  0  0  0  0  0
   59.4190   27.2050   45.5770 C   0  0  0  0  0  0  0  0  0  0  0  0
   57.7104   24.7072   47.2206 H   0  0  0  0  0  0  0  0  0  0  0  0
   55.7518   26.1616   46.5673 H   0  0  0  0  0  0  0  0  0  0  0  0
   55.1400   28.5320   45.2320 H   0  0  0  0  0  0  0  0  0  0  0  0
   57.1355   30.9916   43.0647 H   0  0  0  0  0  0  0  0  0  0  0  0
   55.4523   30.4341   43.4049 H   0  0  0  0  0  0  0  0  0  0  0  0
   57.4449   31.5392   47.1404 H   0  0  0  0  0  0  0  0  0  0  0  0
   59.2521   33.0166   48.0160 H   0  0  0  0  0  0  0  0  0  0  0  0
   60.1272   34.8886   46.6132 H   0  0  0  0  0  0  0  0  0  0  0  0
   59.1938   35.2801   44.3316 H   0  0  0  0  0  0  0  0  0  0  0  0
   57.3859   33.8046   43.4471 H   0  0  0  0  0  0  0  0  0  0  0  0
   60.4362   27.5133   45.2937 H   0  0  0  0  0  0  0  0  0  0  0  0
  1  2  1  0
  2  3  2  0
  3  4  1  0
  4  5  2  0
  5  6  1  0
  6  7  1  0
  7  8  1  0
  8  9  1  0
  9 10  1  0
 10 11  2  0
 11 12  1  0
 12 13  2  0
 13 14  1  0
 14 15  2  0
  7 16  2  0
 16 17  1  0
 17 18  2  0
 18  2  1  0
 17  5  1  0
 15 10  1  0
  3 19  1  0
  4 20  1  0
  6 21  1  0
  8 22  1  0
  8 23  1  0
 11 24  1  0
 12 25  1  0
 13 26  1  0
 14 27  1  0
 15 28  1  0
 18 29  1  0
M  END
>  <UniqueID>  (29) 
28

>  <SMILES>  (29) 
Fc1ccc2[nH]c(COc3ccccc3)nc2c1

>  <Energy>  (29) 
66.93883537911036

>  <Genealogy>  (29) 
Fc1ccc2[nH]c(COc3ccccc3)nc2c1 (3D coordinates assigned)
Fc1ccc2[nH]c(COc3ccccc3)nc2c1 (optimized conformer: 66.93883537911036 kcal/mol)

>  <smiles>  (29) 
Fc1ccc2[nH]c(COc3ccccc3)nc2c1

>  <score_type>  (29) 
oracle

>  <origin>  (29) 
adg

>  <m_score__min__energy>  (29) 
-6.5800000000000001

>  <m_primary>  (29) 
energy

$$$$
29:0
     RDKit          3D

 37 38  0  0  0  0  0  0  0  0999 V2000
   54.6940   25.0570   45.6090 C   0  0  0  0  0  0  0  0  0  0  0  0
   55.1680   26.3760   45.9980 N   0  0  0  0  0  0  0  0  0  0  0  0
   56.5540   26.7300   46.0110 C   0  0  0  0  0  0  0  0  0  0  0  0
   57.4150   25.9210   46.4490 O   0  0  0  0  0  0  0  0  0  0  0  0
   56.9790   28.0780   45.5190 C   0  0  0  0  0  0  0  0  0  0  0  0
   55.8180   28.9220   45.2340 N   0  0  0  0  0  0  0  0  0  0  0  0
   55.6780   29.8310   44.1310 C   0  0  0  0  0  0  0  0  0  0  0  0
   54.7500   29.6390   43.3020 O   0  0  0  0  0  0  0  0  0  0  0  0
   56.6150   30.9490   43.9080 C   0  0  0  0  0  0  0  0  0  0  0  0
   57.1270   31.1830   42.6220 C   0  0  0  0  0  0  0  0  0  0  0  0
   58.0650   32.1950   42.4120 C   0  0  0  0  0  0  0  0  0  0  0  0
   58.4960   32.9850   43.4810 C   0  0  0  0  0  0  0  0  0  0  0  0
   57.9640   32.7870   44.7640 C   0  0  0  0  0  0  0  0  0  0  0  0
   58.4840   33.5770   45.9340 C   0  0  0  0  0  0  0  0  0  0  0  0
   59.6610   32.8630   46.5430 C   0  0  0  0  0  0  0  0  0  0  0  0
   59.5700   31.4990   46.8690 C   0  0  0  0  0  0  0  0  0  0  0  0
   60.6860   30.8190   47.3660 C   0  0  0  0  0  0  0  0  0  0  0  0
   61.8990   31.4910   47.5350 C   0  0  0  0  0  0  0  0  0  0  0  0
   62.0000   32.8460   47.2050 C   0  0  0  0  0  0  0  0  0  0  0  0
   63.5290   33.6850   47.3980 Cl  0  0  0  0  0  0  0  0  0  0  0  0
   60.8850   33.5300   46.7070 C   0  0  0  0  0  0  0  0  0  0  0  0
   57.0120   31.7750   44.9680 C   0  0  0  0  0  0  0  0  0  0  0  0
   54.4807   24.4635   46.5103 H   0  0  0  0  0  0  0  0  0  0  0  0
   53.7762   25.1588   45.0113 H   0  0  0  0  0  0  0  0  0  0  0  0
   55.4666   24.5513   45.0113 H   0  0  0  0  0  0  0  0  0  0  0  0
   57.5966   28.5637   46.2889 H   0  0  0  0  0  0  0  0  0  0  0  0
   57.5536   27.9470   44.5902 H   0  0  0  0  0  0  0  0  0  0  0  0
   56.7876   30.5664   41.7766 H   0  0  0  0  0  0  0  0  0  0  0  0
   58.4658   32.3711   41.4029 H   0  0  0  0  0  0  0  0  0  0  0  0
   59.2546   33.7644   43.3161 H   0  0  0  0  0  0  0  0  0  0  0  0
   58.7979   34.5742   45.5918 H   0  0  0  0  0  0  0  0  0  0  0  0
   57.6892   33.6793   46.6876 H   0  0  0  0  0  0  0  0  0  0  0  0
   58.6181   30.9649   46.7328 H   0  0  0  0  0  0  0  0  0  0  0  0
   60.6087   29.7526   47.6245 H   0  0  0  0  0  0  0  0  0  0  0  0
   62.7750   30.9540   47.9278 H   0  0  0  0  0  0  0  0  0  0  0  0
   60.9683   34.5946   46.4431 H   0  0  0  0  0  0  0  0  0  0  0  0
   56.5749   31.6297   45.9669 H   0  0  0  0  0  0  0  0  0  0  0  0
  1  2  1  0
  2  3  1  0
  3  4  2  0
  3  5  1  0
  5  6  1  0
  6  7  1  0
  7  8  2  0
  7  9  1  0
  9 10  2  0
 10 11  1  0
 11 12  2  0
 12 13  1  0
 13 14  1  0
 14 15  1  0
 15 16  2  0
 16 17  1  0
 17 18  2  0
 18 19  1  0
 19 20  1  0
 19 21  2  0
 13 22  2  0
 22  9  1  0
 21 15  1  0
  1 23  1  0
  1 24  1  0
  1 25  1  0
  5 26  1  0
  5 27  1  0
 10 28  1  0
 11 29  1  0
 12 30  1  0
 14 31  1  0
 14 32  1  0
 16 33  1  0
 17 34  1  0
 18 35  1  0
 21 36  1  0
 22 37  1  0
M  CHG  2   2  -1   6  -1
M  END
>  <UniqueID>  (30) 
29

>  <SMILES>  (30) 
C[N-]C(=O)C[N-]C(=O)c1cccc(Cc2cccc(Cl)c2)c1

>  <Energy>  (30) 
31.965306825760287

>  <Genealogy>  (30) 
C[N-]C(=O)C[N-]C(=O)c1cccc(Cc2cccc(Cl)c2)c1 (protonated)
C[N-]C(=O)C[N-]C(=O)c1cccc(Cc2cccc(Cl)c2)c1 (3D coordinates assigned)
C[N-]C(=O)C[N-]C(=O)c1cccc(Cc2cccc(Cl)c2)c1 (optimized conformer: 31.965306825760287 kcal/mol)

>  <smiles>  (30) 
CNC(=O)CNC(=O)c1cccc(Cc2cccc(Cl)c2)c1

>  <score_type>  (30) 
oracle

>  <origin>  (30) 
adg

>  <m_score__min__energy>  (30) 
-12.720000000000001

>  <m_primary>  (30) 
energy

$$$$
30:0
     RDKit          3D

 38 40  0  0  0  0  0  0  0  0999 V2000
   59.1380   24.4805   46.8618 H   0  0  0  0  0  0  0  0  0  0  0  0
   59.1800   25.5740   46.7500 C   0  0  0  0  0  0  0  0  0  0  0  0
   60.3040   26.2510   47.1120 N   0  0  0  0  0  0  0  0  0  0  0  0
   60.3960   27.6030   46.9910 C   0  0  0  0  0  0  0  0  0  0  0  0
   61.3169   28.1225   47.2944 H   0  0  0  0  0  0  0  0  0  0  0  0
   59.3170   28.3300   46.4800 C   0  0  0  0  0  0  0  0  0  0  0  0
   59.3700   29.6770   46.3650 N   0  0  0  0  0  0  0  0  0  0  0  0
   58.3310   30.4050   45.8690 C   0  0  0  0  0  0  0  0  0  0  0  0
   58.4830   31.8710   45.9340 C   0  0  0  0  0  0  0  0  0  0  0  0
   58.9350   32.4460   47.1340 C   0  0  0  0  0  0  0  0  0  0  0  0
   59.1084   31.8070   48.0124 H   0  0  0  0  0  0  0  0  0  0  0  0
   59.1670   33.8250   47.2230 C   0  0  0  0  0  0  0  0  0  0  0  0
   59.6470   34.4270   48.5100 C   0  0  0  0  0  0  0  0  0  0  0  0
   59.2095   33.8783   49.3571 H   0  0  0  0  0  0  0  0  0  0  0  0
   60.7440   34.3622   48.5584 H   0  0  0  0  0  0  0  0  0  0  0  0
   59.3395   35.4820   48.5584 H   0  0  0  0  0  0  0  0  0  0  0  0
   59.0240   34.6230   46.0810 C   0  0  0  0  0  0  0  0  0  0  0  0
   59.2159   35.7045   46.1411 H   0  0  0  0  0  0  0  0  0  0  0  0
   58.6390   34.0520   44.8670 C   0  0  0  0  0  0  0  0  0  0  0  0
   58.5453   34.6862   43.9731 H   0  0  0  0  0  0  0  0  0  0  0  0
   58.3700   32.6770   44.7740 C   0  0  0  0  0  0  0  0  0  0  0  0
   58.0620   32.0870   43.4220 C   0  0  0  0  0  0  0  0  0  0  0  0
   57.5565   31.1186   43.5511 H   0  0  0  0  0  0  0  0  0  0  0  0
   57.4062   32.7715   42.8640 H   0  0  0  0  0  0  0  0  0  0  0  0
   58.9985   31.9402   42.8640 H   0  0  0  0  0  0  0  0  0  0  0  0
   57.1510   29.7150   45.4410 C   0  0  0  0  0  0  0  0  0  0  0  0
   56.1090   30.2650   44.8740 N   0  0  0  0  0  0  0  0  0  0  0  0
   55.3640   29.9610   43.6510 C   0  0  0  0  0  0  0  0  0  0  0  0
   54.8919   30.8823   43.2791 H   0  0  0  0  0  0  0  0  0  0  0  0
   54.6009   29.2040   43.8847 H   0  0  0  0  0  0  0  0  0  0  0  0
   56.2860   29.4040   42.5740 C   0  0  0  0  0  0  0  0  0  0  0  0
   57.1356   28.8908   43.0482 H   0  0  0  0  0  0  0  0  0  0  0  0
   55.7297   28.6908   41.9481 H   0  0  0  0  0  0  0  0  0  0  0  0
   56.6585   30.2283   41.9481 H   0  0  0  0  0  0  0  0  0  0  0  0
   57.1120   28.3630   45.5970 N   0  0  0  0  0  0  0  0  0  0  0  0
   58.1520   27.6540   46.1020 C   0  0  0  0  0  0  0  0  0  0  0  0
   58.0780   26.2660   46.2360 C   0  0  0  0  0  0  0  0  0  0  0  0
   57.1667   25.7247   45.9418 H   0  0  0  0  0  0  0  0  0  0  0  0
  1  2  1  0
  2  3  2  0
  3  4  1  0
  4  5  1  0
  4  6  2  0
  6  7  1  0
  7  8  2  0
  8  9  1  0
  9 10  2  0
 10 11  1  0
 10 12  1  0
 12 13  1  0
 13 14  1  0
 13 15  1  0
 13 16  1  0
 12 17  2  0
 17 18  1  0
 17 19  1  0
 19 20  1  0
 19 21  2  0
 21 22  1  0
 22 23  1  0
 22 24  1  0
 22 25  1  0
  8 26  1  0
 26 27  2  0
 27 28  1  0
 28 29  1  0
 28 30  1  0
 28 31  1  0
 31 32  1  0
 31 33  1  0
 31 34  1  0
 26 35  1  0
 35 36  1  0
 36 37  2  0
 37 38  1  0
 37  2  1  0
 36  6  1  0
 21  9  1  0
M  CHG  1  35  -1
M  END
>  <UniqueID>  (31) 
30

>  <SMILES>  (31) 
CC/N=c1/[n-]c2ccncc2nc1-c1cc(C)ccc1C

>  <Energy>  (31) 
60.055763559037246

>  <Genealogy>  (31) 
CCN=c1[n-]c2ccncc2nc1-c1cc(C)ccc1C (protonated)
CC/N=c1/[n-]c2ccncc2nc1-c1cc(C)ccc1C (cis-trans isomerization)
CC/N=c1/[n-]c2ccncc2nc1-c1cc(C)ccc1C (3D coordinates assigned)
CC/N=c1/[n-]c2ccncc2nc1-c1cc(C)ccc1C (optimized conformer: 60.055763559037246 kcal/mol)

>  <smiles>  (31) 
CCN=c1[nH]c2ccncc2nc1-c1cc(C)ccc1C

>  <score_type>  (31) 
oracle

>  <origin>  (31) 
adg

>  <m_score__min__energy>  (31) 
-8.9199999999999999

>  <m_primary>  (31) 
energy

$$$$
31:0
     RDKit          3D

 32 34  0  0  0  0  0  0  0  0999 V2000
   60.7230   34.2090   47.4230 C   0  0  0  0  0  0  0  0  0  0  0  0
   59.2040   34.2920   47.5080 C   0  0  0  0  0  0  0  0  0  0  0  0
   58.5940   33.6190   46.3620 N   0  0  0  0  0  0  0  0  0  0  0  0
   57.8720   34.2160   45.3820 C   0  0  0  0  0  0  0  0  0  0  0  0
   57.3920   33.2690   44.4840 C   0  0  0  0  0  0  0  0  0  0  0  0
   57.8380   32.0550   44.9620 C   0  0  0  0  0  0  0  0  0  0  0  0
   57.6450   30.7680   44.4680 C   0  0  0  0  0  0  0  0  0  0  0  0
   58.2130   29.6870   45.1820 C   0  0  0  0  0  0  0  0  0  0  0  0
   58.0480   28.2950   44.6970 C   0  0  0  0  0  0  0  0  0  0  0  0
   58.2480   28.0070   43.3740 N   0  0  0  0  0  0  0  0  0  0  0  0
   58.1100   26.7440   42.8870 C   0  0  0  0  0  0  0  0  0  0  0  0
   57.7590   25.6970   43.7390 C   0  0  0  0  0  0  0  0  0  0  0  0
   57.5550   25.9570   45.0920 C   0  0  0  0  0  0  0  0  0  0  0  0
   57.6990   27.2570   45.5820 C   0  0  0  0  0  0  0  0  0  0  0  0
   57.5390   27.4870   46.9090 F   0  0  0  0  0  0  0  0  0  0  0  0
   58.9610   29.9420   46.3600 C   0  0  0  0  0  0  0  0  0  0  0  0
   59.1370   31.2560   46.8310 C   0  0  0  0  0  0  0  0  0  0  0  0
   58.5590   32.2970   46.1010 C   0  0  0  0  0  0  0  0  0  0  0  0
   61.1463   34.1859   48.4380 H   0  0  0  0  0  0  0  0  0  0  0  0
   61.0107   33.2938   46.8848 H   0  0  0  0  0  0  0  0  0  0  0  0
   61.1087   35.0874   46.8848 H   0  0  0  0  0  0  0  0  0  0  0  0
   58.8655   33.8075   48.4357 H   0  0  0  0  0  0  0  0  0  0  0  0
   58.9027   35.3499   47.5037 H   0  0  0  0  0  0  0  0  0  0  0  0
   57.6911   35.2985   45.3076 H   0  0  0  0  0  0  0  0  0  0  0  0
   56.7857   33.4498   43.5841 H   0  0  0  0  0  0  0  0  0  0  0  0
   57.0669   30.5964   43.5480 H   0  0  0  0  0  0  0  0  0  0  0  0
   58.4970   28.7690   42.7040 H   0  0  0  0  0  0  0  0  0  0  0  0
   58.2759   26.5480   41.8174 H   0  0  0  0  0  0  0  0  0  0  0  0
   57.6444   24.6759   43.3462 H   0  0  0  0  0  0  0  0  0  0  0  0
   57.2806   25.1390   45.7743 H   0  0  0  0  0  0  0  0  0  0  0  0
   59.4088   29.1024   46.9118 H   0  0  0  0  0  0  0  0  0  0  0  0
   59.7125   31.4574   47.7466 H   0  0  0  0  0  0  0  0  0  0  0  0
  1  2  1  0
  2  3  1  0
  3  4  1  0
  4  5  2  0
  5  6  1  0
  6  7  2  0
  7  8  1  0
  8  9  1  0
  9 10  2  0
 10 11  1  0
 11 12  2  0
 12 13  1  0
 13 14  2  0
 14 15  1  0
  8 16  2  0
 16 17  1  0
 17 18  2  0
 18  3  1  0
 18  6  1  0
 14  9  1  0
  1 19  1  0
  1 20  1  0
  1 21  1  0
  2 22  1  0
  2 23  1  0
  4 24  1  0
  5 25  1  0
  7 26  1  0
 10 27  1  0
 11 28  1  0
 12 29  1  0
 13 30  1  0
 16 31  1  0
 17 32  1  0
M  CHG  1  10   1
M  END
>  <UniqueID>  (32) 
31

>  <SMILES>  (32) 
CCn1ccc2cc(-c3[nH+]cccc3F)ccc21

>  <Energy>  (32) 
70.1294530871063

>  <Genealogy>  (32) 
CCn1ccc2cc(-c3[nH+]cccc3F)ccc21 (protonated)
CCn1ccc2cc(-c3[nH+]cccc3F)ccc21 (3D coordinates assigned)
CCn1ccc2cc(-c3[nH+]cccc3F)ccc21 (optimized conformer: 70.1294530871063 kcal/mol)

>  <smiles>  (32) 
CCn1ccc2cc(-c3ncccc3F)ccc21

>  <score_type>  (32) 
oracle

>  <origin>  (32) 
adg

>  <m_score__min__energy>  (32) 
-4.9199999999999999

>  <m_primary>  (32) 
energy

$$$$
32:0
     RDKit          2D

 51 54  0  0  0  0  0  0  0  0999 V2000
  -10.5000   -7.7942    0.0000 C   0  0  0  0  0  0  0  0  0  0  0  0
   -9.0000   -7.7942    0.0000 C   0  0  0  0  0  0  0  0  0  0  0  0
   -7.5000   -7.7942    0.0000 N   0  0  0  0  0  0  0  0  0  0  0  0
   -6.7500   -9.0933    0.0000 C   0  0  0  0  0  0  0  0  0  0  0  0
   -6.0000  -10.3923    0.0000 C   0  0  0  0  0  0  0  0  0  0  0  0
   -6.7500   -6.4952    0.0000 C   0  0  0  0  0  0  0  0  0  0  0  0
   -6.0000   -5.1962    0.0000 C   0  0  0  0  0  0  0  0  0  0  0  0
   -5.2500   -3.8971    0.0000 N   0  0  0  0  0  0  0  0  0  0  0  0
   -3.7500   -3.8971    0.0000 C   0  0  0  0  0  0  0  0  0  0  0  0
   -3.0000   -5.1962    0.0000 O   0  0  0  0  0  0  0  0  0  0  0  0
   -3.0000   -2.5981    0.0000 C   0  0  0  0  0  0  0  0  0  0  0  0
   -3.7500   -1.2990    0.0000 C   0  0  0  0  0  0  0  0  0  0  0  0
   -3.0000    0.0000    0.0000 C   0  0  0  0  0  0  0  0  0  0  0  0
   -1.5000    0.0000    0.0000 C   0  0  0  0  0  0  0  0  0  0  0  0
   -0.7500   -1.2990    0.0000 C   0  0  0  0  0  0  0  0  0  0  0  0
   -1.5000   -2.5981    0.0000 C   0  0  0  0  0  0  0  0  0  0  0  0
    0.7500   -1.2990    0.0000 C   0  0  0  0  0  0  0  0  0  0  0  0
    1.5000    0.0000    0.0000 C   0  0  0  0  0  0  0  0  0  0  0  0
    0.7500    1.2990    0.0000 C   0  0  0  0  0  0  0  0  0  0  0  0
    2.2500    1.2990    0.0000 C   0  0  0  0  0  0  0  0  0  0  0  0
    3.0000    2.5981    0.0000 C   0  0  0  0  0  0  0  0  0  0  0  0
    4.5000    2.5981    0.0000 C   0  0  0  0  0  0  0  0  0  0  0  0
    5.2500    1.2990    0.0000 C   0  0  0  0  0  0  0  0  0  0  0  0
    4.5000   -0.0000    0.0000 C   0  0  0  0  0  0  0  0  0  0  0  0
    3.0000   -0.0000    0.0000 C   0  0  0  0  0  0  0  0  0  0  0  0
    2.2500   -1.2990    0.0000 C   0  0  0  0  0  0  0  0  0  0  0  0
   -0.7500    1.2990    0.0000 O   0  0  0  0  0  0  0  0  0  0  0  0
  -12.0000   -7.7942    0.0000 H   0  0  0  0  0  0  0  0  0  0  0  0
  -10.5000   -6.2942    0.0000 H   0  0  0  0  0  0  0  0  0  0  0  0
  -10.5000   -9.2942    0.0000 H   0  0  0  0  0  0  0  0  0  0  0  0
   -9.0000   -6.2942    0.0000 H   0  0  0  0  0  0  0  0  0  0  0  0
   -9.0000   -9.2942    0.0000 H   0  0  0  0  0  0  0  0  0  0  0  0
   -5.4510   -8.3433    0.0000 H   0  0  0  0  0  0  0  0  0  0  0  0
   -8.0490   -9.8433    0.0000 H   0  0  0  0  0  0  0  0  0  0  0  0
   -5.2500  -11.6913    0.0000 H   0  0  0  0  0  0  0  0  0  0  0  0
   -4.7010   -9.6423    0.0000 H   0  0  0  0  0  0  0  0  0  0  0  0
   -7.2990  -11.1423    0.0000 H   0  0  0  0  0  0  0  0  0  0  0  0
   -5.4510   -7.2452    0.0000 H   0  0  0  0  0  0  0  0  0  0  0  0
   -8.0490   -5.7452    0.0000 H   0  0  0  0  0  0  0  0  0  0  0  0
   -4.7010   -5.9462    0.0000 H   0  0  0  0  0  0  0  0  0  0  0  0
   -7.2990   -4.4462    0.0000 H   0  0  0  0  0  0  0  0  0  0  0  0
   -6.0000   -2.5981    0.0000 H   0  0  0  0  0  0  0  0  0  0  0  0
   -5.2500   -1.2990    0.0000 H   0  0  0  0  0  0  0  0  0  0  0  0
   -3.7500    1.2990    0.0000 H   0  0  0  0  0  0  0  0  0  0  0  0
   -0.7500   -3.8971    0.0000 H   0  0  0  0  0  0  0  0  0  0  0  0
    2.2735    0.1929    0.0000 H   0  0  0  0  0  0  0  0  0  0  0  0
    2.2500    3.8971    0.0000 H   0  0  0  0  0  0  0  0  0  0  0  0
    5.2500    3.8971    0.0000 H   0  0  0  0  0  0  0  0  0  0  0  0
    6.7500    1.2990    0.0000 H   0  0  0  0  0  0  0  0  0  0  0  0
    5.2500   -1.2990    0.0000 H   0  0  0  0  0  0  0  0  0  0  0  0
    3.0000   -2.5981    0.0000 H   0  0  0  0  0  0  0  0  0  0  0  0
  1  2  1  0
  2  3  1  0
  3  4  1  0
  4  5  1  0
  3  6  1  0
  6  7  1  0
  7  8  1  0
  8  9  1  0
  9 10  2  0
  9 11  1  0
 11 12  2  0
 12 13  1  0
 13 14  2  0
 14 15  1  0
 15 16  2  0
 15 17  1  0
 17 18  2  0
 18 19  1  0
 19 20  2  0
 20 21  1  0
 21 22  2  0
 22 23  1  0
 23 24  2  0
 24 25  1  0
 25 26  2  0
 19 27  1  0
 16 11  1  0
 26 17  1  0
 27 14  1  0
 25 20  1  0
  1 28  1  0
  1 29  1  0
  1 30  1  0
  2 31  1  0
  2 32  1  0
  4 33  1  0
  4 34  1  0
  5 35  1  0
  5 36  1  0
  5 37  1  0
  6 38  1  0
  6 39  1  0
  7 40  1  0
  7 41  1  0
  8 42  1  0
 12 43  1  0
 13 44  1  0
 16 45  1  0
 18 46  1  0
 21 47  1  0
 22 48  1  0
 23 49  1  0
 24 50  1  0
 26 51  1  0
M  END
>  <smiles>  (33) 
CCN(CC)CCNC(=O)c1ccc2c(c1)-c1cc(c3ccccc3c1)O2

>  <m_score__min__energy>  (33) 
nan

>  <m_primary>  (33) 
energy

$$$$
33:0
     RDKit          3D

 35 36  0  0  0  0  0  0  0  0999 V2000
   55.1720   23.9210   46.4580 C   0  0  0  0  0  0  0  0  0  0  0  0
   54.4750   24.9710   45.6020 C   0  0  0  0  0  0  0  0  0  0  0  0
   54.9070   26.3140   45.9970 N   0  0  0  0  0  0  0  0  0  0  0  0
   56.6390   26.4630   45.9470 S   0  0  0  0  0  0  0  0  0  0  0  0
   57.1630   25.6990   44.7640 O   0  0  0  0  0  0  0  0  0  0  0  0
   57.2340   25.8740   47.1950 O   0  0  0  0  0  0  0  0  0  0  0  0
   57.1090   28.1540   45.7910 C   0  0  0  0  0  0  0  0  0  0  0  0
   56.5030   28.9760   44.8340 C   0  0  0  0  0  0  0  0  0  0  0  0
   56.9010   30.3090   44.6960 C   0  0  0  0  0  0  0  0  0  0  0  0
   57.9190   30.8430   45.5100 C   0  0  0  0  0  0  0  0  0  0  0  0
   58.3370   32.2200   45.3750 N   0  0  0  0  0  0  0  0  0  0  0  0
   58.8170   33.0560   46.4200 C   0  0  0  0  0  0  0  0  0  0  0  0
   59.1630   34.2440   45.9660 C   0  0  0  0  0  0  0  0  0  0  0  0
   59.7010   35.3450   46.8230 C   0  0  0  0  0  0  0  0  0  0  0  0
   58.9480   34.3440   44.4930 C   0  0  0  0  0  0  0  0  0  0  0  0
   58.3530   32.9770   44.1270 C   0  0  0  0  0  0  0  0  0  0  0  0
   58.5180   30.0080   46.4720 C   0  0  0  0  0  0  0  0  0  0  0  0
   58.1190   28.6760   46.6070 C   0  0  0  0  0  0  0  0  0  0  0  0
   55.0175   24.1538   47.5219 H   0  0  0  0  0  0  0  0  0  0  0  0
   54.7526   22.9288   46.2351 H   0  0  0  0  0  0  0  0  0  0  0  0
   56.2492   23.9223   46.2351 H   0  0  0  0  0  0  0  0  0  0  0  0
   54.7282   24.8042   44.5446 H   0  0  0  0  0  0  0  0  0  0  0  0
   53.3877   24.8870   45.7456 H   0  0  0  0  0  0  0  0  0  0  0  0
   55.7102   28.5715   44.1877 H   0  0  0  0  0  0  0  0  0  0  0  0
   56.4142   30.9474   43.9440 H   0  0  0  0  0  0  0  0  0  0  0  0
   58.8903   32.7500   47.4740 H   0  0  0  0  0  0  0  0  0  0  0  0
   59.5720   35.0809   47.8830 H   0  0  0  0  0  0  0  0  0  0  0  0
   60.7704   35.4877   46.6082 H   0  0  0  0  0  0  0  0  0  0  0  0
   59.1564   36.2763   46.6082 H   0  0  0  0  0  0  0  0  0  0  0  0
   58.2463   35.1561   44.2518 H   0  0  0  0  0  0  0  0  0  0  0  0
   59.8701   34.5734   43.9389 H   0  0  0  0  0  0  0  0  0  0  0  0
   57.3325   33.0934   43.7334 H   0  0  0  0  0  0  0  0  0  0  0  0
   58.9383   32.4697   43.3459 H   0  0  0  0  0  0  0  0  0  0  0  0
   59.3083   30.4084   47.1241 H   0  0  0  0  0  0  0  0  0  0  0  0
   58.6013   28.0340   47.3588 H   0  0  0  0  0  0  0  0  0  0  0  0
  1  2  1  0
  2  3  1  0
  3  4  1  0
  4  5  2  0
  4  6  2  0
  4  7  1  0
  7  8  2  0
  8  9  1  0
  9 10  2  0
 10 11  1  0
 11 12  1  0
 12 13  2  0
 13 14  1  0
 13 15  1  0
 15 16  1  0
 10 17  1  0
 17 18  2  0
 18  7  1  0
 16 11  1  0
  1 19  1  0
  1 20  1  0
  1 21  1  0
  2 22  1  0
  2 23  1  0
  8 24  1  0
  9 25  1  0
 12 26  1  0
 14 27  1  0
 14 28  1  0
 14 29  1  0
 15 30  1  0
 15 31  1  0
 16 32  1  0
 16 33  1  0
 17 34  1  0
 18 35  1  0
M  CHG  1   3  -1
M  END
>  <UniqueID>  (34) 
32

>  <SMILES>  (34) 
CC[N-]S(=O)(=O)c1ccc(N2C=C(C)CC2)cc1

>  <Energy>  (34) 
40.0860958128133

>  <Genealogy>  (34) 
CC[N-]S(=O)(=O)c1ccc(N2C=C(C)CC2)cc1 (protonated)
CC[N-]S(=O)(=O)c1ccc(N2C=C(C)CC2)cc1 (3D coordinates assigned)
CC[N-]S(=O)(=O)c1ccc(N2C=C(C)CC2)cc1 (nonaromatic ring conformer: 40.0860958128133 kcal/mol)

>  <smiles>  (34) 
CCNS(=O)(=O)c1ccc(N2C=C(C)CC2)cc1

>  <score_type>  (34) 
oracle

>  <origin>  (34) 
adg

>  <m_score__min__energy>  (34) 
-8.6199999999999992

>  <m_primary>  (34) 
energy

$$$$
34:0
     RDKit          3D

 48 50  0  0  0  0  0  0  0  0999 V2000
   57.1270   21.4730   46.2550 C   0  0  0  0  0  0  0  0  0  0  0  0
   57.4100   22.5900   47.0910 O   0  0  0  0  0  0  0  0  0  0  0  0
   57.5210   23.9120   46.6350 C   0  0  0  0  0  0  0  0  0  0  0  0
   58.6770   24.3950   45.9930 C   0  0  0  0  0  0  0  0  0  0  0  0
   58.7380   25.7230   45.5580 C   0  0  0  0  0  0  0  0  0  0  0  0
   57.6560   26.5900   45.7670 C   0  0  0  0  0  0  0  0  0  0  0  0
   57.7240   27.9480   45.3000 N   0  0  0  0  0  0  0  0  0  0  0  0
   57.0040   28.4100   44.2880 N   0  0  0  0  0  0  0  0  0  0  0  0
   57.2880   29.7130   44.1100 C   0  0  0  0  0  0  0  0  0  0  0  0
   56.6750   30.5650   43.0430 C   0  0  0  0  0  0  0  0  0  0  0  0
   58.2420   30.0980   45.0400 C   0  0  0  0  0  0  0  0  0  0  0  0
   58.8970   31.4450   45.1870 C   0  0  0  0  0  0  0  0  0  0  0  0
   58.4400   32.1260   46.4170 N   0  0  0  0  0  0  0  0  0  0  0  0
   59.4850   32.0940   47.4740 C   0  0  0  0  0  0  0  0  0  0  0  0
   59.2330   33.1500   48.5540 C   0  0  0  0  0  0  0  0  0  0  0  0
   59.2880   34.5680   47.9600 C   0  0  0  0  0  0  0  0  0  0  0  0
   58.9120   34.6010   46.4690 C   0  0  0  0  0  0  0  0  0  0  0  0
   57.9120   33.4860   46.1270 C   0  0  0  0  0  0  0  0  0  0  0  0
   58.5070   28.9480   45.7730 C   0  0  0  0  0  0  0  0  0  0  0  0
   59.4920   28.8270   46.8990 C   0  0  0  0  0  0  0  0  0  0  0  0
   56.4990   26.1020   46.3940 C   0  0  0  0  0  0  0  0  0  0  0  0
   56.4360   24.7750   46.8290 C   0  0  0  0  0  0  0  0  0  0  0  0
   56.9045   20.5949   46.8791 H   0  0  0  0  0  0  0  0  0  0  0  0
   56.2583   21.7011   45.6200 H   0  0  0  0  0  0  0  0  0  0  0  0
   57.9995   21.2599   45.6200 H   0  0  0  0  0  0  0  0  0  0  0  0
   59.5352   23.7258   45.8329 H   0  0  0  0  0  0  0  0  0  0  0  0
   59.6412   26.0898   45.0483 H   0  0  0  0  0  0  0  0  0  0  0  0
   56.3190   27.8460   43.7360 H   0  0  0  0  0  0  0  0  0  0  0  0
   56.0930   31.3739   43.5089 H   0  0  0  0  0  0  0  0  0  0  0  0
   57.4698   30.9982   42.4180 H   0  0  0  0  0  0  0  0  0  0  0  0
   56.0117   29.9491   42.4180 H   0  0  0  0  0  0  0  0  0  0  0  0
   59.9878   31.3111   45.2343 H   0  0  0  0  0  0  0  0  0  0  0  0
   58.6214   32.0646   44.3209 H   0  0  0  0  0  0  0  0  0  0  0  0
   59.4873   31.0988   47.9426 H   0  0  0  0  0  0  0  0  0  0  0  0
   60.4550   32.3110   47.0029 H   0  0  0  0  0  0  0  0  0  0  0  0
   58.2396   32.9831   48.9958 H   0  0  0  0  0  0  0  0  0  0  0  0
   60.0155   33.0605   49.3219 H   0  0  0  0  0  0  0  0  0  0  0  0
   58.5868   35.2093   48.5142 H   0  0  0  0  0  0  0  0  0  0  0  0
   60.3241   34.9263   48.0498 H   0  0  0  0  0  0  0  0  0  0  0  0
   58.4583   35.5752   46.2342 H   0  0  0  0  0  0  0  0  0  0  0  0
   59.8246   34.4468   45.8746 H   0  0  0  0  0  0  0  0  0  0  0  0
   56.9976   33.6410   46.7185 H   0  0  0  0  0  0  0  0  0  0  0  0
   57.7144   33.5399   45.0462 H   0  0  0  0  0  0  0  0  0  0  0  0
   58.9604   28.8923   47.8598 H   0  0  0  0  0  0  0  0  0  0  0  0
   60.0092   27.8586   46.8312 H   0  0  0  0  0  0  0  0  0  0  0  0
   60.2283   29.6415   46.8312 H   0  0  0  0  0  0  0  0  0  0  0  0
   55.6364   26.7679   46.5440 H   0  0  0  0  0  0  0  0  0  0  0  0
   55.5273   24.4063   47.3273 H   0  0  0  0  0  0  0  0  0  0  0  0
  1  2  1  0
  2  3  1  0
  3  4  2  0
  4  5  1  0
  5  6  2  0
  6  7  1  0
  7  8  1  0
  8  9  2  0
  9 10  1  0
  9 11  1  0
 11 12  1  0
 12 13  1  0
 13 14  1  0
 14 15  1  0
 15 16  1  0
 16 17  1  0
 17 18  1  0
 11 19  2  0
 19 20  1  0
  6 21  1  0
 21 22  2  0
 22  3  1  0
 19  7  1  0
 18 13  1  0
  1 23  1  0
  1 24  1  0
  1 25  1  0
  4 26  1  0
  5 27  1  0
  8 28  1  0
 10 29  1  0
 10 30  1  0
 10 31  1  0
 12 32  1  0
 12 33  1  0
 14 34  1  0
 14 35  1  0
 15 36  1  0
 15 37  1  0
 16 38  1  0
 16 39  1  0
 17 40  1  0
 17 41  1  0
 18 42  1  0
 18 43  1  0
 20 44  1  0
 20 45  1  0
 20 46  1  0
 21 47  1  0
 22 48  1  0
M  CHG  1   8   1
M  END
>  <UniqueID>  (35) 
33

>  <SMILES>  (35) 
COc1ccc(-n2[nH+]c(C)c(CN3CCCCC3)c2C)cc1

>  <Energy>  (35) 
88.72104032697048

>  <Genealogy>  (35) 
COc1ccc(-n2[nH+]c(C)c(CN3CCCCC3)c2C)cc1 (protonated)
COc1ccc(-n2[nH+]c(C)c(CN3CCCCC3)c2C)cc1 (3D coordinates assigned)
COc1ccc(-n2[nH+]c(C)c(CN3CCCCC3)c2C)cc1 (nonaromatic ring conformer: 88.72104032697048 kcal/mol)

>  <smiles>  (35) 
COc1ccc(-n2nc(C)c(CN3CCCCC3)c2C)cc1

>  <score_type>  (35) 
oracle

>  <origin>  (35) 
adg

>  <m_score__min__energy>  (35) 
-5.8499999999999996

>  <m_primary>  (35) 
energy

$$$$
35:0
     RDKit          3D

 63 65  0  0  0  0  0  0  0  0999 V2000
   61.1803   34.6153   48.9777 H   0  0  0  0  0  0  0  0  0  0  0  0
   60.1300   34.2890   48.9570 C   0  0  0  0  0  0  0  0  0  0  0  0
   59.7050   33.2830   49.9630 C   0  0  0  0  0  0  0  0  0  0  0  0
   59.1760   32.2080   49.5660 O   0  0  0  0  0  0  0  0  0  0  0  0
   59.9180   33.4860   51.3830 N   0  0  0  0  0  0  0  0  0  0  0  0
   61.2590   33.2700   51.9520 C   0  0  0  0  0  0  0  0  0  0  0  0
   61.3433   33.8243   52.8984 H   0  0  0  0  0  0  0  0  0  0  0  0
   62.0103   33.6272   51.2322 H   0  0  0  0  0  0  0  0  0  0  0  0
   61.4980   31.7990   52.2150 C   0  0  0  0  0  0  0  0  0  0  0  0
   61.6030   31.4230   53.3730 O   0  0  0  0  0  0  0  0  0  0  0  0
   61.5230   30.8160   51.1430 N   0  0  2  0  0  0  0  0  0  0  0  0
   60.8270   31.1140   50.4180 H   0  0  0  0  0  0  0  0  0  0  0  0
   61.1000   29.4930   51.6370 C   0  0  0  0  0  0  0  0  0  0  0  0
   61.1006   29.4950   52.7370 H   0  0  0  0  0  0  0  0  0  0  0  0
   60.0864   29.2720   51.2713 H   0  0  0  0  0  0  0  0  0  0  0  0
   61.7974   28.7249   51.2713 H   0  0  0  0  0  0  0  0  0  0  0  0
   62.8660   30.7810   50.5180 C   0  0  0  0  0  0  0  0  0  0  0  0
   63.0963   29.7450   50.2288 H   0  0  0  0  0  0  0  0  0  0  0  0
   63.5924   31.1599   51.2520 H   0  0  0  0  0  0  0  0  0  0  0  0
   62.9420   31.6610   49.2870 C   0  0  0  0  0  0  0  0  0  0  0  0
   63.9550   32.6320   49.2030 C   0  0  0  0  0  0  0  0  0  0  0  0
   64.6782   32.7397   50.0248 H   0  0  0  0  0  0  0  0  0  0  0  0
   64.0490   33.4600   48.0840 C   0  0  0  0  0  0  0  0  0  0  0  0
   64.8467   34.2152   48.0254 H   0  0  0  0  0  0  0  0  0  0  0  0
   63.1330   33.3320   47.0390 C   0  0  0  0  0  0  0  0  0  0  0  0
   63.2148   33.9805   46.1543 H   0  0  0  0  0  0  0  0  0  0  0  0
   62.1130   32.3820   47.1150 C   0  0  0  0  0  0  0  0  0  0  0  0
   61.3901   32.2906   46.2910 H   0  0  0  0  0  0  0  0  0  0  0  0
   62.0020   31.5390   48.2390 C   0  0  0  0  0  0  0  0  0  0  0  0
   60.9810   30.5800   48.3430 O   0  0  0  0  0  0  0  0  0  0  0  0
   60.1080   30.2060   47.2810 C   0  0  0  0  0  0  0  0  0  0  0  0
   59.1727   29.8053   47.6990 H   0  0  0  0  0  0  0  0  0  0  0  0
   59.8849   31.0875   46.6620 H   0  0  0  0  0  0  0  0  0  0  0  0
   60.5923   29.4364   46.6620 H   0  0  0  0  0  0  0  0  0  0  0  0
   58.8170   33.8570   52.2880 C   0  0  0  0  0  0  0  0  0  0  0  0
   59.2369   34.2737   53.2154 H   0  0  0  0  0  0  0  0  0  0  0  0
   58.1836   34.6033   51.7862 H   0  0  0  0  0  0  0  0  0  0  0  0
   57.9760   32.6570   52.6230 C   0  0  0  0  0  0  0  0  0  0  0  0
   57.0470   32.2120   51.7310 N   0  0  0  0  0  0  0  0  0  0  0  0
   56.2610   31.1320   51.9880 C   0  0  0  0  0  0  0  0  0  0  0  0
   55.5204   30.8016   51.2447 H   0  0  0  0  0  0  0  0  0  0  0  0
   56.3940   30.4420   53.1960 C   0  0  0  0  0  0  0  0  0  0  0  0
   55.7585   29.5704   53.4114 H   0  0  0  0  0  0  0  0  0  0  0  0
   57.3420   30.8710   54.1260 C   0  0  0  0  0  0  0  0  0  0  0  0
   57.4608   30.3349   55.0791 H   0  0  0  0  0  0  0  0  0  0  0  0
   58.1400   31.9830   53.8440 C   0  0  0  0  0  0  0  0  0  0  0  0
   58.8897   32.3272   54.5717 H   0  0  0  0  0  0  0  0  0  0  0  0
   59.3310   34.8310   48.0240 C   0  0  0  0  0  0  0  0  0  0  0  0
   58.9679   35.8539   48.2027 H   0  0  0  0  0  0  0  0  0  0  0  0
   58.8990   34.1660   46.7760 C   0  0  0  0  0  0  0  0  0  0  0  0
   58.0150   33.0790   46.8470 C   0  0  0  0  0  0  0  0  0  0  0  0
   57.6212   32.7571   47.8224 H   0  0  0  0  0  0  0  0  0  0  0  0
   57.6320   32.4030   45.6860 C   0  0  0  0  0  0  0  0  0  0  0  0
   56.9346   31.5548   45.7513 H   0  0  0  0  0  0  0  0  0  0  0  0
   58.1330   32.8010   44.4360 C   0  0  0  0  0  0  0  0  0  0  0  0
   57.7570   32.0520   43.1930 C   0  0  0  0  0  0  0  0  0  0  0  0
   57.2793   31.1003   43.4688 H   0  0  0  0  0  0  0  0  0  0  0  0
   57.0552   32.6560   42.5991 H   0  0  0  0  0  0  0  0  0  0  0  0
   58.6606   31.8501   42.5991 H   0  0  0  0  0  0  0  0  0  0  0  0
   59.0510   33.8600   44.3690 C   0  0  0  0  0  0  0  0  0  0  0  0
   59.4700   34.1599   43.3971 H   0  0  0  0  0  0  0  0  0  0  0  0
   59.4360   34.5360   45.5300 C   0  0  0  0  0  0  0  0  0  0  0  0
   60.1617   35.3604   45.4690 H   0  0  0  0  0  0  0  0  0  0  0  0
  1  2  1  0
  2  3  1  0
  3  4  2  0
  3  5  1  0
  5  6  1  0
  6  7  1  0
  6  8  1  0
  6  9  1  0
  9 10  2  0
  9 11  1  0
 11 12  1  6
 11 13  1  0
 13 14  1  0
 13 15  1  0
 13 16  1  0
 11 17  1  0
 17 18  1  0
 17 19  1  0
 17 20  1  0
 20 21  2  0
 21 22  1  0
 21 23  1  0
 23 24  1  0
 23 25  2  0
 25 26  1  0
 25 27  1  0
 27 28  1  0
 27 29  2  0
 29 30  1  0
 30 31  1  0
 31 32  1  0
 31 33  1  0
 31 34  1  0
  5 35  1  0
 35 36  1  0
 35 37  1  0
 35 38  1  0
 38 39  2  0
 39 40  1  0
 40 41  1  0
 40 42  2  0
 42 43  1  0
 42 44  1  0
 44 45  1  0
 44 46  2  0
 46 47  1  0
  2 48  2  0
 48 49  1  0
 48 50  1  0
 50 51  2  0
 51 52  1  0
 51 53  1  0
 53 54  1  0
 53 55  2  0
 55 56  1  0
 56 57  1  0
 56 58  1  0
 56 59  1  0
 55 60  1  0
 60 61  1  0
 60 62  2  0
 62 63  1  0
 29 20  1  0
 46 38  1  0
 62 50  1  0
M  CHG  1  11   1
M  END
>  <UniqueID>  (36) 
34

>  <SMILES>  (36) 
COc1ccccc1C[N@@H+](C)C(=O)CN(Cc1ccccn1)C(=O)/C=C\c1ccc(C)cc1

>  <Energy>  (36) 
72.87810286247465

>  <Genealogy>  (36) 
COc1ccccc1C[NH+](C)C(=O)CN(Cc1ccccn1)C(=O)C=Cc1ccc(C)cc1 (protonated)
COc1ccccc1C[N@@H+](C)C(=O)CN(Cc1ccccn1)C(=O)C=Cc1ccc(C)cc1 (chirality)
COc1ccccc1C[N@@H+](C)C(=O)CN(Cc1ccccn1)C(=O)/C=C\c1ccc(C)cc1 (cis-trans isomerization)
COc1ccccc1C[N@@H+](C)C(=O)CN(Cc1ccccn1)C(=O)/C=C\c1ccc(C)cc1 (3D coordinates assigned)
COc1ccccc1C[N@@H+](C)C(=O)CN(Cc1ccccn1)C(=O)/C=C\c1ccc(C)cc1 (optimized conformer: 72.87810286247465 kcal/mol)

>  <smiles>  (36) 
COc1ccccc1CN(C)C(=O)CN(Cc1ccccn1)C(=O)C=Cc1ccc(C)cc1

>  <score_type>  (36) 
oracle

>  <origin>  (36) 
adg

>  <m_score__min__energy>  (36) 
-7.4400000000000004

>  <m_primary>  (36) 
energy

$$$$
36:0
     RDKit          3D

 31 32  0  0  0  0  0  0  0  0999 V2000
   59.6490   35.3420   46.3440 C   0  0  0  0  0  0  0  0  0  0  0  0
   59.2390   34.7730   45.1050 O   0  0  0  0  0  0  0  0  0  0  0  0
   58.6570   33.5030   44.9710 C   0  0  0  0  0  0  0  0  0  0  0  0
   58.1130   33.0450   43.7540 C   0  0  0  0  0  0  0  0  0  0  0  0
   57.5430   31.7720   43.6740 C   0  0  0  0  0  0  0  0  0  0  0  0
   57.5080   30.9400   44.8020 C   0  0  0  0  0  0  0  0  0  0  0  0
   56.7690   29.3440   44.7110 S   0  0  0  0  0  0  0  0  0  0  0  0
   55.2850   29.5050   44.5290 O   0  0  0  0  0  0  0  0  0  0  0  0
   57.0080   28.5990   45.9960 O   0  0  0  0  0  0  0  0  0  0  0  0
   57.4080   28.4290   43.3730 N   0  0  0  0  0  0  0  0  0  0  0  0
   58.6300   27.7020   43.7630 C   0  0  1  0  0  0  0  0  0  0  0  0
   59.5280   28.5240   44.7150 C   0  0  0  0  0  0  0  0  0  0  0  0
   59.9360   27.5700   45.8500 C   0  0  0  0  0  0  0  0  0  0  0  0
   59.0340   26.4840   45.7740 O   0  0  0  0  0  0  0  0  0  0  0  0
   58.3020   26.5290   44.6090 C   0  0  0  0  0  0  0  0  0  0  0  0
   57.4650   25.6380   44.3040 O   0  0  0  0  0  0  0  0  0  0  0  0
   58.0460   31.3950   46.0120 C   0  0  0  0  0  0  0  0  0  0  0  0
   58.6170   32.6690   46.0930 C   0  0  0  0  0  0  0  0  0  0  0  0
   59.2270   34.7563   47.1740 H   0  0  0  0  0  0  0  0  0  0  0  0
   60.7471   35.3296   46.4077 H   0  0  0  0  0  0  0  0  0  0  0  0
   59.2897   36.3797   46.4077 H   0  0  0  0  0  0  0  0  0  0  0  0
   58.1373   33.6918   42.8646 H   0  0  0  0  0  0  0  0  0  0  0  0
   57.1196   31.4207   42.7214 H   0  0  0  0  0  0  0  0  0  0  0  0
   56.6530   27.7470   43.1330 H   0  0  0  0  0  0  0  0  0  0  0  0
   59.1164   27.4593   42.8067 H   0  0  0  0  0  0  0  0  0  0  0  0
   60.4195   28.8851   44.1813 H   0  0  0  0  0  0  0  0  0  0  0  0
   58.9983   29.4062   45.1037 H   0  0  0  0  0  0  0  0  0  0  0  0
   60.9696   27.2219   45.7066 H   0  0  0  0  0  0  0  0  0  0  0  0
   59.8974   28.0643   46.8319 H   0  0  0  0  0  0  0  0  0  0  0  0
   58.0194   30.7484   46.9015 H   0  0  0  0  0  0  0  0  0  0  0  0
   59.0383   33.0181   47.0473 H   0  0  0  0  0  0  0  0  0  0  0  0
  1  2  1  0
  2  3  1  0
  3  4  2  0
  4  5  1  0
  5  6  2  0
  6  7  1  0
  7  8  2  0
  7  9  2  0
  7 10  1  0
 10 11  1  0
 11 12  1  0
 12 13  1  0
 13 14  1  0
 14 15  1  0
 15 16  2  0
  6 17  1  0
 17 18  2  0
 18  3  1  0
 15 11  1  0
  1 19  1  0
  1 20  1  0
  1 21  1  0
  4 22  1  0
  5 23  1  0
 10 24  1  0
 11 25  1  6
 12 26  1  0
 12 27  1  0
 13 28  1  0
 13 29  1  0
 17 30  1  0
 18 31  1  0
M  END
>  <UniqueID>  (37) 
35

>  <SMILES>  (37) 
COc1ccc(S(=O)(=O)N[C@H]2CCOC2=O)cc1

>  <Energy>  (37) 
38.51478849018387

>  <Genealogy>  (37) 
COc1ccc(S(=O)(=O)N[C@H]2CCOC2=O)cc1 (chirality)
COc1ccc(S(=O)(=O)N[C@H]2CCOC2=O)cc1 (3D coordinates assigned)
COc1ccc(S(=O)(=O)N[C@H]2CCOC2=O)cc1 (nonaromatic ring conformer: 38.51478849018387 kcal/mol)

>  <smiles>  (37) 
COc1ccc(S(=O)(=O)NC2CCOC2=O)cc1

>  <score_type>  (37) 
oracle

>  <origin>  (37) 
adg

>  <m_score__min__energy>  (37) 
-6.7599999999999998

>  <m_primary>  (37) 
energy

$$$$
37:0
     RDKit          3D

 45 47  0  0  0  0  0  0  0  0999 V2000
   59.5880   26.6750   46.7160 C   0  0  0  0  0  0  0  0  0  0  0  0
   58.1140   26.6910   47.1130 C   0  0  0  0  0  0  0  0  0  0  0  0
   57.1850   26.2350   45.9800 C   0  0  0  0  0  0  0  0  0  0  0  0
   56.2080   27.2730   45.6450 N   0  0  0  0  0  0  0  0  0  0  0  0
   56.4950   28.4480   45.1650 C   0  0  0  0  0  0  0  0  0  0  0  0
   57.7960   28.7940   44.9900 N   0  0  0  0  0  0  0  0  0  0  0  0
   58.1380   30.0200   44.5160 C   0  0  0  0  0  0  0  0  0  0  0  0
   57.1450   30.9610   44.2120 C   0  0  0  0  0  0  0  0  0  0  0  0
   57.5070   32.3470   43.7160 C   0  0  0  0  0  0  0  0  0  0  0  0
   57.8910   33.2840   44.7960 N   0  0  0  0  0  0  0  0  0  0  0  0
   57.7930   32.7240   46.1650 C   0  0  0  0  0  0  0  0  0  0  0  0
   59.1650   32.4130   46.7820 C   0  0  0  0  0  0  0  0  0  0  0  0
   60.0420   33.5900   46.7230 N   0  0  0  0  0  0  0  0  0  0  0  0
   61.1820   33.6850   47.5990 C   0  0  0  0  0  0  0  0  0  0  0  0
   61.0220   34.0950   48.8900 N   0  0  0  0  0  0  0  0  0  0  0  0
   62.0810   34.1900   49.7340 C   0  0  0  0  0  0  0  0  0  0  0  0
   63.3600   33.8680   49.2830 C   0  0  0  0  0  0  0  0  0  0  0  0
   63.5130   33.4530   47.9620 C   0  0  0  0  0  0  0  0  0  0  0  0
   62.4280   33.3690   47.1490 N   0  0  0  0  0  0  0  0  0  0  0  0
   59.7370   34.6640   45.7680 C   0  0  0  0  0  0  0  0  0  0  0  0
   59.1170   34.0630   44.5030 C   0  0  0  0  0  0  0  0  0  0  0  0
   55.8090   30.5660   44.3570 C   0  0  0  0  0  0  0  0  0  0  0  0
   55.5130   29.3300   44.8360 N   0  0  0  0  0  0  0  0  0  0  0  0
   60.2117   26.6682   47.6221 H   0  0  0  0  0  0  0  0  0  0  0  0
   59.7974   25.7745   46.1199 H   0  0  0  0  0  0  0  0  0  0  0  0
   59.8169   27.5707   46.1199 H   0  0  0  0  0  0  0  0  0  0  0  0
   57.9748   26.0191   47.9728 H   0  0  0  0  0  0  0  0  0  0  0  0
   57.8497   27.7302   47.3583 H   0  0  0  0  0  0  0  0  0  0  0  0
   57.7896   26.0105   45.0889 H   0  0  0  0  0  0  0  0  0  0  0  0
   56.6406   25.3400   46.3154 H   0  0  0  0  0  0  0  0  0  0  0  0
   59.1980   30.2752   44.3702 H   0  0  0  0  0  0  0  0  0  0  0  0
   58.3524   32.2563   43.0180 H   0  0  0  0  0  0  0  0  0  0  0  0
   56.6085   32.7613   43.2353 H   0  0  0  0  0  0  0  0  0  0  0  0
   57.2765   33.4531   46.8066 H   0  0  0  0  0  0  0  0  0  0  0  0
   57.2392   31.7761   46.0956 H   0  0  0  0  0  0  0  0  0  0  0  0
   59.0292   32.1167   47.8326 H   0  0  0  0  0  0  0  0  0  0  0  0
   59.6315   31.5965   46.2113 H   0  0  0  0  0  0  0  0  0  0  0  0
   61.9300   34.5206   50.7722 H   0  0  0  0  0  0  0  0  0  0  0  0
   64.2283   33.9399   49.9545 H   0  0  0  0  0  0  0  0  0  0  0  0
   64.5107   33.1938   47.5779 H   0  0  0  0  0  0  0  0  0  0  0  0
   59.0272   35.3696   46.2244 H   0  0  0  0  0  0  0  0  0  0  0  0
   60.6641   35.1944   45.5050 H   0  0  0  0  0  0  0  0  0  0  0  0
   58.8611   34.8794   43.8117 H   0  0  0  0  0  0  0  0  0  0  0  0
   59.8540   33.3780   44.0585 H   0  0  0  0  0  0  0  0  0  0  0  0
   54.9987   31.2575   44.0827 H   0  0  0  0  0  0  0  0  0  0  0  0
  1  2  1  0
  2  3  1  0
  3  4  1  0
  4  5  2  3
  5  6  1  0
  6  7  2  0
  7  8  1  0
  8  9  1  0
  9 10  1  0
 10 11  1  0
 11 12  1  0
 12 13  1  0
 13 14  1  0
 14 15  2  0
 15 16  1  0
 16 17  2  0
 17 18  1  0
 18 19  2  0
 13 20  1  0
 20 21  1  0
  8 22  2  0
 22 23  1  0
 23  5  1  0
 21 10  1  0
 19 14  1  0
  1 24  1  0
  1 25  1  0
  1 26  1  0
  2 27  1  0
  2 28  1  0
  3 29  1  0
  3 30  1  0
  7 31  1  0
  9 32  1  0
  9 33  1  0
 11 34  1  0
 11 35  1  0
 12 36  1  0
 12 37  1  0
 16 38  1  0
 17 39  1  0
 18 40  1  0
 20 41  1  0
 20 42  1  0
 21 43  1  0
 21 44  1  0
 22 45  1  0
M  CHG  1  23  -1
M  END
>  <UniqueID>  (38) 
36

>  <SMILES>  (38) 
CCCN=c1ncc(CN2CCN(c3ncccn3)CC2)c[n-]1

>  <Energy>  (38) 
54.241838721460454

>  <Genealogy>  (38) 
CCCN=c1ncc(CN2CCN(c3ncccn3)CC2)c[n-]1 (protonated)
CCCN=c1ncc(CN2CCN(c3ncccn3)CC2)c[n-]1 (3D coordinates assigned)
CCCN=c1ncc(CN2CCN(c3ncccn3)CC2)c[n-]1 (nonaromatic ring conformer: 54.241838721460454 kcal/mol)

>  <smiles>  (38) 
CCCN=c1ncc(CN2CCN(c3ncccn3)CC2)c[nH]1

>  <score_type>  (38) 
oracle

>  <origin>  (38) 
adg

>  <m_score__min__energy>  (38) 
-8.8399999999999999

>  <m_primary>  (38) 
energy

$$$$
38:0
     RDKit          3D

 69 68  0  0  0  0  0  0  0  0999 V2000
   60.2800   28.6940   45.1580 C   0  0  0  0  0  0  0  0  0  0  0  0
   59.9750   30.0750   45.7380 C   0  0  0  0  0  0  0  0  0  0  0  0
   59.1520   30.0120   47.0370 C   0  0  0  0  0  0  0  0  0  0  0  0
   58.9180   31.3730   47.7230 C   0  0  0  0  0  0  0  0  0  0  0  0
   59.8340   32.5160   47.2430 C   0  0  0  0  0  0  0  0  0  0  0  0
   59.2300   33.9290   47.3620 C   0  0  0  0  0  0  0  0  0  0  0  0
   59.6140   34.8960   46.2270 C   0  0  0  0  0  0  0  0  0  0  0  0
   58.9430   34.5410   44.8870 C   0  0  0  0  0  0  0  0  0  0  0  0
   57.4860   34.0840   45.0640 C   0  0  0  0  0  0  0  0  0  0  0  0
   57.3130   32.5690   44.8760 C   0  0  0  0  0  0  0  0  0  0  0  0
   58.0190   32.0890   43.6010 C   0  0  0  0  0  0  0  0  0  0  0  0
   57.1520   31.0760   42.8320 C   0  0  0  0  0  0  0  0  0  0  0  0
   56.2370   30.2600   43.7670 C   0  0  0  0  0  0  0  0  0  0  0  0
   56.9060   29.0130   44.3500 C   0  0  0  0  0  0  0  0  0  0  0  0
   56.0350   28.3500   45.2600 O   0  0  0  0  0  0  0  0  0  0  0  0
   56.2540   27.0600   45.7600 C   0  0  0  0  0  0  0  0  0  0  0  0
   55.2540   26.3310   46.0050 O   0  0  0  0  0  0  0  0  0  0  0  0
   57.6330   26.5080   45.9860 C   0  0  0  0  0  0  0  0  0  0  0  0
   57.5620   25.0560   46.2080 N   0  0  0  0  0  0  0  0  0  0  0  0
   58.4640   24.3090   45.3170 C   0  0  0  0  0  0  0  0  0  0  0  0
   57.7130   23.6400   44.1480 C   0  0  0  0  0  0  0  0  0  0  0  0
   56.4210   24.2990   43.8730 N   0  0  0  0  0  0  0  0  0  0  0  0
   55.2880   23.3590   43.9100 C   0  0  0  0  0  0  0  0  0  0  0  0
   54.5620   23.4600   45.2550 C   0  0  0  0  0  0  0  0  0  0  0  0
   53.1780   24.0830   45.0930 C   0  0  0  0  0  0  0  0  0  0  0  0
   60.4380   27.9785   45.9784 H   0  0  0  0  0  0  0  0  0  0  0  0
   59.4337   28.3612   44.5391 H   0  0  0  0  0  0  0  0  0  0  0  0
   61.1877   28.7485   44.5391 H   0  0  0  0  0  0  0  0  0  0  0  0
   60.9266   30.5843   45.9501 H   0  0  0  0  0  0  0  0  0  0  0  0
   59.3753   30.6198   44.9940 H   0  0  0  0  0  0  0  0  0  0  0  0
   58.1706   29.5759   46.7991 H   0  0  0  0  0  0  0  0  0  0  0  0
   59.7373   29.4062   47.7444 H   0  0  0  0  0  0  0  0  0  0  0  0
   57.8756   31.6721   47.5388 H   0  0  0  0  0  0  0  0  0  0  0  0
   59.1504   31.2222   48.7876 H   0  0  0  0  0  0  0  0  0  0  0  0
   60.7567   32.4879   47.8413 H   0  0  0  0  0  0  0  0  0  0  0  0
   60.0036   32.3437   46.1699 H   0  0  0  0  0  0  0  0  0  0  0  0
   58.1343   33.8324   47.3725 H   0  0  0  0  0  0  0  0  0  0  0  0
   59.6380   34.3619   48.2873 H   0  0  0  0  0  0  0  0  0  0  0  0
   59.3092   35.9132   46.5139 H   0  0  0  0  0  0  0  0  0  0  0  0
   60.7019   34.8211   46.0824 H   0  0  0  0  0  0  0  0  0  0  0  0
   58.9583   35.4291   44.2381 H   0  0  0  0  0  0  0  0  0  0  0  0
   59.5044   33.7065   44.4416 H   0  0  0  0  0  0  0  0  0  0  0  0
   57.1534   34.3531   46.0774 H   0  0  0  0  0  0  0  0  0  0  0  0
   56.8842   34.5856   44.2918 H   0  0  0  0  0  0  0  0  0  0  0  0
   57.7434   32.0474   45.7436 H   0  0  0  0  0  0  0  0  0  0  0  0
   56.2393   32.3473   44.7867 H   0  0  0  0  0  0  0  0  0  0  0  0
   58.2180   32.9555   42.9533 H   0  0  0  0  0  0  0  0  0  0  0  0
   58.9591   31.5953   43.8884 H   0  0  0  0  0  0  0  0  0  0  0  0
   56.5251   31.6220   42.1117 H   0  0  0  0  0  0  0  0  0  0  0  0
   57.8277   30.3721   42.3241 H   0  0  0  0  0  0  0  0  0  0  0  0
   55.9251   30.9078   44.5995 H   0  0  0  0  0  0  0  0  0  0  0  0
   55.3860   29.9144   43.1617 H   0  0  0  0  0  0  0  0  0  0  0  0
   57.1628   28.3253   43.5308 H   0  0  0  0  0  0  0  0  0  0  0  0
   57.8132   29.3202   44.8910 H   0  0  0  0  0  0  0  0  0  0  0  0
   58.2564   26.7117   45.1029 H   0  0  0  0  0  0  0  0  0  0  0  0
   58.0740   26.9882   46.8720 H   0  0  0  0  0  0  0  0  0  0  0  0
   56.5740   24.7350   46.0500 H   0  0  0  0  0  0  0  0  0  0  0  0
   59.2103   25.0046   44.9057 H   0  0  0  0  0  0  0  0  0  0  0  0
   58.9388   23.5135   45.9101 H   0  0  0  0  0  0  0  0  0  0  0  0
   58.3393   23.6951   43.2454 H   0  0  0  0  0  0  0  0  0  0  0  0
   57.5097   22.5957   44.4273 H   0  0  0  0  0  0  0  0  0  0  0  0
   56.2580   25.0640   44.5670 H   0  0  0  0  0  0  0  0  0  0  0  0
   54.5863   23.6033   43.0989 H   0  0  0  0  0  0  0  0  0  0  0  0
   55.6669   22.3343   43.7822 H   0  0  0  0  0  0  0  0  0  0  0  0
   54.4533   22.4513   45.6801 H   0  0  0  0  0  0  0  0  0  0  0  0
   55.1556   24.1019   45.9225 H   0  0  0  0  0  0  0  0  0  0  0  0
   52.7452   24.2778   46.0853 H   0  0  0  0  0  0  0  0  0  0  0  0
   53.2644   25.0291   44.5385 H   0  0  0  0  0  0  0  0  0  0  0  0
   52.5271   23.3911   44.5385 H   0  0  0  0  0  0  0  0  0  0  0  0
  1  2  1  0
  2  3  1  0
  3  4  1  0
  4  5  1  0
  5  6  1  0
  6  7  1  0
  7  8  1  0
  8  9  1  0
  9 10  1  0
 10 11  1  0
 11 12  1  0
 12 13  1  0
 13 14  1  0
 14 15  1  0
 15 16  1  0
 16 17  2  0
 16 18  1  0
 18 19  1  0
 19 20  1  0
 20 21  1  0
 21 22  1  0
 22 23  1  0
 23 24  1  0
 24 25  1  0
  1 26  1  0
  1 27  1  0
  1 28  1  0
  2 29  1  0
  2 30  1  0
  3 31  1  0
  3 32  1  0
  4 33  1  0
  4 34  1  0
  5 35  1  0
  5 36  1  0
  6 37  1  0
  6 38  1  0
  7 39  1  0
  7 40  1  0
  8 41  1  0
  8 42  1  0
  9 43  1  0
  9 44  1  0
 10 45  1  0
 10 46  1  0
 11 47  1  0
 11 48  1  0
 12 49  1  0
 12 50  1  0
 13 51  1  0
 13 52  1  0
 14 53  1  0
 14 54  1  0
 18 55  1  0
 18 56  1  0
 19 57  1  0
 20 58  1  0
 20 59  1  0
 21 60  1  0
 21 61  1  0
 22 62  1  0
 23 63  1  0
 23 64  1  0
 24 65  1  0
 24 66  1  0
 25 67  1  0
 25 68  1  0
 25 69  1  0
M  END
>  <UniqueID>  (39) 
37

>  <SMILES>  (39) 
CCCCCCCCCCCCCCOC(=O)CNCCNCCC

>  <Energy>  (39) 
36.88486214876138

>  <Genealogy>  (39) 
CCCCCCCCCCCCCCOC(=O)CNCCNCCC (3D coordinates assigned)
CCCCCCCCCCCCCCOC(=O)CNCCNCCC (optimized conformer: 36.88486214876138 kcal/mol)

>  <smiles>  (39) 
CCCCCCCCCCCCCCOC(=O)CNCCNCCC

>  <score_type>  (39) 
oracle

>  <origin>  (39) 
adg

>  <m_score__min__energy>  (39) 
-5.9000000000000004

>  <m_primary>  (39) 
energy

$$$$
39:0
     RDKit          3D

 37 39  0  0  0  0  0  0  0  0999 V2000
   61.6420   31.5470   47.1220 C   0  0  0  0  0  0  0  0  0  0  0  0
   60.3140   32.2090   46.8740 C   0  0  0  0  0  0  0  0  0  0  0  0
   60.2740   33.5750   46.5650 C   0  0  0  0  0  0  0  0  0  0  0  0
   59.0550   34.2020   46.3140 C   0  0  0  0  0  0  0  0  0  0  0  0
   57.8780   33.4590   46.3780 C   0  0  0  0  0  0  0  0  0  0  0  0
   57.9190   32.1380   46.6960 N   0  0  0  0  0  0  0  0  0  0  0  0
   59.0950   31.4980   46.9600 C   0  0  0  0  0  0  0  0  0  0  0  0
   59.0740   30.1010   47.2960 N   0  0  0  0  0  0  0  0  0  0  0  0
   59.5030   29.5390   48.4500 C   0  0  0  0  0  0  0  0  0  0  0  0
   60.2360   30.2650   49.5340 C   0  0  0  0  0  0  0  0  0  0  0  0
   59.1980   28.2260   48.5390 N   0  0  0  0  0  0  0  0  0  0  0  0
   58.5280   27.9630   47.3990 C   0  0  0  0  0  0  0  0  0  0  0  0
   57.9570   26.6210   47.0730 C   0  0  0  0  0  0  0  0  0  0  0  0
   58.4340   29.1140   46.6340 C   0  0  0  0  0  0  0  0  0  0  0  0
   57.7260   29.2550   45.3430 C   0  0  0  0  0  0  0  0  0  0  0  0
   58.0410   28.4360   44.2460 C   0  0  0  0  0  0  0  0  0  0  0  0
   57.3490   28.6020   43.0440 C   0  0  0  0  0  0  0  0  0  0  0  0
   56.3490   29.5710   42.9450 C   0  0  0  0  0  0  0  0  0  0  0  0
   56.0520   30.3590   44.0570 C   0  0  0  0  0  0  0  0  0  0  0  0
   56.7370   30.1840   45.2180 N   0  0  0  0  0  0  0  0  0  0  0  0
   61.8127   31.4619   48.2053 H   0  0  0  0  0  0  0  0  0  0  0  0
   61.6415   30.5437   46.6710 H   0  0  0  0  0  0  0  0  0  0  0  0
   62.4429   32.1513   46.6710 H   0  0  0  0  0  0  0  0  0  0  0  0
   61.2079   34.1545   46.5204 H   0  0  0  0  0  0  0  0  0  0  0  0
   59.0223   35.2736   46.0676 H   0  0  0  0  0  0  0  0  0  0  0  0
   56.9123   33.9431   46.1705 H   0  0  0  0  0  0  0  0  0  0  0  0
   57.0220   31.6050   46.7470 H   0  0  0  0  0  0  0  0  0  0  0  0
   59.8818   29.9142   50.5146 H   0  0  0  0  0  0  0  0  0  0  0  0
   61.3145   30.0691   49.4421 H   0  0  0  0  0  0  0  0  0  0  0  0
   60.0504   31.3453   49.4421 H   0  0  0  0  0  0  0  0  0  0  0  0
   57.7283   26.0836   48.0051 H   0  0  0  0  0  0  0  0  0  0  0  0
   57.0347   26.7475   46.4870 H   0  0  0  0  0  0  0  0  0  0  0  0
   58.6876   26.0442   46.4870 H   0  0  0  0  0  0  0  0  0  0  0  0
   58.8260   27.6704   44.3328 H   0  0  0  0  0  0  0  0  0  0  0  0
   57.5916   27.9702   42.1769 H   0  0  0  0  0  0  0  0  0  0  0  0
   55.8017   29.7115   42.0012 H   0  0  0  0  0  0  0  0  0  0  0  0
   55.2628   31.1227   43.9944 H   0  0  0  0  0  0  0  0  0  0  0  0
  1  2  1  0
  2  3  2  0
  3  4  1  0
  4  5  2  0
  5  6  1  0
  6  7  2  0
  7  8  1  0
  8  9  1  0
  9 10  1  0
  9 11  2  0
 11 12  1  0
 12 13  1  0
 12 14  2  0
 14 15  1  0
 15 16  2  0
 16 17  1  0
 17 18  2  0
 18 19  1  0
 19 20  2  0
  7  2  1  0
 14  8  1  0
 20 15  1  0
  1 21  1  0
  1 22  1  0
  1 23  1  0
  3 24  1  0
  4 25  1  0
  5 26  1  0
  6 27  1  0
 10 28  1  0
 10 29  1  0
 10 30  1  0
 13 31  1  0
 13 32  1  0
 13 33  1  0
 16 34  1  0
 17 35  1  0
 18 36  1  0
 19 37  1  0
M  CHG  1   6   1
M  END
>  <UniqueID>  (40) 
38

>  <SMILES>  (40) 
Cc1ccc[nH+]c1-n1c(C)nc(C)c1-c1ccccn1

>  <Energy>  (40) 
77.51064523156771

>  <Genealogy>  (40) 
Cc1ccc[nH+]c1-n1c(C)nc(C)c1-c1ccccn1 (protonated)
Cc1ccc[nH+]c1-n1c(C)nc(C)c1-c1ccccn1 (3D coordinates assigned)
Cc1ccc[nH+]c1-n1c(C)nc(C)c1-c1ccccn1 (optimized conformer: 77.51064523156771 kcal/mol)

>  <smiles>  (40) 
Cc1cccnc1-n1c(C)nc(C)c1-c1ccccn1

>  <score_type>  (40) 
oracle

>  <origin>  (40) 
adg

>  <m_score__min__energy>  (40) 
-5.3200000000000003

>  <m_primary>  (40) 
energy

$$$$
40:0
     RDKit          3D

 39 41  0  0  0  0  0  0  0  0999 V2000
   60.2210   27.6480   45.6010 C   0  0  0  0  0  0  0  0  0  0  0  0
   59.2610   28.7740   45.3620 C   0  0  0  0  0  0  0  0  0  0  0  0
   57.9410   28.5020   44.9160 C   0  0  0  0  0  0  0  0  0  0  0  0
   57.0200   29.5470   44.7170 C   0  0  0  0  0  0  0  0  0  0  0  0
   57.4450   30.8430   44.9880 C   0  0  0  0  0  0  0  0  0  0  0  0
   56.7780   31.9660   44.8650 O   0  0  0  0  0  0  0  0  0  0  0  0
   57.6170   32.9190   45.2360 C   0  0  0  0  0  0  0  0  0  0  0  0
   57.3190   34.1420   45.2270 O   0  0  0  0  0  0  0  0  0  0  0  0
   58.8290   32.4420   45.6150 N   0  0  0  0  0  0  0  0  0  0  0  0
   60.0140   33.2060   46.0070 C   0  0  0  0  0  0  0  0  0  0  0  0
   59.9930   33.4740   47.5140 C   0  0  0  0  0  0  0  0  0  0  0  0
   61.2640   33.0410   48.1320 N   0  0  0  0  0  0  0  0  0  0  0  0
   61.7620   31.8010   47.4950 C   0  0  0  0  0  0  0  0  0  0  0  0
   63.2470   31.5760   47.8090 C   0  0  0  0  0  0  0  0  0  0  0  0
   64.0920   32.6700   47.2850 N   0  0  0  0  0  0  0  0  0  0  0  0
   63.3790   33.9530   47.1190 C   0  0  0  0  0  0  0  0  0  0  0  0
   62.2750   34.1330   48.1720 C   0  0  0  0  0  0  0  0  0  0  0  0
   58.7080   31.1130   45.4390 C   0  0  0  0  0  0  0  0  0  0  0  0
   59.6500   30.1040   45.6410 C   0  0  0  0  0  0  0  0  0  0  0  0
   60.3486   27.4984   46.6833 H   0  0  0  0  0  0  0  0  0  0  0  0
   59.8260   26.7269   45.1476 H   0  0  0  0  0  0  0  0  0  0  0  0
   61.1930   27.8923   45.1476 H   0  0  0  0  0  0  0  0  0  0  0  0
   57.6349   27.4631   44.7239 H   0  0  0  0  0  0  0  0  0  0  0  0
   55.9994   29.3458   44.3595 H   0  0  0  0  0  0  0  0  0  0  0  0
   60.9173   32.6324   45.7521 H   0  0  0  0  0  0  0  0  0  0  0  0
   60.0165   34.1664   45.4708 H   0  0  0  0  0  0  0  0  0  0  0  0
   59.8534   34.5510   47.6887 H   0  0  0  0  0  0  0  0  0  0  0  0
   59.1653   32.9075   47.9657 H   0  0  0  0  0  0  0  0  0  0  0  0
   61.1817   30.9457   47.8715 H   0  0  0  0  0  0  0  0  0  0  0  0
   61.6462   31.8974   46.4054 H   0  0  0  0  0  0  0  0  0  0  0  0
   63.3753   31.5186   48.9000 H   0  0  0  0  0  0  0  0  0  0  0  0
   63.5606   30.6400   47.3236 H   0  0  0  0  0  0  0  0  0  0  0  0
   64.4830   32.3860   46.3560 H   0  0  0  0  0  0  0  0  0  0  0  0
   64.8990   32.8110   47.9370 H   0  0  0  0  0  0  0  0  0  0  0  0
   64.1014   34.7769   47.2162 H   0  0  0  0  0  0  0  0  0  0  0  0
   62.9072   33.9557   46.1253 H   0  0  0  0  0  0  0  0  0  0  0  0
   62.7383   34.1481   49.1695 H   0  0  0  0  0  0  0  0  0  0  0  0
   61.7552   35.0773   47.9525 H   0  0  0  0  0  0  0  0  0  0  0  0
   60.6618   30.3357   46.0052 H   0  0  0  0  0  0  0  0  0  0  0  0
  1  2  1  0
  2  3  2  0
  3  4  1  0
  4  5  2  0
  5  6  1  0
  6  7  1  0
  7  8  2  0
  7  9  1  0
  9 10  1  0
 10 11  1  0
 11 12  1  0
 12 13  1  0
 13 14  1  0
 14 15  1  0
 15 16  1  0
 16 17  1  0
  9 18  1  0
 18 19  2  0
 19  2  1  0
 18  5  1  0
 17 12  1  0
  1 20  1  0
  1 21  1  0
  1 22  1  0
  3 23  1  0
  4 24  1  0
 10 25  1  0
 10 26  1  0
 11 27  1  0
 11 28  1  0
 13 29  1  0
 13 30  1  0
 14 31  1  0
 14 32  1  0
 15 33  1  0
 15 34  1  0
 16 35  1  0
 16 36  1  0
 17 37  1  0
 17 38  1  0
 19 39  1  0
M  CHG  1  15   1
M  END
>  <UniqueID>  (41) 
39

>  <SMILES>  (41) 
Cc1ccc2oc(=O)n(CCN3CC[NH2+]CC3)c2c1

>  <Energy>  (41) 
88.67931539259399

>  <Genealogy>  (41) 
Cc1ccc2oc(=O)n(CCN3CC[NH2+]CC3)c2c1 (protonated)
Cc1ccc2oc(=O)n(CCN3CC[NH2+]CC3)c2c1 (3D coordinates assigned)
Cc1ccc2oc(=O)n(CCN3CC[NH2+]CC3)c2c1 (nonaromatic ring conformer: 88.67931539259399 kcal/mol)

>  <smiles>  (41) 
Cc1ccc2oc(=O)n(CCN3CCNCC3)c2c1

>  <score_type>  (41) 
oracle

>  <origin>  (41) 
adg

>  <m_score__min__energy>  (41) 
-5.7000000000000002

>  <m_primary>  (41) 
energy

$$$$
41:0
     RDKit          3D

 31 31  0  0  0  0  0  0  0  0999 V2000
   59.7500   28.3140   44.5780 C   0  0  0  0  0  0  0  0  0  0  0  0
   58.4960   27.9270   43.7860 C   0  0  0  0  0  0  0  0  0  0  0  0
   57.2610   27.9660   44.6210 N   0  0  1  0  0  0  0  0  0  0  0  0
   57.5460   27.6080   46.0370 C   0  0  0  0  0  0  0  0  0  0  0  0
   56.6760   26.4690   46.5900 C   0  0  0  0  0  0  0  0  0  0  0  0
   55.4020   26.5410   46.0120 O   0  0  0  0  0  0  0  0  0  0  0  0
   56.3940   29.1880   44.5070 C   0  0  0  0  0  0  0  0  0  0  0  0
   57.1060   30.5130   44.2970 C   0  0  0  0  0  0  0  0  0  0  0  0
   57.7060   31.1880   45.3770 C   0  0  0  0  0  0  0  0  0  0  0  0
   58.3450   32.4160   45.1780 C   0  0  0  0  0  0  0  0  0  0  0  0
   58.3780   32.9900   43.9050 C   0  0  0  0  0  0  0  0  0  0  0  0
   57.7660   32.3410   42.8310 C   0  0  0  0  0  0  0  0  0  0  0  0
   57.1250   31.1140   43.0250 C   0  0  0  0  0  0  0  0  0  0  0  0
   59.5379   28.2486   45.6554 H   0  0  0  0  0  0  0  0  0  0  0  0
   60.5708   27.6274   44.3235 H   0  0  0  0  0  0  0  0  0  0  0  0
   60.0411   29.3438   44.3235 H   0  0  0  0  0  0  0  0  0  0  0  0
   58.3775   28.6287   42.9472 H   0  0  0  0  0  0  0  0  0  0  0  0
   58.6287   26.8940   43.4320 H   0  0  0  0  0  0  0  0  0  0  0  0
   56.6670   27.1670   44.2900 H   0  0  0  0  0  0  0  0  0  0  0  0
   58.6002   27.3022   46.1093 H   0  0  0  0  0  0  0  0  0  0  0  0
   57.3165   28.4996   46.6390 H   0  0  0  0  0  0  0  0  0  0  0  0
   57.1373   25.5011   46.3445 H   0  0  0  0  0  0  0  0  0  0  0  0
   56.5923   26.5646   47.6826 H   0  0  0  0  0  0  0  0  0  0  0  0
   54.7570   26.3410   46.7400 H   0  0  0  0  0  0  0  0  0  0  0  0
   55.7145   29.0362   43.6554 H   0  0  0  0  0  0  0  0  0  0  0  0
   55.8947   29.2799   45.4828 H   0  0  0  0  0  0  0  0  0  0  0  0
   57.6720   30.7466   46.3840 H   0  0  0  0  0  0  0  0  0  0  0  0
   58.8222   32.9305   46.0251 H   0  0  0  0  0  0  0  0  0  0  0  0
   58.8860   33.9531   43.7487 H   0  0  0  0  0  0  0  0  0  0  0  0
   57.7883   32.7962   41.8299 H   0  0  0  0  0  0  0  0  0  0  0  0
   56.6322   30.6150   42.1776 H   0  0  0  0  0  0  0  0  0  0  0  0
  1  2  1  0
  2  3  1  0
  3  4  1  0
  4  5  1  0
  5  6  1  0
  3  7  1  0
  7  8  1  0
  8  9  2  0
  9 10  1  0
 10 11  2  0
 11 12  1  0
 12 13  2  0
 13  8  1  0
  1 14  1  0
  1 15  1  0
  1 16  1  0
  2 17  1  0
  2 18  1  0
  3 19  1  6
  4 20  1  0
  4 21  1  0
  5 22  1  0
  5 23  1  0
  6 24  1  0
  7 25  1  0
  7 26  1  0
  9 27  1  0
 10 28  1  0
 11 29  1  0
 12 30  1  0
 13 31  1  0
M  CHG  1   3   1
M  END
>  <UniqueID>  (42) 
40

>  <SMILES>  (42) 
CC[N@@H+](CCO)Cc1ccccc1

>  <Energy>  (42) 
40.7955531064459

>  <Genealogy>  (42) 
CC[NH+](CCO)Cc1ccccc1 (protonated)
CC[N@@H+](CCO)Cc1ccccc1 (chirality)
CC[N@@H+](CCO)Cc1ccccc1 (3D coordinates assigned)
CC[N@@H+](CCO)Cc1ccccc1 (optimized conformer: 40.7955531064459 kcal/mol)

>  <smiles>  (42) 
CCN(CCO)Cc1ccccc1

>  <score_type>  (42) 
oracle

>  <origin>  (42) 
adg

>  <m_score__min__energy>  (42) 
-4.6799999999999997

>  <m_primary>  (42) 
energy

$$$$
42:0
     RDKit          3D

 40 43  0  0  0  0  0  0  0  0999 V2000
   60.0885   35.9124   46.6338 H   0  0  0  0  0  0  0  0  0  0  0  0
   59.6020   34.9500   46.4170 C   0  0  0  0  0  0  0  0  0  0  0  0
   59.3470   34.0500   47.4540 C   0  0  0  0  0  0  0  0  0  0  0  0
   59.6309   34.3067   48.4853 H   0  0  0  0  0  0  0  0  0  0  0  0
   58.7320   32.8240   47.1850 C   0  0  0  0  0  0  0  0  0  0  0  0
   58.5342   32.1176   48.0047 H   0  0  0  0  0  0  0  0  0  0  0  0
   58.3660   32.4920   45.8700 C   0  0  0  0  0  0  0  0  0  0  0  0
   57.7500   31.2660   45.5890 C   0  0  0  0  0  0  0  0  0  0  0  0
   57.5441   30.5593   46.4064 H   0  0  0  0  0  0  0  0  0  0  0  0
   57.3930   30.9310   44.2730 C   0  0  0  0  0  0  0  0  0  0  0  0
   56.7020   29.6220   44.0000 C   0  0  0  0  0  0  0  0  0  0  0  0
   55.8211   29.7970   43.3648 H   0  0  0  0  0  0  0  0  0  0  0  0
   57.3942   28.9406   43.4837 H   0  0  0  0  0  0  0  0  0  0  0  0
   56.2810   29.0260   45.2640 N   0  0  0  0  0  0  0  0  0  0  0  0
   56.5380   27.8000   45.6190 C   0  0  0  0  0  0  0  0  0  0  0  0
   55.5310   26.8920   45.7270 N   0  0  0  0  0  0  0  0  0  0  0  0
   55.7560   25.6290   46.0890 N   0  0  0  0  0  0  0  0  0  0  0  0
   57.0020   25.1720   46.3700 C   0  0  0  0  0  0  0  0  0  0  0  0
   57.1800   23.4850   46.8370 Cl  0  0  0  0  0  0  0  0  0  0  0  0
   58.0960   26.0530   46.2820 C   0  0  0  0  0  0  0  0  0  0  0  0
   59.4120   25.6370   46.5630 C   0  0  0  0  0  0  0  0  0  0  0  0
   59.6042   24.5957   46.8608 H   0  0  0  0  0  0  0  0  0  0  0  0
   60.4740   26.5380   46.4660 C   0  0  0  0  0  0  0  0  0  0  0  0
   61.4982   26.2040   46.6885 H   0  0  0  0  0  0  0  0  0  0  0  0
   60.2410   27.8600   46.0880 C   0  0  0  0  0  0  0  0  0  0  0  0
   61.0821   28.5649   46.0124 H   0  0  0  0  0  0  0  0  0  0  0  0
   58.9430   28.2920   45.8050 C   0  0  0  0  0  0  0  0  0  0  0  0
   58.7661   29.3365   45.5089 H   0  0  0  0  0  0  0  0  0  0  0  0
   57.8590   27.3960   45.8970 C   0  0  0  0  0  0  0  0  0  0  0  0
   57.6300   31.8450   43.2260 C   0  0  0  0  0  0  0  0  0  0  0  0
   57.2330   31.4990   41.9230 O   0  0  0  0  0  0  0  0  0  0  0  0
   57.3830   32.3360   40.7810 C   0  0  0  0  0  0  0  0  0  0  0  0
   57.5684   33.3703   41.1063 H   0  0  0  0  0  0  0  0  0  0  0  0
   58.2323   31.9837   40.1772 H   0  0  0  0  0  0  0  0  0  0  0  0
   56.4642   32.3006   40.1772 H   0  0  0  0  0  0  0  0  0  0  0  0
   58.2520   33.0770   43.5090 C   0  0  0  0  0  0  0  0  0  0  0  0
   58.4483   33.7886   42.6935 H   0  0  0  0  0  0  0  0  0  0  0  0
   58.6230   33.4040   44.8210 C   0  0  0  0  0  0  0  0  0  0  0  0
   59.2410   34.6320   45.1040 C   0  0  0  0  0  0  0  0  0  0  0  0
   59.4418   35.3457   44.2914 H   0  0  0  0  0  0  0  0  0  0  0  0
  1  2  1  0
  2  3  2  0
  3  4  1  0
  3  5  1  0
  5  6  1  0
  5  7  2  0
  7  8  1  0
  8  9  1  0
  8 10  2  0
 10 11  1  0
 11 12  1  0
 11 13  1  0
 11 14  1  0
 14 15  2  0
 15 16  1  0
 16 17  1  0
 17 18  2  0
 18 19  1  0
 18 20  1  0
 20 21  2  0
 21 22  1  0
 21 23  1  0
 23 24  1  0
 23 25  2  0
 25 26  1  0
 25 27  1  0
 27 28  1  0
 27 29  2  0
 10 30  1  0
 30 31  1  0
 31 32  1  0
 32 33  1  0
 32 34  1  0
 32 35  1  0
 30 36  2  0
 36 37  1  0
 36 38  1  0
 38 39  2  0
 39 40  1  0
 39  2  1  0
 38  7  1  0
 29 15  1  0
 29 20  1  0
M  CHG  1  16  -1
M  END
>  <UniqueID>  (43) 
41

>  <SMILES>  (43) 
COc1cc2ccccc2cc1C/N=c1\[n-]nc(Cl)c2ccccc12

>  <Energy>  (43) 
53.88250389946718

>  <Genealogy>  (43) 
COc1cc2ccccc2cc1CN=c1[n-]nc(Cl)c2ccccc12 (protonated)
COc1cc2ccccc2cc1C/N=c1\[n-]nc(Cl)c2ccccc12 (cis-trans isomerization)
COc1cc2ccccc2cc1C/N=c1\[n-]nc(Cl)c2ccccc12 (3D coordinates assigned)
COc1cc2ccccc2cc1C/N=c1\[n-]nc(Cl)c2ccccc12 (optimized conformer: 53.88250389946718 kcal/mol)

>  <smiles>  (43) 
COc1cc2ccccc2cc1CN=c1[nH]nc(Cl)c2ccccc12

>  <score_type>  (43) 
oracle

>  <origin>  (43) 
adg

>  <m_score__min__energy>  (43) 
-11.529999999999999

>  <m_primary>  (43) 
energy

$$$$
43:0
     RDKit          3D

 26 26  0  0  0  0  0  0  0  0999 V2000
   64.0890   32.7530   48.9740 Br  0  0  0  0  0  0  0  0  0  0  0  0
   63.3930   32.5580   47.1710 C   0  0  0  0  0  0  0  0  0  0  0  0
   62.6130   33.8010   46.7270 C   0  0  0  0  0  0  0  0  0  0  0  0
   61.2720   33.8530   47.3340 N   0  0  0  0  0  0  0  0  0  0  0  0
   61.0900   34.3360   48.7110 C   0  0  0  0  0  0  0  0  0  0  0  0
   59.6420   34.1820   49.1750 C   0  0  0  0  0  0  0  0  0  0  0  0
   59.5290   33.1030   50.7830 Br  0  0  0  0  0  0  0  0  0  0  0  0
   60.1110   33.6710   46.5050 C   0  0  0  0  0  0  0  0  0  0  0  0
   59.6100   34.7550   45.7690 C   0  0  0  0  0  0  0  0  0  0  0  0
   58.4810   34.5970   44.9610 C   0  0  0  0  0  0  0  0  0  0  0  0
   57.8470   33.3540   44.8810 C   0  0  0  0  0  0  0  0  0  0  0  0
   58.3430   32.2680   45.6070 C   0  0  0  0  0  0  0  0  0  0  0  0
   59.4730   32.4180   46.4190 C   0  0  0  0  0  0  0  0  0  0  0  0
   60.1230   30.8950   47.3830 Br  0  0  0  0  0  0  0  0  0  0  0  0
   64.2336   32.3988   46.4796 H   0  0  0  0  0  0  0  0  0  0  0  0
   62.7054   31.6994   47.1597 H   0  0  0  0  0  0  0  0  0  0  0  0
   63.1740   34.6987   47.0262 H   0  0  0  0  0  0  0  0  0  0  0  0
   62.4915   33.7554   45.6347 H   0  0  0  0  0  0  0  0  0  0  0  0
   61.7430   33.7577   49.3813 H   0  0  0  0  0  0  0  0  0  0  0  0
   61.3476   35.4051   48.7372 H   0  0  0  0  0  0  0  0  0  0  0  0
   59.2240   35.1783   49.3817 H   0  0  0  0  0  0  0  0  0  0  0  0
   59.0735   33.6794   48.3786 H   0  0  0  0  0  0  0  0  0  0  0  0
   60.1082   35.7339   45.8282 H   0  0  0  0  0  0  0  0  0  0  0  0
   58.0911   35.4511   44.3878 H   0  0  0  0  0  0  0  0  0  0  0  0
   56.9572   33.2306   44.2462 H   0  0  0  0  0  0  0  0  0  0  0  0
   57.8429   31.2905   45.5400 H   0  0  0  0  0  0  0  0  0  0  0  0
  1  2  1  0
  2  3  1  0
  3  4  1  0
  4  5  1  0
  5  6  1  0
  6  7  1  0
  4  8  1  0
  8  9  2  0
  9 10  1  0
 10 11  2  0
 11 12  1  0
 12 13  2  0
 13 14  1  0
 13  8  1  0
  2 15  1  0
  2 16  1  0
  3 17  1  0
  3 18  1  0
  5 19  1  0
  5 20  1  0
  6 21  1  0
  6 22  1  0
  9 23  1  0
 10 24  1  0
 11 25  1  0
 12 26  1  0
M  END
>  <UniqueID>  (44) 
42

>  <SMILES>  (44) 
BrCCN(CCBr)c1ccccc1Br

>  <Energy>  (44) 
24.467756272921143

>  <Genealogy>  (44) 
BrCCN(CCBr)c1ccccc1Br (3D coordinates assigned)
BrCCN(CCBr)c1ccccc1Br (optimized conformer: 24.467756272921143 kcal/mol)

>  <smiles>  (44) 
BrCCN(CCBr)c1ccccc1Br

>  <score_type>  (44) 
oracle

>  <origin>  (44) 
adg

>  <m_score__min__energy>  (44) 
-5.6399999999999997

>  <m_primary>  (44) 
energy

$$$$
44:0
     RDKit          3D

 45 48  0  0  0  0  0  0  0  0999 V2000
   57.7530   32.1820   42.9120 C   0  0  0  0  0  0  0  0  0  0  0  0
   57.0230   31.1620   43.5250 C   0  0  0  0  0  0  0  0  0  0  0  0
   57.0120   31.0530   44.8800 N   0  0  0  0  0  0  0  0  0  0  0  0
   57.7020   31.9160   45.6730 C   0  0  0  0  0  0  0  0  0  0  0  0
   58.4550   32.9520   45.1000 C   0  0  0  0  0  0  0  0  0  0  0  0
   59.2060   33.9320   45.9620 C   0  0  0  0  0  0  0  0  0  0  0  0
   59.7560   33.2590   47.1550 N   0  0  0  0  0  0  0  0  0  0  0  0
   60.7370   32.1970   46.7920 C   0  0  0  0  0  0  0  0  0  0  0  0
   61.8310   32.3540   47.8170 C   0  0  1  0  0  0  0  0  0  0  0  0
   63.2820   31.9680   47.6720 C   0  0  0  0  0  0  0  0  0  0  0  0
   63.9880   32.9050   48.5860 N   0  0  0  0  0  0  0  0  0  0  0  0
   64.6330   32.2690   49.7600 C   0  0  0  0  0  0  0  0  0  0  0  0
   65.6530   33.1330   50.4820 C   0  0  0  0  0  0  0  0  0  0  0  0
   65.2420   34.0640   51.4500 C   0  0  0  0  0  0  0  0  0  0  0  0
   66.1920   34.8580   52.0960 C   0  0  0  0  0  0  0  0  0  0  0  0
   67.5090   34.7500   51.7740 N   0  0  0  0  0  0  0  0  0  0  0  0
   67.9330   33.8880   50.8120 C   0  0  0  0  0  0  0  0  0  0  0  0
   67.0150   33.0750   50.1420 C   0  0  0  0  0  0  0  0  0  0  0  0
   63.0290   33.9940   48.9190 C   0  0  0  0  0  0  0  0  0  0  0  0
   61.9330   33.8270   47.8950 C   0  0  2  0  0  0  0  0  0  0  0  0
   60.4810   34.2140   48.0380 C   0  0  0  0  0  0  0  0  0  0  0  0
   58.4700   33.0810   43.7040 C   0  0  0  0  0  0  0  0  0  0  0  0
   57.7632   32.2765   41.8161 H   0  0  0  0  0  0  0  0  0  0  0  0
   56.4565   30.4462   42.9113 H   0  0  0  0  0  0  0  0  0  0  0  0
   57.6696   31.8015   46.7665 H   0  0  0  0  0  0  0  0  0  0  0  0
   60.0315   34.3672   45.3796 H   0  0  0  0  0  0  0  0  0  0  0  0
   58.5129   34.7215   46.2880 H   0  0  0  0  0  0  0  0  0  0  0  0
   60.2777   31.1997   46.8585 H   0  0  0  0  0  0  0  0  0  0  0  0
   61.1042   32.2915   45.7594 H   0  0  0  0  0  0  0  0  0  0  0  0
   61.4989   31.6615   48.6045 H   0  0  0  0  0  0  0  0  0  0  0  0
   63.4430   30.9241   47.9792 H   0  0  0  0  0  0  0  0  0  0  0  0
   63.6394   32.0341   46.6338 H   0  0  0  0  0  0  0  0  0  0  0  0
   63.8443   32.0007   50.4783 H   0  0  0  0  0  0  0  0  0  0  0  0
   65.1865   31.4010   49.3724 H   0  0  0  0  0  0  0  0  0  0  0  0
   64.1754   34.1674   51.6984 H   0  0  0  0  0  0  0  0  0  0  0  0
   65.8739   35.5737   52.8684 H   0  0  0  0  0  0  0  0  0  0  0  0
   68.2070   35.3520   52.2650 H   0  0  0  0  0  0  0  0  0  0  0  0
   69.0022   33.8303   50.5602 H   0  0  0  0  0  0  0  0  0  0  0  0
   67.3576   32.3918   49.3509 H   0  0  0  0  0  0  0  0  0  0  0  0
   62.6354   33.8724   49.9390 H   0  0  0  0  0  0  0  0  0  0  0  0
   63.4900   34.9924   48.8927 H   0  0  0  0  0  0  0  0  0  0  0  0
   62.2669   34.5164   47.1055 H   0  0  0  0  0  0  0  0  0  0  0  0
   60.1504   34.1073   49.0817 H   0  0  0  0  0  0  0  0  0  0  0  0
   60.2970   35.2630   47.7627 H   0  0  0  0  0  0  0  0  0  0  0  0
   59.0467   33.8905   43.2327 H   0  0  0  0  0  0  0  0  0  0  0  0
  1  2  2  0
  2  3  1  0
  3  4  2  0
  4  5  1  0
  5  6  1  0
  6  7  1  0
  7  8  1  0
  8  9  1  0
  9 10  1  0
 10 11  1  0
 11 12  1  0
 12 13  1  0
 13 14  2  0
 14 15  1  0
 15 16  2  0
 16 17  1  0
 17 18  2  0
 11 19  1  0
 19 20  1  0
 20 21  1  0
  5 22  2  0
 22  1  1  0
 21  7  1  0
 20  9  1  0
 18 13  1  0
  1 23  1  0
  2 24  1  0
  4 25  1  0
  6 26  1  0
  6 27  1  0
  8 28  1  0
  8 29  1  0
  9 30  1  1
 10 31  1  0
 10 32  1  0
 12 33  1  0
 12 34  1  0
 14 35  1  0
 15 36  1  0
 16 37  1  0
 17 38  1  0
 18 39  1  0
 19 40  1  0
 19 41  1  0
 20 42  1  6
 21 43  1  0
 21 44  1  0
 22 45  1  0
M  CHG  1  16   1
M  END
>  <UniqueID>  (45) 
43

>  <SMILES>  (45) 
c1cncc(CN2C[C@H]3CN(Cc4cc[nH+]cc4)C[C@@H]3C2)c1

>  <Energy>  (45) 
88.27873322349669

>  <Genealogy>  (45) 
c1cncc(CN2CC3CN(Cc4cc[nH+]cc4)CC3C2)c1 (protonated)
c1cncc(CN2C[C@H]3CN(Cc4cc[nH+]cc4)C[C@@H]3C2)c1 (chirality)
c1cncc(CN2C[C@H]3CN(Cc4cc[nH+]cc4)C[C@@H]3C2)c1 (3D coordinates assigned)
c1cncc(CN2C[C@H]3CN(Cc4cc[nH+]cc4)C[C@@H]3C2)c1 (nonaromatic ring conformer: 88.27873322349669 kcal/mol)

>  <smiles>  (45) 
c1cncc(CN2CC3CN(Cc4ccncc4)CC3C2)c1

>  <score_type>  (45) 
oracle

>  <origin>  (45) 
adg

>  <m_score__min__energy>  (45) 
-6.6500000000000004

>  <m_primary>  (45) 
energy

$$$$
45:0
     RDKit          3D

 29 30  0  0  0  0  0  0  0  0999 V2000
   56.4540   29.8330   42.7570 C   0  0  0  0  0  0  0  0  0  0  0  0
   55.5260   29.7130   43.9620 C   0  0  0  0  0  0  0  0  0  0  0  0
   56.2340   30.0860   45.1950 N   0  0  0  0  0  0  0  0  0  0  0  0
   57.5730   29.4810   45.2500 C   0  0  0  0  0  0  0  0  0  0  0  0
   58.5030   30.3030   46.1490 C   0  0  0  0  0  0  0  0  0  0  0  0
   58.4830   31.7670   45.7870 C   0  0  0  0  0  0  0  0  0  0  0  0
   58.1100   32.1730   44.4900 C   0  0  0  0  0  0  0  0  0  0  0  0
   58.1170   33.5340   44.1330 C   0  0  0  0  0  0  0  0  0  0  0  0
   58.5070   34.5120   45.0630 C   0  0  0  0  0  0  0  0  0  0  0  0
   58.8870   34.1100   46.3440 C   0  0  0  0  0  0  0  0  0  0  0  0
   59.3090   34.9570   47.3760 C   0  0  0  0  0  0  0  0  0  0  0  0
   59.6310   34.2670   48.5420 C   0  0  0  0  0  0  0  0  0  0  0  0
   59.3910   32.6150   48.2850 S   0  0  0  0  0  0  0  0  0  0  0  0
   58.8740   32.7650   46.6920 C   0  0  0  0  0  0  0  0  0  0  0  0
   57.4894   29.9669   43.1035 H   0  0  0  0  0  0  0  0  0  0  0  0
   56.3860   28.9186   42.1494 H   0  0  0  0  0  0  0  0  0  0  0  0
   56.1557   30.7000   42.1494 H   0  0  0  0  0  0  0  0  0  0  0  0
   54.6637   30.3817   43.8231 H   0  0  0  0  0  0  0  0  0  0  0  0
   55.1866   28.6702   44.0477 H   0  0  0  0  0  0  0  0  0  0  0  0
   55.6820   29.7040   45.9990 H   0  0  0  0  0  0  0  0  0  0  0  0
   57.4917   28.4603   45.6520 H   0  0  0  0  0  0  0  0  0  0  0  0
   57.9928   29.4589   44.2335 H   0  0  0  0  0  0  0  0  0  0  0  0
   58.1789   30.1903   47.1941 H   0  0  0  0  0  0  0  0  0  0  0  0
   59.5288   29.9308   46.0105 H   0  0  0  0  0  0  0  0  0  0  0  0
   57.8101   31.4177   43.7487 H   0  0  0  0  0  0  0  0  0  0  0  0
   57.8150   33.8342   43.1188 H   0  0  0  0  0  0  0  0  0  0  0  0
   58.5127   35.5766   44.7861 H   0  0  0  0  0  0  0  0  0  0  0  0
   59.3787   36.0503   47.2764 H   0  0  0  0  0  0  0  0  0  0  0  0
   59.9843   34.7237   49.4783 H   0  0  0  0  0  0  0  0  0  0  0  0
  1  2  1  0
  2  3  1  0
  3  4  1  0
  4  5  1  0
  5  6  1  0
  6  7  2  0
  7  8  1  0
  8  9  2  0
  9 10  1  0
 10 11  1  0
 11 12  2  0
 12 13  1  0
 13 14  1  0
 14  6  1  0
 14 10  2  0
  1 15  1  0
  1 16  1  0
  1 17  1  0
  2 18  1  0
  2 19  1  0
  3 20  1  0
  4 21  1  0
  4 22  1  0
  5 23  1  0
  5 24  1  0
  7 25  1  0
  8 26  1  0
  9 27  1  0
 11 28  1  0
 12 29  1  0
M  END
>  <UniqueID>  (46) 
44

>  <SMILES>  (46) 
CCNCCc1cccc2ccsc12

>  <Energy>  (46) 
54.1606871518644

>  <Genealogy>  (46) 
CCNCCc1cccc2ccsc12 (3D coordinates assigned)
CCNCCc1cccc2ccsc12 (optimized conformer: 54.1606871518644 kcal/mol)

>  <smiles>  (46) 
CCNCCc1cccc2ccsc12

>  <score_type>  (46) 
oracle

>  <origin>  (46) 
adg

>  <m_score__min__energy>  (46) 
-6.3300000000000001

>  <m_primary>  (46) 
energy

$$$$
46:0
     RDKit          3D

 70 71  0  0  0  0  0  0  0  0999 V2000
   58.3790   31.5440   50.5130 C   0  0  0  0  0  0  0  0  0  0  0  0
   58.6620   32.3830   49.2670 C   0  0  0  0  0  0  0  0  0  0  0  0
   59.6600   33.5240   49.5360 C   0  0  0  0  0  0  0  0  0  0  0  0
   59.7510   34.5560   48.3960 C   0  0  0  0  0  0  0  0  0  0  0  0
   58.8320   34.2060   47.2120 C   0  0  0  0  0  0  0  0  0  0  0  0
   59.2770   34.8840   45.9000 C   0  0  0  0  0  0  0  0  0  0  0  0
   58.9700   34.0650   44.6310 C   0  0  0  0  0  0  0  0  0  0  0  0
   57.7470   33.1370   44.7600 C   0  0  0  0  0  0  0  0  0  0  0  0
   57.9200   31.8290   43.9680 C   0  0  0  0  0  0  0  0  0  0  0  0
   56.7880   30.8200   44.2320 C   0  0  0  0  0  0  0  0  0  0  0  0
   57.2600   29.4400   44.7320 C   0  0  0  0  0  0  0  0  0  0  0  0
   58.7830   29.2320   44.6680 C   0  0  0  0  0  0  0  0  0  0  0  0
   59.4100   29.4290   45.9830 N   0  0  0  0  0  0  0  0  0  0  0  0
   59.0900   28.5880   47.0130 C   0  0  0  0  0  0  0  0  0  0  0  0
   59.6910   28.7380   48.2620 C   0  0  0  0  0  0  0  0  0  0  0  0
   60.6260   29.7500   48.4580 C   0  0  0  0  0  0  0  0  0  0  0  0
   60.9590   30.6140   47.4040 C   0  0  0  0  0  0  0  0  0  0  0  0
   61.9600   31.6950   47.5960 C   0  0  0  0  0  0  0  0  0  0  0  0
   61.9840   32.8100   46.7440 C   0  0  0  0  0  0  0  0  0  0  0  0
   62.9200   33.8220   46.9440 C   0  0  0  0  0  0  0  0  0  0  0  0
   63.8330   33.7170   47.9920 C   0  0  0  0  0  0  0  0  0  0  0  0
   63.8220   32.6250   48.8150 N   0  0  0  0  0  0  0  0  0  0  0  0
   64.7700   32.5470   49.9340 C   0  0  0  0  0  0  0  0  0  0  0  0
   64.5060   33.6840   50.9290 C   0  0  0  0  0  0  0  0  0  0  0  0
   63.0120   34.0120   51.0720 C   0  0  0  0  0  0  0  0  0  0  0  0
   62.2250   32.8950   51.7580 C   0  0  0  0  0  0  0  0  0  0  0  0
   62.9030   31.6290   48.6360 C   0  0  0  0  0  0  0  0  0  0  0  0
   60.3250   30.4310   46.1620 C   0  0  0  0  0  0  0  0  0  0  0  0
   58.5813   32.1438   51.4126 H   0  0  0  0  0  0  0  0  0  0  0  0
   57.3250   31.2293   50.5115 H   0  0  0  0  0  0  0  0  0  0  0  0
   59.0271   30.6552   50.5115 H   0  0  0  0  0  0  0  0  0  0  0  0
   59.0780   31.7274   48.4878 H   0  0  0  0  0  0  0  0  0  0  0  0
   57.7126   32.8387   48.9493 H   0  0  0  0  0  0  0  0  0  0  0  0
   59.3492   34.0470   50.4525 H   0  0  0  0  0  0  0  0  0  0  0  0
   60.6543   33.0629   49.6291 H   0  0  0  0  0  0  0  0  0  0  0  0
   59.4614   35.5420   48.7883 H   0  0  0  0  0  0  0  0  0  0  0  0
   60.7872   34.5571   48.0269 H   0  0  0  0  0  0  0  0  0  0  0  0
   58.8427   33.1156   47.0672 H   0  0  0  0  0  0  0  0  0  0  0  0
   57.8227   34.5716   47.4522 H   0  0  0  0  0  0  0  0  0  0  0  0
   58.7607   35.8520   45.8194 H   0  0  0  0  0  0  0  0  0  0  0  0
   60.3708   34.9880   45.9527 H   0  0  0  0  0  0  0  0  0  0  0  0
   58.7854   34.7663   43.8039 H   0  0  0  0  0  0  0  0  0  0  0  0
   59.8414   33.4175   44.4537 H   0  0  0  0  0  0  0  0  0  0  0  0
   57.6004   32.8907   45.8220 H   0  0  0  0  0  0  0  0  0  0  0  0
   56.8768   33.6679   44.3467 H   0  0  0  0  0  0  0  0  0  0  0  0
   57.9355   32.0673   42.8942 H   0  0  0  0  0  0  0  0  0  0  0  0
   58.8618   31.3646   44.2956 H   0  0  0  0  0  0  0  0  0  0  0  0
   56.1169   31.2485   44.9910 H   0  0  0  0  0  0  0  0  0  0  0  0
   56.2929   30.6479   43.2649 H   0  0  0  0  0  0  0  0  0  0  0  0
   56.9399   29.3243   45.7780 H   0  0  0  0  0  0  0  0  0  0  0  0
   56.8108   28.6913   44.0629 H   0  0  0  0  0  0  0  0  0  0  0  0
   58.9896   28.2080   44.3234 H   0  0  0  0  0  0  0  0  0  0  0  0
   59.2032   29.9722   43.9712 H   0  0  0  0  0  0  0  0  0  0  0  0
   58.3528   27.7871   46.8547 H   0  0  0  0  0  0  0  0  0  0  0  0
   59.4277   28.0605   49.0876 H   0  0  0  0  0  0  0  0  0  0  0  0
   61.1047   29.8727   49.4408 H   0  0  0  0  0  0  0  0  0  0  0  0
   61.2625   32.8848   45.9170 H   0  0  0  0  0  0  0  0  0  0  0  0
   62.9385   34.6983   46.2793 H   0  0  0  0  0  0  0  0  0  0  0  0
   64.5678   34.5185   48.1582 H   0  0  0  0  0  0  0  0  0  0  0  0
   64.6501   31.5807   50.4457 H   0  0  0  0  0  0  0  0  0  0  0  0
   65.7946   32.6400   49.5448 H   0  0  0  0  0  0  0  0  0  0  0  0
   64.8970   33.3878   51.9136 H   0  0  0  0  0  0  0  0  0  0  0  0
   65.0085   34.5843   50.5456 H   0  0  0  0  0  0  0  0  0  0  0  0
   62.9091   34.9314   51.6670 H   0  0  0  0  0  0  0  0  0  0  0  0
   62.6006   34.1343   50.0592 H   0  0  0  0  0  0  0  0  0  0  0  0
   62.3043   33.0075   52.8494 H   0  0  0  0  0  0  0  0  0  0  0  0
   61.1680   32.9542   51.4591 H   0  0  0  0  0  0  0  0  0  0  0  0
   62.6365   31.9196   51.4591 H   0  0  0  0  0  0  0  0  0  0  0  0
   62.9015   30.7639   49.3154 H   0  0  0  0  0  0  0  0  0  0  0  0
   60.5675   31.1013   45.3242 H   0  0  0  0  0  0  0  0  0  0  0  0
  1  2  1  0
  2  3  1  0
  3  4  1  0
  4  5  1  0
  5  6  1  0
  6  7  1  0
  7  8  1  0
  8  9  1  0
  9 10  1  0
 10 11  1  0
 11 12  1  0
 12 13  1  0
 13 14  2  0
 14 15  1  0
 15 16  2  0
 16 17  1  0
 17 18  1  0
 18 19  2  0
 19 20  1  0
 20 21  2  0
 21 22  1  0
 22 23  1  0
 23 24  1  0
 24 25  1  0
 25 26  1  0
 22 27  2  0
 17 28  2  0
 28 13  1  0
 27 18  1  0
  1 29  1  0
  1 30  1  0
  1 31  1  0
  2 32  1  0
  2 33  1  0
  3 34  1  0
  3 35  1  0
  4 36  1  0
  4 37  1  0
  5 38  1  0
  5 39  1  0
  6 40  1  0
  6 41  1  0
  7 42  1  0
  7 43  1  0
  8 44  1  0
  8 45  1  0
  9 46  1  0
  9 47  1  0
 10 48  1  0
 10 49  1  0
 11 50  1  0
 11 51  1  0
 12 52  1  0
 12 53  1  0
 14 54  1  0
 15 55  1  0
 16 56  1  0
 19 57  1  0
 20 58  1  0
 21 59  1  0
 23 60  1  0
 23 61  1  0
 24 62  1  0
 24 63  1  0
 25 64  1  0
 25 65  1  0
 26 66  1  0
 26 67  1  0
 26 68  1  0
 27 69  1  0
 28 70  1  0
M  CHG  2  13   1  22   1
M  END
>  <UniqueID>  (47) 
45

>  <SMILES>  (47) 
CCCCCCCCCCCC[n+]1cccc(-c2ccc[n+](CCCC)c2)c1

>  <Energy>  (47) 
53.62252078577043

>  <Genealogy>  (47) 
CCCCCCCCCCCC[n+]1cccc(-c2ccc[n+](CCCC)c2)c1 (3D coordinates assigned)
CCCCCCCCCCCC[n+]1cccc(-c2ccc[n+](CCCC)c2)c1 (optimized conformer: 53.62252078577043 kcal/mol)

>  <smiles>  (47) 
CCCCCCCCCCCC[n+]1cccc(-c2ccc[n+](CCCC)c2)c1

>  <score_type>  (47) 
oracle

>  <origin>  (47) 
adg

>  <m_score__min__energy>  (47) 
-4.5

>  <m_primary>  (47) 
energy

$$$$
