0:0
     RDKit          3D

 23 23  0  0  0  0  0  0  0  0999 V2000
   58.3990   32.6600   45.8810 F   0  0  0  0  0  0  0  0  0  0  0  0
   57.5550   32.8620   44.8050 C   0  0  0  0  0  0  0  0  0  0  0  0
   56.3200   32.3450   45.1370 F   0  0  0  0  0  0  0  0  0  0  0  0
   57.4600   34.2230   44.5960 F   0  0  0  0  0  0  0  0  0  0  0  0
   58.1510   32.1470   43.5820 C   0  0  0  0  0  0  0  0  0  0  0  0
   57.8440   30.6970   43.4310 N   0  0  0  0  0  0  0  0  0  0  0  0
   56.5380   30.3970   42.7770 C   0  0  0  0  0  0  0  0  0  0  0  0
   55.4370   29.9360   43.7420 C   0  0  0  0  0  0  0  0  0  0  0  0
   55.9380   28.8760   44.6120 N   0  0  0  0  0  0  0  0  0  0  0  0
   56.9880   29.4270   45.4610 C   0  0  0  0  0  0  0  0  0  0  0  0
   58.1920   29.8560   44.6100 C   0  0  0  0  0  0  0  0  0  0  0  0
   57.7788   32.6605   42.6832 H   0  0  0  0  0  0  0  0  0  0  0  0
   59.2405   32.1952   43.7254 H   0  0  0  0  0  0  0  0  0  0  0  0
   58.5490   30.4090   42.7080 H   0  0  0  0  0  0  0  0  0  0  0  0
   56.1904   31.3084   42.2685 H   0  0  0  0  0  0  0  0  0  0  0  0
   56.7182   29.5618   42.0842 H   0  0  0  0  0  0  0  0  0  0  0  0
   55.1136   30.7883   44.3576 H   0  0  0  0  0  0  0  0  0  0  0  0
   54.5883   29.5494   43.1587 H   0  0  0  0  0  0  0  0  0  0  0  0
   55.1510   28.5750   45.2320 H   0  0  0  0  0  0  0  0  0  0  0  0
   56.5960   30.3011   46.0016 H   0  0  0  0  0  0  0  0  0  0  0  0
   57.3117   28.6557   46.1754 H   0  0  0  0  0  0  0  0  0  0  0  0
   58.8792   30.4286   45.2502 H   0  0  0  0  0  0  0  0  0  0  0  0
   58.6421   28.9332   44.2153 H   0  0  0  0  0  0  0  0  0  0  0  0
  1  2  1  0
  2  3  1  0
  2  4  1  0
  2  5  1  0
  5  6  1  0
  6  7  1  0
  7  8  1  0
  8  9  1  0
  9 10  1  0
 10 11  1  0
 11  6  1  0
  5 12  1  0
  5 13  1  0
  6 14  1  0
  7 15  1  0
  7 16  1  0
  8 17  1  0
  8 18  1  0
  9 19  1  0
 10 20  1  0
 10 21  1  0
 11 22  1  0
 11 23  1  0
M  CHG  1   6   1
M  END
>  <UniqueID>  (1) 
1

>  <SMILES>  (1) 
FC(F)(F)C[NH+]1CCNCC1

>  <Energy>  (1) 
33.60758109947411

>  <Genealogy>  (1) 
FC(F)(F)C[NH+]1CCNCC1 (protonated)
FC(F)(F)C[NH+]1CCNCC1 (3D coordinates assigned)
FC(F)(F)C[NH+]1CCNCC1 (nonaromatic ring conformer: 33.60758109947411 kcal/mol)

>  <smiles>  (1) 
FC(F)(F)CN1CCNCC1

>  <score_type>  (1) 
oracle

>  <origin>  (1) 
adg

>  <m_score__min__energy>  (1) 
-2.2200000000000002

>  <m_primary>  (1) 
energy

$$$$
1:0
     RDKit          3D

 53 56  0  0  0  0  0  0  0  0999 V2000
   65.1280   33.0850   49.3970 C   0  0  0  0  0  0  0  0  0  0  0  0
   64.2550   32.3530   48.4610 N   0  0  0  0  0  0  0  0  0  0  0  0
   63.2270   31.5850   49.2120 C   0  0  0  0  0  0  0  0  0  0  0  0
   61.9590   31.3610   48.3750 C   0  0  0  0  0  0  0  0  0  0  0  0
   61.3140   32.6420   47.9820 N   0  0  0  0  0  0  0  0  0  0  0  0
   60.1850   32.9720   48.8800 C   0  0  0  0  0  0  0  0  0  0  0  0
   59.2550   34.0450   48.2780 C   0  0  0  0  0  0  0  0  0  0  0  0
   58.8050   33.6610   46.9220 N   0  0  0  0  0  0  0  0  0  0  0  0
   57.3400   33.8330   46.7910 C   0  0  0  0  0  0  0  0  0  0  0  0
   56.8570   33.7120   45.3260 C   0  0  0  0  0  0  0  0  0  0  0  0
   57.9100   33.0690   44.4030 C   0  0  0  0  0  0  0  0  0  0  0  0
   58.0820   31.5930   44.6800 C   0  0  0  0  0  0  0  0  0  0  0  0
   57.0290   30.7450   44.8260 N   0  0  0  0  0  0  0  0  0  0  0  0
   57.6430   29.5810   45.0990 C   0  0  0  0  0  0  0  0  0  0  0  0
   57.0580   28.3490   45.3690 C   0  0  0  0  0  0  0  0  0  0  0  0
   57.9150   27.2690   45.6610 C   0  0  0  0  0  0  0  0  0  0  0  0
   59.3210   27.4530   45.6780 C   0  0  0  0  0  0  0  0  0  0  0  0
   59.8750   28.7170   45.4100 C   0  0  0  0  0  0  0  0  0  0  0  0
   58.9920   29.7550   45.1220 C   0  0  0  0  0  0  0  0  0  0  0  0
   59.2570   31.0040   44.8570 O   0  0  0  0  0  0  0  0  0  0  0  0
   59.2540   33.8350   44.4960 C   0  0  0  0  0  0  0  0  0  0  0  0
   59.5010   34.4470   45.8850 C   0  0  0  0  0  0  0  0  0  0  0  0
   62.2760   33.7660   47.8730 C   0  0  0  0  0  0  0  0  0  0  0  0
   63.6680   33.2740   47.4550 C   0  0  0  0  0  0  0  0  0  0  0  0
   64.8406   32.8440   50.4311 H   0  0  0  0  0  0  0  0  0  0  0  0
   66.1744   32.7903   49.2291 H   0  0  0  0  0  0  0  0  0  0  0  0
   65.0203   34.1668   49.2291 H   0  0  0  0  0  0  0  0  0  0  0  0
   64.8610   31.6690   47.9480 H   0  0  0  0  0  0  0  0  0  0  0  0
   63.6465   30.6073   49.4916 H   0  0  0  0  0  0  0  0  0  0  0  0
   62.9500   32.1658   50.1042 H   0  0  0  0  0  0  0  0  0  0  0  0
   62.2286   30.8058   47.4645 H   0  0  0  0  0  0  0  0  0  0  0  0
   61.2429   30.7961   48.9899 H   0  0  0  0  0  0  0  0  0  0  0  0
   59.5998   32.0588   49.0634 H   0  0  0  0  0  0  0  0  0  0  0  0
   60.6036   33.3742   49.8143 H   0  0  0  0  0  0  0  0  0  0  0  0
   58.3756   34.1636   48.9280 H   0  0  0  0  0  0  0  0  0  0  0  0
   59.8133   34.9900   48.2059 H   0  0  0  0  0  0  0  0  0  0  0  0
   56.8391   33.0601   47.3924 H   0  0  0  0  0  0  0  0  0  0  0  0
   57.0899   34.8449   47.1425 H   0  0  0  0  0  0  0  0  0  0  0  0
   55.9471   33.0942   45.3055 H   0  0  0  0  0  0  0  0  0  0  0  0
   56.6668   34.7296   44.9541 H   0  0  0  0  0  0  0  0  0  0  0  0
   57.5445   33.1487   43.3686 H   0  0  0  0  0  0  0  0  0  0  0  0
   55.9655   28.2218   45.3552 H   0  0  0  0  0  0  0  0  0  0  0  0
   57.4908   26.2774   45.8770 H   0  0  0  0  0  0  0  0  0  0  0  0
   59.9815   26.6024   45.9020 H   0  0  0  0  0  0  0  0  0  0  0  0
   60.9628   28.8798   45.4271 H   0  0  0  0  0  0  0  0  0  0  0  0
   60.0726   33.1357   44.2703 H   0  0  0  0  0  0  0  0  0  0  0  0
   59.2115   34.6636   43.7738 H   0  0  0  0  0  0  0  0  0  0  0  0
   60.5809   34.4481   46.0942 H   0  0  0  0  0  0  0  0  0  0  0  0
   59.1139   35.4766   45.8964 H   0  0  0  0  0  0  0  0  0  0  0  0
   61.9083   34.4800   47.1213 H   0  0  0  0  0  0  0  0  0  0  0  0
   62.3605   34.2458   48.8592 H   0  0  0  0  0  0  0  0  0  0  0  0
   63.5844   32.7447   46.4943 H   0  0  0  0  0  0  0  0  0  0  0  0
   64.3276   34.1501   47.3691 H   0  0  0  0  0  0  0  0  0  0  0  0
  1  2  1  0
  2  3  1  0
  3  4  1  0
  4  5  1  0
  5  6  1  0
  6  7  1  0
  7  8  1  0
  8  9  1  0
  9 10  1  0
 10 11  1  0
 11 12  1  0
 12 13  2  0
 13 14  1  0
 14 15  2  0
 15 16  1  0
 16 17  2  0
 17 18  1  0
 18 19  2  0
 19 20  1  0
 11 21  1  0
 21 22  1  0
  5 23  1  0
 23 24  1  0
 24  2  1  0
 22  8  1  0
 20 12  1  0
 19 14  1  0
  1 25  1  0
  1 26  1  0
  1 27  1  0
  2 28  1  0
  3 29  1  0
  3 30  1  0
  4 31  1  0
  4 32  1  0
  6 33  1  0
  6 34  1  0
  7 35  1  0
  7 36  1  0
  9 37  1  0
  9 38  1  0
 10 39  1  0
 10 40  1  0
 11 41  1  0
 15 42  1  0
 16 43  1  0
 17 44  1  0
 18 45  1  0
 21 46  1  0
 21 47  1  0
 22 48  1  0
 22 49  1  0
 23 50  1  0
 23 51  1  0
 24 52  1  0
 24 53  1  0
M  CHG  1   2   1
M  END
>  <UniqueID>  (2) 
2

>  <SMILES>  (2) 
C[NH+]1CCN(CCN2CCC(c3nc4ccccc4o3)CC2)CC1

>  <Energy>  (2) 
107.31038626758247

>  <Genealogy>  (2) 
C[NH+]1CCN(CCN2CCC(c3nc4ccccc4o3)CC2)CC1 (protonated)
C[NH+]1CCN(CCN2CCC(c3nc4ccccc4o3)CC2)CC1 (3D coordinates assigned)
C[NH+]1CCN(CCN2CCC(c3nc4ccccc4o3)CC2)CC1 (nonaromatic ring conformer: 107.31038626758247 kcal/mol)

>  <smiles>  (2) 
CN1CCN(CCN2CCC(c3nc4ccccc4o3)CC2)CC1

>  <score_type>  (2) 
oracle

>  <origin>  (2) 
adg

>  <m_score__min__energy>  (2) 
-6.8799999999999999

>  <m_primary>  (2) 
energy

$$$$
2:0
     RDKit          3D

 55 57  0  0  0  0  0  0  0  0999 V2000
   58.5690   22.2450   44.4670 C   0  0  0  0  0  0  0  0  0  0  0  0
   57.3900   21.4140   43.9680 C   0  0  0  0  0  0  0  0  0  0  0  0
   56.5210   22.2210   42.9910 C   0  0  0  0  0  0  0  0  0  0  0  0
   55.6600   23.2620   43.7180 C   0  0  0  0  0  0  0  0  0  0  0  0
   56.4360   24.4510   44.0730 N   0  0  0  0  0  0  0  0  0  0  0  0
   56.1240   25.2250   45.2390 C   0  0  0  0  0  0  0  0  0  0  0  0
   55.1840   24.8640   46.0020 O   0  0  0  0  0  0  0  0  0  0  0  0
   56.9530   26.4360   45.5900 C   0  0  0  0  0  0  0  0  0  0  0  0
   57.4650   26.3820   47.0510 C   0  0  0  0  0  0  0  0  0  0  0  0
   58.9130   25.8720   47.1230 C   0  0  0  0  0  0  0  0  0  0  0  0
   59.8600   26.7280   46.3580 N   0  0  0  0  0  0  0  0  0  0  0  0
   60.5540   27.6880   47.2420 C   0  0  0  0  0  0  0  0  0  0  0  0
   59.8180   28.9900   47.2980 C   0  0  0  0  0  0  0  0  0  0  0  0
   59.8560   29.9190   46.3250 N   0  0  0  0  0  0  0  0  0  0  0  0
   59.0390   30.8700   46.8270 C   0  0  0  0  0  0  0  0  0  0  0  0
   58.7180   32.1480   46.1390 C   0  0  0  0  0  0  0  0  0  0  0  0
   59.4820   33.2930   46.4310 C   0  0  0  0  0  0  0  0  0  0  0  0
   59.2120   34.5110   45.8060 C   0  0  0  0  0  0  0  0  0  0  0  0
   58.1760   34.6060   44.8800 C   0  0  0  0  0  0  0  0  0  0  0  0
   57.4040   33.4840   44.5760 C   0  0  0  0  0  0  0  0  0  0  0  0
   57.6620   32.2440   45.1970 C   0  0  0  0  0  0  0  0  0  0  0  0
   56.8920   31.1070   44.9030 O   0  0  0  0  0  0  0  0  0  0  0  0
   57.0520   30.2950   43.7430 C   0  0  0  0  0  0  0  0  0  0  0  0
   58.5420   30.5280   48.0340 N   0  0  0  0  0  0  0  0  0  0  0  0
   59.0460   29.3600   48.2890 O   0  0  0  0  0  0  0  0  0  0  0  0
   59.2480   27.4140   45.1870 C   0  0  0  0  0  0  0  0  0  0  0  0
   58.1050   26.5980   44.5760 C   0  0  0  0  0  0  0  0  0  0  0  0
   58.5751   22.2493   45.5670 H   0  0  0  0  0  0  0  0  0  0  0  0
   59.5082   21.8082   44.0968 H   0  0  0  0  0  0  0  0  0  0  0  0
   58.4734   23.2764   44.0968 H   0  0  0  0  0  0  0  0  0  0  0  0
   57.7723   20.5194   43.4546 H   0  0  0  0  0  0  0  0  0  0  0  0
   56.7723   21.1283   44.8322 H   0  0  0  0  0  0  0  0  0  0  0  0
   57.1770   22.7388   42.2758 H   0  0  0  0  0  0  0  0  0  0  0  0
   55.8471   21.5209   42.4755 H   0  0  0  0  0  0  0  0  0  0  0  0
   54.8302   23.5607   43.0606 H   0  0  0  0  0  0  0  0  0  0  0  0
   55.2826   22.8081   44.6462 H   0  0  0  0  0  0  0  0  0  0  0  0
   57.2300   24.7570   43.4660 H   0  0  0  0  0  0  0  0  0  0  0  0
   56.3112   27.3270   45.5249 H   0  0  0  0  0  0  0  0  0  0  0  0
   57.4203   27.3927   47.4828 H   0  0  0  0  0  0  0  0  0  0  0  0
   56.8261   25.6862   47.6146 H   0  0  0  0  0  0  0  0  0  0  0  0
   59.2278   25.8530   48.1768 H   0  0  0  0  0  0  0  0  0  0  0  0
   58.9352   24.8677   46.6748 H   0  0  0  0  0  0  0  0  0  0  0  0
   60.6154   27.2650   48.2556 H   0  0  0  0  0  0  0  0  0  0  0  0
   61.5617   27.8707   46.8405 H   0  0  0  0  0  0  0  0  0  0  0  0
   60.3022   33.2271   47.1610 H   0  0  0  0  0  0  0  0  0  0  0  0
   59.8182   35.3973   46.0449 H   0  0  0  0  0  0  0  0  0  0  0  0
   57.9660   35.5669   44.3875 H   0  0  0  0  0  0  0  0  0  0  0  0
   56.5863   33.5673   43.8450 H   0  0  0  0  0  0  0  0  0  0  0  0
   57.2564   29.2577   44.0469 H   0  0  0  0  0  0  0  0  0  0  0  0
   56.1304   30.3266   43.1433 H   0  0  0  0  0  0  0  0  0  0  0  0
   57.8928   30.6739   43.1433 H   0  0  0  0  0  0  0  0  0  0  0  0
   58.8543   28.3883   45.5122 H   0  0  0  0  0  0  0  0  0  0  0  0
   60.0266   27.5352   44.4195 H   0  0  0  0  0  0  0  0  0  0  0  0
   57.7292   27.1155   43.6811 H   0  0  0  0  0  0  0  0  0  0  0  0
   58.4844   25.6012   44.3070 H   0  0  0  0  0  0  0  0  0  0  0  0
  1  2  1  0
  2  3  1  0
  3  4  1  0
  4  5  1  0
  5  6  1  0
  6  7  2  0
  6  8  1  0
  8  9  1  0
  9 10  1  0
 10 11  1  0
 11 12  1  0
 12 13  1  0
 13 14  2  0
 14 15  1  0
 15 16  1  0
 16 17  2  0
 17 18  1  0
 18 19  2  0
 19 20  1  0
 20 21  2  0
 21 22  1  0
 22 23  1  0
 15 24  2  0
 24 25  1  0
 11 26  1  0
 26 27  1  0
 27  8  1  0
 25 13  1  0
 21 16  1  0
  1 28  1  0
  1 29  1  0
  1 30  1  0
  2 31  1  0
  2 32  1  0
  3 33  1  0
  3 34  1  0
  4 35  1  0
  4 36  1  0
  5 37  1  0
  8 38  1  0
  9 39  1  0
  9 40  1  0
 10 41  1  0
 10 42  1  0
 12 43  1  0
 12 44  1  0
 17 45  1  0
 18 46  1  0
 19 47  1  0
 20 48  1  0
 23 49  1  0
 23 50  1  0
 23 51  1  0
 26 52  1  0
 26 53  1  0
 27 54  1  0
 27 55  1  0
M  END
>  <UniqueID>  (3) 
3

>  <SMILES>  (3) 
CCCCNC(=O)C1CCN(Cc2nc(-c3ccccc3OC)no2)CC1

>  <Energy>  (3) 
88.87184089410398

>  <Genealogy>  (3) 
CCCCNC(=O)C1CCN(Cc2nc(-c3ccccc3OC)no2)CC1 (3D coordinates assigned)
CCCCNC(=O)C1CCN(Cc2nc(-c3ccccc3OC)no2)CC1 (nonaromatic ring conformer: 88.87184089410398 kcal/mol)

>  <smiles>  (3) 
CCCCNC(=O)C1CCN(Cc2nc(-c3ccccc3OC)no2)CC1

>  <score_type>  (3) 
oracle

>  <origin>  (3) 
adg

>  <m_score__min__energy>  (3) 
-8.2400000000000002

>  <m_primary>  (3) 
energy

$$$$
3:0
     RDKit          3D

 26 26  0  0  0  0  0  0  0  0999 V2000
   54.3710   28.9500   44.5000 H   0  0  0  0  0  0  0  0  0  0  0  0
   55.2780   29.1170   44.9180 O   0  0  0  0  0  0  0  0  0  0  0  0
   55.8720   30.3540   44.8030 N   0  0  0  0  0  0  0  0  0  0  0  0
   57.0870   30.5160   44.3760 C   0  0  0  0  0  0  0  0  0  0  0  0
   57.3370   30.1567   43.3668 H   0  0  0  0  0  0  0  0  0  0  0  0
   58.1540   31.1590   45.1760 C   0  0  0  0  0  0  0  0  0  0  0  0
   59.1670   30.3680   45.7210 C   0  0  0  0  0  0  0  0  0  0  0  0
   59.1695   29.2821   45.5455 H   0  0  0  0  0  0  0  0  0  0  0  0
   60.1740   30.9500   46.4860 C   0  0  0  0  0  0  0  0  0  0  0  0
   60.9823   30.3280   46.8980 H   0  0  0  0  0  0  0  0  0  0  0  0
   60.1560   32.3340   46.7310 C   0  0  0  0  0  0  0  0  0  0  0  0
   61.1710   32.9530   47.4820 O   0  0  0  0  0  0  0  0  0  0  0  0
   62.5590   32.9050   47.1660 C   0  0  0  0  0  0  0  0  0  0  0  0
   63.1463   32.8847   48.0959 H   0  0  0  0  0  0  0  0  0  0  0  0
   62.7703   31.9990   46.5790 H   0  0  0  0  0  0  0  0  0  0  0  0
   62.8324   33.7942   46.5790 H   0  0  0  0  0  0  0  0  0  0  0  0
   59.1280   33.0960   46.2320 N   0  0  0  0  0  0  0  0  0  0  0  0
   59.0920   34.5470   46.4760 C   0  0  0  0  0  0  0  0  0  0  0  0
   59.8996   34.8175   47.1722 H   0  0  0  0  0  0  0  0  0  0  0  0
   58.1156   34.8118   46.9080 H   0  0  0  0  0  0  0  0  0  0  0  0
   59.2780   35.3110   45.1700 C   0  0  0  0  0  0  0  0  0  0  0  0
   59.5329   36.3580   45.3908 H   0  0  0  0  0  0  0  0  0  0  0  0
   60.0903   34.8507   44.5884 H   0  0  0  0  0  0  0  0  0  0  0  0
   58.3450   35.2756   44.5884 H   0  0  0  0  0  0  0  0  0  0  0  0
   58.1450   32.5320   45.4650 C   0  0  0  0  0  0  0  0  0  0  0  0
   57.3363   33.1640   45.0694 H   0  0  0  0  0  0  0  0  0  0  0  0
  1  2  1  0
  2  3  1  0
  3  4  2  0
  4  5  1  0
  4  6  1  0
  6  7  2  0
  7  8  1  0
  7  9  1  0
  9 10  1  0
  9 11  2  0
 11 12  1  0
 12 13  1  0
 13 14  1  0
 13 15  1  0
 13 16  1  0
 11 17  1  0
 17 18  1  0
 18 19  1  0
 18 20  1  0
 18 21  1  0
 21 22  1  0
 21 23  1  0
 21 24  1  0
 17 25  2  0
 25 26  1  0
 25  6  1  0
M  CHG  1  17   1
M  END
>  <UniqueID>  (4) 
4

>  <SMILES>  (4) 
CC[n+]1cc(/C=N\O)ccc1OC

>  <Energy>  (4) 
26.06340510917028

>  <Genealogy>  (4) 
CC[n+]1cc(/C=N\O)ccc1OC (cis-trans isomerization)
CC[n+]1cc(/C=N\O)ccc1OC (3D coordinates assigned)
CC[n+]1cc(/C=N\O)ccc1OC (optimized conformer: 26.06340510917028 kcal/mol)

>  <smiles>  (4) 
CC[n+]1cc(C=NO)ccc1OC

>  <score_type>  (4) 
oracle

>  <origin>  (4) 
adg

>  <m_score__min__energy>  (4) 
-4.2999999999999998

>  <m_primary>  (4) 
energy

$$$$
4:0
     RDKit          3D

 34 36  0  0  0  0  0  0  0  0999 V2000
   57.4920   32.3420   41.4070 C   0  0  0  0  0  0  0  0  0  0  0  0
   57.7120   31.8050   42.7910 C   0  0  0  0  0  0  0  0  0  0  0  0
   58.1180   32.6640   43.8170 C   0  0  0  0  0  0  0  0  0  0  0  0
   58.3660   32.1300   45.0890 C   0  0  0  0  0  0  0  0  0  0  0  0
   58.8050   32.9810   46.2250 C   0  0  0  0  0  0  0  0  0  0  0  0
   59.2210   34.3050   45.9880 C   0  0  0  0  0  0  0  0  0  0  0  0
   59.6440   35.1180   47.0440 C   0  0  0  0  0  0  0  0  0  0  0  0
   59.6660   34.6170   48.3470 C   0  0  0  0  0  0  0  0  0  0  0  0
   59.2680   33.3020   48.5970 C   0  0  0  0  0  0  0  0  0  0  0  0
   58.8430   32.4860   47.5450 C   0  0  0  0  0  0  0  0  0  0  0  0
   58.2230   30.7910   45.2770 N   0  0  0  0  0  0  0  0  0  0  0  0
   57.8350   29.9580   44.2760 C   0  0  0  0  0  0  0  0  0  0  0  0
   57.7030   28.5050   44.5520 C   0  0  0  0  0  0  0  0  0  0  0  0
   57.4060   28.0310   45.8450 C   0  0  0  0  0  0  0  0  0  0  0  0
   57.2940   26.6590   46.0870 C   0  0  0  0  0  0  0  0  0  0  0  0
   57.4830   25.7430   45.0480 C   0  0  0  0  0  0  0  0  0  0  0  0
   57.3410   24.0230   45.3560 Cl  0  0  0  0  0  0  0  0  0  0  0  0
   57.7900   26.2010   43.7640 C   0  0  0  0  0  0  0  0  0  0  0  0
   57.9040   27.5730   43.5170 C   0  0  0  0  0  0  0  0  0  0  0  0
   57.5930   30.4700   43.0340 N   0  0  0  0  0  0  0  0  0  0  0  0
   57.0757   33.3582   41.4699 H   0  0  0  0  0  0  0  0  0  0  0  0
   58.4506   32.3712   40.8683 H   0  0  0  0  0  0  0  0  0  0  0  0
   56.7884   31.6902   40.8683 H   0  0  0  0  0  0  0  0  0  0  0  0
   58.2407   33.7408   43.6290 H   0  0  0  0  0  0  0  0  0  0  0  0
   59.2132   34.7035   44.9627 H   0  0  0  0  0  0  0  0  0  0  0  0
   59.9598   36.1533   46.8480 H   0  0  0  0  0  0  0  0  0  0  0  0
   59.9970   35.2584   49.1771 H   0  0  0  0  0  0  0  0  0  0  0  0
   59.2890   32.9078   49.6237 H   0  0  0  0  0  0  0  0  0  0  0  0
   58.5357   31.4495   47.7482 H   0  0  0  0  0  0  0  0  0  0  0  0
   57.2614   28.7450   46.6691 H   0  0  0  0  0  0  0  0  0  0  0  0
   57.0563   26.2986   47.0987 H   0  0  0  0  0  0  0  0  0  0  0  0
   57.9423   25.4813   42.9461 H   0  0  0  0  0  0  0  0  0  0  0  0
   58.1528   27.9263   42.5054 H   0  0  0  0  0  0  0  0  0  0  0  0
   57.3450   29.8340   42.2420 H   0  0  0  0  0  0  0  0  0  0  0  0
  1  2  1  0
  2  3  2  0
  3  4  1  0
  4  5  1  0
  5  6  2  0
  6  7  1  0
  7  8  2  0
  8  9  1  0
  9 10  2  0
  4 11  2  0
 11 12  1  0
 12 13  1  0
 13 14  2  0
 14 15  1  0
 15 16  2  0
 16 17  1  0
 16 18  1  0
 18 19  2  0
 12 20  2  0
 20  2  1  0
 10  5  1  0
 19 13  1  0
  1 21  1  0
  1 22  1  0
  1 23  1  0
  3 24  1  0
  6 25  1  0
  7 26  1  0
  8 27  1  0
  9 28  1  0
 10 29  1  0
 14 30  1  0
 15 31  1  0
 18 32  1  0
 19 33  1  0
 20 34  1  0
M  CHG  1  20   1
M  END
>  <UniqueID>  (5) 
5

>  <SMILES>  (5) 
Cc1cc(-c2ccccc2)nc(-c2ccc(Cl)cc2)[nH+]1

>  <Energy>  (5) 
43.44225201806553

>  <Genealogy>  (5) 
Cc1cc(-c2ccccc2)nc(-c2ccc(Cl)cc2)[nH+]1 (protonated)
Cc1cc(-c2ccccc2)nc(-c2ccc(Cl)cc2)[nH+]1 (3D coordinates assigned)
Cc1cc(-c2ccccc2)nc(-c2ccc(Cl)cc2)[nH+]1 (optimized conformer: 43.44225201806553 kcal/mol)

>  <smiles>  (5) 
Cc1cc(-c2ccccc2)nc(-c2ccc(Cl)cc2)n1

>  <score_type>  (5) 
oracle

>  <origin>  (5) 
adg

>  <m_score__min__energy>  (5) 
-6.4900000000000002

>  <m_primary>  (5) 
energy

$$$$
5:0
     RDKit          3D

 45 48  0  0  0  0  0  0  0  0999 V2000
   57.0410   28.3130   45.4990 C   0  0  0  0  0  0  0  0  0  0  0  0
   56.4680   29.5900   45.2350 O   0  0  0  0  0  0  0  0  0  0  0  0
   56.9670   30.5140   44.3040 C   0  0  0  0  0  0  0  0  0  0  0  0
   56.5510   30.4950   42.9570 C   0  0  0  0  0  0  0  0  0  0  0  0
   57.0200   31.4500   42.0540 C   0  0  0  0  0  0  0  0  0  0  0  0
   57.9070   32.4380   42.4800 C   0  0  0  0  0  0  0  0  0  0  0  0
   58.3350   32.4680   43.8080 C   0  0  0  0  0  0  0  0  0  0  0  0
   57.8870   31.5030   44.7290 C   0  0  0  0  0  0  0  0  0  0  0  0
   58.3840   31.5680   46.1250 C   0  0  0  0  0  0  0  0  0  0  0  0
   59.4450   30.8660   46.6700 C   0  0  0  0  0  0  0  0  0  0  0  0
   59.5110   31.3270   47.9690 C   0  0  0  0  0  0  0  0  0  0  0  0
   60.4680   30.9000   49.0080 C   0  0  0  0  0  0  0  0  0  0  0  0
   60.3080   29.7410   49.7100 N   0  0  0  0  0  0  0  0  0  0  0  0
   61.2530   29.5690   50.6640 C   0  0  0  0  0  0  0  0  0  0  0  0
   61.3520   28.3480   51.5240 C   0  0  0  0  0  0  0  0  0  0  0  0
   62.6770   28.0750   51.8140 F   0  0  0  0  0  0  0  0  0  0  0  0
   60.8000   27.2720   50.8560 F   0  0  0  0  0  0  0  0  0  0  0  0
   60.6680   28.5500   52.7090 F   0  0  0  0  0  0  0  0  0  0  0  0
   62.3630   30.8360   50.6590 S   0  0  0  0  0  0  0  0  0  0  0  0
   61.5770   31.6500   49.4100 C   0  0  0  0  0  0  0  0  0  0  0  0
   62.0570   32.8580   48.7990 N   0  0  0  0  0  0  0  0  0  0  0  0
   61.1130   33.8540   48.2870 C   0  0  0  0  0  0  0  0  0  0  0  0
   61.2350   33.9090   46.7610 C   0  0  0  0  0  0  0  0  0  0  0  0
   62.5790   34.1410   46.3710 O   0  0  0  0  0  0  0  0  0  0  0  0
   63.4000   33.0580   46.7760 C   0  0  0  0  0  0  0  0  0  0  0  0
   63.4310   32.9440   48.3040 C   0  0  0  0  0  0  0  0  0  0  0  0
   58.5650   32.2200   48.1470 O   0  0  0  0  0  0  0  0  0  0  0  0
   57.8740   32.3960   47.0590 N   0  0  0  0  0  0  0  0  0  0  0  0
   57.1098   28.1596   46.5861 H   0  0  0  0  0  0  0  0  0  0  0  0
   56.4084   27.5289   45.0574 H   0  0  0  0  0  0  0  0  0  0  0  0
   58.0473   28.2643   45.0574 H   0  0  0  0  0  0  0  0  0  0  0  0
   55.8498   29.7197   42.6145 H   0  0  0  0  0  0  0  0  0  0  0  0
   56.6896   31.4234   41.0051 H   0  0  0  0  0  0  0  0  0  0  0  0
   58.2697   33.1945   41.7686 H   0  0  0  0  0  0  0  0  0  0  0  0
   59.0298   33.2542   44.1382 H   0  0  0  0  0  0  0  0  0  0  0  0
   60.0854   30.1164   46.1821 H   0  0  0  0  0  0  0  0  0  0  0  0
   59.5360   29.0580   49.5430 H   0  0  0  0  0  0  0  0  0  0  0  0
   60.0877   33.5698   48.5662 H   0  0  0  0  0  0  0  0  0  0  0  0
   61.3404   34.8408   48.7165 H   0  0  0  0  0  0  0  0  0  0  0  0
   60.8967   32.9518   46.3375 H   0  0  0  0  0  0  0  0  0  0  0  0
   60.6119   34.7348   46.3871 H   0  0  0  0  0  0  0  0  0  0  0  0
   63.0014   32.1245   46.3522 H   0  0  0  0  0  0  0  0  0  0  0  0
   64.4234   33.2351   46.4136 H   0  0  0  0  0  0  0  0  0  0  0  0
   63.9863   32.0404   48.5960 H   0  0  0  0  0  0  0  0  0  0  0  0
   63.9284   33.8257   48.7343 H   0  0  0  0  0  0  0  0  0  0  0  0
  1  2  1  0
  2  3  1  0
  3  4  2  0
  4  5  1  0
  5  6  2  0
  6  7  1  0
  7  8  2  0
  8  9  1  0
  9 10  1  0
 10 11  2  0
 11 12  1  0
 12 13  1  0
 13 14  2  0
 14 15  1  0
 15 16  1  0
 15 17  1  0
 15 18  1  0
 14 19  1  0
 19 20  1  0
 20 21  1  0
 21 22  1  0
 22 23  1  0
 23 24  1  0
 24 25  1  0
 25 26  1  0
 11 27  1  0
 27 28  1  0
  8  3  1  0
 28  9  2  0
 20 12  2  0
 26 21  1  0
  1 29  1  0
  1 30  1  0
  1 31  1  0
  4 32  1  0
  5 33  1  0
  6 34  1  0
  7 35  1  0
 10 36  1  0
 13 37  1  0
 22 38  1  0
 22 39  1  0
 23 40  1  0
 23 41  1  0
 25 42  1  0
 25 43  1  0
 26 44  1  0
 26 45  1  0
M  CHG  1  13   1
M  END
>  <UniqueID>  (6) 
6

>  <SMILES>  (6) 
COc1ccccc1-c1cc(-c2[nH+]c(C(F)(F)F)sc2N2CCOCC2)on1

>  <Energy>  (6) 
117.4364348643332

>  <Genealogy>  (6) 
COc1ccccc1-c1cc(-c2[nH+]c(C(F)(F)F)sc2N2CCOCC2)on1 (protonated)
COc1ccccc1-c1cc(-c2[nH+]c(C(F)(F)F)sc2N2CCOCC2)on1 (3D coordinates assigned)
COc1ccccc1-c1cc(-c2[nH+]c(C(F)(F)F)sc2N2CCOCC2)on1 (nonaromatic ring conformer: 117.4364348643332 kcal/mol)

>  <smiles>  (6) 
COc1ccccc1-c1cc(-c2nc(C(F)(F)F)sc2N2CCOCC2)on1

>  <score_type>  (6) 
oracle

>  <origin>  (6) 
adg

>  <m_score__min__energy>  (6) 
-6.2000000000000002

>  <m_primary>  (6) 
energy

$$$$
6:0
     RDKit          3D

 46 48  0  0  0  0  0  0  0  0999 V2000
   59.9030   33.6380   49.1490 C   0  0  0  0  0  0  0  0  0  0  0  0
   58.7450   33.2350   48.4250 O   0  0  0  0  0  0  0  0  0  0  0  0
   58.6540   33.2100   47.0240 C   0  0  0  0  0  0  0  0  0  0  0  0
   59.0390   34.2990   46.2270 C   0  0  0  0  0  0  0  0  0  0  0  0
   58.9130   34.2330   44.8420 C   0  0  0  0  0  0  0  0  0  0  0  0
   58.4070   33.0820   44.2310 C   0  0  0  0  0  0  0  0  0  0  0  0
   58.2730   33.0610   42.8800 N   0  0  0  0  0  0  0  0  0  0  0  0
   57.7760   31.9860   42.2260 C   0  0  0  0  0  0  0  0  0  0  0  0
   57.3910   30.8520   42.9350 C   0  0  0  0  0  0  0  0  0  0  0  0
   57.5250   30.8000   44.3350 C   0  0  0  0  0  0  0  0  0  0  0  0
   57.0840   29.4940   45.0070 C   0  0  1  0  0  0  0  0  0  0  0  0
   55.6940   29.3860   45.1520 O   0  0  0  0  0  0  0  0  0  0  0  0
   57.6870   28.2370   44.3390 C   0  0  0  0  0  0  0  0  0  0  0  0
   58.4440   27.2640   45.2700 C   0  0  0  0  0  0  0  0  0  0  0  0
   57.6110   26.0440   45.7380 C   0  0  2  0  0  0  0  0  0  0  0  0
   57.5990   24.9140   44.6900 C   0  0  0  0  0  0  0  0  0  0  0  0
   56.8160   23.6920   45.2070 C   0  0  0  0  0  0  0  0  0  0  0  0
   55.6650   24.0910   46.1460 C   0  0  0  0  0  0  0  0  0  0  0  0
   55.1570   25.4200   45.7930 N   0  0  0  0  0  0  0  0  0  0  0  0
   56.1520   26.4730   46.0720 C   0  0  0  0  0  0  0  0  0  0  0  0
   58.0280   31.9560   45.0110 C   0  0  0  0  0  0  0  0  0  0  0  0
   58.1570   32.0520   46.4150 C   0  0  0  0  0  0  0  0  0  0  0  0
   59.7032   33.5685   50.2285 H   0  0  0  0  0  0  0  0  0  0  0  0
   60.7454   32.9802   48.8889 H   0  0  0  0  0  0  0  0  0  0  0  0
   60.1550   34.6767   48.8889 H   0  0  0  0  0  0  0  0  0  0  0  0
   59.4417   35.2078   46.6981 H   0  0  0  0  0  0  0  0  0  0  0  0
   59.2136   35.0922   44.2245 H   0  0  0  0  0  0  0  0  0  0  0  0
   57.6759   32.0083   41.1308 H   0  0  0  0  0  0  0  0  0  0  0  0
   56.9776   29.9872   42.3954 H   0  0  0  0  0  0  0  0  0  0  0  0
   57.5004   29.5451   46.0239 H   0  0  0  0  0  0  0  0  0  0  0  0
   55.4650   29.7750   46.0370 H   0  0  0  0  0  0  0  0  0  0  0  0
   56.8634   27.6792   43.8695 H   0  0  0  0  0  0  0  0  0  0  0  0
   58.4412   28.6135   43.6323 H   0  0  0  0  0  0  0  0  0  0  0  0
   59.3276   26.8906   44.7316 H   0  0  0  0  0  0  0  0  0  0  0  0
   58.7011   27.8334   46.1754 H   0  0  0  0  0  0  0  0  0  0  0  0
   58.0931   25.6538   46.6465 H   0  0  0  0  0  0  0  0  0  0  0  0
   57.1241   25.2824   43.7687 H   0  0  0  0  0  0  0  0  0  0  0  0
   58.6368   24.6079   44.4918 H   0  0  0  0  0  0  0  0  0  0  0  0
   56.3983   23.1494   44.3461 H   0  0  0  0  0  0  0  0  0  0  0  0
   57.5138   23.0624   45.7785 H   0  0  0  0  0  0  0  0  0  0  0  0
   54.8517   23.3560   46.0555 H   0  0  0  0  0  0  0  0  0  0  0  0
   56.0390   24.1143   47.1802 H   0  0  0  0  0  0  0  0  0  0  0  0
   54.3080   25.6100   46.3750 H   0  0  0  0  0  0  0  0  0  0  0  0
   55.9017   27.3587   45.4696 H   0  0  0  0  0  0  0  0  0  0  0  0
   56.1122   26.6819   47.1513 H   0  0  0  0  0  0  0  0  0  0  0  0
   57.8605   31.1986   47.0425 H   0  0  0  0  0  0  0  0  0  0  0  0
  1  2  1  0
  2  3  1  0
  3  4  2  0
  4  5  1  0
  5  6  2  0
  6  7  1  0
  7  8  2  0
  8  9  1  0
  9 10  2  0
 10 11  1  0
 11 12  1  0
 11 13  1  0
 13 14  1  0
 14 15  1  0
 15 16  1  0
 16 17  1  0
 17 18  1  0
 18 19  1  0
 19 20  1  0
 10 21  1  0
 21 22  2  0
 22  3  1  0
 21  6  1  0
 20 15  1  0
  1 23  1  0
  1 24  1  0
  1 25  1  0
  4 26  1  0
  5 27  1  0
  8 28  1  0
  9 29  1  0
 11 30  1  1
 12 31  1  0
 13 32  1  0
 13 33  1  0
 14 34  1  0
 14 35  1  0
 15 36  1  1
 16 37  1  0
 16 38  1  0
 17 39  1  0
 17 40  1  0
 18 41  1  0
 18 42  1  0
 19 43  1  0
 20 44  1  0
 20 45  1  0
 22 46  1  0
M  END
>  <UniqueID>  (7) 
7

>  <SMILES>  (7) 
COc1ccc2nccc([C@@H](O)CC[C@@H]3CCCNC3)c2c1

>  <Energy>  (7) 
59.03086836810194

>  <Genealogy>  (7) 
COc1ccc2nccc([C@@H](O)CC[C@@H]3CCCNC3)c2c1 (chirality)
COc1ccc2nccc([C@@H](O)CC[C@@H]3CCCNC3)c2c1 (3D coordinates assigned)
COc1ccc2nccc([C@@H](O)CC[C@@H]3CCCNC3)c2c1 (nonaromatic ring conformer: 59.03086836810194 kcal/mol)

>  <smiles>  (7) 
COc1ccc2nccc(C(O)CCC3CCCNC3)c2c1

>  <score_type>  (7) 
oracle

>  <origin>  (7) 
adg

>  <m_score__min__energy>  (7) 
-8.7100000000000009

>  <m_primary>  (7) 
energy

$$$$
7:0
     RDKit          3D

 29 29  0  0  0  0  0  0  0  0999 V2000
   60.5970   34.1370   47.7770 C   0  0  0  0  0  0  0  0  0  0  0  0
   59.2510   34.6540   47.2830 C   0  0  0  0  0  0  0  0  0  0  0  0
   59.2840   34.9650   45.4830 S   0  0  0  0  0  0  0  0  0  0  0  0
   58.5630   33.3860   45.0320 C   0  0  0  0  0  0  0  0  0  0  0  0
   58.2830   33.0930   43.6940 C   0  0  0  0  0  0  0  0  0  0  0  0
   57.7260   31.8560   43.3690 C   0  0  0  0  0  0  0  0  0  0  0  0
   57.4630   30.9210   44.3760 C   0  0  0  0  0  0  0  0  0  0  0  0
   56.7370   29.3610   43.9970 S   0  0  0  0  0  0  0  0  0  0  0  0
   56.3140   29.3650   42.5550 O   0  0  0  0  0  0  0  0  0  0  0  0
   55.5180   29.1430   44.8530 O   0  0  0  0  0  0  0  0  0  0  0  0
   57.8980   28.0850   44.2680 N   0  0  0  0  0  0  0  0  0  0  0  0
   57.9940   27.2460   43.0660 C   0  0  0  0  0  0  0  0  0  0  0  0
   59.2070   28.6770   44.5720 C   0  0  0  0  0  0  0  0  0  0  0  0
   57.7620   31.2530   45.7040 C   0  0  0  0  0  0  0  0  0  0  0  0
   58.3040   32.4650   45.9990 N   0  0  0  0  0  0  0  0  0  0  0  0
   60.6070   34.1332   48.8769 H   0  0  0  0  0  0  0  0  0  0  0  0
   60.7557   33.1139   47.4053 H   0  0  0  0  0  0  0  0  0  0  0  0
   61.3997   34.7908   47.4053 H   0  0  0  0  0  0  0  0  0  0  0  0
   58.4759   33.9053   47.5038 H   0  0  0  0  0  0  0  0  0  0  0  0
   59.0317   35.6017   47.7966 H   0  0  0  0  0  0  0  0  0  0  0  0
   58.4995   33.8296   42.9063 H   0  0  0  0  0  0  0  0  0  0  0  0
   57.4936   31.6157   42.3210 H   0  0  0  0  0  0  0  0  0  0  0  0
   58.1144   26.1935   43.3622 H   0  0  0  0  0  0  0  0  0  0  0  0
   57.0774   27.3560   42.4679 H   0  0  0  0  0  0  0  0  0  0  0  0
   58.8620   27.5602   42.4679 H   0  0  0  0  0  0  0  0  0  0  0  0
   59.3382   28.7363   45.6625 H   0  0  0  0  0  0  0  0  0  0  0  0
   60.0018   28.0507   44.1406 H   0  0  0  0  0  0  0  0  0  0  0  0
   59.2616   29.6874   44.1406 H   0  0  0  0  0  0  0  0  0  0  0  0
   57.5580   30.5321   46.5094 H   0  0  0  0  0  0  0  0  0  0  0  0
  1  2  1  0
  2  3  1  0
  3  4  1  0
  4  5  2  0
  5  6  1  0
  6  7  2  0
  7  8  1  0
  8  9  2  0
  8 10  2  0
  8 11  1  0
 11 12  1  0
 11 13  1  0
  7 14  1  0
 14 15  2  0
 15  4  1  0
  1 16  1  0
  1 17  1  0
  1 18  1  0
  2 19  1  0
  2 20  1  0
  5 21  1  0
  6 22  1  0
 12 23  1  0
 12 24  1  0
 12 25  1  0
 13 26  1  0
 13 27  1  0
 13 28  1  0
 14 29  1  0
M  END
>  <UniqueID>  (8) 
8

>  <SMILES>  (8) 
CCSc1ccc(S(=O)(=O)N(C)C)cn1

>  <Energy>  (8) 
19.101109539321794

>  <Genealogy>  (8) 
CCSc1ccc(S(=O)(=O)N(C)C)cn1 (3D coordinates assigned)
CCSc1ccc(S(=O)(=O)N(C)C)cn1 (optimized conformer: 19.101109539321794 kcal/mol)

>  <smiles>  (8) 
CCSc1ccc(S(=O)(=O)N(C)C)cn1

>  <score_type>  (8) 
oracle

>  <origin>  (8) 
adg

>  <m_score__min__energy>  (8) 
-6.2300000000000004

>  <m_primary>  (8) 
energy

$$$$
8:0
     RDKit          3D

 59 61  0  0  0  0  0  0  0  0999 V2000
   56.3270   29.7070   42.6770 C   0  0  0  0  0  0  0  0  0  0  0  0
   56.2250   30.1570   44.1330 C   0  0  0  0  0  0  0  0  0  0  0  0
   56.2670   28.9860   45.1290 C   0  0  0  0  0  0  0  0  0  0  0  0
   57.6570   28.3310   45.2520 C   0  0  0  0  0  0  0  0  0  0  0  0
   58.7880   29.2710   44.8110 C   0  0  0  0  0  0  0  0  0  0  0  0
   59.0020   30.3220   45.8210 N   0  0  0  0  0  0  0  0  0  0  0  0
   59.2810   29.9400   47.1000 C   0  0  0  0  0  0  0  0  0  0  0  0
   59.4760   30.8850   48.1130 C   0  0  0  0  0  0  0  0  0  0  0  0
   59.7730   30.5050   49.4350 O   0  0  0  0  0  0  0  0  0  0  0  0
   60.7810   29.5750   49.8340 C   0  0  0  0  0  0  0  0  0  0  0  0
   62.1470   30.2620   50.0370 C   0  0  0  0  0  0  0  0  0  0  0  0
   62.2780   31.5470   49.3030 N   0  0  0  0  0  0  0  0  0  0  0  0
   62.7150   31.2770   47.9060 C   0  0  0  0  0  0  0  0  0  0  0  0
   63.2670   32.5260   47.1790 C   0  0  0  0  0  0  0  0  0  0  0  0
   62.8020   33.8220   47.8420 C   0  0  0  0  0  0  0  0  0  0  0  0
   63.2190   33.8620   49.3200 C   0  0  0  0  0  0  0  0  0  0  0  0
   63.2240   32.4660   49.9770 C   0  0  0  0  0  0  0  0  0  0  0  0
   59.3610   32.2500   47.8010 C   0  0  0  0  0  0  0  0  0  0  0  0
   59.5620   33.2150   48.8040 C   0  0  0  0  0  0  0  0  0  0  0  0
   59.4570   34.5690   48.5180 C   0  0  0  0  0  0  0  0  0  0  0  0
   59.1520   34.9900   47.2300 C   0  0  0  0  0  0  0  0  0  0  0  0
   58.9470   34.0620   46.1950 C   0  0  0  0  0  0  0  0  0  0  0  0
   58.6240   34.6150   44.8270 C   0  0  0  0  0  0  0  0  0  0  0  0
   59.0540   32.6600   46.4720 C   0  0  0  0  0  0  0  0  0  0  0  0
   58.8700   31.6470   45.4910 C   0  0  0  0  0  0  0  0  0  0  0  0
   58.5750   31.9540   44.3040 O   0  0  0  0  0  0  0  0  0  0  0  0
   56.5700   28.6348   42.6408 H   0  0  0  0  0  0  0  0  0  0  0  0
   55.3663   29.8825   42.1708 H   0  0  0  0  0  0  0  0  0  0  0  0
   57.1181   30.2796   42.1708 H   0  0  0  0  0  0  0  0  0  0  0  0
   57.0655   30.8325   44.3507 H   0  0  0  0  0  0  0  0  0  0  0  0
   55.2531   30.6576   44.2550 H   0  0  0  0  0  0  0  0  0  0  0  0
   55.9702   29.3610   46.1196 H   0  0  0  0  0  0  0  0  0  0  0  0
   55.5793   28.2154   44.7506 H   0  0  0  0  0  0  0  0  0  0  0  0
   57.8223   28.0476   46.3019 H   0  0  0  0  0  0  0  0  0  0  0  0
   57.6736   27.4526   44.5901 H   0  0  0  0  0  0  0  0  0  0  0  0
   59.7148   28.6913   44.6885 H   0  0  0  0  0  0  0  0  0  0  0  0
   58.5099   29.7427   43.8570 H   0  0  0  0  0  0  0  0  0  0  0  0
   59.3541   28.8689   47.3397 H   0  0  0  0  0  0  0  0  0  0  0  0
   60.4758   29.1032   50.7797 H   0  0  0  0  0  0  0  0  0  0  0  0
   60.8904   28.8263   49.0356 H   0  0  0  0  0  0  0  0  0  0  0  0
   62.2817   30.4589   51.1108 H   0  0  0  0  0  0  0  0  0  0  0  0
   62.9141   29.5817   49.6386 H   0  0  0  0  0  0  0  0  0  0  0  0
   61.3370   32.0050   49.2560 H   0  0  0  0  0  0  0  0  0  0  0  0
   63.5042   30.5111   47.9301 H   0  0  0  0  0  0  0  0  0  0  0  0
   61.8272   30.9443   47.3482 H   0  0  0  0  0  0  0  0  0  0  0  0
   64.3663   32.4915   47.1973 H   0  0  0  0  0  0  0  0  0  0  0  0
   62.8876   32.5155   46.1466 H   0  0  0  0  0  0  0  0  0  0  0  0
   63.2532   34.6770   47.3172 H   0  0  0  0  0  0  0  0  0  0  0  0
   61.7046   33.8718   47.7850 H   0  0  0  0  0  0  0  0  0  0  0  0
   64.2316   34.2864   49.3883 H   0  0  0  0  0  0  0  0  0  0  0  0
   62.4818   34.4780   49.8559 H   0  0  0  0  0  0  0  0  0  0  0  0
   64.2382   32.0447   49.9141 H   0  0  0  0  0  0  0  0  0  0  0  0
   62.9109   32.5763   51.0257 H   0  0  0  0  0  0  0  0  0  0  0  0
   59.8053   32.8929   49.8272 H   0  0  0  0  0  0  0  0  0  0  0  0
   59.6159   35.3113   49.3141 H   0  0  0  0  0  0  0  0  0  0  0  0
   59.0697   36.0660   47.0170 H   0  0  0  0  0  0  0  0  0  0  0  0
   58.0719   35.5603   44.9346 H   0  0  0  0  0  0  0  0  0  0  0  0
   59.5580   34.7967   44.2751 H   0  0  0  0  0  0  0  0  0  0  0  0
   58.0069   33.8907   44.2751 H   0  0  0  0  0  0  0  0  0  0  0  0
  1  2  1  0
  2  3  1  0
  3  4  1  0
  4  5  1  0
  5  6  1  0
  6  7  1  0
  7  8  2  0
  8  9  1  0
  9 10  1  0
 10 11  1  0
 11 12  1  0
 12 13  1  0
 13 14  1  0
 14 15  1  0
 15 16  1  0
 16 17  1  0
  8 18  1  0
 18 19  2  0
 19 20  1  0
 20 21  2  0
 21 22  1  0
 22 23  1  0
 22 24  2  0
 24 25  1  0
 25 26  2  0
 25  6  1  0
 17 12  1  0
 24 18  1  0
  1 27  1  0
  1 28  1  0
  1 29  1  0
  2 30  1  0
  2 31  1  0
  3 32  1  0
  3 33  1  0
  4 34  1  0
  4 35  1  0
  5 36  1  0
  5 37  1  0
  7 38  1  0
 10 39  1  0
 10 40  1  0
 11 41  1  0
 11 42  1  0
 12 43  1  0
 13 44  1  0
 13 45  1  0
 14 46  1  0
 14 47  1  0
 15 48  1  0
 15 49  1  0
 16 50  1  0
 16 51  1  0
 17 52  1  0
 17 53  1  0
 19 54  1  0
 20 55  1  0
 21 56  1  0
 23 57  1  0
 23 58  1  0
 23 59  1  0
M  CHG  1  12   1
M  END
>  <UniqueID>  (9) 
9

>  <SMILES>  (9) 
CCCCCn1cc(OCC[NH+]2CCCCC2)c2cccc(C)c2c1=O

>  <Energy>  (9) 
71.547169098773

>  <Genealogy>  (9) 
CCCCCn1cc(OCC[NH+]2CCCCC2)c2cccc(C)c2c1=O (protonated)
CCCCCn1cc(OCC[NH+]2CCCCC2)c2cccc(C)c2c1=O (3D coordinates assigned)
CCCCCn1cc(OCC[NH+]2CCCCC2)c2cccc(C)c2c1=O (nonaromatic ring conformer: 71.547169098773 kcal/mol)

>  <smiles>  (9) 
CCCCCn1cc(OCCN2CCCCC2)c2cccc(C)c2c1=O

>  <score_type>  (9) 
oracle

>  <origin>  (9) 
adg

>  <m_score__min__energy>  (9) 
-6.5

>  <m_primary>  (9) 
energy

$$$$
9:0
     RDKit          3D

 63 66  0  0  0  0  0  0  0  0999 V2000
   58.1470   27.0810   42.9980 C   0  0  0  0  0  0  0  0  0  0  0  0
   57.8850   28.0510   44.0740 N   0  0  0  0  0  0  0  0  0  0  0  0
   56.9700   29.1370   43.6370 C   0  0  0  0  0  0  0  0  0  0  0  0
   57.5000   30.5340   43.8880 C   0  0  0  0  0  0  0  0  0  0  0  0
   57.6330   31.4500   42.8310 C   0  0  0  0  0  0  0  0  0  0  0  0
   58.1160   32.7360   43.0710 C   0  0  0  0  0  0  0  0  0  0  0  0
   58.4800   33.1220   44.3630 C   0  0  0  0  0  0  0  0  0  0  0  0
   58.3750   32.2150   45.4330 C   0  0  0  0  0  0  0  0  0  0  0  0
   58.7770   32.6110   46.8060 C   0  0  0  0  0  0  0  0  0  0  0  0
   59.3180   33.8850   47.0570 C   0  0  0  0  0  0  0  0  0  0  0  0
   59.6650   34.2640   48.3580 C   0  0  0  0  0  0  0  0  0  0  0  0
   59.4740   33.3780   49.4290 C   0  0  0  0  0  0  0  0  0  0  0  0
   59.8420   33.7920   50.8280 C   0  0  0  0  0  0  0  0  0  0  0  0
   61.2830   34.0530   50.9130 N   0  0  0  0  0  0  0  0  0  0  0  0
   61.9490   32.9790   51.6580 C   0  0  0  0  0  0  0  0  0  0  0  0
   62.9630   32.2550   50.7470 C   0  0  0  0  0  0  0  0  0  0  0  0
   62.7400   32.4590   49.2970 N   0  0  0  0  0  0  0  0  0  0  0  0
   62.3810   31.2310   48.5670 C   0  0  0  0  0  0  0  0  0  0  0  0
   61.9540   31.5900   47.1260 C   0  0  0  0  0  0  0  0  0  0  0  0
   62.4040   32.8710   46.7100 O   0  0  0  0  0  0  0  0  0  0  0  0
   63.7470   33.0710   47.1060 C   0  0  0  0  0  0  0  0  0  0  0  0
   63.8350   33.2030   48.6380 C   0  0  0  0  0  0  0  0  0  0  0  0
   58.9640   32.0960   49.1790 C   0  0  0  0  0  0  0  0  0  0  0  0
   58.6130   31.7180   47.8810 C   0  0  0  0  0  0  0  0  0  0  0  0
   57.8860   30.9210   45.1830 C   0  0  0  0  0  0  0  0  0  0  0  0
   57.4550   27.3600   45.3070 C   0  0  0  0  0  0  0  0  0  0  0  0
   58.4320   27.5720   46.4280 C   0  0  0  0  0  0  0  0  0  0  0  0
   59.6430   26.8890   46.5150 C   0  0  0  0  0  0  0  0  0  0  0  0
   60.4440   27.4500   47.8800 S   0  0  0  0  0  0  0  0  0  0  0  0
   59.2340   28.5440   48.2900 C   0  0  0  0  0  0  0  0  0  0  0  0
   58.2170   28.4950   47.4050 N   0  0  0  0  0  0  0  0  0  0  0  0
   58.4099   26.1076   43.4378 H   0  0  0  0  0  0  0  0  0  0  0  0
   57.2464   26.9711   42.3761 H   0  0  0  0  0  0  0  0  0  0  0  0
   58.9805   27.4395   42.3761 H   0  0  0  0  0  0  0  0  0  0  0  0
   56.7918   29.0244   42.5574 H   0  0  0  0  0  0  0  0  0  0  0  0
   56.0513   29.0355   44.2334 H   0  0  0  0  0  0  0  0  0  0  0  0
   57.3549   31.1514   41.8095 H   0  0  0  0  0  0  0  0  0  0  0  0
   58.2107   33.4495   42.2392 H   0  0  0  0  0  0  0  0  0  0  0  0
   58.8510   34.1414   44.5449 H   0  0  0  0  0  0  0  0  0  0  0  0
   59.4692   34.5880   46.2245 H   0  0  0  0  0  0  0  0  0  0  0  0
   60.0898   35.2618   48.5424 H   0  0  0  0  0  0  0  0  0  0  0  0
   59.2903   34.7056   51.0942 H   0  0  0  0  0  0  0  0  0  0  0  0
   59.5809   32.9813   51.5242 H   0  0  0  0  0  0  0  0  0  0  0  0
   61.6680   34.0530   49.9370 H   0  0  0  0  0  0  0  0  0  0  0  0
   62.4773   33.4084   52.5220 H   0  0  0  0  0  0  0  0  0  0  0  0
   61.1942   32.2572   52.0033 H   0  0  0  0  0  0  0  0  0  0  0  0
   63.9702   32.6213   50.9947 H   0  0  0  0  0  0  0  0  0  0  0  0
   62.8391   31.1782   50.9344 H   0  0  0  0  0  0  0  0  0  0  0  0
   63.2501   30.5575   48.5341 H   0  0  0  0  0  0  0  0  0  0  0  0
   61.5468   30.7313   49.0812 H   0  0  0  0  0  0  0  0  0  0  0  0
   62.3674   30.8352   46.4409 H   0  0  0  0  0  0  0  0  0  0  0  0
   60.8543   31.6087   47.1069 H   0  0  0  0  0  0  0  0  0  0  0  0
   64.3537   32.2135   46.7796 H   0  0  0  0  0  0  0  0  0  0  0  0
   64.1241   33.9951   46.6436 H   0  0  0  0  0  0  0  0  0  0  0  0
   64.8000   32.8001   48.9791 H   0  0  0  0  0  0  0  0  0  0  0  0
   63.7462   34.2666   48.9041 H   0  0  0  0  0  0  0  0  0  0  0  0
   58.8398   31.3848   50.0089 H   0  0  0  0  0  0  0  0  0  0  0  0
   58.2047   30.7132   47.6975 H   0  0  0  0  0  0  0  0  0  0  0  0
   57.8044   30.2020   46.0115 H   0  0  0  0  0  0  0  0  0  0  0  0
   56.4725   27.7502   45.6110 H   0  0  0  0  0  0  0  0  0  0  0  0
   57.4009   26.2817   45.0965 H   0  0  0  0  0  0  0  0  0  0  0  0
   60.0081   26.1217   45.8165 H   0  0  0  0  0  0  0  0  0  0  0  0
   59.2675   29.2111   49.1640 H   0  0  0  0  0  0  0  0  0  0  0  0
  1  2  1  0
  2  3  1  0
  3  4  1  0
  4  5  2  0
  5  6  1  0
  6  7  2  0
  7  8  1  0
  8  9  1  0
  9 10  2  0
 10 11  1  0
 11 12  2  0
 12 13  1  0
 13 14  1  0
 14 15  1  0
 15 16  1  0
 16 17  1  0
 17 18  1  0
 18 19  1  0
 19 20  1  0
 20 21  1  0
 21 22  1  0
 12 23  1  0
 23 24  2  0
  8 25  2  0
  2 26  1  0
 26 27  1  0
 27 28  2  0
 28 29  1  0
 29 30  1  0
 30 31  2  0
 25  4  1  0
 31 27  1  0
 24  9  1  0
 22 17  1  0
  1 32  1  0
  1 33  1  0
  1 34  1  0
  3 35  1  0
  3 36  1  0
  5 37  1  0
  6 38  1  0
  7 39  1  0
 10 40  1  0
 11 41  1  0
 13 42  1  0
 13 43  1  0
 14 44  1  0
 15 45  1  0
 15 46  1  0
 16 47  1  0
 16 48  1  0
 18 49  1  0
 18 50  1  0
 19 51  1  0
 19 52  1  0
 21 53  1  0
 21 54  1  0
 22 55  1  0
 22 56  1  0
 23 57  1  0
 24 58  1  0
 25 59  1  0
 26 60  1  0
 26 61  1  0
 28 62  1  0
 30 63  1  0
M  END
>  <UniqueID>  (10) 
10

>  <SMILES>  (10) 
CN(Cc1cccc(-c2ccc(CNCCN3CCOCC3)cc2)c1)Cc1cscn1

>  <Energy>  (10) 
111.63135275871012

>  <Genealogy>  (10) 
CN(Cc1cccc(-c2ccc(CNCCN3CCOCC3)cc2)c1)Cc1cscn1 (3D coordinates assigned)
CN(Cc1cccc(-c2ccc(CNCCN3CCOCC3)cc2)c1)Cc1cscn1 (nonaromatic ring conformer: 111.63135275871012 kcal/mol)

>  <smiles>  (10) 
CN(Cc1cccc(-c2ccc(CNCCN3CCOCC3)cc2)c1)Cc1cscn1

>  <score_type>  (10) 
oracle

>  <origin>  (10) 
adg

>  <m_score__min__energy>  (10) 
-9.5700000000000003

>  <m_primary>  (10) 
energy

$$$$
10:0
     RDKit          3D

 29 30  0  0  0  0  0  0  0  0999 V2000
   62.1710   34.0080   49.2520 C   0  0  0  0  0  0  0  0  0  0  0  0
   60.7790   34.3040   49.2720 O   0  0  0  0  0  0  0  0  0  0  0  0
   59.9120   34.1060   48.1860 C   0  0  0  0  0  0  0  0  0  0  0  0
   58.9430   33.0860   48.1690 C   0  0  0  0  0  0  0  0  0  0  0  0
   58.1070   32.9270   47.0610 C   0  0  0  0  0  0  0  0  0  0  0  0
   58.2260   33.7810   45.9540 C   0  0  0  0  0  0  0  0  0  0  0  0
   57.3670   33.5770   44.7360 C   0  0  0  0  0  0  0  0  0  0  0  0
   58.1460   32.3950   43.5800 S   0  0  0  0  0  0  0  0  0  0  0  0
   57.3130   30.9530   44.2530 C   0  0  0  0  0  0  0  0  0  0  0  0
   55.9800   30.8750   44.4200 N   0  0  0  0  0  0  0  0  0  0  0  0
   55.7260   29.6710   44.9130 N   0  0  0  0  0  0  0  0  0  0  0  0
   56.9070   29.0330   45.0360 C   0  0  0  0  0  0  0  0  0  0  0  0
   57.9230   29.8170   44.6400 N   0  0  0  0  0  0  0  0  0  0  0  0
   59.3250   29.4380   44.5030 C   0  0  0  0  0  0  0  0  0  0  0  0
   59.1930   34.7970   45.9710 C   0  0  0  0  0  0  0  0  0  0  0  0
   60.0270   34.9580   47.0810 C   0  0  0  0  0  0  0  0  0  0  0  0
   62.5439   33.9287   50.2838 H   0  0  0  0  0  0  0  0  0  0  0  0
   62.3357   33.0548   48.7284 H   0  0  0  0  0  0  0  0  0  0  0  0
   62.7093   34.8118   48.7284 H   0  0  0  0  0  0  0  0  0  0  0  0
   58.8432   32.4109   49.0317 H   0  0  0  0  0  0  0  0  0  0  0  0
   57.3512   32.1278   47.0564 H   0  0  0  0  0  0  0  0  0  0  0  0
   56.3878   33.1842   45.0474 H   0  0  0  0  0  0  0  0  0  0  0  0
   57.2478   34.5432   44.2238 H   0  0  0  0  0  0  0  0  0  0  0  0
   57.0233   28.0056   45.4113 H   0  0  0  0  0  0  0  0  0  0  0  0
   59.7714   29.3173   45.5011 H   0  0  0  0  0  0  0  0  0  0  0  0
   59.3960   28.4884   43.9523 H   0  0  0  0  0  0  0  0  0  0  0  0
   59.8648   30.2225   43.9523 H   0  0  0  0  0  0  0  0  0  0  0  0
   59.2954   35.4700   45.1069 H   0  0  0  0  0  0  0  0  0  0  0  0
   60.7795   35.7603   47.0864 H   0  0  0  0  0  0  0  0  0  0  0  0
  1  2  1  0
  2  3  1  0
  3  4  2  0
  4  5  1  0
  5  6  2  0
  6  7  1  0
  7  8  1  0
  8  9  1  0
  9 10  2  0
 10 11  1  0
 11 12  2  0
 12 13  1  0
 13 14  1  0
  6 15  1  0
 15 16  2  0
 16  3  1  0
 13  9  1  0
  1 17  1  0
  1 18  1  0
  1 19  1  0
  4 20  1  0
  5 21  1  0
  7 22  1  0
  7 23  1  0
 12 24  1  0
 14 25  1  0
 14 26  1  0
 14 27  1  0
 15 28  1  0
 16 29  1  0
M  END
>  <UniqueID>  (11) 
11

>  <SMILES>  (11) 
COc1ccc(CSc2nncn2C)cc1

>  <Energy>  (11) 
56.67768765661062

>  <Genealogy>  (11) 
COc1ccc(CSc2nncn2C)cc1 (3D coordinates assigned)
COc1ccc(CSc2nncn2C)cc1 (optimized conformer: 56.67768765661062 kcal/mol)

>  <smiles>  (11) 
COc1ccc(CSc2nncn2C)cc1

>  <score_type>  (11) 
oracle

>  <origin>  (11) 
adg

>  <m_score__min__energy>  (11) 
-6.3499999999999996

>  <m_primary>  (11) 
energy

$$$$
11:0
     RDKit          3D

 53 57  0  0  0  0  0  0  0  0999 V2000
   63.1250   34.6140   50.5800 C   0  0  0  0  0  0  0  0  0  0  0  0
   62.7910   34.1030   49.2590 N   0  0  0  0  0  0  0  0  0  0  0  0
   61.5730   33.7010   48.8610 C   0  0  0  0  0  0  0  0  0  0  0  0
   61.6880   33.1830   47.5800 C   0  0  0  0  0  0  0  0  0  0  0  0
   60.6020   32.5830   46.7780 C   0  0  0  0  0  0  0  0  0  0  0  0
   60.1300   31.2770   47.0280 C   0  0  0  0  0  0  0  0  0  0  0  0
   59.0950   30.7740   46.2330 C   0  0  0  0  0  0  0  0  0  0  0  0
   58.5140   31.5720   45.2660 C   0  0  0  0  0  0  0  0  0  0  0  0
   58.9910   32.8560   45.0270 C   0  0  0  0  0  0  0  0  0  0  0  0
   60.0200   33.3260   45.7860 N   0  0  0  0  0  0  0  0  0  0  0  0
   57.2340   30.7590   44.4160 S   0  0  0  0  0  0  0  0  0  0  0  0
   57.3840   30.8330   42.9270 O   0  0  0  0  0  0  0  0  0  0  0  0
   55.8740   31.1930   44.8690 O   0  0  0  0  0  0  0  0  0  0  0  0
   57.7150   29.1750   45.0620 C   0  0  2  0  0  0  0  0  0  0  0  0
   56.6260   28.1300   45.2470 C   0  0  0  0  0  0  0  0  0  0  0  0
   57.2230   26.9180   45.8520 N   0  0  0  0  0  0  0  0  0  0  0  0
   56.6190   25.6340   45.5610 C   0  0  0  0  0  0  0  0  0  0  0  0
   55.4700   25.3620   46.0100 O   0  0  0  0  0  0  0  0  0  0  0  0
   57.2890   24.6550   44.7500 N   0  0  0  0  0  0  0  0  0  0  0  0
   58.4570   23.9350   45.2780 C   0  0  0  0  0  0  0  0  0  0  0  0
   58.6390   22.6160   44.5270 C   0  0  0  0  0  0  0  0  0  0  0  0
   57.3760   22.0200   44.3110 O   0  0  0  0  0  0  0  0  0  0  0  0
   56.6670   22.7230   43.3040 C   0  0  0  0  0  0  0  0  0  0  0  0
   56.7000   24.2620   43.4650 C   0  0  0  0  0  0  0  0  0  0  0  0
   58.1980   27.0310   46.9660 C   0  0  0  0  0  0  0  0  0  0  0  0
   59.1580   28.2380   46.8390 C   0  0  0  0  0  0  0  0  0  0  0  0
   58.3620   29.4720   46.4200 C   0  0  1  0  0  0  0  0  0  0  0  0
   63.0330   33.2960   47.2590 C   0  0  0  0  0  0  0  0  0  0  0  0
   63.6710   33.8510   48.3020 N   0  0  0  0  0  0  0  0  0  0  0  0
   62.6941   33.9547   51.3479 H   0  0  0  0  0  0  0  0  0  0  0  0
   64.2185   34.6454   50.6953 H   0  0  0  0  0  0  0  0  0  0  0  0
   62.7149   35.6282   50.6953 H   0  0  0  0  0  0  0  0  0  0  0  0
   60.6458   33.7705   49.4488 H   0  0  0  0  0  0  0  0  0  0  0  0
   60.5672   30.6667   47.8320 H   0  0  0  0  0  0  0  0  0  0  0  0
   58.5454   33.4811   44.2391 H   0  0  0  0  0  0  0  0  0  0  0  0
   58.3730   28.7116   44.3121 H   0  0  0  0  0  0  0  0  0  0  0  0
   55.8427   28.5262   45.9099 H   0  0  0  0  0  0  0  0  0  0  0  0
   56.1801   27.8797   44.2731 H   0  0  0  0  0  0  0  0  0  0  0  0
   59.3564   24.5550   45.1492 H   0  0  0  0  0  0  0  0  0  0  0  0
   58.3000   23.7246   46.3462 H   0  0  0  0  0  0  0  0  0  0  0  0
   59.1240   22.8090   43.5587 H   0  0  0  0  0  0  0  0  0  0  0  0
   59.2678   21.9380   45.1228 H   0  0  0  0  0  0  0  0  0  0  0  0
   57.1081   22.4682   42.3291 H   0  0  0  0  0  0  0  0  0  0  0  0
   55.6133   22.4181   43.3864 H   0  0  0  0  0  0  0  0  0  0  0  0
   57.2992   24.6940   42.6500 H   0  0  0  0  0  0  0  0  0  0  0  0
   55.6658   24.6352   43.4305 H   0  0  0  0  0  0  0  0  0  0  0  0
   57.6381   27.1314   47.9075 H   0  0  0  0  0  0  0  0  0  0  0  0
   58.8200   26.1241   46.9392 H   0  0  0  0  0  0  0  0  0  0  0  0
   59.6436   28.4252   47.8081 H   0  0  0  0  0  0  0  0  0  0  0  0
   59.9267   28.0203   46.0829 H   0  0  0  0  0  0  0  0  0  0  0  0
   57.6837   29.6307   47.2713 H   0  0  0  0  0  0  0  0  0  0  0  0
   63.4974   32.9842   46.3118 H   0  0  0  0  0  0  0  0  0  0  0  0
   64.6930   34.0290   48.3690 H   0  0  0  0  0  0  0  0  0  0  0  0
  1  2  1  0
  2  3  1  0
  3  4  2  0
  4  5  1  0
  5  6  2  0
  6  7  1  0
  7  8  2  0
  8  9  1  0
  9 10  2  0
  8 11  1  0
 11 12  2  0
 11 13  2  0
 11 14  1  0
 14 15  1  0
 15 16  1  0
 16 17  1  0
 17 18  2  0
 17 19  1  0
 19 20  1  0
 20 21  1  0
 21 22  1  0
 22 23  1  0
 23 24  1  0
 16 25  1  0
 25 26  1  0
 26 27  1  0
  4 28  1  0
 28 29  2  0
 29  2  1  0
 10  5  1  0
 27 14  1  0
 27  7  1  0
 24 19  1  0
  1 30  1  0
  1 31  1  0
  1 32  1  0
  3 33  1  0
  6 34  1  0
  9 35  1  0
 14 36  1  6
 15 37  1  0
 15 38  1  0
 20 39  1  0
 20 40  1  0
 21 41  1  0
 21 42  1  0
 23 43  1  0
 23 44  1  0
 24 45  1  0
 24 46  1  0
 25 47  1  0
 25 48  1  0
 26 49  1  0
 26 50  1  0
 27 51  1  1
 28 52  1  0
 29 53  1  0
M  CHG  1  29   1
M  END
>  <UniqueID>  (12) 
12

>  <SMILES>  (12) 
Cn1cc(-c2cc3c(cn2)S(=O)(=O)[C@@H]2CN(C(=O)N4CCOCC4)CC[C@@H]32)c[nH+]1

>  <Energy>  (12) 
118.56947421518491

>  <Genealogy>  (12) 
Cn1cc(-c2cc3c(cn2)S(=O)(=O)C2CN(C(=O)N4CCOCC4)CCC32)c[nH+]1 (protonated)
Cn1cc(-c2cc3c(cn2)S(=O)(=O)[C@@H]2CN(C(=O)N4CCOCC4)CC[C@@H]32)c[nH+]1 (chirality)
Cn1cc(-c2cc3c(cn2)S(=O)(=O)[C@@H]2CN(C(=O)N4CCOCC4)CC[C@@H]32)c[nH+]1 (3D coordinates assigned)
Cn1cc(-c2cc3c(cn2)S(=O)(=O)[C@@H]2CN(C(=O)N4CCOCC4)CC[C@@H]32)c[nH+]1 (nonaromatic ring conformer: 118.56947421518491 kcal/mol)

>  <smiles>  (12) 
Cn1cc(-c2cc3c(cn2)S(=O)(=O)C2CN(C(=O)N4CCOCC4)CCC32)cn1

>  <score_type>  (12) 
oracle

>  <origin>  (12) 
adg

>  <m_score__min__energy>  (12) 
-7.9900000000000002

>  <m_primary>  (12) 
energy

$$$$
12:0
     RDKit          3D

 28 29  0  0  0  0  0  0  0  0999 V2000
   57.0220   30.9110   43.2570 C   0  0  0  0  0  0  0  0  0  0  0  0
   57.4060   30.5860   45.0050 S   0  0  0  0  0  0  0  0  0  0  0  0
   58.1200   32.2070   45.2670 C   0  0  0  0  0  0  0  0  0  0  0  0
   57.5310   33.3390   44.6960 C   0  0  0  0  0  0  0  0  0  0  0  0
   58.1130   34.5910   44.9080 C   0  0  0  0  0  0  0  0  0  0  0  0
   59.2700   34.6980   45.6830 C   0  0  0  0  0  0  0  0  0  0  0  0
   59.8370   33.5400   46.2390 C   0  0  0  0  0  0  0  0  0  0  0  0
   61.0310   33.6190   47.0410 N   0  0  0  0  0  0  0  0  0  0  0  0
   62.2430   33.4860   46.4160 C   0  0  0  0  0  0  0  0  0  0  0  0
   63.4350   33.5890   47.1320 C   0  0  0  0  0  0  0  0  0  0  0  0
   63.3900   33.8330   48.5000 C   0  0  0  0  0  0  0  0  0  0  0  0
   62.1600   33.9630   49.1390 C   0  0  0  0  0  0  0  0  0  0  0  0
   60.9710   33.8400   48.4010 C   0  0  0  0  0  0  0  0  0  0  0  0
   59.6550   33.9660   49.1280 C   0  0  0  0  0  0  0  0  0  0  0  0
   59.2440   32.3330   46.0210 N   0  0  0  0  0  0  0  0  0  0  0  0
   56.1838   31.6204   43.1915 H   0  0  0  0  0  0  0  0  0  0  0  0
   57.9052   31.3401   42.7612 H   0  0  0  0  0  0  0  0  0  0  0  0
   56.7447   29.9690   42.7612 H   0  0  0  0  0  0  0  0  0  0  0  0
   56.6199   33.2449   44.0869 H   0  0  0  0  0  0  0  0  0  0  0  0
   57.6610   35.4909   44.4654 H   0  0  0  0  0  0  0  0  0  0  0  0
   59.7329   35.6807   45.8563 H   0  0  0  0  0  0  0  0  0  0  0  0
   62.2762   33.2951   45.3332 H   0  0  0  0  0  0  0  0  0  0  0  0
   64.4019   33.4783   46.6193 H   0  0  0  0  0  0  0  0  0  0  0  0
   64.3231   33.9230   49.0755 H   0  0  0  0  0  0  0  0  0  0  0  0
   62.1192   34.1617   50.2201 H   0  0  0  0  0  0  0  0  0  0  0  0
   59.8326   33.9490   50.2134 H   0  0  0  0  0  0  0  0  0  0  0  0
   59.1720   34.9145   48.8503 H   0  0  0  0  0  0  0  0  0  0  0  0
   59.0008   33.1264   48.8503 H   0  0  0  0  0  0  0  0  0  0  0  0
  1  2  1  0
  2  3  1  0
  3  4  2  0
  4  5  1  0
  5  6  2  0
  6  7  1  0
  7  8  1  0
  8  9  2  0
  9 10  1  0
 10 11  2  0
 11 12  1  0
 12 13  2  0
 13 14  1  0
  7 15  2  0
 15  3  1  0
 13  8  1  0
  1 16  1  0
  1 17  1  0
  1 18  1  0
  4 19  1  0
  5 20  1  0
  6 21  1  0
  9 22  1  0
 10 23  1  0
 11 24  1  0
 12 25  1  0
 14 26  1  0
 14 27  1  0
 14 28  1  0
M  CHG  1   8   1
M  END
>  <UniqueID>  (13) 
13

>  <SMILES>  (13) 
CSc1cccc(-[n+]2ccccc2C)n1

>  <Energy>  (13) 
32.5568282120875

>  <Genealogy>  (13) 
CSc1cccc(-[n+]2ccccc2C)n1 (3D coordinates assigned)
CSc1cccc(-[n+]2ccccc2C)n1 (optimized conformer: 32.5568282120875 kcal/mol)

>  <smiles>  (13) 
CSc1cccc(-[n+]2ccccc2C)n1

>  <score_type>  (13) 
oracle

>  <origin>  (13) 
adg

>  <m_score__min__energy>  (13) 
-4.8099999999999996

>  <m_primary>  (13) 
energy

$$$$
13:0
     RDKit          3D

 42 45  0  0  0  0  0  0  0  0999 V2000
   57.6110   26.2450   44.0150 F   0  0  0  0  0  0  0  0  0  0  0  0
   58.1610   27.2420   44.7510 C   0  0  0  0  0  0  0  0  0  0  0  0
   57.6150   27.5770   45.9930 C   0  0  0  0  0  0  0  0  0  0  0  0
   58.1800   28.6070   46.7520 C   0  0  0  0  0  0  0  0  0  0  0  0
   59.3030   29.3100   46.2790 C   0  0  0  0  0  0  0  0  0  0  0  0
   59.8860   30.4040   47.0930 C   0  0  0  0  0  0  0  0  0  0  0  0
   61.0910   30.3210   47.7050 N   0  0  0  0  0  0  0  0  0  0  0  0
   61.2930   31.5340   48.2540 C   0  0  0  0  0  0  0  0  0  0  0  0
   62.4380   31.9390   48.9390 C   0  0  0  0  0  0  0  0  0  0  0  0
   62.5080   33.2750   49.3600 C   0  0  0  0  0  0  0  0  0  0  0  0
   63.9250   33.8470   50.2220 Cl  0  0  0  0  0  0  0  0  0  0  0  0
   61.4580   34.1660   49.0660 C   0  0  0  0  0  0  0  0  0  0  0  0
   60.3330   33.7040   48.3690 C   0  0  0  0  0  0  0  0  0  0  0  0
   60.2780   32.3880   48.0220 N   0  0  0  0  0  0  0  0  0  0  0  0
   59.3660   31.6810   47.3180 C   0  0  0  0  0  0  0  0  0  0  0  0
   58.1510   32.2090   46.7630 N   0  0  0  0  0  0  0  0  0  0  0  0
   58.0050   32.5840   45.3530 C   0  0  0  0  0  0  0  0  0  0  0  0
   57.7590   31.3590   44.4580 C   0  0  2  0  0  0  0  0  0  0  0  0
   57.5890   31.7320   42.9930 C   0  0  0  0  0  0  0  0  0  0  0  0
   56.6430   30.6860   42.4770 C   0  0  0  0  0  0  0  0  0  0  0  0
   56.0740   30.0360   43.7300 C   0  0  0  0  0  0  0  0  0  0  0  0
   56.6180   30.6510   44.8750 O   0  0  0  0  0  0  0  0  0  0  0  0
   59.8370   28.9670   45.0250 C   0  0  0  0  0  0  0  0  0  0  0  0
   59.2710   27.9390   44.2670 C   0  0  0  0  0  0  0  0  0  0  0  0
   56.7400   27.0301   46.3741 H   0  0  0  0  0  0  0  0  0  0  0  0
   57.7427   28.8695   47.7266 H   0  0  0  0  0  0  0  0  0  0  0  0
   61.7420   29.5040   47.7300 H   0  0  0  0  0  0  0  0  0  0  0  0
   63.2583   31.2348   49.1422 H   0  0  0  0  0  0  0  0  0  0  0  0
   61.5202   35.2180   49.3813 H   0  0  0  0  0  0  0  0  0  0  0  0
   59.5128   34.3890   48.1081 H   0  0  0  0  0  0  0  0  0  0  0  0
   57.3460   32.3760   47.4090 H   0  0  0  0  0  0  0  0  0  0  0  0
   57.1536   33.2734   45.2545 H   0  0  0  0  0  0  0  0  0  0  0  0
   58.9410   33.0618   45.0281 H   0  0  0  0  0  0  0  0  0  0  0  0
   58.6540   30.7272   44.5566 H   0  0  0  0  0  0  0  0  0  0  0  0
   57.1574   32.7386   42.8903 H   0  0  0  0  0  0  0  0  0  0  0  0
   58.5412   31.7599   42.4429 H   0  0  0  0  0  0  0  0  0  0  0  0
   55.8422   31.1465   41.8799 H   0  0  0  0  0  0  0  0  0  0  0  0
   57.1413   29.9596   41.8182 H   0  0  0  0  0  0  0  0  0  0  0  0
   54.9802   30.1526   43.7375 H   0  0  0  0  0  0  0  0  0  0  0  0
   56.3325   28.9668   43.7342 H   0  0  0  0  0  0  0  0  0  0  0  0
   60.7092   29.5133   44.6366 H   0  0  0  0  0  0  0  0  0  0  0  0
   59.6997   27.6781   43.2881 H   0  0  0  0  0  0  0  0  0  0  0  0
  1  2  1  0
  2  3  2  0
  3  4  1  0
  4  5  2  0
  5  6  1  0
  6  7  1  0
  7  8  2  0
  8  9  1  0
  9 10  2  0
 10 11  1  0
 10 12  1  0
 12 13  2  0
 13 14  1  0
 14 15  1  0
 15 16  1  0
 16 17  1  0
 17 18  1  0
 18 19  1  0
 19 20  1  0
 20 21  1  0
 21 22  1  0
  5 23  1  0
 23 24  2  0
 24  2  1  0
 15  6  2  0
 22 18  1  0
 14  8  1  0
  3 25  1  0
  4 26  1  0
  7 27  1  0
  9 28  1  0
 12 29  1  0
 13 30  1  0
 16 31  1  0
 17 32  1  0
 17 33  1  0
 18 34  1  6
 19 35  1  0
 19 36  1  0
 20 37  1  0
 20 38  1  0
 21 39  1  0
 21 40  1  0
 23 41  1  0
 24 42  1  0
M  CHG  1   7   1
M  END
>  <UniqueID>  (14) 
14

>  <SMILES>  (14) 
Fc1ccc(-c2[nH+]c3cc(Cl)ccn3c2NC[C@@H]2CCCO2)cc1

>  <Energy>  (14) 
87.47942232301524

>  <Genealogy>  (14) 
Fc1ccc(-c2[nH+]c3cc(Cl)ccn3c2NCC2CCCO2)cc1 (protonated)
Fc1ccc(-c2[nH+]c3cc(Cl)ccn3c2NC[C@@H]2CCCO2)cc1 (chirality)
Fc1ccc(-c2[nH+]c3cc(Cl)ccn3c2NC[C@@H]2CCCO2)cc1 (3D coordinates assigned)
Fc1ccc(-c2[nH+]c3cc(Cl)ccn3c2NC[C@@H]2CCCO2)cc1 (nonaromatic ring conformer: 87.47942232301524 kcal/mol)

>  <smiles>  (14) 
Fc1ccc(-c2nc3cc(Cl)ccn3c2NCC2CCCO2)cc1

>  <score_type>  (14) 
oracle

>  <origin>  (14) 
adg

>  <m_score__min__energy>  (14) 
-5.8600000000000003

>  <m_primary>  (14) 
energy

$$$$
14:0
     RDKit          3D

 57 61  0  0  0  0  0  0  0  0999 V2000
   65.5300   32.3100   50.2490 C   0  0  0  0  0  0  0  0  0  0  0  0
   64.4180   32.9620   49.5710 N   0  0  0  0  0  0  0  0  0  0  0  0
   64.1360   32.8790   48.2560 C   0  0  0  0  0  0  0  0  0  0  0  0
   62.9480   33.5480   48.0330 C   0  0  0  0  0  0  0  0  0  0  0  0
   62.1840   33.6260   46.7490 C   0  0  0  0  0  0  0  0  0  0  0  0
   61.0900   32.6560   46.7490 N   0  0  0  0  0  0  0  0  0  0  0  0
   61.2690   31.2070   46.8570 C   0  0  0  0  0  0  0  0  0  0  0  0
   59.8590   30.5650   46.5810 C   0  0  0  0  0  0  0  0  0  0  0  0
   59.9530   29.4570   45.4890 C   0  0  0  0  0  0  0  0  0  0  0  0
   58.9470   28.3240   45.7370 C   0  0  0  0  0  0  0  0  0  0  0  0
   59.1820   27.6470   47.0410 N   0  0  0  0  0  0  0  0  0  0  0  0
   57.9920   26.8800   47.4670 C   0  0  0  0  0  0  0  0  0  0  0  0
   57.6270   25.8330   46.4470 C   0  0  0  0  0  0  0  0  0  0  0  0
   56.2980   25.7130   46.0060 C   0  0  0  0  0  0  0  0  0  0  0  0
   55.9480   24.7260   45.0810 C   0  0  0  0  0  0  0  0  0  0  0  0
   56.9210   23.8470   44.5890 C   0  0  0  0  0  0  0  0  0  0  0  0
   56.5600   22.8300   43.6370 C   0  0  0  0  0  0  0  0  0  0  0  0
   56.2690   22.0120   42.8720 N   0  0  0  0  0  0  0  0  0  0  0  0
   58.2460   23.9580   45.0290 C   0  0  0  0  0  0  0  0  0  0  0  0
   58.5970   24.9450   45.9550 C   0  0  0  0  0  0  0  0  0  0  0  0
   59.6550   28.5570   48.1200 C   0  0  0  0  0  0  0  0  0  0  0  0
   59.2330   30.0150   47.8920 C   0  0  0  0  0  0  0  0  0  0  0  0
   59.0650   31.7540   46.1050 C   0  0  0  0  0  0  0  0  0  0  0  0
   57.7560   31.8140   45.6160 C   0  0  0  0  0  0  0  0  0  0  0  0
   57.2370   33.0650   45.2520 C   0  0  0  0  0  0  0  0  0  0  0  0
   58.0370   34.2150   45.3920 C   0  0  0  0  0  0  0  0  0  0  0  0
   59.3050   34.1150   45.8820 N   0  0  0  0  0  0  0  0  0  0  0  0
   59.7980   32.8980   46.2330 C   0  0  0  0  0  0  0  0  0  0  0  0
   62.5320   33.9930   49.2750 C   0  0  0  0  0  0  0  0  0  0  0  0
   63.4490   33.6200   50.1860 N   0  0  0  0  0  0  0  0  0  0  0  0
   65.3935   32.3900   51.3376 H   0  0  0  0  0  0  0  0  0  0  0  0
   65.5639   31.2490   49.9608 H   0  0  0  0  0  0  0  0  0  0  0  0
   66.4725   32.7986   49.9608 H   0  0  0  0  0  0  0  0  0  0  0  0
   64.7442   32.3687   47.4946 H   0  0  0  0  0  0  0  0  0  0  0  0
   61.7707   34.6389   46.6337 H   0  0  0  0  0  0  0  0  0  0  0  0
   62.8634   33.3986   45.9143 H   0  0  0  0  0  0  0  0  0  0  0  0
   61.9990   30.8570   46.1123 H   0  0  0  0  0  0  0  0  0  0  0  0
   61.6491   30.9244   47.8498 H   0  0  0  0  0  0  0  0  0  0  0  0
   59.7471   29.9071   44.5067 H   0  0  0  0  0  0  0  0  0  0  0  0
   60.9655   29.0284   45.5236 H   0  0  0  0  0  0  0  0  0  0  0  0
   57.9304   28.7442   45.7329 H   0  0  0  0  0  0  0  0  0  0  0  0
   59.0716   27.5775   44.9387 H   0  0  0  0  0  0  0  0  0  0  0  0
   58.2071   26.3870   48.4265 H   0  0  0  0  0  0  0  0  0  0  0  0
   57.1466   27.5762   47.5705 H   0  0  0  0  0  0  0  0  0  0  0  0
   55.5295   26.3995   46.3910 H   0  0  0  0  0  0  0  0  0  0  0  0
   54.9063   24.6392   44.7386 H   0  0  0  0  0  0  0  0  0  0  0  0
   59.0117   23.2676   44.6455 H   0  0  0  0  0  0  0  0  0  0  0  0
   59.6384   25.0263   46.2999 H   0  0  0  0  0  0  0  0  0  0  0  0
   59.2359   28.2149   49.0778 H   0  0  0  0  0  0  0  0  0  0  0  0
   60.7546   28.5258   48.1230 H   0  0  0  0  0  0  0  0  0  0  0  0
   58.1367   30.0672   47.8191 H   0  0  0  0  0  0  0  0  0  0  0  0
   59.5867   30.6236   48.7373 H   0  0  0  0  0  0  0  0  0  0  0  0
   57.1484   30.9022   45.5193 H   0  0  0  0  0  0  0  0  0  0  0  0
   56.2125   33.1471   44.8600 H   0  0  0  0  0  0  0  0  0  0  0  0
   57.6370   35.1986   45.1047 H   0  0  0  0  0  0  0  0  0  0  0  0
   61.6096   34.5554   49.4822 H   0  0  0  0  0  0  0  0  0  0  0  0
   63.3980   33.7870   51.2160 H   0  0  0  0  0  0  0  0  0  0  0  0
  1  2  1  0
  2  3  1  0
  3  4  2  0
  4  5  1  0
  5  6  1  0
  6  7  1  0
  7  8  1  0
  8  9  1  0
  9 10  1  0
 10 11  1  0
 11 12  1  0
 12 13  1  0
 13 14  2  0
 14 15  1  0
 15 16  2  0
 16 17  1  0
 17 18  3  0
 16 19  1  0
 19 20  2  0
 11 21  1  0
 21 22  1  0
  8 23  1  0
 23 24  2  0
 24 25  1  0
 25 26  2  0
 26 27  1  0
 27 28  2  0
  4 29  1  0
 29 30  2  0
 30  2  1  0
 28  6  1  0
 22  8  1  0
 28 23  1  0
 20 13  1  0
  1 31  1  0
  1 32  1  0
  1 33  1  0
  3 34  1  0
  5 35  1  0
  5 36  1  0
  7 37  1  0
  7 38  1  0
  9 39  1  0
  9 40  1  0
 10 41  1  0
 10 42  1  0
 12 43  1  0
 12 44  1  0
 14 45  1  0
 15 46  1  0
 19 47  1  0
 20 48  1  0
 21 49  1  0
 21 50  1  0
 22 51  1  0
 22 52  1  0
 24 53  1  0
 25 54  1  0
 26 55  1  0
 29 56  1  0
 30 57  1  0
M  CHG  1  30   1
M  END
>  <UniqueID>  (15) 
15

>  <SMILES>  (15) 
Cn1cc(CN2CC3(CCN(Cc4ccc(C#N)cc4)CC3)c3cccnc32)c[nH+]1

>  <Energy>  (15) 
115.40179796122825

>  <Genealogy>  (15) 
Cn1cc(CN2CC3(CCN(Cc4ccc(C#N)cc4)CC3)c3cccnc32)c[nH+]1 (protonated)
Cn1cc(CN2CC3(CCN(Cc4ccc(C#N)cc4)CC3)c3cccnc32)c[nH+]1 (3D coordinates assigned)
Cn1cc(CN2CC3(CCN(Cc4ccc(C#N)cc4)CC3)c3cccnc32)c[nH+]1 (nonaromatic ring conformer: 115.40179796122825 kcal/mol)

>  <smiles>  (15) 
Cn1cc(CN2CC3(CCN(Cc4ccc(C#N)cc4)CC3)c3cccnc32)cn1

>  <score_type>  (15) 
oracle

>  <origin>  (15) 
adg

>  <m_score__min__energy>  (15) 
-7.8499999999999996

>  <m_primary>  (15) 
energy

$$$$
15:0
     RDKit          3D

 45 48  0  0  0  0  0  0  0  0999 V2000
   59.6550   33.4570   50.5920 C   0  0  0  0  0  0  0  0  0  0  0  0
   59.7760   33.0600   49.2310 O   0  0  0  0  0  0  0  0  0  0  0  0
   60.9730   33.0770   48.4970 C   0  0  0  0  0  0  0  0  0  0  0  0
   62.1990   32.6810   49.0670 C   0  0  0  0  0  0  0  0  0  0  0  0
   63.3670   32.6820   48.3010 C   0  0  0  0  0  0  0  0  0  0  0  0
   63.3270   33.0760   46.9630 C   0  0  0  0  0  0  0  0  0  0  0  0
   62.1200   33.4720   46.3870 C   0  0  0  0  0  0  0  0  0  0  0  0
   60.9390   33.4840   47.1470 C   0  0  0  0  0  0  0  0  0  0  0  0
   59.7000   33.8930   46.5400 N   0  0  0  0  0  0  0  0  0  0  0  0
   59.6190   34.0660   45.0880 C   0  0  0  0  0  0  0  0  0  0  0  0
   58.1610   34.2370   44.6360 C   0  0  0  0  0  0  0  0  0  0  0  0
   57.2400   33.3410   45.3660 N   0  0  0  0  0  0  0  0  0  0  0  0
   57.4100   31.6680   44.8740 S   0  0  0  0  0  0  0  0  0  0  0  0
   56.0710   30.9880   44.8680 O   0  0  0  0  0  0  0  0  0  0  0  0
   57.9570   31.6270   43.4740 O   0  0  0  0  0  0  0  0  0  0  0  0
   58.5550   30.8280   45.9270 C   0  0  0  0  0  0  0  0  0  0  0  0
   58.5170   31.0680   47.3180 C   0  0  0  0  0  0  0  0  0  0  0  0
   59.4010   30.3970   48.1940 C   0  0  0  0  0  0  0  0  0  0  0  0
   60.3350   29.4720   47.6960 C   0  0  0  0  0  0  0  0  0  0  0  0
   60.3470   29.2510   46.3240 C   0  0  0  0  0  0  0  0  0  0  0  0
   61.1300   28.4190   45.6180 N   0  0  0  0  0  0  0  0  0  0  0  0
   60.7420   28.5770   44.3780 O   0  0  0  0  0  0  0  0  0  0  0  0
   59.7740   29.4450   44.2380 N   0  0  0  0  0  0  0  0  0  0  0  0
   59.5000   29.8940   45.4730 C   0  0  0  0  0  0  0  0  0  0  0  0
   57.2910   33.4860   46.8440 C   0  0  0  0  0  0  0  0  0  0  0  0
   58.5360   34.2260   47.3620 C   0  0  0  0  0  0  0  0  0  0  0  0
   59.9130   32.6104   51.2452 H   0  0  0  0  0  0  0  0  0  0  0  0
   60.3383   34.2956   50.7915 H   0  0  0  0  0  0  0  0  0  0  0  0
   58.6201   33.7719   50.7915 H   0  0  0  0  0  0  0  0  0  0  0  0
   62.2366   32.3693   50.1212 H   0  0  0  0  0  0  0  0  0  0  0  0
   64.3204   32.3715   48.7535 H   0  0  0  0  0  0  0  0  0  0  0  0
   64.2482   33.0743   46.3619 H   0  0  0  0  0  0  0  0  0  0  0  0
   62.0929   33.7769   45.3305 H   0  0  0  0  0  0  0  0  0  0  0  0
   60.1925   34.9592   44.7993 H   0  0  0  0  0  0  0  0  0  0  0  0
   60.0338   33.1695   44.6039 H   0  0  0  0  0  0  0  0  0  0  0  0
   57.8555   35.2788   44.8127 H   0  0  0  0  0  0  0  0  0  0  0  0
   58.1067   33.9787   43.5681 H   0  0  0  0  0  0  0  0  0  0  0  0
   57.7903   31.7863   47.7253 H   0  0  0  0  0  0  0  0  0  0  0  0
   59.3575   30.6005   49.2741 H   0  0  0  0  0  0  0  0  0  0  0  0
   61.0292   28.9437   48.3661 H   0  0  0  0  0  0  0  0  0  0  0  0
   59.3360   29.7030   43.3300 H   0  0  0  0  0  0  0  0  0  0  0  0
   56.3992   34.0431   47.1670 H   0  0  0  0  0  0  0  0  0  0  0  0
   57.3317   32.4687   47.2604 H   0  0  0  0  0  0  0  0  0  0  0  0
   58.3585   35.3107   47.3182 H   0  0  0  0  0  0  0  0  0  0  0  0
   58.7300   33.9190   48.4003 H   0  0  0  0  0  0  0  0  0  0  0  0
  1  2  1  0
  2  3  1  0
  3  4  2  0
  4  5  1  0
  5  6  2  0
  6  7  1  0
  7  8  2  0
  8  9  1  0
  9 10  1  0
 10 11  1  0
 11 12  1  0
 12 13  1  0
 13 14  2  0
 13 15  2  0
 13 16  1  0
 16 17  2  0
 17 18  1  0
 18 19  2  0
 19 20  1  0
 20 21  2  0
 21 22  1  0
 22 23  1  0
 23 24  2  0
 12 25  1  0
 25 26  1  0
  8  3  1  0
 26  9  1  0
 24 16  1  0
 24 20  1  0
  1 27  1  0
  1 28  1  0
  1 29  1  0
  4 30  1  0
  5 31  1  0
  6 32  1  0
  7 33  1  0
 10 34  1  0
 10 35  1  0
 11 36  1  0
 11 37  1  0
 17 38  1  0
 18 39  1  0
 19 40  1  0
 23 41  1  0
 25 42  1  0
 25 43  1  0
 26 44  1  0
 26 45  1  0
M  CHG  1  23   1
M  END
>  <UniqueID>  (16) 
16

>  <SMILES>  (16) 
COc1ccccc1N1CCN(S(=O)(=O)c2cccc3no[nH+]c23)CC1

>  <Energy>  (16) 
104.35327076289263

>  <Genealogy>  (16) 
COc1ccccc1N1CCN(S(=O)(=O)c2cccc3no[nH+]c23)CC1 (protonated)
COc1ccccc1N1CCN(S(=O)(=O)c2cccc3no[nH+]c23)CC1 (3D coordinates assigned)
COc1ccccc1N1CCN(S(=O)(=O)c2cccc3no[nH+]c23)CC1 (nonaromatic ring conformer: 104.35327076289263 kcal/mol)

>  <smiles>  (16) 
COc1ccccc1N1CCN(S(=O)(=O)c2cccc3nonc23)CC1

>  <score_type>  (16) 
oracle

>  <origin>  (16) 
adg

>  <m_score__min__energy>  (16) 
-7.4400000000000004

>  <m_primary>  (16) 
energy

$$$$
16:0
     RDKit          3D

 50 53  0  0  0  0  0  0  0  0999 V2000
   59.7350   33.4520   50.8660 C   0  0  0  0  0  0  0  0  0  0  0  0
   60.1600   34.2360   49.7580 O   0  0  0  0  0  0  0  0  0  0  0  0
   61.2720   33.9420   48.9530 C   0  0  0  0  0  0  0  0  0  0  0  0
   62.5680   33.8070   49.4900 C   0  0  0  0  0  0  0  0  0  0  0  0
   63.6460   33.4860   48.6590 C   0  0  0  0  0  0  0  0  0  0  0  0
   63.4450   33.2970   47.2900 C   0  0  0  0  0  0  0  0  0  0  0  0
   62.1660   33.4330   46.7470 C   0  0  0  0  0  0  0  0  0  0  0  0
   61.0780   33.7640   47.5700 C   0  0  0  0  0  0  0  0  0  0  0  0
   59.7690   33.9090   46.9980 N   0  0  0  0  0  0  0  0  0  0  0  0
   58.6540   33.1450   47.5650 C   0  0  0  0  0  0  0  0  0  0  0  0
   57.4080   33.2500   46.6690 C   0  0  0  0  0  0  0  0  0  0  0  0
   57.7730   33.3440   45.2410 N   0  0  0  0  0  0  0  0  0  0  0  0
   58.4330   32.1170   44.7300 C   0  0  0  0  0  0  0  0  0  0  0  0
   57.4280   31.2490   43.9680 C   0  0  0  0  0  0  0  0  0  0  0  0
   57.5280   29.8440   44.3610 N   0  0  0  0  0  0  0  0  0  0  0  0
   56.4710   29.0260   44.8670 C   0  0  0  0  0  0  0  0  0  0  0  0
   55.2510   29.3360   44.8290 O   0  0  0  0  0  0  0  0  0  0  0  0
   57.0220   27.8120   45.4600 C   0  0  0  0  0  0  0  0  0  0  0  0
   56.3920   26.7370   46.0850 C   0  0  0  0  0  0  0  0  0  0  0  0
   57.2000   25.7050   46.5950 C   0  0  0  0  0  0  0  0  0  0  0  0
   58.6050   25.7710   46.4770 C   0  0  0  0  0  0  0  0  0  0  0  0
   59.2180   26.8690   45.8470 C   0  0  0  0  0  0  0  0  0  0  0  0
   58.3950   27.8760   45.3440 C   0  0  0  0  0  0  0  0  0  0  0  0
   58.7250   29.1300   44.6760 C   0  0  0  0  0  0  0  0  0  0  0  0
   59.8890   29.5520   44.4380 O   0  0  0  0  0  0  0  0  0  0  0  0
   58.5370   34.5810   44.9460 C   0  0  0  0  0  0  0  0  0  0  0  0
   59.4930   35.0160   46.0800 C   0  0  0  0  0  0  0  0  0  0  0  0
   60.0105   33.9602   51.8019 H   0  0  0  0  0  0  0  0  0  0  0  0
   58.6433   33.3228   50.8265 H   0  0  0  0  0  0  0  0  0  0  0  0
   60.2225   32.4667   50.8265 H   0  0  0  0  0  0  0  0  0  0  0  0
   62.7323   33.9548   50.5676 H   0  0  0  0  0  0  0  0  0  0  0  0
   64.6549   33.3821   49.0848 H   0  0  0  0  0  0  0  0  0  0  0  0
   64.2943   33.0410   46.6395 H   0  0  0  0  0  0  0  0  0  0  0  0
   62.0101   33.2800   45.6689 H   0  0  0  0  0  0  0  0  0  0  0  0
   58.9479   32.0885   47.6516 H   0  0  0  0  0  0  0  0  0  0  0  0
   58.4117   33.5575   48.5555 H   0  0  0  0  0  0  0  0  0  0  0  0
   56.7832   32.3573   46.8200 H   0  0  0  0  0  0  0  0  0  0  0  0
   56.8607   34.1632   46.9456 H   0  0  0  0  0  0  0  0  0  0  0  0
   59.2527   32.4011   44.0537 H   0  0  0  0  0  0  0  0  0  0  0  0
   58.8275   31.5428   45.5813 H   0  0  0  0  0  0  0  0  0  0  0  0
   56.4106   31.6085   44.1818 H   0  0  0  0  0  0  0  0  0  0  0  0
   57.6517   31.3239   42.8936 H   0  0  0  0  0  0  0  0  0  0  0  0
   55.2965   26.6971   46.1765 H   0  0  0  0  0  0  0  0  0  0  0  0
   56.7336   24.8401   47.0894 H   0  0  0  0  0  0  0  0  0  0  0  0
   59.2254   24.9574   46.8809 H   0  0  0  0  0  0  0  0  0  0  0  0
   60.3123   26.9314   45.7540 H   0  0  0  0  0  0  0  0  0  0  0  0
   59.1332   34.4107   44.0374 H   0  0  0  0  0  0  0  0  0  0  0  0
   57.7999   35.3884   44.8244 H   0  0  0  0  0  0  0  0  0  0  0  0
   60.4400   35.3595   45.6381 H   0  0  0  0  0  0  0  0  0  0  0  0
   59.0118   35.8259   46.6479 H   0  0  0  0  0  0  0  0  0  0  0  0
  1  2  1  0
  2  3  1  0
  3  4  2  0
  4  5  1  0
  5  6  2  0
  6  7  1  0
  7  8  2  0
  8  9  1  0
  9 10  1  0
 10 11  1  0
 11 12  1  0
 12 13  1  0
 13 14  1  0
 14 15  1  0
 15 16  1  0
 16 17  2  0
 16 18  1  0
 18 19  2  0
 19 20  1  0
 20 21  2  0
 21 22  1  0
 22 23  2  0
 23 24  1  0
 24 25  2  0
 12 26  1  0
 26 27  1  0
  8  3  1  0
 27  9  1  0
 24 15  1  0
 23 18  1  0
  1 28  1  0
  1 29  1  0
  1 30  1  0
  4 31  1  0
  5 32  1  0
  6 33  1  0
  7 34  1  0
 10 35  1  0
 10 36  1  0
 11 37  1  0
 11 38  1  0
 13 39  1  0
 13 40  1  0
 14 41  1  0
 14 42  1  0
 19 43  1  0
 20 44  1  0
 21 45  1  0
 22 46  1  0
 26 47  1  0
 26 48  1  0
 27 49  1  0
 27 50  1  0
M  END
>  <UniqueID>  (17) 
17

>  <SMILES>  (17) 
COc1ccccc1N1CCN(CCN2C(=O)c3ccccc3C2=O)CC1

>  <Energy>  (17) 
94.78480171648977

>  <Genealogy>  (17) 
COc1ccccc1N1CCN(CCN2C(=O)c3ccccc3C2=O)CC1 (3D coordinates assigned)
COc1ccccc1N1CCN(CCN2C(=O)c3ccccc3C2=O)CC1 (nonaromatic ring conformer: 94.78480171648977 kcal/mol)

>  <smiles>  (17) 
COc1ccccc1N1CCN(CCN2C(=O)c3ccccc3C2=O)CC1

>  <score_type>  (17) 
oracle

>  <origin>  (17) 
adg

>  <m_score__min__energy>  (17) 
-8.8699999999999992

>  <m_primary>  (17) 
energy

$$$$
17:0
     RDKit          3D

 38 40  0  0  0  0  0  0  0  0999 V2000
   56.3840   22.5560   42.6610 C   0  0  0  0  0  0  0  0  0  0  0  0
   56.8660   21.6600   43.7940 C   0  0  0  0  0  0  0  0  0  0  0  0
   57.8800   22.3500   44.5920 N   0  0  0  0  0  0  0  0  0  0  0  0
   59.2150   22.2190   44.5000 C   0  0  0  0  0  0  0  0  0  0  0  0
   59.8440   23.0500   45.3530 N   0  0  0  0  0  0  0  0  0  0  0  0
   58.9070   23.7330   45.9970 N   0  0  0  0  0  0  0  0  0  0  0  0
   57.7200   23.3160   45.5200 C   0  0  0  0  0  0  0  0  0  0  0  0
   56.4020   23.8140   46.0260 C   0  0  0  0  0  0  0  0  0  0  0  0
   56.6110   25.0550   46.7550 N   0  0  0  0  0  0  0  0  0  0  0  0
   56.3400   26.3460   46.2070 C   0  0  0  0  0  0  0  0  0  0  0  0
   55.1510   26.7010   45.9950 O   0  0  0  0  0  0  0  0  0  0  0  0
   57.4010   27.2620   45.9140 N   0  0  0  0  0  0  0  0  0  0  0  0
   57.2750   28.6490   45.5720 C   0  0  0  0  0  0  0  0  0  0  0  0
   56.2790   29.1820   44.7830 C   0  0  0  0  0  0  0  0  0  0  0  0
   56.4760   30.5110   44.6720 N   0  0  0  0  0  0  0  0  0  0  0  0
   57.5740   30.8170   45.3490 N   0  0  0  0  0  0  0  0  0  0  0  0
   58.0630   32.1590   45.5040 C   0  0  0  0  0  0  0  0  0  0  0  0
   58.1990   32.6920   46.7970 C   0  0  0  0  0  0  0  0  0  0  0  0
   58.6980   33.9840   46.9830 C   0  0  0  0  0  0  0  0  0  0  0  0
   59.0550   34.7610   45.8800 C   0  0  0  0  0  0  0  0  0  0  0  0
   58.9020   34.2530   44.5880 C   0  0  0  0  0  0  0  0  0  0  0  0
   58.4040   32.9580   44.3900 C   0  0  0  0  0  0  0  0  0  0  0  0
   58.1500   32.4100   42.7360 Cl  0  0  0  0  0  0  0  0  0  0  0  0
   58.0870   29.7100   45.9230 C   0  0  0  0  0  0  0  0  0  0  0  0
   55.9024   23.4513   43.0811 H   0  0  0  0  0  0  0  0  0  0  0  0
   57.2417   22.8575   42.0417 H   0  0  0  0  0  0  0  0  0  0  0  0
   55.6598   22.0065   42.0417 H   0  0  0  0  0  0  0  0  0  0  0  0
   56.0132   21.3992   44.4380 H   0  0  0  0  0  0  0  0  0  0  0  0
   57.3078   20.7483   43.3655 H   0  0  0  0  0  0  0  0  0  0  0  0
   59.7264   21.5242   43.8175 H   0  0  0  0  0  0  0  0  0  0  0  0
   55.7259   23.9946   45.1773 H   0  0  0  0  0  0  0  0  0  0  0  0
   55.9531   23.0632   46.6929 H   0  0  0  0  0  0  0  0  0  0  0  0
   55.4576   28.6158   44.3196 H   0  0  0  0  0  0  0  0  0  0  0  0
   57.9104   32.0876   47.6696 H   0  0  0  0  0  0  0  0  0  0  0  0
   58.8095   34.3889   47.9997 H   0  0  0  0  0  0  0  0  0  0  0  0
   59.4571   35.7741   46.0283 H   0  0  0  0  0  0  0  0  0  0  0  0
   59.1739   34.8728   43.7209 H   0  0  0  0  0  0  0  0  0  0  0  0
   58.9864   29.6608   46.5544 H   0  0  0  0  0  0  0  0  0  0  0  0
  1  2  1  0
  2  3  1  0
  3  4  1  0
  4  5  2  0
  5  6  1  0
  6  7  2  0
  7  8  1  0
  8  9  1  0
  9 10  1  0
 10 11  2  0
 10 12  1  0
 12 13  1  0
 13 14  1  0
 14 15  2  0
 15 16  1  0
 16 17  1  0
 17 18  2  0
 18 19  1  0
 19 20  2  0
 20 21  1  0
 21 22  2  0
 22 23  1  0
 16 24  1  0
  7  3  1  0
 24 13  2  0
 22 17  1  0
  1 25  1  0
  1 26  1  0
  1 27  1  0
  2 28  1  0
  2 29  1  0
  4 30  1  0
  8 31  1  0
  8 32  1  0
 14 33  1  0
 18 34  1  0
 19 35  1  0
 20 36  1  0
 21 37  1  0
 24 38  1  0
M  CHG  2   9  -1  12  -1
M  END
>  <UniqueID>  (18) 
18

>  <SMILES>  (18) 
CCn1cnnc1C[N-]C(=O)[N-]c1cnn(-c2ccccc2Cl)c1

>  <Energy>  (18) 
105.77992947414785

>  <Genealogy>  (18) 
CCn1cnnc1C[N-]C(=O)[N-]c1cnn(-c2ccccc2Cl)c1 (protonated)
CCn1cnnc1C[N-]C(=O)[N-]c1cnn(-c2ccccc2Cl)c1 (3D coordinates assigned)
CCn1cnnc1C[N-]C(=O)[N-]c1cnn(-c2ccccc2Cl)c1 (optimized conformer: 105.77992947414785 kcal/mol)

>  <smiles>  (18) 
CCn1cnnc1CNC(=O)Nc1cnn(-c2ccccc2Cl)c1

>  <score_type>  (18) 
oracle

>  <origin>  (18) 
adg

>  <m_score__min__energy>  (18) 
-11.9

>  <m_primary>  (18) 
energy

$$$$
18:0
     RDKit          3D

 33 35  0  0  0  0  0  0  0  0999 V2000
   55.7650   29.7170   43.3690 C   0  0  0  0  0  0  0  0  0  0  0  0
   56.8650   30.2620   44.2330 C   0  0  0  0  0  0  0  0  0  0  0  0
   57.7960   29.3930   44.8220 C   0  0  0  0  0  0  0  0  0  0  0  0
   58.8430   29.8980   45.5970 C   0  0  0  0  0  0  0  0  0  0  0  0
   58.9790   31.2760   45.7820 C   0  0  0  0  0  0  0  0  0  0  0  0
   59.9800   31.7450   46.5210 O   0  0  0  0  0  0  0  0  0  0  0  0
   60.1820   33.0450   46.7390 C   0  0  0  0  0  0  0  0  0  0  0  0
   61.2990   33.4540   47.5580 N   0  0  0  0  0  0  0  0  0  0  0  0
   62.6700   33.4630   47.0300 C   0  0  0  0  0  0  0  0  0  0  0  0
   63.6840   33.3210   48.1690 C   0  0  0  0  0  0  0  0  0  0  0  0
   63.4260   34.2580   49.1960 O   0  0  0  0  0  0  0  0  0  0  0  0
   62.1830   33.9600   49.8010 C   0  0  0  0  0  0  0  0  0  0  0  0
   61.0330   34.1700   48.8130 C   0  0  0  0  0  0  0  0  0  0  0  0
   59.2990   33.9840   46.1750 C   0  0  0  0  0  0  0  0  0  0  0  0
   58.2330   33.5390   45.3910 C   0  0  0  0  0  0  0  0  0  0  0  0
   57.4400   34.3800   44.8860 O   0  0  0  0  0  0  0  0  0  0  0  0
   58.0590   32.1630   45.1810 C   0  0  0  0  0  0  0  0  0  0  0  0
   57.0070   31.6490   44.4010 C   0  0  0  0  0  0  0  0  0  0  0  0
   54.9615   29.3189   44.0061 H   0  0  0  0  0  0  0  0  0  0  0  0
   55.3650   30.5212   42.7339 H   0  0  0  0  0  0  0  0  0  0  0  0
   56.1625   28.9116   42.7339 H   0  0  0  0  0  0  0  0  0  0  0  0
   57.7009   28.3073   44.6726 H   0  0  0  0  0  0  0  0  0  0  0  0
   59.5624   29.2085   46.0629 H   0  0  0  0  0  0  0  0  0  0  0  0
   62.7934   32.6245   46.3287 H   0  0  0  0  0  0  0  0  0  0  0  0
   62.8462   34.4181   46.5136 H   0  0  0  0  0  0  0  0  0  0  0  0
   63.6185   32.3046   48.5845 H   0  0  0  0  0  0  0  0  0  0  0  0
   64.6908   33.5088   47.7677 H   0  0  0  0  0  0  0  0  0  0  0  0
   62.1859   32.9114   50.1333 H   0  0  0  0  0  0  0  0  0  0  0  0
   62.0381   34.6333   50.6587 H   0  0  0  0  0  0  0  0  0  0  0  0
   60.1005   33.7905   49.2562 H   0  0  0  0  0  0  0  0  0  0  0  0
   60.9392   35.2446   48.5978 H   0  0  0  0  0  0  0  0  0  0  0  0
   59.4473   35.0598   46.3503 H   0  0  0  0  0  0  0  0  0  0  0  0
   56.2937   32.3354   43.9214 H   0  0  0  0  0  0  0  0  0  0  0  0
  1  2  1  0
  2  3  2  0
  3  4  1  0
  4  5  2  0
  5  6  1  0
  6  7  1  0
  7  8  1  0
  8  9  1  0
  9 10  1  0
 10 11  1  0
 11 12  1  0
 12 13  1  0
  7 14  2  0
 14 15  1  0
 15 16  2  0
 15 17  1  0
 17 18  2  0
 18  2  1  0
 17  5  1  0
 13  8  1  0
  1 19  1  0
  1 20  1  0
  1 21  1  0
  3 22  1  0
  4 23  1  0
  9 24  1  0
  9 25  1  0
 10 26  1  0
 10 27  1  0
 12 28  1  0
 12 29  1  0
 13 30  1  0
 13 31  1  0
 14 32  1  0
 18 33  1  0
M  END
>  <UniqueID>  (19) 
19

>  <SMILES>  (19) 
Cc1ccc2oc(N3CCOCC3)cc(=O)c2c1

>  <Energy>  (19) 
42.34214262192563

>  <Genealogy>  (19) 
Cc1ccc2oc(N3CCOCC3)cc(=O)c2c1 (3D coordinates assigned)
Cc1ccc2oc(N3CCOCC3)cc(=O)c2c1 (nonaromatic ring conformer: 42.34214262192563 kcal/mol)

>  <smiles>  (19) 
Cc1ccc2oc(N3CCOCC3)cc(=O)c2c1

>  <score_type>  (19) 
oracle

>  <origin>  (19) 
adg

>  <m_score__min__energy>  (19) 
-6.1799999999999997

>  <m_primary>  (19) 
energy

$$$$
19:0
     RDKit          3D

 37 39  0  0  0  0  0  0  0  0999 V2000
   55.8950   19.5900   44.1150 C   0  0  0  0  0  0  0  0  0  0  0  0
   56.0100   20.7390   43.2820 O   0  0  0  0  0  0  0  0  0  0  0  0
   56.5290   21.9720   43.7020 C   0  0  0  0  0  0  0  0  0  0  0  0
   57.6500   21.9720   44.5380 C   0  0  0  0  0  0  0  0  0  0  0  0
   58.2060   23.1750   44.9850 C   0  0  0  0  0  0  0  0  0  0  0  0
   57.6470   24.4060   44.6010 C   0  0  0  0  0  0  0  0  0  0  0  0
   58.2380   25.6820   45.0740 C   0  0  0  0  0  0  0  0  0  0  0  0
   59.3050   25.7450   45.9720 C   0  0  0  0  0  0  0  0  0  0  0  0
   59.6620   27.3650   46.2380 S   0  0  0  0  0  0  0  0  0  0  0  0
   58.4560   27.9370   45.2110 C   0  0  0  0  0  0  0  0  0  0  0  0
   58.1760   29.3690   44.9360 C   0  0  0  0  0  0  0  0  0  0  0  0
   57.3090   29.7500   43.8970 C   0  0  0  0  0  0  0  0  0  0  0  0
   57.0510   31.1010   43.6450 C   0  0  0  0  0  0  0  0  0  0  0  0
   57.6520   32.0980   44.4330 C   0  0  0  0  0  0  0  0  0  0  0  0
   57.4250   33.4660   44.2190 O   0  0  0  0  0  0  0  0  0  0  0  0
   58.1310   34.5110   44.8810 C   0  0  0  0  0  0  0  0  0  0  0  0
   58.5100   31.7210   45.4700 C   0  0  0  0  0  0  0  0  0  0  0  0
   58.7700   30.3710   45.7240 C   0  0  0  0  0  0  0  0  0  0  0  0
   57.7800   26.9000   44.6600 N   0  0  0  0  0  0  0  0  0  0  0  0
   56.5200   24.4050   43.7580 C   0  0  0  0  0  0  0  0  0  0  0  0
   55.9660   23.2010   43.3130 C   0  0  0  0  0  0  0  0  0  0  0  0
   55.9258   19.8978   45.1706 H   0  0  0  0  0  0  0  0  0  0  0  0
   54.9415   19.0817   43.9090 H   0  0  0  0  0  0  0  0  0  0  0  0
   56.7289   18.9028   43.9090 H   0  0  0  0  0  0  0  0  0  0  0  0
   58.0989   21.0165   44.8471 H   0  0  0  0  0  0  0  0  0  0  0  0
   59.0878   23.1575   45.6423 H   0  0  0  0  0  0  0  0  0  0  0  0
   59.8209   24.8857   46.4253 H   0  0  0  0  0  0  0  0  0  0  0  0
   56.8293   28.9785   43.2768 H   0  0  0  0  0  0  0  0  0  0  0  0
   56.3741   31.3852   42.8258 H   0  0  0  0  0  0  0  0  0  0  0  0
   58.0429   34.3806   45.9697 H   0  0  0  0  0  0  0  0  0  0  0  0
   59.1919   34.4769   44.5923 H   0  0  0  0  0  0  0  0  0  0  0  0
   57.7034   35.4825   44.5923 H   0  0  0  0  0  0  0  0  0  0  0  0
   58.9851   32.4938   46.0921 H   0  0  0  0  0  0  0  0  0  0  0  0
   59.4444   30.0904   46.5465 H   0  0  0  0  0  0  0  0  0  0  0  0
   57.0220   27.0150   43.9530 H   0  0  0  0  0  0  0  0  0  0  0  0
   56.0712   25.3598   43.4466 H   0  0  0  0  0  0  0  0  0  0  0  0
   55.0847   23.2148   42.6548 H   0  0  0  0  0  0  0  0  0  0  0  0
  1  2  1  0
  2  3  1  0
  3  4  2  0
  4  5  1  0
  5  6  2  0
  6  7  1  0
  7  8  2  0
  8  9  1  0
  9 10  1  0
 10 11  1  0
 11 12  2  0
 12 13  1  0
 13 14  2  0
 14 15  1  0
 15 16  1  0
 14 17  1  0
 17 18  2  0
 10 19  2  0
  6 20  1  0
 20 21  2  0
 21  3  1  0
 19  7  1  0
 18 11  1  0
  1 22  1  0
  1 23  1  0
  1 24  1  0
  4 25  1  0
  5 26  1  0
  8 27  1  0
 12 28  1  0
 13 29  1  0
 16 30  1  0
 16 31  1  0
 16 32  1  0
 17 33  1  0
 18 34  1  0
 19 35  1  0
 20 36  1  0
 21 37  1  0
M  CHG  1  19   1
M  END
>  <UniqueID>  (20) 
20

>  <SMILES>  (20) 
COc1ccc(-c2csc(-c3ccc(OC)cc3)[nH+]2)cc1

>  <Energy>  (20) 
73.1762603783551

>  <Genealogy>  (20) 
COc1ccc(-c2csc(-c3ccc(OC)cc3)[nH+]2)cc1 (protonated)
COc1ccc(-c2csc(-c3ccc(OC)cc3)[nH+]2)cc1 (3D coordinates assigned)
COc1ccc(-c2csc(-c3ccc(OC)cc3)[nH+]2)cc1 (optimized conformer: 73.1762603783551 kcal/mol)

>  <smiles>  (20) 
COc1ccc(-c2csc(-c3ccc(OC)cc3)n2)cc1

>  <score_type>  (20) 
oracle

>  <origin>  (20) 
adg

>  <m_score__min__energy>  (20) 
-5.3099999999999996

>  <m_primary>  (20) 
energy

$$$$
20:0
     RDKit          3D

 52 53  0  0  0  0  0  0  0  0999 V2000
   63.2800   33.5640   46.7720 C   0  0  0  0  0  0  0  0  0  0  0  0
   62.4680   32.9760   47.8820 C   0  0  0  0  0  0  0  0  0  0  0  0
   62.8290   31.8690   48.5590 N   0  0  0  0  0  0  0  0  0  0  0  0
   61.8820   31.6130   49.4480 N   0  0  0  0  0  0  0  0  0  0  0  0
   61.9440   30.4870   50.3720 C   0  0  0  0  0  0  0  0  0  0  0  0
   60.9030   32.5410   49.3480 C   0  0  0  0  0  0  0  0  0  0  0  0
   59.6930   32.5450   50.1290 N   0  0  0  0  0  0  0  0  0  0  0  0
   58.5780   31.6740   49.7610 C   0  0  0  0  0  0  0  0  0  0  0  0
   59.5200   33.4870   51.2330 C   0  0  0  0  0  0  0  0  0  0  0  0
   61.2510   33.4470   48.3550 C   0  0  0  0  0  0  0  0  0  0  0  0
   60.4520   34.6010   47.8100 C   0  0  0  0  0  0  0  0  0  0  0  0
   59.3900   34.1320   46.9090 N   0  0  0  0  0  0  0  0  0  0  0  0
   59.8720   33.0450   46.0460 C   0  0  0  0  0  0  0  0  0  0  0  0
   58.7190   32.2190   45.5510 C   0  0  0  0  0  0  0  0  0  0  0  0
   57.4650   32.6590   45.1500 C   0  0  0  0  0  0  0  0  0  0  0  0
   57.0040   34.0780   45.0760 C   0  0  0  0  0  0  0  0  0  0  0  0
   56.6780   31.6020   44.8590 N   0  0  0  0  0  0  0  0  0  0  0  0
   57.3930   30.5040   45.0550 N   0  0  0  0  0  0  0  0  0  0  0  0
   56.8580   29.1570   44.8990 C   0  0  0  0  0  0  0  0  0  0  0  0
   58.6230   30.8440   45.4890 C   0  0  0  0  0  0  0  0  0  0  0  0
   59.6250   29.9060   45.9020 N   0  0  0  0  0  0  0  0  0  0  0  0
   60.0350   29.8760   47.3070 C   0  0  0  0  0  0  0  0  0  0  0  0
   60.2520   29.0490   44.8980 C   0  0  0  0  0  0  0  0  0  0  0  0
   64.1024   34.1595   47.1950 H   0  0  0  0  0  0  0  0  0  0  0  0
   63.6941   32.7550   46.1523 H   0  0  0  0  0  0  0  0  0  0  0  0
   62.6406   34.2099   46.1523 H   0  0  0  0  0  0  0  0  0  0  0  0
   61.9235   30.8601   51.4066 H   0  0  0  0  0  0  0  0  0  0  0  0
   61.0809   29.8263   50.2033 H   0  0  0  0  0  0  0  0  0  0  0  0
   62.8744   29.9250   50.2033 H   0  0  0  0  0  0  0  0  0  0  0  0
   58.0926   31.2948   50.6724 H   0  0  0  0  0  0  0  0  0  0  0  0
   57.8483   32.2437   49.1669 H   0  0  0  0  0  0  0  0  0  0  0  0
   58.9541   30.8281   49.1669 H   0  0  0  0  0  0  0  0  0  0  0  0
   59.6181   32.9528   52.1896 H   0  0  0  0  0  0  0  0  0  0  0  0
   60.2892   34.2708   51.1702 H   0  0  0  0  0  0  0  0  0  0  0  0
   58.5225   33.9463   51.1702 H   0  0  0  0  0  0  0  0  0  0  0  0
   59.9961   35.1493   48.6475 H   0  0  0  0  0  0  0  0  0  0  0  0
   61.1284   35.2557   47.2409 H   0  0  0  0  0  0  0  0  0  0  0  0
   59.1350   34.9410   46.2940 H   0  0  0  0  0  0  0  0  0  0  0  0
   60.4057   33.4749   45.1855 H   0  0  0  0  0  0  0  0  0  0  0  0
   60.5486   32.4012   46.6272 H   0  0  0  0  0  0  0  0  0  0  0  0
   56.8750   34.4752   46.0937 H   0  0  0  0  0  0  0  0  0  0  0  0
   57.7530   34.6794   44.5399 H   0  0  0  0  0  0  0  0  0  0  0  0
   56.0446   34.1244   44.5399 H   0  0  0  0  0  0  0  0  0  0  0  0
   56.6825   28.7150   45.8909 H   0  0  0  0  0  0  0  0  0  0  0  0
   55.9092   29.2013   44.3442 H   0  0  0  0  0  0  0  0  0  0  0  0
   57.5786   28.5382   44.3442 H   0  0  0  0  0  0  0  0  0  0  0  0
   59.1450   29.9411   47.9501 H   0  0  0  0  0  0  0  0  0  0  0  0
   60.5685   28.9364   47.5133 H   0  0  0  0  0  0  0  0  0  0  0  0
   60.6996   30.7279   47.5133 H   0  0  0  0  0  0  0  0  0  0  0  0
   60.8300   28.2589   45.3997 H   0  0  0  0  0  0  0  0  0  0  0  0
   59.4741   28.5912   44.2693 H   0  0  0  0  0  0  0  0  0  0  0  0
   60.9238   29.6518   44.2693 H   0  0  0  0  0  0  0  0  0  0  0  0
  1  2  1  0
  2  3  2  0
  3  4  1  0
  4  5  1  0
  4  6  1  0
  6  7  1  0
  7  8  1  0
  7  9  1  0
  6 10  2  0
 10 11  1  0
 11 12  1  0
 12 13  1  0
 13 14  1  0
 14 15  1  0
 15 16  1  0
 15 17  2  0
 17 18  1  0
 18 19  1  0
 18 20  1  0
 20 21  1  0
 21 22  1  0
 21 23  1  0
 10  2  1  0
 20 14  2  0
  1 24  1  0
  1 25  1  0
  1 26  1  0
  5 27  1  0
  5 28  1  0
  5 29  1  0
  8 30  1  0
  8 31  1  0
  8 32  1  0
  9 33  1  0
  9 34  1  0
  9 35  1  0
 11 36  1  0
 11 37  1  0
 12 38  1  0
 13 39  1  0
 13 40  1  0
 16 41  1  0
 16 42  1  0
 16 43  1  0
 19 44  1  0
 19 45  1  0
 19 46  1  0
 22 47  1  0
 22 48  1  0
 22 49  1  0
 23 50  1  0
 23 51  1  0
 23 52  1  0
M  END
>  <UniqueID>  (21) 
21

>  <SMILES>  (21) 
Cc1nn(C)c(N(C)C)c1CNCc1c(C)nn(C)c1N(C)C

>  <Energy>  (21) 
109.68782120138036

>  <Genealogy>  (21) 
Cc1nn(C)c(N(C)C)c1CNCc1c(C)nn(C)c1N(C)C (3D coordinates assigned)
Cc1nn(C)c(N(C)C)c1CNCc1c(C)nn(C)c1N(C)C (optimized conformer: 109.68782120138036 kcal/mol)

>  <smiles>  (21) 
Cc1nn(C)c(N(C)C)c1CNCc1c(C)nn(C)c1N(C)C

>  <score_type>  (21) 
oracle

>  <origin>  (21) 
adg

>  <m_score__min__energy>  (21) 
-5.9900000000000002

>  <m_primary>  (21) 
energy

$$$$
21:0
     RDKit          3D

 77 80  0  0  0  0  0  0  0  0999 V2000
   58.8500   34.8650   44.8320 C   0  0  0  0  0  0  0  0  0  0  0  0
   57.4960   34.4760   45.4140 C   0  0  0  0  0  0  0  0  0  0  0  0
   57.6570   33.7270   46.7450 C   0  0  0  0  0  0  0  0  0  0  0  0
   58.8930   32.9300   46.7470 N   0  0  0  0  0  0  0  0  0  0  0  0
   59.1140   31.7620   46.0900 C   0  0  0  0  0  0  0  0  0  0  0  0
   58.1500   31.0520   45.2170 C   0  0  0  0  0  0  0  0  0  0  0  0
   57.4460   29.9410   45.7140 C   0  0  0  0  0  0  0  0  0  0  0  0
   56.5580   29.2400   44.8920 C   0  0  0  0  0  0  0  0  0  0  0  0
   56.3710   29.6370   43.5650 C   0  0  0  0  0  0  0  0  0  0  0  0
   57.0780   30.7310   43.0570 C   0  0  0  0  0  0  0  0  0  0  0  0
   57.9720   31.4310   43.8750 C   0  0  0  0  0  0  0  0  0  0  0  0
   60.3780   31.2810   46.3780 C   0  0  0  0  0  0  0  0  0  0  0  0
   60.9650   32.2010   47.2230 C   0  0  0  0  0  0  0  0  0  0  0  0
   62.3370   32.1160   47.7590 C   0  0  0  0  0  0  0  0  0  0  0  0
   63.2470   31.5800   47.0700 O   0  0  0  0  0  0  0  0  0  0  0  0
   62.6330   32.6400   49.0600 N   0  0  0  0  0  0  0  0  0  0  0  0
   63.9040   32.4060   49.7440 C   0  0  0  0  0  0  0  0  0  0  0  0
   63.6910   31.6400   51.0580 C   0  0  0  0  0  0  0  0  0  0  0  0
   62.2770   31.0520   51.2310 C   0  0  0  0  0  0  0  0  0  0  0  0
   62.0260   29.7880   50.3880 C   0  0  0  0  0  0  0  0  0  0  0  0
   60.7010   29.2060   50.6990 N   0  0  0  0  0  0  0  0  0  0  0  0
   60.6810   27.7360   50.5550 C   0  0  0  0  0  0  0  0  0  0  0  0
   60.7680   27.2900   49.0840 C   0  0  0  0  0  0  0  0  0  0  0  0
   59.9370   28.1920   48.1380 C   0  0  0  0  0  0  0  0  0  0  0  0
   59.2780   27.3760   47.0330 C   0  0  0  0  0  0  0  0  0  0  0  0
   58.4340   26.2960   47.3660 C   0  0  0  0  0  0  0  0  0  0  0  0
   57.8240   25.5330   46.3700 C   0  0  0  0  0  0  0  0  0  0  0  0
   58.0560   25.8230   45.0260 C   0  0  0  0  0  0  0  0  0  0  0  0
   58.8960   26.8810   44.6740 C   0  0  0  0  0  0  0  0  0  0  0  0
   59.5160   27.6670   45.6670 C   0  0  0  0  0  0  0  0  0  0  0  0
   60.3700   28.7320   45.3280 O   0  0  0  0  0  0  0  0  0  0  0  0
   61.5210   28.6160   44.4990 C   0  0  0  0  0  0  0  0  0  0  0  0
   58.9010   29.0270   48.9110 C   0  0  0  0  0  0  0  0  0  0  0  0
   59.5810   29.8880   49.9930 C   0  0  0  0  0  0  0  0  0  0  0  0
   60.0230   33.1980   47.4500 C   0  0  0  0  0  0  0  0  0  0  0  0
   60.2310   34.3940   48.3360 C   0  0  0  0  0  0  0  0  0  0  0  0
   59.5563   35.0679   45.6505 H   0  0  0  0  0  0  0  0  0  0  0  0
   59.2334   34.0407   44.2127 H   0  0  0  0  0  0  0  0  0  0  0  0
   58.7374   35.7671   44.2127 H   0  0  0  0  0  0  0  0  0  0  0  0
   56.9038   35.3872   45.5846 H   0  0  0  0  0  0  0  0  0  0  0  0
   56.9884   33.8110   44.6998 H   0  0  0  0  0  0  0  0  0  0  0  0
   57.6965   34.4565   47.5673 H   0  0  0  0  0  0  0  0  0  0  0  0
   56.7997   33.0503   46.8758 H   0  0  0  0  0  0  0  0  0  0  0  0
   57.5947   29.6212   46.7559 H   0  0  0  0  0  0  0  0  0  0  0  0
   56.0063   28.3756   45.2901 H   0  0  0  0  0  0  0  0  0  0  0  0
   55.6679   29.0890   42.9206 H   0  0  0  0  0  0  0  0  0  0  0  0
   56.9312   31.0421   42.0122 H   0  0  0  0  0  0  0  0  0  0  0  0
   58.5377   32.2812   43.4663 H   0  0  0  0  0  0  0  0  0  0  0  0
   60.8275   30.3483   46.0066 H   0  0  0  0  0  0  0  0  0  0  0  0
   61.9020   33.1950   49.5570 H   0  0  0  0  0  0  0  0  0  0  0  0
   64.5623   31.8178   49.0878 H   0  0  0  0  0  0  0  0  0  0  0  0
   64.3603   33.3795   49.9767 H   0  0  0  0  0  0  0  0  0  0  0  0
   64.4145   30.8122   51.0947 H   0  0  0  0  0  0  0  0  0  0  0  0
   63.8297   32.3677   51.8712 H   0  0  0  0  0  0  0  0  0  0  0  0
   62.1343   30.7965   52.2913 H   0  0  0  0  0  0  0  0  0  0  0  0
   61.5659   31.8164   50.8847 H   0  0  0  0  0  0  0  0  0  0  0  0
   62.0627   30.0525   49.3209 H   0  0  0  0  0  0  0  0  0  0  0  0
   62.8025   29.0456   50.6242 H   0  0  0  0  0  0  0  0  0  0  0  0
   61.5371   27.3155   51.1030 H   0  0  0  0  0  0  0  0  0  0  0  0
   59.7254   27.3719   50.9603 H   0  0  0  0  0  0  0  0  0  0  0  0
   61.8210   27.3232   48.7675 H   0  0  0  0  0  0  0  0  0  0  0  0
   60.3569   26.2717   49.0197 H   0  0  0  0  0  0  0  0  0  0  0  0
   60.6347   28.8972   47.6627 H   0  0  0  0  0  0  0  0  0  0  0  0
   58.2546   26.0525   48.4236 H   0  0  0  0  0  0  0  0  0  0  0  0
   57.1589   24.7012   46.6454 H   0  0  0  0  0  0  0  0  0  0  0  0
   57.5768   25.2177   44.2425 H   0  0  0  0  0  0  0  0  0  0  0  0
   59.0759   27.1036   43.6119 H   0  0  0  0  0  0  0  0  0  0  0  0
   62.4186   28.5255   45.1284 H   0  0  0  0  0  0  0  0  0  0  0  0
   61.4270   27.7228   43.8639 H   0  0  0  0  0  0  0  0  0  0  0  0
   61.6071   29.5100   43.8639 H   0  0  0  0  0  0  0  0  0  0  0  0
   58.3725   29.6861   48.2066 H   0  0  0  0  0  0  0  0  0  0  0  0
   58.1946   28.3414   49.4018 H   0  0  0  0  0  0  0  0  0  0  0  0
   59.9766   30.7957   49.5138 H   0  0  0  0  0  0  0  0  0  0  0  0
   58.8149   30.1069   50.7514 H   0  0  0  0  0  0  0  0  0  0  0  0
   60.1770   34.0834   49.3899 H   0  0  0  0  0  0  0  0  0  0  0  0
   61.2190   34.8331   48.1333 H   0  0  0  0  0  0  0  0  0  0  0  0
   59.4493   35.1409   48.1333 H   0  0  0  0  0  0  0  0  0  0  0  0
  1  2  1  0
  2  3  1  0
  3  4  1  0
  4  5  1  0
  5  6  1  0
  6  7  2  0
  7  8  1  0
  8  9  2  0
  9 10  1  0
 10 11  2  0
  5 12  2  0
 12 13  1  0
 13 14  1  0
 14 15  2  0
 14 16  1  0
 16 17  1  0
 17 18  1  0
 18 19  1  0
 19 20  1  0
 20 21  1  0
 21 22  1  0
 22 23  1  0
 23 24  1  0
 24 25  1  0
 25 26  2  0
 26 27  1  0
 27 28  2  0
 28 29  1  0
 29 30  2  0
 30 31  1  0
 31 32  1  0
 24 33  1  0
 33 34  1  0
 13 35  2  0
 35 36  1  0
 35  4  1  0
 11  6  1  0
 34 21  1  0
 30 25  1  0
  1 37  1  0
  1 38  1  0
  1 39  1  0
  2 40  1  0
  2 41  1  0
  3 42  1  0
  3 43  1  0
  7 44  1  0
  8 45  1  0
  9 46  1  0
 10 47  1  0
 11 48  1  0
 12 49  1  0
 16 50  1  0
 17 51  1  0
 17 52  1  0
 18 53  1  0
 18 54  1  0
 19 55  1  0
 19 56  1  0
 20 57  1  0
 20 58  1  0
 22 59  1  0
 22 60  1  0
 23 61  1  0
 23 62  1  0
 24 63  1  0
 26 64  1  0
 27 65  1  0
 28 66  1  0
 29 67  1  0
 32 68  1  0
 32 69  1  0
 32 70  1  0
 33 71  1  0
 33 72  1  0
 34 73  1  0
 34 74  1  0
 36 75  1  0
 36 76  1  0
 36 77  1  0
M  END
>  <UniqueID>  (22) 
22

>  <SMILES>  (22) 
CCCn1c(-c2ccccc2)cc(C(=O)NCCCCN2CCC(c3ccccc3OC)CC2)c1C

>  <Energy>  (22) 
113.23102263957821

>  <Genealogy>  (22) 
CCCn1c(-c2ccccc2)cc(C(=O)NCCCCN2CCC(c3ccccc3OC)CC2)c1C (3D coordinates assigned)
CCCn1c(-c2ccccc2)cc(C(=O)NCCCCN2CCC(c3ccccc3OC)CC2)c1C (nonaromatic ring conformer: 113.23102263957821 kcal/mol)

>  <smiles>  (22) 
CCCn1c(-c2ccccc2)cc(C(=O)NCCCCN2CCC(c3ccccc3OC)CC2)c1C

>  <score_type>  (22) 
oracle

>  <origin>  (22) 
adg

>  <m_score__min__energy>  (22) 
-9.3100000000000005

>  <m_primary>  (22) 
energy

$$$$
22:0
     RDKit          3D

 42 44  0  0  1  0  0  0  0  0999 V2000
   55.4300   25.0690   45.6330 C   0  0  0  0  0  0  0  0  0  0  0  0
   55.4570   26.4300   45.9940 O   0  0  0  0  0  0  0  0  0  0  0  0
   56.6580   27.1110   46.0080 C   0  0  0  0  0  0  0  0  0  0  0  0
   57.7400   26.7630   46.8080 C   0  0  0  0  0  0  0  0  0  0  0  0
   58.9140   27.4900   46.7750 C   0  0  0  0  0  0  0  0  0  0  0  0
   59.0020   28.5790   45.9270 C   0  0  0  0  0  0  0  0  0  0  0  0
   57.9080   28.9360   45.1110 C   0  0  0  0  0  0  0  0  0  0  0  0
   58.1370   30.1340   44.2660 C   0  0  0  0  0  0  0  0  0  0  0  0
   56.9910   31.0850   44.4910 C   0  0  0  0  0  0  0  0  0  0  0  0
   55.8300   30.6670   44.7600 O   0  0  0  0  0  0  0  0  0  0  0  0
   57.2620   32.4690   44.3980 N   0  0  0  0  0  0  0  0  0  0  0  0
   58.0260   33.0170   45.2670 C   0  0  0  0  0  0  0  0  0  0  0  0
   57.6050   34.0950   45.9880 N   0  0  0  0  0  0  0  0  0  0  0  0
   58.6190   34.3910   46.7640 N   0  0  0  0  0  0  0  0  0  0  0  0
   59.6540   33.5550   46.5670 C   0  0  0  0  0  0  0  0  0  0  0  0
   60.9120   33.6500   47.2940 C   0  0  0  0  0  0  0  0  0  0  0  0
   62.1390   33.5840   46.6590 C   0  0  0  0  0  0  0  0  0  0  0  0
   63.3170   33.7110   47.3970 C   0  0  0  0  0  0  0  0  0  0  0  0
   63.3060   33.9060   48.7680 C   0  0  0  0  0  0  0  0  0  0  0  0
   62.0840   33.9670   49.3820 C   0  0  0  0  0  0  0  0  0  0  0  0
   60.9120   33.8410   48.6670 C   0  0  0  0  0  0  0  0  0  0  0  0
   59.6750   33.9000   49.2780 O   0  0  0  0  0  0  0  0  0  0  0  0
   59.2760   33.2380   50.4390 C   0  0  0  0  0  0  0  0  0  0  0  0
   59.2570   32.7260   45.6420 O   0  0  0  0  0  0  0  0  0  0  0  0
   56.7490   28.2070   45.1520 C   0  0  0  0  0  0  0  0  0  0  0  0
   55.4177   24.4489   46.5415 H   0  0  0  0  0  0  0  0  0  0  0  0
   54.5276   24.8654   45.0378 H   0  0  0  0  0  0  0  0  0  0  0  0
   56.3236   24.8297   45.0378 H   0  0  0  0  0  0  0  0  0  0  0  0
   57.6601   25.8945   47.4783 H   0  0  0  0  0  0  0  0  0  0  0  0
   59.7647   27.2075   47.4125 H   0  0  0  0  0  0  0  0  0  0  0  0
   59.9293   29.1695   45.8886 H   0  0  0  0  0  0  0  0  0  0  0  0
   59.0841   30.6162   44.5499 H   0  0  0  0  0  0  0  0  0  0  0  0
   58.1959   29.8491   43.2052 H   0  0  0  0  0  0  0  0  0  0  0  0
   56.6940   34.5910   45.9580 H   0  0  0  0  0  0  0  0  0  0  0  0
   62.1866   33.4312   45.5707 H   0  0  0  0  0  0  0  0  0  0  0  0
   64.2830   33.6545   46.8739 H   0  0  0  0  0  0  0  0  0  0  0  0
   64.2402   34.0076   49.3398 H   0  0  0  0  0  0  0  0  0  0  0  0
   62.0361   34.1200   50.4703 H   0  0  0  0  0  0  0  0  0  0  0  0
   59.6167   33.8033   51.3189 H   0  0  0  0  0  0  0  0  0  0  0  0
   58.1791   33.1579   50.4568 H   0  0  0  0  0  0  0  0  0  0  0  0
   59.7175   32.2307   50.4568 H   0  0  0  0  0  0  0  0  0  0  0  0
   55.8968   28.4845   44.5143 H   0  0  0  0  0  0  0  0  0  0  0  0
  1  2  1  0
  2  3  1  0
  3  4  2  0
  4  5  1  0
  5  6  2  0
  6  7  1  0
  7  8  1  0
  8  9  1  0
  9 10  2  0
  9 11  1  0
 11 12  2  0
 12 13  1  0
 13 14  1  0
 14 15  2  0
 15 16  1  0
 16 17  2  0
 17 18  1  0
 18 19  2  0
 19 20  1  0
 20 21  2  0
 21 22  1  0
 22 23  1  0
 15 24  1  0
  7 25  2  0
 25  3  1  0
 24 12  1  0
 21 16  1  0
  1 26  1  0
  1 27  1  0
  1 28  1  0
  4 29  1  0
  5 30  1  0
  6 31  1  0
  8 32  1  0
  8 33  1  0
 13 34  1  0
 17 35  1  0
 18 36  1  0
 19 37  1  0
 20 38  1  0
 23 39  1  0
 23 40  1  0
 23 41  1  0
 25 42  1  0
M  END
>  <smiles>  (23) 
COc1cccc(CC(=O)N=c2[nH]nc(-c3ccccc3OC)o2)c1

>  <score_type>  (23) 
oracle

>  <origin>  (23) 
adg

>  <m_score__min__energy>  (23) 
-8.1699999999999999

>  <m_primary>  (23) 
energy

$$$$
23:0
     RDKit          3D

 66 69  0  0  0  0  0  0  0  0999 V2000
   58.0068   32.2685   41.6645 H   0  0  0  0  0  0  0  0  0  0  0  0
   57.8130   31.9520   42.7000 C   0  0  0  0  0  0  0  0  0  0  0  0
   58.4190   32.5970   43.7030 C   0  0  0  0  0  0  0  0  0  0  0  0
   59.1659   33.3669   43.4594 H   0  0  0  0  0  0  0  0  0  0  0  0
   58.1180   32.3100   45.1690 C   0  0  1  0  0  0  0  0  0  0  0  0
   56.9200   33.1980   45.5850 C   0  0  0  0  0  0  0  0  0  0  0  0
   56.8601   33.2424   46.6825 H   0  0  0  0  0  0  0  0  0  0  0  0
   57.0592   34.2128   45.1841 H   0  0  0  0  0  0  0  0  0  0  0  0
   55.9895   32.7697   45.1841 H   0  0  0  0  0  0  0  0  0  0  0  0
   57.7040   30.8320   45.2980 C   0  0  0  0  0  0  0  0  0  0  0  0
   58.1500   30.0310   46.2950 C   0  0  0  0  0  0  0  0  0  0  0  0
   57.6998   29.0335   46.4063 H   0  0  0  0  0  0  0  0  0  0  0  0
   59.2320   30.4400   47.2580 C   0  0  0  0  0  0  0  0  0  0  0  0
   60.2036   30.0998   46.8705 H   0  0  0  0  0  0  0  0  0  0  0  0
   59.0191   29.9801   48.2343 H   0  0  0  0  0  0  0  0  0  0  0  0
   59.2720   31.9610   47.4390 C   0  0  2  0  0  0  0  0  0  0  0  0
   58.3416   32.3214   47.9021 H   0  0  0  0  0  0  0  0  0  0  0  0
   59.3970   32.6020   46.0350 C   0  0  2  0  0  0  0  0  0  0  0  0
   60.2168   32.1419   45.4638 H   0  0  0  0  0  0  0  0  0  0  0  0
   59.7710   34.0840   46.1850 C   0  0  0  0  0  0  0  0  0  0  0  0
   59.0481   34.5716   46.8556 H   0  0  0  0  0  0  0  0  0  0  0  0
   59.7506   34.5535   45.1905 H   0  0  0  0  0  0  0  0  0  0  0  0
   61.1860   34.2380   46.7720 C   0  0  0  0  0  0  0  0  0  0  0  0
   61.2472   35.2237   47.2564 H   0  0  0  0  0  0  0  0  0  0  0  0
   61.8798   34.1173   45.9270 H   0  0  0  0  0  0  0  0  0  0  0  0
   61.5990   33.1490   47.8320 C   0  0  1  0  0  0  0  0  0  0  0  0
   62.6230   32.1590   47.2250 C   0  0  0  0  0  0  0  0  0  0  0  0
   63.1578   31.6419   48.0353 H   0  0  0  0  0  0  0  0  0  0  0  0
   62.0951   31.4201   46.6042 H   0  0  0  0  0  0  0  0  0  0  0  0
   63.3436   32.7116   46.6042 H   0  0  0  0  0  0  0  0  0  0  0  0
   62.2310   33.8340   49.0600 C   0  0  0  0  0  0  0  0  0  0  0  0
   62.7844   34.7332   48.7515 H   0  0  0  0  0  0  0  0  0  0  0  0
   62.9428   33.1663   49.5674 H   0  0  0  0  0  0  0  0  0  0  0  0
   61.0760   34.2150   49.9810 C   0  0  0  0  0  0  0  0  0  0  0  0
   60.8453   35.2856   49.8784 H   0  0  0  0  0  0  0  0  0  0  0  0
   61.3299   34.0301   51.0352 H   0  0  0  0  0  0  0  0  0  0  0  0
   59.8700   33.3670   49.5420 C   0  0  2  0  0  0  0  0  0  0  0  0
   59.0697   33.9972   49.1270 H   0  0  0  0  0  0  0  0  0  0  0  0
   59.1840   32.6730   50.7140 C   0  0  0  0  0  0  0  0  0  0  0  0
   58.2210   31.7560   50.5000 C   0  0  0  0  0  0  0  0  0  0  0  0
   57.2928   32.0763   50.0042 H   0  0  0  0  0  0  0  0  0  0  0  0
   58.3530   30.3440   50.8990 C   0  0  0  0  0  0  0  0  0  0  0  0
   57.4285   29.7677   51.0511 H   0  0  0  0  0  0  0  0  0  0  0  0
   59.5200   29.7110   51.0900 C   0  0  0  0  0  0  0  0  0  0  0  0
   59.6959   29.2835   52.0882 H   0  0  0  0  0  0  0  0  0  0  0  0
   60.6190   29.5280   50.0640 C   0  0  0  0  0  0  0  0  0  0  0  0
   60.3540   30.1711   49.2118 H   0  0  0  0  0  0  0  0  0  0  0  0
   60.6970   28.1070   49.4880 C   0  0  0  0  0  0  0  0  0  0  0  0
   60.7370   27.3791   50.3118 H   0  0  0  0  0  0  0  0  0  0  0  0
   59.8082   27.9127   48.8698 H   0  0  0  0  0  0  0  0  0  0  0  0
   61.6018   28.0111   48.8698 H   0  0  0  0  0  0  0  0  0  0  0  0
   61.9700   29.9930   50.6190 C   0  0  0  0  0  0  0  0  0  0  0  0
   61.9381   29.9820   51.7185 H   0  0  0  0  0  0  0  0  0  0  0  0
   62.7630   29.3161   50.2684 H   0  0  0  0  0  0  0  0  0  0  0  0
   62.1784   31.0146   50.2684 H   0  0  0  0  0  0  0  0  0  0  0  0
   59.6130   33.0140   52.1210 C   0  0  0  0  0  0  0  0  0  0  0  0
   58.9607   32.4955   52.8391 H   0  0  0  0  0  0  0  0  0  0  0  0
   60.6543   32.6944   52.2745 H   0  0  0  0  0  0  0  0  0  0  0  0
   59.5366   34.1006   52.2745 H   0  0  0  0  0  0  0  0  0  0  0  0
   60.3880   32.4030   48.4480 C   0  0  1  0  0  0  0  0  0  0  0  0
   60.7029   31.4264   48.8445 H   0  0  0  0  0  0  0  0  0  0  0  0
   56.6760   30.2850   44.3290 C   0  0  0  0  0  0  0  0  0  0  0  0
   56.7572   29.1884   44.3003 H   0  0  0  0  0  0  0  0  0  0  0  0
   55.6761   30.5898   44.6715 H   0  0  0  0  0  0  0  0  0  0  0  0
   56.8930   30.8290   42.9470 C   0  0  0  0  0  0  0  0  0  0  0  0
   56.2680   30.3210   41.9790 O   0  0  0  0  0  0  0  0  0  0  0  0
  1  2  1  0
  2  3  2  0
  3  4  1  0
  3  5  1  0
  5  6  1  1
  6  7  1  0
  6  8  1  0
  6  9  1  0
  5 10  1  0
 10 11  2  0
 11 12  1  0
 11 13  1  0
 13 14  1  0
 13 15  1  0
 13 16  1  0
 16 17  1  1
 16 18  1  0
 18 19  1  6
 18 20  1  0
 20 21  1  0
 20 22  1  0
 20 23  1  0
 23 24  1  0
 23 25  1  0
 23 26  1  0
 26 27  1  6
 27 28  1  0
 27 29  1  0
 27 30  1  0
 26 31  1  0
 31 32  1  0
 31 33  1  0
 31 34  1  0
 34 35  1  0
 34 36  1  0
 34 37  1  0
 37 38  1  6
 37 39  1  0
 39 40  2  0
 40 41  1  0
 40 42  1  0
 42 43  1  0
 42 44  2  0
 44 45  1  0
 44 46  1  0
 46 47  1  0
 46 48  1  0
 48 49  1  0
 48 50  1  0
 48 51  1  0
 46 52  1  0
 52 53  1  0
 52 54  1  0
 52 55  1  0
 39 56  1  0
 56 57  1  0
 56 58  1  0
 56 59  1  0
 37 60  1  0
 60 61  1  1
 10 62  1  0
 62 63  1  0
 62 64  1  0
 62 65  1  0
 65 66  2  0
 65  2  1  0
 18  5  1  0
 60 26  1  0
 60 16  1  0
M  END
>  <UniqueID>  (24) 
23

>  <SMILES>  (24) 
C/C(=C\C=C/C(C)C)[C@H]1CC[C@]2(C)CCC3C(CC=C4CC(=O)C=CC43C)C12

>  <Energy>  (24) 
85.36554728734208

>  <Genealogy>  (24) 
CC(=CC=CC(C)C)[C@H]1CC[C@]2(C)CCC3C(CC=C4CC(=O)C=CC43C)C12 (chirality)
C/C(=C\C=C/C(C)C)[C@H]1CC[C@]2(C)CCC3C(CC=C4CC(=O)C=CC43C)C12 (cis-trans isomerization)
C/C(=C\C=C/C(C)C)[C@H]1CC[C@]2(C)CCC3C(CC=C4CC(=O)C=CC43C)C12 (3D coordinates assigned)
C/C(=C\C=C/C(C)C)[C@H]1CC[C@]2(C)CCC3C(CC=C4CC(=O)C=CC43C)C12 (nonaromatic ring conformer: 85.36554728734208 kcal/mol)

>  <smiles>  (24) 
CC(=CC=CC(C)C)C1CCC2(C)CCC3C(CC=C4CC(=O)C=CC43C)C12

>  <score_type>  (24) 
oracle

>  <origin>  (24) 
adg

>  <m_score__min__energy>  (24) 
-9.7300000000000004

>  <m_primary>  (24) 
energy

$$$$
24:0
     RDKit          3D

 47 47  0  0  0  0  0  0  0  0999 V2000
   57.9200   29.2940   45.3160 H   0  0  0  0  0  0  0  0  0  0  0  0
   58.5240   29.6370   46.0970 N   0  0  0  0  0  0  0  0  0  0  0  0
   58.7400   30.9260   46.1830 C   0  0  0  0  0  0  0  0  0  0  0  0
   58.3340   31.9130   45.2210 N   0  0  0  0  0  0  0  0  0  0  0  0
   57.0350   31.9230   44.5280 C   0  0  0  0  0  0  0  0  0  0  0  0
   56.4002   32.7085   44.9639 H   0  0  0  0  0  0  0  0  0  0  0  0
   57.2081   32.1181   43.4594 H   0  0  0  0  0  0  0  0  0  0  0  0
   56.3830   30.6740   44.6600 O   0  0  0  0  0  0  0  0  0  0  0  0
   56.1850   30.0910   43.3900 C   0  0  0  0  0  0  0  0  0  0  0  0
   55.8335   29.0559   43.5125 H   0  0  0  0  0  0  0  0  0  0  0  0
   55.4332   30.6702   42.8338 H   0  0  0  0  0  0  0  0  0  0  0  0
   57.1341   30.0925   42.8338 H   0  0  0  0  0  0  0  0  0  0  0  0
   58.9770   33.1190   45.6520 C   0  0  0  0  0  0  0  0  0  0  0  0
   58.8930   34.4040   44.8740 C   0  0  0  0  0  0  0  0  0  0  0  0
   58.8375   35.2523   45.5721 H   0  0  0  0  0  0  0  0  0  0  0  0
   59.7863   34.5082   44.2406 H   0  0  0  0  0  0  0  0  0  0  0  0
   57.9938   34.3910   44.2406 H   0  0  0  0  0  0  0  0  0  0  0  0
   59.6090   32.9710   46.8260 C   0  0  0  0  0  0  0  0  0  0  0  0
   60.1930   34.0520   47.6570 C   0  0  0  0  0  0  0  0  0  0  0  0
   59.4260   34.8450   48.2660 O   0  0  0  0  0  0  0  0  0  0  0  0
   61.5800   34.2220   47.7420 O   0  0  0  0  0  0  0  0  0  0  0  0
   62.4860   33.8410   46.7080 C   0  0  0  0  0  0  0  0  0  0  0  0
   61.9785   33.1491   46.0197 H   0  0  0  0  0  0  0  0  0  0  0  0
   62.8098   34.7443   46.1702 H   0  0  0  0  0  0  0  0  0  0  0  0
   63.7130   33.1530   47.2950 C   0  0  0  0  0  0  0  0  0  0  0  0
   63.6598   33.1828   48.3933 H   0  0  0  0  0  0  0  0  0  0  0  0
   63.7431   32.1064   46.9576 H   0  0  0  0  0  0  0  0  0  0  0  0
   64.6216   33.6732   46.9576 H   0  0  0  0  0  0  0  0  0  0  0  0
   59.5750   31.5340   47.2670 C   0  0  2  0  0  0  0  0  0  0  0  0
   59.1860   31.3759   48.2837 H   0  0  0  0  0  0  0  0  0  0  0  0
   60.9860   30.9300   47.2870 C   0  0  0  0  0  0  0  0  0  0  0  0
   61.3106   30.7910   48.3288 H   0  0  0  0  0  0  0  0  0  0  0  0
   60.9758   29.9574   46.7733 H   0  0  0  0  0  0  0  0  0  0  0  0
   61.6827   31.6087   46.7733 H   0  0  0  0  0  0  0  0  0  0  0  0
   58.9420   28.6210   47.0660 C   0  0  0  0  0  0  0  0  0  0  0  0
   58.6530   28.9482   48.0757 H   0  0  0  0  0  0  0  0  0  0  0  0
   60.0330   28.4999   46.9941 H   0  0  0  0  0  0  0  0  0  0  0  0
   58.2980   27.2970   46.7780 C   0  0  0  0  0  0  0  0  0  0  0  0
   58.5670   26.3050   47.5070 O   0  0  0  0  0  0  0  0  0  0  0  0
   57.4400   27.1670   45.6800 O   0  0  0  0  0  0  0  0  0  0  0  0
   57.7810   26.4500   44.4960 C   0  0  0  0  0  0  0  0  0  0  0  0
   56.9096   25.8673   44.1628 H   0  0  0  0  0  0  0  0  0  0  0  0
   58.6248   25.7802   44.7181 H   0  0  0  0  0  0  0  0  0  0  0  0
   58.1950   27.4100   43.3870 C   0  0  0  0  0  0  0  0  0  0  0  0
   58.5934   28.3339   43.8316 H   0  0  0  0  0  0  0  0  0  0  0  0
   58.9699   26.9388   42.7645 H   0  0  0  0  0  0  0  0  0  0  0  0
   57.3205   27.6501   42.7645 H   0  0  0  0  0  0  0  0  0  0  0  0
  1  2  1  0
  2  3  2  0
  3  4  1  0
  4  5  1  0
  5  6  1  0
  5  7  1  0
  5  8  1  0
  8  9  1  0
  9 10  1  0
  9 11  1  0
  9 12  1  0
  4 13  1  0
 13 14  1  0
 14 15  1  0
 14 16  1  0
 14 17  1  0
 13 18  2  0
 18 19  1  0
 19 20  2  0
 19 21  1  0
 21 22  1  0
 22 23  1  0
 22 24  1  0
 22 25  1  0
 25 26  1  0
 25 27  1  0
 25 28  1  0
 18 29  1  0
 29 30  1  1
 29 31  1  0
 31 32  1  0
 31 33  1  0
 31 34  1  0
  2 35  1  0
 35 36  1  0
 35 37  1  0
 35 38  1  0
 38 39  2  0
 38 40  1  0
 40 41  1  0
 41 42  1  0
 41 43  1  0
 41 44  1  0
 44 45  1  0
 44 46  1  0
 44 47  1  0
 29  3  1  0
M  CHG  1   2   1
M  END
>  <UniqueID>  (25) 
24

>  <SMILES>  (25) 
CCOC(=O)C/[NH+]=C1/[C@@H](C)C(C(=O)OCC)=C(C)N1COC

>  <Energy>  (25) 
56.40671176112493

>  <Genealogy>  (25) 
CCOC(=O)C[NH+]=C1C(C)C(C(=O)OCC)=C(C)N1COC (protonated)
CCOC(=O)C[NH+]=C1[C@@H](C)C(C(=O)OCC)=C(C)N1COC (chirality)
CCOC(=O)C/[NH+]=C1/[C@@H](C)C(C(=O)OCC)=C(C)N1COC (cis-trans isomerization)
CCOC(=O)C/[NH+]=C1/[C@@H](C)C(C(=O)OCC)=C(C)N1COC (3D coordinates assigned)
CCOC(=O)C/[NH+]=C1/[C@@H](C)C(C(=O)OCC)=C(C)N1COC (nonaromatic ring conformer: 56.40671176112493 kcal/mol)

>  <smiles>  (25) 
CCOC(=O)CN=C1C(C)C(C(=O)OCC)=C(C)N1COC

>  <score_type>  (25) 
oracle

>  <origin>  (25) 
adg

>  <m_score__min__energy>  (25) 
-4.5199999999999996

>  <m_primary>  (25) 
energy

$$$$
25:0
     RDKit          3D

 42 45  0  0  0  0  0  0  0  0999 V2000
   57.7360   25.3520   44.9080 C   0  0  0  0  0  0  0  0  0  0  0  0
   58.8860   25.5760   45.8850 C   0  0  0  0  0  0  0  0  0  0  0  0
   58.4170   26.3350   47.1310 C   0  0  0  0  0  0  0  0  0  0  0  0
   58.8710   27.7400   47.0750 N   0  0  0  0  0  0  0  0  0  0  0  0
   59.9830   28.1270   47.7870 C   0  0  0  0  0  0  0  0  0  0  0  0
   60.6280   27.2900   48.4750 O   0  0  0  0  0  0  0  0  0  0  0  0
   60.4120   29.4150   47.7700 N   0  0  0  0  0  0  0  0  0  0  0  0
   59.7640   30.3780   47.0670 C   0  0  0  0  0  0  0  0  0  0  0  0
   60.2120   31.6710   47.0580 N   0  0  0  0  0  0  0  0  0  0  0  0
   61.4010   31.9920   47.8040 C   0  0  0  0  0  0  0  0  0  0  0  0
   62.6020   32.2670   47.1340 C   0  0  0  0  0  0  0  0  0  0  0  0
   63.7550   32.5810   47.8610 C   0  0  0  0  0  0  0  0  0  0  0  0
   63.7120   32.6230   49.2570 C   0  0  0  0  0  0  0  0  0  0  0  0
   62.5170   32.3510   49.9300 C   0  0  0  0  0  0  0  0  0  0  0  0
   61.3620   32.0370   49.2070 C   0  0  0  0  0  0  0  0  0  0  0  0
   59.5360   32.6410   46.3430 C   0  0  0  0  0  0  0  0  0  0  0  0
   59.9720   33.9880   46.3280 C   0  0  0  0  0  0  0  0  0  0  0  0
   59.2790   34.9560   45.6010 C   0  0  0  0  0  0  0  0  0  0  0  0
   58.1390   34.6110   44.8780 C   0  0  0  0  0  0  0  0  0  0  0  0
   57.6830   33.2940   44.8780 C   0  0  0  0  0  0  0  0  0  0  0  0
   58.3670   32.3050   45.6040 C   0  0  0  0  0  0  0  0  0  0  0  0
   57.8900   30.9900   45.5960 C   0  0  0  0  0  0  0  0  0  0  0  0
   58.5620   30.0020   46.3130 C   0  0  0  0  0  0  0  0  0  0  0  0
   58.1490   28.6630   46.3560 C   0  0  0  0  0  0  0  0  0  0  0  0
   57.1080   28.3120   45.7320 O   0  0  0  0  0  0  0  0  0  0  0  0
   56.8077   25.1712   45.4697 H   0  0  0  0  0  0  0  0  0  0  0  0
   57.6138   26.2432   44.2749 H   0  0  0  0  0  0  0  0  0  0  0  0
   57.9573   24.4801   44.2749 H   0  0  0  0  0  0  0  0  0  0  0  0
   59.2916   24.6004   46.1910 H   0  0  0  0  0  0  0  0  0  0  0  0
   59.6576   26.1771   45.3817 H   0  0  0  0  0  0  0  0  0  0  0  0
   57.3183   26.3100   47.1793 H   0  0  0  0  0  0  0  0  0  0  0  0
   58.8438   25.8558   48.0244 H   0  0  0  0  0  0  0  0  0  0  0  0
   62.6373   32.2357   46.0350 H   0  0  0  0  0  0  0  0  0  0  0  0
   64.6962   32.7950   47.3334 H   0  0  0  0  0  0  0  0  0  0  0  0
   64.6195   32.8704   49.8273 H   0  0  0  0  0  0  0  0  0  0  0  0
   62.4854   32.3840   51.0290 H   0  0  0  0  0  0  0  0  0  0  0  0
   60.4221   31.8251   49.7377 H   0  0  0  0  0  0  0  0  0  0  0  0
   60.8687   34.2748   46.8969 H   0  0  0  0  0  0  0  0  0  0  0  0
   59.6343   35.9970   45.5985 H   0  0  0  0  0  0  0  0  0  0  0  0
   57.5980   35.3794   44.3062 H   0  0  0  0  0  0  0  0  0  0  0  0
   56.7820   33.0274   44.3060 H   0  0  0  0  0  0  0  0  0  0  0  0
   56.9852   30.7361   45.0242 H   0  0  0  0  0  0  0  0  0  0  0  0
  1  2  1  0
  2  3  1  0
  3  4  1  0
  4  5  1  0
  5  6  2  0
  5  7  1  0
  7  8  2  0
  8  9  1  0
  9 10  1  0
 10 11  2  0
 11 12  1  0
 12 13  2  0
 13 14  1  0
 14 15  2  0
  9 16  1  0
 16 17  2  0
 17 18  1  0
 18 19  2  0
 19 20  1  0
 20 21  2  0
 21 22  1  0
 22 23  2  0
 23 24  1  0
 24 25  2  0
 24  4  1  0
 23  8  1  0
 15 10  1  0
 21 16  1  0
  1 26  1  0
  1 27  1  0
  1 28  1  0
  2 29  1  0
  2 30  1  0
  3 31  1  0
  3 32  1  0
 11 33  1  0
 12 34  1  0
 13 35  1  0
 14 36  1  0
 15 37  1  0
 17 38  1  0
 18 39  1  0
 19 40  1  0
 20 41  1  0
 22 42  1  0
M  END
>  <UniqueID>  (26) 
25

>  <SMILES>  (26) 
CCCn1c(=O)nc2n(-c3ccccc3)c3ccccc3cc-2c1=O

>  <Energy>  (26) 
63.42550404597008

>  <Genealogy>  (26) 
CCCn1c(=O)nc2n(-c3ccccc3)c3ccccc3cc-2c1=O (3D coordinates assigned)
CCCn1c(=O)nc2n(-c3ccccc3)c3ccccc3cc-2c1=O (optimized conformer: 63.42550404597008 kcal/mol)

>  <smiles>  (26) 
CCCn1c(=O)nc2n(-c3ccccc3)c3ccccc3cc-2c1=O

>  <score_type>  (26) 
oracle

>  <origin>  (26) 
adg

>  <m_score__min__energy>  (26) 
-7.4299999999999997

>  <m_primary>  (26) 
energy

$$$$
26:0
     RDKit          3D

 44 46  0  0  0  0  0  0  0  0999 V2000
   59.5040   33.6190   52.1370 C   0  0  0  0  0  0  0  0  0  0  0  0
   60.0290   33.3000   50.7930 N   0  0  1  0  0  0  0  0  0  0  0  0
   61.4970   33.5060   50.7410 C   0  0  0  0  0  0  0  0  0  0  0  0
   62.0460   33.3490   49.3410 C   0  0  0  0  0  0  0  0  0  0  0  0
   63.1770   32.5500   49.1030 C   0  0  0  0  0  0  0  0  0  0  0  0
   63.6890   32.4210   47.8080 C   0  0  0  0  0  0  0  0  0  0  0  0
   63.0770   33.0880   46.7430 C   0  0  0  0  0  0  0  0  0  0  0  0
   61.9530   33.8850   46.9710 C   0  0  0  0  0  0  0  0  0  0  0  0
   61.4370   34.0170   48.2660 C   0  0  0  0  0  0  0  0  0  0  0  0
   59.7110   31.8980   50.4270 C   0  0  0  0  0  0  0  0  0  0  0  0
   59.2230   31.7770   49.0010 C   0  0  0  0  0  0  0  0  0  0  0  0
   58.4550   32.7980   48.4210 C   0  0  0  0  0  0  0  0  0  0  0  0
   58.0210   32.6910   47.0960 C   0  0  0  0  0  0  0  0  0  0  0  0
   58.3470   31.5590   46.3270 C   0  0  0  0  0  0  0  0  0  0  0  0
   57.8880   31.4450   44.9190 C   0  0  0  0  0  0  0  0  0  0  0  0
   57.1070   30.3490   44.5070 C   0  0  0  0  0  0  0  0  0  0  0  0
   56.6750   30.2450   43.1810 C   0  0  0  0  0  0  0  0  0  0  0  0
   57.0200   31.2300   42.2520 C   0  0  0  0  0  0  0  0  0  0  0  0
   57.7950   32.3220   42.6480 C   0  0  0  0  0  0  0  0  0  0  0  0
   58.2280   32.4320   43.9740 C   0  0  0  0  0  0  0  0  0  0  0  0
   59.1180   30.5380   46.9130 C   0  0  0  0  0  0  0  0  0  0  0  0
   59.5520   30.6480   48.2370 C   0  0  0  0  0  0  0  0  0  0  0  0
   60.1798   33.2084   52.9016 H   0  0  0  0  0  0  0  0  0  0  0  0
   59.4371   34.7106   52.2549 H   0  0  0  0  0  0  0  0  0  0  0  0
   58.5043   33.1755   52.2549 H   0  0  0  0  0  0  0  0  0  0  0  0
   59.5760   33.9390   50.0960 H   0  0  0  0  0  0  0  0  0  0  0  0
   61.7254   34.5206   51.0995 H   0  0  0  0  0  0  0  0  0  0  0  0
   61.9682   32.7417   51.3764 H   0  0  0  0  0  0  0  0  0  0  0  0
   63.6617   32.0238   49.9386 H   0  0  0  0  0  0  0  0  0  0  0  0
   64.5745   31.7938   47.6273 H   0  0  0  0  0  0  0  0  0  0  0  0
   63.4808   32.9852   45.7250 H   0  0  0  0  0  0  0  0  0  0  0  0
   61.4724   34.4097   46.1321 H   0  0  0  0  0  0  0  0  0  0  0  0
   60.5518   34.6459   48.4420 H   0  0  0  0  0  0  0  0  0  0  0  0
   60.6180   31.2868   50.5442 H   0  0  0  0  0  0  0  0  0  0  0  0
   58.9055   31.5500   51.0904 H   0  0  0  0  0  0  0  0  0  0  0  0
   58.1928   33.6879   49.0121 H   0  0  0  0  0  0  0  0  0  0  0  0
   57.4201   33.4981   46.6516 H   0  0  0  0  0  0  0  0  0  0  0  0
   56.8345   29.5688   45.2330 H   0  0  0  0  0  0  0  0  0  0  0  0
   56.0625   29.3863   42.8688 H   0  0  0  0  0  0  0  0  0  0  0  0
   56.6812   31.1453   41.2089 H   0  0  0  0  0  0  0  0  0  0  0  0
   58.0656   33.0973   41.9161 H   0  0  0  0  0  0  0  0  0  0  0  0
   58.8378   33.2948   44.2801 H   0  0  0  0  0  0  0  0  0  0  0  0
   59.3811   29.6466   46.3246 H   0  0  0  0  0  0  0  0  0  0  0  0
   60.1556   29.8437   48.6827 H   0  0  0  0  0  0  0  0  0  0  0  0
  1  2  1  0
  2  3  1  0
  3  4  1  0
  4  5  2  0
  5  6  1  0
  6  7  2  0
  7  8  1  0
  8  9  2  0
  2 10  1  0
 10 11  1  0
 11 12  2  0
 12 13  1  0
 13 14  2  0
 14 15  1  0
 15 16  2  0
 16 17  1  0
 17 18  2  0
 18 19  1  0
 19 20  2  0
 14 21  1  0
 21 22  2  0
  9  4  1  0
 22 11  1  0
 20 15  1  0
  1 23  1  0
  1 24  1  0
  1 25  1  0
  2 26  1  6
  3 27  1  0
  3 28  1  0
  5 29  1  0
  6 30  1  0
  7 31  1  0
  8 32  1  0
  9 33  1  0
 10 34  1  0
 10 35  1  0
 12 36  1  0
 13 37  1  0
 16 38  1  0
 17 39  1  0
 18 40  1  0
 19 41  1  0
 20 42  1  0
 21 43  1  0
 22 44  1  0
M  CHG  1   2   1
M  END
>  <UniqueID>  (27) 
26

>  <SMILES>  (27) 
C[N@@H+](Cc1ccccc1)Cc1ccc(-c2ccccc2)cc1

>  <Energy>  (27) 
53.696087398594216

>  <Genealogy>  (27) 
C[NH+](Cc1ccccc1)Cc1ccc(-c2ccccc2)cc1 (protonated)
C[N@@H+](Cc1ccccc1)Cc1ccc(-c2ccccc2)cc1 (chirality)
C[N@@H+](Cc1ccccc1)Cc1ccc(-c2ccccc2)cc1 (3D coordinates assigned)
C[N@@H+](Cc1ccccc1)Cc1ccc(-c2ccccc2)cc1 (optimized conformer: 53.696087398594216 kcal/mol)

>  <smiles>  (27) 
CN(Cc1ccccc1)Cc1ccc(-c2ccccc2)cc1

>  <score_type>  (27) 
oracle

>  <origin>  (27) 
adg

>  <m_score__min__energy>  (27) 
-5.9299999999999997

>  <m_primary>  (27) 
energy

$$$$
27:0
     RDKit          3D

 41 43  0  0  0  0  0  0  0  0999 V2000
   66.7480   30.9060   51.1900 C   0  0  0  0  0  0  0  0  0  0  0  0
   66.1590   31.6290   50.1150 O   0  0  0  0  0  0  0  0  0  0  0  0
   65.1170   32.5570   50.2630 C   0  0  0  0  0  0  0  0  0  0  0  0
   65.0650   33.4710   51.3340 C   0  0  0  0  0  0  0  0  0  0  0  0
   64.0050   34.3770   51.4360 C   0  0  0  0  0  0  0  0  0  0  0  0
   62.9900   34.3810   50.4760 C   0  0  0  0  0  0  0  0  0  0  0  0
   63.0330   33.4770   49.4070 C   0  0  0  0  0  0  0  0  0  0  0  0
   61.9890   33.4810   48.4170 C   0  0  0  0  0  0  0  0  0  0  0  0
   61.1140   33.4850   47.5890 C   0  0  0  0  0  0  0  0  0  0  0  0
   60.0670   33.4900   46.6000 C   0  0  0  0  0  0  0  0  0  0  0  0
   59.7460   34.6750   45.9340 C   0  0  0  0  0  0  0  0  0  0  0  0
   58.7300   34.6830   44.9810 C   0  0  0  0  0  0  0  0  0  0  0  0
   58.0320   33.5100   44.6850 C   0  0  0  0  0  0  0  0  0  0  0  0
   58.3390   32.2910   45.3370 C   0  0  0  0  0  0  0  0  0  0  0  0
   57.6110   31.0620   45.0280 N   0  0  0  0  0  0  0  0  0  0  0  0
   56.6040   31.0700   43.9460 C   0  0  0  0  0  0  0  0  0  0  0  0
   55.9780   29.6980   43.6790 C   0  0  0  0  0  0  0  0  0  0  0  0
   55.7700   28.9960   44.8810 O   0  0  0  0  0  0  0  0  0  0  0  0
   57.0250   28.6410   45.4090 C   0  0  0  0  0  0  0  0  0  0  0  0
   57.7860   29.8780   45.8960 C   0  0  0  0  0  0  0  0  0  0  0  0
   59.3710   32.3100   46.3070 C   0  0  0  0  0  0  0  0  0  0  0  0
   64.0950   32.5690   49.3040 C   0  0  0  0  0  0  0  0  0  0  0  0
   66.4050   31.3271   52.1466 H   0  0  0  0  0  0  0  0  0  0  0  0
   66.4508   29.8488   51.1272 H   0  0  0  0  0  0  0  0  0  0  0  0
   67.8435   30.9833   51.1272 H   0  0  0  0  0  0  0  0  0  0  0  0
   65.8614   33.4718   52.0928 H   0  0  0  0  0  0  0  0  0  0  0  0
   63.9701   35.0884   52.2742 H   0  0  0  0  0  0  0  0  0  0  0  0
   62.1568   35.0943   50.5597 H   0  0  0  0  0  0  0  0  0  0  0  0
   60.2948   35.6007   46.1617 H   0  0  0  0  0  0  0  0  0  0  0  0
   58.4763   35.6175   44.4592 H   0  0  0  0  0  0  0  0  0  0  0  0
   57.2300   33.5335   43.9325 H   0  0  0  0  0  0  0  0  0  0  0  0
   55.8019   31.7700   44.2230 H   0  0  0  0  0  0  0  0  0  0  0  0
   57.1238   31.3715   43.0246 H   0  0  0  0  0  0  0  0  0  0  0  0
   55.0120   29.8360   43.1712 H   0  0  0  0  0  0  0  0  0  0  0  0
   56.6655   29.1160   43.0477 H   0  0  0  0  0  0  0  0  0  0  0  0
   56.8778   27.9532   46.2548 H   0  0  0  0  0  0  0  0  0  0  0  0
   57.6143   28.1568   44.6163 H   0  0  0  0  0  0  0  0  0  0  0  0
   57.4285   30.1310   46.9051 H   0  0  0  0  0  0  0  0  0  0  0  0
   58.8561   29.6239   45.8820 H   0  0  0  0  0  0  0  0  0  0  0  0
   59.6303   31.3828   46.8391 H   0  0  0  0  0  0  0  0  0  0  0  0
   64.1269   31.8598   48.4637 H   0  0  0  0  0  0  0  0  0  0  0  0
  1  2  1  0
  2  3  1  0
  3  4  2  0
  4  5  1  0
  5  6  2  0
  6  7  1  0
  7  8  1  0
  8  9  3  0
  9 10  1  0
 10 11  2  0
 11 12  1  0
 12 13  2  0
 13 14  1  0
 14 15  1  0
 15 16  1  0
 16 17  1  0
 17 18  1  0
 18 19  1  0
 19 20  1  0
 14 21  2  0
  7 22  2  0
 22  3  1  0
 21 10  1  0
 20 15  1  0
  1 23  1  0
  1 24  1  0
  1 25  1  0
  4 26  1  0
  5 27  1  0
  6 28  1  0
 11 29  1  0
 12 30  1  0
 13 31  1  0
 16 32  1  0
 16 33  1  0
 17 34  1  0
 17 35  1  0
 19 36  1  0
 19 37  1  0
 20 38  1  0
 20 39  1  0
 21 40  1  0
 22 41  1  0
M  END
>  <UniqueID>  (28) 
27

>  <SMILES>  (28) 
COc1cccc(C#Cc2cccc(N3CCOCC3)c2)c1

>  <Energy>  (28) 
45.830802214747685

>  <Genealogy>  (28) 
COc1cccc(C#Cc2cccc(N3CCOCC3)c2)c1 (3D coordinates assigned)
COc1cccc(C#Cc2cccc(N3CCOCC3)c2)c1 (nonaromatic ring conformer: 45.830802214747685 kcal/mol)

>  <smiles>  (28) 
COc1cccc(C#Cc2cccc(N3CCOCC3)c2)c1

>  <score_type>  (28) 
oracle

>  <origin>  (28) 
adg

>  <m_score__min__energy>  (28) 
-7.1699999999999999

>  <m_primary>  (28) 
energy

$$$$
28:0
     RDKit          3D

 40 42  0  0  0  0  0  0  0  0999 V2000
   57.3910   25.6320   44.5030 C   0  0  0  0  0  0  0  0  0  0  0  0
   58.4260   26.6910   44.7730 C   0  0  0  0  0  0  0  0  0  0  0  0
   59.3020   26.5120   45.8580 C   0  0  0  0  0  0  0  0  0  0  0  0
   60.2880   27.4590   46.1400 C   0  0  0  0  0  0  0  0  0  0  0  0
   60.4160   28.5940   45.3380 C   0  0  0  0  0  0  0  0  0  0  0  0
   59.5410   28.7950   44.2700 C   0  0  0  0  0  0  0  0  0  0  0  0
   58.5160   27.8770   44.0040 C   0  0  0  0  0  0  0  0  0  0  0  0
   57.3940   28.2210   42.6290 S   0  0  0  0  0  0  0  0  0  0  0  0
   56.6020   29.7310   43.3200 C   0  0  2  0  0  0  0  0  0  0  0  0
   57.1560   30.9900   42.6850 C   0  0  0  0  0  0  0  0  0  0  0  0
   57.0050   31.1590   41.4840 O   0  0  0  0  0  0  0  0  0  0  0  0
   57.9280   32.0200   43.4700 C   0  0  0  0  0  0  0  0  0  0  0  0
   57.4680   32.0880   44.9350 C   0  0  2  0  0  0  0  0  0  0  0  0
   58.2990   33.0880   45.7200 C   0  0  0  0  0  0  0  0  0  0  0  0
   58.8640   34.2170   45.0930 C   0  0  0  0  0  0  0  0  0  0  0  0
   59.6250   35.1280   45.8300 C   0  0  0  0  0  0  0  0  0  0  0  0
   59.8300   34.9270   47.1970 C   0  0  0  0  0  0  0  0  0  0  0  0
   59.2730   33.8130   47.8300 C   0  0  0  0  0  0  0  0  0  0  0  0
   58.5110   32.8980   47.0970 C   0  0  0  0  0  0  0  0  0  0  0  0
   57.5130   30.7010   45.5890 C   0  0  0  0  0  0  0  0  0  0  0  0
   56.6480   29.7330   44.8290 C   0  0  0  0  0  0  0  0  0  0  0  0
   55.9880   28.9110   45.4460 O   0  0  0  0  0  0  0  0  0  0  0  0
   57.0088   25.2410   45.4575 H   0  0  0  0  0  0  0  0  0  0  0  0
   56.5616   26.0683   43.9271 H   0  0  0  0  0  0  0  0  0  0  0  0
   57.8462   24.8128   43.9271 H   0  0  0  0  0  0  0  0  0  0  0  0
   59.2095   25.6170   46.4908 H   0  0  0  0  0  0  0  0  0  0  0  0
   60.9644   27.3106   46.9947 H   0  0  0  0  0  0  0  0  0  0  0  0
   61.2064   29.3297   45.5478 H   0  0  0  0  0  0  0  0  0  0  0  0
   59.6568   29.6826   43.6306 H   0  0  0  0  0  0  0  0  0  0  0  0
   55.5344   29.7160   43.0555 H   0  0  0  0  0  0  0  0  0  0  0  0
   57.7801   33.0058   43.0048 H   0  0  0  0  0  0  0  0  0  0  0  0
   58.9894   31.7313   43.4593 H   0  0  0  0  0  0  0  0  0  0  0  0
   56.4238   32.4337   44.9469 H   0  0  0  0  0  0  0  0  0  0  0  0
   58.7048   34.3818   44.0171 H   0  0  0  0  0  0  0  0  0  0  0  0
   60.0637   36.0055   45.3326 H   0  0  0  0  0  0  0  0  0  0  0  0
   60.4298   35.6455   47.7749 H   0  0  0  0  0  0  0  0  0  0  0  0
   59.4341   33.6555   48.9067 H   0  0  0  0  0  0  0  0  0  0  0  0
   58.0743   32.0233   47.6012 H   0  0  0  0  0  0  0  0  0  0  0  0
   57.1487   30.7767   46.6242 H   0  0  0  0  0  0  0  0  0  0  0  0
   58.5505   30.3357   45.5784 H   0  0  0  0  0  0  0  0  0  0  0  0
  1  2  1  0
  2  3  2  0
  3  4  1  0
  4  5  2  0
  5  6  1  0
  6  7  2  0
  7  8  1  0
  8  9  1  0
  9 10  1  0
 10 11  2  0
 10 12  1  0
 12 13  1  0
 13 14  1  0
 14 15  2  0
 15 16  1  0
 16 17  2  0
 17 18  1  0
 18 19  2  0
 13 20  1  0
 20 21  1  0
 21 22  2  0
  7  2  1  0
 21  9  1  0
 19 14  1  0
  1 23  1  0
  1 24  1  0
  1 25  1  0
  3 26  1  0
  4 27  1  0
  5 28  1  0
  6 29  1  0
  9 30  1  1
 12 31  1  0
 12 32  1  0
 13 33  1  6
 15 34  1  0
 16 35  1  0
 17 36  1  0
 18 37  1  0
 19 38  1  0
 20 39  1  0
 20 40  1  0
M  END
>  <UniqueID>  (29) 
28

>  <SMILES>  (29) 
Cc1ccccc1SC1C(=O)CC(c2ccccc2)CC1=O

>  <Energy>  (29) 
37.07746580367957

>  <Genealogy>  (29) 
Cc1ccccc1SC1C(=O)CC(c2ccccc2)CC1=O (3D coordinates assigned)
Cc1ccccc1SC1C(=O)CC(c2ccccc2)CC1=O (nonaromatic ring conformer: 37.07746580367957 kcal/mol)

>  <smiles>  (29) 
Cc1ccccc1SC1C(=O)CC(c2ccccc2)CC1=O

>  <score_type>  (29) 
oracle

>  <origin>  (29) 
adg

>  <m_score__min__energy>  (29) 
-8.1600000000000001

>  <m_primary>  (29) 
energy

$$$$
29:0
     RDKit          3D

 44 45  0  0  0  0  0  0  0  0999 V2000
   57.7910   32.2640   42.4590 C   0  0  0  0  0  0  0  0  0  0  0  0
   58.3610   32.9210   43.4730 C   0  0  0  0  0  0  0  0  0  0  0  0
   57.5430   33.6580   44.4960 C   0  0  0  0  0  0  0  0  0  0  0  0
   58.1560   33.5300   45.8690 C   0  0  0  0  0  0  0  0  0  0  0  0
   58.8360   34.6230   46.4330 C   0  0  0  0  0  0  0  0  0  0  0  0
   59.4350   34.5090   47.6890 C   0  0  0  0  0  0  0  0  0  0  0  0
   59.3670   33.3060   48.3900 C   0  0  0  0  0  0  0  0  0  0  0  0
   58.7040   32.2080   47.8370 C   0  0  0  0  0  0  0  0  0  0  0  0
   58.0960   32.3070   46.5690 C   0  0  0  0  0  0  0  0  0  0  0  0
   57.4310   31.2220   45.9700 O   0  0  0  0  0  0  0  0  0  0  0  0
   58.0380   30.1970   45.1770 C   0  0  1  0  0  0  0  0  0  0  0  0
   58.8860   29.4140   46.0080 O   0  0  0  0  0  0  0  0  0  0  0  0
   58.1530   28.4280   46.7080 C   0  0  2  0  0  0  0  0  0  0  0  0
   59.0050   27.8920   47.8660 C   0  0  0  0  0  0  0  0  0  0  0  0
   60.0360   28.7890   48.1720 O   0  0  0  0  0  0  0  0  0  0  0  0
   57.7240   27.2940   45.7400 C   0  0  1  0  0  0  0  0  0  0  0  0
   56.5830   26.6520   46.2900 O   0  0  0  0  0  0  0  0  0  0  0  0
   56.3620   25.4060   45.6650 C   0  0  0  0  0  0  0  0  0  0  0  0
   57.3790   27.8680   44.3360 C   0  0  2  0  0  0  0  0  0  0  0  0
   58.4460   27.6910   43.4350 O   0  0  0  0  0  0  0  0  0  0  0  0
   56.9710   29.3560   44.4070 C   0  0  1  0  0  0  0  0  0  0  0  0
   55.7200   29.4660   45.0430 O   0  0  0  0  0  0  0  0  0  0  0  0
   58.4169   31.7338   41.7261 H   0  0  0  0  0  0  0  0  0  0  0  0
   56.6958   32.2532   42.3570 H   0  0  0  0  0  0  0  0  0  0  0  0
   59.4574   32.9226   43.5615 H   0  0  0  0  0  0  0  0  0  0  0  0
   57.4953   34.7219   44.2206 H   0  0  0  0  0  0  0  0  0  0  0  0
   56.5335   33.2218   44.5196 H   0  0  0  0  0  0  0  0  0  0  0  0
   58.8966   35.5732   45.8821 H   0  0  0  0  0  0  0  0  0  0  0  0
   59.9616   35.3701   48.1262 H   0  0  0  0  0  0  0  0  0  0  0  0
   59.8366   33.2212   49.3811 H   0  0  0  0  0  0  0  0  0  0  0  0
   58.6560   31.2607   48.3941 H   0  0  0  0  0  0  0  0  0  0  0  0
   58.6602   30.6508   44.3915 H   0  0  0  0  0  0  0  0  0  0  0  0
   57.2362   28.8684   47.1269 H   0  0  0  0  0  0  0  0  0  0  0  0
   58.3676   27.7571   48.7523 H   0  0  0  0  0  0  0  0  0  0  0  0
   59.4471   26.9301   47.5671 H   0  0  0  0  0  0  0  0  0  0  0  0
   59.9910   29.5050   47.4860 H   0  0  0  0  0  0  0  0  0  0  0  0
   58.5509   26.5786   45.6200 H   0  0  0  0  0  0  0  0  0  0  0  0
   56.2244   24.6301   46.4325 H   0  0  0  0  0  0  0  0  0  0  0  0
   55.4603   25.4652   45.0377 H   0  0  0  0  0  0  0  0  0  0  0  0
   57.2290   25.1515   45.0377 H   0  0  0  0  0  0  0  0  0  0  0  0
   56.5134   27.3011   43.9628 H   0  0  0  0  0  0  0  0  0  0  0  0
   58.6370   28.5640   43.0040 H   0  0  0  0  0  0  0  0  0  0  0  0
   56.9041   29.7511   43.3826 H   0  0  0  0  0  0  0  0  0  0  0  0
   55.8970   29.7120   45.9890 H   0  0  0  0  0  0  0  0  0  0  0  0
  1  2  2  0
  2  3  1  0
  3  4  1  0
  4  5  2  0
  5  6  1  0
  6  7  2  0
  7  8  1  0
  8  9  2  0
  9 10  1  0
 10 11  1  0
 11 12  1  0
 12 13  1  0
 13 14  1  0
 14 15  1  0
 13 16  1  0
 16 17  1  0
 17 18  1  0
 16 19  1  0
 19 20  1  0
 19 21  1  0
 21 22  1  0
  9  4  1  0
 21 11  1  0
  1 23  1  0
  1 24  1  0
  2 25  1  0
  3 26  1  0
  3 27  1  0
  5 28  1  0
  6 29  1  0
  7 30  1  0
  8 31  1  0
 11 32  1  6
 13 33  1  1
 14 34  1  0
 14 35  1  0
 15 36  1  0
 16 37  1  6
 18 38  1  0
 18 39  1  0
 18 40  1  0
 19 41  1  6
 20 42  1  0
 21 43  1  6
 22 44  1  0
M  END
>  <UniqueID>  (30) 
29

>  <SMILES>  (30) 
C=CCc1ccccc1O[C@H]1O[C@H](CO)C(OC)C(O)C1O

>  <Energy>  (30) 
52.10677290588104

>  <Genealogy>  (30) 
C=CCc1ccccc1O[C@H]1O[C@H](CO)C(OC)C(O)C1O (chirality)
C=CCc1ccccc1O[C@H]1O[C@H](CO)C(OC)C(O)C1O (3D coordinates assigned)
C=CCc1ccccc1O[C@H]1O[C@H](CO)C(OC)C(O)C1O (nonaromatic ring conformer: 52.10677290588104 kcal/mol)

>  <smiles>  (30) 
C=CCc1ccccc1OC1OC(CO)C(OC)C(O)C1O

>  <score_type>  (30) 
oracle

>  <origin>  (30) 
adg

>  <m_score__min__energy>  (30) 
-6.8300000000000001

>  <m_primary>  (30) 
energy

$$$$
30:0
     RDKit          3D

 39 41  0  0  0  0  0  0  0  0999 V2000
   58.2402   33.5596   42.8844 H   0  0  0  0  0  0  0  0  0  0  0  0
   57.8100   32.6680   43.3640 C   0  0  0  0  0  0  0  0  0  0  0  0
   57.6570   32.6170   44.7550 C   0  0  0  0  0  0  0  0  0  0  0  0
   58.0460   33.7800   45.6140 C   0  0  0  0  0  0  0  0  0  0  0  0
   57.9525   33.5005   46.6738 H   0  0  0  0  0  0  0  0  0  0  0  0
   59.0874   34.0620   45.3996 H   0  0  0  0  0  0  0  0  0  0  0  0
   57.3839   34.6318   45.3996 H   0  0  0  0  0  0  0  0  0  0  0  0
   57.0950   31.5190   45.3300 N   0  0  0  0  0  0  0  0  0  0  0  0
   56.7100   30.4330   44.6030 C   0  0  0  0  0  0  0  0  0  0  0  0
   56.1630   29.3940   45.1670 N   0  0  0  0  0  0  0  0  0  0  0  0
   56.6640   28.0480   45.2440 C   0  0  0  0  0  0  0  0  0  0  0  0
   55.8840   27.1480   45.6530 O   0  0  0  0  0  0  0  0  0  0  0  0
   57.9980   27.6340   44.6640 C   0  0  0  0  0  0  0  0  0  0  0  0
   58.4726   28.5101   44.1980 H   0  0  0  0  0  0  0  0  0  0  0  0
   57.8206   26.8430   43.9204 H   0  0  0  0  0  0  0  0  0  0  0  0
   58.9010   27.0960   45.7090 N   0  0  0  0  0  0  0  0  0  0  0  0
   60.2350   27.7390   45.6590 C   0  0  0  0  0  0  0  0  0  0  0  0
   60.5487   27.8366   44.6092 H   0  0  0  0  0  0  0  0  0  0  0  0
   60.9479   27.1135   46.2163 H   0  0  0  0  0  0  0  0  0  0  0  0
   60.1970   29.0980   46.2880 C   0  0  0  0  0  0  0  0  0  0  0  0
   61.0870   30.0850   46.0510 N   0  0  0  0  0  0  0  0  0  0  0  0
   60.6660   31.0820   46.8620 C   0  0  0  0  0  0  0  0  0  0  0  0
   61.2860   32.4380   46.9000 C   0  0  0  0  0  0  0  0  0  0  0  0
   61.4274   32.7473   47.9461 H   0  0  0  0  0  0  0  0  0  0  0  0
   62.2607   32.4099   46.3910 H   0  0  0  0  0  0  0  0  0  0  0  0
   60.6271   33.1568   46.3910 H   0  0  0  0  0  0  0  0  0  0  0  0
   59.5390   30.6920   47.5590 C   0  0  0  0  0  0  0  0  0  0  0  0
   58.9674   31.3038   48.2725 H   0  0  0  0  0  0  0  0  0  0  0  0
   59.2730   29.4270   47.2020 N   0  0  0  0  0  0  0  0  0  0  0  0
   58.1430   28.5950   47.6000 C   0  0  0  0  0  0  0  0  0  0  0  0
   57.2171   29.0194   47.1846 H   0  0  0  0  0  0  0  0  0  0  0  0
   58.0894   28.5698   48.6984 H   0  0  0  0  0  0  0  0  0  0  0  0
   58.3210   27.1540   47.0760 C   0  0  0  0  0  0  0  0  0  0  0  0
   57.3363   26.6639   47.0592 H   0  0  0  0  0  0  0  0  0  0  0  0
   59.0242   26.6449   47.7515 H   0  0  0  0  0  0  0  0  0  0  0  0
   56.8580   30.4520   43.2110 C   0  0  0  0  0  0  0  0  0  0  0  0
   56.5411   29.5881   42.6083 H   0  0  0  0  0  0  0  0  0  0  0  0
   57.4110   31.5760   42.5930 C   0  0  0  0  0  0  0  0  0  0  0  0
   57.5317   31.6001   41.4999 H   0  0  0  0  0  0  0  0  0  0  0  0
  1  2  1  0
  2  3  2  0
  3  4  1  0
  4  5  1  0
  4  6  1  0
  4  7  1  0
  3  8  1  0
  8  9  1  0
  9 10  2  0
 10 11  1  0
 11 12  2  0
 11 13  1  0
 13 14  1  0
 13 15  1  0
 13 16  1  0
 16 17  1  0
 17 18  1  0
 17 19  1  0
 17 20  1  0
 20 21  2  0
 21 22  1  0
 22 23  1  0
 23 24  1  0
 23 25  1  0
 23 26  1  0
 22 27  2  0
 27 28  1  0
 27 29  1  0
 29 30  1  0
 30 31  1  0
 30 32  1  0
 30 33  1  0
 33 34  1  0
 33 35  1  0
  9 36  1  0
 36 37  1  0
 36 38  2  0
 38 39  1  0
 38  2  1  0
 33 16  1  0
 29 20  1  0
M  CHG  1   8  -1
M  END
>  <UniqueID>  (31) 
30

>  <SMILES>  (31) 
Cc1cn2c(n1)CN(CC(=O)/N=c1/cccc(C)[n-]1)CC2

>  <Energy>  (31) 
79.38091578506965

>  <Genealogy>  (31) 
Cc1cn2c(n1)CN(CC(=O)N=c1cccc(C)[n-]1)CC2 (protonated)
Cc1cn2c(n1)CN(CC(=O)/N=c1/cccc(C)[n-]1)CC2 (cis-trans isomerization)
Cc1cn2c(n1)CN(CC(=O)/N=c1/cccc(C)[n-]1)CC2 (3D coordinates assigned)
Cc1cn2c(n1)CN(CC(=O)/N=c1/cccc(C)[n-]1)CC2 (nonaromatic ring conformer: 79.38091578506965 kcal/mol)

>  <smiles>  (31) 
Cc1cn2c(n1)CN(CC(=O)N=c1cccc(C)[nH]1)CC2

>  <score_type>  (31) 
oracle

>  <origin>  (31) 
adg

>  <m_score__min__energy>  (31) 
-9.0199999999999996

>  <m_primary>  (31) 
energy

$$$$
31:0
     RDKit          3D

 63 66  0  0  1  0  0  0  0  0999 V2000
   60.7580   34.5220   48.6220 C   0  0  0  0  0  0  0  0  0  0  0  0
   61.0000   34.2530   47.1550 C   0  0  0  0  0  0  0  0  0  0  0  0
   60.1020   33.3080   46.5720 N   0  0  0  0  0  0  0  0  0  0  0  0
   59.2160   33.7530   45.6620 C   0  0  0  0  0  0  0  0  0  0  0  0
   59.2160   35.2040   45.3020 C   0  0  0  0  0  0  0  0  0  0  0  0
   58.3190   32.9700   45.0480 N   0  0  0  0  0  0  0  0  0  0  0  0
   58.3170   31.6410   45.3780 C   0  0  0  0  0  0  0  0  0  0  0  0
   57.4670   30.9180   44.8180 N   0  0  0  0  0  0  0  0  0  0  0  0
   57.6170   30.1590   43.6570 C   0  0  0  0  0  0  0  0  0  0  0  0
   56.0560   29.9410   43.3870 C   0  0  0  0  0  0  0  0  0  0  0  0
   55.6840   29.3980   44.7490 C   0  0  0  0  0  0  0  0  0  0  0  0
   56.7800   28.3670   44.9320 C   0  0  0  0  0  0  0  0  0  0  0  0
   57.8430   28.6840   43.8690 C   0  0  0  0  0  0  0  0  0  0  0  0
   59.1830   31.1090   46.2890 C   0  0  0  0  0  0  0  0  0  0  0  0
   59.2660   29.7170   46.6660 C   0  0  0  0  0  0  0  0  0  0  0  0
   60.2330   28.9230   46.0110 C   0  0  0  0  0  0  0  0  0  0  0  0
   60.4010   27.6170   46.3750 C   0  0  0  0  0  0  0  0  0  0  0  0
   59.6190   27.0670   47.3920 C   0  0  0  0  0  0  0  0  0  0  0  0
   58.6660   27.8630   48.0320 C   0  0  0  0  0  0  0  0  0  0  0  0
   58.5390   29.1360   47.6390 N   0  0  0  0  0  0  0  0  0  0  0  0
   60.0880   31.9800   46.8900 C   0  0  0  0  0  0  0  0  0  0  0  0
   61.0300   31.5610   47.8660 N   0  0  0  0  0  0  0  0  0  0  0  0
   60.6050   31.3880   49.2400 C   0  0  0  0  0  0  0  0  0  0  0  0
   61.5850   30.6450   50.0970 C   0  0  0  0  0  0  0  0  0  0  0  0
   63.0260   30.8870   49.8020 C   0  0  0  0  0  0  0  0  0  0  0  0
   63.3620   32.2130   49.3980 N   0  0  0  0  0  0  0  0  0  0  0  0
   64.6550   32.5250   49.9750 C   0  0  0  0  0  0  0  0  0  0  0  0
   63.3440   32.3350   47.9710 C   0  0  0  0  0  0  0  0  0  0  0  0
   62.3750   31.3370   47.3770 C   0  0  0  0  0  0  0  0  0  0  0  0
   61.3727   33.8387   49.2264 H   0  0  0  0  0  0  0  0  0  0  0  0
   61.0303   35.5623   48.8538 H   0  0  0  0  0  0  0  0  0  0  0  0
   59.6948   34.3609   48.8538 H   0  0  0  0  0  0  0  0  0  0  0  0
   60.9006   35.2034   46.6101 H   0  0  0  0  0  0  0  0  0  0  0  0
   62.0072   33.8175   47.0779 H   0  0  0  0  0  0  0  0  0  0  0  0
   60.2531   35.5599   45.2137 H   0  0  0  0  0  0  0  0  0  0  0  0
   58.6975   35.3436   44.3420 H   0  0  0  0  0  0  0  0  0  0  0  0
   58.6975   35.7762   46.0854 H   0  0  0  0  0  0  0  0  0  0  0  0
   58.3733   30.6215   43.0058 H   0  0  0  0  0  0  0  0  0  0  0  0
   55.5368   30.8832   43.1575 H   0  0  0  0  0  0  0  0  0  0  0  0
   55.7977   29.3069   42.5261 H   0  0  0  0  0  0  0  0  0  0  0  0
   55.7240   30.1778   45.5238 H   0  0  0  0  0  0  0  0  0  0  0  0
   54.6602   29.0032   44.8256 H   0  0  0  0  0  0  0  0  0  0  0  0
   57.2130   28.4446   45.9402 H   0  0  0  0  0  0  0  0  0  0  0  0
   56.3924   27.3436   44.8208 H   0  0  0  0  0  0  0  0  0  0  0  0
   58.8580   28.4815   44.2415 H   0  0  0  0  0  0  0  0  0  0  0  0
   57.7598   28.0792   42.9540 H   0  0  0  0  0  0  0  0  0  0  0  0
   60.8497   29.3553   45.2093 H   0  0  0  0  0  0  0  0  0  0  0  0
   61.1540   26.9977   45.8656 H   0  0  0  0  0  0  0  0  0  0  0  0
   59.7520   26.0157   47.6870 H   0  0  0  0  0  0  0  0  0  0  0  0
   58.0372   27.4547   48.8369 H   0  0  0  0  0  0  0  0  0  0  0  0
   60.4471   32.3836   49.6803 H   0  0  0  0  0  0  0  0  0  0  0  0
   59.6864   30.7835   49.2132 H   0  0  0  0  0  0  0  0  0  0  0  0
   61.4028   30.9323   51.1431 H   0  0  0  0  0  0  0  0  0  0  0  0
   61.4142   29.5789   49.8867 H   0  0  0  0  0  0  0  0  0  0  0  0
   63.6003   30.6553   50.7111 H   0  0  0  0  0  0  0  0  0  0  0  0
   63.2680   30.2426   48.9440 H   0  0  0  0  0  0  0  0  0  0  0  0
   64.5808   32.5071   51.0723 H   0  0  0  0  0  0  0  0  0  0  0  0
   65.3933   31.7792   49.6452 H   0  0  0  0  0  0  0  0  0  0  0  0
   64.9719   33.5254   49.6452 H   0  0  0  0  0  0  0  0  0  0  0  0
   63.0315   33.3534   47.6967 H   0  0  0  0  0  0  0  0  0  0  0  0
   64.3524   32.1351   47.5795 H   0  0  0  0  0  0  0  0  0  0  0  0
   62.3806   31.4390   46.2818 H   0  0  0  0  0  0  0  0  0  0  0  0
   62.6902   30.3255   47.6729 H   0  0  0  0  0  0  0  0  0  0  0  0
  1  2  1  0
  2  3  1  0
  3  4  1  0
  4  5  1  0
  4  6  2  0
  6  7  1  0
  7  8  2  0
  8  9  1  0
  9 10  1  0
 10 11  1  0
 11 12  1  0
 12 13  1  0
  7 14  1  0
 14 15  1  0
 15 16  2  0
 16 17  1  0
 17 18  2  0
 18 19  1  0
 19 20  2  0
 14 21  2  0
 21 22  1  0
 22 23  1  0
 23 24  1  0
 24 25  1  0
 25 26  1  0
 26 27  1  0
 26 28  1  0
 28 29  1  0
 21  3  1  0
 29 22  1  0
 13  9  1  0
 20 15  1  0
  1 30  1  0
  1 31  1  0
  1 32  1  0
  2 33  1  0
  2 34  1  0
  5 35  1  0
  5 36  1  0
  5 37  1  0
  9 38  1  0
 10 39  1  0
 10 40  1  0
 11 41  1  0
 11 42  1  0
 12 43  1  0
 12 44  1  0
 13 45  1  0
 13 46  1  0
 16 47  1  0
 17 48  1  0
 18 49  1  0
 19 50  1  0
 23 51  1  0
 23 52  1  0
 24 53  1  0
 24 54  1  0
 25 55  1  0
 25 56  1  0
 27 57  1  0
 27 58  1  0
 27 59  1  0
 28 60  1  0
 28 61  1  0
 29 62  1  0
 29 63  1  0
M  END
>  <smiles>  (32) 
CCn1c(C)nc(=NC2CCCC2)c(-c2ccccn2)c1N1CCCN(C)CC1

>  <score_type>  (32) 
oracle

>  <origin>  (32) 
adg

>  <m_score__min__energy>  (32) 
-5.8399999999999999

>  <m_primary>  (32) 
energy

$$$$
32:0
     RDKit          3D

 48 50  0  0  0  0  0  0  0  0999 V2000
   60.4505   31.0639   48.1653 H   0  0  0  0  0  0  0  0  0  0  0  0
   59.8770   30.9470   47.2340 C   0  0  0  0  0  0  0  0  0  0  0  0
   59.8300   31.9860   46.3850 C   0  0  0  0  0  0  0  0  0  0  0  0
   60.5561   32.0202   45.5594 H   0  0  0  0  0  0  0  0  0  0  0  0
   58.8220   33.1180   46.5090 C   0  0  1  0  0  0  0  0  0  0  0  0
   58.0038   32.6281   47.0572 H   0  0  0  0  0  0  0  0  0  0  0  0
   59.4180   34.3240   47.1990 C   0  0  0  0  0  0  0  0  0  0  0  0
   60.3551   34.0583   47.7102 H   0  0  0  0  0  0  0  0  0  0  0  0
   58.7556   34.7384   47.9733 H   0  0  0  0  0  0  0  0  0  0  0  0
   59.6800   35.3070   46.0650 C   0  0  0  0  0  0  0  0  0  0  0  0
   60.7647   35.4491   45.9498 H   0  0  0  0  0  0  0  0  0  0  0  0
   59.2002   36.2678   46.3029 H   0  0  0  0  0  0  0  0  0  0  0  0
   59.1430   34.8080   44.8570 O   0  0  0  0  0  0  0  0  0  0  0  0
   58.3150   33.7110   45.1730 C   0  0  0  0  0  0  0  0  0  0  0  0
   58.3380   32.7070   44.0010 C   0  0  0  0  0  0  0  0  0  0  0  0
   58.3615   31.6812   44.3974 H   0  0  0  0  0  0  0  0  0  0  0  0
   57.4365   32.8416   43.3852 H   0  0  0  0  0  0  0  0  0  0  0  0
   59.2324   32.8827   43.3852 H   0  0  0  0  0  0  0  0  0  0  0  0
   56.8650   34.2230   45.3340 C   0  0  0  0  0  0  0  0  0  0  0  0
   56.6230   34.3085   46.4036 H   0  0  0  0  0  0  0  0  0  0  0  0
   56.7693   35.2093   44.8565 H   0  0  0  0  0  0  0  0  0  0  0  0
   56.1712   33.5155   44.8565 H   0  0  0  0  0  0  0  0  0  0  0  0
   59.2000   29.6510   46.9880 C   0  0  0  0  0  0  0  0  0  0  0  0
   59.6130   28.5280   47.7220 C   0  0  0  0  0  0  0  0  0  0  0  0
   60.4280   28.6259   48.4542 H   0  0  0  0  0  0  0  0  0  0  0  0
   58.9990   27.2860   47.5320 C   0  0  0  0  0  0  0  0  0  0  0  0
   59.3471   26.4109   48.1004 H   0  0  0  0  0  0  0  0  0  0  0  0
   57.9400   27.1500   46.6190 C   0  0  0  0  0  0  0  0  0  0  0  0
   57.3050   25.8810   46.3870 N   0  0  0  0  0  0  0  0  0  0  0  0
   57.9120   25.0380   46.2780 H   0  0  0  0  0  0  0  0  0  0  0  0
   55.8980   25.7100   46.1670 C   0  0  0  0  0  0  0  0  0  0  0  0
   55.1480   26.7100   45.9950 O   0  0  0  0  0  0  0  0  0  0  0  0
   55.3510   24.3890   46.1380 N   0  0  0  0  0  0  0  0  0  0  0  0
   56.1300   23.1950   45.9810 C   0  0  0  0  0  0  0  0  0  0  0  0
   56.7390   22.9330   44.7410 C   0  0  0  0  0  0  0  0  0  0  0  0
   56.5780   24.0630   43.4030 Cl  0  0  0  0  0  0  0  0  0  0  0  0
   57.5030   21.7760   44.5640 C   0  0  0  0  0  0  0  0  0  0  0  0
   57.9892   21.5828   43.5964 H   0  0  0  0  0  0  0  0  0  0  0  0
   57.6510   20.8650   45.6110 C   0  0  0  0  0  0  0  0  0  0  0  0
   58.2630   19.9618   45.4710 H   0  0  0  0  0  0  0  0  0  0  0  0
   57.0230   21.0990   46.8360 C   0  0  0  0  0  0  0  0  0  0  0  0
   57.1316   20.3723   47.6546 H   0  0  0  0  0  0  0  0  0  0  0  0
   56.2560   22.2540   47.0270 C   0  0  0  0  0  0  0  0  0  0  0  0
   55.3970   22.4410   48.5510 Cl  0  0  0  0  0  0  0  0  0  0  0  0
   57.5300   28.2680   45.8790 C   0  0  0  0  0  0  0  0  0  0  0  0
   56.7187   28.1669   45.1431 H   0  0  0  0  0  0  0  0  0  0  0  0
   58.1430   29.5100   46.0680 C   0  0  0  0  0  0  0  0  0  0  0  0
   57.7976   30.3828   45.4945 H   0  0  0  0  0  0  0  0  0  0  0  0
  1  2  1  0
  2  3  2  0
  3  4  1  0
  3  5  1  0
  5  6  1  1
  5  7  1  0
  7  8  1  0
  7  9  1  0
  7 10  1  0
 10 11  1  0
 10 12  1  0
 10 13  1  0
 13 14  1  0
 14 15  1  0
 15 16  1  0
 15 17  1  0
 15 18  1  0
 14 19  1  0
 19 20  1  0
 19 21  1  0
 19 22  1  0
  2 23  1  0
 23 24  2  0
 24 25  1  0
 24 26  1  0
 26 27  1  0
 26 28  2  0
 28 29  1  0
 29 30  1  0
 29 31  1  0
 31 32  2  0
 31 33  1  0
 33 34  1  0
 34 35  2  0
 35 36  1  0
 35 37  1  0
 37 38  1  0
 37 39  2  0
 39 40  1  0
 39 41  1  0
 41 42  1  0
 41 43  2  0
 43 44  1  0
 28 45  1  0
 45 46  1  0
 45 47  2  0
 47 48  1  0
 14  5  1  0
 47 23  1  0
 43 34  1  0
M  CHG  1  33  -1
M  END
>  <UniqueID>  (33) 
31

>  <SMILES>  (33) 
CC1(C)OCC[C@@H]1/C=C/c1ccc(NC(=O)[N-]c2c(Cl)cccc2Cl)cc1

>  <Energy>  (33) 
63.77912513456426

>  <Genealogy>  (33) 
CC1(C)OCCC1C=Cc1ccc(NC(=O)[N-]c2c(Cl)cccc2Cl)cc1 (protonated)
CC1(C)OCC[C@@H]1C=Cc1ccc(NC(=O)[N-]c2c(Cl)cccc2Cl)cc1 (chirality)
CC1(C)OCC[C@@H]1/C=C/c1ccc(NC(=O)[N-]c2c(Cl)cccc2Cl)cc1 (cis-trans isomerization)
CC1(C)OCC[C@@H]1/C=C/c1ccc(NC(=O)[N-]c2c(Cl)cccc2Cl)cc1 (3D coordinates assigned)
CC1(C)OCC[C@@H]1/C=C/c1ccc(NC(=O)[N-]c2c(Cl)cccc2Cl)cc1 (nonaromatic ring conformer: 63.77912513456426 kcal/mol)

>  <smiles>  (33) 
CC1(C)OCCC1C=Cc1ccc(NC(=O)Nc2c(Cl)cccc2Cl)cc1

>  <score_type>  (33) 
oracle

>  <origin>  (33) 
adg

>  <m_score__min__energy>  (33) 
-10.960000000000001

>  <m_primary>  (33) 
energy

$$$$
33:0
     RDKit          3D

 41 42  0  0  0  0  0  0  0  0999 V2000
   51.4980   22.9710   45.9650 C   0  0  0  0  0  0  0  0  0  0  0  0
   52.6490   22.5430   45.2440 O   0  0  0  0  0  0  0  0  0  0  0  0
   53.9130   23.1440   45.3380 C   0  0  0  0  0  0  0  0  0  0  0  0
   55.1080   22.4230   45.1550 C   0  0  0  0  0  0  0  0  0  0  0  0
   56.3420   23.0710   45.2570 C   0  0  0  0  0  0  0  0  0  0  0  0
   56.3970   24.4380   45.5390 C   0  0  0  0  0  0  0  0  0  0  0  0
   55.2130   25.1650   45.7360 C   0  0  0  0  0  0  0  0  0  0  0  0
   55.2320   26.5770   45.9840 N   0  0  0  0  0  0  0  0  0  0  0  0
   56.2740   27.4970   45.6280 C   0  0  0  0  0  0  0  0  0  0  0  0
   55.9690   28.5340   44.9830 O   0  0  0  0  0  0  0  0  0  0  0  0
   57.7120   27.2950   46.0380 C   0  0  0  0  0  0  0  0  0  0  0  0
   58.6420   27.7810   45.0110 N   0  0  0  0  0  0  0  0  0  0  0  0
   59.3860   28.9640   45.4670 C   0  0  0  0  0  0  0  0  0  0  0  0
   59.1810   30.1230   44.4940 C   0  0  0  0  0  0  0  0  0  0  0  0
   57.5550   30.9270   44.7540 S   0  0  0  0  0  0  0  0  0  0  0  0
   58.2170   32.4830   45.3590 C   0  0  0  0  0  0  0  0  0  0  0  0
   58.3690   32.6910   46.7360 C   0  0  0  0  0  0  0  0  0  0  0  0
   58.8590   33.9120   47.2090 C   0  0  0  0  0  0  0  0  0  0  0  0
   59.1870   34.9320   46.3090 C   0  0  0  0  0  0  0  0  0  0  0  0
   59.0310   34.7280   44.9350 C   0  0  0  0  0  0  0  0  0  0  0  0
   58.5490   33.5040   44.4590 C   0  0  0  0  0  0  0  0  0  0  0  0
   53.9780   24.5150   45.6180 C   0  0  0  0  0  0  0  0  0  0  0  0
   51.6938   22.8982   47.0450 H   0  0  0  0  0  0  0  0  0  0  0  0
   51.2686   24.0145   45.7035 H   0  0  0  0  0  0  0  0  0  0  0  0
   50.6425   22.3309   45.7035 H   0  0  0  0  0  0  0  0  0  0  0  0
   55.0705   21.3467   44.9311 H   0  0  0  0  0  0  0  0  0  0  0  0
   57.2730   22.5027   45.1148 H   0  0  0  0  0  0  0  0  0  0  0  0
   57.3705   24.9457   45.6068 H   0  0  0  0  0  0  0  0  0  0  0  0
   57.8963   27.8427   46.9740 H   0  0  0  0  0  0  0  0  0  0  0  0
   57.8823   26.2167   46.1727 H   0  0  0  0  0  0  0  0  0  0  0  0
   58.0660   28.0670   44.1850 H   0  0  0  0  0  0  0  0  0  0  0  0
   59.0254   29.2582   46.4637 H   0  0  0  0  0  0  0  0  0  0  0  0
   60.4573   28.7188   45.5126 H   0  0  0  0  0  0  0  0  0  0  0  0
   59.9774   30.8660   44.6481 H   0  0  0  0  0  0  0  0  0  0  0  0
   59.2135   29.7266   43.4684 H   0  0  0  0  0  0  0  0  0  0  0  0
   58.1028   31.8935   47.4453 H   0  0  0  0  0  0  0  0  0  0  0  0
   58.9868   34.0710   48.2899 H   0  0  0  0  0  0  0  0  0  0  0  0
   59.5675   35.8941   46.6827 H   0  0  0  0  0  0  0  0  0  0  0  0
   59.2874   35.5304   44.2276 H   0  0  0  0  0  0  0  0  0  0  0  0
   58.4306   33.3431   43.3773 H   0  0  0  0  0  0  0  0  0  0  0  0
   53.0479   25.0880   45.7467 H   0  0  0  0  0  0  0  0  0  0  0  0
  1  2  1  0
  2  3  1  0
  3  4  2  0
  4  5  1  0
  5  6  2  0
  6  7  1  0
  7  8  1  0
  8  9  1  0
  9 10  2  0
  9 11  1  0
 11 12  1  0
 12 13  1  0
 13 14  1  0
 14 15  1  0
 15 16  1  0
 16 17  2  0
 17 18  1  0
 18 19  2  0
 19 20  1  0
 20 21  2  0
  7 22  2  0
 22  3  1  0
 21 16  1  0
  1 23  1  0
  1 24  1  0
  1 25  1  0
  4 26  1  0
  5 27  1  0
  6 28  1  0
 11 29  1  0
 11 30  1  0
 12 31  1  0
 13 32  1  0
 13 33  1  0
 14 34  1  0
 14 35  1  0
 17 36  1  0
 18 37  1  0
 19 38  1  0
 20 39  1  0
 21 40  1  0
 22 41  1  0
M  CHG  1   8  -1
M  END
>  <UniqueID>  (34) 
32

>  <SMILES>  (34) 
COc1cccc([N-]C(=O)CNCCSc2ccccc2)c1

>  <Energy>  (34) 
35.12797418665803

>  <Genealogy>  (34) 
COc1cccc([N-]C(=O)CNCCSc2ccccc2)c1 (protonated)
COc1cccc([N-]C(=O)CNCCSc2ccccc2)c1 (3D coordinates assigned)
COc1cccc([N-]C(=O)CNCCSc2ccccc2)c1 (optimized conformer: 35.12797418665803 kcal/mol)

>  <smiles>  (34) 
COc1cccc(NC(=O)CNCCSc2ccccc2)c1

>  <score_type>  (34) 
oracle

>  <origin>  (34) 
adg

>  <m_score__min__energy>  (34) 
-9.2799999999999994

>  <m_primary>  (34) 
energy

$$$$
34:0
     RDKit          3D

 47 48  0  0  0  0  0  0  0  0999 V2000
   63.3070   33.0810   46.7690 C   0  0  0  0  0  0  0  0  0  0  0  0
   62.6170   32.4760   47.9970 C   0  0  0  0  0  0  0  0  0  0  0  0
   62.5780   33.4000   49.1620 N   0  0  0  0  0  0  0  0  0  0  0  0
   63.9290   33.7180   49.7130 C   0  0  0  0  0  0  0  0  0  0  0  0
   64.9180   32.5390   49.7660 C   0  0  0  0  0  0  0  0  0  0  0  0
   61.5910   33.0330   50.2140 C   0  0  0  0  0  0  0  0  0  0  0  0
   60.3120   33.8790   50.2310 C   0  0  0  0  0  0  0  0  0  0  0  0
   60.0620   34.3670   48.9150 O   0  0  0  0  0  0  0  0  0  0  0  0
   59.4660   33.6190   47.8860 C   0  0  0  0  0  0  0  0  0  0  0  0
   58.9960   32.3100   48.0960 C   0  0  0  0  0  0  0  0  0  0  0  0
   58.4110   31.5910   47.0510 C   0  0  0  0  0  0  0  0  0  0  0  0
   58.2820   32.1620   45.7750 C   0  0  0  0  0  0  0  0  0  0  0  0
   57.6600   31.3950   44.6660 C   0  0  0  0  0  0  0  0  0  0  0  0
   57.1130   30.1180   44.8970 C   0  0  0  0  0  0  0  0  0  0  0  0
   56.5290   29.3970   43.8510 C   0  0  0  0  0  0  0  0  0  0  0  0
   56.4830   29.9400   42.5650 C   0  0  0  0  0  0  0  0  0  0  0  0
   57.0210   31.2070   42.3230 C   0  0  0  0  0  0  0  0  0  0  0  0
   57.6080   31.9320   43.3660 C   0  0  0  0  0  0  0  0  0  0  0  0
   58.7500   33.4700   45.5650 C   0  0  0  0  0  0  0  0  0  0  0  0
   59.3360   34.2020   46.6110 C   0  0  0  0  0  0  0  0  0  0  0  0
   59.8430   35.5950   46.3640 C   0  0  0  0  0  0  0  0  0  0  0  0
   64.0967   33.7734   47.0961 H   0  0  0  0  0  0  0  0  0  0  0  0
   63.7518   32.2765   46.1649 H   0  0  0  0  0  0  0  0  0  0  0  0
   62.5676   33.6272   46.1649 H   0  0  0  0  0  0  0  0  0  0  0  0
   61.5842   32.2139   47.7239 H   0  0  0  0  0  0  0  0  0  0  0  0
   63.2012   31.5941   48.2987 H   0  0  0  0  0  0  0  0  0  0  0  0
   62.2280   34.3130   48.7850 H   0  0  0  0  0  0  0  0  0  0  0  0
   64.3737   34.5054   49.0866 H   0  0  0  0  0  0  0  0  0  0  0  0
   63.7652   34.0217   50.7575 H   0  0  0  0  0  0  0  0  0  0  0  0
   65.1306   32.2856   50.8151 H   0  0  0  0  0  0  0  0  0  0  0  0
   64.4769   31.6674   49.2604 H   0  0  0  0  0  0  0  0  0  0  0  0
   65.8531   32.8218   49.2604 H   0  0  0  0  0  0  0  0  0  0  0  0
   61.3027   31.9828   50.0590 H   0  0  0  0  0  0  0  0  0  0  0  0
   62.0898   33.2133   51.1777 H   0  0  0  0  0  0  0  0  0  0  0  0
   59.4648   33.2605   50.5623 H   0  0  0  0  0  0  0  0  0  0  0  0
   60.4341   34.7242   50.9243 H   0  0  0  0  0  0  0  0  0  0  0  0
   59.0898   31.8492   49.0904 H   0  0  0  0  0  0  0  0  0  0  0  0
   58.0481   30.5681   47.2295 H   0  0  0  0  0  0  0  0  0  0  0  0
   57.1454   29.6847   45.9075 H   0  0  0  0  0  0  0  0  0  0  0  0
   56.1049   28.4000   44.0413 H   0  0  0  0  0  0  0  0  0  0  0  0
   56.0237   29.3709   41.7433 H   0  0  0  0  0  0  0  0  0  0  0  0
   56.9829   31.6352   41.3105 H   0  0  0  0  0  0  0  0  0  0  0  0
   58.0315   32.9279   43.1687 H   0  0  0  0  0  0  0  0  0  0  0  0
   58.6563   33.9267   44.5687 H   0  0  0  0  0  0  0  0  0  0  0  0
   60.0250   36.0950   47.3267 H   0  0  0  0  0  0  0  0  0  0  0  0
   60.7815   35.5476   45.7922 H   0  0  0  0  0  0  0  0  0  0  0  0
   59.0936   36.1620   45.7922 H   0  0  0  0  0  0  0  0  0  0  0  0
  1  2  1  0
  2  3  1  0
  3  4  1  0
  4  5  1  0
  3  6  1  0
  6  7  1  0
  7  8  1  0
  8  9  1  0
  9 10  2  0
 10 11  1  0
 11 12  2  0
 12 13  1  0
 13 14  2  0
 14 15  1  0
 15 16  2  0
 16 17  1  0
 17 18  2  0
 12 19  1  0
 19 20  2  0
 20 21  1  0
 20  9  1  0
 18 13  1  0
  1 22  1  0
  1 23  1  0
  1 24  1  0
  2 25  1  0
  2 26  1  0
  3 27  1  0
  4 28  1  0
  4 29  1  0
  5 30  1  0
  5 31  1  0
  5 32  1  0
  6 33  1  0
  6 34  1  0
  7 35  1  0
  7 36  1  0
 10 37  1  0
 11 38  1  0
 14 39  1  0
 15 40  1  0
 16 41  1  0
 17 42  1  0
 18 43  1  0
 19 44  1  0
 21 45  1  0
 21 46  1  0
 21 47  1  0
M  CHG  1   3   1
M  END
>  <UniqueID>  (35) 
33

>  <SMILES>  (35) 
CC[NH+](CC)CCOc1ccc(-c2ccccc2)cc1C

>  <Energy>  (35) 
57.89645612925633

>  <Genealogy>  (35) 
CC[NH+](CC)CCOc1ccc(-c2ccccc2)cc1C (protonated)
CC[NH+](CC)CCOc1ccc(-c2ccccc2)cc1C (3D coordinates assigned)
CC[NH+](CC)CCOc1ccc(-c2ccccc2)cc1C (optimized conformer: 57.89645612925633 kcal/mol)

>  <smiles>  (35) 
CCN(CC)CCOc1ccc(-c2ccccc2)cc1C

>  <score_type>  (35) 
oracle

>  <origin>  (35) 
adg

>  <m_score__min__energy>  (35) 
-5.2000000000000002

>  <m_primary>  (35) 
energy

$$$$
35:0
     RDKit          3D

 50 51  0  0  0  0  0  0  0  0999 V2000
   55.9850   24.0530   44.1760 C   0  0  0  0  0  0  0  0  0  0  0  0
   54.8230   24.0810   45.1630 C   0  0  0  0  0  0  0  0  0  0  0  0
   55.2180   24.7470   46.4000 N   0  0  0  0  0  0  0  0  0  0  0  0
   56.5500   24.7250   46.9290 C   0  0  0  0  0  0  0  0  0  0  0  0
   56.9940   23.6600   47.4390 O   0  0  0  0  0  0  0  0  0  0  0  0
   57.4000   25.9490   46.8690 C   0  0  0  0  0  0  0  0  0  0  0  0
   58.6570   25.9480   47.4900 C   0  0  0  0  0  0  0  0  0  0  0  0
   59.4730   27.0480   47.4770 N   0  0  0  0  0  0  0  0  0  0  0  0
   60.7690   26.9300   48.1760 C   0  0  0  0  0  0  0  0  0  0  0  0
   60.7040   27.5890   49.5510 C   0  0  0  0  0  0  0  0  0  0  0  0
   59.0910   28.1920   46.8010 C   0  0  0  0  0  0  0  0  0  0  0  0
   59.9240   29.3340   46.7260 C   0  0  0  0  0  0  0  0  0  0  0  0
   59.5140   30.4790   46.0410 C   0  0  0  0  0  0  0  0  0  0  0  0
   58.2780   30.5160   45.3930 C   0  0  0  0  0  0  0  0  0  0  0  0
   57.7530   31.9770   44.5390 S   0  0  0  0  0  0  0  0  0  0  0  0
   56.6520   32.6150   45.3380 O   0  0  0  0  0  0  0  0  0  0  0  0
   58.8990   32.9490   44.4960 O   0  0  0  0  0  0  0  0  0  0  0  0
   57.1680   31.6830   42.9080 N   0  0  0  0  0  0  0  0  0  0  0  0
   56.8090   30.2740   42.6500 C   0  0  0  0  0  0  0  0  0  0  0  0
   55.5050   29.9120   43.3550 C   0  0  0  0  0  0  0  0  0  0  0  0
   58.0350   32.2660   41.8610 C   0  0  0  0  0  0  0  0  0  0  0  0
   57.2880   32.6840   40.5900 C   0  0  0  0  0  0  0  0  0  0  0  0
   57.4290   29.4080   45.4770 C   0  0  0  0  0  0  0  0  0  0  0  0
   57.8270   28.2400   46.1580 C   0  0  0  0  0  0  0  0  0  0  0  0
   56.9830   27.1160   46.2030 C   0  0  0  0  0  0  0  0  0  0  0  0
   55.8550   27.1550   45.6380 O   0  0  0  0  0  0  0  0  0  0  0  0
   56.9355   24.0301   44.7292 H   0  0  0  0  0  0  0  0  0  0  0  0
   55.9072   23.1565   43.5434 H   0  0  0  0  0  0  0  0  0  0  0  0
   55.9505   24.9522   43.5434 H   0  0  0  0  0  0  0  0  0  0  0  0
   53.9791   24.6244   44.7130 H   0  0  0  0  0  0  0  0  0  0  0  0
   54.5284   23.0468   45.3946 H   0  0  0  0  0  0  0  0  0  0  0  0
   58.9980   25.0366   48.0030 H   0  0  0  0  0  0  0  0  0  0  0  0
   61.0178   25.8654   48.2975 H   0  0  0  0  0  0  0  0  0  0  0  0
   61.5403   27.4371   47.5776 H   0  0  0  0  0  0  0  0  0  0  0  0
   60.7801   26.8175   50.3313 H   0  0  0  0  0  0  0  0  0  0  0  0
   61.5363   28.3004   49.6564 H   0  0  0  0  0  0  0  0  0  0  0  0
   59.7487   28.1241   49.6564 H   0  0  0  0  0  0  0  0  0  0  0  0
   60.9093   29.3189   47.2149 H   0  0  0  0  0  0  0  0  0  0  0  0
   60.1711   31.3607   46.0115 H   0  0  0  0  0  0  0  0  0  0  0  0
   56.6874   30.1248   41.5670 H   0  0  0  0  0  0  0  0  0  0  0  0
   57.6112   29.6281   43.0365 H   0  0  0  0  0  0  0  0  0  0  0  0
   55.6534   29.9532   44.4442 H   0  0  0  0  0  0  0  0  0  0  0  0
   54.7206   30.6263   43.0645 H   0  0  0  0  0  0  0  0  0  0  0  0
   55.2011   28.8955   43.0645 H   0  0  0  0  0  0  0  0  0  0  0  0
   58.5304   33.1550   42.2785 H   0  0  0  0  0  0  0  0  0  0  0  0
   58.7472   31.4812   41.5663 H   0  0  0  0  0  0  0  0  0  0  0  0
   56.3586   33.2041   40.8652 H   0  0  0  0  0  0  0  0  0  0  0  0
   57.9232   33.3578   39.9962 H   0  0  0  0  0  0  0  0  0  0  0  0
   57.0460   31.7902   39.9962 H   0  0  0  0  0  0  0  0  0  0  0  0
   56.4363   29.4486   45.0048 H   0  0  0  0  0  0  0  0  0  0  0  0
  1  2  1  0
  2  3  1  0
  3  4  1  0
  4  5  2  0
  4  6  1  0
  6  7  2  0
  7  8  1  0
  8  9  1  0
  9 10  1  0
  8 11  1  0
 11 12  2  0
 12 13  1  0
 13 14  2  0
 14 15  1  0
 15 16  2  0
 15 17  2  0
 15 18  1  0
 18 19  1  0
 19 20  1  0
 18 21  1  0
 21 22  1  0
 14 23  1  0
 23 24  2  0
 24 25  1  0
 25 26  2  0
 25  6  1  0
 24 11  1  0
  1 27  1  0
  1 28  1  0
  1 29  1  0
  2 30  1  0
  2 31  1  0
  7 32  1  0
  9 33  1  0
  9 34  1  0
 10 35  1  0
 10 36  1  0
 10 37  1  0
 12 38  1  0
 13 39  1  0
 19 40  1  0
 19 41  1  0
 20 42  1  0
 20 43  1  0
 20 44  1  0
 21 45  1  0
 21 46  1  0
 22 47  1  0
 22 48  1  0
 22 49  1  0
 23 50  1  0
M  CHG  1   3  -1
M  END
>  <UniqueID>  (36) 
34

>  <SMILES>  (36) 
CC[N-]C(=O)c1cn(CC)c2ccc(S(=O)(=O)N(CC)CC)cc2c1=O

>  <Energy>  (36) 
55.80349827694482

>  <Genealogy>  (36) 
CC[N-]C(=O)c1cn(CC)c2ccc(S(=O)(=O)N(CC)CC)cc2c1=O (protonated)
CC[N-]C(=O)c1cn(CC)c2ccc(S(=O)(=O)N(CC)CC)cc2c1=O (3D coordinates assigned)
CC[N-]C(=O)c1cn(CC)c2ccc(S(=O)(=O)N(CC)CC)cc2c1=O (optimized conformer: 55.80349827694482 kcal/mol)

>  <smiles>  (36) 
CCNC(=O)c1cn(CC)c2ccc(S(=O)(=O)N(CC)CC)cc2c1=O

>  <score_type>  (36) 
oracle

>  <origin>  (36) 
adg

>  <m_score__min__energy>  (36) 
-9.4800000000000004

>  <m_primary>  (36) 
energy

$$$$
36:0
     RDKit          3D

 33 34  0  0  0  0  0  0  0  0999 V2000
   56.2979   31.0128   42.3374 H   0  0  0  0  0  0  0  0  0  0  0  0
   57.0370   31.0020   43.1520 C   0  0  0  0  0  0  0  0  0  0  0  0
   57.0330   29.8430   44.0630 C   0  0  0  0  0  0  0  0  0  0  0  0
   56.0860   29.7370   44.8870 O   0  0  0  0  0  0  0  0  0  0  0  0
   58.0990   28.8690   44.0610 N   0  0  0  0  0  0  0  0  0  0  0  0
   57.8720   27.5340   43.4960 C   0  0  0  0  0  0  0  0  0  0  0  0
   57.7483   26.8067   44.3119 H   0  0  0  0  0  0  0  0  0  0  0  0
   56.9633   27.5478   42.8762 H   0  0  0  0  0  0  0  0  0  0  0  0
   58.7342   27.2467   42.8762 H   0  0  0  0  0  0  0  0  0  0  0  0
   59.4480   29.2550   44.4970 C   0  0  0  0  0  0  0  0  0  0  0  0
   60.1326   28.4076   44.3447 H   0  0  0  0  0  0  0  0  0  0  0  0
   59.7753   30.1225   43.9052 H   0  0  0  0  0  0  0  0  0  0  0  0
   59.4500   29.6360   45.9550 C   0  0  0  0  0  0  0  0  0  0  0  0
   60.0260   30.8460   46.3770 C   0  0  0  0  0  0  0  0  0  0  0  0
   60.4675   31.5294   45.6366 H   0  0  0  0  0  0  0  0  0  0  0  0
   60.0410   31.1860   47.7330 C   0  0  0  0  0  0  0  0  0  0  0  0
   60.4935   32.1351   48.0560 H   0  0  0  0  0  0  0  0  0  0  0  0
   59.4820   30.3220   48.6790 C   0  0  0  0  0  0  0  0  0  0  0  0
   59.4952   30.5905   49.7456 H   0  0  0  0  0  0  0  0  0  0  0  0
   58.9060   29.1160   48.2680 C   0  0  0  0  0  0  0  0  0  0  0  0
   58.4655   28.4361   49.0121 H   0  0  0  0  0  0  0  0  0  0  0  0
   58.8890   28.7730   46.9130 C   0  0  0  0  0  0  0  0  0  0  0  0
   58.4345   27.8233   46.5945 H   0  0  0  0  0  0  0  0  0  0  0  0
   57.8760   32.0440   43.2440 C   0  0  0  0  0  0  0  0  0  0  0  0
   58.4968   32.2714   42.3648 H   0  0  0  0  0  0  0  0  0  0  0  0
   58.0350   32.9110   44.4280 C   0  0  0  0  0  0  0  0  0  0  0  0
   59.2050   34.1090   44.5610 S   0  0  0  0  0  0  0  0  0  0  0  0
   58.8300   34.5710   46.1330 C   0  0  0  0  0  0  0  0  0  0  0  0
   59.3242   35.3694   46.7060 H   0  0  0  0  0  0  0  0  0  0  0  0
   57.7890   33.7710   46.5830 C   0  0  0  0  0  0  0  0  0  0  0  0
   57.3497   33.8641   47.5872 H   0  0  0  0  0  0  0  0  0  0  0  0
   57.3500   32.8340   45.6390 C   0  0  0  0  0  0  0  0  0  0  0  0
   56.5452   32.1100   45.8340 H   0  0  0  0  0  0  0  0  0  0  0  0
  1  2  1  0
  2  3  1  0
  3  4  2  0
  3  5  1  0
  5  6  1  0
  6  7  1  0
  6  8  1  0
  6  9  1  0
  5 10  1  0
 10 11  1  0
 10 12  1  0
 10 13  1  0
 13 14  2  0
 14 15  1  0
 14 16  1  0
 16 17  1  0
 16 18  2  0
 18 19  1  0
 18 20  1  0
 20 21  1  0
 20 22  2  0
 22 23  1  0
  2 24  2  0
 24 25  1  0
 24 26  1  0
 26 27  1  0
 27 28  1  0
 28 29  1  0
 28 30  2  0
 30 31  1  0
 30 32  1  0
 32 33  1  0
 22 13  1  0
 32 26  2  0
M  END
>  <UniqueID>  (37) 
35

>  <SMILES>  (37) 
CN(Cc1ccccc1)C(=O)/C=C\c1cccs1

>  <Energy>  (37) 
65.08823350393641

>  <Genealogy>  (37) 
CN(Cc1ccccc1)C(=O)/C=C\c1cccs1 (cis-trans isomerization)
CN(Cc1ccccc1)C(=O)/C=C\c1cccs1 (3D coordinates assigned)
CN(Cc1ccccc1)C(=O)/C=C\c1cccs1 (optimized conformer: 65.08823350393641 kcal/mol)

>  <smiles>  (37) 
CN(Cc1ccccc1)C(=O)C=Cc1cccs1

>  <score_type>  (37) 
oracle

>  <origin>  (37) 
adg

>  <m_score__min__energy>  (37) 
-6.54

>  <m_primary>  (37) 
energy

$$$$
37:0
     RDKit          3D

 59 62  0  0  1  0  0  0  0  0999 V2000
   56.7050   30.6850   44.0490 C   0  0  0  0  0  0  0  0  0  0  0  0
   57.1250   31.0380   45.3310 O   0  0  0  0  0  0  0  0  0  0  0  0
   57.7600   32.2290   45.5840 C   0  0  0  0  0  0  0  0  0  0  0  0
   57.4340   33.2890   44.7270 C   0  0  0  0  0  0  0  0  0  0  0  0
   58.0030   34.5230   44.8790 C   0  0  0  0  0  0  0  0  0  0  0  0
   58.9040   34.6780   45.9060 C   0  0  0  0  0  0  0  0  0  0  0  0
   59.2320   33.6200   46.7640 C   0  0  0  0  0  0  0  0  0  0  0  0
   58.6600   32.3650   46.6160 C   0  0  0  0  0  0  0  0  0  0  0  0
   59.0290   31.3000   47.5320 C   0  0  0  0  0  0  0  0  0  0  0  0
   59.8320   31.5780   48.6420 C   0  0  0  0  0  0  0  0  0  0  0  0
   59.0360   29.0480   48.2990 C   0  0  0  0  0  0  0  0  0  0  0  0
   58.6750   27.8220   48.1700 N   0  0  0  0  0  0  0  0  0  0  0  0
   62.3850   30.9620   50.4160 C   0  0  0  0  0  0  0  0  0  0  0  0
   62.7180   32.0020   49.4130 C   0  0  0  0  0  0  0  0  0  0  0  0
   62.7050   33.3500   49.6720 C   0  0  0  0  0  0  0  0  0  0  0  0
   63.0340   34.2590   48.6630 C   0  0  0  0  0  0  0  0  0  0  0  0
   63.3710   33.7970   47.4040 C   0  0  0  0  0  0  0  0  0  0  0  0
   63.3860   32.4330   47.1320 C   0  0  0  0  0  0  0  0  0  0  0  0
   63.0580   31.5330   48.1390 C   0  0  0  0  0  0  0  0  0  0  0  0
   59.8130   29.3290   49.3680 N   0  0  0  0  0  0  0  0  0  0  0  0
   60.2040   30.5840   49.5340 C   0  0  0  0  0  0  0  0  0  0  0  0
   60.9490   30.8590   50.5550 N   0  0  0  0  0  0  0  0  0  0  0  0
   59.5780   26.8630   47.6180 C   0  0  0  0  0  0  0  0  0  0  0  0
   59.4590   26.7240   46.0970 C   0  0  0  0  0  0  0  0  0  0  0  0
   60.4130   27.7750   45.5430 C   0  0  0  0  0  0  0  0  0  0  0  0
   59.6320   28.8720   44.8690 C   0  0  0  0  0  0  0  0  0  0  0  0
   58.9140   28.2420   43.7740 N   0  0  0  0  0  0  0  0  0  0  0  0
   57.8280   27.4970   44.3250 C   0  0  0  0  0  0  0  0  0  0  0  0
   58.0410   26.9940   45.7260 C   0  0  0  0  0  0  0  0  0  0  0  0
   58.6610   30.0180   47.4120 N   0  0  0  0  0  0  0  0  0  0  0  0
   55.8647   29.9787   44.1199 H   0  0  0  0  0  0  0  0  0  0  0  0
   56.3816   31.5865   43.5079 H   0  0  0  0  0  0  0  0  0  0  0  0
   57.5374   30.2114   43.5079 H   0  0  0  0  0  0  0  0  0  0  0  0
   56.7073   33.1253   43.9176 H   0  0  0  0  0  0  0  0  0  0  0  0
   57.7505   35.3570   44.2076 H   0  0  0  0  0  0  0  0  0  0  0  0
   59.3797   35.6581   46.0580 H   0  0  0  0  0  0  0  0  0  0  0  0
   59.9588   33.7882   47.5724 H   0  0  0  0  0  0  0  0  0  0  0  0
   60.1765   32.6088   48.8115 H   0  0  0  0  0  0  0  0  0  0  0  0
   62.8273   31.2345   51.3856 H   0  0  0  0  0  0  0  0  0  0  0  0
   62.7886   29.9941   50.0841 H   0  0  0  0  0  0  0  0  0  0  0  0
   62.4355   33.7147   50.6742 H   0  0  0  0  0  0  0  0  0  0  0  0
   63.0249   35.3394   48.8697 H   0  0  0  0  0  0  0  0  0  0  0  0
   63.6294   34.5142   46.6110 H   0  0  0  0  0  0  0  0  0  0  0  0
   63.6550   32.0699   46.1291 H   0  0  0  0  0  0  0  0  0  0  0  0
   63.0656   30.4522   47.9347 H   0  0  0  0  0  0  0  0  0  0  0  0
   60.0900   28.5810   50.0350 H   0  0  0  0  0  0  0  0  0  0  0  0
   60.6057   27.1708   47.8611 H   0  0  0  0  0  0  0  0  0  0  0  0
   59.3234   25.8863   48.0553 H   0  0  0  0  0  0  0  0  0  0  0  0
   59.7152   25.7292   45.7036 H   0  0  0  0  0  0  0  0  0  0  0  0
   61.0041   28.2014   46.3669 H   0  0  0  0  0  0  0  0  0  0  0  0
   61.0835   27.3043   44.8089 H   0  0  0  0  0  0  0  0  0  0  0  0
   58.9244   29.3274   45.5774 H   0  0  0  0  0  0  0  0  0  0  0  0
   60.2941   29.6725   44.5073 H   0  0  0  0  0  0  0  0  0  0  0  0
   59.5310   27.6140   43.2060 H   0  0  0  0  0  0  0  0  0  0  0  0
   56.9384   28.1439   44.3275 H   0  0  0  0  0  0  0  0  0  0  0  0
   57.7201   26.6030   43.6933 H   0  0  0  0  0  0  0  0  0  0  0  0
   57.6454   27.7486   46.4218 H   0  0  0  0  0  0  0  0  0  0  0  0
   57.5218   26.0260   45.7839 H   0  0  0  0  0  0  0  0  0  0  0  0
   58.0710   29.6880   46.6410 H   0  0  0  0  0  0  0  0  0  0  0  0
  1  2  1  0
  2  3  1  0
  3  4  2  0
  4  5  1  0
  5  6  2  0
  6  7  1  0
  7  8  2  0
  8  9  1  0
  9 10  2  0
 10 11  1  0
 11 12  2  0
 12 13  1  0
 13 14  1  0
 14 15  2  0
 15 16  1  0
 16 17  2  0
 17 18  1  0
 18 19  2  0
 11 20  1  0
 20 21  1  0
 21 22  2  0
 22 23  1  0
 23 24  1  0
 24 25  1  0
 25 26  1  0
 26 27  1  0
 27 28  1  0
 28 29  1  0
 21 30  1  0
  8  3  1  0
 30  9  1  0
 19 14  1  0
 29 24  1  0
  1 31  1  0
  1 32  1  0
  1 33  1  0
  4 34  1  0
  5 35  1  0
  6 36  1  0
  7 37  1  0
 10 38  1  0
 13 39  1  0
 13 40  1  0
 15 41  1  0
 16 42  1  0
 17 43  1  0
 18 44  1  0
 19 45  1  0
 20 46  1  0
 23 47  1  0
 23 48  1  0
 24 49  1  0
 25 50  1  0
 25 51  1  0
 26 52  1  0
 26 53  1  0
 27 54  1  0
 28 55  1  0
 28 56  1  0
 29 57  1  0
 29 58  1  0
 30 59  1  0
M  END
>  <smiles>  (38) 
COc1ccccc1-c1cc(=NCc2ccccc2)[nH]c(=NCC2CCNCC2)[nH]1

>  <score_type>  (38) 
oracle

>  <origin>  (38) 
adg

>  <m_score__min__energy>  (38) 
-8.8300000000000001

>  <m_primary>  (38) 
energy

$$$$
38:0
     RDKit          3D

 23 23  0  0  0  0  0  0  0  0999 V2000
   62.1133   34.4461   49.0761 H   0  0  0  0  0  0  0  0  0  0  0  0
   61.5670   33.8790   48.3080 C   0  0  0  0  0  0  0  0  0  0  0  0
   60.2280   33.8990   48.3270 C   0  0  0  0  0  0  0  0  0  0  0  0
   59.7154   33.6848   49.2764 H   0  0  0  0  0  0  0  0  0  0  0  0
   59.4260   34.1870   47.1660 N   0  0  0  0  0  0  0  0  0  0  0  0
   58.5310   33.2480   46.5750 C   0  0  0  0  0  0  0  0  0  0  0  0
   58.5230   31.6590   46.9760 S   0  0  0  0  0  0  0  0  0  0  0  0
   57.8320   33.7800   45.0290 S   0  0  0  0  0  0  0  0  0  0  0  0
   59.2140   34.9600   44.8940 C   0  0  0  0  0  0  0  0  0  0  0  0
   58.8858   35.8572   44.3487 H   0  0  0  0  0  0  0  0  0  0  0  0
   60.0519   34.5032   44.3469 H   0  0  0  0  0  0  0  0  0  0  0  0
   59.6530   35.3450   46.3080 C   0  0  0  0  0  0  0  0  0  0  0  0
   59.0606   36.2000   46.6659 H   0  0  0  0  0  0  0  0  0  0  0  0
   60.7140   35.6350   46.3198 H   0  0  0  0  0  0  0  0  0  0  0  0
   62.3190   33.1490   47.3280 N   0  0  0  0  0  0  0  0  0  0  0  0
   63.3710   33.8420   46.5820 C   0  0  0  0  0  0  0  0  0  0  0  0
   64.0758   34.3063   47.2875 H   0  0  0  0  0  0  0  0  0  0  0  0
   63.9079   33.1202   45.9490 H   0  0  0  0  0  0  0  0  0  0  0  0
   62.9197   34.6202   45.9490 H   0  0  0  0  0  0  0  0  0  0  0  0
   62.4330   31.7030   47.4930 C   0  0  0  0  0  0  0  0  0  0  0  0
   62.4524   31.4567   48.5649 H   0  0  0  0  0  0  0  0  0  0  0  0
   61.5709   31.2108   47.0192 H   0  0  0  0  0  0  0  0  0  0  0  0
   63.3616   31.3520   47.0192 H   0  0  0  0  0  0  0  0  0  0  0  0
  1  2  1  0
  2  3  2  0
  3  4  1  0
  3  5  1  0
  5  6  1  0
  6  7  2  0
  6  8  1  0
  8  9  1  0
  9 10  1  0
  9 11  1  0
  9 12  1  0
 12 13  1  0
 12 14  1  0
  2 15  1  0
 15 16  1  0
 16 17  1  0
 16 18  1  0
 16 19  1  0
 15 20  1  0
 20 21  1  0
 20 22  1  0
 20 23  1  0
 12  5  1  0
M  END
>  <UniqueID>  (39) 
36

>  <SMILES>  (39) 
CN(C)/C=C\N1CCSC1=S

>  <Energy>  (39) 
31.698448330334145

>  <Genealogy>  (39) 
CN(C)/C=C\N1CCSC1=S (cis-trans isomerization)
CN(C)/C=C\N1CCSC1=S (3D coordinates assigned)
CN(C)/C=C\N1CCSC1=S (nonaromatic ring conformer: 31.698448330334145 kcal/mol)

>  <smiles>  (39) 
CN(C)C=CN1CCSC1=S

>  <score_type>  (39) 
oracle

>  <origin>  (39) 
adg

>  <m_score__min__energy>  (39) 
-4.3099999999999996

>  <m_primary>  (39) 
energy

$$$$
39:0
     RDKit          3D

 36 39  0  0  0  0  0  0  0  0999 V2000
   55.1370   30.2500   44.3440 O   0  0  0  0  0  0  0  0  0  0  0  0
   56.1320   29.6860   44.8690 C   0  0  0  0  0  0  0  0  0  0  0  0
   56.0270   28.3790   45.1420 N   0  0  0  0  0  0  0  0  0  0  0  0
   57.0000   27.6430   45.7000 C   0  0  0  0  0  0  0  0  0  0  0  0
   56.8730   26.2560   45.9830 C   0  0  0  0  0  0  0  0  0  0  0  0
   55.8390   25.3620   45.9990 C   0  0  0  0  0  0  0  0  0  0  0  0
   56.0630   24.0940   46.3170 C   0  0  0  0  0  0  0  0  0  0  0  0
   57.3380   23.6770   46.6330 C   0  0  0  0  0  0  0  0  0  0  0  0
   58.3640   25.2550   46.4670 S   0  0  0  0  0  0  0  0  0  0  0  0
   58.1460   28.2730   45.9980 N   0  0  0  0  0  0  0  0  0  0  0  0
   58.3050   29.5790   45.7460 C   0  0  0  0  0  0  0  0  0  0  0  0
   59.6890   30.7150   46.0160 S   0  0  0  0  0  0  0  0  0  0  0  0
   58.8450   32.1480   45.3420 C   0  0  0  0  0  0  0  0  0  0  0  0
   59.4070   33.4860   45.2410 C   0  0  0  0  0  0  0  0  0  0  0  0
   58.7240   34.4600   46.0330 N   0  0  0  0  0  0  0  0  0  0  0  0
   59.6350   35.3980   46.6620 C   0  0  0  0  0  0  0  0  0  0  0  0
   60.2860   34.5810   47.7510 C   0  0  0  0  0  0  0  0  0  0  0  0
   59.3450   33.4450   48.0400 C   0  0  0  0  0  0  0  0  0  0  0  0
   58.1480   33.7800   47.1800 C   0  0  0  0  0  0  0  0  0  0  0  0
   57.6120   31.6700   44.9720 C   0  0  0  0  0  0  0  0  0  0  0  0
   57.3080   30.3920   45.1610 C   0  0  0  0  0  0  0  0  0  0  0  0
   55.1430   27.8910   44.9120 H   0  0  0  0  0  0  0  0  0  0  0  0
   54.8209   25.6943   45.7481 H   0  0  0  0  0  0  0  0  0  0  0  0
   55.2307   23.3748   46.3285 H   0  0  0  0  0  0  0  0  0  0  0  0
   57.6766   22.6689   46.9140 H   0  0  0  0  0  0  0  0  0  0  0  0
   60.4564   33.4469   45.5683 H   0  0  0  0  0  0  0  0  0  0  0  0
   59.3047   33.7980   44.1911 H   0  0  0  0  0  0  0  0  0  0  0  0
   60.3835   35.7616   45.9426 H   0  0  0  0  0  0  0  0  0  0  0  0
   59.1281   36.2959   47.0452 H   0  0  0  0  0  0  0  0  0  0  0  0
   61.2574   34.1943   47.4091 H   0  0  0  0  0  0  0  0  0  0  0  0
   60.4726   35.1865   48.6502 H   0  0  0  0  0  0  0  0  0  0  0  0
   59.7859   32.4804   47.7482 H   0  0  0  0  0  0  0  0  0  0  0  0
   59.1008   33.3405   49.1074 H   0  0  0  0  0  0  0  0  0  0  0  0
   57.6207   32.8660   46.8694 H   0  0  0  0  0  0  0  0  0  0  0  0
   57.4034   34.3937   47.7082 H   0  0  0  0  0  0  0  0  0  0  0  0
   56.8744   32.3480   44.5178 H   0  0  0  0  0  0  0  0  0  0  0  0
  1  2  2  0
  2  3  1  0
  3  4  1  0
  4  5  1  0
  5  6  2  0
  6  7  1  0
  7  8  2  0
  8  9  1  0
  4 10  2  0
 10 11  1  0
 11 12  1  0
 12 13  1  0
 13 14  1  0
 14 15  1  0
 15 16  1  0
 16 17  1  0
 17 18  1  0
 18 19  1  0
 13 20  2  0
 20 21  1  0
 21  2  1  0
  9  5  1  0
 21 11  2  0
 19 15  1  0
  3 22  1  0
  6 23  1  0
  7 24  1  0
  8 25  1  0
 14 26  1  0
 14 27  1  0
 16 28  1  0
 16 29  1  0
 17 30  1  0
 17 31  1  0
 18 32  1  0
 18 33  1  0
 19 34  1  0
 19 35  1  0
 20 36  1  0
M  END
>  <smiles>  (40) 
O=c1[nH]c(-c2cccs2)nc2sc(CN3CCCC3)cc12

>  <score_type>  (40) 
oracle

>  <origin>  (40) 
adg

>  <m_score__min__energy>  (40) 
-7.54

>  <m_primary>  (40) 
energy

$$$$
40:0
     RDKit          3D

 34 36  0  0  0  0  0  0  0  0999 V2000
   56.2720   19.9570   44.3190 C   0  0  0  0  0  0  0  0  0  0  0  0
   56.2680   21.1190   43.4970 O   0  0  0  0  0  0  0  0  0  0  0  0
   56.7260   22.3810   43.9080 C   0  0  0  0  0  0  0  0  0  0  0  0
   57.3140   22.5980   45.1660 C   0  0  0  0  0  0  0  0  0  0  0  0
   57.7540   23.8740   45.5300 C   0  0  0  0  0  0  0  0  0  0  0  0
   57.6170   24.9580   44.6440 C   0  0  0  0  0  0  0  0  0  0  0  0
   58.0840   26.3130   45.0290 C   0  0  0  0  0  0  0  0  0  0  0  0
   59.3090   26.6300   45.6130 C   0  0  0  0  0  0  0  0  0  0  0  0
   59.3320   27.9600   45.7970 N   0  0  0  0  0  0  0  0  0  0  0  0
   60.3010   28.7460   46.3290 C   0  0  0  0  0  0  0  0  0  0  0  0
   60.0670   30.1250   46.4030 C   0  0  0  0  0  0  0  0  0  0  0  0
   58.8500   30.6520   45.9280 C   0  0  0  0  0  0  0  0  0  0  0  0
   57.8660   29.7960   45.3810 C   0  0  0  0  0  0  0  0  0  0  0  0
   56.6350   30.2580   44.8920 O   0  0  0  0  0  0  0  0  0  0  0  0
   56.2750   30.2650   43.5150 C   0  0  0  0  0  0  0  0  0  0  0  0
   58.1610   28.4320   45.3390 C   0  0  0  0  0  0  0  0  0  0  0  0
   57.3680   27.4540   44.8610 N   0  0  0  0  0  0  0  0  0  0  0  0
   57.0260   24.7350   43.3880 C   0  0  0  0  0  0  0  0  0  0  0  0
   56.5860   23.4580   43.0270 C   0  0  0  0  0  0  0  0  0  0  0  0
   56.2710   20.2566   45.3774 H   0  0  0  0  0  0  0  0  0  0  0  0
   55.3759   19.3551   44.1074 H   0  0  0  0  0  0  0  0  0  0  0  0
   57.1722   19.3613   44.1074 H   0  0  0  0  0  0  0  0  0  0  0  0
   57.4286   21.7590   45.8681 H   0  0  0  0  0  0  0  0  0  0  0  0
   58.2114   24.0318   46.5179 H   0  0  0  0  0  0  0  0  0  0  0  0
   60.1090   25.9218   45.8748 H   0  0  0  0  0  0  0  0  0  0  0  0
   61.2444   28.3125   46.6923 H   0  0  0  0  0  0  0  0  0  0  0  0
   60.8296   30.7930   46.8298 H   0  0  0  0  0  0  0  0  0  0  0  0
   58.6641   31.7348   45.9828 H   0  0  0  0  0  0  0  0  0  0  0  0
   55.1791   30.2863   43.4226 H   0  0  0  0  0  0  0  0  0  0  0  0
   56.7013   31.1550   43.0291 H   0  0  0  0  0  0  0  0  0  0  0  0
   56.6664   29.3591   43.0291 H   0  0  0  0  0  0  0  0  0  0  0  0
   56.4210   27.5670   44.4350 H   0  0  0  0  0  0  0  0  0  0  0  0
   56.9089   25.5719   42.6838 H   0  0  0  0  0  0  0  0  0  0  0  0
   56.1254   23.2989   42.0408 H   0  0  0  0  0  0  0  0  0  0  0  0
  1  2  1  0
  2  3  1  0
  3  4  2  0
  4  5  1  0
  5  6  2  0
  6  7  1  0
  7  8  2  0
  8  9  1  0
  9 10  1  0
 10 11  2  0
 11 12  1  0
 12 13  2  0
 13 14  1  0
 14 15  1  0
 13 16  1  0
 16 17  2  0
  6 18  1  0
 18 19  2  0
 19  3  1  0
 17  7  1  0
 16  9  1  0
  1 20  1  0
  1 21  1  0
  1 22  1  0
  4 23  1  0
  5 24  1  0
  8 25  1  0
 10 26  1  0
 11 27  1  0
 12 28  1  0
 15 29  1  0
 15 30  1  0
 15 31  1  0
 17 32  1  0
 18 33  1  0
 19 34  1  0
M  CHG  1  17   1
M  END
>  <UniqueID>  (41) 
37

>  <SMILES>  (41) 
COc1ccc(-c2cn3cccc(OC)c3[nH+]2)cc1

>  <Energy>  (41) 
73.07495212829504

>  <Genealogy>  (41) 
COc1ccc(-c2cn3cccc(OC)c3[nH+]2)cc1 (protonated)
COc1ccc(-c2cn3cccc(OC)c3[nH+]2)cc1 (3D coordinates assigned)
COc1ccc(-c2cn3cccc(OC)c3[nH+]2)cc1 (optimized conformer: 73.07495212829504 kcal/mol)

>  <smiles>  (41) 
COc1ccc(-c2cn3cccc(OC)c3n2)cc1

>  <score_type>  (41) 
oracle

>  <origin>  (41) 
adg

>  <m_score__min__energy>  (41) 
-4.5599999999999996

>  <m_primary>  (41) 
energy

$$$$
41:0
     RDKit          3D

 67 69  0  0  0  0  0  0  0  0999 V2000
   56.7360   21.4250   45.0340 C   0  0  0  0  0  0  0  0  0  0  0  0
   56.1510   21.9440   43.7800 N   0  0  0  0  0  0  0  0  0  0  0  0
   56.9550   21.4580   42.6410 C   0  0  0  0  0  0  0  0  0  0  0  0
   56.1300   23.4250   43.7750 C   0  0  0  0  0  0  0  0  0  0  0  0
   56.9790   24.0180   44.9170 C   0  0  0  0  0  0  0  0  0  0  0  0
   57.1870   25.5390   44.7540 C   0  0  2  0  0  0  0  0  0  0  0  0
   58.5800   25.8840   45.0620 N   0  0  0  0  0  0  0  0  0  0  0  0
   56.2620   26.3040   45.6610 C   0  0  0  0  0  0  0  0  0  0  0  0
   55.1100   25.8520   45.9270 O   0  0  0  0  0  0  0  0  0  0  0  0
   56.6530   27.5880   46.1570 N   0  0  0  0  0  0  0  0  0  0  0  0
   56.9550   28.7000   45.3060 C   0  0  0  0  0  0  0  0  0  0  0  0
   55.9100   29.3490   44.6390 C   0  0  0  0  0  0  0  0  0  0  0  0
   56.1820   30.4280   43.7950 C   0  0  0  0  0  0  0  0  0  0  0  0
   57.5020   30.8430   43.5900 C   0  0  0  0  0  0  0  0  0  0  0  0
   58.5530   30.1860   44.2350 C   0  0  0  0  0  0  0  0  0  0  0  0
   58.2890   29.1010   45.0910 C   0  0  0  0  0  0  0  0  0  0  0  0
   59.3180   28.3860   45.7220 O   0  0  0  0  0  0  0  0  0  0  0  0
   59.3780   28.1020   47.1140 C   0  0  0  0  0  0  0  0  0  0  0  0
   59.8990   29.3380   47.8520 C   0  0  0  0  0  0  0  0  0  0  0  0
   60.2420   30.5060   46.8990 C   0  0  0  0  0  0  0  0  0  0  0  0
   60.0760   31.9280   47.5070 C   0  0  0  0  0  0  0  0  0  0  0  0
   61.3610   32.6230   47.9560 C   0  0  0  0  0  0  0  0  0  0  0  0
   62.5660   32.2760   47.3110 C   0  0  0  0  0  0  0  0  0  0  0  0
   63.7770   32.8570   47.6960 C   0  0  0  0  0  0  0  0  0  0  0  0
   63.8060   33.7970   48.7260 C   0  0  0  0  0  0  0  0  0  0  0  0
   62.6240   34.1550   49.3770 C   0  0  0  0  0  0  0  0  0  0  0  0
   61.4070   33.5750   48.9990 C   0  0  0  0  0  0  0  0  0  0  0  0
   59.2190   32.8320   46.6320 C   0  0  0  0  0  0  0  0  0  0  0  0
   57.8250   32.6430   46.6020 C   0  0  0  0  0  0  0  0  0  0  0  0
   57.0210   33.4270   45.7720 C   0  0  0  0  0  0  0  0  0  0  0  0
   57.5960   34.4010   44.9570 C   0  0  0  0  0  0  0  0  0  0  0  0
   58.9780   34.5980   44.9690 C   0  0  0  0  0  0  0  0  0  0  0  0
   59.7890   33.8190   45.8000 C   0  0  0  0  0  0  0  0  0  0  0  0
   56.2229   21.8802   45.8939 H   0  0  0  0  0  0  0  0  0  0  0  0
   56.6142   20.3324   45.0707 H   0  0  0  0  0  0  0  0  0  0  0  0
   57.8063   21.6761   45.0707 H   0  0  0  0  0  0  0  0  0  0  0  0
   57.8394   20.9234   43.0180 H   0  0  0  0  0  0  0  0  0  0  0  0
   56.3477   20.7756   42.0282 H   0  0  0  0  0  0  0  0  0  0  0  0
   57.2769   22.3129   42.0282 H   0  0  0  0  0  0  0  0  0  0  0  0
   56.5280   23.7827   42.8139 H   0  0  0  0  0  0  0  0  0  0  0  0
   55.0895   23.7507   43.9205 H   0  0  0  0  0  0  0  0  0  0  0  0
   56.4688   23.8299   45.8732 H   0  0  0  0  0  0  0  0  0  0  0  0
   57.9672   23.5355   44.8912 H   0  0  0  0  0  0  0  0  0  0  0  0
   56.9608   25.8130   43.7130 H   0  0  0  0  0  0  0  0  0  0  0  0
   58.8980   26.6210   44.3880 H   0  0  0  0  0  0  0  0  0  0  0  0
   58.6110   26.3320   46.0110 H   0  0  0  0  0  0  0  0  0  0  0  0
   54.8733   29.0090   44.7796 H   0  0  0  0  0  0  0  0  0  0  0  0
   55.3569   30.9523   43.2907 H   0  0  0  0  0  0  0  0  0  0  0  0
   57.7132   31.6888   42.9192 H   0  0  0  0  0  0  0  0  0  0  0  0
   59.5892   30.5178   44.0732 H   0  0  0  0  0  0  0  0  0  0  0  0
   58.3730   27.8486   47.4825 H   0  0  0  0  0  0  0  0  0  0  0  0
   60.0522   27.2512   47.2913 H   0  0  0  0  0  0  0  0  0  0  0  0
   59.1270   29.6765   48.5587 H   0  0  0  0  0  0  0  0  0  0  0  0
   60.8266   29.0487   48.3677 H   0  0  0  0  0  0  0  0  0  0  0  0
   61.2894   30.3911   46.5833 H   0  0  0  0  0  0  0  0  0  0  0  0
   59.5232   30.4434   46.0687 H   0  0  0  0  0  0  0  0  0  0  0  0
   59.5377   31.7399   48.4477 H   0  0  0  0  0  0  0  0  0  0  0  0
   62.5524   31.5388   46.4947 H   0  0  0  0  0  0  0  0  0  0  0  0
   64.7091   32.5726   47.1859 H   0  0  0  0  0  0  0  0  0  0  0  0
   64.7598   34.2561   49.0253 H   0  0  0  0  0  0  0  0  0  0  0  0
   62.6489   34.8956   50.1900 H   0  0  0  0  0  0  0  0  0  0  0  0
   60.4805   33.8624   49.5175 H   0  0  0  0  0  0  0  0  0  0  0  0
   57.3650   31.8717   47.2373 H   0  0  0  0  0  0  0  0  0  0  0  0
   55.9315   33.2757   45.7612 H   0  0  0  0  0  0  0  0  0  0  0  0
   56.9596   35.0155   44.3033 H   0  0  0  0  0  0  0  0  0  0  0  0
   59.4292   35.3666   44.3243 H   0  0  0  0  0  0  0  0  0  0  0  0
   60.8777   33.9765   45.8052 H   0  0  0  0  0  0  0  0  0  0  0  0
  1  2  1  0
  2  3  1  0
  2  4  1  0
  4  5  1  0
  5  6  1  0
  6  7  1  0
  6  8  1  0
  8  9  2  0
  8 10  1  0
 10 11  1  0
 11 12  2  0
 12 13  1  0
 13 14  2  0
 14 15  1  0
 15 16  2  0
 16 17  1  0
 17 18  1  0
 18 19  1  0
 19 20  1  0
 20 21  1  0
 21 22  1  0
 22 23  2  0
 23 24  1  0
 24 25  2  0
 25 26  1  0
 26 27  2  0
 21 28  1  0
 28 29  2  0
 29 30  1  0
 30 31  2  0
 31 32  1  0
 32 33  2  0
 16 11  1  0
 27 22  1  0
 33 28  1  0
  1 34  1  0
  1 35  1  0
  1 36  1  0
  3 37  1  0
  3 38  1  0
  3 39  1  0
  4 40  1  0
  4 41  1  0
  5 42  1  0
  5 43  1  0
  6 44  1  6
  7 45  1  0
  7 46  1  0
 12 47  1  0
 13 48  1  0
 14 49  1  0
 15 50  1  0
 18 51  1  0
 18 52  1  0
 19 53  1  0
 19 54  1  0
 20 55  1  0
 20 56  1  0
 21 57  1  0
 23 58  1  0
 24 59  1  0
 25 60  1  0
 26 61  1  0
 27 62  1  0
 29 63  1  0
 30 64  1  0
 31 65  1  0
 32 66  1  0
 33 67  1  0
M  CHG  1  10  -1
M  END
>  <UniqueID>  (42) 
38

>  <SMILES>  (42) 
CN(C)CC[C@H](N)C(=O)[N-]c1ccccc1OCCCC(c1ccccc1)c1ccccc1

>  <Energy>  (42) 
73.79485798481747

>  <Genealogy>  (42) 
CN(C)CCC(N)C(=O)[N-]c1ccccc1OCCCC(c1ccccc1)c1ccccc1 (protonated)
CN(C)CC[C@H](N)C(=O)[N-]c1ccccc1OCCCC(c1ccccc1)c1ccccc1 (chirality)
CN(C)CC[C@H](N)C(=O)[N-]c1ccccc1OCCCC(c1ccccc1)c1ccccc1 (3D coordinates assigned)
CN(C)CC[C@H](N)C(=O)[N-]c1ccccc1OCCCC(c1ccccc1)c1ccccc1 (optimized conformer: 73.79485798481747 kcal/mol)

>  <smiles>  (42) 
CN(C)CCC(N)C(=O)Nc1ccccc1OCCCC(c1ccccc1)c1ccccc1

>  <score_type>  (42) 
oracle

>  <origin>  (42) 
adg

>  <m_score__min__energy>  (42) 
-12.02

>  <m_primary>  (42) 
energy

$$$$
42:0
     RDKit          3D

 46 48  0  0  1  0  0  0  0  0999 V2000
   56.5360   22.3680   43.0530 C   0  0  0  0  0  0  0  0  0  0  0  0
   56.5620   23.7680   43.6140 C   0  0  0  0  0  0  0  0  0  0  0  0
   57.8290   24.1780   43.9690 O   0  0  0  0  0  0  0  0  0  0  0  0
   58.1560   23.9780   45.2850 C   0  0  0  0  0  0  0  0  0  0  0  0
   57.0850   24.5610   46.2200 C   0  0  0  0  0  0  0  0  0  0  0  0
   57.7050   25.5960   46.9010 O   0  0  0  0  0  0  0  0  0  0  0  0
   57.7670   26.8970   46.4210 C   0  0  0  0  0  0  0  0  0  0  0  0
   56.6580   27.3650   45.7650 C   0  0  0  0  0  0  0  0  0  0  0  0
   56.7080   28.6490   45.2880 C   0  0  0  0  0  0  0  0  0  0  0  0
   55.6310   29.1180   44.6460 N   0  0  0  0  0  0  0  0  0  0  0  0
   55.6590   30.3710   44.1700 C   0  0  0  0  0  0  0  0  0  0  0  0
   56.7450   31.1300   44.3380 N   0  0  0  0  0  0  0  0  0  0  0  0
   57.8250   30.6670   44.9790 C   0  0  0  0  0  0  0  0  0  0  0  0
   58.8140   31.4100   45.1130 N   0  0  0  0  0  0  0  0  0  0  0  0
   59.0900   32.5420   45.8210 C   0  0  0  0  0  0  0  0  0  0  0  0
   59.0960   33.8400   45.2480 C   0  0  0  0  0  0  0  0  0  0  0  0
   59.2660   34.9550   46.0410 C   0  0  0  0  0  0  0  0  0  0  0  0
   59.4350   34.8120   47.4190 C   0  0  0  0  0  0  0  0  0  0  0  0
   59.4300   33.5700   47.9720 C   0  0  0  0  0  0  0  0  0  0  0  0
   59.6630   33.4150   49.8560 Br  0  0  0  0  0  0  0  0  0  0  0  0
   59.2630   32.4270   47.2250 C   0  0  0  0  0  0  0  0  0  0  0  0
   57.8650   29.3940   45.4910 C   0  0  0  0  0  0  0  0  0  0  0  0
   58.9520   28.8990   46.1480 C   0  0  0  0  0  0  0  0  0  0  0  0
   58.9160   27.5800   46.6460 C   0  0  0  0  0  0  0  0  0  0  0  0
   59.9610   27.0070   47.3150 O   0  0  0  0  0  0  0  0  0  0  0  0
   60.4110   27.3130   48.5980 C   0  0  0  0  0  0  0  0  0  0  0  0
   56.5225   21.6421   43.8793 H   0  0  0  0  0  0  0  0  0  0  0  0
   55.6353   22.2372   42.4353 H   0  0  0  0  0  0  0  0  0  0  0  0
   57.4313   22.2038   42.4353 H   0  0  0  0  0  0  0  0  0  0  0  0
   56.1694   24.4587   42.8532 H   0  0  0  0  0  0  0  0  0  0  0  0
   55.9457   23.7710   44.5251 H   0  0  0  0  0  0  0  0  0  0  0  0
   58.2456   22.8977   45.4720 H   0  0  0  0  0  0  0  0  0  0  0  0
   59.1094   24.4879   45.4877 H   0  0  0  0  0  0  0  0  0  0  0  0
   56.2331   24.9414   45.6373 H   0  0  0  0  0  0  0  0  0  0  0  0
   56.6904   23.8002   46.9096 H   0  0  0  0  0  0  0  0  0  0  0  0
   55.7657   26.7366   45.6272 H   0  0  0  0  0  0  0  0  0  0  0  0
   54.7690   28.5130   44.5120 H   0  0  0  0  0  0  0  0  0  0  0  0
   54.7845   30.7753   43.6392 H   0  0  0  0  0  0  0  0  0  0  0  0
   58.9640   33.9577   44.1623 H   0  0  0  0  0  0  0  0  0  0  0  0
   59.2684   35.9572   45.5876 H   0  0  0  0  0  0  0  0  0  0  0  0
   59.5715   35.6995   48.0543 H   0  0  0  0  0  0  0  0  0  0  0  0
   59.2635   31.4389   47.7085 H   0  0  0  0  0  0  0  0  0  0  0  0
   59.8478   29.5218   46.2883 H   0  0  0  0  0  0  0  0  0  0  0  0
   59.7399   26.8566   49.3405 H   0  0  0  0  0  0  0  0  0  0  0  0
   61.4292   26.9192   48.7331 H   0  0  0  0  0  0  0  0  0  0  0  0
   60.4191   28.4046   48.7331 H   0  0  0  0  0  0  0  0  0  0  0  0
  1  2  1  0
  2  3  1  0
  3  4  1  0
  4  5  1  0
  5  6  1  0
  6  7  1  0
  7  8  2  0
  8  9  1  0
  9 10  1  0
 10 11  1  0
 11 12  2  0
 12 13  1  0
 13 14  2  0
 14 15  1  0
 15 16  2  0
 16 17  1  0
 17 18  2  0
 18 19  1  0
 19 20  1  0
 19 21  2  0
 13 22  1  0
 22 23  1  0
 23 24  2  0
 24 25  1  0
 25 26  1  0
 24  7  1  0
 22  9  2  0
 21 15  1  0
  1 27  1  0
  1 28  1  0
  1 29  1  0
  2 30  1  0
  2 31  1  0
  4 32  1  0
  4 33  1  0
  5 34  1  0
  5 35  1  0
  8 36  1  0
 10 37  1  0
 11 38  1  0
 16 39  1  0
 17 40  1  0
 18 41  1  0
 21 42  1  0
 23 43  1  0
 26 44  1  0
 26 45  1  0
 26 46  1  0
M  END
>  <smiles>  (43) 
CCOCCOc1cc2[nH]cnc(=Nc3cccc(Br)c3)c2cc1OC

>  <score_type>  (43) 
oracle

>  <origin>  (43) 
adg

>  <m_score__min__energy>  (43) 
-7.8399999999999999

>  <m_primary>  (43) 
energy

$$$$
43:0
     RDKit          3D

 49 52  0  0  0  0  0  0  0  0999 V2000
   63.9850   33.3590   47.4290 C   0  0  0  0  0  0  0  0  0  0  0  0
   62.6420   33.0110   47.7520 O   0  0  0  0  0  0  0  0  0  0  0  0
   62.0760   33.1080   49.0340 C   0  0  0  0  0  0  0  0  0  0  0  0
   62.8750   33.0600   50.1950 C   0  0  0  0  0  0  0  0  0  0  0  0
   62.3010   33.2040   51.4590 C   0  0  0  0  0  0  0  0  0  0  0  0
   60.9250   33.3980   51.5840 C   0  0  0  0  0  0  0  0  0  0  0  0
   60.3710   33.5410   52.8120 F   0  0  0  0  0  0  0  0  0  0  0  0
   60.1200   33.4400   50.4450 C   0  0  0  0  0  0  0  0  0  0  0  0
   60.6780   33.2830   49.1640 C   0  0  0  0  0  0  0  0  0  0  0  0
   59.7880   33.3170   47.9800 C   0  0  0  0  0  0  0  0  0  0  0  0
   59.5810   34.4010   47.1260 C   0  0  0  0  0  0  0  0  0  0  0  0
   58.7100   34.1200   46.0670 C   0  0  0  0  0  0  0  0  0  0  0  0
   58.2320   32.8170   46.0820 C   0  0  0  0  0  0  0  0  0  0  0  0
   57.3320   32.2070   45.0540 C   0  0  0  0  0  0  0  0  0  0  0  0
   58.1330   31.3860   44.1210 N   0  0  0  0  0  0  0  0  0  0  0  0
   59.0560   30.4440   44.7900 C   0  0  0  0  0  0  0  0  0  0  0  0
   58.4800   29.0890   45.1820 C   0  0  0  0  0  0  0  0  0  0  0  0
   59.3950   28.1410   45.6780 C   0  0  0  0  0  0  0  0  0  0  0  0
   58.9620   26.9010   46.1490 C   0  0  0  0  0  0  0  0  0  0  0  0
   57.6040   26.5890   46.1460 C   0  0  0  0  0  0  0  0  0  0  0  0
   56.6790   27.5130   45.6640 C   0  0  0  0  0  0  0  0  0  0  0  0
   57.1000   28.7520   45.1640 C   0  0  0  0  0  0  0  0  0  0  0  0
   56.1200   29.6210   44.6860 O   0  0  0  0  0  0  0  0  0  0  0  0
   56.0960   30.1200   43.3540 C   0  0  0  0  0  0  0  0  0  0  0  0
   57.4190   30.8040   42.9620 C   0  0  1  0  0  0  0  0  0  0  0  0
   57.2020   31.8710   41.8850 C   0  0  0  0  0  0  0  0  0  0  0  0
   58.9000   32.0080   47.3950 S   0  0  0  0  0  0  0  0  0  0  0  0
   64.5583   33.5076   48.3559 H   0  0  0  0  0  0  0  0  0  0  0  0
   64.4422   32.5497   46.8408 H   0  0  0  0  0  0  0  0  0  0  0  0
   63.9916   34.2885   46.8408 H   0  0  0  0  0  0  0  0  0  0  0  0
   63.9606   32.9077   50.1036 H   0  0  0  0  0  0  0  0  0  0  0  0
   62.9341   33.1645   52.3577 H   0  0  0  0  0  0  0  0  0  0  0  0
   59.0365   33.5977   50.5505 H   0  0  0  0  0  0  0  0  0  0  0  0
   60.0567   35.3822   47.2711 H   0  0  0  0  0  0  0  0  0  0  0  0
   58.4322   34.8578   45.2998 H   0  0  0  0  0  0  0  0  0  0  0  0
   56.5845   31.5719   45.5519 H   0  0  0  0  0  0  0  0  0  0  0  0
   56.8218   33.0047   44.4943 H   0  0  0  0  0  0  0  0  0  0  0  0
   59.9006   30.2634   44.1088 H   0  0  0  0  0  0  0  0  0  0  0  0
   59.3291   30.9291   45.7387 H   0  0  0  0  0  0  0  0  0  0  0  0
   60.4682   28.3816   45.6945 H   0  0  0  0  0  0  0  0  0  0  0  0
   59.6932   26.1692   46.5229 H   0  0  0  0  0  0  0  0  0  0  0  0
   57.2624   25.6140   46.5238 H   0  0  0  0  0  0  0  0  0  0  0  0
   55.6070   27.2669   45.6763 H   0  0  0  0  0  0  0  0  0  0  0  0
   55.9136   29.2817   42.6655 H   0  0  0  0  0  0  0  0  0  0  0  0
   55.2965   30.8729   43.2911 H   0  0  0  0  0  0  0  0  0  0  0  0
   58.0577   30.0086   42.5504 H   0  0  0  0  0  0  0  0  0  0  0  0
   57.0047   32.8411   42.3645 H   0  0  0  0  0  0  0  0  0  0  0  0
   58.1028   31.9481   41.2585 H   0  0  0  0  0  0  0  0  0  0  0  0
   56.3426   31.5901   41.2585 H   0  0  0  0  0  0  0  0  0  0  0  0
  1  2  1  0
  2  3  1  0
  3  4  2  0
  4  5  1  0
  5  6  2  0
  6  7  1  0
  6  8  1  0
  8  9  2  0
  9 10  1  0
 10 11  2  0
 11 12  1  0
 12 13  2  0
 13 14  1  0
 14 15  1  0
 15 16  1  0
 16 17  1  0
 17 18  2  0
 18 19  1  0
 19 20  2  0
 20 21  1  0
 21 22  2  0
 22 23  1  0
 23 24  1  0
 24 25  1  0
 25 26  1  0
 13 27  1  0
  9  3  1  0
 27 10  1  0
 25 15  1  0
 22 17  1  0
  1 28  1  0
  1 29  1  0
  1 30  1  0
  4 31  1  0
  5 32  1  0
  8 33  1  0
 11 34  1  0
 12 35  1  0
 14 36  1  0
 14 37  1  0
 16 38  1  0
 16 39  1  0
 18 40  1  0
 19 41  1  0
 20 42  1  0
 21 43  1  0
 24 44  1  0
 24 45  1  0
 25 46  1  6
 26 47  1  0
 26 48  1  0
 26 49  1  0
M  END
>  <UniqueID>  (44) 
39

>  <SMILES>  (44) 
COc1ccc(F)cc1-c1ccc(CN2Cc3ccccc3OC[C@H]2C)s1

>  <Energy>  (44) 
101.80600108966541

>  <Genealogy>  (44) 
COc1ccc(F)cc1-c1ccc(CN2Cc3ccccc3OC[C@H]2C)s1 (chirality)
COc1ccc(F)cc1-c1ccc(CN2Cc3ccccc3OC[C@H]2C)s1 (3D coordinates assigned)
COc1ccc(F)cc1-c1ccc(CN2Cc3ccccc3OC[C@H]2C)s1 (nonaromatic ring conformer: 101.80600108966541 kcal/mol)

>  <smiles>  (44) 
COc1ccc(F)cc1-c1ccc(CN2Cc3ccccc3OCC2C)s1

>  <score_type>  (44) 
oracle

>  <origin>  (44) 
adg

>  <m_score__min__energy>  (44) 
-6.6799999999999997

>  <m_primary>  (44) 
energy

$$$$
44:0
     RDKit          3D

 26 28  0  0  0  0  0  0  0  0999 V2000
   63.9290   34.2110   51.2720 C   0  0  0  0  0  0  0  0  0  0  0  0
   63.7140   33.7890   49.8940 N   0  0  0  0  0  0  0  0  0  0  0  0
   64.5690   33.0890   49.1300 C   0  0  0  0  0  0  0  0  0  0  0  0
   64.0830   32.9620   47.8830 N   0  0  0  0  0  0  0  0  0  0  0  0
   62.9050   33.6200   47.9360 C   0  0  0  0  0  0  0  0  0  0  0  0
   62.0160   33.8410   46.7550 C   0  0  0  0  0  0  0  0  0  0  0  0
   60.6590   33.4010   47.0680 N   0  0  0  0  0  0  0  0  0  0  0  0
   60.2430   32.7860   48.2090 C   0  0  0  0  0  0  0  0  0  0  0  0
   58.8530   32.6080   48.2040 C   0  0  0  0  0  0  0  0  0  0  0  0
   58.4620   33.1590   47.0080 C   0  0  0  0  0  0  0  0  0  0  0  0
   57.0620   33.4720   46.1500 S   0  0  0  0  0  0  0  0  0  0  0  0
   57.9140   34.2430   44.8780 C   0  0  0  0  0  0  0  0  0  0  0  0
   59.2900   34.2520   45.1490 C   0  0  0  0  0  0  0  0  0  0  0  0
   59.5380   33.6230   46.3640 C   0  0  0  0  0  0  0  0  0  0  0  0
   62.6780   34.1490   49.1550 N   0  0  0  0  0  0  0  0  0  0  0  0
   63.5379   33.4433   51.9558 H   0  0  0  0  0  0  0  0  0  0  0  0
   65.0060   34.3464   51.4502 H   0  0  0  0  0  0  0  0  0  0  0  0
   63.4055   35.1619   51.4502 H   0  0  0  0  0  0  0  0  0  0  0  0
   65.5293   32.6785   49.4753 H   0  0  0  0  0  0  0  0  0  0  0  0
   64.5270   32.4910   47.0650 H   0  0  0  0  0  0  0  0  0  0  0  0
   62.0037   34.9116   46.5025 H   0  0  0  0  0  0  0  0  0  0  0  0
   62.3972   33.2629   45.9003 H   0  0  0  0  0  0  0  0  0  0  0  0
   60.9090   32.4709   49.0258 H   0  0  0  0  0  0  0  0  0  0  0  0
   58.2243   32.1385   48.9749 H   0  0  0  0  0  0  0  0  0  0  0  0
   57.4480   34.6698   43.9776 H   0  0  0  0  0  0  0  0  0  0  0  0
   60.0591   34.6916   44.4969 H   0  0  0  0  0  0  0  0  0  0  0  0
  1  2  1  0
  2  3  1  0
  3  4  2  0
  4  5  1  0
  5  6  1  0
  6  7  1  0
  7  8  1  0
  8  9  2  0
  9 10  1  0
 10 11  1  0
 11 12  1  0
 12 13  2  0
 13 14  1  0
  5 15  2  0
 15  2  1  0
 14  7  1  0
 14 10  2  0
  1 16  1  0
  1 17  1  0
  1 18  1  0
  3 19  1  0
  4 20  1  0
  6 21  1  0
  6 22  1  0
  8 23  1  0
  9 24  1  0
 12 25  1  0
 13 26  1  0
M  CHG  1   4   1
M  END
>  <UniqueID>  (45) 
40

>  <SMILES>  (45) 
Cn1c[nH+]c(Cn2ccc3sccc32)n1

>  <Energy>  (45) 
132.83152896785882

>  <Genealogy>  (45) 
Cn1c[nH+]c(Cn2ccc3sccc32)n1 (protonated)
Cn1c[nH+]c(Cn2ccc3sccc32)n1 (3D coordinates assigned)
Cn1c[nH+]c(Cn2ccc3sccc32)n1 (optimized conformer: 132.83152896785882 kcal/mol)

>  <smiles>  (45) 
Cn1cnc(Cn2ccc3sccc32)n1

>  <score_type>  (45) 
oracle

>  <origin>  (45) 
adg

>  <m_score__min__energy>  (45) 
-4.4800000000000004

>  <m_primary>  (45) 
energy

$$$$
45:0
     RDKit          3D

 51 54  0  0  0  0  0  0  0  0999 V2000
   60.6850   28.8680   45.2290 C   0  0  0  0  0  0  0  0  0  0  0  0
   59.4480   28.2100   45.7700 C   0  0  0  0  0  0  0  0  0  0  0  0
   58.2290   28.0400   45.1280 C   0  0  0  0  0  0  0  0  0  0  0  0
   57.8260   28.4470   43.7230 C   0  0  0  0  0  0  0  0  0  0  0  0
   57.4710   29.8750   43.5230 N   0  0  0  0  0  0  0  0  0  0  0  0
   58.4830   30.8380   43.9800 C   0  0  0  0  0  0  0  0  0  0  0  0
   57.5290   31.4710   45.0040 C   0  0  0  0  0  0  0  0  0  0  0  0
   57.1530   32.9300   44.6700 C   0  0  0  0  0  0  0  0  0  0  0  0
   58.3400   33.8630   44.9590 C   0  0  0  0  0  0  0  0  0  0  0  0
   59.0740   33.4540   46.1660 N   0  0  0  0  0  0  0  0  0  0  0  0
   60.3190   34.1060   46.4780 C   0  0  0  0  0  0  0  0  0  0  0  0
   60.4410   35.3420   46.2610 O   0  0  0  0  0  0  0  0  0  0  0  0
   61.4680   33.3480   47.0260 C   0  0  0  0  0  0  0  0  0  0  0  0
   61.2770   32.4010   48.0440 C   0  0  0  0  0  0  0  0  0  0  0  0
   62.3670   31.6990   48.5600 C   0  0  0  0  0  0  0  0  0  0  0  0
   63.6450   31.9560   48.0600 C   0  0  0  0  0  0  0  0  0  0  0  0
   63.8220   32.8870   47.0850 N   0  0  0  0  0  0  0  0  0  0  0  0
   62.7740   33.5840   46.5670 C   0  0  0  0  0  0  0  0  0  0  0  0
   58.4290   32.5730   47.1490 C   0  0  0  0  0  0  0  0  0  0  0  0
   57.9350   31.2730   46.4910 C   0  0  0  0  0  0  0  0  0  0  0  0
   56.5210   30.4380   44.4930 C   0  0  0  0  0  0  0  0  0  0  0  0
   57.3910   27.5220   46.1030 C   0  0  0  0  0  0  0  0  0  0  0  0
   58.0780   27.3610   47.2510 N   0  0  0  0  0  0  0  0  0  0  0  0
   59.3180   27.7730   47.0400 N   0  0  0  0  0  0  0  0  0  0  0  0
   60.3450   27.7900   48.0750 C   0  0  0  0  0  0  0  0  0  0  0  0
   61.3168   29.2041   46.0644 H   0  0  0  0  0  0  0  0  0  0  0  0
   61.2439   28.1480   44.6132 H   0  0  0  0  0  0  0  0  0  0  0  0
   60.4003   29.7339   44.6132 H   0  0  0  0  0  0  0  0  0  0  0  0
   58.6674   28.2149   43.0535 H   0  0  0  0  0  0  0  0  0  0  0  0
   56.9044   27.8854   43.5102 H   0  0  0  0  0  0  0  0  0  0  0  0
   59.3638   30.3636   44.4372 H   0  0  0  0  0  0  0  0  0  0  0  0
   58.9723   31.4864   43.2383 H   0  0  0  0  0  0  0  0  0  0  0  0
   56.8851   33.0017   43.6055 H   0  0  0  0  0  0  0  0  0  0  0  0
   56.2985   33.2324   45.2932 H   0  0  0  0  0  0  0  0  0  0  0  0
   59.0269   33.8419   44.1001 H   0  0  0  0  0  0  0  0  0  0  0  0
   57.9461   34.8766   45.1250 H   0  0  0  0  0  0  0  0  0  0  0  0
   60.2666   32.2119   48.4357 H   0  0  0  0  0  0  0  0  0  0  0  0
   62.2208   30.9506   49.3528 H   0  0  0  0  0  0  0  0  0  0  0  0
   64.5104   31.4042   48.4557 H   0  0  0  0  0  0  0  0  0  0  0  0
   64.7870   33.0750   46.7290 H   0  0  0  0  0  0  0  0  0  0  0  0
   62.9510   34.3364   45.7844 H   0  0  0  0  0  0  0  0  0  0  0  0
   59.1544   32.3231   47.9373 H   0  0  0  0  0  0  0  0  0  0  0  0
   57.5617   33.1002   47.5731 H   0  0  0  0  0  0  0  0  0  0  0  0
   58.7407   30.5257   46.5394 H   0  0  0  0  0  0  0  0  0  0  0  0
   57.0403   30.9421   47.0388 H   0  0  0  0  0  0  0  0  0  0  0  0
   56.2044   29.7186   45.2626 H   0  0  0  0  0  0  0  0  0  0  0  0
   55.5418   30.7870   44.1334 H   0  0  0  0  0  0  0  0  0  0  0  0
   56.3275   27.2794   45.9613 H   0  0  0  0  0  0  0  0  0  0  0  0
   59.8672   27.7821   49.0658 H   0  0  0  0  0  0  0  0  0  0  0  0
   60.9861   26.9023   47.9700 H   0  0  0  0  0  0  0  0  0  0  0  0
   60.9564   28.6984   47.9700 H   0  0  0  0  0  0  0  0  0  0  0  0
  1  2  1  0
  2  3  2  0
  3  4  1  0
  4  5  1  0
  5  6  1  0
  6  7  1  0
  7  8  1  0
  8  9  1  0
  9 10  1  0
 10 11  1  0
 11 12  2  0
 11 13  1  0
 13 14  2  0
 14 15  1  0
 15 16  2  0
 16 17  1  0
 17 18  2  0
 10 19  1  0
 19 20  1  0
  7 21  1  0
  3 22  1  0
 22 23  2  0
 23 24  1  0
 24 25  1  0
 24  2  1  0
 21  5  1  0
 20  7  1  0
 18 13  1  0
  1 26  1  0
  1 27  1  0
  1 28  1  0
  4 29  1  0
  4 30  1  0
  6 31  1  0
  6 32  1  0
  8 33  1  0
  8 34  1  0
  9 35  1  0
  9 36  1  0
 14 37  1  0
 15 38  1  0
 16 39  1  0
 17 40  1  0
 18 41  1  0
 19 42  1  0
 19 43  1  0
 20 44  1  0
 20 45  1  0
 21 46  1  0
 21 47  1  0
 22 48  1  0
 25 49  1  0
 25 50  1  0
 25 51  1  0
M  CHG  1  17   1
M  END
>  <UniqueID>  (46) 
41

>  <SMILES>  (46) 
Cc1c(CN2CC3(CCN(C(=O)c4ccc[nH+]c4)CC3)C2)cnn1C

>  <Energy>  (46) 
164.90082926176035

>  <Genealogy>  (46) 
Cc1c(CN2CC3(CCN(C(=O)c4ccc[nH+]c4)CC3)C2)cnn1C (protonated)
Cc1c(CN2CC3(CCN(C(=O)c4ccc[nH+]c4)CC3)C2)cnn1C (3D coordinates assigned)
Cc1c(CN2CC3(CCN(C(=O)c4ccc[nH+]c4)CC3)C2)cnn1C (nonaromatic ring conformer: 164.90082926176035 kcal/mol)

>  <smiles>  (46) 
Cc1c(CN2CC3(CCN(C(=O)c4cccnc4)CC3)C2)cnn1C

>  <score_type>  (46) 
oracle

>  <origin>  (46) 
adg

>  <m_score__min__energy>  (46) 
-7.0199999999999996

>  <m_primary>  (46) 
energy

$$$$
46:0
     RDKit          3D

 36 38  0  0  0  0  0  0  0  0999 V2000
   58.6390   26.0870   47.6670 N   0  0  0  0  0  0  0  0  0  0  0  0
   58.7790   27.2090   47.4210 C   0  0  0  0  0  0  0  0  0  0  0  0
   58.9530   28.6110   47.1120 C   0  0  0  0  0  0  0  0  0  0  0  0
   59.3880   29.5260   48.0970 C   0  0  0  0  0  0  0  0  0  0  0  0
   59.7440   29.0930   49.4700 C   0  0  0  0  0  0  0  0  0  0  0  0
   59.0770   29.6410   50.5800 C   0  0  0  0  0  0  0  0  0  0  0  0
   59.4200   29.2450   51.8760 C   0  0  0  0  0  0  0  0  0  0  0  0
   60.4350   28.3050   52.0760 C   0  0  0  0  0  0  0  0  0  0  0  0
   61.1120   27.7640   50.9790 C   0  0  0  0  0  0  0  0  0  0  0  0
   60.7720   28.1570   49.6820 C   0  0  0  0  0  0  0  0  0  0  0  0
   59.4810   30.8880   47.7710 C   0  0  0  0  0  0  0  0  0  0  0  0
   59.1610   31.3240   46.4780 C   0  0  0  0  0  0  0  0  0  0  0  0
   59.2460   32.7500   46.1030 C   0  0  0  0  0  0  0  0  0  0  0  0
   59.8300   33.7540   46.8690 C   0  0  0  0  0  0  0  0  0  0  0  0
   59.7740   35.0170   46.2680 C   0  0  0  0  0  0  0  0  0  0  0  0
   59.1500   35.0200   45.0290 C   0  0  0  0  0  0  0  0  0  0  0  0
   58.6670   33.4470   44.6810 S   0  0  0  0  0  0  0  0  0  0  0  0
   58.7590   30.4160   45.5510 N   0  0  0  0  0  0  0  0  0  0  0  0
   58.6400   29.0910   45.8270 C   0  0  0  0  0  0  0  0  0  0  0  0
   58.0690   27.9950   44.5180 S   0  0  0  0  0  0  0  0  0  0  0  0
   57.3040   29.3250   43.5280 C   0  0  0  0  0  0  0  0  0  0  0  0
   56.2520   30.0310   44.3220 C   0  0  0  0  0  0  0  0  0  0  0  0
   55.1420   29.3040   44.8440 N   0  0  0  0  0  0  0  0  0  0  0  0
   56.3580   31.2650   44.5520 O   0  0  0  0  0  0  0  0  0  0  0  0
   58.2813   30.3851   50.4277 H   0  0  0  0  0  0  0  0  0  0  0  0
   58.8904   29.6737   52.7396 H   0  0  0  0  0  0  0  0  0  0  0  0
   60.7010   27.9911   53.0961 H   0  0  0  0  0  0  0  0  0  0  0  0
   61.9137   27.0277   51.1372 H   0  0  0  0  0  0  0  0  0  0  0  0
   61.3111   27.7322   48.8224 H   0  0  0  0  0  0  0  0  0  0  0  0
   59.8054   31.6140   48.5311 H   0  0  0  0  0  0  0  0  0  0  0  0
   60.2909   33.5729   47.8513 H   0  0  0  0  0  0  0  0  0  0  0  0
   60.1867   35.9234   46.7350 H   0  0  0  0  0  0  0  0  0  0  0  0
   58.9975   35.8990   44.3855 H   0  0  0  0  0  0  0  0  0  0  0  0
   58.0791   30.0470   43.2316 H   0  0  0  0  0  0  0  0  0  0  0  0
   56.8379   28.8809   42.6361 H   0  0  0  0  0  0  0  0  0  0  0  0
   55.2630   28.6400   45.6390 H   0  0  0  0  0  0  0  0  0  0  0  0
  1  2  3  0
  2  3  1  0
  3  4  2  0
  4  5  1  0
  5  6  2  0
  6  7  1  0
  7  8  2  0
  8  9  1  0
  9 10  2  0
  4 11  1  0
 11 12  2  0
 12 13  1  0
 13 14  2  0
 14 15  1  0
 15 16  2  0
 16 17  1  0
 12 18  1  0
 18 19  2  0
 19 20  1  0
 20 21  1  0
 21 22  1  0
 22 23  1  0
 22 24  2  0
 19  3  1  0
 10  5  1  0
 17 13  1  0
  6 25  1  0
  7 26  1  0
  8 27  1  0
  9 28  1  0
 10 29  1  0
 11 30  1  0
 14 31  1  0
 15 32  1  0
 16 33  1  0
 21 34  1  0
 21 35  1  0
 23 36  1  0
M  CHG  1  23  -1
M  END
>  <UniqueID>  (47) 
42

>  <SMILES>  (47) 
N#Cc1c(-c2ccccc2)cc(-c2cccs2)nc1SCC([NH-])=O

>  <Energy>  (47) 
67.36955710138848

>  <Genealogy>  (47) 
N#Cc1c(-c2ccccc2)cc(-c2cccs2)nc1SCC([NH-])=O (protonated)
N#Cc1c(-c2ccccc2)cc(-c2cccs2)nc1SCC([NH-])=O (3D coordinates assigned)
N#Cc1c(-c2ccccc2)cc(-c2cccs2)nc1SCC([NH-])=O (optimized conformer: 67.36955710138848 kcal/mol)

>  <smiles>  (47) 
N#Cc1c(-c2ccccc2)cc(-c2cccs2)nc1SCC(N)=O

>  <score_type>  (47) 
oracle

>  <origin>  (47) 
adg

>  <m_score__min__energy>  (47) 
-10.91

>  <m_primary>  (47) 
energy

$$$$
