0:0
     RDKit          3D

 48 51  0  0  0  0  0  0  0  0999 V2000
   60.0280   34.2190   44.9950 C   0  0  0  0  0  0  0  0  0  0  0  0
   60.2480   33.5350   46.2680 N   0  0  0  0  0  0  0  0  0  0  0  0
   59.3160   32.9460   47.0620 C   0  0  0  0  0  0  0  0  0  0  0  0
   57.5600   32.8590   46.6650 S   0  0  0  0  0  0  0  0  0  0  0  0
   57.7280   31.3370   45.7310 C   0  0  0  0  0  0  0  0  0  0  0  0
   57.1170   31.2070   44.4770 C   0  0  0  0  0  0  0  0  0  0  0  0
   57.2480   30.0170   43.7530 C   0  0  0  0  0  0  0  0  0  0  0  0
   58.0000   28.9590   44.2740 C   0  0  0  0  0  0  0  0  0  0  0  0
   58.1640   27.4680   43.3650 Cl  0  0  0  0  0  0  0  0  0  0  0  0
   58.6280   29.0960   45.5170 C   0  0  0  0  0  0  0  0  0  0  0  0
   58.4980   30.2850   46.2410 C   0  0  0  0  0  0  0  0  0  0  0  0
   59.9160   32.4140   48.2070 C   0  0  0  0  0  0  0  0  0  0  0  0
   59.2430   31.7150   49.3600 C   0  0  0  0  0  0  0  0  0  0  0  0
   58.9650   32.6540   50.4650 N   0  0  0  0  0  0  0  0  0  0  0  0
   57.7260   32.2840   51.1870 C   0  0  0  0  0  0  0  0  0  0  0  0
   57.5710   33.0780   52.5020 C   0  0  0  0  0  0  0  0  0  0  0  0
   58.4740   34.2340   52.5370 N   0  0  0  0  0  0  0  0  0  0  0  0
   59.8850   33.8170   52.4470 C   0  0  0  0  0  0  0  0  0  0  0  0
   60.1020   32.7040   51.4020 C   0  0  0  0  0  0  0  0  0  0  0  0
   61.2560   32.7450   48.1070 C   0  0  0  0  0  0  0  0  0  0  0  0
   62.3260   32.5120   48.9740 C   0  0  0  0  0  0  0  0  0  0  0  0
   63.5950   32.9890   48.6010 C   0  0  0  0  0  0  0  0  0  0  0  0
   65.0930   32.6980   49.7480 Br  0  0  0  0  0  0  0  0  0  0  0  0
   63.7660   33.6860   47.3850 C   0  0  0  0  0  0  0  0  0  0  0  0
   62.6720   33.9100   46.5330 C   0  0  0  0  0  0  0  0  0  0  0  0
   61.4220   33.4210   46.9230 C   0  0  0  0  0  0  0  0  0  0  0  0
   59.6963   35.2504   45.1855 H   0  0  0  0  0  0  0  0  0  0  0  0
   60.9661   34.2357   44.4208 H   0  0  0  0  0  0  0  0  0  0  0  0
   59.2561   33.6857   44.4208 H   0  0  0  0  0  0  0  0  0  0  0  0
   56.5335   32.0416   44.0611 H   0  0  0  0  0  0  0  0  0  0  0  0
   56.7591   29.9134   42.7731 H   0  0  0  0  0  0  0  0  0  0  0  0
   59.2248   28.2670   45.9251 H   0  0  0  0  0  0  0  0  0  0  0  0
   59.0016   30.3940   47.2129 H   0  0  0  0  0  0  0  0  0  0  0  0
   58.2946   31.2800   49.0116 H   0  0  0  0  0  0  0  0  0  0  0  0
   59.9168   30.9291   49.7320 H   0  0  0  0  0  0  0  0  0  0  0  0
   56.8610   32.4932   50.5405 H   0  0  0  0  0  0  0  0  0  0  0  0
   57.7822   31.2144   51.4375 H   0  0  0  0  0  0  0  0  0  0  0  0
   56.5329   33.4317   52.5867 H   0  0  0  0  0  0  0  0  0  0  0  0
   57.8256   32.4133   53.3407 H   0  0  0  0  0  0  0  0  0  0  0  0
   58.2450   34.8810   51.7460 H   0  0  0  0  0  0  0  0  0  0  0  0
   58.3300   34.7540   53.4340 H   0  0  0  0  0  0  0  0  0  0  0  0
   60.4941   34.6889   52.1665 H   0  0  0  0  0  0  0  0  0  0  0  0
   60.1809   33.4185   53.4287 H   0  0  0  0  0  0  0  0  0  0  0  0
   61.0260   32.9079   50.8410 H   0  0  0  0  0  0  0  0  0  0  0  0
   60.1818   31.7370   51.9202 H   0  0  0  0  0  0  0  0  0  0  0  0
   62.1802   31.9713   49.9207 H   0  0  0  0  0  0  0  0  0  0  0  0
   64.7627   34.0561   47.1030 H   0  0  0  0  0  0  0  0  0  0  0  0
   62.7955   34.4549   45.5855 H   0  0  0  0  0  0  0  0  0  0  0  0
  1  2  1  0
  2  3  1  0
  3  4  1  0
  4  5  1  0
  5  6  2  0
  6  7  1  0
  7  8  2  0
  8  9  1  0
  8 10  1  0
 10 11  2  0
  3 12  2  0
 12 13  1  0
 13 14  1  0
 14 15  1  0
 15 16  1  0
 16 17  1  0
 17 18  1  0
 18 19  1  0
 12 20  1  0
 20 21  2  0
 21 22  1  0
 22 23  1  0
 22 24  2  0
 24 25  1  0
 25 26  2  0
 26  2  1  0
 11  5  1  0
 19 14  1  0
 26 20  1  0
  1 27  1  0
  1 28  1  0
  1 29  1  0
  6 30  1  0
  7 31  1  0
 10 32  1  0
 11 33  1  0
 13 34  1  0
 13 35  1  0
 15 36  1  0
 15 37  1  0
 16 38  1  0
 16 39  1  0
 17 40  1  0
 17 41  1  0
 18 42  1  0
 18 43  1  0
 19 44  1  0
 19 45  1  0
 21 46  1  0
 24 47  1  0
 25 48  1  0
M  CHG  1  17   1
M  END
>  <UniqueID>  (1) 
1

>  <SMILES>  (1) 
Cn1c(Sc2ccc(Cl)cc2)c(CN2CC[NH2+]CC2)c2cc(Br)ccc21

>  <Energy>  (1) 
85.63479651519614

>  <Genealogy>  (1) 
Cn1c(Sc2ccc(Cl)cc2)c(CN2CC[NH2+]CC2)c2cc(Br)ccc21 (protonated)
Cn1c(Sc2ccc(Cl)cc2)c(CN2CC[NH2+]CC2)c2cc(Br)ccc21 (3D coordinates assigned)
Cn1c(Sc2ccc(Cl)cc2)c(CN2CC[NH2+]CC2)c2cc(Br)ccc21 (nonaromatic ring conformer: 85.63479651519614 kcal/mol)

>  <smiles>  (1) 
Cn1c(Sc2ccc(Cl)cc2)c(CN2CCNCC2)c2cc(Br)ccc21

>  <score_type>  (1) 
oracle

>  <origin>  (1) 
adg

>  <m_score__min__energy>  (1) 
-7.5899999999999999

>  <m_primary>  (1) 
energy

$$$$
1:0
     RDKit          3D

 81 84  0  0  0  0  0  0  0  0999 V2000
   56.2430   30.3720   43.7650 C   0  0  0  0  0  0  0  0  0  0  0  0
   57.6880   30.8460   43.6160 C   0  0  0  0  0  0  0  0  0  0  0  0
   58.0430   31.7870   44.6860 N   0  0  0  0  0  0  0  0  0  0  0  0
   56.9950   32.8000   44.8860 C   0  0  0  0  0  0  0  0  0  0  0  0
   57.6090   34.2040   44.8870 C   0  0  0  0  0  0  0  0  0  0  0  0
   58.9110   34.1830   45.4370 O   0  0  0  0  0  0  0  0  0  0  0  0
   58.8910   34.5540   46.8000 C   0  0  0  0  0  0  0  0  0  0  0  0
   59.0150   33.3000   47.6730 C   0  0  0  0  0  0  0  0  0  0  0  0
   59.4440   32.1150   46.9030 N   0  0  0  0  0  0  0  0  0  0  0  0
   60.5660   31.4120   47.5150 C   0  0  0  0  0  0  0  0  0  0  0  0
   61.7840   32.1010   47.7500 C   0  0  0  0  0  0  0  0  0  0  0  0
   62.1880   33.2070   46.9590 C   0  0  0  0  0  0  0  0  0  0  0  0
   63.3680   33.8970   47.2380 C   0  0  0  0  0  0  0  0  0  0  0  0
   64.1910   33.4780   48.2740 C   0  0  0  0  0  0  0  0  0  0  0  0
   63.8410   32.3650   49.0350 C   0  0  0  0  0  0  0  0  0  0  0  0
   62.6270   31.6720   48.8060 C   0  0  0  0  0  0  0  0  0  0  0  0
   62.2480   30.6090   49.5960 N   0  0  0  0  0  0  0  0  0  0  0  0
   62.8890   30.4050   50.9150 C   0  0  0  0  0  0  0  0  0  0  0  0
   61.2690   29.7380   49.1510 C   0  0  0  0  0  0  0  0  0  0  0  0
   61.0880   28.4790   49.7720 C   0  0  0  0  0  0  0  0  0  0  0  0
   60.0930   27.6090   49.3600 C   0  0  0  0  0  0  0  0  0  0  0  0
   59.2850   27.9350   48.2850 C   0  0  0  0  0  0  0  0  0  0  0  0
   59.4510   29.1450   47.5920 C   0  0  0  0  0  0  0  0  0  0  0  0
   58.7140   29.3250   46.3660 N   0  0  0  0  0  0  0  0  0  0  0  0
   57.8860   28.2580   45.7880 C   0  0  0  0  0  0  0  0  0  0  0  0
   58.7070   27.0140   45.4080 C   0  0  0  0  0  0  0  0  0  0  0  0
   58.0290   26.1670   44.3040 C   0  0  0  0  0  0  0  0  0  0  0  0
   57.2360   24.9930   44.7970 N   0  0  0  0  0  0  0  0  0  0  0  0
   56.1030   25.4750   45.6320 C   0  0  0  0  0  0  0  0  0  0  0  0
   58.1320   24.1600   45.6730 C   0  0  0  0  0  0  0  0  0  0  0  0
   58.8950   23.0800   44.8910 C   0  0  0  0  0  0  0  0  0  0  0  0
   57.9180   22.0780   44.2540 C   0  0  0  0  0  0  0  0  0  0  0  0
   56.5550   22.7070   43.9310 C   0  0  0  0  0  0  0  0  0  0  0  0
   56.7000   24.2060   43.6310 C   0  0  0  0  0  0  0  0  0  0  0  0
   60.4250   30.0970   48.0560 C   0  0  0  0  0  0  0  0  0  0  0  0
   55.9924   30.2898   44.8329 H   0  0  0  0  0  0  0  0  0  0  0  0
   55.5683   31.0959   43.2847 H   0  0  0  0  0  0  0  0  0  0  0  0
   56.1282   29.3891   43.2847 H   0  0  0  0  0  0  0  0  0  0  0  0
   58.3593   29.9759   43.6640 H   0  0  0  0  0  0  0  0  0  0  0  0
   57.7922   31.3583   42.6482 H   0  0  0  0  0  0  0  0  0  0  0  0
   58.9120   32.2890   44.3880 H   0  0  0  0  0  0  0  0  0  0  0  0
   56.2584   32.7262   44.0724 H   0  0  0  0  0  0  0  0  0  0  0  0
   56.5043   32.6223   45.8543 H   0  0  0  0  0  0  0  0  0  0  0  0
   57.6604   34.5757   43.8530 H   0  0  0  0  0  0  0  0  0  0  0  0
   56.9781   34.8639   45.5006 H   0  0  0  0  0  0  0  0  0  0  0  0
   59.7331   35.2304   47.0082 H   0  0  0  0  0  0  0  0  0  0  0  0
   57.9443   35.0663   47.0266 H   0  0  0  0  0  0  0  0  0  0  0  0
   59.7541   33.4929   48.4645 H   0  0  0  0  0  0  0  0  0  0  0  0
   58.0209   33.0846   48.0917 H   0  0  0  0  0  0  0  0  0  0  0  0
   58.6560   31.4610   46.7450 H   0  0  0  0  0  0  0  0  0  0  0  0
   59.6620   32.4730   45.9500 H   0  0  0  0  0  0  0  0  0  0  0  0
   61.5614   33.5254   46.1128 H   0  0  0  0  0  0  0  0  0  0  0  0
   63.6465   34.7745   46.6359 H   0  0  0  0  0  0  0  0  0  0  0  0
   65.1197   34.0248   48.4942 H   0  0  0  0  0  0  0  0  0  0  0  0
   64.5196   32.0180   49.8281 H   0  0  0  0  0  0  0  0  0  0  0  0
   62.1674   30.6347   51.7128 H   0  0  0  0  0  0  0  0  0  0  0  0
   63.2156   29.3585   51.0061 H   0  0  0  0  0  0  0  0  0  0  0  0
   63.7603   31.0702   51.0061 H   0  0  0  0  0  0  0  0  0  0  0  0
   61.7515   28.1858   50.5989 H   0  0  0  0  0  0  0  0  0  0  0  0
   59.9443   26.6559   49.8887 H   0  0  0  0  0  0  0  0  0  0  0  0
   58.4989   27.2340   47.9677 H   0  0  0  0  0  0  0  0  0  0  0  0
   58.9490   30.1520   45.7720 H   0  0  0  0  0  0  0  0  0  0  0  0
   57.1233   27.9655   46.5247 H   0  0  0  0  0  0  0  0  0  0  0  0
   57.4302   28.6510   44.8672 H   0  0  0  0  0  0  0  0  0  0  0  0
   59.6932   27.3400   45.0460 H   0  0  0  0  0  0  0  0  0  0  0  0
   58.7919   26.3842   46.3058 H   0  0  0  0  0  0  0  0  0  0  0  0
   57.3502   26.8235   43.7399 H   0  0  0  0  0  0  0  0  0  0  0  0
   58.8444   25.7505   43.6944 H   0  0  0  0  0  0  0  0  0  0  0  0
   56.3594   25.3659   46.6961 H   0  0  0  0  0  0  0  0  0  0  0  0
   55.9075   26.5342   45.4086 H   0  0  0  0  0  0  0  0  0  0  0  0
   55.2043   24.8813   45.4086 H   0  0  0  0  0  0  0  0  0  0  0  0
   58.8624   24.8231   46.1597 H   0  0  0  0  0  0  0  0  0  0  0  0
   57.4928   23.6472   46.4068 H   0  0  0  0  0  0  0  0  0  0  0  0
   59.4884   23.5594   44.0985 H   0  0  0  0  0  0  0  0  0  0  0  0
   59.5535   22.5387   45.5863 H   0  0  0  0  0  0  0  0  0  0  0  0
   58.3608   21.6984   43.3214 H   0  0  0  0  0  0  0  0  0  0  0  0
   57.7484   21.2698   44.9807 H   0  0  0  0  0  0  0  0  0  0  0  0
   56.1254   22.2038   43.0522 H   0  0  0  0  0  0  0  0  0  0  0  0
   55.8965   22.5855   44.8037 H   0  0  0  0  0  0  0  0  0  0  0  0
   57.3874   24.3279   42.7809 H   0  0  0  0  0  0  0  0  0  0  0  0
   55.6953   24.5942   43.4076 H   0  0  0  0  0  0  0  0  0  0  0  0
  1  2  1  0
  2  3  1  0
  3  4  1  0
  4  5  1  0
  5  6  1  0
  6  7  1  0
  7  8  1  0
  8  9  1  0
  9 10  1  0
 10 11  2  0
 11 12  1  0
 12 13  2  0
 13 14  1  0
 14 15  2  0
 15 16  1  0
 16 17  2  0
 17 18  1  0
 17 19  1  0
 19 20  2  0
 20 21  1  0
 21 22  2  0
 22 23  1  0
 23 24  1  0
 24 25  1  0
 25 26  1  0
 26 27  1  0
 27 28  1  0
 28 29  1  0
 28 30  1  0
 30 31  1  0
 31 32  1  0
 32 33  1  0
 33 34  1  0
 23 35  2  0
 35 10  1  0
 16 11  1  0
 35 19  1  0
 34 28  1  0
  1 36  1  0
  1 37  1  0
  1 38  1  0
  2 39  1  0
  2 40  1  0
  3 41  1  0
  4 42  1  0
  4 43  1  0
  5 44  1  0
  5 45  1  0
  7 46  1  0
  7 47  1  0
  8 48  1  0
  8 49  1  0
  9 50  1  0
  9 51  1  0
 12 52  1  0
 13 53  1  0
 14 54  1  0
 15 55  1  0
 18 56  1  0
 18 57  1  0
 18 58  1  0
 20 59  1  0
 21 60  1  0
 22 61  1  0
 24 62  1  0
 25 63  1  0
 25 64  1  0
 26 65  1  0
 26 66  1  0
 27 67  1  0
 27 68  1  0
 29 69  1  0
 29 70  1  0
 29 71  1  0
 30 72  1  0
 30 73  1  0
 31 74  1  0
 31 75  1  0
 32 76  1  0
 32 77  1  0
 33 78  1  0
 33 79  1  0
 34 80  1  0
 34 81  1  0
M  CHG  3   9   1  17   1  28   1
M  END
>  <UniqueID>  (2) 
2

>  <SMILES>  (2) 
CCNCCOCC[NH2+]c1c2ccccc2[n+](C)c2cccc(NCCC[N+]3(C)CCCCC3)c12

>  <Energy>  (2) 
133.3865896754016

>  <Genealogy>  (2) 
CCNCCOCC[NH2+]c1c2ccccc2[n+](C)c2cccc(NCCC[N+]3(C)CCCCC3)c12 (protonated)
CCNCCOCC[NH2+]c1c2ccccc2[n+](C)c2cccc(NCCC[N+]3(C)CCCCC3)c12 (3D coordinates assigned)
CCNCCOCC[NH2+]c1c2ccccc2[n+](C)c2cccc(NCCC[N+]3(C)CCCCC3)c12 (nonaromatic ring conformer: 133.3865896754016 kcal/mol)

>  <smiles>  (2) 
CCNCCOCCNc1c2ccccc2[n+](C)c2cccc(NCCC[N+]3(C)CCCCC3)c12

>  <score_type>  (2) 
oracle

>  <origin>  (2) 
adg

>  <m_score__min__energy>  (2) 
-3.3399999999999999

>  <m_primary>  (2) 
energy

$$$$
2:0
     RDKit          3D

 75 77  0  0  0  0  0  0  0  0999 V2000
   59.5930   33.8330   51.8160 C   0  0  0  0  0  0  0  0  0  0  0  0
   60.5990   33.7290   50.6650 C   0  0  0  0  0  0  0  0  0  0  0  0
   60.3600   32.5480   49.8190 N   0  0  0  0  0  0  0  0  0  0  0  0
   59.1530   31.8000   50.2090 C   0  0  0  0  0  0  0  0  0  0  0  0
   58.8560   30.6960   49.1910 C   0  0  0  0  0  0  0  0  0  0  0  0
   59.8310   30.7240   48.1030 N   0  0  0  0  0  0  0  0  0  0  0  0
   59.4230   30.7590   46.7230 C   0  0  0  0  0  0  0  0  0  0  0  0
   59.1490   29.5450   46.0660 C   0  0  0  0  0  0  0  0  0  0  0  0
   59.5880   28.3100   46.5990 C   0  0  0  0  0  0  0  0  0  0  0  0
   59.3490   27.1170   45.9200 C   0  0  0  0  0  0  0  0  0  0  0  0
   58.6900   27.1360   44.6950 C   0  0  0  0  0  0  0  0  0  0  0  0
   58.2290   28.3390   44.1620 C   0  0  0  0  0  0  0  0  0  0  0  0
   58.3960   29.5600   44.8640 C   0  0  0  0  0  0  0  0  0  0  0  0
   57.8190   30.7370   44.4320 N   0  0  0  0  0  0  0  0  0  0  0  0
   56.7230   30.7030   43.4340 C   0  0  0  0  0  0  0  0  0  0  0  0
   58.2360   31.9480   44.9570 C   0  0  0  0  0  0  0  0  0  0  0  0
   57.7810   33.1770   44.4160 C   0  0  0  0  0  0  0  0  0  0  0  0
   58.1300   34.3900   44.9880 C   0  0  0  0  0  0  0  0  0  0  0  0
   59.0370   34.4290   46.0330 C   0  0  0  0  0  0  0  0  0  0  0  0
   59.6470   33.2550   46.5090 C   0  0  0  0  0  0  0  0  0  0  0  0
   60.8040   33.4010   47.3780 N   0  0  0  0  0  0  0  0  0  0  0  0
   61.9930   33.8540   46.6260 C   0  0  0  0  0  0  0  0  0  0  0  0
   63.2730   33.1490   47.1170 C   0  0  0  0  0  0  0  0  0  0  0  0
   63.0100   31.6940   47.5150 C   0  0  0  0  0  0  0  0  0  0  0  0
   62.7520   31.6260   48.9030 O   0  0  0  0  0  0  0  0  0  0  0  0
   63.8620   32.1470   49.6120 C   0  0  0  0  0  0  0  0  0  0  0  0
   63.8150   31.6680   51.0650 C   0  0  0  0  0  0  0  0  0  0  0  0
   62.4240   31.4840   51.5160 N   0  0  0  0  0  0  0  0  0  0  0  0
   62.3150   30.4100   52.5150 C   0  0  0  0  0  0  0  0  0  0  0  0
   61.0400   29.5900   52.2880 C   0  0  0  0  0  0  0  0  0  0  0  0
   61.0720   28.8140   50.9620 C   0  0  0  0  0  0  0  0  0  0  0  0
   61.6000   29.6390   49.8790 N   0  0  0  0  0  0  0  0  0  0  0  0
   59.1280   31.9860   46.0740 C   0  0  0  0  0  0  0  0  0  0  0  0
   60.1272   33.7778   52.7760 H   0  0  0  0  0  0  0  0  0  0  0  0
   59.0571   34.7913   51.7492 H   0  0  0  0  0  0  0  0  0  0  0  0
   58.8724   33.0046   51.7492 H   0  0  0  0  0  0  0  0  0  0  0  0
   60.5187   34.6323   50.0424 H   0  0  0  0  0  0  0  0  0  0  0  0
   61.6031   33.6312   51.1035 H   0  0  0  0  0  0  0  0  0  0  0  0
   61.1890   31.9120   49.8620 H   0  0  0  0  0  0  0  0  0  0  0  0
   59.3116   31.3470   51.1988 H   0  0  0  0  0  0  0  0  0  0  0  0
   58.2994   32.4931   50.2423 H   0  0  0  0  0  0  0  0  0  0  0  0
   58.9030   29.7186   49.6936 H   0  0  0  0  0  0  0  0  0  0  0  0
   57.8523   30.8605   48.7721 H   0  0  0  0  0  0  0  0  0  0  0  0
   60.8520   30.6490   48.3370 H   0  0  0  0  0  0  0  0  0  0  0  0
   60.1237   28.2915   47.5596 H   0  0  0  0  0  0  0  0  0  0  0  0
   59.6810   26.1614   46.3520 H   0  0  0  0  0  0  0  0  0  0  0  0
   58.5318   26.1971   44.1441 H   0  0  0  0  0  0  0  0  0  0  0  0
   57.7284   28.3412   43.1825 H   0  0  0  0  0  0  0  0  0  0  0  0
   55.7542   30.6729   43.9542 H   0  0  0  0  0  0  0  0  0  0  0  0
   56.7730   31.6031   42.8037 H   0  0  0  0  0  0  0  0  0  0  0  0
   56.8287   29.8077   42.8037 H   0  0  0  0  0  0  0  0  0  0  0  0
   57.1377   33.1675   43.5238 H   0  0  0  0  0  0  0  0  0  0  0  0
   57.6857   35.3231   44.6112 H   0  0  0  0  0  0  0  0  0  0  0  0
   59.2846   35.3943   46.4987 H   0  0  0  0  0  0  0  0  0  0  0  0
   61.0970   32.5060   47.8210 H   0  0  0  0  0  0  0  0  0  0  0  0
   60.5520   34.0750   48.1380 H   0  0  0  0  0  0  0  0  0  0  0  0
   61.8481   33.6298   45.5589 H   0  0  0  0  0  0  0  0  0  0  0  0
   62.1114   34.9359   46.7856 H   0  0  0  0  0  0  0  0  0  0  0  0
   64.0201   33.1669   46.3099 H   0  0  0  0  0  0  0  0  0  0  0  0
   63.6356   33.6844   48.0069 H   0  0  0  0  0  0  0  0  0  0  0  0
   62.1392   31.3136   46.9608 H   0  0  0  0  0  0  0  0  0  0  0  0
   63.8922   31.0823   47.2750 H   0  0  0  0  0  0  0  0  0  0  0  0
   64.7931   31.7981   49.1416 H   0  0  0  0  0  0  0  0  0  0  0  0
   63.8266   33.2462   49.5888 H   0  0  0  0  0  0  0  0  0  0  0  0
   64.3489   30.7096   51.1452 H   0  0  0  0  0  0  0  0  0  0  0  0
   64.2915   32.4291   51.7004 H   0  0  0  0  0  0  0  0  0  0  0  0
   61.8680   31.1830   50.6740 H   0  0  0  0  0  0  0  0  0  0  0  0
   63.1899   29.7485   52.4317 H   0  0  0  0  0  0  0  0  0  0  0  0
   62.2731   30.8608   53.5175 H   0  0  0  0  0  0  0  0  0  0  0  0
   60.9292   28.8728   53.1146 H   0  0  0  0  0  0  0  0  0  0  0  0
   60.1930   30.2907   52.2467 H   0  0  0  0  0  0  0  0  0  0  0  0
   61.7110   27.9266   51.0811 H   0  0  0  0  0  0  0  0  0  0  0  0
   60.0434   28.5202   50.7059 H   0  0  0  0  0  0  0  0  0  0  0  0
   61.1180   30.5680   49.9110 H   0  0  0  0  0  0  0  0  0  0  0  0
   62.6090   29.8270   50.0870 H   0  0  0  0  0  0  0  0  0  0  0  0
  1  2  1  0
  2  3  1  0
  3  4  1  0
  4  5  1  0
  5  6  1  0
  6  7  1  0
  7  8  2  0
  8  9  1  0
  9 10  2  0
 10 11  1  0
 11 12  2  0
 12 13  1  0
 13 14  2  0
 14 15  1  0
 14 16  1  0
 16 17  2  0
 17 18  1  0
 18 19  2  0
 19 20  1  0
 20 21  1  0
 21 22  1  0
 22 23  1  0
 23 24  1  0
 24 25  1  0
 25 26  1  0
 26 27  1  0
 27 28  1  0
 28 29  1  0
 29 30  1  0
 30 31  1  0
 31 32  1  0
 20 33  2  0
 33  7  1  0
 13  8  1  0
 33 16  1  0
  1 34  1  0
  1 35  1  0
  1 36  1  0
  2 37  1  0
  2 38  1  0
  3 39  1  0
  4 40  1  0
  4 41  1  0
  5 42  1  0
  5 43  1  0
  6 44  1  0
  9 45  1  0
 10 46  1  0
 11 47  1  0
 12 48  1  0
 15 49  1  0
 15 50  1  0
 15 51  1  0
 17 52  1  0
 18 53  1  0
 19 54  1  0
 21 55  1  0
 21 56  1  0
 22 57  1  0
 22 58  1  0
 23 59  1  0
 23 60  1  0
 24 61  1  0
 24 62  1  0
 26 63  1  0
 26 64  1  0
 27 65  1  0
 27 66  1  0
 28 67  1  0
 29 68  1  0
 29 69  1  0
 30 70  1  0
 30 71  1  0
 31 72  1  0
 31 73  1  0
 32 74  1  0
 32 75  1  0
M  CHG  2  14   1  21   1
M  END
>  <UniqueID>  (3) 
3

>  <SMILES>  (3) 
CCNCCNc1c2ccccc2[n+](C)c2cccc([NH2+]CCCOCCNCCCN)c12

>  <Energy>  (3) 
103.95209492655218

>  <Genealogy>  (3) 
CCNCCNc1c2ccccc2[n+](C)c2cccc([NH2+]CCCOCCNCCCN)c12 (protonated)
CCNCCNc1c2ccccc2[n+](C)c2cccc([NH2+]CCCOCCNCCCN)c12 (3D coordinates assigned)
CCNCCNc1c2ccccc2[n+](C)c2cccc([NH2+]CCCOCCNCCCN)c12 (optimized conformer: 103.95209492655218 kcal/mol)

>  <smiles>  (3) 
CCNCCNc1c2ccccc2[n+](C)c2cccc(NCCCOCCNCCCN)c12

>  <score_type>  (3) 
oracle

>  <origin>  (3) 
adg

>  <m_score__min__energy>  (3) 
-3.4199999999999999

>  <m_primary>  (3) 
energy

$$$$
3:0
     RDKit          3D

 29 30  0  0  0  0  0  0  0  0999 V2000
   55.9070   27.8480   44.5370 H   0  0  0  0  0  0  0  0  0  0  0  0
   55.6960   28.8110   44.7740 O   0  0  0  0  0  0  0  0  0  0  0  0
   56.6990   29.7210   45.1070 C   0  0  0  0  0  0  0  0  0  0  0  0
   57.7470   29.3460   45.9730 C   0  0  0  0  0  0  0  0  0  0  0  0
   57.8430   27.9700   46.5170 C   0  0  0  0  0  0  0  0  0  0  0  0
   57.3900   26.9790   45.7990 N   0  0  0  0  0  0  0  0  0  0  0  0
   56.3500   26.0560   46.1470 C   0  0  0  0  0  0  0  0  0  0  0  0
   55.1500   26.4030   45.9900 O   0  0  0  0  0  0  0  0  0  0  0  0
   56.6420   24.7310   46.7850 C   0  0  0  0  0  0  0  0  0  0  0  0
   56.6184   24.8379   47.8795 H   0  0  0  0  0  0  0  0  0  0  0  0
   55.8838   23.9982   46.4718 H   0  0  0  0  0  0  0  0  0  0  0  0
   57.6380   24.3848   46.4718 H   0  0  0  0  0  0  0  0  0  0  0  0
   58.4570   27.7480   47.7940 N   0  0  0  0  0  0  0  0  0  0  0  0
   58.8680   26.8240   48.0510 H   0  0  0  0  0  0  0  0  0  0  0  0
   58.5780   28.5360   48.4680 H   0  0  0  0  0  0  0  0  0  0  0  0
   58.7130   30.2990   46.3400 C   0  0  0  0  0  0  0  0  0  0  0  0
   59.5206   30.0169   47.0315 H   0  0  0  0  0  0  0  0  0  0  0  0
   58.6580   31.6050   45.8340 C   0  0  0  0  0  0  0  0  0  0  0  0
   59.6290   32.5540   46.1920 C   0  0  0  0  0  0  0  0  0  0  0  0
   60.4422   32.2748   46.8781 H   0  0  0  0  0  0  0  0  0  0  0  0
   59.5650   33.8520   45.6790 C   0  0  0  0  0  0  0  0  0  0  0  0
   60.3274   34.5919   45.9640 H   0  0  0  0  0  0  0  0  0  0  0  0
   58.5360   34.2140   44.8050 C   0  0  0  0  0  0  0  0  0  0  0  0
   58.4910   35.2372   44.4037 H   0  0  0  0  0  0  0  0  0  0  0  0
   57.5640   33.2780   44.4400 C   0  0  0  0  0  0  0  0  0  0  0  0
   56.7558   33.5661   43.7517 H   0  0  0  0  0  0  0  0  0  0  0  0
   57.6170   31.9710   44.9500 C   0  0  0  0  0  0  0  0  0  0  0  0
   56.6450   31.0260   44.5940 C   0  0  0  0  0  0  0  0  0  0  0  0
   55.8338   31.3095   43.9073 H   0  0  0  0  0  0  0  0  0  0  0  0
  1  2  1  0
  2  3  1  0
  3  4  2  0
  4  5  1  0
  5  6  2  0
  6  7  1  0
  7  8  2  0
  7  9  1  0
  9 10  1  0
  9 11  1  0
  9 12  1  0
  5 13  1  0
 13 14  1  0
 13 15  1  0
  4 16  1  0
 16 17  1  0
 16 18  2  0
 18 19  1  0
 19 20  1  0
 19 21  2  0
 21 22  1  0
 21 23  1  0
 23 24  1  0
 23 25  2  0
 25 26  1  0
 25 27  1  0
 27 28  2  0
 28 29  1  0
 28  3  1  0
 27 18  1  0
M  END
>  <UniqueID>  (4) 
4

>  <SMILES>  (4) 
CC(=O)/N=C(\N)c1cc2ccccc2cc1O

>  <Energy>  (4) 
41.684537606702065

>  <Genealogy>  (4) 
CC(=O)/N=C(\N)c1cc2ccccc2cc1O (cis-trans isomerization)
CC(=O)/N=C(\N)c1cc2ccccc2cc1O (3D coordinates assigned)
CC(=O)/N=C(\N)c1cc2ccccc2cc1O (optimized conformer: 41.684537606702065 kcal/mol)

>  <smiles>  (4) 
CC(=O)N=C(N)c1cc2ccccc2cc1O

>  <score_type>  (4) 
oracle

>  <origin>  (4) 
adg

>  <m_score__min__energy>  (4) 
-7.3099999999999996

>  <m_primary>  (4) 
energy

$$$$
4:0
     RDKit          3D

 51 53  0  0  0  0  0  0  0  0999 V2000
   57.8040   32.4610   51.7330 C   0  0  0  0  0  0  0  0  0  0  0  0
   56.8780   31.2560   51.6220 C   0  0  0  0  0  0  0  0  0  0  0  0
   57.6040   30.1010   51.0730 N   0  0  0  0  0  0  0  0  0  0  0  0
   58.8940   29.9070   51.7520 C   0  0  0  0  0  0  0  0  0  0  0  0
   59.9850   29.5230   50.7430 C   0  0  0  0  0  0  0  0  0  0  0  0
   60.0630   30.4690   49.5290 C   0  0  0  0  0  0  0  0  0  0  0  0
   58.7430   30.6830   48.9000 N   0  0  0  0  0  0  0  0  0  0  0  0
   58.8880   31.0900   47.5060 C   0  0  0  0  0  0  0  0  0  0  0  0
   59.2040   32.4350   47.1930 C   0  0  0  0  0  0  0  0  0  0  0  0
   59.8520   33.2690   48.1330 C   0  0  0  0  0  0  0  0  0  0  0  0
   60.0780   34.6150   47.8620 C   0  0  0  0  0  0  0  0  0  0  0  0
   59.6550   35.1610   46.6590 C   0  0  0  0  0  0  0  0  0  0  0  0
   59.0390   34.3560   45.7030 C   0  0  0  0  0  0  0  0  0  0  0  0
   58.8440   32.9670   45.9240 C   0  0  0  0  0  0  0  0  0  0  0  0
   58.2790   32.1510   44.9620 N   0  0  0  0  0  0  0  0  0  0  0  0
   58.0740   32.6660   43.5860 C   0  0  0  0  0  0  0  0  0  0  0  0
   57.9830   30.8330   45.2540 C   0  0  0  0  0  0  0  0  0  0  0  0
   57.2070   30.0330   44.3770 C   0  0  0  0  0  0  0  0  0  0  0  0
   57.0750   28.6650   44.5840 C   0  0  0  0  0  0  0  0  0  0  0  0
   57.7590   28.0520   45.6250 C   0  0  0  0  0  0  0  0  0  0  0  0
   58.4860   28.8180   46.5390 C   0  0  0  0  0  0  0  0  0  0  0  0
   59.6550   27.9200   47.5870 S   0  0  0  0  0  0  0  0  0  0  0  0
   60.3420   26.9540   46.2070 C   0  0  0  0  0  0  0  0  0  0  0  0
   58.4550   30.2410   46.4570 C   0  0  0  0  0  0  0  0  0  0  0  0
   57.9808   32.6911   52.7940 H   0  0  0  0  0  0  0  0  0  0  0  0
   58.7620   32.2336   51.2425 H   0  0  0  0  0  0  0  0  0  0  0  0
   57.3377   33.3282   51.2425 H   0  0  0  0  0  0  0  0  0  0  0  0
   56.4934   31.0012   52.6206 H   0  0  0  0  0  0  0  0  0  0  0  0
   56.0449   31.5068   50.9490 H   0  0  0  0  0  0  0  0  0  0  0  0
   57.0260   29.2460   51.2470 H   0  0  0  0  0  0  0  0  0  0  0  0
   59.1810   30.8416   52.2561 H   0  0  0  0  0  0  0  0  0  0  0  0
   58.7890   29.0945   52.4861 H   0  0  0  0  0  0  0  0  0  0  0  0
   60.9565   29.5381   51.2587 H   0  0  0  0  0  0  0  0  0  0  0  0
   59.7313   28.5243   50.3580 H   0  0  0  0  0  0  0  0  0  0  0  0
   60.4580   31.4402   49.8619 H   0  0  0  0  0  0  0  0  0  0  0  0
   60.7212   30.0032   48.7807 H   0  0  0  0  0  0  0  0  0  0  0  0
   58.2890   31.4220   49.4710 H   0  0  0  0  0  0  0  0  0  0  0  0
   58.1420   29.8320   48.9620 H   0  0  0  0  0  0  0  0  0  0  0  0
   60.1827   32.8472   49.0936 H   0  0  0  0  0  0  0  0  0  0  0  0
   60.5921   35.2461   48.6018 H   0  0  0  0  0  0  0  0  0  0  0  0
   59.8062   36.2321   46.4593 H   0  0  0  0  0  0  0  0  0  0  0  0
   58.6972   34.8052   44.7589 H   0  0  0  0  0  0  0  0  0  0  0  0
   57.6676   33.6871   43.6334 H   0  0  0  0  0  0  0  0  0  0  0  0
   59.0357   32.6786   43.0521 H   0  0  0  0  0  0  0  0  0  0  0  0
   57.3668   32.0142   43.0521 H   0  0  0  0  0  0  0  0  0  0  0  0
   56.7019   30.5023   43.5199 H   0  0  0  0  0  0  0  0  0  0  0  0
   56.4289   28.0683   43.9233 H   0  0  0  0  0  0  0  0  0  0  0  0
   57.7282   26.9575   45.7305 H   0  0  0  0  0  0  0  0  0  0  0  0
   60.9364   26.1182   46.6046 H   0  0  0  0  0  0  0  0  0  0  0  0
   59.5206   26.5593   45.5910 H   0  0  0  0  0  0  0  0  0  0  0  0
   60.9844   27.6004   45.5910 H   0  0  0  0  0  0  0  0  0  0  0  0
  1  2  1  0
  2  3  1  0
  3  4  1  0
  4  5  1  0
  5  6  1  0
  6  7  1  0
  7  8  1  0
  8  9  2  0
  9 10  1  0
 10 11  2  0
 11 12  1  0
 12 13  2  0
 13 14  1  0
 14 15  2  0
 15 16  1  0
 15 17  1  0
 17 18  2  0
 18 19  1  0
 19 20  2  0
 20 21  1  0
 21 22  1  0
 22 23  1  0
 21 24  2  0
 24  8  1  0
 14  9  1  0
 24 17  1  0
  1 25  1  0
  1 26  1  0
  1 27  1  0
  2 28  1  0
  2 29  1  0
  3 30  1  0
  4 31  1  0
  4 32  1  0
  5 33  1  0
  5 34  1  0
  6 35  1  0
  6 36  1  0
  7 37  1  0
  7 38  1  0
 10 39  1  0
 11 40  1  0
 12 41  1  0
 13 42  1  0
 16 43  1  0
 16 44  1  0
 16 45  1  0
 18 46  1  0
 19 47  1  0
 20 48  1  0
 23 49  1  0
 23 50  1  0
 23 51  1  0
M  CHG  2   7   1  15   1
M  END
>  <UniqueID>  (5) 
5

>  <SMILES>  (5) 
CCNCCC[NH2+]c1c2ccccc2[n+](C)c2cccc(SC)c12

>  <Energy>  (5) 
84.89711540330634

>  <Genealogy>  (5) 
CCNCCC[NH2+]c1c2ccccc2[n+](C)c2cccc(SC)c12 (protonated)
CCNCCC[NH2+]c1c2ccccc2[n+](C)c2cccc(SC)c12 (3D coordinates assigned)
CCNCCC[NH2+]c1c2ccccc2[n+](C)c2cccc(SC)c12 (optimized conformer: 84.89711540330634 kcal/mol)

>  <smiles>  (5) 
CCNCCCNc1c2ccccc2[n+](C)c2cccc(SC)c12

>  <score_type>  (5) 
oracle

>  <origin>  (5) 
adg

>  <m_score__min__energy>  (5) 
-4.25

>  <m_primary>  (5) 
energy

$$$$
5:0
     RDKit          3D

 65 67  0  0  0  0  0  0  0  0999 V2000
   57.7810   31.9780   41.9070 C   0  0  0  0  0  0  0  0  0  0  0  0
   57.0170   31.3610   43.0780 C   0  0  0  0  0  0  0  0  0  0  0  0
   57.9400   31.0400   44.2000 N   0  0  0  0  0  0  0  0  0  0  0  0
   58.4340   32.0630   45.0020 C   0  0  0  0  0  0  0  0  0  0  0  0
   59.1920   31.7540   46.1610 C   0  0  0  0  0  0  0  0  0  0  0  0
   59.5630   30.4270   46.4100 C   0  0  0  0  0  0  0  0  0  0  0  0
   60.3960   30.1210   47.5380 N   0  0  0  0  0  0  0  0  0  0  0  0
   59.8350   29.4800   48.7260 C   0  0  0  0  0  0  0  0  0  0  0  0
   59.3980   30.5220   49.7600 C   0  0  0  0  0  0  0  0  0  0  0  0
   60.2980   30.5520   50.8530 O   0  0  0  0  0  0  0  0  0  0  0  0
   61.4570   29.7800   50.5930 C   0  0  0  0  0  0  0  0  0  0  0  0
   62.6180   30.6850   50.1900 C   0  0  0  0  0  0  0  0  0  0  0  0
   62.2120   31.5080   49.1150 O   0  0  0  0  0  0  0  0  0  0  0  0
   62.8630   32.7640   49.1620 C   0  0  0  0  0  0  0  0  0  0  0  0
   62.0680   33.8240   49.9630 C   0  0  0  0  0  0  0  0  0  0  0  0
   60.9520   33.3020   50.7940 N   0  0  0  0  0  0  0  0  0  0  0  0
   59.6430   33.8570   50.4090 C   0  0  0  0  0  0  0  0  0  0  0  0
   61.1850   33.4590   52.2420 C   0  0  0  0  0  0  0  0  0  0  0  0
   59.0860   29.3990   45.5890 C   0  0  0  0  0  0  0  0  0  0  0  0
   59.4120   28.0540   45.8690 C   0  0  0  0  0  0  0  0  0  0  0  0
   58.9090   27.0220   45.0830 C   0  0  0  0  0  0  0  0  0  0  0  0
   58.0680   27.3100   44.0170 C   0  0  0  0  0  0  0  0  0  0  0  0
   57.7320   28.6310   43.7220 C   0  0  0  0  0  0  0  0  0  0  0  0
   58.2440   29.7150   44.4890 C   0  0  0  0  0  0  0  0  0  0  0  0
   59.6680   32.8320   47.1160 C   0  0  0  0  0  0  0  0  0  0  0  0
   58.8340   34.1020   47.0200 C   0  0  0  0  0  0  0  0  0  0  0  0
   58.8100   34.5650   45.5760 C   0  0  0  0  0  0  0  0  0  0  0  0
   58.1170   33.5280   44.6830 C   0  0  0  0  0  0  0  0  0  0  0  0
   58.5825   32.6253   42.2925 H   0  0  0  0  0  0  0  0  0  0  0  0
   58.2195   31.1777   41.2928 H   0  0  0  0  0  0  0  0  0  0  0  0
   57.0909   32.5751   41.2928 H   0  0  0  0  0  0  0  0  0  0  0  0
   56.2570   32.0746   43.4290 H   0  0  0  0  0  0  0  0  0  0  0  0
   56.5396   30.4306   42.7367 H   0  0  0  0  0  0  0  0  0  0  0  0
   61.4130   30.3610   47.4830 H   0  0  0  0  0  0  0  0  0  0  0  0
   58.9626   28.8782   48.4315 H   0  0  0  0  0  0  0  0  0  0  0  0
   60.6094   28.8427   49.1778 H   0  0  0  0  0  0  0  0  0  0  0  0
   59.3740   31.5138   49.2849 H   0  0  0  0  0  0  0  0  0  0  0  0
   58.3987   30.2524   50.1326 H   0  0  0  0  0  0  0  0  0  0  0  0
   61.7310   29.2205   51.4996 H   0  0  0  0  0  0  0  0  0  0  0  0
   61.2446   29.0828   49.7691 H   0  0  0  0  0  0  0  0  0  0  0  0
   62.9094   31.3129   51.0449 H   0  0  0  0  0  0  0  0  0  0  0  0
   63.4769   30.0706   49.8822 H   0  0  0  0  0  0  0  0  0  0  0  0
   63.8473   32.6319   49.6350 H   0  0  0  0  0  0  0  0  0  0  0  0
   62.9519   33.1291   48.1282 H   0  0  0  0  0  0  0  0  0  0  0  0
   62.7727   34.3415   50.6305 H   0  0  0  0  0  0  0  0  0  0  0  0
   61.6013   34.4785   49.2122 H   0  0  0  0  0  0  0  0  0  0  0  0
   60.9110   32.2700   50.6080 H   0  0  0  0  0  0  0  0  0  0  0  0
   59.0676   34.1010   51.3142 H   0  0  0  0  0  0  0  0  0  0  0  0
   59.7925   34.7691   49.8126 H   0  0  0  0  0  0  0  0  0  0  0  0
   59.0913   33.1154   49.8126 H   0  0  0  0  0  0  0  0  0  0  0  0
   60.3986   32.9291   52.7995 H   0  0  0  0  0  0  0  0  0  0  0  0
   62.1670   33.0377   52.5032 H   0  0  0  0  0  0  0  0  0  0  0  0
   61.1632   34.5273   52.5032 H   0  0  0  0  0  0  0  0  0  0  0  0
   60.0710   27.8195   46.7180 H   0  0  0  0  0  0  0  0  0  0  0  0
   59.1776   25.9789   45.3062 H   0  0  0  0  0  0  0  0  0  0  0  0
   57.6645   26.4922   43.4018 H   0  0  0  0  0  0  0  0  0  0  0  0
   57.0571   28.8395   42.8788 H   0  0  0  0  0  0  0  0  0  0  0  0
   59.6061   32.4456   48.1440 H   0  0  0  0  0  0  0  0  0  0  0  0
   60.7023   33.0886   46.8434 H   0  0  0  0  0  0  0  0  0  0  0  0
   57.8079   33.8966   47.3592 H   0  0  0  0  0  0  0  0  0  0  0  0
   59.2727   34.8853   47.6556 H   0  0  0  0  0  0  0  0  0  0  0  0
   58.2646   35.5181   45.5119 H   0  0  0  0  0  0  0  0  0  0  0  0
   59.8461   34.6927   45.2294 H   0  0  0  0  0  0  0  0  0  0  0  0
   57.0305   33.6685   44.7815 H   0  0  0  0  0  0  0  0  0  0  0  0
   58.4975   33.7040   43.6660 H   0  0  0  0  0  0  0  0  0  0  0  0
  1  2  1  0
  2  3  1  0
  3  4  2  0
  4  5  1  0
  5  6  2  0
  6  7  1  0
  7  8  1  0
  8  9  1  0
  9 10  1  0
 10 11  1  0
 11 12  1  0
 12 13  1  0
 13 14  1  0
 14 15  1  0
 15 16  1  0
 16 17  1  0
 16 18  1  0
  6 19  1  0
 19 20  2  0
 20 21  1  0
 21 22  2  0
 22 23  1  0
 23 24  2  0
  5 25  1  0
 25 26  1  0
 26 27  1  0
 27 28  1  0
 24  3  1  0
 28  4  1  0
 24 19  1  0
  1 29  1  0
  1 30  1  0
  1 31  1  0
  2 32  1  0
  2 33  1  0
  7 34  1  0
  8 35  1  0
  8 36  1  0
  9 37  1  0
  9 38  1  0
 11 39  1  0
 11 40  1  0
 12 41  1  0
 12 42  1  0
 14 43  1  0
 14 44  1  0
 15 45  1  0
 15 46  1  0
 16 47  1  0
 17 48  1  0
 17 49  1  0
 17 50  1  0
 18 51  1  0
 18 52  1  0
 18 53  1  0
 20 54  1  0
 21 55  1  0
 22 56  1  0
 23 57  1  0
 25 58  1  0
 25 59  1  0
 26 60  1  0
 26 61  1  0
 27 62  1  0
 27 63  1  0
 28 64  1  0
 28 65  1  0
M  CHG  2   3   1  16   1
M  END
>  <UniqueID>  (6) 
6

>  <SMILES>  (6) 
CC[n+]1c2c(c(NCCOCCOCC[NH+](C)C)c3ccccc31)CCCC2

>  <Energy>  (6) 
89.48231879394707

>  <Genealogy>  (6) 
CC[n+]1c2c(c(NCCOCCOCC[NH+](C)C)c3ccccc31)CCCC2 (protonated)
CC[n+]1c2c(c(NCCOCCOCC[NH+](C)C)c3ccccc31)CCCC2 (3D coordinates assigned)
CC[n+]1c2c(c(NCCOCCOCC[NH+](C)C)c3ccccc31)CCCC2 (nonaromatic ring conformer: 89.48231879394707 kcal/mol)

>  <smiles>  (6) 
CC[n+]1c2c(c(NCCOCCOCCN(C)C)c3ccccc31)CCCC2

>  <score_type>  (6) 
oracle

>  <origin>  (6) 
adg

>  <m_score__min__energy>  (6) 
-3.5600000000000001

>  <m_primary>  (6) 
energy

$$$$
6:0
     RDKit          3D

 31 34  0  0  0  0  0  0  0  0999 V2000
   59.3330   27.8270   47.6220 C   0  0  0  0  0  0  0  0  0  0  0  0
   58.8360   27.5750   46.2660 N   0  0  0  0  0  0  0  0  0  0  0  0
   58.5460   26.3450   45.7640 C   0  0  0  0  0  0  0  0  0  0  0  0
   58.8160   25.0830   46.3080 C   0  0  0  0  0  0  0  0  0  0  0  0
   58.3710   23.9510   45.6010 C   0  0  0  0  0  0  0  0  0  0  0  0
   57.6680   24.0930   44.3840 C   0  0  0  0  0  0  0  0  0  0  0  0
   57.4050   25.3690   43.8580 C   0  0  0  0  0  0  0  0  0  0  0  0
   57.8690   26.4690   44.5760 C   0  0  0  0  0  0  0  0  0  0  0  0
   57.7730   27.8230   44.3730 C   0  0  0  0  0  0  0  0  0  0  0  0
   57.1140   28.4640   43.3780 N   0  0  0  0  0  0  0  0  0  0  0  0
   57.0710   29.8240   43.3710 C   0  0  0  0  0  0  0  0  0  0  0  0
   56.4310   30.4150   42.4590 O   0  0  0  0  0  0  0  0  0  0  0  0
   57.7520   30.5620   44.3670 C   0  0  0  0  0  0  0  0  0  0  0  0
   57.7600   31.9690   44.3500 C   0  0  0  0  0  0  0  0  0  0  0  0
   58.5040   32.6810   45.2890 C   0  0  0  0  0  0  0  0  0  0  0  0
   58.5180   34.5910   45.2490 Br  0  0  0  0  0  0  0  0  0  0  0  0
   59.2710   32.0000   46.2330 C   0  0  0  0  0  0  0  0  0  0  0  0
   59.2700   30.6040   46.2720 C   0  0  0  0  0  0  0  0  0  0  0  0
   58.4670   29.8580   45.3810 C   0  0  0  0  0  0  0  0  0  0  0  0
   58.3930   28.4820   45.3800 N   0  0  0  0  0  0  0  0  0  0  0  0
   58.6017   27.4562   48.3553 H   0  0  0  0  0  0  0  0  0  0  0  0
   60.2913   27.3059   47.7641 H   0  0  0  0  0  0  0  0  0  0  0  0
   59.4789   28.9080   47.7641 H   0  0  0  0  0  0  0  0  0  0  0  0
   59.3593   24.9800   47.2589 H   0  0  0  0  0  0  0  0  0  0  0  0
   58.5724   22.9458   45.9997 H   0  0  0  0  0  0  0  0  0  0  0  0
   57.3241   23.1983   43.8443 H   0  0  0  0  0  0  0  0  0  0  0  0
   56.8534   25.4947   42.9146 H   0  0  0  0  0  0  0  0  0  0  0  0
   56.6220   27.9200   42.6340 H   0  0  0  0  0  0  0  0  0  0  0  0
   57.1756   32.5100   43.5912 H   0  0  0  0  0  0  0  0  0  0  0  0
   59.8812   32.5661   46.9521 H   0  0  0  0  0  0  0  0  0  0  0  0
   59.9014   30.0797   47.0045 H   0  0  0  0  0  0  0  0  0  0  0  0
  1  2  1  0
  2  3  1  0
  3  4  2  0
  4  5  1  0
  5  6  2  0
  6  7  1  0
  7  8  2  0
  8  9  1  0
  9 10  2  0
 10 11  1  0
 11 12  2  0
 11 13  1  0
 13 14  2  0
 14 15  1  0
 15 16  1  0
 15 17  2  0
 17 18  1  0
 18 19  2  0
 19 20  1  0
 20  2  1  0
  8  3  1  0
 20  9  1  0
 19 13  1  0
  1 21  1  0
  1 22  1  0
  1 23  1  0
  4 24  1  0
  5 25  1  0
  6 26  1  0
  7 27  1  0
 10 28  1  0
 14 29  1  0
 17 30  1  0
 18 31  1  0
M  CHG  1  10   1
M  END
>  <UniqueID>  (7) 
7

>  <SMILES>  (7) 
Cn1c2ccccc2c2[nH+]c(=O)c3cc(Br)ccc3n21

>  <Energy>  (7) 
97.45671933201588

>  <Genealogy>  (7) 
Cn1c2ccccc2c2[nH+]c(=O)c3cc(Br)ccc3n21 (protonated)
Cn1c2ccccc2c2[nH+]c(=O)c3cc(Br)ccc3n21 (3D coordinates assigned)
Cn1c2ccccc2c2[nH+]c(=O)c3cc(Br)ccc3n21 (optimized conformer: 97.45671933201588 kcal/mol)

>  <smiles>  (7) 
Cn1c2ccccc2c2nc(=O)c3cc(Br)ccc3n21

>  <score_type>  (7) 
oracle

>  <origin>  (7) 
adg

>  <m_score__min__energy>  (7) 
-6.1699999999999999

>  <m_primary>  (7) 
energy

$$$$
7:0
     RDKit          3D

 56 60  0  0  0  0  0  0  0  0999 V2000
   60.6900   28.7990   49.1640 C   0  0  0  0  0  0  0  0  0  0  0  0
   60.9130   29.9350   48.2710 N   0  0  0  0  0  0  0  0  0  0  0  0
   60.4880   30.1140   46.9890 C   0  0  0  0  0  0  0  0  0  0  0  0
   59.5600   29.2470   46.3180 N   0  0  0  0  0  0  0  0  0  0  0  0
   58.3050   28.9080   46.9900 C   0  0  0  0  0  0  0  0  0  0  0  0
   57.4440   27.9800   46.1250 C   0  0  0  0  0  0  0  0  0  0  0  0
   57.5050   28.3170   44.6820 N   0  0  0  0  0  0  0  0  0  0  0  0
   56.6640   29.4950   44.3110 C   0  0  0  0  0  0  0  0  0  0  0  0
   57.4070   30.8330   44.1070 C   0  0  0  0  0  0  0  0  0  0  0  0
   57.2760   31.6420   45.2760 O   0  0  0  0  0  0  0  0  0  0  0  0
   58.0650   32.7680   45.5610 C   0  0  0  0  0  0  0  0  0  0  0  0
   58.4110   33.6920   44.5570 C   0  0  0  0  0  0  0  0  0  0  0  0
   59.1990   34.8040   44.8550 C   0  0  0  0  0  0  0  0  0  0  0  0
   59.6500   35.0200   46.1570 C   0  0  0  0  0  0  0  0  0  0  0  0
   59.3040   34.1250   47.1790 C   0  0  0  0  0  0  0  0  0  0  0  0
   59.7550   34.3390   48.4910 C   0  0  0  0  0  0  0  0  0  0  0  0
   59.4130   33.4430   49.5070 C   0  0  0  0  0  0  0  0  0  0  0  0
   58.6200   32.3290   49.2230 C   0  0  0  0  0  0  0  0  0  0  0  0
   58.1650   32.1020   47.9230 C   0  0  0  0  0  0  0  0  0  0  0  0
   58.4990   32.9940   46.8850 C   0  0  0  0  0  0  0  0  0  0  0  0
   58.8890   28.3170   44.1230 C   0  0  0  0  0  0  0  0  0  0  0  0
   60.0010   28.4300   45.1860 C   0  0  0  0  0  0  0  0  0  0  0  0
   61.0440   31.1910   46.3750 N   0  0  0  0  0  0  0  0  0  0  0  0
   61.8450   31.6990   47.3290 C   0  0  0  0  0  0  0  0  0  0  0  0
   62.6760   32.8130   47.2340 C   0  0  0  0  0  0  0  0  0  0  0  0
   63.4560   33.1460   48.3570 C   0  0  0  0  0  0  0  0  0  0  0  0
   63.3920   32.3600   49.5300 C   0  0  0  0  0  0  0  0  0  0  0  0
   62.5480   31.2370   49.5930 C   0  0  0  0  0  0  0  0  0  0  0  0
   61.7770   30.9440   48.4650 C   0  0  0  0  0  0  0  0  0  0  0  0
   60.7561   29.1357   50.2091 H   0  0  0  0  0  0  0  0  0  0  0  0
   59.6917   28.3763   48.9774 H   0  0  0  0  0  0  0  0  0  0  0  0
   61.4544   28.0303   48.9774 H   0  0  0  0  0  0  0  0  0  0  0  0
   58.5323   28.4033   47.9406 H   0  0  0  0  0  0  0  0  0  0  0  0
   57.7438   29.8373   47.1677 H   0  0  0  0  0  0  0  0  0  0  0  0
   57.7968   26.9469   46.2596 H   0  0  0  0  0  0  0  0  0  0  0  0
   56.3997   28.1007   46.4489 H   0  0  0  0  0  0  0  0  0  0  0  0
   57.0200   27.5100   44.2180 H   0  0  0  0  0  0  0  0  0  0  0  0
   56.1459   29.2534   43.3712 H   0  0  0  0  0  0  0  0  0  0  0  0
   55.9971   29.6596   45.1701 H   0  0  0  0  0  0  0  0  0  0  0  0
   58.4722   30.6341   43.9181 H   0  0  0  0  0  0  0  0  0  0  0  0
   56.9709   31.3633   43.2476 H   0  0  0  0  0  0  0  0  0  0  0  0
   58.0566   33.5357   43.5274 H   0  0  0  0  0  0  0  0  0  0  0  0
   59.4661   35.5143   44.0587 H   0  0  0  0  0  0  0  0  0  0  0  0
   60.2784   35.8943   46.3824 H   0  0  0  0  0  0  0  0  0  0  0  0
   60.3797   35.2150   48.7199 H   0  0  0  0  0  0  0  0  0  0  0  0
   59.7693   33.6154   50.5333 H   0  0  0  0  0  0  0  0  0  0  0  0
   58.3528   31.6275   50.0271 H   0  0  0  0  0  0  0  0  0  0  0  0
   57.5419   31.2214   47.7078 H   0  0  0  0  0  0  0  0  0  0  0  0
   59.0367   27.3789   43.5679 H   0  0  0  0  0  0  0  0  0  0  0  0
   58.9714   29.2084   43.4838 H   0  0  0  0  0  0  0  0  0  0  0  0
   60.2580   27.4232   45.5469 H   0  0  0  0  0  0  0  0  0  0  0  0
   60.8785   28.9091   44.7273 H   0  0  0  0  0  0  0  0  0  0  0  0
   62.7210   33.4120   46.3125 H   0  0  0  0  0  0  0  0  0  0  0  0
   64.1192   34.0229   48.3217 H   0  0  0  0  0  0  0  0  0  0  0  0
   64.0076   32.6290   50.4010 H   0  0  0  0  0  0  0  0  0  0  0  0
   62.4966   30.6122   50.4969 H   0  0  0  0  0  0  0  0  0  0  0  0
  1  2  1  0
  2  3  1  0
  3  4  1  0
  4  5  1  0
  5  6  1  0
  6  7  1  0
  7  8  1  0
  8  9  1  0
  9 10  1  0
 10 11  1  0
 11 12  2  0
 12 13  1  0
 13 14  2  0
 14 15  1  0
 15 16  2  0
 16 17  1  0
 17 18  2  0
 18 19  1  0
 19 20  2  0
  7 21  1  0
 21 22  1  0
  3 23  2  0
 23 24  1  0
 24 25  2  0
 25 26  1  0
 26 27  2  0
 27 28  1  0
 28 29  2  0
 29  2  1  0
 22  4  1  0
 29 24  1  0
 20 11  1  0
 20 15  1  0
  1 30  1  0
  1 31  1  0
  1 32  1  0
  5 33  1  0
  5 34  1  0
  6 35  1  0
  6 36  1  0
  7 37  1  0
  8 38  1  0
  8 39  1  0
  9 40  1  0
  9 41  1  0
 12 42  1  0
 13 43  1  0
 14 44  1  0
 16 45  1  0
 17 46  1  0
 18 47  1  0
 19 48  1  0
 21 49  1  0
 21 50  1  0
 22 51  1  0
 22 52  1  0
 25 53  1  0
 26 54  1  0
 27 55  1  0
 28 56  1  0
M  CHG  1   7   1
M  END
>  <UniqueID>  (8) 
8

>  <SMILES>  (8) 
Cn1c(N2CC[NH+](CCOc3cccc4ccccc34)CC2)nc2ccccc21

>  <Energy>  (8) 
123.20592632559614

>  <Genealogy>  (8) 
Cn1c(N2CC[NH+](CCOc3cccc4ccccc34)CC2)nc2ccccc21 (protonated)
Cn1c(N2CC[NH+](CCOc3cccc4ccccc34)CC2)nc2ccccc21 (3D coordinates assigned)
Cn1c(N2CC[NH+](CCOc3cccc4ccccc34)CC2)nc2ccccc21 (nonaromatic ring conformer: 123.20592632559614 kcal/mol)

>  <smiles>  (8) 
Cn1c(N2CCN(CCOc3cccc4ccccc34)CC2)nc2ccccc21

>  <score_type>  (8) 
oracle

>  <origin>  (8) 
adg

>  <m_score__min__energy>  (8) 
-7.0199999999999996

>  <m_primary>  (8) 
energy

$$$$
8:0
     RDKit          3D

 75 77  0  0  0  0  0  0  0  0999 V2000
   62.4650   31.0490   47.1180 C   0  0  0  0  0  0  0  0  0  0  0  0
   63.1230   31.8910   48.2120 C   0  0  0  0  0  0  0  0  0  0  0  0
   62.4170   33.1780   48.4200 N   0  0  0  0  0  0  0  0  0  0  0  0
   62.1180   33.8560   47.1390 C   0  0  0  0  0  0  0  0  0  0  0  0
   63.3900   34.0060   46.3110 C   0  0  0  0  0  0  0  0  0  0  0  0
   63.0470   34.0780   49.4200 C   0  0  0  0  0  0  0  0  0  0  0  0
   64.1670   33.4400   50.2610 C   0  0  0  0  0  0  0  0  0  0  0  0
   63.6550   32.9610   51.4890 O   0  0  0  0  0  0  0  0  0  0  0  0
   64.1310   31.6550   51.7500 C   0  0  0  0  0  0  0  0  0  0  0  0
   63.1020   30.6180   51.2840 C   0  0  0  0  0  0  0  0  0  0  0  0
   61.6950   30.8710   51.8560 C   0  0  0  0  0  0  0  0  0  0  0  0
   61.1950   32.2380   51.6230 N   0  0  0  0  0  0  0  0  0  0  0  0
   59.7310   32.4010   51.6950 C   0  0  0  0  0  0  0  0  0  0  0  0
   59.0440   32.5810   50.3220 C   0  0  0  0  0  0  0  0  0  0  0  0
   59.9970   32.5600   49.1910 N   0  0  0  0  0  0  0  0  0  0  0  0
   59.4200   31.9160   48.0220 C   0  0  0  0  0  0  0  0  0  0  0  0
   58.8720   32.6920   46.9750 C   0  0  0  0  0  0  0  0  0  0  0  0
   58.4890   32.0740   45.7660 C   0  0  0  0  0  0  0  0  0  0  0  0
   58.6460   30.7130   45.5890 N   0  0  0  0  0  0  0  0  0  0  0  0
   58.4780   30.1210   44.2410 C   0  0  0  0  0  0  0  0  0  0  0  0
   57.0040   30.0540   43.8390 C   0  0  0  0  0  0  0  0  0  0  0  0
   58.9740   29.9130   46.6710 C   0  0  0  0  0  0  0  0  0  0  0  0
   58.9130   28.4950   46.5970 C   0  0  0  0  0  0  0  0  0  0  0  0
   59.2500   27.6970   47.6860 C   0  0  0  0  0  0  0  0  0  0  0  0
   59.6360   28.2780   48.8830 C   0  0  0  0  0  0  0  0  0  0  0  0
   59.6890   29.6620   49.0020 C   0  0  0  0  0  0  0  0  0  0  0  0
   59.3710   30.5040   47.9070 C   0  0  0  0  0  0  0  0  0  0  0  0
   57.8440   32.9860   44.7240 C   0  0  0  0  0  0  0  0  0  0  0  0
   58.6750   34.2650   44.5260 C   0  0  0  0  0  0  0  0  0  0  0  0
   59.1280   34.9200   45.8520 C   0  0  0  0  0  0  0  0  0  0  0  0
   58.6150   34.1880   47.0980 C   0  0  0  0  0  0  0  0  0  0  0  0
   61.8504   30.2626   47.5804 H   0  0  0  0  0  0  0  0  0  0  0  0
   61.8280   31.6924   46.4934 H   0  0  0  0  0  0  0  0  0  0  0  0
   63.2433   30.5864   46.4934 H   0  0  0  0  0  0  0  0  0  0  0  0
   63.1108   31.3226   49.1537 H   0  0  0  0  0  0  0  0  0  0  0  0
   64.1528   32.1146   47.8966 H   0  0  0  0  0  0  0  0  0  0  0  0
   61.3858   33.2596   46.5749 H   0  0  0  0  0  0  0  0  0  0  0  0
   61.7078   34.8547   47.3495 H   0  0  0  0  0  0  0  0  0  0  0  0
   64.2550   34.1080   46.9829 H   0  0  0  0  0  0  0  0  0  0  0  0
   63.5214   33.1171   45.6765 H   0  0  0  0  0  0  0  0  0  0  0  0
   63.3110   34.9011   45.6765 H   0  0  0  0  0  0  0  0  0  0  0  0
   63.4726   34.9386   48.8831 H   0  0  0  0  0  0  0  0  0  0  0  0
   62.2514   34.3522   50.1284 H   0  0  0  0  0  0  0  0  0  0  0  0
   64.6069   32.6016   49.7010 H   0  0  0  0  0  0  0  0  0  0  0  0
   64.9328   34.2019   50.4687 H   0  0  0  0  0  0  0  0  0  0  0  0
   65.0766   31.4975   51.2106 H   0  0  0  0  0  0  0  0  0  0  0  0
   64.2945   31.5401   52.8317 H   0  0  0  0  0  0  0  0  0  0  0  0
   63.0452   30.6488   50.1859 H   0  0  0  0  0  0  0  0  0  0  0  0
   63.4350   29.6353   51.6493 H   0  0  0  0  0  0  0  0  0  0  0  0
   60.9972   30.1618   51.3868 H   0  0  0  0  0  0  0  0  0  0  0  0
   61.7631   30.7362   52.9456 H   0  0  0  0  0  0  0  0  0  0  0  0
   61.6520   32.8820   52.3090 H   0  0  0  0  0  0  0  0  0  0  0  0
   59.3080   31.5076   52.1777 H   0  0  0  0  0  0  0  0  0  0  0  0
   59.5438   33.3231   52.2648 H   0  0  0  0  0  0  0  0  0  0  0  0
   58.3182   31.7661   50.1838 H   0  0  0  0  0  0  0  0  0  0  0  0
   58.5583   33.5679   50.3243 H   0  0  0  0  0  0  0  0  0  0  0  0
   60.3290   33.5170   48.9390 H   0  0  0  0  0  0  0  0  0  0  0  0
   60.8740   32.0730   49.4720 H   0  0  0  0  0  0  0  0  0  0  0  0
   59.0205   30.7378   43.5094 H   0  0  0  0  0  0  0  0  0  0  0  0
   58.8775   29.0963   44.2614 H   0  0  0  0  0  0  0  0  0  0  0  0
   56.3783   30.0256   44.7432 H   0  0  0  0  0  0  0  0  0  0  0  0
   56.7460   30.9413   43.2423 H   0  0  0  0  0  0  0  0  0  0  0  0
   56.8275   29.1469   43.2423 H   0  0  0  0  0  0  0  0  0  0  0  0
   58.5926   28.0182   45.6589 H   0  0  0  0  0  0  0  0  0  0  0  0
   59.2098   26.6014   47.5962 H   0  0  0  0  0  0  0  0  0  0  0  0
   59.9011   27.6428   49.7410 H   0  0  0  0  0  0  0  0  0  0  0  0
   59.9827   30.1113   49.9621 H   0  0  0  0  0  0  0  0  0  0  0  0
   57.7766   32.4483   43.7668 H   0  0  0  0  0  0  0  0  0  0  0  0
   56.8412   33.2690   45.0765 H   0  0  0  0  0  0  0  0  0  0  0  0
   59.5705   34.0108   43.9399 H   0  0  0  0  0  0  0  0  0  0  0  0
   58.0304   34.9922   44.0105 H   0  0  0  0  0  0  0  0  0  0  0  0
   60.2276   34.9273   45.8797 H   0  0  0  0  0  0  0  0  0  0  0  0
   58.7053   35.9353   45.8742 H   0  0  0  0  0  0  0  0  0  0  0  0
   59.1366   34.5740   47.9862 H   0  0  0  0  0  0  0  0  0  0  0  0
   57.5325   34.3586   47.1931 H   0  0  0  0  0  0  0  0  0  0  0  0
  1  2  1  0
  2  3  1  0
  3  4  1  0
  4  5  1  0
  3  6  1  0
  6  7  1  0
  7  8  1  0
  8  9  1  0
  9 10  1  0
 10 11  1  0
 11 12  1  0
 12 13  1  0
 13 14  1  0
 14 15  1  0
 15 16  1  0
 16 17  2  0
 17 18  1  0
 18 19  2  0
 19 20  1  0
 20 21  1  0
 19 22  1  0
 22 23  2  0
 23 24  1  0
 24 25  2  0
 25 26  1  0
 26 27  2  0
 18 28  1  0
 28 29  1  0
 29 30  1  0
 30 31  1  0
 27 16  1  0
 31 17  1  0
 27 22  1  0
  1 32  1  0
  1 33  1  0
  1 34  1  0
  2 35  1  0
  2 36  1  0
  4 37  1  0
  4 38  1  0
  5 39  1  0
  5 40  1  0
  5 41  1  0
  6 42  1  0
  6 43  1  0
  7 44  1  0
  7 45  1  0
  9 46  1  0
  9 47  1  0
 10 48  1  0
 10 49  1  0
 11 50  1  0
 11 51  1  0
 12 52  1  0
 13 53  1  0
 13 54  1  0
 14 55  1  0
 14 56  1  0
 15 57  1  0
 15 58  1  0
 20 59  1  0
 20 60  1  0
 21 61  1  0
 21 62  1  0
 21 63  1  0
 23 64  1  0
 24 65  1  0
 25 66  1  0
 26 67  1  0
 28 68  1  0
 28 69  1  0
 29 70  1  0
 29 71  1  0
 30 72  1  0
 30 73  1  0
 31 74  1  0
 31 75  1  0
M  CHG  2  15   1  19   1
M  END
>  <UniqueID>  (9) 
9

>  <SMILES>  (9) 
CCN(CC)CCOCCCNCC[NH2+]c1c2c([n+](CC)c3ccccc13)CCCC2

>  <Energy>  (9) 
103.25732998161884

>  <Genealogy>  (9) 
CCN(CC)CCOCCCNCC[NH2+]c1c2c([n+](CC)c3ccccc13)CCCC2 (protonated)
CCN(CC)CCOCCCNCC[NH2+]c1c2c([n+](CC)c3ccccc13)CCCC2 (3D coordinates assigned)
CCN(CC)CCOCCCNCC[NH2+]c1c2c([n+](CC)c3ccccc13)CCCC2 (nonaromatic ring conformer: 103.25732998161884 kcal/mol)

>  <smiles>  (9) 
CCN(CC)CCOCCCNCCNc1c2c([n+](CC)c3ccccc13)CCCC2

>  <score_type>  (9) 
oracle

>  <origin>  (9) 
adg

>  <m_score__min__energy>  (9) 
-4.5

>  <m_primary>  (9) 
energy

$$$$
9:0
     RDKit          3D

 39 40  0  0  0  0  0  0  0  0999 V2000
   59.2000   34.6090   45.2920 C   0  0  0  0  0  0  0  0  0  0  0  0
   58.7800   34.5290   46.5570 C   0  0  0  0  0  0  0  0  0  0  0  0
   57.8280   33.4560   47.0100 C   0  0  0  0  0  0  0  0  0  0  0  0
   58.2470   32.1340   46.4950 N   0  0  0  0  0  0  0  0  0  0  0  0
   59.2660   31.4110   47.0900 C   0  0  0  0  0  0  0  0  0  0  0  0
   60.2310   32.0470   48.4740 S   0  0  0  0  0  0  0  0  0  0  0  0
   61.8360   31.9690   47.6020 C   0  0  0  0  0  0  0  0  0  0  0  0
   62.0790   33.2330   46.7680 C   0  0  0  0  0  0  0  0  0  0  0  0
   63.4620   33.8500   47.0240 C   0  0  0  0  0  0  0  0  0  0  0  0
   64.1360   33.2850   48.2750 C   0  0  0  0  0  0  0  0  0  0  0  0
   59.5780   30.1640   46.6370 N   0  0  0  0  0  0  0  0  0  0  0  0
   58.9140   29.6310   45.5870 C   0  0  0  0  0  0  0  0  0  0  0  0
   57.9100   30.3250   44.9630 C   0  0  0  0  0  0  0  0  0  0  0  0
   57.5670   31.5910   45.4280 C   0  0  0  0  0  0  0  0  0  0  0  0
   56.6290   32.2220   44.8660 O   0  0  0  0  0  0  0  0  0  0  0  0
   57.1340   29.4450   43.6050 S   0  0  0  0  0  0  0  0  0  0  0  0
   58.2260   28.0690   44.0100 C   0  0  0  0  0  0  0  0  0  0  0  0
   58.1150   26.8880   43.4030 C   0  0  0  0  0  0  0  0  0  0  0  0
   59.1640   28.3360   45.0600 N   0  0  0  0  0  0  0  0  0  0  0  0
   60.0860   27.3660   45.6510 C   0  0  0  0  0  0  0  0  0  0  0  0
   59.8966   35.4062   44.9931 H   0  0  0  0  0  0  0  0  0  0  0  0
   58.8494   33.8778   44.5488 H   0  0  0  0  0  0  0  0  0  0  0  0
   59.1400   35.2680   47.2879 H   0  0  0  0  0  0  0  0  0  0  0  0
   57.8132   33.4271   48.1095 H   0  0  0  0  0  0  0  0  0  0  0  0
   56.8251   33.6856   46.6208 H   0  0  0  0  0  0  0  0  0  0  0  0
   62.6422   31.8685   48.3436 H   0  0  0  0  0  0  0  0  0  0  0  0
   61.8210   31.1031   46.9238 H   0  0  0  0  0  0  0  0  0  0  0  0
   62.0007   32.9727   45.7021 H   0  0  0  0  0  0  0  0  0  0  0  0
   61.3224   33.9763   47.0596 H   0  0  0  0  0  0  0  0  0  0  0  0
   64.1049   33.6462   46.1550 H   0  0  0  0  0  0  0  0  0  0  0  0
   63.3212   34.9297   47.1804 H   0  0  0  0  0  0  0  0  0  0  0  0
   63.6474   33.6946   49.1714 H   0  0  0  0  0  0  0  0  0  0  0  0
   64.0457   32.1887   48.2767 H   0  0  0  0  0  0  0  0  0  0  0  0
   65.1997   33.5653   48.2767 H   0  0  0  0  0  0  0  0  0  0  0  0
   58.7953   26.0660   43.6705 H   0  0  0  0  0  0  0  0  0  0  0  0
   57.3430   26.7350   42.6345 H   0  0  0  0  0  0  0  0  0  0  0  0
   60.0284   27.4266   46.7478 H   0  0  0  0  0  0  0  0  0  0  0  0
   59.8104   26.3523   45.3248 H   0  0  0  0  0  0  0  0  0  0  0  0
   61.1124   27.5898   45.3248 H   0  0  0  0  0  0  0  0  0  0  0  0
  1  2  2  0
  2  3  1  0
  3  4  1  0
  4  5  1  0
  5  6  1  0
  6  7  1  0
  7  8  1  0
  8  9  1  0
  9 10  1  0
  5 11  2  0
 11 12  1  0
 12 13  2  0
 13 14  1  0
 14 15  2  0
 13 16  1  0
 16 17  1  0
 17 18  2  0
 17 19  1  0
 19 20  1  0
 14  4  1  0
 19 12  1  0
  1 21  1  0
  1 22  1  0
  2 23  1  0
  3 24  1  0
  3 25  1  0
  7 26  1  0
  7 27  1  0
  8 28  1  0
  8 29  1  0
  9 30  1  0
  9 31  1  0
 10 32  1  0
 10 33  1  0
 10 34  1  0
 18 35  1  0
 18 36  1  0
 20 37  1  0
 20 38  1  0
 20 39  1  0
M  END
>  <UniqueID>  (10) 
10

>  <SMILES>  (10) 
C=CCn1c(SCCCC)nc2c(c1=O)SC(=C)N2C

>  <Energy>  (10) 
51.93873342140354

>  <Genealogy>  (10) 
C=CCn1c(SCCCC)nc2c(c1=O)SC(=C)N2C (3D coordinates assigned)
C=CCn1c(SCCCC)nc2c(c1=O)SC(=C)N2C (nonaromatic ring conformer: 51.93873342140354 kcal/mol)

>  <smiles>  (10) 
C=CCn1c(SCCCC)nc2c(c1=O)SC(=C)N2C

>  <score_type>  (10) 
oracle

>  <origin>  (10) 
adg

>  <m_score__min__energy>  (10) 
-6.5499999999999998

>  <m_primary>  (10) 
energy

$$$$
10:0
     RDKit          3D

 27 26  0  0  0  0  0  0  0  0999 V2000
   59.2050   28.6740   44.8650 C   0  0  0  0  0  0  0  0  0  0  0  0
   58.0640   28.5290   45.8780 C   0  0  0  0  0  0  0  0  0  0  0  0
   57.6850   29.8110   46.4910 N   0  0  0  0  0  0  0  0  0  0  0  0
   58.7500   30.8170   46.3820 C   0  0  0  0  0  0  0  0  0  0  0  0
   58.1510   32.2290   46.3550 C   0  0  0  0  0  0  0  0  0  0  0  0
   57.4180   32.5330   45.0440 C   0  0  0  0  0  0  0  0  0  0  0  0
   56.3650   31.6090   44.8630 O   0  0  0  0  0  0  0  0  0  0  0  0
   56.5960   30.8540   43.6930 C   0  0  0  0  0  0  0  0  0  0  0  0
   55.8080   29.5500   43.7780 C   0  0  0  0  0  0  0  0  0  0  0  0
   55.1710   29.4450   45.0220 O   0  0  0  0  0  0  0  0  0  0  0  0
   60.1579   28.7951   45.4009 H   0  0  0  0  0  0  0  0  0  0  0  0
   59.2512   27.7745   44.2335 H   0  0  0  0  0  0  0  0  0  0  0  0
   59.0248   29.5565   44.2335 H   0  0  0  0  0  0  0  0  0  0  0  0
   57.1863   28.1119   45.3626 H   0  0  0  0  0  0  0  0  0  0  0  0
   58.4153   27.8662   46.6825 H   0  0  0  0  0  0  0  0  0  0  0  0
   56.8200   30.1760   46.0250 H   0  0  0  0  0  0  0  0  0  0  0  0
   59.4245   30.7259   47.2461 H   0  0  0  0  0  0  0  0  0  0  0  0
   59.3067   30.6476   45.4485 H   0  0  0  0  0  0  0  0  0  0  0  0
   57.4386   32.3255   47.1876 H   0  0  0  0  0  0  0  0  0  0  0  0
   58.9811   32.9449   46.4464 H   0  0  0  0  0  0  0  0  0  0  0  0
   57.0073   33.5527   45.0825 H   0  0  0  0  0  0  0  0  0  0  0  0
   58.1236   32.4509   44.2041 H   0  0  0  0  0  0  0  0  0  0  0  0
   56.2667   31.4270   42.8136 H   0  0  0  0  0  0  0  0  0  0  0  0
   57.6696   30.6334   43.5996 H   0  0  0  0  0  0  0  0  0  0  0  0
   55.0509   29.5312   42.9802 H   0  0  0  0  0  0  0  0  0  0  0  0
   56.5022   28.7049   43.6598 H   0  0  0  0  0  0  0  0  0  0  0  0
   55.6300   30.0810   45.6320 H   0  0  0  0  0  0  0  0  0  0  0  0
  1  2  1  0
  2  3  1  0
  3  4  1  0
  4  5  1  0
  5  6  1  0
  6  7  1  0
  7  8  1  0
  8  9  1  0
  9 10  1  0
  1 11  1  0
  1 12  1  0
  1 13  1  0
  2 14  1  0
  2 15  1  0
  3 16  1  0
  4 17  1  0
  4 18  1  0
  5 19  1  0
  5 20  1  0
  6 21  1  0
  6 22  1  0
  8 23  1  0
  8 24  1  0
  9 25  1  0
  9 26  1  0
 10 27  1  0
M  END
>  <UniqueID>  (11) 
11

>  <SMILES>  (11) 
CCNCCCOCCO

>  <Energy>  (11) 
14.26362678697753

>  <Genealogy>  (11) 
CCNCCCOCCO (3D coordinates assigned)
CCNCCCOCCO (optimized conformer: 14.26362678697753 kcal/mol)

>  <smiles>  (11) 
CCNCCCOCCO

>  <score_type>  (11) 
oracle

>  <origin>  (11) 
adg

>  <m_score__min__energy>  (11) 
-5.1699999999999999

>  <m_primary>  (11) 
energy

$$$$
11:0
     RDKit          3D

 70 73  0  0  0  0  0  0  0  0999 V2000
   63.1090   33.8950   46.3410 C   0  0  0  0  0  0  0  0  0  0  0  0
   63.7700   33.6170   47.6940 C   0  0  0  0  0  0  0  0  0  0  0  0
   63.8980   32.1710   47.9660 N   0  0  0  0  0  0  0  0  0  0  0  0
   62.6640   31.5800   48.5240 C   0  0  0  0  0  0  0  0  0  0  0  0
   61.8390   30.8200   47.4710 C   0  0  0  0  0  0  0  0  0  0  0  0
   60.4030   30.9160   47.7470 N   0  0  0  0  0  0  0  0  0  0  0  0
   59.4300   30.7930   46.6960 C   0  0  0  0  0  0  0  0  0  0  0  0
   59.0850   31.9110   45.9190 C   0  0  0  0  0  0  0  0  0  0  0  0
   58.0910   31.7940   44.9300 C   0  0  0  0  0  0  0  0  0  0  0  0
   57.5610   30.5600   44.6110 N   0  0  0  0  0  0  0  0  0  0  0  0
   56.7460   30.4070   43.3870 C   0  0  0  0  0  0  0  0  0  0  0  0
   57.8180   29.4700   45.4210 C   0  0  0  0  0  0  0  0  0  0  0  0
   57.1240   28.2430   45.2590 C   0  0  0  0  0  0  0  0  0  0  0  0
   57.4320   27.1190   46.0460 C   0  0  0  0  0  0  0  0  0  0  0  0
   56.7610   25.8910   45.9140 O   0  0  0  0  0  0  0  0  0  0  0  0
   56.7870   24.8220   46.8620 C   0  0  0  0  0  0  0  0  0  0  0  0
   56.8740   23.4590   46.1370 C   0  0  0  0  0  0  0  0  0  0  0  0
   57.7590   23.4680   44.9320 N   0  0  0  0  0  0  0  0  0  0  0  0
   58.8570   24.2300   45.2380 O   0  0  0  0  0  0  0  0  0  0  0  0
   58.2190   22.0860   44.6300 C   0  0  0  0  0  0  0  0  0  0  0  0
   57.0580   21.1780   44.1520 C   0  0  0  0  0  0  0  0  0  0  0  0
   55.9310   21.9010   43.6870 O   0  0  0  0  0  0  0  0  0  0  0  0
   56.3440   22.9870   42.8870 C   0  0  0  0  0  0  0  0  0  0  0  0
   57.0630   24.0530   43.7410 C   0  0  0  0  0  0  0  0  0  0  0  0
   58.4470   27.2120   46.9940 C   0  0  0  0  0  0  0  0  0  0  0  0
   59.1190   28.4130   47.1990 C   0  0  0  0  0  0  0  0  0  0  0  0
   58.7890   29.5620   46.4530 C   0  0  0  0  0  0  0  0  0  0  0  0
   57.6490   33.0740   44.2390 C   0  0  0  0  0  0  0  0  0  0  0  0
   57.5480   34.2200   45.2540 C   0  0  0  0  0  0  0  0  0  0  0  0
   58.8390   34.4330   46.0690 C   0  0  0  0  0  0  0  0  0  0  0  0
   59.8080   33.2370   46.0480 C   0  0  0  0  0  0  0  0  0  0  0  0
   62.1060   34.3168   46.5027 H   0  0  0  0  0  0  0  0  0  0  0  0
   63.7213   34.6118   45.7742 H   0  0  0  0  0  0  0  0  0  0  0  0
   63.0249   32.9560   45.7742 H   0  0  0  0  0  0  0  0  0  0  0  0
   64.7732   34.0682   47.6975 H   0  0  0  0  0  0  0  0  0  0  0  0
   63.1322   34.0527   48.4772 H   0  0  0  0  0  0  0  0  0  0  0  0
   64.1460   31.6670   47.0830 H   0  0  0  0  0  0  0  0  0  0  0  0
   64.6960   32.0260   48.6250 H   0  0  0  0  0  0  0  0  0  0  0  0
   62.9409   30.8800   49.3260 H   0  0  0  0  0  0  0  0  0  0  0  0
   62.0418   32.4054   48.9002 H   0  0  0  0  0  0  0  0  0  0  0  0
   62.0424   31.2491   46.4788 H   0  0  0  0  0  0  0  0  0  0  0  0
   62.1281   29.7592   47.5037 H   0  0  0  0  0  0  0  0  0  0  0  0
   60.0770   30.8560   48.7380 H   0  0  0  0  0  0  0  0  0  0  0  0
   55.7000   30.2106   43.6651 H   0  0  0  0  0  0  0  0  0  0  0  0
   56.8001   31.3310   42.7926 H   0  0  0  0  0  0  0  0  0  0  0  0
   57.1315   29.5655   42.7926 H   0  0  0  0  0  0  0  0  0  0  0  0
   56.3289   28.1695   44.5024 H   0  0  0  0  0  0  0  0  0  0  0  0
   57.6625   24.9402   47.5173 H   0  0  0  0  0  0  0  0  0  0  0  0
   55.8622   24.8508   47.4569 H   0  0  0  0  0  0  0  0  0  0  0  0
   57.2629   22.7137   46.8465 H   0  0  0  0  0  0  0  0  0  0  0  0
   55.8595   23.2194   45.7857 H   0  0  0  0  0  0  0  0  0  0  0  0
   58.6260   25.1920   45.1240 H   0  0  0  0  0  0  0  0  0  0  0  0
   58.9829   22.1309   43.8398 H   0  0  0  0  0  0  0  0  0  0  0  0
   58.6280   21.6547   45.5556 H   0  0  0  0  0  0  0  0  0  0  0  0
   57.4268   20.5431   43.3330 H   0  0  0  0  0  0  0  0  0  0  0  0
   56.7291   20.5884   45.0204 H   0  0  0  0  0  0  0  0  0  0  0  0
   57.0325   22.6220   42.1107 H   0  0  0  0  0  0  0  0  0  0  0  0
   55.4559   23.4439   42.4261 H   0  0  0  0  0  0  0  0  0  0  0  0
   57.8087   24.5625   43.1130 H   0  0  0  0  0  0  0  0  0  0  0  0
   56.2986   24.7510   44.1131 H   0  0  0  0  0  0  0  0  0  0  0  0
   58.7206   26.3270   47.5872 H   0  0  0  0  0  0  0  0  0  0  0  0
   59.9181   28.4662   47.9531 H   0  0  0  0  0  0  0  0  0  0  0  0
   58.3827   33.3397   43.4637 H   0  0  0  0  0  0  0  0  0  0  0  0
   56.6610   32.9117   43.7834 H   0  0  0  0  0  0  0  0  0  0  0  0
   57.3224   35.1488   44.7096 H   0  0  0  0  0  0  0  0  0  0  0  0
   56.7546   33.9523   45.9674 H   0  0  0  0  0  0  0  0  0  0  0  0
   59.3640   35.3086   45.6595 H   0  0  0  0  0  0  0  0  0  0  0  0
   58.5307   34.5694   47.1161 H   0  0  0  0  0  0  0  0  0  0  0  0
   60.4919   33.3512   45.1941 H   0  0  0  0  0  0  0  0  0  0  0  0
   60.3539   33.2303   47.0029 H   0  0  0  0  0  0  0  0  0  0  0  0
  1  2  1  0
  2  3  1  0
  3  4  1  0
  4  5  1  0
  5  6  1  0
  6  7  1  0
  7  8  2  0
  8  9  1  0
  9 10  2  0
 10 11  1  0
 10 12  1  0
 12 13  2  0
 13 14  1  0
 14 15  1  0
 15 16  1  0
 16 17  1  0
 17 18  1  0
 18 19  1  0
 18 20  1  0
 20 21  1  0
 21 22  1  0
 22 23  1  0
 23 24  1  0
 14 25  2  0
 25 26  1  0
 26 27  2  0
  9 28  1  0
 28 29  1  0
 29 30  1  0
 30 31  1  0
 27  7  1  0
 31  8  1  0
 27 12  1  0
 24 18  1  0
  1 32  1  0
  1 33  1  0
  1 34  1  0
  2 35  1  0
  2 36  1  0
  3 37  1  0
  3 38  1  0
  4 39  1  0
  4 40  1  0
  5 41  1  0
  5 42  1  0
  6 43  1  0
 11 44  1  0
 11 45  1  0
 11 46  1  0
 13 47  1  0
 16 48  1  0
 16 49  1  0
 17 50  1  0
 17 51  1  0
 19 52  1  0
 20 53  1  0
 20 54  1  0
 21 55  1  0
 21 56  1  0
 23 57  1  0
 23 58  1  0
 24 59  1  0
 24 60  1  0
 25 61  1  0
 26 62  1  0
 28 63  1  0
 28 64  1  0
 29 65  1  0
 29 66  1  0
 30 67  1  0
 30 68  1  0
 31 69  1  0
 31 70  1  0
M  CHG  3   3   1  10   1  18   1
M  END
>  <UniqueID>  (12) 
12

>  <SMILES>  (12) 
CC[NH2+]CCNc1c2c([n+](C)c3cc(OCC[N+]4(O)CCOCC4)ccc13)CCCC2

>  <Energy>  (12) 
113.13277541519727

>  <Genealogy>  (12) 
CC[NH2+]CCNc1c2c([n+](C)c3cc(OCC[N+]4(O)CCOCC4)ccc13)CCCC2 (protonated)
CC[NH2+]CCNc1c2c([n+](C)c3cc(OCC[N+]4(O)CCOCC4)ccc13)CCCC2 (3D coordinates assigned)
CC[NH2+]CCNc1c2c([n+](C)c3cc(OCC[N+]4(O)CCOCC4)ccc13)CCCC2 (nonaromatic ring conformer: 113.13277541519727 kcal/mol)

>  <smiles>  (12) 
CCNCCNc1c2c([n+](C)c3cc(OCC[N+]4([O-])CCOCC4)ccc13)CCCC2

>  <score_type>  (12) 
oracle

>  <origin>  (12) 
adg

>  <m_score__min__energy>  (12) 
-5.1799999999999997

>  <m_primary>  (12) 
energy

$$$$
12:0
     RDKit          3D

 40 41  0  0  1  0  0  0  0  0999 V2000
   58.1470   29.0460   46.0450 C   0  0  0  0  0  0  0  0  0  0  0  0
   57.0800   28.7360   45.0370 C   0  0  0  0  0  0  0  0  0  0  0  0
   56.1800   29.7170   44.9100 O   0  0  0  0  0  0  0  0  0  0  0  0
   55.9100   30.3390   43.7580 C   0  0  0  0  0  0  0  0  0  0  0  0
   57.0110   30.7190   42.8200 C   0  0  0  0  0  0  0  0  0  0  0  0
   58.0060   31.3680   43.5080 O   0  0  0  0  0  0  0  0  0  0  0  0
   58.1450   32.7060   43.3730 C   0  0  0  0  0  0  0  0  0  0  0  0
   58.3630   33.3160   44.7480 C   0  0  0  0  0  0  0  0  0  0  0  0
   57.3790   33.3050   45.6440 C   0  0  0  0  0  0  0  0  0  0  0  0
   57.7600   33.5010   47.0710 C   0  0  0  0  0  0  0  0  0  0  0  0
   59.1310   34.0900   47.1460 C   0  0  2  0  0  0  0  0  0  0  0  0
   59.2970   35.1180   46.0270 C   0  0  0  0  0  0  0  0  0  0  0  0
   59.6450   33.9280   45.1240 C   0  0  1  0  0  0  0  0  0  0  0  0
   60.1320   33.2440   46.3720 C   0  0  0  0  0  0  0  0  0  0  0  0
   61.5340   33.5740   46.8010 C   0  0  0  0  0  0  0  0  0  0  0  0
   59.8780   31.7660   46.3990 C   0  0  0  0  0  0  0  0  0  0  0  0
   57.7386   28.9274   47.0595 H   0  0  0  0  0  0  0  0  0  0  0  0
   58.9929   28.3565   45.9073 H   0  0  0  0  0  0  0  0  0  0  0  0
   58.4918   30.0815   45.9073 H   0  0  0  0  0  0  0  0  0  0  0  0
   57.5581   28.5703   44.0603 H   0  0  0  0  0  0  0  0  0  0  0  0
   56.5446   27.8420   45.3891 H   0  0  0  0  0  0  0  0  0  0  0  0
   55.2320   29.6797   43.1962 H   0  0  0  0  0  0  0  0  0  0  0  0
   55.5230   31.3137   44.0901 H   0  0  0  0  0  0  0  0  0  0  0  0
   57.4220   29.8118   42.3530 H   0  0  0  0  0  0  0  0  0  0  0  0
   56.6113   31.3877   42.0434 H   0  0  0  0  0  0  0  0  0  0  0  0
   59.0101   32.9250   42.7298 H   0  0  0  0  0  0  0  0  0  0  0  0
   57.2406   33.1317   42.9139 H   0  0  0  0  0  0  0  0  0  0  0  0
   56.3309   33.1577   45.3443 H   0  0  0  0  0  0  0  0  0  0  0  0
   57.0420   34.1818   47.5517 H   0  0  0  0  0  0  0  0  0  0  0  0
   57.7498   32.5306   47.5890 H   0  0  0  0  0  0  0  0  0  0  0  0
   59.2563   34.3197   48.2144 H   0  0  0  0  0  0  0  0  0  0  0  0
   58.3779   35.6560   45.7515 H   0  0  0  0  0  0  0  0  0  0  0  0
   59.9531   35.9955   46.1250 H   0  0  0  0  0  0  0  0  0  0  0  0
   60.2540   34.0029   44.2110 H   0  0  0  0  0  0  0  0  0  0  0  0
   61.5879   33.5867   47.8996 H   0  0  0  0  0  0  0  0  0  0  0  0
   62.2259   32.8142   46.4087 H   0  0  0  0  0  0  0  0  0  0  0  0
   61.8144   34.5627   46.4087 H   0  0  0  0  0  0  0  0  0  0  0  0
   59.8191   31.4231   47.4425 H   0  0  0  0  0  0  0  0  0  0  0  0
   58.9292   31.5476   45.8871 H   0  0  0  0  0  0  0  0  0  0  0  0
   60.6995   31.2434   45.8871 H   0  0  0  0  0  0  0  0  0  0  0  0
  1  2  1  0
  2  3  1  0
  3  4  1  0
  4  5  1  0
  5  6  1  0
  6  7  1  0
  7  8  1  0
  8  9  2  0
  9 10  1  0
 10 11  1  0
 11 12  1  0
 12 13  1  0
 13 14  1  0
 14 15  1  0
 14 16  1  0
 13  8  1  0
 14 11  1  0
  1 17  1  0
  1 18  1  0
  1 19  1  0
  2 20  1  0
  2 21  1  0
  4 22  1  0
  4 23  1  0
  5 24  1  0
  5 25  1  0
  7 26  1  0
  7 27  1  0
  9 28  1  0
 10 29  1  0
 10 30  1  0
 11 31  1  1
 12 32  1  0
 12 33  1  0
 13 34  1  6
 15 35  1  0
 15 36  1  0
 15 37  1  0
 16 38  1  0
 16 39  1  0
 16 40  1  0
M  END
>  <smiles>  (13) 
CCOCCOCC1=CCC2CC1C2(C)C

>  <score_type>  (13) 
oracle

>  <origin>  (13) 
adg

>  <m_score__min__energy>  (13) 
-6.5899999999999999

>  <m_primary>  (13) 
energy

$$$$
13:0
     RDKit          3D

 67 71  0  0  0  0  0  0  0  0999 V2000
   58.0000   22.7140   44.4960 C   0  0  0  0  0  0  0  0  0  0  0  0
   56.6440   23.1520   43.9360 C   0  0  0  0  0  0  0  0  0  0  0  0
   56.4900   24.6180   43.9210 N   0  0  0  0  0  0  0  0  0  0  0  0
   57.4130   25.2800   42.9870 C   0  0  0  0  0  0  0  0  0  0  0  0
   58.1320   26.4430   43.6830 C   0  0  0  0  0  0  0  0  0  0  0  0
   57.4530   26.8020   44.9390 N   0  0  0  0  0  0  0  0  0  0  0  0
   57.9850   28.0440   45.4780 C   0  0  0  0  0  0  0  0  0  0  0  0
   58.8340   28.0360   46.6150 C   0  0  0  0  0  0  0  0  0  0  0  0
   59.3510   26.8330   47.1570 C   0  0  0  0  0  0  0  0  0  0  0  0
   60.1840   26.8480   48.2740 C   0  0  0  0  0  0  0  0  0  0  0  0
   60.5310   28.0520   48.8690 C   0  0  0  0  0  0  0  0  0  0  0  0
   60.0420   29.2500   48.3560 C   0  0  0  0  0  0  0  0  0  0  0  0
   59.1760   29.2690   47.2340 C   0  0  0  0  0  0  0  0  0  0  0  0
   58.6740   30.4540   46.7420 N   0  0  0  0  0  0  0  0  0  0  0  0
   58.6340   31.6420   47.6230 C   0  0  0  0  0  0  0  0  0  0  0  0
   58.1290   30.5000   45.4730 C   0  0  0  0  0  0  0  0  0  0  0  0
   57.9970   31.7270   44.7500 C   0  0  0  0  0  0  0  0  0  0  0  0
   58.6140   32.8970   45.2330 O   0  0  0  0  0  0  0  0  0  0  0  0
   58.7830   34.1230   44.5180 C   0  0  0  0  0  0  0  0  0  0  0  0
   59.2840   35.2300   45.4510 C   0  0  0  0  0  0  0  0  0  0  0  0
   60.0100   34.6490   46.5860 N   0  0  0  0  0  0  0  0  0  0  0  0
   59.5080   34.7900   47.8510 C   0  0  0  0  0  0  0  0  0  0  0  0
   60.1650   34.2270   48.9460 C   0  0  0  0  0  0  0  0  0  0  0  0
   61.3430   33.5010   48.7440 C   0  0  0  0  0  0  0  0  0  0  0  0
   62.0260   32.9210   49.8250 C   0  0  0  0  0  0  0  0  0  0  0  0
   63.1990   32.1930   49.6010 C   0  0  0  0  0  0  0  0  0  0  0  0
   63.6950   32.0390   48.3040 C   0  0  0  0  0  0  0  0  0  0  0  0
   63.0220   32.6140   47.2210 C   0  0  0  0  0  0  0  0  0  0  0  0
   61.8450   33.3470   47.4340 C   0  0  0  0  0  0  0  0  0  0  0  0
   61.1530   33.9310   46.3640 C   0  0  0  0  0  0  0  0  0  0  0  0
   57.2960   31.7430   43.5310 C   0  0  0  0  0  0  0  0  0  0  0  0
   56.8130   30.5690   42.9770 C   0  0  0  0  0  0  0  0  0  0  0  0
   57.0370   29.3540   43.6070 C   0  0  0  0  0  0  0  0  0  0  0  0
   57.7080   29.2880   44.8500 C   0  0  0  0  0  0  0  0  0  0  0  0
   57.9638   22.7257   45.5953 H   0  0  0  0  0  0  0  0  0  0  0  0
   58.2292   21.6961   44.1475 H   0  0  0  0  0  0  0  0  0  0  0  0
   58.7813   23.4055   44.1475 H   0  0  0  0  0  0  0  0  0  0  0  0
   56.5487   22.7761   42.9066 H   0  0  0  0  0  0  0  0  0  0  0  0
   55.8616   22.7389   44.5896 H   0  0  0  0  0  0  0  0  0  0  0  0
   55.5050   24.8650   43.6630 H   0  0  0  0  0  0  0  0  0  0  0  0
   58.1581   24.5511   42.6354 H   0  0  0  0  0  0  0  0  0  0  0  0
   56.8389   25.6730   42.1350 H   0  0  0  0  0  0  0  0  0  0  0  0
   59.1674   26.1454   43.9053 H   0  0  0  0  0  0  0  0  0  0  0  0
   58.1193   27.3159   43.0138 H   0  0  0  0  0  0  0  0  0  0  0  0
   56.4210   26.8790   44.7940 H   0  0  0  0  0  0  0  0  0  0  0  0
   57.5420   26.0270   45.6330 H   0  0  0  0  0  0  0  0  0  0  0  0
   59.0907   25.8723   46.6886 H   0  0  0  0  0  0  0  0  0  0  0  0
   60.5674   25.9025   48.6850 H   0  0  0  0  0  0  0  0  0  0  0  0
   61.1933   28.0601   49.7472 H   0  0  0  0  0  0  0  0  0  0  0  0
   60.3329   30.1991   48.8299 H   0  0  0  0  0  0  0  0  0  0  0  0
   58.6449   31.3192   48.6745 H   0  0  0  0  0  0  0  0  0  0  0  0
   59.5113   32.2752   47.4247 H   0  0  0  0  0  0  0  0  0  0  0  0
   57.7161   32.2148   47.4247 H   0  0  0  0  0  0  0  0  0  0  0  0
   59.5151   33.9723   43.7110 H   0  0  0  0  0  0  0  0  0  0  0  0
   57.8113   34.4255   44.1006 H   0  0  0  0  0  0  0  0  0  0  0  0
   59.9570   35.8978   44.8932 H   0  0  0  0  0  0  0  0  0  0  0  0
   58.4207   35.7964   45.8304 H   0  0  0  0  0  0  0  0  0  0  0  0
   58.5762   35.3534   48.0067 H   0  0  0  0  0  0  0  0  0  0  0  0
   59.7592   34.3534   49.9606 H   0  0  0  0  0  0  0  0  0  0  0  0
   61.6386   33.0391   50.8477 H   0  0  0  0  0  0  0  0  0  0  0  0
   63.7331   31.7400   50.4492 H   0  0  0  0  0  0  0  0  0  0  0  0
   64.6172   31.4640   48.1341 H   0  0  0  0  0  0  0  0  0  0  0  0
   63.4160   32.4913   46.2013 H   0  0  0  0  0  0  0  0  0  0  0  0
   61.5318   33.8111   45.3383 H   0  0  0  0  0  0  0  0  0  0  0  0
   57.1294   32.6983   43.0118 H   0  0  0  0  0  0  0  0  0  0  0  0
   56.2492   30.6005   42.0330 H   0  0  0  0  0  0  0  0  0  0  0  0
   56.6868   28.4259   43.1317 H   0  0  0  0  0  0  0  0  0  0  0  0
  1  2  1  0
  2  3  1  0
  3  4  1  0
  4  5  1  0
  5  6  1  0
  6  7  1  0
  7  8  2  0
  8  9  1  0
  9 10  2  0
 10 11  1  0
 11 12  2  0
 12 13  1  0
 13 14  2  0
 14 15  1  0
 14 16  1  0
 16 17  2  0
 17 18  1  0
 18 19  1  0
 19 20  1  0
 20 21  1  0
 21 22  2  0
 22 23  1  0
 23 24  2  0
 24 25  1  0
 25 26  2  0
 26 27  1  0
 27 28  2  0
 28 29  1  0
 29 30  2  0
 17 31  1  0
 31 32  2  0
 32 33  1  0
 33 34  2  0
 34  7  1  0
 13  8  1  0
 34 16  1  0
 30 21  1  0
 29 24  1  0
  1 35  1  0
  1 36  1  0
  1 37  1  0
  2 38  1  0
  2 39  1  0
  3 40  1  0
  4 41  1  0
  4 42  1  0
  5 43  1  0
  5 44  1  0
  6 45  1  0
  6 46  1  0
  9 47  1  0
 10 48  1  0
 11 49  1  0
 12 50  1  0
 15 51  1  0
 15 52  1  0
 15 53  1  0
 19 54  1  0
 19 55  1  0
 20 56  1  0
 20 57  1  0
 22 58  1  0
 23 59  1  0
 25 60  1  0
 26 61  1  0
 27 62  1  0
 28 63  1  0
 30 64  1  0
 31 65  1  0
 32 66  1  0
 33 67  1  0
M  CHG  3   6   1  14   1  21   1
M  END
>  <UniqueID>  (14) 
13

>  <SMILES>  (14) 
CCNCC[NH2+]c1c2ccccc2[n+](C)c2c(OCC[n+]3ccc4ccccc4c3)cccc12

>  <Energy>  (14) 
104.07842388222511

>  <Genealogy>  (14) 
CCNCC[NH2+]c1c2ccccc2[n+](C)c2c(OCC[n+]3ccc4ccccc4c3)cccc12 (protonated)
CCNCC[NH2+]c1c2ccccc2[n+](C)c2c(OCC[n+]3ccc4ccccc4c3)cccc12 (3D coordinates assigned)
CCNCC[NH2+]c1c2ccccc2[n+](C)c2c(OCC[n+]3ccc4ccccc4c3)cccc12 (optimized conformer: 104.07842388222511 kcal/mol)

>  <smiles>  (14) 
CCNCCNc1c2ccccc2[n+](C)c2c(OCC[n+]3ccc4ccccc4c3)cccc12

>  <score_type>  (14) 
oracle

>  <origin>  (14) 
adg

>  <m_score__min__energy>  (14) 
-5.1600000000000001

>  <m_primary>  (14) 
energy

$$$$
14:0
     RDKit          3D

 49 49  0  0  0  0  0  0  0  0999 V2000
   56.6540   29.4410   42.9990 C   0  0  0  0  0  0  0  0  0  0  0  0
   56.0470   30.4640   43.9580 C   0  0  0  0  0  0  0  0  0  0  0  0
   56.9880   30.8260   45.0430 N   0  0  0  0  0  0  0  0  0  0  0  0
   57.8820   29.7270   45.4830 C   0  0  0  0  0  0  0  0  0  0  0  0
   59.3540   30.1380   45.6250 C   0  0  0  0  0  0  0  0  0  0  0  0
   57.7230   32.0800   44.7520 C   0  0  0  0  0  0  0  0  0  0  0  0
   57.2280   33.2050   45.6670 C   0  0  0  0  0  0  0  0  0  0  0  0
   58.0980   33.3500   46.9260 C   0  0  0  0  0  0  0  0  0  0  0  0
   59.5210   33.2300   46.6040 N   0  0  0  0  0  0  0  0  0  0  0  0
   60.5890   33.4200   47.5510 C   0  0  0  0  0  0  0  0  0  0  0  0
   62.0840   33.7880   46.9980 S   0  0  0  0  0  0  0  0  0  0  0  0
   60.3490   33.4440   48.9640 N   0  0  0  0  0  0  0  0  0  0  0  0
   59.5260   32.4830   49.6410 C   0  0  0  0  0  0  0  0  0  0  0  0
   59.3320   31.2040   49.0940 C   0  0  0  0  0  0  0  0  0  0  0  0
   58.5190   30.2740   49.7420 C   0  0  0  0  0  0  0  0  0  0  0  0
   57.8880   30.6070   50.9540 C   0  0  0  0  0  0  0  0  0  0  0  0
   57.0580   29.7070   51.6400 O   0  0  0  0  0  0  0  0  0  0  0  0
   56.2090   30.0640   52.7270 C   0  0  0  0  0  0  0  0  0  0  0  0
   58.0870   31.8780   51.5030 C   0  0  0  0  0  0  0  0  0  0  0  0
   58.9040   32.8240   50.8540 C   0  0  0  0  0  0  0  0  0  0  0  0
   59.1000   34.1160   51.3700 O   0  0  0  0  0  0  0  0  0  0  0  0
   58.7920   34.5080   52.7040 C   0  0  0  0  0  0  0  0  0  0  0  0
   57.1318   28.6357   43.5763 H   0  0  0  0  0  0  0  0  0  0  0  0
   55.8612   29.0171   42.3652 H   0  0  0  0  0  0  0  0  0  0  0  0
   57.4060   29.9337   42.3652 H   0  0  0  0  0  0  0  0  0  0  0  0
   55.7883   31.3718   43.3933 H   0  0  0  0  0  0  0  0  0  0  0  0
   55.1531   30.0154   44.4159 H   0  0  0  0  0  0  0  0  0  0  0  0
   57.5287   29.3637   46.4593 H   0  0  0  0  0  0  0  0  0  0  0  0
   57.8418   28.9526   44.7028 H   0  0  0  0  0  0  0  0  0  0  0  0
   59.6132   30.2104   46.6916 H   0  0  0  0  0  0  0  0  0  0  0  0
   59.9934   29.3840   45.1426 H   0  0  0  0  0  0  0  0  0  0  0  0
   59.5103   31.1141   45.1426 H   0  0  0  0  0  0  0  0  0  0  0  0
   58.7979   31.9194   44.9217 H   0  0  0  0  0  0  0  0  0  0  0  0
   57.5480   32.3650   43.7041 H   0  0  0  0  0  0  0  0  0  0  0  0
   57.2509   34.1525   45.1087 H   0  0  0  0  0  0  0  0  0  0  0  0
   56.2057   32.9561   45.9880 H   0  0  0  0  0  0  0  0  0  0  0  0
   57.9143   34.3362   47.3772 H   0  0  0  0  0  0  0  0  0  0  0  0
   57.8311   32.5461   47.6278 H   0  0  0  0  0  0  0  0  0  0  0  0
   59.7740   33.0710   45.6010 H   0  0  0  0  0  0  0  0  0  0  0  0
   60.8330   34.1740   49.5360 H   0  0  0  0  0  0  0  0  0  0  0  0
   59.8245   30.9339   48.1482 H   0  0  0  0  0  0  0  0  0  0  0  0
   58.3708   29.2762   49.3033 H   0  0  0  0  0  0  0  0  0  0  0  0
   56.7199   29.8492   53.6772 H   0  0  0  0  0  0  0  0  0  0  0  0
   55.9739   31.1372   52.6715 H   0  0  0  0  0  0  0  0  0  0  0  0
   55.2777   29.4813   52.6715 H   0  0  0  0  0  0  0  0  0  0  0  0
   57.5995   32.1419   52.4531 H   0  0  0  0  0  0  0  0  0  0  0  0
   59.3129   33.8450   53.4105 H   0  0  0  0  0  0  0  0  0  0  0  0
   59.1188   35.5458   52.8659 H   0  0  0  0  0  0  0  0  0  0  0  0
   57.7064   34.4360   52.8659 H   0  0  0  0  0  0  0  0  0  0  0  0
  1  2  1  0
  2  3  1  0
  3  4  1  0
  4  5  1  0
  3  6  1  0
  6  7  1  0
  7  8  1  0
  8  9  1  0
  9 10  1  0
 10 11  2  0
 10 12  1  0
 12 13  1  0
 13 14  2  0
 14 15  1  0
 15 16  2  0
 16 17  1  0
 17 18  1  0
 16 19  1  0
 19 20  2  0
 20 21  1  0
 21 22  1  0
 20 13  1  0
  1 23  1  0
  1 24  1  0
  1 25  1  0
  2 26  1  0
  2 27  1  0
  4 28  1  0
  4 29  1  0
  5 30  1  0
  5 31  1  0
  5 32  1  0
  6 33  1  0
  6 34  1  0
  7 35  1  0
  7 36  1  0
  8 37  1  0
  8 38  1  0
  9 39  1  0
 12 40  1  0
 14 41  1  0
 15 42  1  0
 18 43  1  0
 18 44  1  0
 18 45  1  0
 19 46  1  0
 22 47  1  0
 22 48  1  0
 22 49  1  0
M  END
>  <UniqueID>  (15) 
14

>  <SMILES>  (15) 
CCN(CC)CCCNC(=S)Nc1ccc(OC)cc1OC

>  <Energy>  (15) 
47.10662800197268

>  <Genealogy>  (15) 
CCN(CC)CCCNC(=S)Nc1ccc(OC)cc1OC (3D coordinates assigned)
CCN(CC)CCCNC(=S)Nc1ccc(OC)cc1OC (optimized conformer: 47.10662800197268 kcal/mol)

>  <smiles>  (15) 
CCN(CC)CCCNC(=S)Nc1ccc(OC)cc1OC

>  <score_type>  (15) 
oracle

>  <origin>  (15) 
adg

>  <m_score__min__energy>  (15) 
-5.8300000000000001

>  <m_primary>  (15) 
energy

$$$$
