0:0
     RDKit          3D

 61 63  0  0  0  0  0  0  0  0999 V2000
   62.6020   34.2070   49.7580 C   0  0  0  0  0  0  0  0  0  0  0  0
   63.7980   33.4200   50.2930 C   0  0  0  0  0  0  0  0  0  0  0  0
   64.0090   32.0850   49.5600 C   0  0  0  0  0  0  0  0  0  0  0  0
   63.3750   31.9980   48.1530 C   0  0  0  0  0  0  0  0  0  0  0  0
   64.0840   32.7660   47.1090 N   0  0  0  0  0  0  0  0  0  0  0  0
   63.2540   33.8430   46.5420 C   0  0  0  0  0  0  0  0  0  0  0  0
   61.7640   33.4560   46.4140 C   0  0  0  0  0  0  0  0  0  0  0  0
   60.7370   34.5790   46.6600 C   0  0  0  0  0  0  0  0  0  0  0  0
   59.3520   34.0960   46.7000 N   0  0  0  0  0  0  0  0  0  0  0  0
   59.0000   32.7040   46.6460 C   0  0  0  0  0  0  0  0  0  0  0  0
   58.4880   32.1310   45.4670 C   0  0  0  0  0  0  0  0  0  0  0  0
   58.3000   30.7220   45.4100 C   0  0  0  0  0  0  0  0  0  0  0  0
   58.6310   29.9380   46.4980 N   0  0  0  0  0  0  0  0  0  0  0  0
   58.6670   28.4650   46.3860 C   0  0  0  0  0  0  0  0  0  0  0  0
   58.9030   30.5290   47.7150 C   0  0  0  0  0  0  0  0  0  0  0  0
   59.1210   31.9130   47.7990 C   0  0  0  0  0  0  0  0  0  0  0  0
   59.4760   32.5040   49.1500 C   0  0  0  0  0  0  0  0  0  0  0  0
   60.5030   31.6300   49.8930 C   0  0  0  0  0  0  0  0  0  0  0  0
   60.2350   30.1090   49.7940 C   0  0  0  0  0  0  0  0  0  0  0  0
   58.9550   29.7580   49.0240 C   0  0  0  0  0  0  0  0  0  0  0  0
   57.8120   30.0800   44.1130 C   0  0  0  0  0  0  0  0  0  0  0  0
   57.0610   31.0350   43.1870 C   0  0  0  0  0  0  0  0  0  0  0  0
   57.8420   32.3300   43.0250 C   0  0  0  0  0  0  0  0  0  0  0  0
   57.9390   33.0330   44.3730 C   0  0  0  0  0  0  0  0  0  0  0  0
   62.0118   34.5954   50.6011 H   0  0  0  0  0  0  0  0  0  0  0  0
   62.9604   35.0463   49.1439 H   0  0  0  0  0  0  0  0  0  0  0  0
   61.9730   33.5458   49.1439 H   0  0  0  0  0  0  0  0  0  0  0  0
   64.7036   34.0330   50.1743 H   0  0  0  0  0  0  0  0  0  0  0  0
   63.5968   33.1894   51.3496 H   0  0  0  0  0  0  0  0  0  0  0  0
   65.0918   31.9217   49.4558 H   0  0  0  0  0  0  0  0  0  0  0  0
   63.5052   31.3200   50.1691 H   0  0  0  0  0  0  0  0  0  0  0  0
   63.3584   30.9409   47.8492 H   0  0  0  0  0  0  0  0  0  0  0  0
   62.3710   32.4396   48.2363 H   0  0  0  0  0  0  0  0  0  0  0  0
   64.9840   33.1510   47.4770 H   0  0  0  0  0  0  0  0  0  0  0  0
   64.3130   32.0780   46.3570 H   0  0  0  0  0  0  0  0  0  0  0  0
   63.3318   34.7253   47.1943 H   0  0  0  0  0  0  0  0  0  0  0  0
   63.6284   34.0464   45.5279 H   0  0  0  0  0  0  0  0  0  0  0  0
   61.6043   33.0748   45.3946 H   0  0  0  0  0  0  0  0  0  0  0  0
   61.5856   32.7193   47.2111 H   0  0  0  0  0  0  0  0  0  0  0  0
   60.9678   35.0594   47.6222 H   0  0  0  0  0  0  0  0  0  0  0  0
   60.8139   35.2829   45.8182 H   0  0  0  0  0  0  0  0  0  0  0  0
   58.5860   34.7940   46.8410 H   0  0  0  0  0  0  0  0  0  0  0  0
   58.6779   28.0209   47.3923 H   0  0  0  0  0  0  0  0  0  0  0  0
   57.7771   28.1168   45.8412 H   0  0  0  0  0  0  0  0  0  0  0  0
   59.5728   28.1607   45.8412 H   0  0  0  0  0  0  0  0  0  0  0  0
   59.9012   33.5075   49.0011 H   0  0  0  0  0  0  0  0  0  0  0  0
   58.5603   32.5543   49.7574 H   0  0  0  0  0  0  0  0  0  0  0  0
   61.4980   31.8327   49.4701 H   0  0  0  0  0  0  0  0  0  0  0  0
   60.4294   31.8941   50.9583 H   0  0  0  0  0  0  0  0  0  0  0  0
   61.0879   29.6384   49.2830 H   0  0  0  0  0  0  0  0  0  0  0  0
   60.1048   29.7376   50.8212 H   0  0  0  0  0  0  0  0  0  0  0  0
   58.9432   28.6789   48.8110 H   0  0  0  0  0  0  0  0  0  0  0  0
   58.0819   30.0291   49.6357 H   0  0  0  0  0  0  0  0  0  0  0  0
   58.6859   29.6895   43.5710 H   0  0  0  0  0  0  0  0  0  0  0  0
   57.1008   29.2909   44.3983 H   0  0  0  0  0  0  0  0  0  0  0  0
   56.9336   30.5616   42.2023 H   0  0  0  0  0  0  0  0  0  0  0  0
   56.0773   31.2607   43.6245 H   0  0  0  0  0  0  0  0  0  0  0  0
   58.8530   32.1052   42.6545 H   0  0  0  0  0  0  0  0  0  0  0  0
   57.3263   32.9832   42.3057 H   0  0  0  0  0  0  0  0  0  0  0  0
   58.6029   33.9039   44.2688 H   0  0  0  0  0  0  0  0  0  0  0  0
   56.9214   33.3301   44.6668 H   0  0  0  0  0  0  0  0  0  0  0  0
  1  2  1  0
  2  3  1  0
  3  4  1  0
  4  5  1  0
  5  6  1  0
  6  7  1  0
  7  8  1  0
  8  9  1  0
  9 10  1  0
 10 11  2  0
 11 12  1  0
 12 13  2  0
 13 14  1  0
 13 15  1  0
 15 16  2  0
 16 17  1  0
 17 18  1  0
 18 19  1  0
 19 20  1  0
 12 21  1  0
 21 22  1  0
 22 23  1  0
 23 24  1  0
 16 10  1  0
 24 11  1  0
 20 15  1  0
  1 25  1  0
  1 26  1  0
  1 27  1  0
  2 28  1  0
  2 29  1  0
  3 30  1  0
  3 31  1  0
  4 32  1  0
  4 33  1  0
  5 34  1  0
  5 35  1  0
  6 36  1  0
  6 37  1  0
  7 38  1  0
  7 39  1  0
  8 40  1  0
  8 41  1  0
  9 42  1  0
 14 43  1  0
 14 44  1  0
 14 45  1  0
 17 46  1  0
 17 47  1  0
 18 48  1  0
 18 49  1  0
 19 50  1  0
 19 51  1  0
 20 52  1  0
 20 53  1  0
 21 54  1  0
 21 55  1  0
 22 56  1  0
 22 57  1  0
 23 58  1  0
 23 59  1  0
 24 60  1  0
 24 61  1  0
M  CHG  2   5   1  13   1
M  END
>  <UniqueID>  (1) 
1

>  <SMILES>  (1) 
CCCC[NH2+]CCCNc1c2c([n+](C)c3c1CCCC3)CCCC2

>  <Energy>  (1) 
75.93179263104318

>  <Genealogy>  (1) 
CCCC[NH2+]CCCNc1c2c([n+](C)c3c1CCCC3)CCCC2 (protonated)
CCCC[NH2+]CCCNc1c2c([n+](C)c3c1CCCC3)CCCC2 (3D coordinates assigned)
CCCC[NH2+]CCCNc1c2c([n+](C)c3c1CCCC3)CCCC2 (nonaromatic ring conformer: 75.93179263104318 kcal/mol)

>  <smiles>  (1) 
CCCCNCCCNc1c2c([n+](C)c3c1CCCC3)CCCC2

>  <score_type>  (1) 
oracle

>  <origin>  (1) 
adg

>  <m_score__min__energy>  (1) 
-4.9000000000000004

>  <m_primary>  (1) 
energy

$$$$
1:0
     RDKit          3D

 48 50  0  0  0  0  0  0  0  0999 V2000
   58.9910   34.5140   45.2790 C   0  0  0  0  0  0  0  0  0  0  0  0
   57.5120   33.4740   45.5050 S   0  0  0  0  0  0  0  0  0  0  0  0
   57.7740   32.4300   44.0240 C   0  0  0  0  0  0  0  0  0  0  0  0
   57.3840   30.9620   44.2640 C   0  0  0  0  0  0  0  0  0  0  0  0
   57.4360   30.5810   45.6890 N   0  0  0  0  0  0  0  0  0  0  0  0
   58.5900   29.7250   45.9930 C   0  0  0  0  0  0  0  0  0  0  0  0
   59.4420   30.3320   47.1190 C   0  0  0  0  0  0  0  0  0  0  0  0
   59.0590   31.7180   47.4690 N   0  0  0  0  0  0  0  0  0  0  0  0
   59.8680   32.2810   48.5440 C   0  0  0  0  0  0  0  0  0  0  0  0
   61.1910   32.7620   48.3070 C   0  0  0  0  0  0  0  0  0  0  0  0
   61.7750   32.7700   47.0120 C   0  0  0  0  0  0  0  0  0  0  0  0
   63.0370   33.3120   46.7900 C   0  0  0  0  0  0  0  0  0  0  0  0
   63.7500   33.8690   47.8390 C   0  0  0  0  0  0  0  0  0  0  0  0
   63.2210   33.8550   49.1250 C   0  0  0  0  0  0  0  0  0  0  0  0
   61.9570   33.2690   49.3960 C   0  0  0  0  0  0  0  0  0  0  0  0
   61.4700   33.2020   50.6840 N   0  0  0  0  0  0  0  0  0  0  0  0
   62.3830   33.4110   51.8310 C   0  0  0  0  0  0  0  0  0  0  0  0
   60.1420   32.9090   50.9090 C   0  0  0  0  0  0  0  0  0  0  0  0
   59.5490   33.1190   52.1820 C   0  0  0  0  0  0  0  0  0  0  0  0
   58.2310   32.7570   52.4340 C   0  0  0  0  0  0  0  0  0  0  0  0
   57.4620   32.1900   51.4290 C   0  0  0  0  0  0  0  0  0  0  0  0
   57.9970   32.0130   50.1570 C   0  0  0  0  0  0  0  0  0  0  0  0
   59.3300   32.3970   49.8580 C   0  0  0  0  0  0  0  0  0  0  0  0
   59.3938   34.7973   46.2626 H   0  0  0  0  0  0  0  0  0  0  0  0
   59.7526   33.9516   44.7190 H   0  0  0  0  0  0  0  0  0  0  0  0
   58.7194   35.4210   44.7190 H   0  0  0  0  0  0  0  0  0  0  0  0
   57.1637   32.8272   43.1995 H   0  0  0  0  0  0  0  0  0  0  0  0
   58.8465   32.4563   43.7811 H   0  0  0  0  0  0  0  0  0  0  0  0
   56.3592   30.8061   43.8959 H   0  0  0  0  0  0  0  0  0  0  0  0
   58.1108   30.3347   43.7272 H   0  0  0  0  0  0  0  0  0  0  0  0
   56.5570   30.0900   45.9800 H   0  0  0  0  0  0  0  0  0  0  0  0
   58.2304   28.7342   46.3077 H   0  0  0  0  0  0  0  0  0  0  0  0
   59.2115   29.6392   45.0895 H   0  0  0  0  0  0  0  0  0  0  0  0
   59.3325   29.7039   48.0154 H   0  0  0  0  0  0  0  0  0  0  0  0
   60.4800   30.3655   46.7565 H   0  0  0  0  0  0  0  0  0  0  0  0
   58.0360   31.7760   47.6480 H   0  0  0  0  0  0  0  0  0  0  0  0
   59.1570   32.3190   46.6200 H   0  0  0  0  0  0  0  0  0  0  0  0
   61.2179   32.3387   46.1673 H   0  0  0  0  0  0  0  0  0  0  0  0
   63.4698   33.2982   45.7788 H   0  0  0  0  0  0  0  0  0  0  0  0
   64.7350   34.3226   47.6546 H   0  0  0  0  0  0  0  0  0  0  0  0
   63.7934   34.3070   49.9484 H   0  0  0  0  0  0  0  0  0  0  0  0
   61.8260   33.2835   52.7710 H   0  0  0  0  0  0  0  0  0  0  0  0
   63.2010   32.6769   51.7870 H   0  0  0  0  0  0  0  0  0  0  0  0
   62.8002   34.4279   51.7870 H   0  0  0  0  0  0  0  0  0  0  0  0
   60.1448   33.5775   52.9850 H   0  0  0  0  0  0  0  0  0  0  0  0
   57.7975   32.9204   53.4317 H   0  0  0  0  0  0  0  0  0  0  0  0
   56.4275   31.8797   51.6378 H   0  0  0  0  0  0  0  0  0  0  0  0
   57.3745   31.5666   49.3675 H   0  0  0  0  0  0  0  0  0  0  0  0
  1  2  1  0
  2  3  1  0
  3  4  1  0
  4  5  1  0
  5  6  1  0
  6  7  1  0
  7  8  1  0
  8  9  1  0
  9 10  2  0
 10 11  1  0
 11 12  2  0
 12 13  1  0
 13 14  2  0
 14 15  1  0
 15 16  2  0
 16 17  1  0
 16 18  1  0
 18 19  2  0
 19 20  1  0
 20 21  2  0
 21 22  1  0
 22 23  2  0
 23  9  1  0
 15 10  1  0
 23 18  1  0
  1 24  1  0
  1 25  1  0
  1 26  1  0
  3 27  1  0
  3 28  1  0
  4 29  1  0
  4 30  1  0
  5 31  1  0
  6 32  1  0
  6 33  1  0
  7 34  1  0
  7 35  1  0
  8 36  1  0
  8 37  1  0
 11 38  1  0
 12 39  1  0
 13 40  1  0
 14 41  1  0
 17 42  1  0
 17 43  1  0
 17 44  1  0
 19 45  1  0
 20 46  1  0
 21 47  1  0
 22 48  1  0
M  CHG  2   8   1  16   1
M  END
>  <UniqueID>  (2) 
2

>  <SMILES>  (2) 
CSCCNCC[NH2+]c1c2ccccc2[n+](C)c2ccccc12

>  <Energy>  (2) 
75.1399429784592

>  <Genealogy>  (2) 
CSCCNCC[NH2+]c1c2ccccc2[n+](C)c2ccccc12 (protonated)
CSCCNCC[NH2+]c1c2ccccc2[n+](C)c2ccccc12 (3D coordinates assigned)
CSCCNCC[NH2+]c1c2ccccc2[n+](C)c2ccccc12 (optimized conformer: 75.1399429784592 kcal/mol)

>  <smiles>  (2) 
CSCCNCCNc1c2ccccc2[n+](C)c2ccccc12

>  <score_type>  (2) 
oracle

>  <origin>  (2) 
adg

>  <m_score__min__energy>  (2) 
-3.4500000000000002

>  <m_primary>  (2) 
energy

$$$$
2:0
     RDKit          3D

 83 85  0  0  0  0  0  0  0  0999 V2000
   66.5800   27.7690   51.3780 C   0  0  0  0  0  0  0  0  0  0  0  0
   65.3240   28.4090   51.9680 C   0  0  0  0  0  0  0  0  0  0  0  0
   65.4610   29.8830   52.0280 N   0  0  0  0  0  0  0  0  0  0  0  0
   66.8170   30.2930   51.5960 C   0  0  0  0  0  0  0  0  0  0  0  0
   66.7730   31.5910   50.7840 C   0  0  0  0  0  0  0  0  0  0  0  0
   64.4000   30.5680   51.2410 C   0  0  0  0  0  0  0  0  0  0  0  0
   63.0230   30.0430   51.6730 C   0  0  0  0  0  0  0  0  0  0  0  0
   62.0790   30.0800   50.6180 O   0  0  0  0  0  0  0  0  0  0  0  0
   61.4620   28.8180   50.4430 C   0  0  0  0  0  0  0  0  0  0  0  0
   60.0810   29.0070   49.8040 C   0  0  0  0  0  0  0  0  0  0  0  0
   59.8030   30.4230   49.5160 N   0  0  0  0  0  0  0  0  0  0  0  0
   58.6730   30.9340   50.3090 C   0  0  0  0  0  0  0  0  0  0  0  0
   58.3130   32.3680   49.8940 C   0  0  0  0  0  0  0  0  0  0  0  0
   59.5240   33.3230   49.9710 C   0  0  0  0  0  0  0  0  0  0  0  0
   60.5210   32.8220   50.9350 N   0  0  0  0  0  0  0  0  0  0  0  0
   61.6150   33.7770   51.1810 C   0  0  0  0  0  0  0  0  0  0  0  0
   62.9340   33.3520   50.5090 C   0  0  0  0  0  0  0  0  0  0  0  0
   62.6750   32.2730   49.5490 N   0  0  0  0  0  0  0  0  0  0  0  0
   63.3390   32.5470   48.2680 C   0  0  0  0  0  0  0  0  0  0  0  0
   62.8340   31.5940   47.1780 C   0  0  0  0  0  0  0  0  0  0  0  0
   61.5570   30.9770   47.5530 N   0  0  0  0  0  0  0  0  0  0  0  0
   60.4200   30.9840   46.6710 C   0  0  0  0  0  0  0  0  0  0  0  0
   59.7620   32.1910   46.3750 C   0  0  0  0  0  0  0  0  0  0  0  0
   60.2970   33.4270   46.7940 C   0  0  0  0  0  0  0  0  0  0  0  0
   59.6050   34.6150   46.5730 C   0  0  0  0  0  0  0  0  0  0  0  0
   58.3700   34.5900   45.9400 C   0  0  0  0  0  0  0  0  0  0  0  0
   57.8420   33.3840   45.4800 C   0  0  0  0  0  0  0  0  0  0  0  0
   58.5520   32.1650   45.6350 C   0  0  0  0  0  0  0  0  0  0  0  0
   58.0870   30.9750   45.1010 N   0  0  0  0  0  0  0  0  0  0  0  0
   56.9790   30.9860   44.1220 C   0  0  0  0  0  0  0  0  0  0  0  0
   58.6830   29.7750   45.4530 C   0  0  0  0  0  0  0  0  0  0  0  0
   58.1060   28.5240   45.1100 C   0  0  0  0  0  0  0  0  0  0  0  0
   58.7430   27.3240   45.4320 C   0  0  0  0  0  0  0  0  0  0  0  0
   59.9530   27.3380   46.1160 C   0  0  0  0  0  0  0  0  0  0  0  0
   60.5270   28.5460   46.4980 C   0  0  0  0  0  0  0  0  0  0  0  0
   59.8920   29.7720   46.1980 C   0  0  0  0  0  0  0  0  0  0  0  0
   67.2381   27.4336   52.1931 H   0  0  0  0  0  0  0  0  0  0  0  0
   66.2952   26.9061   50.7581 H   0  0  0  0  0  0  0  0  0  0  0  0
   67.1108   28.5066   50.7581 H   0  0  0  0  0  0  0  0  0  0  0  0
   64.4593   28.1529   51.3382 H   0  0  0  0  0  0  0  0  0  0  0  0
   65.1813   28.0271   52.9896 H   0  0  0  0  0  0  0  0  0  0  0  0
   67.4451   30.4479   52.4857 H   0  0  0  0  0  0  0  0  0  0  0  0
   67.2338   29.4988   50.9592 H   0  0  0  0  0  0  0  0  0  0  0  0
   66.7438   32.4512   51.4690 H   0  0  0  0  0  0  0  0  0  0  0  0
   67.6694   31.6574   50.1499 H   0  0  0  0  0  0  0  0  0  0  0  0
   65.8742   31.5966   50.1499 H   0  0  0  0  0  0  0  0  0  0  0  0
   64.4521   31.6519   51.4208 H   0  0  0  0  0  0  0  0  0  0  0  0
   64.5499   30.3665   50.1701 H   0  0  0  0  0  0  0  0  0  0  0  0
   63.1319   29.0029   52.0140 H   0  0  0  0  0  0  0  0  0  0  0  0
   62.6525   30.6931   52.4793 H   0  0  0  0  0  0  0  0  0  0  0  0
   62.0863   28.1925   49.7880 H   0  0  0  0  0  0  0  0  0  0  0  0
   61.3489   28.3270   51.4208 H   0  0  0  0  0  0  0  0  0  0  0  0
   60.0426   28.4379   48.8635 H   0  0  0  0  0  0  0  0  0  0  0  0
   59.3225   28.6466   50.5145 H   0  0  0  0  0  0  0  0  0  0  0  0
   60.6560   30.9670   49.7850 H   0  0  0  0  0  0  0  0  0  0  0  0
   57.7998   30.2840   50.1512 H   0  0  0  0  0  0  0  0  0  0  0  0
   58.9633   30.9388   51.3700 H   0  0  0  0  0  0  0  0  0  0  0  0
   57.9395   32.3534   48.8595 H   0  0  0  0  0  0  0  0  0  0  0  0
   57.5482   32.7381   50.5927 H   0  0  0  0  0  0  0  0  0  0  0  0
   59.9887   33.3981   48.9768 H   0  0  0  0  0  0  0  0  0  0  0  0
   59.1749   34.3115   50.3041 H   0  0  0  0  0  0  0  0  0  0  0  0
   60.9160   31.9130   50.5930 H   0  0  0  0  0  0  0  0  0  0  0  0
   61.3196   34.7605   50.7867 H   0  0  0  0  0  0  0  0  0  0  0  0
   61.7898   33.8112   52.2665 H   0  0  0  0  0  0  0  0  0  0  0  0
   63.3699   34.2135   49.9819 H   0  0  0  0  0  0  0  0  0  0  0  0
   63.6357   32.9952   51.2773 H   0  0  0  0  0  0  0  0  0  0  0  0
   61.6410   32.2290   49.3820 H   0  0  0  0  0  0  0  0  0  0  0  0
   63.1278   33.5837   47.9668 H   0  0  0  0  0  0  0  0  0  0  0  0
   64.4216   32.3976   48.3930 H   0  0  0  0  0  0  0  0  0  0  0  0
   62.6974   32.1592   46.2443 H   0  0  0  0  0  0  0  0  0  0  0  0
   63.5781   30.7947   47.0465 H   0  0  0  0  0  0  0  0  0  0  0  0
   61.4360   30.6240   48.5280 H   0  0  0  0  0  0  0  0  0  0  0  0
   61.2726   33.4528   47.3014 H   0  0  0  0  0  0  0  0  0  0  0  0
   60.0367   35.5725   46.8998 H   0  0  0  0  0  0  0  0  0  0  0  0
   57.8061   35.5241   45.8008 H   0  0  0  0  0  0  0  0  0  0  0  0
   56.8580   33.3775   44.9884 H   0  0  0  0  0  0  0  0  0  0  0  0
   56.0176   30.9955   44.6564 H   0  0  0  0  0  0  0  0  0  0  0  0
   57.0565   31.8834   43.4906 H   0  0  0  0  0  0  0  0  0  0  0  0
   57.0386   30.0872   43.4906 H   0  0  0  0  0  0  0  0  0  0  0  0
   57.1413   28.4997   44.5819 H   0  0  0  0  0  0  0  0  0  0  0  0
   58.2864   26.3656   45.1438 H   0  0  0  0  0  0  0  0  0  0  0  0
   60.4582   26.3908   46.3559 H   0  0  0  0  0  0  0  0  0  0  0  0
   61.4848   28.5469   47.0390 H   0  0  0  0  0  0  0  0  0  0  0  0
  1  2  1  0
  2  3  1  0
  3  4  1  0
  4  5  1  0
  3  6  1  0
  6  7  1  0
  7  8  1  0
  8  9  1  0
  9 10  1  0
 10 11  1  0
 11 12  1  0
 12 13  1  0
 13 14  1  0
 14 15  1  0
 15 16  1  0
 16 17  1  0
 17 18  1  0
 18 19  1  0
 19 20  1  0
 20 21  1  0
 21 22  1  0
 22 23  2  0
 23 24  1  0
 24 25  2  0
 25 26  1  0
 26 27  2  0
 27 28  1  0
 28 29  2  0
 29 30  1  0
 29 31  1  0
 31 32  2  0
 32 33  1  0
 33 34  2  0
 34 35  1  0
 35 36  2  0
 36 22  1  0
 28 23  1  0
 36 31  1  0
  1 37  1  0
  1 38  1  0
  1 39  1  0
  2 40  1  0
  2 41  1  0
  4 42  1  0
  4 43  1  0
  5 44  1  0
  5 45  1  0
  5 46  1  0
  6 47  1  0
  6 48  1  0
  7 49  1  0
  7 50  1  0
  9 51  1  0
  9 52  1  0
 10 53  1  0
 10 54  1  0
 11 55  1  0
 12 56  1  0
 12 57  1  0
 13 58  1  0
 13 59  1  0
 14 60  1  0
 14 61  1  0
 15 62  1  0
 16 63  1  0
 16 64  1  0
 17 65  1  0
 17 66  1  0
 18 67  1  0
 19 68  1  0
 19 69  1  0
 20 70  1  0
 20 71  1  0
 21 72  1  0
 24 73  1  0
 25 74  1  0
 26 75  1  0
 27 76  1  0
 30 77  1  0
 30 78  1  0
 30 79  1  0
 32 80  1  0
 33 81  1  0
 34 82  1  0
 35 83  1  0
M  CHG  1  29   1
M  END
>  <UniqueID>  (3) 
3

>  <SMILES>  (3) 
CCN(CC)CCOCCNCCCNCCNCCNc1c2ccccc2[n+](C)c2ccccc12

>  <Energy>  (3) 
98.62733520111176

>  <Genealogy>  (3) 
CCN(CC)CCOCCNCCCNCCNCCNc1c2ccccc2[n+](C)c2ccccc12 (3D coordinates assigned)
CCN(CC)CCOCCNCCCNCCNCCNc1c2ccccc2[n+](C)c2ccccc12 (optimized conformer: 98.62733520111176 kcal/mol)

>  <smiles>  (3) 
CCN(CC)CCOCCNCCCNCCNCCNc1c2ccccc2[n+](C)c2ccccc12

>  <score_type>  (3) 
oracle

>  <origin>  (3) 
adg

>  <m_score__min__energy>  (3) 
-6.54

>  <m_primary>  (3) 
energy

$$$$
3:0
     RDKit          3D

 35 37  0  0  0  0  0  0  0  0999 V2000
   58.1650   22.0400   45.3500 C   0  0  0  0  0  0  0  0  0  0  0  0
   57.9970   22.9960   46.3920 O   0  0  0  0  0  0  0  0  0  0  0  0
   57.7510   24.3620   46.1810 C   0  0  0  0  0  0  0  0  0  0  0  0
   58.7670   25.1410   45.6130 C   0  0  0  0  0  0  0  0  0  0  0  0
   58.5700   26.5050   45.3820 C   0  0  0  0  0  0  0  0  0  0  0  0
   57.3460   27.1100   45.7020 C   0  0  0  0  0  0  0  0  0  0  0  0
   57.1630   28.5600   45.4680 C   0  0  0  0  0  0  0  0  0  0  0  0
   56.0610   29.0720   44.8840 N   0  0  0  0  0  0  0  0  0  0  0  0
   56.2190   30.3860   44.8350 N   0  0  0  0  0  0  0  0  0  0  0  0
   57.4110   30.6640   45.3970 C   0  0  0  0  0  0  0  0  0  0  0  0
   57.9590   32.0330   45.5050 C   0  0  0  0  0  0  0  0  0  0  0  0
   58.2640   32.5530   46.7750 C   0  0  0  0  0  0  0  0  0  0  0  0
   58.8040   33.8350   46.9050 C   0  0  0  0  0  0  0  0  0  0  0  0
   59.0490   34.6080   45.7700 C   0  0  0  0  0  0  0  0  0  0  0  0
   58.7530   34.1030   44.5020 C   0  0  0  0  0  0  0  0  0  0  0  0
   58.2120   32.8190   44.3590 C   0  0  0  0  0  0  0  0  0  0  0  0
   57.7810   32.2170   42.5890 Br  0  0  0  0  0  0  0  0  0  0  0  0
   58.0300   29.5370   45.8160 N   0  0  0  0  0  0  0  0  0  0  0  0
   59.2760   29.4280   46.5760 C   0  0  0  0  0  0  0  0  0  0  0  0
   56.3330   26.3360   46.2910 C   0  0  0  0  0  0  0  0  0  0  0  0
   56.5300   24.9710   46.5230 C   0  0  0  0  0  0  0  0  0  0  0  0
   58.3396   21.0464   45.7886 H   0  0  0  0  0  0  0  0  0  0  0  0
   57.2580   22.0121   44.7283 H   0  0  0  0  0  0  0  0  0  0  0  0
   59.0272   22.3230   44.7283 H   0  0  0  0  0  0  0  0  0  0  0  0
   59.7274   24.6755   45.3467 H   0  0  0  0  0  0  0  0  0  0  0  0
   59.3803   27.1081   44.9463 H   0  0  0  0  0  0  0  0  0  0  0  0
   58.0761   31.9461   47.6730 H   0  0  0  0  0  0  0  0  0  0  0  0
   59.0361   34.2350   47.9030 H   0  0  0  0  0  0  0  0  0  0  0  0
   59.4758   35.6165   45.8738 H   0  0  0  0  0  0  0  0  0  0  0  0
   58.9459   34.7174   43.6102 H   0  0  0  0  0  0  0  0  0  0  0  0
   59.0517   29.4476   47.6527 H   0  0  0  0  0  0  0  0  0  0  0  0
   59.7781   28.4825   46.3233 H   0  0  0  0  0  0  0  0  0  0  0  0
   59.9347   30.2720   46.3233 H   0  0  0  0  0  0  0  0  0  0  0  0
   55.3789   26.8062   46.5715 H   0  0  0  0  0  0  0  0  0  0  0  0
   55.7265   24.3709   46.9750 H   0  0  0  0  0  0  0  0  0  0  0  0
  1  2  1  0
  2  3  1  0
  3  4  2  0
  4  5  1  0
  5  6  2  0
  6  7  1  0
  7  8  2  0
  8  9  1  0
  9 10  2  0
 10 11  1  0
 11 12  2  0
 12 13  1  0
 13 14  2  0
 14 15  1  0
 15 16  2  0
 16 17  1  0
 10 18  1  0
 18 19  1  0
  6 20  1  0
 20 21  2  0
 21  3  1  0
 18  7  1  0
 16 11  1  0
  1 22  1  0
  1 23  1  0
  1 24  1  0
  4 25  1  0
  5 26  1  0
 12 27  1  0
 13 28  1  0
 14 29  1  0
 15 30  1  0
 19 31  1  0
 19 32  1  0
 19 33  1  0
 20 34  1  0
 21 35  1  0
M  END
>  <UniqueID>  (4) 
4

>  <SMILES>  (4) 
COc1ccc(-c2nnc(-c3ccccc3Br)n2C)cc1

>  <Energy>  (4) 
82.45086124740791

>  <Genealogy>  (4) 
COc1ccc(-c2nnc(-c3ccccc3Br)n2C)cc1 (3D coordinates assigned)
COc1ccc(-c2nnc(-c3ccccc3Br)n2C)cc1 (optimized conformer: 82.45086124740791 kcal/mol)

>  <smiles>  (4) 
COc1ccc(-c2nnc(-c3ccccc3Br)n2C)cc1

>  <score_type>  (4) 
oracle

>  <origin>  (4) 
adg

>  <m_score__min__energy>  (4) 
-7.9100000000000001

>  <m_primary>  (4) 
energy

$$$$
4:0
     RDKit          3D

 47 49  0  0  0  0  0  0  0  0999 V2000
   63.3950   33.8500   47.3280 C   0  0  0  0  0  0  0  0  0  0  0  0
   63.6410   32.4240   47.5610 N   0  0  0  0  0  0  0  0  0  0  0  0
   62.8770   31.9280   48.7150 C   0  0  0  0  0  0  0  0  0  0  0  0
   61.6260   31.1720   48.2410 C   0  0  0  0  0  0  0  0  0  0  0  0
   61.4940   31.1550   46.7730 N   0  0  0  0  0  0  0  0  0  0  0  0
   60.1270   30.8580   46.3610 C   0  0  0  0  0  0  0  0  0  0  0  0
   59.2630   31.9190   46.0090 C   0  0  0  0  0  0  0  0  0  0  0  0
   58.1320   31.6720   45.1980 C   0  0  0  0  0  0  0  0  0  0  0  0
   57.7850   30.3760   44.8740 N   0  0  0  0  0  0  0  0  0  0  0  0
   56.6780   30.1170   43.9260 C   0  0  0  0  0  0  0  0  0  0  0  0
   58.4510   29.3130   45.4560 C   0  0  0  0  0  0  0  0  0  0  0  0
   57.9560   27.9880   45.3480 C   0  0  0  0  0  0  0  0  0  0  0  0
   58.6700   26.9070   45.8560 C   0  0  0  0  0  0  0  0  0  0  0  0
   59.8850   27.1130   46.4910 C   0  0  0  0  0  0  0  0  0  0  0  0
   60.3830   28.4040   46.6500 C   0  0  0  0  0  0  0  0  0  0  0  0
   59.6700   29.5270   46.1620 C   0  0  0  0  0  0  0  0  0  0  0  0
   57.3840   32.8620   44.5880 C   0  0  0  0  0  0  0  0  0  0  0  0
   57.6950   34.2270   45.2180 C   0  0  0  0  0  0  0  0  0  0  0  0
   59.1780   34.3480   45.5400 C   0  0  0  0  0  0  0  0  0  0  0  0
   59.5270   33.2660   46.4520 N   0  0  0  0  0  0  0  0  0  0  0  0
   59.5470   33.5680   47.8880 C   0  0  0  0  0  0  0  0  0  0  0  0
   63.3054   34.3692   48.2936 H   0  0  0  0  0  0  0  0  0  0  0  0
   64.2325   34.2782   46.7578 H   0  0  0  0  0  0  0  0  0  0  0  0
   62.4624   33.9728   46.7578 H   0  0  0  0  0  0  0  0  0  0  0  0
   64.6600   32.3220   47.7780 H   0  0  0  0  0  0  0  0  0  0  0  0
   63.5101   31.2485   49.3044 H   0  0  0  0  0  0  0  0  0  0  0  0
   62.5657   32.7834   49.3325 H   0  0  0  0  0  0  0  0  0  0  0  0
   61.6843   30.1343   48.6012 H   0  0  0  0  0  0  0  0  0  0  0  0
   60.7478   31.6948   48.6476 H   0  0  0  0  0  0  0  0  0  0  0  0
   61.8730   32.0320   46.3620 H   0  0  0  0  0  0  0  0  0  0  0  0
   62.1490   30.4230   46.4240 H   0  0  0  0  0  0  0  0  0  0  0  0
   55.7571   29.9015   44.4877 H   0  0  0  0  0  0  0  0  0  0  0  0
   56.5225   31.0030   43.2929 H   0  0  0  0  0  0  0  0  0  0  0  0
   56.9318   29.2540   43.2929 H   0  0  0  0  0  0  0  0  0  0  0  0
   56.9895   27.8117   44.8533 H   0  0  0  0  0  0  0  0  0  0  0  0
   58.2698   25.8875   45.7536 H   0  0  0  0  0  0  0  0  0  0  0  0
   60.4577   26.2540   46.8706 H   0  0  0  0  0  0  0  0  0  0  0  0
   61.3447   28.5541   47.1624 H   0  0  0  0  0  0  0  0  0  0  0  0
   57.6423   32.9141   43.5200 H   0  0  0  0  0  0  0  0  0  0  0  0
   56.3159   32.6775   44.7754 H   0  0  0  0  0  0  0  0  0  0  0  0
   57.4130   35.0225   44.5126 H   0  0  0  0  0  0  0  0  0  0  0  0
   57.1222   34.3231   46.1522 H   0  0  0  0  0  0  0  0  0  0  0  0
   59.7693   34.2638   44.6163 H   0  0  0  0  0  0  0  0  0  0  0  0
   59.3920   35.3231   46.0019 H   0  0  0  0  0  0  0  0  0  0  0  0
   59.4849   32.6309   48.4607 H   0  0  0  0  0  0  0  0  0  0  0  0
   60.4817   34.0904   48.1398 H   0  0  0  0  0  0  0  0  0  0  0  0
   58.6893   34.2091   48.1398 H   0  0  0  0  0  0  0  0  0  0  0  0
  1  2  1  0
  2  3  1  0
  3  4  1  0
  4  5  1  0
  5  6  1  0
  6  7  2  0
  7  8  1  0
  8  9  2  0
  9 10  1  0
  9 11  1  0
 11 12  2  0
 12 13  1  0
 13 14  2  0
 14 15  1  0
 15 16  2  0
  8 17  1  0
 17 18  1  0
 18 19  1  0
 19 20  1  0
 20 21  1  0
 16  6  1  0
 20  7  1  0
 16 11  1  0
  1 22  1  0
  1 23  1  0
  1 24  1  0
  2 25  1  0
  3 26  1  0
  3 27  1  0
  4 28  1  0
  4 29  1  0
  5 30  1  0
  5 31  1  0
 10 32  1  0
 10 33  1  0
 10 34  1  0
 12 35  1  0
 13 36  1  0
 14 37  1  0
 15 38  1  0
 17 39  1  0
 17 40  1  0
 18 41  1  0
 18 42  1  0
 19 43  1  0
 19 44  1  0
 21 45  1  0
 21 46  1  0
 21 47  1  0
M  CHG  2   5   1   9   1
M  END
>  <UniqueID>  (5) 
5

>  <SMILES>  (5) 
CNCC[NH2+]c1c2c([n+](C)c3ccccc13)CCCN2C

>  <Energy>  (5) 
75.35732549396668

>  <Genealogy>  (5) 
CNCC[NH2+]c1c2c([n+](C)c3ccccc13)CCCN2C (protonated)
CNCC[NH2+]c1c2c([n+](C)c3ccccc13)CCCN2C (3D coordinates assigned)
CNCC[NH2+]c1c2c([n+](C)c3ccccc13)CCCN2C (nonaromatic ring conformer: 75.35732549396668 kcal/mol)

>  <smiles>  (5) 
CNCCNc1c2c([n+](C)c3ccccc13)CCCN2C

>  <score_type>  (5) 
oracle

>  <origin>  (5) 
adg

>  <m_score__min__energy>  (5) 
-3.6800000000000002

>  <m_primary>  (5) 
energy

$$$$
5:0
     RDKit          3D

 58 60  0  0  0  0  0  0  0  0999 V2000
   57.0210   30.8140   43.5600 C   0  0  0  0  0  0  0  0  0  0  0  0
   56.8550   29.4300   44.1950 C   0  0  0  0  0  0  0  0  0  0  0  0
   57.4580   28.3620   43.3730 N   0  0  0  0  0  0  0  0  0  0  0  0
   58.4290   27.5350   44.1180 C   0  0  0  0  0  0  0  0  0  0  0  0
   58.8700   28.2040   45.4340 C   0  0  0  0  0  0  0  0  0  0  0  0
   59.1520   27.1720   46.5320 C   0  0  0  0  0  0  0  0  0  0  0  0
   60.2130   27.6610   47.4290 N   0  0  0  0  0  0  0  0  0  0  0  0
   60.1800   29.1200   47.6110 C   0  0  0  0  0  0  0  0  0  0  0  0
   59.1380   29.5490   48.6570 C   0  0  0  0  0  0  0  0  0  0  0  0
   59.5320   30.8070   49.2890 N   0  0  0  0  0  0  0  0  0  0  0  0
   60.4690   31.7010   48.6630 C   0  0  0  0  0  0  0  0  0  0  0  0
   61.8000   31.7620   49.1090 C   0  0  0  0  0  0  0  0  0  0  0  0
   62.2100   31.0540   50.2590 C   0  0  0  0  0  0  0  0  0  0  0  0
   63.5200   31.1480   50.7210 C   0  0  0  0  0  0  0  0  0  0  0  0
   64.4350   31.9630   50.0650 C   0  0  0  0  0  0  0  0  0  0  0  0
   64.0490   32.6770   48.9300 C   0  0  0  0  0  0  0  0  0  0  0  0
   62.7340   32.5730   48.4100 C   0  0  0  0  0  0  0  0  0  0  0  0
   62.3460   33.2500   47.2690 N   0  0  0  0  0  0  0  0  0  0  0  0
   63.3670   33.8490   46.3800 C   0  0  0  0  0  0  0  0  0  0  0  0
   61.0040   33.3490   46.9470 C   0  0  0  0  0  0  0  0  0  0  0  0
   60.5400   34.2430   45.9490 C   0  0  0  0  0  0  0  0  0  0  0  0
   59.1930   34.2920   45.5950 C   0  0  0  0  0  0  0  0  0  0  0  0
   58.2610   33.4770   46.2410 C   0  0  0  0  0  0  0  0  0  0  0  0
   56.8190   33.4990   45.8290 C   0  0  0  0  0  0  0  0  0  0  0  0
   58.6900   32.6060   47.2470 C   0  0  0  0  0  0  0  0  0  0  0  0
   60.0480   32.5490   47.6260 C   0  0  0  0  0  0  0  0  0  0  0  0
   57.1119   31.5722   44.3518 H   0  0  0  0  0  0  0  0  0  0  0  0
   57.9269   30.8249   42.9361 H   0  0  0  0  0  0  0  0  0  0  0  0
   56.1434   31.0388   42.9361 H   0  0  0  0  0  0  0  0  0  0  0  0
   57.3397   29.4331   45.1824 H   0  0  0  0  0  0  0  0  0  0  0  0
   55.7776   29.2241   44.2778 H   0  0  0  0  0  0  0  0  0  0  0  0
   57.9390   28.7860   42.5450 H   0  0  0  0  0  0  0  0  0  0  0  0
   56.6940   27.7530   42.9950 H   0  0  0  0  0  0  0  0  0  0  0  0
   57.9642   26.5657   44.3512 H   0  0  0  0  0  0  0  0  0  0  0  0
   59.3209   27.4082   43.4868 H   0  0  0  0  0  0  0  0  0  0  0  0
   59.7853   28.7853   45.2484 H   0  0  0  0  0  0  0  0  0  0  0  0
   58.0515   28.8534   45.7779 H   0  0  0  0  0  0  0  0  0  0  0  0
   58.2344   27.0007   47.1140 H   0  0  0  0  0  0  0  0  0  0  0  0
   59.4815   26.2320   46.0652 H   0  0  0  0  0  0  0  0  0  0  0  0
   61.1510   27.3750   47.0610 H   0  0  0  0  0  0  0  0  0  0  0  0
   61.1734   29.4589   47.9402 H   0  0  0  0  0  0  0  0  0  0  0  0
   59.9015   29.5751   46.6491 H   0  0  0  0  0  0  0  0  0  0  0  0
   58.1638   29.6817   48.1637 H   0  0  0  0  0  0  0  0  0  0  0  0
   59.0696   28.7696   49.4302 H   0  0  0  0  0  0  0  0  0  0  0  0
   59.0830   31.0920   50.1870 H   0  0  0  0  0  0  0  0  0  0  0  0
   61.4874   30.4216   50.7956 H   0  0  0  0  0  0  0  0  0  0  0  0
   63.8316   30.5759   51.6073 H   0  0  0  0  0  0  0  0  0  0  0  0
   65.4654   32.0453   50.4413 H   0  0  0  0  0  0  0  0  0  0  0  0
   64.7776   33.3320   48.4299 H   0  0  0  0  0  0  0  0  0  0  0  0
   64.1571   34.3125   46.9891 H   0  0  0  0  0  0  0  0  0  0  0  0
   63.8058   33.0651   45.7452 H   0  0  0  0  0  0  0  0  0  0  0  0
   62.8968   34.6145   45.7452 H   0  0  0  0  0  0  0  0  0  0  0  0
   61.2557   34.9095   45.4454 H   0  0  0  0  0  0  0  0  0  0  0  0
   58.8616   34.9775   44.8011 H   0  0  0  0  0  0  0  0  0  0  0  0
   56.1816   33.5087   46.7255 H   0  0  0  0  0  0  0  0  0  0  0  0
   56.6226   34.4002   45.2297 H   0  0  0  0  0  0  0  0  0  0  0  0
   56.5952   32.6042   45.2297 H   0  0  0  0  0  0  0  0  0  0  0  0
   57.9588   31.9562   47.7500 H   0  0  0  0  0  0  0  0  0  0  0  0
  1  2  1  0
  2  3  1  0
  3  4  1  0
  4  5  1  0
  5  6  1  0
  6  7  1  0
  7  8  1  0
  8  9  1  0
  9 10  1  0
 10 11  1  0
 11 12  2  0
 12 13  1  0
 13 14  2  0
 14 15  1  0
 15 16  2  0
 16 17  1  0
 17 18  2  0
 18 19  1  0
 18 20  1  0
 20 21  2  0
 21 22  1  0
 22 23  2  0
 23 24  1  0
 23 25  1  0
 25 26  2  0
 26 11  1  0
 17 12  1  0
 26 20  1  0
  1 27  1  0
  1 28  1  0
  1 29  1  0
  2 30  1  0
  2 31  1  0
  3 32  1  0
  3 33  1  0
  4 34  1  0
  4 35  1  0
  5 36  1  0
  5 37  1  0
  6 38  1  0
  6 39  1  0
  7 40  1  0
  8 41  1  0
  8 42  1  0
  9 43  1  0
  9 44  1  0
 10 45  1  0
 13 46  1  0
 14 47  1  0
 15 48  1  0
 16 49  1  0
 19 50  1  0
 19 51  1  0
 19 52  1  0
 21 53  1  0
 22 54  1  0
 24 55  1  0
 24 56  1  0
 24 57  1  0
 25 58  1  0
M  CHG  2   3   1  18   1
M  END
>  <UniqueID>  (6) 
6

>  <SMILES>  (6) 
CC[NH2+]CCCNCCNc1c2ccccc2[n+](C)c2ccc(C)cc12

>  <Energy>  (6) 
79.61240186667258

>  <Genealogy>  (6) 
CC[NH2+]CCCNCCNc1c2ccccc2[n+](C)c2ccc(C)cc12 (protonated)
CC[NH2+]CCCNCCNc1c2ccccc2[n+](C)c2ccc(C)cc12 (3D coordinates assigned)
CC[NH2+]CCCNCCNc1c2ccccc2[n+](C)c2ccc(C)cc12 (optimized conformer: 79.61240186667258 kcal/mol)

>  <smiles>  (6) 
CCNCCCNCCNc1c2ccccc2[n+](C)c2ccc(C)cc12

>  <score_type>  (6) 
oracle

>  <origin>  (6) 
adg

>  <m_score__min__energy>  (6) 
-4.5800000000000001

>  <m_primary>  (6) 
energy

$$$$
6:0
     RDKit          3D

 52 54  0  0  0  0  0  0  0  0999 V2000
   59.5210   34.8530   47.6680 C   0  0  0  0  0  0  0  0  0  0  0  0
   59.0570   34.9650   46.2210 C   0  0  0  0  0  0  0  0  0  0  0  0
   57.8960   33.6700   45.8180 S   0  0  0  0  0  0  0  0  0  0  0  0
   56.6510   34.2730   45.2310 O   0  0  0  0  0  0  0  0  0  0  0  0
   57.5550   32.9180   47.0750 O   0  0  0  0  0  0  0  0  0  0  0  0
   58.6300   32.5960   44.6730 N   0  0  0  0  0  0  0  0  0  0  0  0
   58.1100   31.3230   44.2610 C   0  0  0  0  0  0  0  0  0  0  0  0
   57.0630   31.2320   43.3240 C   0  0  0  0  0  0  0  0  0  0  0  0
   56.5360   29.9890   42.9700 C   0  0  0  0  0  0  0  0  0  0  0  0
   57.0550   28.8220   43.5330 C   0  0  0  0  0  0  0  0  0  0  0  0
   58.0970   28.8950   44.4560 C   0  0  0  0  0  0  0  0  0  0  0  0
   58.6290   30.1400   44.8410 C   0  0  0  0  0  0  0  0  0  0  0  0
   59.7420   30.1950   45.8220 C   0  0  0  0  0  0  0  0  0  0  0  0
   60.7120   29.3940   45.6940 O   0  0  0  0  0  0  0  0  0  0  0  0
   59.7500   31.1580   46.9060 N   0  0  2  0  0  0  0  0  0  0  0  0
   61.0980   31.8010   47.0260 C   0  0  0  0  0  0  0  0  0  0  0  0
   61.6170   31.9720   48.4720 C   0  0  0  0  0  0  0  0  0  0  0  0
   60.4940   32.2280   49.4340 C   0  0  0  0  0  0  0  0  0  0  0  0
   60.6270   33.1230   50.5020 C   0  0  0  0  0  0  0  0  0  0  0  0
   59.5730   33.2950   51.4210 C   0  0  0  0  0  0  0  0  0  0  0  0
   59.6630   34.1900   52.4990 O   0  0  0  0  0  0  0  0  0  0  0  0
   59.7330   33.8040   53.8670 C   0  0  0  0  0  0  0  0  0  0  0  0
   58.3890   32.5520   51.2700 C   0  0  0  0  0  0  0  0  0  0  0  0
   57.3570   32.7480   52.2010 O   0  0  0  0  0  0  0  0  0  0  0  0
   56.2560   31.8630   52.3880 C   0  0  0  0  0  0  0  0  0  0  0  0
   58.2720   31.6380   50.2030 C   0  0  0  0  0  0  0  0  0  0  0  0
   59.3230   31.4820   49.2900 C   0  0  0  0  0  0  0  0  0  0  0  0
   59.2550   30.5130   48.1440 C   0  0  0  0  0  0  0  0  0  0  0  0
   58.6753   35.0571   48.3411 H   0  0  0  0  0  0  0  0  0  0  0  0
   59.9006   33.8374   47.8538 H   0  0  0  0  0  0  0  0  0  0  0  0
   60.3221   35.5836   47.8538 H   0  0  0  0  0  0  0  0  0  0  0  0
   58.5721   35.9413   46.0735 H   0  0  0  0  0  0  0  0  0  0  0  0
   59.9335   34.8662   45.5638 H   0  0  0  0  0  0  0  0  0  0  0  0
   56.6575   32.1471   42.8677 H   0  0  0  0  0  0  0  0  0  0  0  0
   55.7101   29.9290   42.2459 H   0  0  0  0  0  0  0  0  0  0  0  0
   56.6412   27.8435   43.2480 H   0  0  0  0  0  0  0  0  0  0  0  0
   58.5076   27.9704   44.8878 H   0  0  0  0  0  0  0  0  0  0  0  0
   59.0730   31.9250   46.6800 H   0  0  0  0  0  0  0  0  0  0  0  0
   61.8212   31.1814   46.4755 H   0  0  0  0  0  0  0  0  0  0  0  0
   60.9903   32.8166   46.6173 H   0  0  0  0  0  0  0  0  0  0  0  0
   62.1434   31.0544   48.7734 H   0  0  0  0  0  0  0  0  0  0  0  0
   62.2945   32.8383   48.4948 H   0  0  0  0  0  0  0  0  0  0  0  0
   61.5588   33.6947   50.6244 H   0  0  0  0  0  0  0  0  0  0  0  0
   59.5731   34.6855   54.5053 H   0  0  0  0  0  0  0  0  0  0  0  0
   58.9563   33.0538   54.0765 H   0  0  0  0  0  0  0  0  0  0  0  0
   60.7237   33.3744   54.0765 H   0  0  0  0  0  0  0  0  0  0  0  0
   56.0788   31.7205   53.4642 H   0  0  0  0  0  0  0  0  0  0  0  0
   55.3570   32.2927   51.9221 H   0  0  0  0  0  0  0  0  0  0  0  0
   56.4823   30.8926   51.9221 H   0  0  0  0  0  0  0  0  0  0  0  0
   57.3525   31.0455   50.0870 H   0  0  0  0  0  0  0  0  0  0  0  0
   59.8777   29.6352   48.3716 H   0  0  0  0  0  0  0  0  0  0  0  0
   58.2106   30.2009   47.9961 H   0  0  0  0  0  0  0  0  0  0  0  0
  1  2  1  0
  2  3  1  0
  3  4  2  0
  3  5  2  0
  3  6  1  0
  6  7  1  0
  7  8  2  0
  8  9  1  0
  9 10  2  0
 10 11  1  0
 11 12  2  0
 12 13  1  0
 13 14  2  0
 13 15  1  0
 15 16  1  0
 16 17  1  0
 17 18  1  0
 18 19  2  0
 19 20  1  0
 20 21  1  0
 21 22  1  0
 20 23  2  0
 23 24  1  0
 24 25  1  0
 23 26  1  0
 26 27  2  0
 27 28  1  0
 12  7  1  0
 28 15  1  0
 27 18  1  0
  1 29  1  0
  1 30  1  0
  1 31  1  0
  2 32  1  0
  2 33  1  0
  8 34  1  0
  9 35  1  0
 10 36  1  0
 11 37  1  0
 15 38  1  6
 16 39  1  0
 16 40  1  0
 17 41  1  0
 17 42  1  0
 19 43  1  0
 22 44  1  0
 22 45  1  0
 22 46  1  0
 25 47  1  0
 25 48  1  0
 25 49  1  0
 26 50  1  0
 28 51  1  0
 28 52  1  0
M  CHG  2   6  -1  15   1
M  END
>  <UniqueID>  (7) 
7

>  <SMILES>  (7) 
CCS(=O)(=O)[N-]c1ccccc1C(=O)[N@@H+]1CCc2cc(OC)c(OC)cc2C1

>  <Energy>  (7) 
65.57508472290934

>  <Genealogy>  (7) 
CCS(=O)(=O)[N-]c1ccccc1C(=O)[NH+]1CCc2cc(OC)c(OC)cc2C1 (protonated)
CCS(=O)(=O)[N-]c1ccccc1C(=O)[N@@H+]1CCc2cc(OC)c(OC)cc2C1 (chirality)
CCS(=O)(=O)[N-]c1ccccc1C(=O)[N@@H+]1CCc2cc(OC)c(OC)cc2C1 (3D coordinates assigned)
CCS(=O)(=O)[N-]c1ccccc1C(=O)[N@@H+]1CCc2cc(OC)c(OC)cc2C1 (nonaromatic ring conformer: 65.57508472290934 kcal/mol)

>  <smiles>  (7) 
CCS(=O)(=O)Nc1ccccc1C(=O)N1CCc2cc(OC)c(OC)cc2C1

>  <score_type>  (7) 
oracle

>  <origin>  (7) 
adg

>  <m_score__min__energy>  (7) 
-6.6799999999999997

>  <m_primary>  (7) 
energy

$$$$
7:0
     RDKit          3D

 67 69  0  0  0  0  0  0  0  0999 V2000
   66.3840   33.2720   50.5280 C   0  0  0  0  0  0  0  0  0  0  0  0
   65.6640   31.9600   50.1700 C   0  0  0  0  0  0  0  0  0  0  0  0
   64.1890   32.0630   49.9550 N   0  0  0  0  0  0  0  0  0  0  0  0
   63.4290   30.9640   50.6070 C   0  0  0  0  0  0  0  0  0  0  0  0
   62.0040   31.3330   51.0330 C   0  0  0  0  0  0  0  0  0  0  0  0
   63.5920   33.3990   50.2230 C   0  0  0  0  0  0  0  0  0  0  0  0
   63.2770   34.1690   48.9260 C   0  0  0  0  0  0  0  0  0  0  0  0
   64.1510   33.7660   47.8900 O   0  0  0  0  0  0  0  0  0  0  0  0
   63.4240   33.3840   46.7400 C   0  0  0  0  0  0  0  0  0  0  0  0
   62.0520   32.8450   47.1580 C   0  0  0  0  0  0  0  0  0  0  0  0
   62.1560   31.6430   47.9010 O   0  0  0  0  0  0  0  0  0  0  0  0
   61.5150   30.5780   47.2290 C   0  0  0  0  0  0  0  0  0  0  0  0
   60.5920   29.8540   48.2070 C   0  0  0  0  0  0  0  0  0  0  0  0
   59.1860   30.0870   47.8730 N   0  0  0  0  0  0  0  0  0  0  0  0
   58.7510   30.2600   46.5130 C   0  0  0  0  0  0  0  0  0  0  0  0
   58.5050   29.1430   45.6970 C   0  0  0  0  0  0  0  0  0  0  0  0
   58.8130   27.8400   46.1420 C   0  0  0  0  0  0  0  0  0  0  0  0
   58.6070   26.7390   45.3140 C   0  0  0  0  0  0  0  0  0  0  0  0
   58.1140   26.9170   44.0280 C   0  0  0  0  0  0  0  0  0  0  0  0
   57.8070   28.1970   43.5640 C   0  0  0  0  0  0  0  0  0  0  0  0
   57.9710   29.3350   44.3940 C   0  0  0  0  0  0  0  0  0  0  0  0
   57.6460   30.6070   43.9600 N   0  0  0  0  0  0  0  0  0  0  0  0
   56.8260   30.7860   42.7400 C   0  0  0  0  0  0  0  0  0  0  0  0
   58.0750   31.7110   44.6730 C   0  0  0  0  0  0  0  0  0  0  0  0
   58.0040   33.0210   44.1370 C   0  0  0  0  0  0  0  0  0  0  0  0
   58.3920   34.1310   44.8860 C   0  0  0  0  0  0  0  0  0  0  0  0
   58.8870   33.9710   46.1810 C   0  0  0  0  0  0  0  0  0  0  0  0
   59.2730   35.1650   47.0010 C   0  0  0  0  0  0  0  0  0  0  0  0
   58.9880   32.6870   46.7250 C   0  0  0  0  0  0  0  0  0  0  0  0
   58.6090   31.5510   45.9780 C   0  0  0  0  0  0  0  0  0  0  0  0
   66.4395   33.3731   51.6219 H   0  0  0  0  0  0  0  0  0  0  0  0
   67.4010   33.2583   50.1090 H   0  0  0  0  0  0  0  0  0  0  0  0
   65.8262   34.1225   50.1090 H   0  0  0  0  0  0  0  0  0  0  0  0
   66.1132   31.5707   49.2444 H   0  0  0  0  0  0  0  0  0  0  0  0
   65.7926   31.3022   51.0422 H   0  0  0  0  0  0  0  0  0  0  0  0
   64.0450   31.8860   48.9310 H   0  0  0  0  0  0  0  0  0  0  0  0
   63.3680   30.1237   49.8998 H   0  0  0  0  0  0  0  0  0  0  0  0
   63.9737   30.7158   51.5299 H   0  0  0  0  0  0  0  0  0  0  0  0
   61.9421   31.3490   52.1311 H   0  0  0  0  0  0  0  0  0  0  0  0
   61.7486   32.3269   50.6368 H   0  0  0  0  0  0  0  0  0  0  0  0
   61.2983   30.5880   50.6368 H   0  0  0  0  0  0  0  0  0  0  0  0
   62.6587   33.2624   50.7890 H   0  0  0  0  0  0  0  0  0  0  0  0
   64.3254   33.9871   50.7941 H   0  0  0  0  0  0  0  0  0  0  0  0
   62.2391   33.9635   48.6253 H   0  0  0  0  0  0  0  0  0  0  0  0
   63.4112   35.2455   49.1081 H   0  0  0  0  0  0  0  0  0  0  0  0
   63.2906   34.2568   46.0840 H   0  0  0  0  0  0  0  0  0  0  0  0
   63.9766   32.6006   46.2006 H   0  0  0  0  0  0  0  0  0  0  0  0
   61.5468   33.6017   47.7762 H   0  0  0  0  0  0  0  0  0  0  0  0
   61.4794   32.6300   46.2438 H   0  0  0  0  0  0  0  0  0  0  0  0
   60.9246   30.9741   46.3897 H   0  0  0  0  0  0  0  0  0  0  0  0
   62.2688   29.8765   46.8421 H   0  0  0  0  0  0  0  0  0  0  0  0
   60.7978   28.7743   48.1634 H   0  0  0  0  0  0  0  0  0  0  0  0
   60.7804   30.2421   49.2189 H   0  0  0  0  0  0  0  0  0  0  0  0
   58.4680   30.0230   48.6280 H   0  0  0  0  0  0  0  0  0  0  0  0
   59.2200   27.6921   47.1532 H   0  0  0  0  0  0  0  0  0  0  0  0
   58.8352   25.7269   45.6794 H   0  0  0  0  0  0  0  0  0  0  0  0
   57.9649   26.0461   43.3728 H   0  0  0  0  0  0  0  0  0  0  0  0
   57.4318   28.3251   42.5379 H   0  0  0  0  0  0  0  0  0  0  0  0
   55.7882   31.0125   43.0257 H   0  0  0  0  0  0  0  0  0  0  0  0
   57.2319   31.6167   42.1440 H   0  0  0  0  0  0  0  0  0  0  0  0
   56.8488   29.8617   42.1440 H   0  0  0  0  0  0  0  0  0  0  0  0
   57.6358   33.1647   43.1105 H   0  0  0  0  0  0  0  0  0  0  0  0
   58.3075   35.1389   44.4537 H   0  0  0  0  0  0  0  0  0  0  0  0
   59.1929   34.9172   48.0697 H   0  0  0  0  0  0  0  0  0  0  0  0
   60.3093   35.4507   46.7675 H   0  0  0  0  0  0  0  0  0  0  0  0
   58.6001   36.0032   46.7675 H   0  0  0  0  0  0  0  0  0  0  0  0
   59.3681   32.5604   47.7494 H   0  0  0  0  0  0  0  0  0  0  0  0
  1  2  1  0
  2  3  1  0
  3  4  1  0
  4  5  1  0
  3  6  1  0
  6  7  1  0
  7  8  1  0
  8  9  1  0
  9 10  1  0
 10 11  1  0
 11 12  1  0
 12 13  1  0
 13 14  1  0
 14 15  1  0
 15 16  2  0
 16 17  1  0
 17 18  2  0
 18 19  1  0
 19 20  2  0
 20 21  1  0
 21 22  2  0
 22 23  1  0
 22 24  1  0
 24 25  2  0
 25 26  1  0
 26 27  2  0
 27 28  1  0
 27 29  1  0
 29 30  2  0
 30 15  1  0
 21 16  1  0
 30 24  1  0
  1 31  1  0
  1 32  1  0
  1 33  1  0
  2 34  1  0
  2 35  1  0
  3 36  1  0
  4 37  1  0
  4 38  1  0
  5 39  1  0
  5 40  1  0
  5 41  1  0
  6 42  1  0
  6 43  1  0
  7 44  1  0
  7 45  1  0
  9 46  1  0
  9 47  1  0
 10 48  1  0
 10 49  1  0
 12 50  1  0
 12 51  1  0
 13 52  1  0
 13 53  1  0
 14 54  1  0
 17 55  1  0
 18 56  1  0
 19 57  1  0
 20 58  1  0
 23 59  1  0
 23 60  1  0
 23 61  1  0
 25 62  1  0
 26 63  1  0
 28 64  1  0
 28 65  1  0
 28 66  1  0
 29 67  1  0
M  CHG  2   3   1  22   1
M  END
>  <UniqueID>  (8) 
8

>  <SMILES>  (8) 
CC[NH+](CC)CCOCCOCCNc1c2ccccc2[n+](C)c2ccc(C)cc12

>  <Energy>  (8) 
97.3425489077681

>  <Genealogy>  (8) 
CC[NH+](CC)CCOCCOCCNc1c2ccccc2[n+](C)c2ccc(C)cc12 (protonated)
CC[NH+](CC)CCOCCOCCNc1c2ccccc2[n+](C)c2ccc(C)cc12 (3D coordinates assigned)
CC[NH+](CC)CCOCCOCCNc1c2ccccc2[n+](C)c2ccc(C)cc12 (optimized conformer: 97.3425489077681 kcal/mol)

>  <smiles>  (8) 
CCN(CC)CCOCCOCCNc1c2ccccc2[n+](C)c2ccc(C)cc12

>  <score_type>  (8) 
oracle

>  <origin>  (8) 
adg

>  <m_score__min__energy>  (8) 
-4.1500000000000004

>  <m_primary>  (8) 
energy

$$$$
8:0
     RDKit          3D

 58 60  0  0  0  0  0  0  0  0999 V2000
   59.9570   29.7370   45.9420 C   0  0  0  0  0  0  0  0  0  0  0  0
   58.5520   29.7540   46.5660 C   0  0  0  0  0  0  0  0  0  0  0  0
   57.4500   29.6650   45.5750 N   0  0  2  0  0  0  0  0  0  0  0  0
   57.0450   28.2630   45.3570 C   0  0  0  0  0  0  0  0  0  0  0  0
   57.8020   30.3530   44.2980 C   0  0  0  0  0  0  0  0  0  0  0  0
   57.5180   31.8630   44.3240 C   0  0  0  0  0  0  0  0  0  0  0  0
   57.0190   32.2440   45.5820 O   0  0  0  0  0  0  0  0  0  0  0  0
   57.0390   33.6510   45.7370 C   0  0  0  0  0  0  0  0  0  0  0  0
   57.9960   34.0340   46.8670 C   0  0  0  0  0  0  0  0  0  0  0  0
   58.8480   32.9090   47.2450 N   0  0  0  0  0  0  0  0  0  0  0  0
   59.7920   33.0430   48.3200 C   0  0  0  0  0  0  0  0  0  0  0  0
   61.1280   33.3790   48.0440 C   0  0  0  0  0  0  0  0  0  0  0  0
   62.0460   33.5070   49.1160 C   0  0  0  0  0  0  0  0  0  0  0  0
   61.5980   33.4440   50.4230 N   0  0  0  0  0  0  0  0  0  0  0  0
   62.4910   33.8560   51.5260 C   0  0  0  0  0  0  0  0  0  0  0  0
   60.3250   32.9770   50.6980 C   0  0  0  0  0  0  0  0  0  0  0  0
   59.9140   32.6580   52.0190 C   0  0  0  0  0  0  0  0  0  0  0  0
   58.6270   32.1770   52.2770 C   0  0  0  0  0  0  0  0  0  0  0  0
   57.7270   31.9920   51.2310 C   0  0  0  0  0  0  0  0  0  0  0  0
   58.1090   32.2820   49.9240 C   0  0  0  0  0  0  0  0  0  0  0  0
   59.4000   32.7740   49.6420 C   0  0  0  0  0  0  0  0  0  0  0  0
   63.5190   33.7300   48.8040 C   0  0  0  0  0  0  0  0  0  0  0  0
   63.8980   33.1740   47.4320 C   0  0  0  0  0  0  0  0  0  0  0  0
   63.0470   33.8480   46.3620 C   0  0  0  0  0  0  0  0  0  0  0  0
   61.5460   33.6020   46.5920 C   0  0  0  0  0  0  0  0  0  0  0  0
   60.7130   29.7279   46.7410 H   0  0  0  0  0  0  0  0  0  0  0  0
   60.0708   28.8374   45.3193 H   0  0  0  0  0  0  0  0  0  0  0  0
   60.0925   30.6336   45.3193 H   0  0  0  0  0  0  0  0  0  0  0  0
   58.4686   28.8995   47.2537 H   0  0  0  0  0  0  0  0  0  0  0  0
   58.4426   30.7217   47.0775 H   0  0  0  0  0  0  0  0  0  0  0  0
   56.6380   30.1660   46.0030 H   0  0  0  0  0  0  0  0  0  0  0  0
   56.9018   27.7674   46.3285 H   0  0  0  0  0  0  0  0  0  0  0  0
   56.1028   28.2375   44.7900 H   0  0  0  0  0  0  0  0  0  0  0  0
   57.8285   27.7389   44.7900 H   0  0  0  0  0  0  0  0  0  0  0  0
   58.8743   30.2025   44.1042 H   0  0  0  0  0  0  0  0  0  0  0  0
   57.1733   29.9163   43.5081 H   0  0  0  0  0  0  0  0  0  0  0  0
   58.4501   32.4111   44.1222 H   0  0  0  0  0  0  0  0  0  0  0  0
   56.7679   32.0993   43.5549 H   0  0  0  0  0  0  0  0  0  0  0  0
   57.3760   34.1170   44.7993 H   0  0  0  0  0  0  0  0  0  0  0  0
   56.0266   34.0038   45.9831 H   0  0  0  0  0  0  0  0  0  0  0  0
   58.6308   34.8675   46.5319 H   0  0  0  0  0  0  0  0  0  0  0  0
   57.3991   34.3273   47.7432 H   0  0  0  0  0  0  0  0  0  0  0  0
   58.9550   32.0990   46.6010 H   0  0  0  0  0  0  0  0  0  0  0  0
   62.0097   33.6339   52.4899 H   0  0  0  0  0  0  0  0  0  0  0  0
   63.4403   33.3048   51.4546 H   0  0  0  0  0  0  0  0  0  0  0  0
   62.6878   34.9359   51.4546 H   0  0  0  0  0  0  0  0  0  0  0  0
   60.6193   32.7914   52.8525 H   0  0  0  0  0  0  0  0  0  0  0  0
   58.3247   31.9442   53.3087 H   0  0  0  0  0  0  0  0  0  0  0  0
   56.7138   31.6166   51.4373 H   0  0  0  0  0  0  0  0  0  0  0  0
   57.3953   32.1255   49.1017 H   0  0  0  0  0  0  0  0  0  0  0  0
   63.7271   34.8100   48.8206 H   0  0  0  0  0  0  0  0  0  0  0  0
   64.1136   33.2015   49.5637 H   0  0  0  0  0  0  0  0  0  0  0  0
   64.9616   33.3743   47.2355 H   0  0  0  0  0  0  0  0  0  0  0  0
   63.7215   32.0884   47.4131 H   0  0  0  0  0  0  0  0  0  0  0  0
   63.2384   34.9310   46.3838 H   0  0  0  0  0  0  0  0  0  0  0  0
   63.3196   33.4197   45.3862 H   0  0  0  0  0  0  0  0  0  0  0  0
   60.9978   34.4770   46.2127 H   0  0  0  0  0  0  0  0  0  0  0  0
   61.3105   32.6660   46.0643 H   0  0  0  0  0  0  0  0  0  0  0  0
  1  2  1  0
  2  3  1  0
  3  4  1  0
  3  5  1  0
  5  6  1  0
  6  7  1  0
  7  8  1  0
  8  9  1  0
  9 10  1  0
 10 11  1  0
 11 12  2  0
 12 13  1  0
 13 14  2  0
 14 15  1  0
 14 16  1  0
 16 17  2  0
 17 18  1  0
 18 19  2  0
 19 20  1  0
 20 21  2  0
 13 22  1  0
 22 23  1  0
 23 24  1  0
 24 25  1  0
 21 11  1  0
 25 12  1  0
 21 16  1  0
  1 26  1  0
  1 27  1  0
  1 28  1  0
  2 29  1  0
  2 30  1  0
  3 31  1  1
  4 32  1  0
  4 33  1  0
  4 34  1  0
  5 35  1  0
  5 36  1  0
  6 37  1  0
  6 38  1  0
  8 39  1  0
  8 40  1  0
  9 41  1  0
  9 42  1  0
 10 43  1  0
 15 44  1  0
 15 45  1  0
 15 46  1  0
 17 47  1  0
 18 48  1  0
 19 49  1  0
 20 50  1  0
 22 51  1  0
 22 52  1  0
 23 53  1  0
 23 54  1  0
 24 55  1  0
 24 56  1  0
 25 57  1  0
 25 58  1  0
M  CHG  2   3   1  14   1
M  END
>  <UniqueID>  (9) 
9

>  <SMILES>  (9) 
CC[N@H+](C)CCOCCNc1c2c([n+](C)c3ccccc13)CCCC2

>  <Energy>  (9) 
81.9546661801892

>  <Genealogy>  (9) 
CC[NH+](C)CCOCCNc1c2c([n+](C)c3ccccc13)CCCC2 (protonated)
CC[N@H+](C)CCOCCNc1c2c([n+](C)c3ccccc13)CCCC2 (chirality)
CC[N@H+](C)CCOCCNc1c2c([n+](C)c3ccccc13)CCCC2 (3D coordinates assigned)
CC[N@H+](C)CCOCCNc1c2c([n+](C)c3ccccc13)CCCC2 (nonaromatic ring conformer: 81.9546661801892 kcal/mol)

>  <smiles>  (9) 
CCN(C)CCOCCNc1c2c([n+](C)c3ccccc13)CCCC2

>  <score_type>  (9) 
oracle

>  <origin>  (9) 
adg

>  <m_score__min__energy>  (9) 
-3.8500000000000001

>  <m_primary>  (9) 
energy

$$$$
9:0
     RDKit          3D

 22 23  0  0  0  0  0  0  0  0999 V2000
   58.9640   28.4070   44.4650 C   0  0  0  0  0  0  0  0  0  0  0  0
   57.7940   29.2550   44.2750 N   0  0  0  0  0  0  0  0  0  0  0  0
   56.7480   28.9660   43.5240 N   0  0  0  0  0  0  0  0  0  0  0  0
   55.8340   29.9140   43.6500 N   0  0  0  0  0  0  0  0  0  0  0  0
   56.2690   30.8370   44.5000 N   0  0  0  0  0  0  0  0  0  0  0  0
   57.4870   30.4100   44.8900 C   0  0  0  0  0  0  0  0  0  0  0  0
   58.5340   31.2710   46.0670 S   0  0  0  0  0  0  0  0  0  0  0  0
   57.7840   32.9130   45.7650 C   0  0  1  0  0  0  0  0  0  0  0  0
   58.3600   33.9610   46.7320 C   0  0  0  0  0  0  0  0  0  0  0  0
   59.3380   34.8170   45.9090 C   0  0  0  0  0  0  0  0  0  0  0  0
   59.0710   34.5080   44.5540 O   0  0  0  0  0  0  0  0  0  0  0  0
   58.2110   33.4400   44.4500 C   0  0  0  0  0  0  0  0  0  0  0  0
   57.8250   32.9810   43.3430 O   0  0  0  0  0  0  0  0  0  0  0  0
   59.1489   28.2730   45.5410 H   0  0  0  0  0  0  0  0  0  0  0  0
   58.7860   27.4268   43.9987 H   0  0  0  0  0  0  0  0  0  0  0  0
   59.8402   28.8812   43.9987 H   0  0  0  0  0  0  0  0  0  0  0  0
   56.6460   28.1130   42.9280 H   0  0  0  0  0  0  0  0  0  0  0  0
   56.6975   32.7707   45.8612 H   0  0  0  0  0  0  0  0  0  0  0  0
   57.5531   34.5888   47.1379 H   0  0  0  0  0  0  0  0  0  0  0  0
   58.8662   33.4833   47.5838 H   0  0  0  0  0  0  0  0  0  0  0  0
   59.1655   35.8865   46.0996 H   0  0  0  0  0  0  0  0  0  0  0  0
   60.3844   34.6064   46.1747 H   0  0  0  0  0  0  0  0  0  0  0  0
  1  2  1  0
  2  3  1  0
  3  4  2  0
  4  5  1  0
  5  6  2  0
  6  7  1  0
  7  8  1  0
  8  9  1  0
  9 10  1  0
 10 11  1  0
 11 12  1  0
 12 13  2  0
  6  2  1  0
 12  8  1  0
  1 14  1  0
  1 15  1  0
  1 16  1  0
  3 17  1  0
  8 18  1  6
  9 19  1  0
  9 20  1  0
 10 21  1  0
 10 22  1  0
M  CHG  1   3   1
M  END
>  <UniqueID>  (10) 
10

>  <SMILES>  (10) 
Cn1[nH+]nnc1S[C@H]1CCOC1=O

>  <Energy>  (10) 
65.83795283553047

>  <Genealogy>  (10) 
Cn1[nH+]nnc1SC1CCOC1=O (protonated)
Cn1[nH+]nnc1S[C@H]1CCOC1=O (chirality)
Cn1[nH+]nnc1S[C@H]1CCOC1=O (3D coordinates assigned)
Cn1[nH+]nnc1S[C@H]1CCOC1=O (nonaromatic ring conformer: 65.83795283553047 kcal/mol)

>  <smiles>  (10) 
Cn1nnnc1SC1CCOC1=O

>  <score_type>  (10) 
oracle

>  <origin>  (10) 
adg

>  <m_score__min__energy>  (10) 
-5.6399999999999997

>  <m_primary>  (10) 
energy

$$$$
10:0
     RDKit          3D

 34 35  0  0  0  0  0  0  0  0999 V2000
   63.7590   32.3130   48.3450 C   0  0  0  0  0  0  0  0  0  0  0  0
   62.6830   33.0530   47.5400 C   0  0  0  0  0  0  0  0  0  0  0  0
   63.3390   33.8440   46.4000 C   0  0  0  0  0  0  0  0  0  0  0  0
   61.8470   33.9540   48.4790 C   0  0  0  0  0  0  0  0  0  0  0  0
   60.3260   33.7980   48.2970 C   0  0  0  0  0  0  0  0  0  0  0  0
   59.7360   34.3980   46.6660 S   0  0  0  0  0  0  0  0  0  0  0  0
   59.1240   32.7930   46.1030 C   0  0  0  0  0  0  0  0  0  0  0  0
   59.9500   31.7110   46.2510 N   0  0  0  0  0  0  0  0  0  0  0  0
   59.5390   30.4840   45.8560 C   0  0  0  0  0  0  0  0  0  0  0  0
   60.2820   29.3040   45.9640 C   0  0  0  0  0  0  0  0  0  0  0  0
   59.5980   28.1980   45.4600 C   0  0  0  0  0  0  0  0  0  0  0  0
   58.0850   28.6980   44.8860 S   0  0  0  0  0  0  0  0  0  0  0  0
   58.3040   30.3150   45.2840 C   0  0  0  0  0  0  0  0  0  0  0  0
   57.4630   31.4020   45.0940 C   0  0  0  0  0  0  0  0  0  0  0  0
   56.3450   31.2380   44.5330 O   0  0  0  0  0  0  0  0  0  0  0  0
   57.8760   32.6460   45.5170 N   0  0  0  0  0  0  0  0  0  0  0  0
   57.0270   33.8120   45.2160 C   0  0  0  0  0  0  0  0  0  0  0  0
   63.5678   32.4445   49.4202 H   0  0  0  0  0  0  0  0  0  0  0  0
   63.7314   31.2419   48.0960 H   0  0  0  0  0  0  0  0  0  0  0  0
   64.7493   32.7220   48.0960 H   0  0  0  0  0  0  0  0  0  0  0  0
   61.9917   32.3297   47.0828 H   0  0  0  0  0  0  0  0  0  0  0  0
   63.9875   34.6259   46.8220 H   0  0  0  0  0  0  0  0  0  0  0  0
   63.9412   33.1632   45.7805 H   0  0  0  0  0  0  0  0  0  0  0  0
   62.5585   34.3098   45.7805 H   0  0  0  0  0  0  0  0  0  0  0  0
   62.0998   33.7002   49.5190 H   0  0  0  0  0  0  0  0  0  0  0  0
   62.0948   34.9959   48.2281 H   0  0  0  0  0  0  0  0  0  0  0  0
   60.0685   32.7329   48.3932 H   0  0  0  0  0  0  0  0  0  0  0  0
   59.8369   34.4091   49.0699 H   0  0  0  0  0  0  0  0  0  0  0  0
   60.8980   31.8300   46.6770 H   0  0  0  0  0  0  0  0  0  0  0  0
   61.2917   29.2539   46.3975 H   0  0  0  0  0  0  0  0  0  0  0  0
   59.9798   27.1666   45.4387 H   0  0  0  0  0  0  0  0  0  0  0  0
   56.6910   34.2734   46.1563 H   0  0  0  0  0  0  0  0  0  0  0  0
   57.6041   34.5452   44.6335 H   0  0  0  0  0  0  0  0  0  0  0  0
   56.1520   33.4879   44.6335 H   0  0  0  0  0  0  0  0  0  0  0  0
  1  2  1  0
  2  3  1  0
  2  4  1  0
  4  5  1  0
  5  6  1  0
  6  7  1  0
  7  8  2  0
  8  9  1  0
  9 10  1  0
 10 11  2  0
 11 12  1  0
 12 13  1  0
 13 14  1  0
 14 15  2  0
 14 16  1  0
 16 17  1  0
 16  7  1  0
 13  9  2  0
  1 18  1  0
  1 19  1  0
  1 20  1  0
  2 21  1  0
  3 22  1  0
  3 23  1  0
  3 24  1  0
  4 25  1  0
  4 26  1  0
  5 27  1  0
  5 28  1  0
  8 29  1  0
 10 30  1  0
 11 31  1  0
 17 32  1  0
 17 33  1  0
 17 34  1  0
M  CHG  1   8   1
M  END
>  <UniqueID>  (11) 
11

>  <SMILES>  (11) 
CC(C)CCSc1[nH+]c2ccsc2c(=O)n1C

>  <Energy>  (11) 
62.47037719057997

>  <Genealogy>  (11) 
CC(C)CCSc1[nH+]c2ccsc2c(=O)n1C (protonated)
CC(C)CCSc1[nH+]c2ccsc2c(=O)n1C (3D coordinates assigned)
CC(C)CCSc1[nH+]c2ccsc2c(=O)n1C (optimized conformer: 62.47037719057997 kcal/mol)

>  <smiles>  (11) 
CC(C)CCSc1nc2ccsc2c(=O)n1C

>  <score_type>  (11) 
oracle

>  <origin>  (11) 
adg

>  <m_score__min__energy>  (11) 
-4.8799999999999999

>  <m_primary>  (11) 
energy

$$$$
11:0
     RDKit          3D

 49 50  0  0  0  0  0  0  0  0999 V2000
   56.2690   29.7570   42.8640 C   0  0  0  0  0  0  0  0  0  0  0  0
   56.5790   29.7730   44.3600 C   0  0  0  0  0  0  0  0  0  0  0  0
   58.0210   30.2010   44.6600 C   0  0  0  0  0  0  0  0  0  0  0  0
   58.0310   31.3700   45.5470 N   0  0  0  0  0  0  0  0  0  0  0  0
   57.0700   32.3860   45.0980 C   0  0  0  0  0  0  0  0  0  0  0  0
   57.4320   33.7660   45.6730 C   0  0  0  0  0  0  0  0  0  0  0  0
   57.9480   33.7110   47.1250 C   0  0  0  0  0  0  0  0  0  0  0  0
   59.4510   33.5180   47.2110 C   0  0  0  0  0  0  0  0  0  0  0  0
   60.2630   34.1620   46.2600 C   0  0  0  0  0  0  0  0  0  0  0  0
   61.6530   34.1350   46.3730 C   0  0  0  0  0  0  0  0  0  0  0  0
   62.2560   33.4550   47.4310 C   0  0  0  0  0  0  0  0  0  0  0  0
   64.0040   33.4440   47.5830 Cl  0  0  0  0  0  0  0  0  0  0  0  0
   61.4700   32.7750   48.3630 C   0  0  0  0  0  0  0  0  0  0  0  0
   60.0690   32.7870   48.2620 C   0  0  0  0  0  0  0  0  0  0  0  0
   59.2890   31.9910   49.2380 C   0  0  0  0  0  0  0  0  0  0  0  0
   58.8860   32.5660   50.4490 C   0  0  0  0  0  0  0  0  0  0  0  0
   58.1520   31.8460   51.3330 N   0  0  0  0  0  0  0  0  0  0  0  0
   57.7840   30.5650   51.0640 C   0  0  0  0  0  0  0  0  0  0  0  0
   57.0300   29.8330   51.9860 O   0  0  0  0  0  0  0  0  0  0  0  0
   55.9920   30.4120   52.7660 C   0  0  0  0  0  0  0  0  0  0  0  0
   58.1470   29.9890   49.8860 N   0  0  0  0  0  0  0  0  0  0  0  0
   58.8860   30.6740   48.9610 C   0  0  0  0  0  0  0  0  0  0  0  0
   59.2520   30.0890   47.7400 O   0  0  0  0  0  0  0  0  0  0  0  0
   60.2580   29.0940   47.5980 C   0  0  0  0  0  0  0  0  0  0  0  0
   55.1805   29.7008   42.7157 H   0  0  0  0  0  0  0  0  0  0  0  0
   56.6554   30.6763   42.3996 H   0  0  0  0  0  0  0  0  0  0  0  0
   56.7480   28.8824   42.3996 H   0  0  0  0  0  0  0  0  0  0  0  0
   55.8928   30.4765   44.8543 H   0  0  0  0  0  0  0  0  0  0  0  0
   56.4509   28.7477   44.7373 H   0  0  0  0  0  0  0  0  0  0  0  0
   58.5520   29.3705   45.1482 H   0  0  0  0  0  0  0  0  0  0  0  0
   58.5201   30.4640   43.7157 H   0  0  0  0  0  0  0  0  0  0  0  0
   57.7360   31.0510   46.4990 H   0  0  0  0  0  0  0  0  0  0  0  0
   57.0849   32.4370   43.9993 H   0  0  0  0  0  0  0  0  0  0  0  0
   56.0670   32.1063   45.4526 H   0  0  0  0  0  0  0  0  0  0  0  0
   58.2149   34.2117   45.0419 H   0  0  0  0  0  0  0  0  0  0  0  0
   56.5099   34.3658   45.6797 H   0  0  0  0  0  0  0  0  0  0  0  0
   57.6860   34.6543   47.6265 H   0  0  0  0  0  0  0  0  0  0  0  0
   57.4757   32.8443   47.6105 H   0  0  0  0  0  0  0  0  0  0  0  0
   59.7964   34.6931   45.4173 H   0  0  0  0  0  0  0  0  0  0  0  0
   62.2747   34.6509   45.6264 H   0  0  0  0  0  0  0  0  0  0  0  0
   61.9523   32.2246   49.1842 H   0  0  0  0  0  0  0  0  0  0  0  0
   59.1653   33.6037   50.6839 H   0  0  0  0  0  0  0  0  0  0  0  0
   56.2212   30.2841   53.8342 H   0  0  0  0  0  0  0  0  0  0  0  0
   55.9133   31.4843   52.5336 H   0  0  0  0  0  0  0  0  0  0  0  0
   55.0383   29.9156   52.5336 H   0  0  0  0  0  0  0  0  0  0  0  0
   57.8440   29.0060   49.7070 H   0  0  0  0  0  0  0  0  0  0  0  0
   60.5910   28.7646   48.5933 H   0  0  0  0  0  0  0  0  0  0  0  0
   59.8490   28.2353   47.0454 H   0  0  0  0  0  0  0  0  0  0  0  0
   61.1122   29.5124   47.0454 H   0  0  0  0  0  0  0  0  0  0  0  0
  1  2  1  0
  2  3  1  0
  3  4  1  0
  4  5  1  0
  5  6  1  0
  6  7  1  0
  7  8  1  0
  8  9  2  0
  9 10  1  0
 10 11  2  0
 11 12  1  0
 11 13  1  0
 13 14  2  0
 14 15  1  0
 15 16  2  0
 16 17  1  0
 17 18  2  0
 18 19  1  0
 19 20  1  0
 18 21  1  0
 21 22  2  0
 22 23  1  0
 23 24  1  0
 14  8  1  0
 22 15  1  0
  1 25  1  0
  1 26  1  0
  1 27  1  0
  2 28  1  0
  2 29  1  0
  3 30  1  0
  3 31  1  0
  4 32  1  0
  5 33  1  0
  5 34  1  0
  6 35  1  0
  6 36  1  0
  7 37  1  0
  7 38  1  0
  9 39  1  0
 10 40  1  0
 13 41  1  0
 16 42  1  0
 20 43  1  0
 20 44  1  0
 20 45  1  0
 21 46  1  0
 24 47  1  0
 24 48  1  0
 24 49  1  0
M  CHG  1  21   1
M  END
>  <UniqueID>  (12) 
12

>  <SMILES>  (12) 
CCCNCCCc1ccc(Cl)cc1-c1cnc(OC)[nH+]c1OC

>  <Energy>  (12) 
42.023076638464204

>  <Genealogy>  (12) 
CCCNCCCc1ccc(Cl)cc1-c1cnc(OC)[nH+]c1OC (protonated)
CCCNCCCc1ccc(Cl)cc1-c1cnc(OC)[nH+]c1OC (3D coordinates assigned)
CCCNCCCc1ccc(Cl)cc1-c1cnc(OC)[nH+]c1OC (optimized conformer: 42.023076638464204 kcal/mol)

>  <smiles>  (12) 
CCCNCCCc1ccc(Cl)cc1-c1cnc(OC)nc1OC

>  <score_type>  (12) 
oracle

>  <origin>  (12) 
adg

>  <m_score__min__energy>  (12) 
-5.4900000000000002

>  <m_primary>  (12) 
energy

$$$$
12:0
     RDKit          3D

 46 48  0  0  0  0  0  0  0  0999 V2000
   55.4905   30.5331   43.6810 H   0  0  0  0  0  0  0  0  0  0  0  0
   56.4240   30.0800   44.0460 C   0  0  0  0  0  0  0  0  0  0  0  0
   57.0750   30.5400   45.1470 N   0  0  0  0  0  0  0  0  0  0  0  0
   58.1990   29.8340   45.4130 C   0  0  0  0  0  0  0  0  0  0  0  0
   59.0960   30.1240   46.5550 C   0  0  0  0  0  0  0  0  0  0  0  0
   58.7620   29.6800   47.8440 C   0  0  0  0  0  0  0  0  0  0  0  0
   57.8320   29.1161   48.0089 H   0  0  0  0  0  0  0  0  0  0  0  0
   59.6170   29.9570   48.9220 C   0  0  0  0  0  0  0  0  0  0  0  0
   59.2810   29.5330   50.2570 N   0  0  0  0  0  0  0  0  0  0  0  0
   58.9240   28.5490   50.2250 H   0  0  0  0  0  0  0  0  0  0  0  0
   60.1380   29.5370   50.8590 H   0  0  0  0  0  0  0  0  0  0  0  0
   58.2460   30.3950   50.8510 C   0  0  0  0  0  0  0  0  0  0  0  0
   58.2251   30.2254   51.9377 H   0  0  0  0  0  0  0  0  0  0  0  0
   57.2836   30.1354   50.3857 H   0  0  0  0  0  0  0  0  0  0  0  0
   58.5080   31.8820   50.5890 C   0  0  0  0  0  0  0  0  0  0  0  0
   58.6015   32.4124   51.5481 H   0  0  0  0  0  0  0  0  0  0  0  0
   59.4398   31.9946   50.0154 H   0  0  0  0  0  0  0  0  0  0  0  0
   57.6708   32.3063   50.0154 H   0  0  0  0  0  0  0  0  0  0  0  0
   60.7610   30.6620   48.7060 N   0  0  0  0  0  0  0  0  0  0  0  0
   61.1140   31.1120   47.4710 C   0  0  0  0  0  0  0  0  0  0  0  0
   62.2120   31.7850   47.2940 N   0  0  0  0  0  0  0  0  0  0  0  0
   62.2900   33.2250   47.0280 C   0  0  2  0  0  0  0  0  0  0  0  0
   62.2015   33.4015   45.9459 H   0  0  0  0  0  0  0  0  0  0  0  0
   63.6510   33.7820   47.4690 C   0  0  0  0  0  0  0  0  0  0  0  0
   63.7003   33.8022   48.5677 H   0  0  0  0  0  0  0  0  0  0  0  0
   64.4541   33.1402   47.0776 H   0  0  0  0  0  0  0  0  0  0  0  0
   63.7737   34.8027   47.0776 H   0  0  0  0  0  0  0  0  0  0  0  0
   61.1210   33.9480   47.7280 C   0  0  0  0  0  0  0  0  0  0  0  0
   60.9337   33.4565   48.6941 H   0  0  0  0  0  0  0  0  0  0  0  0
   61.4136   35.0012   47.8514 H   0  0  0  0  0  0  0  0  0  0  0  0
   59.8430   33.9270   46.9220 C   0  0  0  0  0  0  0  0  0  0  0  0
   59.8290   34.3980   45.5980 C   0  0  0  0  0  0  0  0  0  0  0  0
   60.7569   34.7697   45.1389 H   0  0  0  0  0  0  0  0  0  0  0  0
   58.6400   34.3960   44.8620 C   0  0  0  0  0  0  0  0  0  0  0  0
   58.6354   34.7636   43.8253 H   0  0  0  0  0  0  0  0  0  0  0  0
   57.4580   33.9280   45.4410 C   0  0  0  0  0  0  0  0  0  0  0  0
   56.5233   33.9294   44.8610 H   0  0  0  0  0  0  0  0  0  0  0  0
   57.4630   33.4580   46.7570 C   0  0  0  0  0  0  0  0  0  0  0  0
   56.5323   33.0875   47.2113 H   0  0  0  0  0  0  0  0  0  0  0  0
   58.6490   33.4580   47.4970 C   0  0  0  0  0  0  0  0  0  0  0  0
   58.6479   33.0895   48.5334 H   0  0  0  0  0  0  0  0  0  0  0  0
   60.2880   30.8460   46.3740 C   0  0  0  0  0  0  0  0  0  0  0  0
   60.5708   31.2011   45.3720 H   0  0  0  0  0  0  0  0  0  0  0  0
   58.4140   28.6100   44.2730 S   0  0  0  0  0  0  0  0  0  0  0  0
   57.0220   28.9970   43.4150 C   0  0  0  0  0  0  0  0  0  0  0  0
   56.6510   28.4845   42.5151 H   0  0  0  0  0  0  0  0  0  0  0  0
  1  2  1  0
  2  3  1  0
  3  4  2  0
  4  5  1  0
  5  6  1  0
  6  7  1  0
  6  8  2  0
  8  9  1  0
  9 10  1  0
  9 11  1  0
  9 12  1  0
 12 13  1  0
 12 14  1  0
 12 15  1  0
 15 16  1  0
 15 17  1  0
 15 18  1  0
  8 19  1  0
 19 20  1  0
 20 21  2  0
 21 22  1  0
 22 23  1  6
 22 24  1  0
 24 25  1  0
 24 26  1  0
 24 27  1  0
 22 28  1  0
 28 29  1  0
 28 30  1  0
 28 31  1  0
 31 32  2  0
 32 33  1  0
 32 34  1  0
 34 35  1  0
 34 36  2  0
 36 37  1  0
 36 38  1  0
 38 39  1  0
 38 40  2  0
 40 41  1  0
 20 42  1  0
 42 43  1  0
  4 44  1  0
 44 45  1  0
 45 46  1  0
 45  2  2  0
 42  5  2  0
 40 31  1  0
M  CHG  2   9   1  19  -1
M  END
>  <UniqueID>  (13) 
13

>  <SMILES>  (13) 
CC[NH2+]c1cc(-c2nccs2)c/c(=N/[C@H](C)Cc2ccccc2)[n-]1

>  <Energy>  (13) 
73.16411431692171

>  <Genealogy>  (13) 
CC[NH2+]c1cc(-c2nccs2)cc(=NC(C)Cc2ccccc2)[n-]1 (protonated)
CC[NH2+]c1cc(-c2nccs2)cc(=N[C@H](C)Cc2ccccc2)[n-]1 (chirality)
CC[NH2+]c1cc(-c2nccs2)c/c(=N/[C@H](C)Cc2ccccc2)[n-]1 (cis-trans isomerization)
CC[NH2+]c1cc(-c2nccs2)c/c(=N/[C@H](C)Cc2ccccc2)[n-]1 (3D coordinates assigned)
CC[NH2+]c1cc(-c2nccs2)c/c(=N/[C@H](C)Cc2ccccc2)[n-]1 (optimized conformer: 73.16411431692171 kcal/mol)

>  <smiles>  (13) 
CCNc1cc(-c2nccs2)cc(=NC(C)Cc2ccccc2)[nH]1

>  <score_type>  (13) 
oracle

>  <origin>  (13) 
adg

>  <m_score__min__energy>  (13) 
-7.4699999999999998

>  <m_primary>  (13) 
energy

$$$$
13:0
     RDKit          3D

 49 53  0  0  0  0  0  0  0  0999 V2000
   61.2170   34.1610   48.6260 C   0  0  0  0  0  0  0  0  0  0  0  0
   59.9180   33.6570   48.1830 N   0  0  0  0  0  0  0  0  0  0  0  0
   59.0220   32.8960   48.8650 C   0  0  0  0  0  0  0  0  0  0  0  0
   59.3360   32.1560   50.4770 S   0  0  0  0  0  0  0  0  0  0  0  0
   58.7520   30.4720   50.0340 C   0  0  0  0  0  0  0  0  0  0  0  0
   59.4880   29.8780   48.8230 C   0  0  0  0  0  0  0  0  0  0  0  0
   58.8590   28.5990   48.2340 C   0  0  0  0  0  0  0  0  0  0  0  0
   58.9990   28.5200   46.7640 N   0  0  0  0  0  0  0  0  0  0  0  0
   57.8830   27.6850   46.1110 C   0  0  0  0  0  0  0  0  0  0  0  0
   57.4530   28.1520   44.6390 C   0  0  2  0  0  0  0  0  0  0  0  0
   58.6650   28.7840   44.1360 C   0  0  0  0  0  0  0  0  0  0  0  0
   58.4300   30.0920   44.9820 C   0  0  1  0  0  0  0  0  0  0  0  0
   58.1010   31.1500   43.9510 C   0  0  0  0  0  0  0  0  0  0  0  0
   56.7170   30.5160   43.5330 C   0  0  0  0  0  0  0  0  0  0  0  0
   56.5290   29.4210   44.6570 C   0  0  2  0  0  0  0  0  0  0  0  0
   57.1710   30.0810   45.6320 O   0  0  0  0  0  0  0  0  0  0  0  0
   59.3450   29.8810   46.1640 C   0  0  0  0  0  0  0  0  0  0  0  0
   57.8490   32.7140   48.2010 N   0  0  0  0  0  0  0  0  0  0  0  0
   58.0490   33.3830   47.0510 C   0  0  0  0  0  0  0  0  0  0  0  0
   57.1680   33.5120   45.9800 C   0  0  0  0  0  0  0  0  0  0  0  0
   57.5950   34.2620   44.8670 C   0  0  0  0  0  0  0  0  0  0  0  0
   58.8760   34.8590   44.8550 C   0  0  0  0  0  0  0  0  0  0  0  0
   59.7430   34.7080   45.9530 C   0  0  0  0  0  0  0  0  0  0  0  0
   59.2890   33.9530   47.0360 C   0  0  0  0  0  0  0  0  0  0  0  0
   61.2498   34.1737   49.7254 H   0  0  0  0  0  0  0  0  0  0  0  0
   62.0141   33.5069   48.2429 H   0  0  0  0  0  0  0  0  0  0  0  0
   61.3644   35.1816   48.2429 H   0  0  0  0  0  0  0  0  0  0  0  0
   58.9074   29.8090   50.8979 H   0  0  0  0  0  0  0  0  0  0  0  0
   57.6889   30.5540   49.7638 H   0  0  0  0  0  0  0  0  0  0  0  0
   59.5114   30.6413   48.0312 H   0  0  0  0  0  0  0  0  0  0  0  0
   60.4858   29.5885   49.1845 H   0  0  0  0  0  0  0  0  0  0  0  0
   59.3537   27.7247   48.6823 H   0  0  0  0  0  0  0  0  0  0  0  0
   57.7838   28.6203   48.4651 H   0  0  0  0  0  0  0  0  0  0  0  0
   58.2294   26.6428   46.0497 H   0  0  0  0  0  0  0  0  0  0  0  0
   56.9934   27.8160   46.7447 H   0  0  0  0  0  0  0  0  0  0  0  0
   56.9945   27.3001   44.1155 H   0  0  0  0  0  0  0  0  0  0  0  0
   59.5847   28.2458   44.4089 H   0  0  0  0  0  0  0  0  0  0  0  0
   58.8047   28.8734   43.0486 H   0  0  0  0  0  0  0  0  0  0  0  0
   57.9978   32.1549   44.3864 H   0  0  0  0  0  0  0  0  0  0  0  0
   58.8385   31.3332   43.1557 H   0  0  0  0  0  0  0  0  0  0  0  0
   55.9084   31.2614   43.5571 H   0  0  0  0  0  0  0  0  0  0  0  0
   56.6937   30.1189   42.5074 H   0  0  0  0  0  0  0  0  0  0  0  0
   55.4806   29.0881   44.6531 H   0  0  0  0  0  0  0  0  0  0  0  0
   60.3946   29.8923   45.8351 H   0  0  0  0  0  0  0  0  0  0  0  0
   59.2139   30.6809   46.9076 H   0  0  0  0  0  0  0  0  0  0  0  0
   56.1727   33.0441   46.0026 H   0  0  0  0  0  0  0  0  0  0  0  0
   56.9272   34.3839   44.0015 H   0  0  0  0  0  0  0  0  0  0  0  0
   59.1973   35.4455   43.9816 H   0  0  0  0  0  0  0  0  0  0  0  0
   60.7421   35.1681   45.9578 H   0  0  0  0  0  0  0  0  0  0  0  0
  1  2  1  0
  2  3  1  0
  3  4  1  0
  4  5  1  0
  5  6  1  0
  6  7  1  0
  7  8  1  0
  8  9  1  0
  9 10  1  0
 10 11  1  0
 11 12  1  0
 12 13  1  6
 13 14  1  0
 14 15  1  0
 15 16  1  0
 12 17  1  0
  3 18  2  0
 18 19  1  0
 19 20  2  0
 20 21  1  0
 21 22  2  0
 22 23  1  0
 23 24  2  0
 24  2  1  0
 17  8  1  0
 24 19  1  0
 15 10  1  0
 16 12  1  0
  1 25  1  0
  1 26  1  0
  1 27  1  0
  5 28  1  0
  5 29  1  0
  6 30  1  0
  6 31  1  0
  7 32  1  0
  7 33  1  0
  9 34  1  0
  9 35  1  0
 10 36  1  6
 11 37  1  0
 11 38  1  0
 13 39  1  0
 13 40  1  0
 14 41  1  0
 14 42  1  0
 15 43  1  1
 17 44  1  0
 17 45  1  0
 20 46  1  0
 21 47  1  0
 22 48  1  0
 23 49  1  0
M  END
>  <UniqueID>  (14) 
14

>  <SMILES>  (14) 
Cn1c(SCCCN2C[C@@H]3C[C@]4(CCC3O4)C2)nc2ccccc21

>  <Energy>  (14) 
217.58589122744792

>  <Genealogy>  (14) 
Cn1c(SCCCN2C[C@@H]3C[C@]4(CCC3O4)C2)nc2ccccc21 (chirality)
Cn1c(SCCCN2C[C@@H]3C[C@]4(CCC3O4)C2)nc2ccccc21 (3D coordinates assigned)
Cn1c(SCCCN2C[C@@H]3C[C@]4(CCC3O4)C2)nc2ccccc21 (nonaromatic ring conformer: 217.58589122744792 kcal/mol)

>  <smiles>  (14) 
Cn1c(SCCCN2CC3CC4(CCC3O4)C2)nc2ccccc21

>  <score_type>  (14) 
oracle

>  <origin>  (14) 
adg

>  <m_score__min__energy>  (14) 
-8.0999999999999996

>  <m_primary>  (14) 
energy

$$$$
14:0
     RDKit          3D

 73 76  0  0  0  0  0  0  0  0999 V2000
   63.4010   34.2300   50.6900 C   0  0  0  0  0  0  0  0  0  0  0  0
   63.9820   33.3580   49.5800 C   0  0  0  0  0  0  0  0  0  0  0  0
   62.9210   32.8930   48.6600 N   0  0  0  0  0  0  0  0  0  0  0  0
   63.3900   32.6170   47.2850 C   0  0  0  0  0  0  0  0  0  0  0  0
   63.3180   33.8300   46.3550 C   0  0  0  0  0  0  0  0  0  0  0  0
   61.9490   31.9050   49.1960 C   0  0  0  0  0  0  0  0  0  0  0  0
   61.5270   30.8030   48.2050 C   0  0  0  0  0  0  0  0  0  0  0  0
   60.0830   30.8490   47.9900 N   0  0  0  0  0  0  0  0  0  0  0  0
   59.5260   31.2400   46.7230 C   0  0  0  0  0  0  0  0  0  0  0  0
   58.9480   30.2760   45.8720 C   0  0  0  0  0  0  0  0  0  0  0  0
   58.2010   30.7060   44.7550 C   0  0  0  0  0  0  0  0  0  0  0  0
   58.2700   32.0180   44.3360 N   0  0  0  0  0  0  0  0  0  0  0  0
   57.7530   32.3920   43.0010 C   0  0  0  0  0  0  0  0  0  0  0  0
   58.8160   32.9820   45.1620 C   0  0  0  0  0  0  0  0  0  0  0  0
   58.7230   34.3650   44.8570 C   0  0  0  0  0  0  0  0  0  0  0  0
   59.2660   35.3270   45.7060 C   0  0  0  0  0  0  0  0  0  0  0  0
   59.9010   34.9460   46.8810 C   0  0  0  0  0  0  0  0  0  0  0  0
   59.9910   33.5990   47.2190 C   0  0  0  0  0  0  0  0  0  0  0  0
   59.4560   32.6030   46.3740 C   0  0  0  0  0  0  0  0  0  0  0  0
   57.3600   29.6760   44.0180 C   0  0  0  0  0  0  0  0  0  0  0  0
   56.8480   28.5740   44.9570 C   0  0  0  0  0  0  0  0  0  0  0  0
   57.9890   27.9630   45.7360 C   0  0  0  0  0  0  0  0  0  0  0  0
   58.0150   26.5850   46.0630 C   0  0  0  0  0  0  0  0  0  0  0  0
   56.8690   25.7460   45.8040 N   0  0  0  0  0  0  0  0  0  0  0  0
   56.7740   24.8050   44.6870 C   0  0  0  0  0  0  0  0  0  0  0  0
   55.5550   23.8760   44.8690 C   0  0  0  0  0  0  0  0  0  0  0  0
   54.6690   24.2460   45.9940 N   0  0  0  0  0  0  0  0  0  0  0  0
   54.8370   23.3770   47.1700 C   0  0  0  0  0  0  0  0  0  0  0  0
   53.2540   24.3420   45.6010 C   0  0  0  0  0  0  0  0  0  0  0  0
   59.1650   26.0520   46.6750 C   0  0  0  0  0  0  0  0  0  0  0  0
   60.2590   26.8670   46.9590 C   0  0  0  0  0  0  0  0  0  0  0  0
   60.2060   28.2320   46.6890 C   0  0  0  0  0  0  0  0  0  0  0  0
   59.0480   28.8060   46.1360 C   0  0  0  0  0  0  0  0  0  0  0  0
   63.6796   33.8119   51.6685 H   0  0  0  0  0  0  0  0  0  0  0  0
   63.7998   35.2513   50.6007 H   0  0  0  0  0  0  0  0  0  0  0  0
   62.3049   34.2553   50.6007 H   0  0  0  0  0  0  0  0  0  0  0  0
   64.7196   33.9435   49.0116 H   0  0  0  0  0  0  0  0  0  0  0  0
   64.4581   32.4787   50.0384 H   0  0  0  0  0  0  0  0  0  0  0  0
   64.4359   32.2802   47.3360 H   0  0  0  0  0  0  0  0  0  0  0  0
   62.7219   31.8504   46.8655 H   0  0  0  0  0  0  0  0  0  0  0  0
   63.2634   34.7499   46.9557 H   0  0  0  0  0  0  0  0  0  0  0  0
   64.2160   33.8593   45.7204 H   0  0  0  0  0  0  0  0  0  0  0  0
   62.4229   33.7528   45.7204 H   0  0  0  0  0  0  0  0  0  0  0  0
   62.4036   31.4200   50.0724 H   0  0  0  0  0  0  0  0  0  0  0  0
   61.0359   32.4702   49.4343 H   0  0  0  0  0  0  0  0  0  0  0  0
   62.0430   30.9587   47.2461 H   0  0  0  0  0  0  0  0  0  0  0  0
   61.7986   29.8213   48.6204 H   0  0  0  0  0  0  0  0  0  0  0  0
   59.4700   30.3660   48.6850 H   0  0  0  0  0  0  0  0  0  0  0  0
   56.8668   33.0331   43.1174 H   0  0  0  0  0  0  0  0  0  0  0  0
   58.5304   32.9382   42.4466 H   0  0  0  0  0  0  0  0  0  0  0  0
   57.4775   31.4828   42.4466 H   0  0  0  0  0  0  0  0  0  0  0  0
   58.2138   34.6826   43.9351 H   0  0  0  0  0  0  0  0  0  0  0  0
   59.1915   36.3929   45.4446 H   0  0  0  0  0  0  0  0  0  0  0  0
   60.3330   35.7094   47.5448 H   0  0  0  0  0  0  0  0  0  0  0  0
   60.4856   33.3067   48.1570 H   0  0  0  0  0  0  0  0  0  0  0  0
   56.4971   30.1829   43.5614 H   0  0  0  0  0  0  0  0  0  0  0  0
   57.9940   29.2036   43.2532 H   0  0  0  0  0  0  0  0  0  0  0  0
   56.1220   29.0076   45.6605 H   0  0  0  0  0  0  0  0  0  0  0  0
   56.3716   27.7879   44.3528 H   0  0  0  0  0  0  0  0  0  0  0  0
   56.0530   25.7930   46.4540 H   0  0  0  0  0  0  0  0  0  0  0  0
   56.6645   25.3670   43.7478 H   0  0  0  0  0  0  0  0  0  0  0  0
   57.6877   24.1933   44.6568 H   0  0  0  0  0  0  0  0  0  0  0  0
   54.9628   23.8995   43.9423 H   0  0  0  0  0  0  0  0  0  0  0  0
   55.9528   22.8763   45.0976 H   0  0  0  0  0  0  0  0  0  0  0  0
   54.7216   23.9741   48.0866 H   0  0  0  0  0  0  0  0  0  0  0  0
   54.0757   22.5833   47.1511 H   0  0  0  0  0  0  0  0  0  0  0  0
   55.8393   22.9242   47.1511 H   0  0  0  0  0  0  0  0  0  0  0  0
   52.6252   24.3847   46.5025 H   0  0  0  0  0  0  0  0  0  0  0  0
   53.1004   25.2526   45.0034 H   0  0  0  0  0  0  0  0  0  0  0  0
   52.9788   23.4605   45.0034 H   0  0  0  0  0  0  0  0  0  0  0  0
   59.2004   24.9829   46.9313 H   0  0  0  0  0  0  0  0  0  0  0  0
   61.1681   26.4303   47.3982 H   0  0  0  0  0  0  0  0  0  0  0  0
   61.0771   28.8662   46.9102 H   0  0  0  0  0  0  0  0  0  0  0  0
  1  2  1  0
  2  3  1  0
  3  4  1  0
  4  5  1  0
  3  6  1  0
  6  7  1  0
  7  8  1  0
  8  9  1  0
  9 10  2  0
 10 11  1  0
 11 12  2  0
 12 13  1  0
 12 14  1  0
 14 15  2  0
 15 16  1  0
 16 17  2  0
 17 18  1  0
 18 19  2  0
 11 20  1  0
 20 21  1  0
 21 22  1  0
 22 23  2  0
 23 24  1  0
 24 25  1  0
 25 26  1  0
 26 27  1  0
 27 28  1  0
 27 29  1  0
 23 30  1  0
 30 31  2  0
 31 32  1  0
 32 33  2  0
 19  9  1  0
 33 22  1  0
 33 10  1  0
 19 14  1  0
  1 34  1  0
  1 35  1  0
  1 36  1  0
  2 37  1  0
  2 38  1  0
  4 39  1  0
  4 40  1  0
  5 41  1  0
  5 42  1  0
  5 43  1  0
  6 44  1  0
  6 45  1  0
  7 46  1  0
  7 47  1  0
  8 48  1  0
 13 49  1  0
 13 50  1  0
 13 51  1  0
 15 52  1  0
 16 53  1  0
 17 54  1  0
 18 55  1  0
 20 56  1  0
 20 57  1  0
 21 58  1  0
 21 59  1  0
 24 60  1  0
 25 61  1  0
 25 62  1  0
 26 63  1  0
 26 64  1  0
 28 65  1  0
 28 66  1  0
 28 67  1  0
 29 68  1  0
 29 69  1  0
 29 70  1  0
 30 71  1  0
 31 72  1  0
 32 73  1  0
M  CHG  1  12   1
M  END
>  <UniqueID>  (15) 
15

>  <SMILES>  (15) 
CCN(CC)CCNc1c2c([n+](C)c3ccccc13)CCc1c(NCCN(C)C)cccc1-2

>  <Energy>  (15) 
110.65612066513738

>  <Genealogy>  (15) 
CCN(CC)CCNc1c2c([n+](C)c3ccccc13)CCc1c(NCCN(C)C)cccc1-2 (3D coordinates assigned)
CCN(CC)CCNc1c2c([n+](C)c3ccccc13)CCc1c(NCCN(C)C)cccc1-2 (nonaromatic ring conformer: 110.65612066513738 kcal/mol)

>  <smiles>  (15) 
CCN(CC)CCNc1c2c([n+](C)c3ccccc13)CCc1c(NCCN(C)C)cccc1-2

>  <score_type>  (15) 
oracle

>  <origin>  (15) 
adg

>  <m_score__min__energy>  (15) 
-7.5899999999999999

>  <m_primary>  (15) 
energy

$$$$
15:0
     RDKit          3D

 61 63  0  0  0  0  0  0  0  0999 V2000
   63.7350   33.4020   46.8190 C   0  0  0  0  0  0  0  0  0  0  0  0
   63.3550   31.9570   47.1290 C   0  0  0  0  0  0  0  0  0  0  0  0
   63.1840   31.7900   48.5770 N   0  0  0  0  0  0  0  0  0  0  0  0
   63.8170   32.8940   49.3080 C   0  0  0  0  0  0  0  0  0  0  0  0
   62.9430   33.3390   50.4920 C   0  0  0  0  0  0  0  0  0  0  0  0
   61.7350   34.1840   50.0560 C   0  0  0  0  0  0  0  0  0  0  0  0
   61.2370   33.7750   48.7330 N   0  0  0  0  0  0  0  0  0  0  0  0
   59.8510   34.2120   48.4730 C   0  0  0  0  0  0  0  0  0  0  0  0
   59.1910   33.3040   47.4350 C   0  0  0  0  0  0  0  0  0  0  0  0
   60.0310   32.1440   47.1370 N   0  0  0  0  0  0  0  0  0  0  0  0
   59.4740   30.9460   46.5700 C   0  0  0  0  0  0  0  0  0  0  0  0
   58.6880   31.0370   45.4090 C   0  0  0  0  0  0  0  0  0  0  0  0
   58.3280   32.2920   44.8720 C   0  0  0  0  0  0  0  0  0  0  0  0
   57.5190   32.3800   43.7420 C   0  0  0  0  0  0  0  0  0  0  0  0
   57.0440   31.2230   43.1370 C   0  0  0  0  0  0  0  0  0  0  0  0
   57.3940   29.9730   43.6420 C   0  0  0  0  0  0  0  0  0  0  0  0
   58.2530   29.8510   44.7660 C   0  0  0  0  0  0  0  0  0  0  0  0
   58.6630   28.6200   45.2360 N   0  0  0  0  0  0  0  0  0  0  0  0
   58.4850   27.4140   44.3960 C   0  0  0  0  0  0  0  0  0  0  0  0
   59.2510   28.5160   46.4850 C   0  0  0  0  0  0  0  0  0  0  0  0
   59.4150   27.2570   47.1120 C   0  0  0  0  0  0  0  0  0  0  0  0
   60.0390   27.1450   48.3470 C   0  0  0  0  0  0  0  0  0  0  0  0
   60.4840   28.2760   49.0130 C   0  0  0  0  0  0  0  0  0  0  0  0
   60.2900   29.5550   48.4650 C   0  0  0  0  0  0  0  0  0  0  0  0
   60.6670   30.7060   49.1830 O   0  0  0  0  0  0  0  0  0  0  0  0
   60.1670   31.1170   50.4590 C   0  0  0  0  0  0  0  0  0  0  0  0
   58.6690   31.4060   50.3890 C   0  0  0  0  0  0  0  0  0  0  0  0
   59.6860   29.6850   47.1770 C   0  0  0  0  0  0  0  0  0  0  0  0
   63.8799   33.9530   47.7600 H   0  0  0  0  0  0  0  0  0  0  0  0
   64.6681   33.4189   46.2368 H   0  0  0  0  0  0  0  0  0  0  0  0
   62.9309   33.8758   46.2368 H   0  0  0  0  0  0  0  0  0  0  0  0
   62.4126   31.7092   46.6186 H   0  0  0  0  0  0  0  0  0  0  0  0
   64.1532   31.2870   46.7769 H   0  0  0  0  0  0  0  0  0  0  0  0
   62.1570   31.8200   48.7770 H   0  0  0  0  0  0  0  0  0  0  0  0
   64.7948   32.5616   49.6868 H   0  0  0  0  0  0  0  0  0  0  0  0
   63.9404   33.7452   48.6222 H   0  0  0  0  0  0  0  0  0  0  0  0
   62.5753   32.4431   51.0137 H   0  0  0  0  0  0  0  0  0  0  0  0
   63.5664   33.9655   51.1469 H   0  0  0  0  0  0  0  0  0  0  0  0
   60.9288   34.0618   50.7943 H   0  0  0  0  0  0  0  0  0  0  0  0
   62.0546   35.2347   49.9936 H   0  0  0  0  0  0  0  0  0  0  0  0
   61.2590   32.7280   48.7010 H   0  0  0  0  0  0  0  0  0  0  0  0
   59.2759   34.1693   49.4097 H   0  0  0  0  0  0  0  0  0  0  0  0
   59.8684   35.2417   48.0864 H   0  0  0  0  0  0  0  0  0  0  0  0
   58.2237   32.9556   47.8262 H   0  0  0  0  0  0  0  0  0  0  0  0
   59.0498   33.8794   46.5082 H   0  0  0  0  0  0  0  0  0  0  0  0
   61.0190   32.1300   47.4720 H   0  0  0  0  0  0  0  0  0  0  0  0
   58.6913   33.2124   45.3525 H   0  0  0  0  0  0  0  0  0  0  0  0
   57.2562   33.3649   43.3286 H   0  0  0  0  0  0  0  0  0  0  0  0
   56.3892   31.2944   42.2560 H   0  0  0  0  0  0  0  0  0  0  0  0
   56.9985   29.0656   43.1623 H   0  0  0  0  0  0  0  0  0  0  0  0
   58.3550   26.5332   45.0419 H   0  0  0  0  0  0  0  0  0  0  0  0
   57.5954   27.5375   43.7610 H   0  0  0  0  0  0  0  0  0  0  0  0
   59.3724   27.2752   43.7610 H   0  0  0  0  0  0  0  0  0  0  0  0
   59.0413   26.3515   46.6115 H   0  0  0  0  0  0  0  0  0  0  0  0
   60.1811   26.1526   48.7997 H   0  0  0  0  0  0  0  0  0  0  0  0
   60.9948   28.1711   49.9815 H   0  0  0  0  0  0  0  0  0  0  0  0
   60.3455   30.3156   51.1911 H   0  0  0  0  0  0  0  0  0  0  0  0
   60.6890   32.0367   50.7618 H   0  0  0  0  0  0  0  0  0  0  0  0
   58.2627   31.4844   51.4082 H   0  0  0  0  0  0  0  0  0  0  0  0
   58.5028   32.3528   49.8542 H   0  0  0  0  0  0  0  0  0  0  0  0
   58.1625   30.5890   49.8542 H   0  0  0  0  0  0  0  0  0  0  0  0
  1  2  1  0
  2  3  1  0
  3  4  1  0
  4  5  1  0
  5  6  1  0
  6  7  1  0
  7  8  1  0
  8  9  1  0
  9 10  1  0
 10 11  1  0
 11 12  2  0
 12 13  1  0
 13 14  2  0
 14 15  1  0
 15 16  2  0
 16 17  1  0
 17 18  2  0
 18 19  1  0
 18 20  1  0
 20 21  2  0
 21 22  1  0
 22 23  2  0
 23 24  1  0
 24 25  1  0
 25 26  1  0
 26 27  1  0
 24 28  2  0
 28 11  1  0
 17 12  1  0
 28 20  1  0
  1 29  1  0
  1 30  1  0
  1 31  1  0
  2 32  1  0
  2 33  1  0
  3 34  1  0
  4 35  1  0
  4 36  1  0
  5 37  1  0
  5 38  1  0
  6 39  1  0
  6 40  1  0
  7 41  1  0
  8 42  1  0
  8 43  1  0
  9 44  1  0
  9 45  1  0
 10 46  1  0
 13 47  1  0
 14 48  1  0
 15 49  1  0
 16 50  1  0
 19 51  1  0
 19 52  1  0
 19 53  1  0
 21 54  1  0
 22 55  1  0
 23 56  1  0
 26 57  1  0
 26 58  1  0
 27 59  1  0
 27 60  1  0
 27 61  1  0
M  CHG  1  18   1
M  END
>  <UniqueID>  (16) 
16

>  <SMILES>  (16) 
CCNCCCNCCNc1c2ccccc2[n+](C)c2cccc(OCC)c12

>  <Energy>  (16) 
79.26887829573023

>  <Genealogy>  (16) 
CCNCCCNCCNc1c2ccccc2[n+](C)c2cccc(OCC)c12 (3D coordinates assigned)
CCNCCCNCCNc1c2ccccc2[n+](C)c2cccc(OCC)c12 (optimized conformer: 79.26887829573023 kcal/mol)

>  <smiles>  (16) 
CCNCCCNCCNc1c2ccccc2[n+](C)c2cccc(OCC)c12

>  <score_type>  (16) 
oracle

>  <origin>  (16) 
adg

>  <m_score__min__energy>  (16) 
-4.3300000000000001

>  <m_primary>  (16) 
energy

$$$$
16:0
     RDKit          3D

 64 66  0  0  0  0  0  0  0  0999 V2000
   61.4310   29.2630   51.2870 C   0  0  0  0  0  0  0  0  0  0  0  0
   61.7490   29.8200   49.9040 C   0  0  0  0  0  0  0  0  0  0  0  0
   62.0280   31.2600   50.0100 N   0  0  0  0  0  0  0  0  0  0  0  0
   63.2720   31.6400   49.3250 C   0  0  0  0  0  0  0  0  0  0  0  0
   63.0890   31.5880   47.8010 C   0  0  0  0  0  0  0  0  0  0  0  0
   61.7440   31.8520   47.4530 O   0  0  0  0  0  0  0  0  0  0  0  0
   61.6130   33.1070   46.8130 C   0  0  0  0  0  0  0  0  0  0  0  0
   61.2440   34.1550   47.8660 C   0  0  0  0  0  0  0  0  0  0  0  0
   60.3640   33.6230   48.8370 O   0  0  0  0  0  0  0  0  0  0  0  0
   60.7870   33.9630   50.1410 C   0  0  0  0  0  0  0  0  0  0  0  0
   59.7540   33.4540   51.1420 C   0  0  0  0  0  0  0  0  0  0  0  0
   59.7660   32.0400   51.1770 O   0  0  0  0  0  0  0  0  0  0  0  0
   58.4790   31.5030   50.9370 C   0  0  0  0  0  0  0  0  0  0  0  0
   58.5140   30.5080   49.7710 C   0  0  0  0  0  0  0  0  0  0  0  0
   59.2670   31.0470   48.6390 N   0  0  0  0  0  0  0  0  0  0  0  0
   58.8530   30.7600   47.2960 C   0  0  0  0  0  0  0  0  0  0  0  0
   59.0380   29.4730   46.7660 C   0  0  0  0  0  0  0  0  0  0  0  0
   59.6460   28.4580   47.5350 C   0  0  0  0  0  0  0  0  0  0  0  0
   59.8700   27.1940   46.9940 C   0  0  0  0  0  0  0  0  0  0  0  0
   59.5130   26.9280   45.6760 C   0  0  0  0  0  0  0  0  0  0  0  0
   58.8970   27.9130   44.9010 C   0  0  0  0  0  0  0  0  0  0  0  0
   58.6090   29.1940   45.4400 C   0  0  0  0  0  0  0  0  0  0  0  0
   57.9390   30.1590   44.7100 N   0  0  0  0  0  0  0  0  0  0  0  0
   57.2440   29.7840   43.4570 C   0  0  0  0  0  0  0  0  0  0  0  0
   57.8980   31.4660   45.1630 C   0  0  0  0  0  0  0  0  0  0  0  0
   57.4580   32.5320   44.3350 C   0  0  0  0  0  0  0  0  0  0  0  0
   57.3860   33.8390   44.8200 C   0  0  0  0  0  0  0  0  0  0  0  0
   57.7690   34.1220   46.1260 C   0  0  0  0  0  0  0  0  0  0  0  0
   58.2470   33.1040   46.9510 C   0  0  0  0  0  0  0  0  0  0  0  0
   58.3270   31.7760   46.4830 C   0  0  0  0  0  0  0  0  0  0  0  0
   61.8210   29.9461   52.0560 H   0  0  0  0  0  0  0  0  0  0  0  0
   60.3413   29.1658   51.4015 H   0  0  0  0  0  0  0  0  0  0  0  0
   61.9013   28.2752   51.4015 H   0  0  0  0  0  0  0  0  0  0  0  0
   62.6302   29.3046   49.4944 H   0  0  0  0  0  0  0  0  0  0  0  0
   60.8891   29.6603   49.2368 H   0  0  0  0  0  0  0  0  0  0  0  0
   61.2360   31.7790   49.5620 H   0  0  0  0  0  0  0  0  0  0  0  0
   63.5495   32.6625   49.6209 H   0  0  0  0  0  0  0  0  0  0  0  0
   64.0641   30.9322   49.6109 H   0  0  0  0  0  0  0  0  0  0  0  0
   63.7385   32.3422   47.3327 H   0  0  0  0  0  0  0  0  0  0  0  0
   63.3570   30.5822   47.4452 H   0  0  0  0  0  0  0  0  0  0  0  0
   62.5653   33.3808   46.3353 H   0  0  0  0  0  0  0  0  0  0  0  0
   60.8299   33.0563   46.0422 H   0  0  0  0  0  0  0  0  0  0  0  0
   62.1617   34.4995   48.3651 H   0  0  0  0  0  0  0  0  0  0  0  0
   60.7376   34.9905   47.3604 H   0  0  0  0  0  0  0  0  0  0  0  0
   61.7619   33.4969   50.3466 H   0  0  0  0  0  0  0  0  0  0  0  0
   60.8857   35.0550   50.2288 H   0  0  0  0  0  0  0  0  0  0  0  0
   59.9933   33.8446   52.1421 H   0  0  0  0  0  0  0  0  0  0  0  0
   58.7553   33.7979   50.8347 H   0  0  0  0  0  0  0  0  0  0  0  0
   58.1294   30.9855   51.8425 H   0  0  0  0  0  0  0  0  0  0  0  0
   57.7959   32.3256   50.6787 H   0  0  0  0  0  0  0  0  0  0  0  0
   58.9913   29.5762   50.1085 H   0  0  0  0  0  0  0  0  0  0  0  0
   57.4811   30.3179   49.4438 H   0  0  0  0  0  0  0  0  0  0  0  0
   60.2070   31.4810   48.7860 H   0  0  0  0  0  0  0  0  0  0  0  0
   59.9462   28.6671   48.5724 H   0  0  0  0  0  0  0  0  0  0  0  0
   60.3292   26.4061   47.6091 H   0  0  0  0  0  0  0  0  0  0  0  0
   59.7168   25.9378   45.2425 H   0  0  0  0  0  0  0  0  0  0  0  0
   58.6309   27.6926   43.8567 H   0  0  0  0  0  0  0  0  0  0  0  0
   56.2998   29.2745   43.6998 H   0  0  0  0  0  0  0  0  0  0  0  0
   57.0315   30.6899   42.8703 H   0  0  0  0  0  0  0  0  0  0  0  0
   57.8845   29.1091   42.8703 H   0  0  0  0  0  0  0  0  0  0  0  0
   57.1690   32.3246   43.2941 H   0  0  0  0  0  0  0  0  0  0  0  0
   57.0252   34.6473   44.1669 H   0  0  0  0  0  0  0  0  0  0  0  0
   57.6950   35.1504   46.5094 H   0  0  0  0  0  0  0  0  0  0  0  0
   58.5649   33.3394   47.9774 H   0  0  0  0  0  0  0  0  0  0  0  0
  1  2  1  0
  2  3  1  0
  3  4  1  0
  4  5  1  0
  5  6  1  0
  6  7  1  0
  7  8  1  0
  8  9  1  0
  9 10  1  0
 10 11  1  0
 11 12  1  0
 12 13  1  0
 13 14  1  0
 14 15  1  0
 15 16  1  0
 16 17  2  0
 17 18  1  0
 18 19  2  0
 19 20  1  0
 20 21  2  0
 21 22  1  0
 22 23  2  0
 23 24  1  0
 23 25  1  0
 25 26  2  0
 26 27  1  0
 27 28  2  0
 28 29  1  0
 29 30  2  0
 30 16  1  0
 22 17  1  0
 30 25  1  0
  1 31  1  0
  1 32  1  0
  1 33  1  0
  2 34  1  0
  2 35  1  0
  3 36  1  0
  4 37  1  0
  4 38  1  0
  5 39  1  0
  5 40  1  0
  7 41  1  0
  7 42  1  0
  8 43  1  0
  8 44  1  0
 10 45  1  0
 10 46  1  0
 11 47  1  0
 11 48  1  0
 13 49  1  0
 13 50  1  0
 14 51  1  0
 14 52  1  0
 15 53  1  0
 18 54  1  0
 19 55  1  0
 20 56  1  0
 21 57  1  0
 24 58  1  0
 24 59  1  0
 24 60  1  0
 26 61  1  0
 27 62  1  0
 28 63  1  0
 29 64  1  0
M  CHG  1  23   1
M  END
>  <UniqueID>  (17) 
17

>  <SMILES>  (17) 
CCNCCOCCOCCOCCNc1c2ccccc2[n+](C)c2ccccc12

>  <Energy>  (17) 
90.1734654429517

>  <Genealogy>  (17) 
CCNCCOCCOCCOCCNc1c2ccccc2[n+](C)c2ccccc12 (3D coordinates assigned)
CCNCCOCCOCCOCCNc1c2ccccc2[n+](C)c2ccccc12 (optimized conformer: 90.1734654429517 kcal/mol)

>  <smiles>  (17) 
CCNCCOCCOCCOCCNc1c2ccccc2[n+](C)c2ccccc12

>  <score_type>  (17) 
oracle

>  <origin>  (17) 
adg

>  <m_score__min__energy>  (17) 
-5.4299999999999997

>  <m_primary>  (17) 
energy

$$$$
17:0
     RDKit          3D

 62 65  0  0  0  0  0  0  0  0999 V2000
   63.7470   33.4870   47.1040 C   0  0  0  0  0  0  0  0  0  0  0  0
   62.7950   32.3590   47.5250 C   0  0  0  0  0  0  0  0  0  0  0  0
   62.1740   32.5560   48.8560 N   0  0  0  0  0  0  0  0  0  0  0  0
   61.3620   31.3990   49.2730 C   0  0  0  0  0  0  0  0  0  0  0  0
   61.4260   33.8250   48.9540 C   0  0  0  0  0  0  0  0  0  0  0  0
   60.3570   33.8870   47.8950 C   0  0  0  0  0  0  0  0  0  0  0  0
   60.6100   34.5080   46.6620 C   0  0  0  0  0  0  0  0  0  0  0  0
   59.6230   34.5360   45.6720 C   0  0  0  0  0  0  0  0  0  0  0  0
   58.3780   33.9280   45.8930 C   0  0  0  0  0  0  0  0  0  0  0  0
   57.3120   33.9620   44.8290 C   0  0  0  0  0  0  0  0  0  0  0  0
   57.4300   32.8110   43.9320 N   0  0  0  0  0  0  0  0  0  0  0  0
   57.3940   31.4340   44.3590 C   0  0  0  0  0  0  0  0  0  0  0  0
   58.4870   30.8240   45.0030 C   0  0  0  0  0  0  0  0  0  0  0  0
   58.4130   29.4920   45.4180 C   0  0  0  0  0  0  0  0  0  0  0  0
   57.2530   28.7290   45.1820 C   0  0  0  0  0  0  0  0  0  0  0  0
   57.1460   27.3120   45.6260 C   0  0  0  0  0  0  0  0  0  0  0  0
   58.2570   26.4600   45.6820 C   0  0  0  0  0  0  0  0  0  0  0  0
   58.0960   25.1450   46.1120 C   0  0  0  0  0  0  0  0  0  0  0  0
   56.8190   24.6810   46.4700 C   0  0  0  0  0  0  0  0  0  0  0  0
   56.5870   23.3250   46.9280 N   0  0  0  0  0  0  0  0  0  0  0  0
   55.8520   23.0780   48.1840 C   0  0  0  0  0  0  0  0  0  0  0  0
   55.9320   21.6160   48.6340 C   0  0  0  0  0  0  0  0  0  0  0  0
   55.7450   20.7420   47.5440 O   0  0  0  0  0  0  0  0  0  0  0  0
   56.8540   20.8510   46.6800 C   0  0  0  0  0  0  0  0  0  0  0  0
   56.8800   22.2200   45.9960 C   0  0  0  0  0  0  0  0  0  0  0  0
   55.7750   25.5520   46.3840 N   0  0  0  0  0  0  0  0  0  0  0  0
   55.9310   26.8130   45.9790 N   0  0  0  0  0  0  0  0  0  0  0  0
   56.1650   29.3430   44.5360 C   0  0  0  0  0  0  0  0  0  0  0  0
   56.2380   30.6770   44.1280 C   0  0  0  0  0  0  0  0  0  0  0  0
   58.1230   33.3150   47.1300 C   0  0  0  0  0  0  0  0  0  0  0  0
   59.1080   33.2880   48.1210 C   0  0  0  0  0  0  0  0  0  0  0  0
   64.1579   33.9738   48.0007 H   0  0  0  0  0  0  0  0  0  0  0  0
   64.5691   33.0685   46.5048 H   0  0  0  0  0  0  0  0  0  0  0  0
   63.1963   34.2270   46.5048 H   0  0  0  0  0  0  0  0  0  0  0  0
   61.9921   32.2873   46.7765 H   0  0  0  0  0  0  0  0  0  0  0  0
   63.3990   31.4420   47.5896 H   0  0  0  0  0  0  0  0  0  0  0  0
   61.3285   31.3513   50.3715 H   0  0  0  0  0  0  0  0  0  0  0  0
   60.3405   31.5070   48.8794 H   0  0  0  0  0  0  0  0  0  0  0  0
   61.8108   30.4751   48.8794 H   0  0  0  0  0  0  0  0  0  0  0  0
   60.9572   33.8938   49.9467 H   0  0  0  0  0  0  0  0  0  0  0  0
   62.1234   34.6628   48.8067 H   0  0  0  0  0  0  0  0  0  0  0  0
   61.5883   34.9744   46.4738 H   0  0  0  0  0  0  0  0  0  0  0  0
   59.8239   35.0378   44.7140 H   0  0  0  0  0  0  0  0  0  0  0  0
   56.3229   33.9435   45.3099 H   0  0  0  0  0  0  0  0  0  0  0  0
   57.4356   34.8814   44.2379 H   0  0  0  0  0  0  0  0  0  0  0  0
   57.5430   33.0130   42.9130 H   0  0  0  0  0  0  0  0  0  0  0  0
   59.4067   31.4006   45.1809 H   0  0  0  0  0  0  0  0  0  0  0  0
   59.2697   29.0344   45.9345 H   0  0  0  0  0  0  0  0  0  0  0  0
   59.2511   26.8277   45.3879 H   0  0  0  0  0  0  0  0  0  0  0  0
   58.9647   24.4728   46.1711 H   0  0  0  0  0  0  0  0  0  0  0  0
   56.2794   23.7137   48.9734 H   0  0  0  0  0  0  0  0  0  0  0  0
   54.7930   23.3140   48.0029 H   0  0  0  0  0  0  0  0  0  0  0  0
   56.9206   21.4300   49.0790 H   0  0  0  0  0  0  0  0  0  0  0  0
   55.1371   21.4319   49.3717 H   0  0  0  0  0  0  0  0  0  0  0  0
   57.7783   20.7215   47.2621 H   0  0  0  0  0  0  0  0  0  0  0  0
   56.7752   20.0728   45.9066 H   0  0  0  0  0  0  0  0  0  0  0  0
   57.8790   22.3791   45.5638 H   0  0  0  0  0  0  0  0  0  0  0  0
   56.0985   22.2207   45.2219 H   0  0  0  0  0  0  0  0  0  0  0  0
   55.2468   28.7666   44.3500 H   0  0  0  0  0  0  0  0  0  0  0  0
   55.3784   31.1382   43.6197 H   0  0  0  0  0  0  0  0  0  0  0  0
   57.1428   32.8535   47.3202 H   0  0  0  0  0  0  0  0  0  0  0  0
   58.9034   32.7949   49.0828 H   0  0  0  0  0  0  0  0  0  0  0  0
  1  2  1  0
  2  3  1  0
  3  4  1  0
  3  5  1  0
  5  6  1  0
  6  7  2  0
  7  8  1  0
  8  9  2  0
  9 10  1  0
 10 11  1  0
 11 12  1  0
 12 13  2  0
 13 14  1  0
 14 15  2  0
 15 16  1  0
 16 17  2  0
 17 18  1  0
 18 19  2  0
 19 20  1  0
 20 21  1  0
 21 22  1  0
 22 23  1  0
 23 24  1  0
 24 25  1  0
 19 26  1  0
 26 27  2  0
 15 28  1  0
 28 29  2  0
  9 30  1  0
 30 31  2  0
 31  6  1  0
 29 12  1  0
 27 16  1  0
 25 20  1  0
  1 32  1  0
  1 33  1  0
  1 34  1  0
  2 35  1  0
  2 36  1  0
  4 37  1  0
  4 38  1  0
  4 39  1  0
  5 40  1  0
  5 41  1  0
  7 42  1  0
  8 43  1  0
 10 44  1  0
 10 45  1  0
 11 46  1  0
 13 47  1  0
 14 48  1  0
 17 49  1  0
 18 50  1  0
 21 51  1  0
 21 52  1  0
 22 53  1  0
 22 54  1  0
 24 55  1  0
 24 56  1  0
 25 57  1  0
 25 58  1  0
 28 59  1  0
 29 60  1  0
 30 61  1  0
 31 62  1  0
M  END
>  <UniqueID>  (18) 
18

>  <SMILES>  (18) 
CCN(C)Cc1ccc(CNc2ccc(-c3ccc(N4CCOCC4)nn3)cc2)cc1

>  <Energy>  (18) 
74.74660654494204

>  <Genealogy>  (18) 
CCN(C)Cc1ccc(CNc2ccc(-c3ccc(N4CCOCC4)nn3)cc2)cc1 (3D coordinates assigned)
CCN(C)Cc1ccc(CNc2ccc(-c3ccc(N4CCOCC4)nn3)cc2)cc1 (nonaromatic ring conformer: 74.74660654494204 kcal/mol)

>  <smiles>  (18) 
CCN(C)Cc1ccc(CNc2ccc(-c3ccc(N4CCOCC4)nn3)cc2)cc1

>  <score_type>  (18) 
oracle

>  <origin>  (18) 
adg

>  <m_score__min__energy>  (18) 
-9.3300000000000001

>  <m_primary>  (18) 
energy

$$$$
18:0
     RDKit          3D

 55 57  0  0  0  0  0  0  0  0999 V2000
   62.8620   33.8330   46.3400 C   0  0  0  0  0  0  0  0  0  0  0  0
   63.5700   33.9770   47.6900 C   0  0  0  0  0  0  0  0  0  0  0  0
   64.3660   32.7880   48.0400 N   0  0  0  0  0  0  0  0  0  0  0  0
   63.7040   31.9510   49.0580 C   0  0  0  0  0  0  0  0  0  0  0  0
   62.4710   31.2240   48.4950 C   0  0  0  0  0  0  0  0  0  0  0  0
   61.1760   31.6120   49.2220 C   0  0  0  0  0  0  0  0  0  0  0  0
   60.1210   30.5100   49.0910 C   0  0  0  0  0  0  0  0  0  0  0  0
   58.8620   31.0720   48.6060 N   0  0  0  0  0  0  0  0  0  0  0  0
   58.6610   31.3090   47.2050 C   0  0  0  0  0  0  0  0  0  0  0  0
   58.6040   32.6130   46.6710 C   0  0  0  0  0  0  0  0  0  0  0  0
   58.3430   32.7920   45.2900 C   0  0  0  0  0  0  0  0  0  0  0  0
   58.1340   31.6990   44.4690 N   0  0  0  0  0  0  0  0  0  0  0  0
   57.8090   31.8790   43.0430 C   0  0  0  0  0  0  0  0  0  0  0  0
   58.2580   30.4380   45.0000 C   0  0  0  0  0  0  0  0  0  0  0  0
   58.5200   30.2340   46.3300 C   0  0  0  0  0  0  0  0  0  0  0  0
   58.5530   28.7940   46.6840 C   0  0  0  0  0  0  0  0  0  0  0  0
   58.3650   28.0700   45.3420 C   0  0  0  0  0  0  0  0  0  0  0  0
   58.0850   29.1450   44.2790 C   0  0  0  0  0  0  0  0  0  0  0  0
   58.2240   34.2250   44.7940 C   0  0  0  0  0  0  0  0  0  0  0  0
   59.3480   35.1200   45.3490 C   0  0  0  0  0  0  0  0  0  0  0  0
   59.7500   34.8240   46.8130 C   0  0  0  0  0  0  0  0  0  0  0  0
   58.8170   33.8400   47.5250 C   0  0  0  0  0  0  0  0  0  0  0  0
   61.7964   33.6163   46.5061 H   0  0  0  0  0  0  0  0  0  0  0  0
   62.9615   34.7698   45.7720 H   0  0  0  0  0  0  0  0  0  0  0  0
   63.3195   33.0095   45.7720 H   0  0  0  0  0  0  0  0  0  0  0  0
   64.2392   34.8489   47.6460 H   0  0  0  0  0  0  0  0  0  0  0  0
   62.7957   34.0995   48.4617 H   0  0  0  0  0  0  0  0  0  0  0  0
   65.3070   33.0910   48.3800 H   0  0  0  0  0  0  0  0  0  0  0  0
   64.4980   32.2250   47.1660 H   0  0  0  0  0  0  0  0  0  0  0  0
   64.4219   31.2017   49.4229 H   0  0  0  0  0  0  0  0  0  0  0  0
   63.3671   32.6097   49.8720 H   0  0  0  0  0  0  0  0  0  0  0  0
   62.3673   31.4787   47.4299 H   0  0  0  0  0  0  0  0  0  0  0  0
   62.6248   30.1445   48.6401 H   0  0  0  0  0  0  0  0  0  0  0  0
   61.3964   31.7739   50.2874 H   0  0  0  0  0  0  0  0  0  0  0  0
   60.7804   32.5315   48.7659 H   0  0  0  0  0  0  0  0  0  0  0  0
   60.4767   29.7489   48.3809 H   0  0  0  0  0  0  0  0  0  0  0  0
   59.9540   30.0537   50.0779 H   0  0  0  0  0  0  0  0  0  0  0  0
   58.3120   31.6530   49.2780 H   0  0  0  0  0  0  0  0  0  0  0  0
   56.8502   32.4100   42.9496 H   0  0  0  0  0  0  0  0  0  0  0  0
   58.6022   32.4664   42.5574 H   0  0  0  0  0  0  0  0  0  0  0  0
   57.7319   30.8950   42.5574 H   0  0  0  0  0  0  0  0  0  0  0  0
   59.5179   28.5265   47.1395 H   0  0  0  0  0  0  0  0  0  0  0  0
   57.7811   28.5238   47.4196 H   0  0  0  0  0  0  0  0  0  0  0  0
   59.2778   27.5133   45.0833 H   0  0  0  0  0  0  0  0  0  0  0  0
   57.5332   27.3524   45.3993 H   0  0  0  0  0  0  0  0  0  0  0  0
   58.8006   29.0649   43.4474 H   0  0  0  0  0  0  0  0  0  0  0  0
   57.0830   29.0441   43.8364 H   0  0  0  0  0  0  0  0  0  0  0  0
   58.2778   34.2267   43.6953 H   0  0  0  0  0  0  0  0  0  0  0  0
   57.2625   34.6284   45.1445 H   0  0  0  0  0  0  0  0  0  0  0  0
   60.2373   34.9846   44.7159 H   0  0  0  0  0  0  0  0  0  0  0  0
   58.9590   36.1488   45.3368 H   0  0  0  0  0  0  0  0  0  0  0  0
   60.7657   34.4016   46.8148 H   0  0  0  0  0  0  0  0  0  0  0  0
   59.6881   35.7762   47.3603 H   0  0  0  0  0  0  0  0  0  0  0  0
   59.2664   33.5420   48.4837 H   0  0  0  0  0  0  0  0  0  0  0  0
   57.8470   34.3280   47.7008 H   0  0  0  0  0  0  0  0  0  0  0  0
  1  2  1  0
  2  3  1  0
  3  4  1  0
  4  5  1  0
  5  6  1  0
  6  7  1  0
  7  8  1  0
  8  9  1  0
  9 10  2  0
 10 11  1  0
 11 12  2  0
 12 13  1  0
 12 14  1  0
 14 15  2  0
 15 16  1  0
 16 17  1  0
 17 18  1  0
 11 19  1  0
 19 20  1  0
 20 21  1  0
 21 22  1  0
 15  9  1  0
 22 10  1  0
 18 14  1  0
  1 23  1  0
  1 24  1  0
  1 25  1  0
  2 26  1  0
  2 27  1  0
  3 28  1  0
  3 29  1  0
  4 30  1  0
  4 31  1  0
  5 32  1  0
  5 33  1  0
  6 34  1  0
  6 35  1  0
  7 36  1  0
  7 37  1  0
  8 38  1  0
 13 39  1  0
 13 40  1  0
 13 41  1  0
 16 42  1  0
 16 43  1  0
 17 44  1  0
 17 45  1  0
 18 46  1  0
 18 47  1  0
 19 48  1  0
 19 49  1  0
 20 50  1  0
 20 51  1  0
 21 52  1  0
 21 53  1  0
 22 54  1  0
 22 55  1  0
M  CHG  2   3   1  12   1
M  END
>  <UniqueID>  (19) 
19

>  <SMILES>  (19) 
CC[NH2+]CCCCNc1c2c([n+](C)c3c1CCC3)CCCC2

>  <Energy>  (19) 
68.4288426792617

>  <Genealogy>  (19) 
CC[NH2+]CCCCNc1c2c([n+](C)c3c1CCC3)CCCC2 (protonated)
CC[NH2+]CCCCNc1c2c([n+](C)c3c1CCC3)CCCC2 (3D coordinates assigned)
CC[NH2+]CCCCNc1c2c([n+](C)c3c1CCC3)CCCC2 (nonaromatic ring conformer: 68.4288426792617 kcal/mol)

>  <smiles>  (19) 
CCNCCCCNc1c2c([n+](C)c3c1CCC3)CCCC2

>  <score_type>  (19) 
oracle

>  <origin>  (19) 
adg

>  <m_score__min__energy>  (19) 
-4.6600000000000001

>  <m_primary>  (19) 
energy

$$$$
19:0
     RDKit          3D

 66 68  0  0  0  0  0  0  0  0999 V2000
   59.8900   35.1070   46.0610 C   0  0  0  0  0  0  0  0  0  0  0  0
   58.8330   34.5860   47.0320 C   0  0  0  0  0  0  0  0  0  0  0  0
   57.7240   33.9390   46.2960 N   0  0  0  0  0  0  0  0  0  0  0  0
   57.7630   34.3430   44.8790 C   0  0  0  0  0  0  0  0  0  0  0  0
   57.7730   32.4620   46.4260 C   0  0  0  0  0  0  0  0  0  0  0  0
   57.6470   31.7900   45.0560 C   0  0  0  0  0  0  0  0  0  0  0  0
   57.2540   30.4430   45.2160 O   0  0  0  0  0  0  0  0  0  0  0  0
   57.9780   29.5980   44.3400 C   0  0  0  0  0  0  0  0  0  0  0  0
   59.3840   29.3110   44.8720 C   0  0  0  0  0  0  0  0  0  0  0  0
   59.4940   29.7920   46.1980 O   0  0  0  0  0  0  0  0  0  0  0  0
   60.7540   30.4010   46.4090 C   0  0  0  0  0  0  0  0  0  0  0  0
   60.7210   31.4030   47.5400 C   0  0  0  0  0  0  0  0  0  0  0  0
   61.5380   32.5140   47.7080 C   0  0  0  0  0  0  0  0  0  0  0  0
   62.6470   32.9070   46.7720 C   0  0  0  0  0  0  0  0  0  0  0  0
   61.2370   33.1670   48.8690 N   0  0  0  0  0  0  0  0  0  0  0  0
   62.0280   34.2850   49.4110 C   0  0  0  0  0  0  0  0  0  0  0  0
   63.1440   33.7970   50.3470 C   0  0  0  0  0  0  0  0  0  0  0  0
   63.8010   32.5950   49.7820 N   0  0  0  0  0  0  0  0  0  0  0  0
   65.2660   32.7430   49.7870 C   0  0  0  0  0  0  0  0  0  0  0  0
   63.4300   31.3820   50.5330 C   0  0  0  0  0  0  0  0  0  0  0  0
   60.1860   32.4890   49.4260 C   0  0  0  0  0  0  0  0  0  0  0  0
   59.8790   31.4000   48.6310 C   0  0  0  0  0  0  0  0  0  0  0  0
   58.8880   30.4890   48.9800 C   0  0  0  0  0  0  0  0  0  0  0  0
   58.2010   30.6860   50.1320 N   0  0  0  0  0  0  0  0  0  0  0  0
   58.4370   31.7520   50.9500 C   0  0  0  0  0  0  0  0  0  0  0  0
   57.6700   31.8900   52.1120 C   0  0  0  0  0  0  0  0  0  0  0  0
   57.8580   32.9830   52.9540 C   0  0  0  0  0  0  0  0  0  0  0  0
   58.8050   33.9520   52.6340 C   0  0  0  0  0  0  0  0  0  0  0  0
   59.5830   33.8320   51.4800 C   0  0  0  0  0  0  0  0  0  0  0  0
   59.4390   32.7200   50.6210 C   0  0  0  0  0  0  0  0  0  0  0  0
   60.7354   35.5237   46.6282 H   0  0  0  0  0  0  0  0  0  0  0  0
   60.2451   34.2807   45.4276 H   0  0  0  0  0  0  0  0  0  0  0  0
   59.4510   35.8919   45.4276 H   0  0  0  0  0  0  0  0  0  0  0  0
   59.2944   33.8520   47.7091 H   0  0  0  0  0  0  0  0  0  0  0  0
   58.4308   35.4333   47.6067 H   0  0  0  0  0  0  0  0  0  0  0  0
   57.8685   35.4359   44.8121 H   0  0  0  0  0  0  0  0  0  0  0  0
   58.6188   33.8610   44.3837 H   0  0  0  0  0  0  0  0  0  0  0  0
   56.8308   34.0336   44.3837 H   0  0  0  0  0  0  0  0  0  0  0  0
   58.7306   32.1720   46.8830 H   0  0  0  0  0  0  0  0  0  0  0  0
   56.9328   32.1360   47.0567 H   0  0  0  0  0  0  0  0  0  0  0  0
   56.8928   32.3214   44.4570 H   0  0  0  0  0  0  0  0  0  0  0  0
   58.6201   31.8251   44.5444 H   0  0  0  0  0  0  0  0  0  0  0  0
   57.4359   28.6470   44.2315 H   0  0  0  0  0  0  0  0  0  0  0  0
   58.0735   30.1073   43.3697 H   0  0  0  0  0  0  0  0  0  0  0  0
   59.5665   28.2263   44.8591 H   0  0  0  0  0  0  0  0  0  0  0  0
   60.1265   29.8155   44.2363 H   0  0  0  0  0  0  0  0  0  0  0  0
   61.4896   29.6193   46.6495 H   0  0  0  0  0  0  0  0  0  0  0  0
   61.0278   30.9386   45.4892 H   0  0  0  0  0  0  0  0  0  0  0  0
   63.5260   33.2185   47.3553 H   0  0  0  0  0  0  0  0  0  0  0  0
   62.9132   32.0485   46.1379 H   0  0  0  0  0  0  0  0  0  0  0  0
   62.3132   33.7416   46.1379 H   0  0  0  0  0  0  0  0  0  0  0  0
   62.4815   34.8378   48.5751 H   0  0  0  0  0  0  0  0  0  0  0  0
   61.3527   34.9294   49.9930 H   0  0  0  0  0  0  0  0  0  0  0  0
   63.8908   34.5955   50.4682 H   0  0  0  0  0  0  0  0  0  0  0  0
   62.7055   33.5396   51.3224 H   0  0  0  0  0  0  0  0  0  0  0  0
   65.6273   32.7795   50.8253 H   0  0  0  0  0  0  0  0  0  0  0  0
   65.7228   31.8864   49.2697 H   0  0  0  0  0  0  0  0  0  0  0  0
   65.5423   33.6736   49.2697 H   0  0  0  0  0  0  0  0  0  0  0  0
   63.4923   31.5855   51.6122 H   0  0  0  0  0  0  0  0  0  0  0  0
   62.4016   31.0903   50.2736 H   0  0  0  0  0  0  0  0  0  0  0  0
   64.1193   30.5650   50.2736 H   0  0  0  0  0  0  0  0  0  0  0  0
   58.6661   29.6263   48.3346 H   0  0  0  0  0  0  0  0  0  0  0  0
   56.9142   31.1308   52.3618 H   0  0  0  0  0  0  0  0  0  0  0  0
   57.2588   33.0807   53.8712 H   0  0  0  0  0  0  0  0  0  0  0  0
   58.9418   34.8199   53.2958 H   0  0  0  0  0  0  0  0  0  0  0  0
   60.3176   34.6139   51.2370 H   0  0  0  0  0  0  0  0  0  0  0  0
  1  2  1  0
  2  3  1  0
  3  4  1  0
  3  5  1  0
  5  6  1  0
  6  7  1  0
  7  8  1  0
  8  9  1  0
  9 10  1  0
 10 11  1  0
 11 12  1  0
 12 13  2  0
 13 14  1  0
 13 15  1  0
 15 16  1  0
 16 17  1  0
 17 18  1  0
 18 19  1  0
 18 20  1  0
 15 21  1  0
 21 22  2  0
 22 23  1  0
 23 24  2  0
 24 25  1  0
 25 26  2  0
 26 27  1  0
 27 28  2  0
 28 29  1  0
 29 30  2  0
 22 12  1  0
 30 25  1  0
 30 21  1  0
  1 31  1  0
  1 32  1  0
  1 33  1  0
  2 34  1  0
  2 35  1  0
  4 36  1  0
  4 37  1  0
  4 38  1  0
  5 39  1  0
  5 40  1  0
  6 41  1  0
  6 42  1  0
  8 43  1  0
  8 44  1  0
  9 45  1  0
  9 46  1  0
 11 47  1  0
 11 48  1  0
 14 49  1  0
 14 50  1  0
 14 51  1  0
 16 52  1  0
 16 53  1  0
 17 54  1  0
 17 55  1  0
 19 56  1  0
 19 57  1  0
 19 58  1  0
 20 59  1  0
 20 60  1  0
 20 61  1  0
 23 62  1  0
 26 63  1  0
 27 64  1  0
 28 65  1  0
 29 66  1  0
M  END
>  <UniqueID>  (20) 
20

>  <SMILES>  (20) 
CCN(C)CCOCCOCc1c(C)n(CCN(C)C)c2c1cnc1ccccc12

>  <Energy>  (20) 
108.12592721109468

>  <Genealogy>  (20) 
CCN(C)CCOCCOCc1c(C)n(CCN(C)C)c2c1cnc1ccccc12 (3D coordinates assigned)
CCN(C)CCOCCOCc1c(C)n(CCN(C)C)c2c1cnc1ccccc12 (optimized conformer: 108.12592721109468 kcal/mol)

>  <smiles>  (20) 
CCN(C)CCOCCOCc1c(C)n(CCN(C)C)c2c1cnc1ccccc12

>  <score_type>  (20) 
oracle

>  <origin>  (20) 
adg

>  <m_score__min__energy>  (20) 
-8.1099999999999994

>  <m_primary>  (20) 
energy

$$$$
20:0
     RDKit          3D

 60 62  0  0  0  0  0  0  0  0999 V2000
   63.1810   33.9110   50.0590 C   0  0  0  0  0  0  0  0  0  0  0  0
   62.2380   33.4140   48.9510 C   0  0  0  0  0  0  0  0  0  0  0  0
   62.7140   32.1910   48.2620 N   0  0  0  0  0  0  0  0  0  0  0  0
   63.6160   32.4790   47.1250 C   0  0  0  0  0  0  0  0  0  0  0  0
   63.3880   33.8960   46.6010 C   0  0  0  0  0  0  0  0  0  0  0  0
   61.6170   31.2550   47.9210 C   0  0  0  0  0  0  0  0  0  0  0  0
   60.7340   31.0430   49.1470 C   0  0  0  0  0  0  0  0  0  0  0  0
   59.3250   30.9440   48.7590 N   0  0  0  0  0  0  0  0  0  0  0  0
   58.9040   31.1180   47.3970 C   0  0  0  0  0  0  0  0  0  0  0  0
   58.5270   32.3910   46.9220 C   0  0  0  0  0  0  0  0  0  0  0  0
   58.1220   32.5320   45.5660 C   0  0  0  0  0  0  0  0  0  0  0  0
   58.0750   31.4270   44.7350 N   0  0  0  0  0  0  0  0  0  0  0  0
   57.4580   31.5350   43.3990 C   0  0  0  0  0  0  0  0  0  0  0  0
   58.5810   30.2190   45.1650 C   0  0  0  0  0  0  0  0  0  0  0  0
   58.9000   30.0240   46.5200 C   0  0  0  0  0  0  0  0  0  0  0  0
   59.1130   28.6020   46.9920 C   0  0  0  0  0  0  0  0  0  0  0  0
   60.1170   27.8510   46.1030 C   0  0  0  0  0  0  0  0  0  0  0  0
   60.0890   28.2850   44.6210 C   0  0  0  0  0  0  0  0  0  0  0  0
   58.8130   29.0440   44.2270 C   0  0  0  0  0  0  0  0  0  0  0  0
   57.8730   33.9460   45.0400 C   0  0  0  0  0  0  0  0  0  0  0  0
   59.1810   34.7450   44.8860 C   0  0  0  0  0  0  0  0  0  0  0  0
   60.1820   34.5810   46.0440 C   0  0  0  0  0  0  0  0  0  0  0  0
   59.5460   34.7230   47.4390 C   0  0  0  0  0  0  0  0  0  0  0  0
   58.5450   33.6080   47.8440 C   0  0  0  0  0  0  0  0  0  0  0  0
   62.7447   33.6811   51.0422 H   0  0  0  0  0  0  0  0  0  0  0  0
   64.1552   33.4092   49.9637 H   0  0  0  0  0  0  0  0  0  0  0  0
   63.3177   34.9983   49.9637 H   0  0  0  0  0  0  0  0  0  0  0  0
   61.2577   33.1988   49.4011 H   0  0  0  0  0  0  0  0  0  0  0  0
   62.1887   34.2093   48.1927 H   0  0  0  0  0  0  0  0  0  0  0  0
   64.6597   32.3806   47.4581 H   0  0  0  0  0  0  0  0  0  0  0  0
   63.4049   31.7643   46.3159 H   0  0  0  0  0  0  0  0  0  0  0  0
   63.2768   34.5872   47.4494 H   0  0  0  0  0  0  0  0  0  0  0  0
   64.2483   34.2032   45.9882 H   0  0  0  0  0  0  0  0  0  0  0  0
   62.4748   33.9178   45.9882 H   0  0  0  0  0  0  0  0  0  0  0  0
   61.0147   31.6775   47.1033 H   0  0  0  0  0  0  0  0  0  0  0  0
   62.0412   30.2915   47.6020 H   0  0  0  0  0  0  0  0  0  0  0  0
   61.0354   30.1139   49.6529 H   0  0  0  0  0  0  0  0  0  0  0  0
   60.8552   31.9021   49.8232 H   0  0  0  0  0  0  0  0  0  0  0  0
   58.6040   30.7790   49.4970 H   0  0  0  0  0  0  0  0  0  0  0  0
   56.3797   31.7237   43.5073 H   0  0  0  0  0  0  0  0  0  0  0  0
   57.9220   32.3656   42.8469 H   0  0  0  0  0  0  0  0  0  0  0  0
   57.6123   30.5962   42.8469 H   0  0  0  0  0  0  0  0  0  0  0  0
   59.4958   28.6224   48.0230 H   0  0  0  0  0  0  0  0  0  0  0  0
   58.1485   28.0757   46.9393 H   0  0  0  0  0  0  0  0  0  0  0  0
   61.1286   28.0289   46.4967 H   0  0  0  0  0  0  0  0  0  0  0  0
   59.8337   26.7884   46.1295 H   0  0  0  0  0  0  0  0  0  0  0  0
   60.9541   28.9380   44.4334 H   0  0  0  0  0  0  0  0  0  0  0  0
   60.1187   27.3673   44.0153 H   0  0  0  0  0  0  0  0  0  0  0  0
   58.9173   29.4176   43.1977 H   0  0  0  0  0  0  0  0  0  0  0  0
   57.9555   28.3585   44.2965 H   0  0  0  0  0  0  0  0  0  0  0  0
   57.3812   33.8779   44.0584 H   0  0  0  0  0  0  0  0  0  0  0  0
   57.2383   34.4718   45.7685 H   0  0  0  0  0  0  0  0  0  0  0  0
   59.6743   34.4172   43.9591 H   0  0  0  0  0  0  0  0  0  0  0  0
   58.8939   35.8068   44.8750 H   0  0  0  0  0  0  0  0  0  0  0  0
   60.6372   33.5823   45.9703 H   0  0  0  0  0  0  0  0  0  0  0  0
   60.9219   35.3889   45.9451 H   0  0  0  0  0  0  0  0  0  0  0  0
   60.3584   34.7322   48.1805 H   0  0  0  0  0  0  0  0  0  0  0  0
   58.9588   35.6525   47.4054 H   0  0  0  0  0  0  0  0  0  0  0  0
   58.8068   33.2656   48.8560 H   0  0  0  0  0  0  0  0  0  0  0  0
   57.5427   34.0567   47.7804 H   0  0  0  0  0  0  0  0  0  0  0  0
  1  2  1  0
  2  3  1  0
  3  4  1  0
  4  5  1  0
  3  6  1  0
  6  7  1  0
  7  8  1  0
  8  9  1  0
  9 10  2  0
 10 11  1  0
 11 12  2  0
 12 13  1  0
 12 14  1  0
 14 15  2  0
 15 16  1  0
 16 17  1  0
 17 18  1  0
 18 19  1  0
 11 20  1  0
 20 21  1  0
 21 22  1  0
 22 23  1  0
 23 24  1  0
 15  9  1  0
 24 10  1  0
 19 14  1  0
  1 25  1  0
  1 26  1  0
  1 27  1  0
  2 28  1  0
  2 29  1  0
  4 30  1  0
  4 31  1  0
  5 32  1  0
  5 33  1  0
  5 34  1  0
  6 35  1  0
  6 36  1  0
  7 37  1  0
  7 38  1  0
  8 39  1  0
 13 40  1  0
 13 41  1  0
 13 42  1  0
 16 43  1  0
 16 44  1  0
 17 45  1  0
 17 46  1  0
 18 47  1  0
 18 48  1  0
 19 49  1  0
 19 50  1  0
 20 51  1  0
 20 52  1  0
 21 53  1  0
 21 54  1  0
 22 55  1  0
 22 56  1  0
 23 57  1  0
 23 58  1  0
 24 59  1  0
 24 60  1  0
M  CHG  1  12   1
M  END
>  <UniqueID>  (21) 
21

>  <SMILES>  (21) 
CCN(CC)CCNc1c2c([n+](C)c3c1CCCC3)CCCCC2

>  <Energy>  (21) 
87.31115020989115

>  <Genealogy>  (21) 
CCN(CC)CCNc1c2c([n+](C)c3c1CCCC3)CCCCC2 (3D coordinates assigned)
CCN(CC)CCNc1c2c([n+](C)c3c1CCCC3)CCCCC2 (nonaromatic ring conformer: 87.31115020989115 kcal/mol)

>  <smiles>  (21) 
CCN(CC)CCNc1c2c([n+](C)c3c1CCCC3)CCCCC2

>  <score_type>  (21) 
oracle

>  <origin>  (21) 
adg

>  <m_score__min__energy>  (21) 
-4.4100000000000001

>  <m_primary>  (21) 
energy

$$$$
21:0
     RDKit          3D

 48 50  0  0  0  0  0  0  0  0999 V2000
   56.6340   26.6230   45.9970 C   0  0  0  0  0  0  0  0  0  0  0  0
   55.8930   27.7720   45.5980 O   0  0  0  0  0  0  0  0  0  0  0  0
   56.4670   28.9500   45.0980 C   0  0  0  0  0  0  0  0  0  0  0  0
   57.6900   29.3710   45.6320 C   0  0  0  0  0  0  0  0  0  0  0  0
   58.3000   30.5410   45.1720 C   0  0  0  0  0  0  0  0  0  0  0  0
   57.6870   31.3210   44.1780 C   0  0  0  0  0  0  0  0  0  0  0  0
   58.3500   32.5950   43.6890 C   0  0  0  0  0  0  0  0  0  0  0  0
   58.3570   33.6890   44.6870 N   0  0  0  0  0  0  0  0  0  0  0  0
   57.2550   33.6320   45.6760 C   0  0  0  0  0  0  0  0  0  0  0  0
   57.7640   33.2630   47.0760 C   0  0  0  0  0  0  0  0  0  0  0  0
   58.7510   34.2520   47.5750 N   0  0  0  0  0  0  0  0  0  0  0  0
   59.5790   33.6560   48.6440 C   0  0  0  0  0  0  0  0  0  0  0  0
   60.9250   33.2250   48.0990 C   0  0  0  0  0  0  0  0  0  0  0  0
   61.9730   34.1600   48.0800 C   0  0  0  0  0  0  0  0  0  0  0  0
   63.2270   33.8050   47.5880 C   0  0  0  0  0  0  0  0  0  0  0  0
   63.4340   32.5100   47.1200 C   0  0  0  0  0  0  0  0  0  0  0  0
   62.4210   31.6060   47.1500 N   0  0  0  0  0  0  0  0  0  0  0  0
   61.1820   31.9150   47.6220 C   0  0  0  0  0  0  0  0  0  0  0  0
   60.1350   30.8400   47.6230 C   0  0  0  0  0  0  0  0  0  0  0  0
   59.5780   34.8630   46.5000 C   0  0  0  0  0  0  0  0  0  0  0  0
   59.6910   33.9540   45.2690 C   0  0  0  0  0  0  0  0  0  0  0  0
   56.4740   30.8830   43.6220 C   0  0  0  0  0  0  0  0  0  0  0  0
   55.8630   29.7130   44.0830 C   0  0  0  0  0  0  0  0  0  0  0  0
   56.6673   26.5714   47.0953 H   0  0  0  0  0  0  0  0  0  0  0  0
   56.1487   25.7183   45.6019 H   0  0  0  0  0  0  0  0  0  0  0  0
   57.6583   26.6919   45.6019 H   0  0  0  0  0  0  0  0  0  0  0  0
   58.1750   28.7763   46.4201 H   0  0  0  0  0  0  0  0  0  0  0  0
   59.2676   30.8534   45.5916 H   0  0  0  0  0  0  0  0  0  0  0  0
   59.3916   32.3630   43.4222 H   0  0  0  0  0  0  0  0  0  0  0  0
   57.7630   32.9507   42.8294 H   0  0  0  0  0  0  0  0  0  0  0  0
   56.7672   34.6168   45.7226 H   0  0  0  0  0  0  0  0  0  0  0  0
   56.5465   32.8546   45.3540 H   0  0  0  0  0  0  0  0  0  0  0  0
   56.9104   33.2292   47.7690 H   0  0  0  0  0  0  0  0  0  0  0  0
   58.2590   32.2825   47.0155 H   0  0  0  0  0  0  0  0  0  0  0  0
   59.7326   34.4001   49.4394 H   0  0  0  0  0  0  0  0  0  0  0  0
   59.0593   32.7728   49.0439 H   0  0  0  0  0  0  0  0  0  0  0  0
   61.8024   35.1795   48.4562 H   0  0  0  0  0  0  0  0  0  0  0  0
   64.0451   34.5400   47.5694 H   0  0  0  0  0  0  0  0  0  0  0  0
   64.4188   32.2190   46.7257 H   0  0  0  0  0  0  0  0  0  0  0  0
   59.8797   30.5778   48.6603 H   0  0  0  0  0  0  0  0  0  0  0  0
   59.2355   31.2037   47.1047 H   0  0  0  0  0  0  0  0  0  0  0  0
   60.5223   29.9504   47.1047 H   0  0  0  0  0  0  0  0  0  0  0  0
   59.1177   35.8149   46.1966 H   0  0  0  0  0  0  0  0  0  0  0  0
   60.5910   35.0180   46.8998 H   0  0  0  0  0  0  0  0  0  0  0  0
   60.3224   34.4458   44.5144 H   0  0  0  0  0  0  0  0  0  0  0  0
   60.1374   32.9971   45.5773 H   0  0  0  0  0  0  0  0  0  0  0  0
   56.0009   31.4651   42.8174 H   0  0  0  0  0  0  0  0  0  0  0  0
   54.9056   29.3879   43.6498 H   0  0  0  0  0  0  0  0  0  0  0  0
  1  2  1  0
  2  3  1  0
  3  4  2  0
  4  5  1  0
  5  6  2  0
  6  7  1  0
  7  8  1  0
  8  9  1  0
  9 10  1  0
 10 11  1  0
 11 12  1  0
 12 13  1  0
 13 14  2  0
 14 15  1  0
 15 16  2  0
 16 17  1  0
 17 18  2  0
 18 19  1  0
 11 20  1  0
 20 21  1  0
  6 22  1  0
 22 23  2  0
 23  3  1  0
 21  8  1  0
 18 13  1  0
  1 24  1  0
  1 25  1  0
  1 26  1  0
  4 27  1  0
  5 28  1  0
  7 29  1  0
  7 30  1  0
  9 31  1  0
  9 32  1  0
 10 33  1  0
 10 34  1  0
 12 35  1  0
 12 36  1  0
 14 37  1  0
 15 38  1  0
 16 39  1  0
 19 40  1  0
 19 41  1  0
 19 42  1  0
 20 43  1  0
 20 44  1  0
 21 45  1  0
 21 46  1  0
 22 47  1  0
 23 48  1  0
M  END
>  <UniqueID>  (22) 
22

>  <SMILES>  (22) 
COc1ccc(CN2CCN(Cc3cccnc3C)CC2)cc1

>  <Energy>  (22) 
64.75693243892272

>  <Genealogy>  (22) 
COc1ccc(CN2CCN(Cc3cccnc3C)CC2)cc1 (3D coordinates assigned)
COc1ccc(CN2CCN(Cc3cccnc3C)CC2)cc1 (nonaromatic ring conformer: 64.75693243892272 kcal/mol)

>  <smiles>  (22) 
COc1ccc(CN2CCN(Cc3cccnc3C)CC2)cc1

>  <score_type>  (22) 
oracle

>  <origin>  (22) 
adg

>  <m_score__min__energy>  (22) 
-8.1199999999999992

>  <m_primary>  (22) 
energy

$$$$
22:0
     RDKit          3D

 56 59  0  0  0  0  0  0  0  0999 V2000
   57.5110   31.4550   43.7020 C   0  0  0  0  0  0  0  0  0  0  0  0
   56.7950   30.3820   43.3580 C   0  0  0  0  0  0  0  0  0  0  0  0
   55.4960   30.0560   44.0380 C   0  0  0  0  0  0  0  0  0  0  0  0
   55.6390   28.9120   44.8830 O   0  0  0  0  0  0  0  0  0  0  0  0
   56.8570   28.4060   45.3650 C   0  0  0  0  0  0  0  0  0  0  0  0
   57.4070   27.1930   44.9130 C   0  0  0  0  0  0  0  0  0  0  0  0
   58.6220   26.7360   45.4300 C   0  0  0  0  0  0  0  0  0  0  0  0
   59.2980   27.4790   46.3980 C   0  0  0  0  0  0  0  0  0  0  0  0
   58.7660   28.6940   46.8630 C   0  0  0  0  0  0  0  0  0  0  0  0
   59.4630   29.4610   47.8680 N   0  0  0  0  0  0  0  0  0  0  0  0
   58.8840   29.6220   49.2110 C   0  0  0  0  0  0  0  0  0  0  0  0
   59.2300   30.9990   49.8100 C   0  0  0  0  0  0  0  0  0  0  0  0
   60.5700   31.5030   49.4180 N   0  0  0  0  0  0  0  0  0  0  0  0
   61.1930   32.3640   50.4480 C   0  0  0  0  0  0  0  0  0  0  0  0
   61.6470   33.7380   49.9180 C   0  0  0  0  0  0  0  0  0  0  0  0
   61.5800   33.7580   48.4550 N   0  0  0  0  0  0  0  0  0  0  0  0
   62.6120   33.7320   47.5700 C   0  0  0  0  0  0  0  0  0  0  0  0
   64.0500   33.6000   47.9610 C   0  0  0  0  0  0  0  0  0  0  0  0
   62.2150   33.8410   46.2740 N   0  0  0  0  0  0  0  0  0  0  0  0
   60.8780   33.9530   46.3760 C   0  0  0  0  0  0  0  0  0  0  0  0
   59.9600   34.1120   45.3400 C   0  0  0  0  0  0  0  0  0  0  0  0
   58.6000   34.2340   45.6850 C   0  0  0  0  0  0  0  0  0  0  0  0
   58.1980   34.1980   47.0390 C   0  0  0  0  0  0  0  0  0  0  0  0
   59.1510   34.0370   48.0620 C   0  0  0  0  0  0  0  0  0  0  0  0
   60.4900   33.9120   47.6840 C   0  0  0  0  0  0  0  0  0  0  0  0
   61.4750   30.4750   48.8800 C   0  0  0  0  0  0  0  0  0  0  0  0
   60.8520   29.8760   47.6220 C   0  0  0  0  0  0  0  0  0  0  0  0
   57.5410   29.1460   46.3380 C   0  0  0  0  0  0  0  0  0  0  0  0
   58.4593   31.6713   43.1882 H   0  0  0  0  0  0  0  0  0  0  0  0
   57.1527   32.1228   44.4993 H   0  0  0  0  0  0  0  0  0  0  0  0
   57.1644   29.7222   42.5591 H   0  0  0  0  0  0  0  0  0  0  0  0
   55.1814   30.9167   44.6464 H   0  0  0  0  0  0  0  0  0  0  0  0
   54.7412   29.8345   43.2691 H   0  0  0  0  0  0  0  0  0  0  0  0
   56.8790   26.6022   44.1500 H   0  0  0  0  0  0  0  0  0  0  0  0
   59.0471   25.7866   45.0723 H   0  0  0  0  0  0  0  0  0  0  0  0
   60.2537   27.1116   46.8000 H   0  0  0  0  0  0  0  0  0  0  0  0
   57.7903   29.5255   49.1433 H   0  0  0  0  0  0  0  0  0  0  0  0
   59.3043   28.8439   49.8652 H   0  0  0  0  0  0  0  0  0  0  0  0
   58.4745   31.7238   49.4726 H   0  0  0  0  0  0  0  0  0  0  0  0
   59.2398   30.8795   50.9034 H   0  0  0  0  0  0  0  0  0  0  0  0
   60.4610   32.5272   51.2527 H   0  0  0  0  0  0  0  0  0  0  0  0
   62.0952   31.8419   50.7993 H   0  0  0  0  0  0  0  0  0  0  0  0
   60.9887   34.5204   50.3235 H   0  0  0  0  0  0  0  0  0  0  0  0
   62.6843   33.9221   50.2344 H   0  0  0  0  0  0  0  0  0  0  0  0
   64.1325   33.5924   49.0579 H   0  0  0  0  0  0  0  0  0  0  0  0
   64.4553   32.6609   47.5563 H   0  0  0  0  0  0  0  0  0  0  0  0
   64.6195   34.4496   47.5563 H   0  0  0  0  0  0  0  0  0  0  0  0
   60.2859   34.1412   44.2898 H   0  0  0  0  0  0  0  0  0  0  0  0
   57.8452   34.3582   44.8945 H   0  0  0  0  0  0  0  0  0  0  0  0
   57.1328   34.2965   47.2953 H   0  0  0  0  0  0  0  0  0  0  0  0
   58.8525   34.0106   49.1204 H   0  0  0  0  0  0  0  0  0  0  0  0
   62.4446   30.9308   48.6306 H   0  0  0  0  0  0  0  0  0  0  0  0
   61.6303   29.6860   49.6305 H   0  0  0  0  0  0  0  0  0  0  0  0
   60.8658   30.6290   46.8202 H   0  0  0  0  0  0  0  0  0  0  0  0
   61.4356   28.9907   47.3294 H   0  0  0  0  0  0  0  0  0  0  0  0
   57.1144   30.0942   46.6970 H   0  0  0  0  0  0  0  0  0  0  0  0
  1  2  2  0
  2  3  1  0
  3  4  1  0
  4  5  1  0
  5  6  2  0
  6  7  1  0
  7  8  2  0
  8  9  1  0
  9 10  1  0
 10 11  1  0
 11 12  1  0
 12 13  1  0
 13 14  1  0
 14 15  1  0
 15 16  1  0
 16 17  1  0
 17 18  1  0
 17 19  2  0
 19 20  1  0
 20 21  2  0
 21 22  1  0
 22 23  2  0
 23 24  1  0
 24 25  2  0
 13 26  1  0
 26 27  1  0
  9 28  2  0
 28  5  1  0
 27 10  1  0
 25 16  1  0
 25 20  1  0
  1 29  1  0
  1 30  1  0
  2 31  1  0
  3 32  1  0
  3 33  1  0
  6 34  1  0
  7 35  1  0
  8 36  1  0
 11 37  1  0
 11 38  1  0
 12 39  1  0
 12 40  1  0
 14 41  1  0
 14 42  1  0
 15 43  1  0
 15 44  1  0
 18 45  1  0
 18 46  1  0
 18 47  1  0
 21 48  1  0
 22 49  1  0
 23 50  1  0
 24 51  1  0
 26 52  1  0
 26 53  1  0
 27 54  1  0
 27 55  1  0
 28 56  1  0
M  END
>  <UniqueID>  (23) 
23

>  <SMILES>  (23) 
C=CCOc1cccc(N2CCN(CCn3c(C)nc4ccccc43)CC2)c1

>  <Energy>  (23) 
102.10138240650993

>  <Genealogy>  (23) 
C=CCOc1cccc(N2CCN(CCn3c(C)nc4ccccc43)CC2)c1 (3D coordinates assigned)
C=CCOc1cccc(N2CCN(CCn3c(C)nc4ccccc43)CC2)c1 (nonaromatic ring conformer: 102.10138240650993 kcal/mol)

>  <smiles>  (23) 
C=CCOc1cccc(N2CCN(CCn3c(C)nc4ccccc43)CC2)c1

>  <score_type>  (23) 
oracle

>  <origin>  (23) 
adg

>  <m_score__min__energy>  (23) 
-8.0999999999999996

>  <m_primary>  (23) 
energy

$$$$
23:0
     RDKit          3D

 52 54  0  0  0  0  0  0  0  0999 V2000
   55.4120   29.4380   52.7640 C   0  0  0  0  0  0  0  0  0  0  0  0
   56.1080   30.5450   51.9790 C   0  0  0  0  0  0  0  0  0  0  0  0
   57.4540   30.1140   51.5770 N   0  0  0  0  0  0  0  0  0  0  0  0
   58.4190   31.2200   51.6420 C   0  0  0  0  0  0  0  0  0  0  0  0
   59.6420   30.9090   50.7740 C   0  0  0  0  0  0  0  0  0  0  0  0
   59.4600   31.4290   49.4020 N   0  0  0  0  0  0  0  0  0  0  0  0
   59.8340   32.7120   49.0680 C   0  0  0  0  0  0  0  0  0  0  0  0
   60.6380   33.8270   50.2360 S   0  0  0  0  0  0  0  0  0  0  0  0
   62.3210   33.1510   49.9860 C   0  0  0  0  0  0  0  0  0  0  0  0
   63.0300   33.8290   48.8080 C   0  0  0  0  0  0  0  0  0  0  0  0
   62.6530   33.2040   47.5220 N   0  0  0  0  0  0  0  0  0  0  0  0
   62.9630   31.7640   47.5150 C   0  0  0  0  0  0  0  0  0  0  0  0
   63.3490   33.8620   46.4050 C   0  0  0  0  0  0  0  0  0  0  0  0
   59.5990   33.1890   47.8200 N   0  0  0  0  0  0  0  0  0  0  0  0
   59.0160   32.4340   46.8630 C   0  0  0  0  0  0  0  0  0  0  0  0
   58.8130   32.9660   45.5850 C   0  0  0  0  0  0  0  0  0  0  0  0
   58.2080   32.1890   44.5870 C   0  0  0  0  0  0  0  0  0  0  0  0
   58.0000   32.7150   43.3020 C   0  0  0  0  0  0  0  0  0  0  0  0
   57.3930   31.9330   42.3140 C   0  0  0  0  0  0  0  0  0  0  0  0
   56.9910   30.6260   42.6000 C   0  0  0  0  0  0  0  0  0  0  0  0
   57.1950   30.0910   43.8750 C   0  0  0  0  0  0  0  0  0  0  0  0
   57.8040   30.8640   44.8770 C   0  0  0  0  0  0  0  0  0  0  0  0
   58.0150   30.3350   46.1590 C   0  0  0  0  0  0  0  0  0  0  0  0
   58.6250   31.1180   47.1580 C   0  0  0  0  0  0  0  0  0  0  0  0
   58.8560   30.6320   48.4570 C   0  0  0  0  0  0  0  0  0  0  0  0
   58.5010   29.4560   48.7520 O   0  0  0  0  0  0  0  0  0  0  0  0
   55.5288   29.6238   53.8419 H   0  0  0  0  0  0  0  0  0  0  0  0
   54.3423   29.4240   52.5081 H   0  0  0  0  0  0  0  0  0  0  0  0
   55.8630   28.4679   52.5081 H   0  0  0  0  0  0  0  0  0  0  0  0
   55.5181   30.7791   51.0805 H   0  0  0  0  0  0  0  0  0  0  0  0
   56.1927   31.4376   52.6163 H   0  0  0  0  0  0  0  0  0  0  0  0
   57.4080   29.7920   50.5810 H   0  0  0  0  0  0  0  0  0  0  0  0
   57.9404   32.1412   51.2782 H   0  0  0  0  0  0  0  0  0  0  0  0
   58.7439   31.3511   52.6847 H   0  0  0  0  0  0  0  0  0  0  0  0
   60.5305   31.3778   51.2221 H   0  0  0  0  0  0  0  0  0  0  0  0
   59.7687   29.8175   50.7227 H   0  0  0  0  0  0  0  0  0  0  0  0
   62.9110   33.3140   50.9000 H   0  0  0  0  0  0  0  0  0  0  0  0
   62.2320   32.0774   49.7634 H   0  0  0  0  0  0  0  0  0  0  0  0
   62.7499   34.8925   48.7852 H   0  0  0  0  0  0  0  0  0  0  0  0
   64.1156   33.7152   48.9442 H   0  0  0  0  0  0  0  0  0  0  0  0
   63.0412   31.4007   48.5503 H   0  0  0  0  0  0  0  0  0  0  0  0
   62.1616   31.2189   46.9947 H   0  0  0  0  0  0  0  0  0  0  0  0
   63.9177   31.5970   46.9947 H   0  0  0  0  0  0  0  0  0  0  0  0
   64.0945   34.5668   46.8017 H   0  0  0  0  0  0  0  0  0  0  0  0
   63.8534   33.1029   45.7891 H   0  0  0  0  0  0  0  0  0  0  0  0
   62.6194   34.4082   45.7891 H   0  0  0  0  0  0  0  0  0  0  0  0
   59.1287   33.9960   45.3628 H   0  0  0  0  0  0  0  0  0  0  0  0
   58.3149   33.7436   43.0720 H   0  0  0  0  0  0  0  0  0  0  0  0
   57.2316   32.3485   41.3084 H   0  0  0  0  0  0  0  0  0  0  0  0
   56.5125   30.0162   41.8195 H   0  0  0  0  0  0  0  0  0  0  0  0
   56.8775   29.0609   44.0944 H   0  0  0  0  0  0  0  0  0  0  0  0
   57.7028   29.3047   46.3848 H   0  0  0  0  0  0  0  0  0  0  0  0
  1  2  1  0
  2  3  1  0
  3  4  1  0
  4  5  1  0
  5  6  1  0
  6  7  1  0
  7  8  1  0
  8  9  1  0
  9 10  1  0
 10 11  1  0
 11 12  1  0
 11 13  1  0
  7 14  2  0
 14 15  1  0
 15 16  2  0
 16 17  1  0
 17 18  2  0
 18 19  1  0
 19 20  2  0
 20 21  1  0
 21 22  2  0
 22 23  1  0
 23 24  2  0
 24 25  1  0
 25 26  2  0
 25  6  1  0
 24 15  1  0
 22 17  1  0
  1 27  1  0
  1 28  1  0
  1 29  1  0
  2 30  1  0
  2 31  1  0
  3 32  1  0
  4 33  1  0
  4 34  1  0
  5 35  1  0
  5 36  1  0
  9 37  1  0
  9 38  1  0
 10 39  1  0
 10 40  1  0
 12 41  1  0
 12 42  1  0
 12 43  1  0
 13 44  1  0
 13 45  1  0
 13 46  1  0
 16 47  1  0
 18 48  1  0
 19 49  1  0
 20 50  1  0
 21 51  1  0
 23 52  1  0
M  END
>  <UniqueID>  (24) 
24

>  <SMILES>  (24) 
CCNCCn1c(SCCN(C)C)nc2cc3ccccc3cc2c1=O

>  <Energy>  (24) 
53.93175427359974

>  <Genealogy>  (24) 
CCNCCn1c(SCCN(C)C)nc2cc3ccccc3cc2c1=O (3D coordinates assigned)
CCNCCn1c(SCCN(C)C)nc2cc3ccccc3cc2c1=O (optimized conformer: 53.93175427359974 kcal/mol)

>  <smiles>  (24) 
CCNCCn1c(SCCN(C)C)nc2cc3ccccc3cc2c1=O

>  <score_type>  (24) 
oracle

>  <origin>  (24) 
adg

>  <m_score__min__energy>  (24) 
-8.1300000000000008

>  <m_primary>  (24) 
energy

$$$$
24:0
     RDKit          3D

 43 44  0  0  0  0  0  0  0  0999 V2000
   56.6540   30.4510   42.7410 C   0  0  0  0  0  0  0  0  0  0  0  0
   55.8500   29.8910   43.9160 C   0  0  0  0  0  0  0  0  0  0  0  0
   56.4740   30.1930   45.2170 N   0  0  0  0  0  0  0  0  0  0  0  0
   57.9110   29.8890   45.2630 C   0  0  0  0  0  0  0  0  0  0  0  0
   58.5160   30.1640   46.6170 C   0  0  0  0  0  0  0  0  0  0  0  0
   58.8570   29.2460   47.6060 C   0  0  0  0  0  0  0  0  0  0  0  0
   58.7910   27.7480   47.5180 C   0  0  0  0  0  0  0  0  0  0  0  0
   59.8810   27.2140   46.5970 C   0  0  0  0  0  0  0  0  0  0  0  0
   59.3350   29.9100   48.6780 N   0  0  0  0  0  0  0  0  0  0  0  0
   59.3050   31.2090   48.4230 N   0  0  0  0  0  0  0  0  0  0  0  0
   59.7050   32.2400   49.3710 C   0  0  0  0  0  0  0  0  0  0  0  0
   58.8090   31.3950   47.1840 C   0  0  0  0  0  0  0  0  0  0  0  0
   58.6080   32.6760   46.5720 N   0  0  0  0  0  0  0  0  0  0  0  0
   59.7720   33.5240   46.3000 C   0  0  0  0  0  0  0  0  0  0  0  0
   59.3530   34.7680   45.5180 C   0  0  0  0  0  0  0  0  0  0  0  0
   58.3570   34.4170   44.5820 O   0  0  0  0  0  0  0  0  0  0  0  0
   57.1300   34.1900   45.2530 C   0  0  0  0  0  0  0  0  0  0  0  0
   57.2480   33.2100   46.4430 C   0  0  0  0  0  0  0  0  0  0  0  0
   57.5003   31.0404   43.1236 H   0  0  0  0  0  0  0  0  0  0  0  0
   57.0332   29.6206   42.1273 H   0  0  0  0  0  0  0  0  0  0  0  0
   56.0066   31.0946   42.1273 H   0  0  0  0  0  0  0  0  0  0  0  0
   54.8422   30.3314   43.8966 H   0  0  0  0  0  0  0  0  0  0  0  0
   55.8132   28.7970   43.8069 H   0  0  0  0  0  0  0  0  0  0  0  0
   55.9740   29.7180   46.0050 H   0  0  0  0  0  0  0  0  0  0  0  0
   58.0546   28.8254   45.0218 H   0  0  0  0  0  0  0  0  0  0  0  0
   58.4142   30.5404   44.5333 H   0  0  0  0  0  0  0  0  0  0  0  0
   58.9260   27.3210   48.5227 H   0  0  0  0  0  0  0  0  0  0  0  0
   57.8109   27.4606   47.1097 H   0  0  0  0  0  0  0  0  0  0  0  0
   60.7063   26.8097   47.2015 H   0  0  0  0  0  0  0  0  0  0  0  0
   59.4667   26.4168   45.9623 H   0  0  0  0  0  0  0  0  0  0  0  0
   60.2570   28.0299   45.9623 H   0  0  0  0  0  0  0  0  0  0  0  0
   59.6760   29.4840   49.5680 H   0  0  0  0  0  0  0  0  0  0  0  0
   59.5616   31.8703   50.3970 H   0  0  0  0  0  0  0  0  0  0  0  0
   60.7651   32.4893   49.2159 H   0  0  0  0  0  0  0  0  0  0  0  0
   59.0904   33.1390   49.2159 H   0  0  0  0  0  0  0  0  0  0  0  0
   60.2274   33.8312   47.2530 H   0  0  0  0  0  0  0  0  0  0  0  0
   60.4973   32.9534   45.7013 H   0  0  0  0  0  0  0  0  0  0  0  0
   58.9548   35.5220   46.2129 H   0  0  0  0  0  0  0  0  0  0  0  0
   60.2247   35.1826   44.9905 H   0  0  0  0  0  0  0  0  0  0  0  0
   56.7570   35.1532   45.6313 H   0  0  0  0  0  0  0  0  0  0  0  0
   56.4438   33.7327   44.5250 H   0  0  0  0  0  0  0  0  0  0  0  0
   56.9838   33.7407   47.3696 H   0  0  0  0  0  0  0  0  0  0  0  0
   56.5640   32.3675   46.2631 H   0  0  0  0  0  0  0  0  0  0  0  0
  1  2  1  0
  2  3  1  0
  3  4  1  0
  4  5  1  0
  5  6  1  0
  6  7  1  0
  7  8  1  0
  6  9  2  0
  9 10  1  0
 10 11  1  0
 10 12  1  0
 12 13  1  0
 13 14  1  0
 14 15  1  0
 15 16  1  0
 16 17  1  0
 17 18  1  0
 12  5  2  0
 18 13  1  0
  1 19  1  0
  1 20  1  0
  1 21  1  0
  2 22  1  0
  2 23  1  0
  3 24  1  0
  4 25  1  0
  4 26  1  0
  7 27  1  0
  7 28  1  0
  8 29  1  0
  8 30  1  0
  8 31  1  0
  9 32  1  0
 11 33  1  0
 11 34  1  0
 11 35  1  0
 14 36  1  0
 14 37  1  0
 15 38  1  0
 15 39  1  0
 17 40  1  0
 17 41  1  0
 18 42  1  0
 18 43  1  0
M  CHG  1   9   1
M  END
>  <UniqueID>  (25) 
25

>  <SMILES>  (25) 
CCNCc1c(CC)[nH+]n(C)c1N1CCOCC1

>  <Energy>  (25) 
76.62759936348486

>  <Genealogy>  (25) 
CCNCc1c(CC)[nH+]n(C)c1N1CCOCC1 (protonated)
CCNCc1c(CC)[nH+]n(C)c1N1CCOCC1 (3D coordinates assigned)
CCNCc1c(CC)[nH+]n(C)c1N1CCOCC1 (nonaromatic ring conformer: 76.62759936348486 kcal/mol)

>  <smiles>  (25) 
CCNCc1c(CC)nn(C)c1N1CCOCC1

>  <score_type>  (25) 
oracle

>  <origin>  (25) 
adg

>  <m_score__min__energy>  (25) 
-4.4500000000000002

>  <m_primary>  (25) 
energy

$$$$
25:0
     RDKit          3D

 45 44  0  0  0  0  0  0  0  0999 V2000
   58.1212   27.8429   45.3383 H   0  0  0  0  0  0  0  0  0  0  0  0
   57.9070   28.8400   44.9260 C   0  0  0  0  0  0  0  0  0  0  0  0
   58.7850   29.8300   45.1640 C   0  0  0  0  0  0  0  0  0  0  0  0
   59.8379   29.6638   44.8922 H   0  0  0  0  0  0  0  0  0  0  0  0
   58.4130   31.1540   45.7810 C   0  0  0  0  0  0  0  0  0  0  0  0
   59.2918   31.8156   45.7730 H   0  0  0  0  0  0  0  0  0  0  0  0
   58.0751   30.9803   46.8133 H   0  0  0  0  0  0  0  0  0  0  0  0
   57.3140   31.7960   45.0220 N   0  0  0  0  0  0  0  0  0  0  0  0
   57.7140   31.9930   43.6200 C   0  0  0  0  0  0  0  0  0  0  0  0
   58.7003   32.4788   43.5849 H   0  0  0  0  0  0  0  0  0  0  0  0
   57.7672   31.0180   43.1134 H   0  0  0  0  0  0  0  0  0  0  0  0
   56.9736   32.6295   43.1134 H   0  0  0  0  0  0  0  0  0  0  0  0
   56.9080   33.0930   45.6110 C   0  0  0  0  0  0  0  0  0  0  0  0
   55.9196   32.9784   46.0800 H   0  0  0  0  0  0  0  0  0  0  0  0
   56.8761   33.8418   44.8058 H   0  0  0  0  0  0  0  0  0  0  0  0
   57.8930   33.5620   46.6530 C   0  0  0  0  0  0  0  0  0  0  0  0
   57.7197   33.2523   47.6942 H   0  0  0  0  0  0  0  0  0  0  0  0
   58.9730   34.3350   46.4010 C   0  0  0  0  0  0  0  0  0  0  0  0
   59.3400   34.6000   44.9650 C   0  0  0  0  0  0  0  0  0  0  0  0
   60.2313   35.2436   44.9271 H   0  0  0  0  0  0  0  0  0  0  0  0
   59.5542   33.6469   44.4594 H   0  0  0  0  0  0  0  0  0  0  0  0
   58.5026   35.1032   44.4594 H   0  0  0  0  0  0  0  0  0  0  0  0
   59.8180   34.9570   47.5000 C   0  0  0  0  0  0  0  0  0  0  0  0
   59.2052   35.6874   48.0487 H   0  0  0  0  0  0  0  0  0  0  0  0
   60.6863   35.4402   47.0283 H   0  0  0  0  0  0  0  0  0  0  0  0
   60.3400   33.9060   48.4890 C   0  0  0  0  0  0  0  0  0  0  0  0
   59.9038   32.9293   48.2326 H   0  0  0  0  0  0  0  0  0  0  0  0
   60.0479   34.2181   49.5025 H   0  0  0  0  0  0  0  0  0  0  0  0
   61.8450   33.7930   48.4510 C   0  0  0  0  0  0  0  0  0  0  0  0
   62.4161   34.2996   49.2430 H   0  0  0  0  0  0  0  0  0  0  0  0
   62.5400   33.1130   47.5120 C   0  0  0  0  0  0  0  0  0  0  0  0
   63.3290   33.8160   46.4320 C   0  0  0  0  0  0  0  0  0  0  0  0
   64.0739   34.4797   46.8952 H   0  0  0  0  0  0  0  0  0  0  0  0
   63.8412   33.0695   45.8073 H   0  0  0  0  0  0  0  0  0  0  0  0
   62.6462   34.4106   45.8073 H   0  0  0  0  0  0  0  0  0  0  0  0
   62.4990   31.6070   47.5400 C   0  0  0  0  0  0  0  0  0  0  0  0
   62.4895   31.2598   48.5837 H   0  0  0  0  0  0  0  0  0  0  0  0
   61.5909   31.2553   47.0284 H   0  0  0  0  0  0  0  0  0  0  0  0
   63.3866   31.2065   47.0284 H   0  0  0  0  0  0  0  0  0  0  0  0
   56.6450   29.0250   44.1240 C   0  0  0  0  0  0  0  0  0  0  0  0
   56.8842   29.5473   43.1859 H   0  0  0  0  0  0  0  0  0  0  0  0
   56.2116   28.0380   43.9051 H   0  0  0  0  0  0  0  0  0  0  0  0
   55.6770   29.8120   44.8800 N   0  0  0  0  0  0  0  0  0  0  0  0
   55.5150   30.7030   44.3570 H   0  0  0  0  0  0  0  0  0  0  0  0
   56.1160   30.0810   45.7900 H   0  0  0  0  0  0  0  0  0  0  0  0
  1  2  1  0
  2  3  2  3
  3  4  1  0
  3  5  1  0
  5  6  1  0
  5  7  1  0
  5  8  1  0
  8  9  1  0
  9 10  1  0
  9 11  1  0
  9 12  1  0
  8 13  1  0
 13 14  1  0
 13 15  1  0
 13 16  1  0
 16 17  1  0
 16 18  2  0
 18 19  1  0
 19 20  1  0
 19 21  1  0
 19 22  1  0
 18 23  1  0
 23 24  1  0
 23 25  1  0
 23 26  1  0
 26 27  1  0
 26 28  1  0
 26 29  1  0
 29 30  1  0
 29 31  2  3
 31 32  1  0
 32 33  1  0
 32 34  1  0
 32 35  1  0
 31 36  1  0
 36 37  1  0
 36 38  1  0
 36 39  1  0
  2 40  1  0
 40 41  1  0
 40 42  1  0
 40 43  1  0
 43 44  1  0
 43 45  1  0
M  END
>  <UniqueID>  (26) 
26

>  <SMILES>  (26) 
CC(C)=CCC/C(C)=C\CN(C)CC=CCN

>  <Energy>  (26) 
25.141058915413815

>  <Genealogy>  (26) 
CC(C)=CCC/C(C)=C\CN(C)CC=CCN (cis-trans isomerization)
CC(C)=CCC/C(C)=C\CN(C)CC=CCN (3D coordinates assigned)
CC(C)=CCC/C(C)=C\CN(C)CC=CCN (optimized conformer: 25.141058915413815 kcal/mol)

>  <smiles>  (26) 
CC(C)=CCCC(C)=CCN(C)CC=CCN

>  <score_type>  (26) 
oracle

>  <origin>  (26) 
adg

>  <m_score__min__energy>  (26) 
-6.1299999999999999

>  <m_primary>  (26) 
energy

$$$$
26:0
     RDKit          3D

 34 36  0  0  0  0  0  0  0  0999 V2000
   57.4020   27.8390   46.0290 C   0  0  0  0  0  0  0  0  0  0  0  0
   57.1310   29.0580   45.2800 N   0  0  0  0  0  0  0  0  0  0  0  0
   58.0050   30.0590   45.0660 C   0  0  0  0  0  0  0  0  0  0  0  0
   57.3400   31.0670   44.3940 C   0  0  0  0  0  0  0  0  0  0  0  0
   57.8460   32.3930   43.9860 C   0  0  0  0  0  0  0  0  0  0  0  0
   57.8130   32.6930   42.7620 O   0  0  0  0  0  0  0  0  0  0  0  0
   58.3900   33.3370   44.9290 N   0  0  0  0  0  0  0  0  0  0  0  0
   59.1610   34.4960   44.5040 C   0  0  0  0  0  0  0  0  0  0  0  0
   59.6550   35.1530   45.7860 C   0  0  0  0  0  0  0  0  0  0  0  0
   59.6160   34.0340   46.8370 C   0  0  1  0  0  0  0  0  0  0  0  0
   60.9750   33.2780   46.9640 C   0  0  0  0  0  0  0  0  0  0  0  0
   61.2130   33.0640   48.4660 C   0  0  0  0  0  0  0  0  0  0  0  0
   60.2320   33.9740   49.0920 C   0  0  0  0  0  0  0  0  0  0  0  0
   60.1670   34.1930   50.3310 O   0  0  0  0  0  0  0  0  0  0  0  0
   59.3390   34.5530   48.1670 N   0  0  0  0  0  0  0  0  0  0  0  0
   58.4860   33.1090   46.3630 C   0  0  0  0  0  0  0  0  0  0  0  0
   56.0390   30.6120   44.2630 C   0  0  0  0  0  0  0  0  0  0  0  0
   55.9370   29.3860   44.8140 N   0  0  0  0  0  0  0  0  0  0  0  0
   57.3545   28.0528   47.1070 H   0  0  0  0  0  0  0  0  0  0  0  0
   56.6514   27.0768   45.7729 H   0  0  0  0  0  0  0  0  0  0  0  0
   58.4049   27.4666   45.7729 H   0  0  0  0  0  0  0  0  0  0  0  0
   59.0615   30.0724   45.3719 H   0  0  0  0  0  0  0  0  0  0  0  0
   60.0116   34.1835   43.8805 H   0  0  0  0  0  0  0  0  0  0  0  0
   58.5557   35.1877   43.8997 H   0  0  0  0  0  0  0  0  0  0  0  0
   60.6805   35.5300   45.6585 H   0  0  0  0  0  0  0  0  0  0  0  0
   59.0390   36.0173   46.0750 H   0  0  0  0  0  0  0  0  0  0  0  0
   60.9215   32.3094   46.4454 H   0  0  0  0  0  0  0  0  0  0  0  0
   61.7950   33.8521   46.5080 H   0  0  0  0  0  0  0  0  0  0  0  0
   61.0211   32.0192   48.7516 H   0  0  0  0  0  0  0  0  0  0  0  0
   62.2495   33.2669   48.7734 H   0  0  0  0  0  0  0  0  0  0  0  0
   58.5180   35.1460   48.4270 H   0  0  0  0  0  0  0  0  0  0  0  0
   58.7336   32.0577   46.5717 H   0  0  0  0  0  0  0  0  0  0  0  0
   57.5372   33.3173   46.8792 H   0  0  0  0  0  0  0  0  0  0  0  0
   55.2171   31.1645   43.7842 H   0  0  0  0  0  0  0  0  0  0  0  0
  1  2  1  0
  2  3  1  0
  3  4  2  0
  4  5  1  0
  5  6  2  0
  5  7  1  0
  7  8  1  0
  8  9  1  0
  9 10  1  0
 10 11  1  0
 11 12  1  0
 12 13  1  0
 13 14  2  0
 13 15  1  0
 10 16  1  0
  4 17  1  0
 17 18  2  0
 18  2  1  0
 16  7  1  0
 10 15  1  1
  1 19  1  0
  1 20  1  0
  1 21  1  0
  3 22  1  0
  8 23  1  0
  8 24  1  0
  9 25  1  0
  9 26  1  0
 11 27  1  0
 11 28  1  0
 12 29  1  0
 12 30  1  0
 15 31  1  0
 16 32  1  0
 16 33  1  0
 17 34  1  0
M  END
>  <UniqueID>  (27) 
27

>  <SMILES>  (27) 
Cn1cc(C(=O)N2CC[C@]3(CCC(=O)N3)C2)cn1

>  <Energy>  (27) 
75.33000059152938

>  <Genealogy>  (27) 
Cn1cc(C(=O)N2CC[C@]3(CCC(=O)N3)C2)cn1 (chirality)
Cn1cc(C(=O)N2CC[C@]3(CCC(=O)N3)C2)cn1 (3D coordinates assigned)
Cn1cc(C(=O)N2CC[C@]3(CCC(=O)N3)C2)cn1 (nonaromatic ring conformer: 75.33000059152938 kcal/mol)

>  <smiles>  (27) 
Cn1cc(C(=O)N2CCC3(CCC(=O)N3)C2)cn1

>  <score_type>  (27) 
oracle

>  <origin>  (27) 
adg

>  <m_score__min__energy>  (27) 
-6.54

>  <m_primary>  (27) 
energy

$$$$
27:0
     RDKit          3D

 39 41  0  0  0  0  0  0  0  0999 V2000
   57.9090   32.3390   41.5310 C   0  0  0  0  0  0  0  0  0  0  0  0
   57.6740   31.8970   42.9010 N   0  0  0  0  0  0  0  0  0  0  0  0
   57.1150   30.7250   43.2850 C   0  0  0  0  0  0  0  0  0  0  0  0
   57.0430   30.6520   44.6730 C   0  0  0  0  0  0  0  0  0  0  0  0
   57.5850   31.8360   45.1280 C   0  0  0  0  0  0  0  0  0  0  0  0
   57.7650   32.3030   46.4270 C   0  0  0  0  0  0  0  0  0  0  0  0
   58.3710   33.5720   46.6010 C   0  0  0  0  0  0  0  0  0  0  0  0
   58.6180   34.1220   47.8690 O   0  0  0  0  0  0  0  0  0  0  0  0
   59.7720   33.8740   48.6750 C   0  0  0  0  0  0  0  0  0  0  0  0
   60.2930   32.4490   48.4540 C   0  0  0  0  0  0  0  0  0  0  0  0
   61.3840   32.4330   47.4560 N   0  0  0  0  0  0  0  0  0  0  0  0
   62.5690   31.6710   47.9240 C   0  0  0  0  0  0  0  0  0  0  0  0
   63.7290   32.5980   48.3280 C   0  0  0  0  0  0  0  0  0  0  0  0
   64.1660   33.4440   47.2720 O   0  0  0  0  0  0  0  0  0  0  0  0
   63.1240   33.8420   46.3890 C   0  0  0  0  0  0  0  0  0  0  0  0
   61.7230   33.8040   47.0200 C   0  0  0  0  0  0  0  0  0  0  0  0
   58.7350   34.3320   45.4650 C   0  0  0  0  0  0  0  0  0  0  0  0
   58.5340   33.8330   44.1660 C   0  0  0  0  0  0  0  0  0  0  0  0
   57.9560   32.5690   44.0340 C   0  0  0  0  0  0  0  0  0  0  0  0
   58.4254   33.3102   41.5425 H   0  0  0  0  0  0  0  0  0  0  0  0
   58.5325   31.5984   41.0086 H   0  0  0  0  0  0  0  0  0  0  0  0
   56.9464   32.4417   41.0086 H   0  0  0  0  0  0  0  0  0  0  0  0
   56.7667   29.9408   42.5967 H   0  0  0  0  0  0  0  0  0  0  0  0
   56.6399   29.8264   45.2780 H   0  0  0  0  0  0  0  0  0  0  0  0
   57.4461   31.7044   47.2930 H   0  0  0  0  0  0  0  0  0  0  0  0
   60.5607   34.5923   48.4066 H   0  0  0  0  0  0  0  0  0  0  0  0
   59.4947   33.9884   49.7333 H   0  0  0  0  0  0  0  0  0  0  0  0
   60.6718   32.0525   49.4076 H   0  0  0  0  0  0  0  0  0  0  0  0
   59.4662   31.8275   48.0797 H   0  0  0  0  0  0  0  0  0  0  0  0
   62.2797   31.0643   48.7948 H   0  0  0  0  0  0  0  0  0  0  0  0
   62.9144   31.0372   47.0939 H   0  0  0  0  0  0  0  0  0  0  0  0
   63.3967   33.2285   49.1659 H   0  0  0  0  0  0  0  0  0  0  0  0
   64.5784   31.9560   48.6043 H   0  0  0  0  0  0  0  0  0  0  0  0
   63.3261   34.8709   46.0566 H   0  0  0  0  0  0  0  0  0  0  0  0
   63.1187   33.1222   45.5572 H   0  0  0  0  0  0  0  0  0  0  0  0
   61.7007   34.4758   47.8907 H   0  0  0  0  0  0  0  0  0  0  0  0
   60.9877   34.1285   46.2690 H   0  0  0  0  0  0  0  0  0  0  0  0
   59.1819   35.3281   45.5998 H   0  0  0  0  0  0  0  0  0  0  0  0
   58.8230   34.4199   43.2817 H   0  0  0  0  0  0  0  0  0  0  0  0
  1  2  1  0
  2  3  1  0
  3  4  2  0
  4  5  1  0
  5  6  2  0
  6  7  1  0
  7  8  1  0
  8  9  1  0
  9 10  1  0
 10 11  1  0
 11 12  1  0
 12 13  1  0
 13 14  1  0
 14 15  1  0
 15 16  1  0
  7 17  2  0
 17 18  1  0
 18 19  2  0
 19  2  1  0
 19  5  1  0
 16 11  1  0
  1 20  1  0
  1 21  1  0
  1 22  1  0
  3 23  1  0
  4 24  1  0
  6 25  1  0
  9 26  1  0
  9 27  1  0
 10 28  1  0
 10 29  1  0
 12 30  1  0
 12 31  1  0
 13 32  1  0
 13 33  1  0
 15 34  1  0
 15 35  1  0
 16 36  1  0
 16 37  1  0
 17 38  1  0
 18 39  1  0
M  END
>  <UniqueID>  (28) 
28

>  <SMILES>  (28) 
Cn1ccc2cc(OCCN3CCOCC3)ccc21

>  <Energy>  (28) 
85.91745609665595

>  <Genealogy>  (28) 
Cn1ccc2cc(OCCN3CCOCC3)ccc21 (3D coordinates assigned)
Cn1ccc2cc(OCCN3CCOCC3)ccc21 (nonaromatic ring conformer: 85.91745609665595 kcal/mol)

>  <smiles>  (28) 
Cn1ccc2cc(OCCN3CCOCC3)ccc21

>  <score_type>  (28) 
oracle

>  <origin>  (28) 
adg

>  <m_score__min__energy>  (28) 
-6.8200000000000003

>  <m_primary>  (28) 
energy

$$$$
28:0
     RDKit          3D

 57 59  0  0  0  0  0  0  0  0999 V2000
   63.3840   33.8710   46.5920 C   0  0  0  0  0  0  0  0  0  0  0  0
   63.1350   32.4560   47.1340 C   0  0  0  0  0  0  0  0  0  0  0  0
   63.2610   32.3150   48.6080 N   0  0  0  0  0  0  0  0  0  0  0  0
   63.7180   33.5040   49.3610 C   0  0  0  0  0  0  0  0  0  0  0  0
   62.5380   34.2190   50.0140 C   0  0  0  0  0  0  0  0  0  0  0  0
   62.1610   31.5710   49.2590 C   0  0  0  0  0  0  0  0  0  0  0  0
   61.4950   30.5290   48.3430 C   0  0  0  0  0  0  0  0  0  0  0  0
   60.0570   30.7780   48.1980 N   0  0  0  0  0  0  0  0  0  0  0  0
   59.4400   31.1900   46.9610 C   0  0  0  0  0  0  0  0  0  0  0  0
   59.4200   32.5430   46.5810 C   0  0  0  0  0  0  0  0  0  0  0  0
   58.8950   32.9020   45.3130 C   0  0  0  0  0  0  0  0  0  0  0  0
   58.3300   31.9340   44.5000 N   0  0  0  0  0  0  0  0  0  0  0  0
   57.8350   32.3370   43.1620 C   0  0  0  0  0  0  0  0  0  0  0  0
   58.1970   30.6290   44.9410 C   0  0  0  0  0  0  0  0  0  0  0  0
   58.8120   30.2270   46.1530 C   0  0  0  0  0  0  0  0  0  0  0  0
   58.7420   28.7900   46.6480 C   0  0  0  0  0  0  0  0  0  0  0  0
   58.3480   27.7930   45.5640 C   0  0  0  0  0  0  0  0  0  0  0  0
   57.1140   28.3010   44.8390 C   0  0  0  0  0  0  0  0  0  0  0  0
   57.4410   29.5990   44.1020 C   0  0  0  0  0  0  0  0  0  0  0  0
   58.8300   34.3770   44.9050 C   0  0  0  0  0  0  0  0  0  0  0  0
   59.6260   35.3320   45.7970 C   0  0  0  0  0  0  0  0  0  0  0  0
   59.4270   34.9790   47.2600 C   0  0  0  0  0  0  0  0  0  0  0  0
   59.9940   33.5900   47.5170 C   0  0  0  0  0  0  0  0  0  0  0  0
   63.5069   34.5694   47.4329 H   0  0  0  0  0  0  0  0  0  0  0  0
   64.2963   33.8730   45.9774 H   0  0  0  0  0  0  0  0  0  0  0  0
   62.5272   34.1843   45.9774 H   0  0  0  0  0  0  0  0  0  0  0  0
   62.1158   32.1562   46.8488 H   0  0  0  0  0  0  0  0  0  0  0  0
   63.9174   31.8182   46.6970 H   0  0  0  0  0  0  0  0  0  0  0  0
   64.4244   33.1865   50.1422 H   0  0  0  0  0  0  0  0  0  0  0  0
   64.2071   34.1977   48.6613 H   0  0  0  0  0  0  0  0  0  0  0  0
   62.6340   34.1608   51.1083 H   0  0  0  0  0  0  0  0  0  0  0  0
   62.5303   35.2738   49.7022 H   0  0  0  0  0  0  0  0  0  0  0  0
   61.5994   33.7376   49.7022 H   0  0  0  0  0  0  0  0  0  0  0  0
   62.5662   31.0513   50.1397 H   0  0  0  0  0  0  0  0  0  0  0  0
   61.3880   32.3066   49.5261 H   0  0  0  0  0  0  0  0  0  0  0  0
   61.9668   30.5730   47.3503 H   0  0  0  0  0  0  0  0  0  0  0  0
   61.6281   29.5362   48.7976 H   0  0  0  0  0  0  0  0  0  0  0  0
   59.4350   30.4390   48.9680 H   0  0  0  0  0  0  0  0  0  0  0  0
   56.9867   33.0276   43.2776 H   0  0  0  0  0  0  0  0  0  0  0  0
   58.6426   32.8377   42.6078 H   0  0  0  0  0  0  0  0  0  0  0  0
   57.5085   31.4447   42.6078 H   0  0  0  0  0  0  0  0  0  0  0  0
   59.7308   28.5075   47.0384 H   0  0  0  0  0  0  0  0  0  0  0  0
   57.9618   28.7517   47.4225 H   0  0  0  0  0  0  0  0  0  0  0  0
   59.1756   27.6828   44.8478 H   0  0  0  0  0  0  0  0  0  0  0  0
   58.1302   26.8172   46.0226 H   0  0  0  0  0  0  0  0  0  0  0  0
   56.7796   27.5443   44.1140 H   0  0  0  0  0  0  0  0  0  0  0  0
   56.3164   28.4919   45.5720 H   0  0  0  0  0  0  0  0  0  0  0  0
   58.0570   29.3508   43.2251 H   0  0  0  0  0  0  0  0  0  0  0  0
   56.4782   30.0586   43.8339 H   0  0  0  0  0  0  0  0  0  0  0  0
   59.2186   34.4646   43.8797 H   0  0  0  0  0  0  0  0  0  0  0  0
   57.7756   34.6754   45.0003 H   0  0  0  0  0  0  0  0  0  0  0  0
   60.6946   35.2550   45.5476 H   0  0  0  0  0  0  0  0  0  0  0  0
   59.2712   36.3591   45.6262 H   0  0  0  0  0  0  0  0  0  0  0  0
   59.9497   35.7131   47.8908 H   0  0  0  0  0  0  0  0  0  0  0  0
   58.3542   34.9929   47.5027 H   0  0  0  0  0  0  0  0  0  0  0  0
   61.0850   33.6241   47.3808 H   0  0  0  0  0  0  0  0  0  0  0  0
   59.7220   33.3039   48.5437 H   0  0  0  0  0  0  0  0  0  0  0  0
  1  2  1  0
  2  3  1  0
  3  4  1  0
  4  5  1  0
  3  6  1  0
  6  7  1  0
  7  8  1  0
  8  9  1  0
  9 10  2  0
 10 11  1  0
 11 12  2  0
 12 13  1  0
 12 14  1  0
 14 15  2  0
 15 16  1  0
 16 17  1  0
 17 18  1  0
 18 19  1  0
 11 20  1  0
 20 21  1  0
 21 22  1  0
 22 23  1  0
 15  9  1  0
 23 10  1  0
 19 14  1  0
  1 24  1  0
  1 25  1  0
  1 26  1  0
  2 27  1  0
  2 28  1  0
  4 29  1  0
  4 30  1  0
  5 31  1  0
  5 32  1  0
  5 33  1  0
  6 34  1  0
  6 35  1  0
  7 36  1  0
  7 37  1  0
  8 38  1  0
 13 39  1  0
 13 40  1  0
 13 41  1  0
 16 42  1  0
 16 43  1  0
 17 44  1  0
 17 45  1  0
 18 46  1  0
 18 47  1  0
 19 48  1  0
 19 49  1  0
 20 50  1  0
 20 51  1  0
 21 52  1  0
 21 53  1  0
 22 54  1  0
 22 55  1  0
 23 56  1  0
 23 57  1  0
M  CHG  1  12   1
M  END
>  <UniqueID>  (29) 
29

>  <SMILES>  (29) 
CCN(CC)CCNc1c2c([n+](C)c3c1CCCC3)CCCC2

>  <Energy>  (29) 
76.65976076927986

>  <Genealogy>  (29) 
CCN(CC)CCNc1c2c([n+](C)c3c1CCCC3)CCCC2 (3D coordinates assigned)
CCN(CC)CCNc1c2c([n+](C)c3c1CCCC3)CCCC2 (nonaromatic ring conformer: 76.65976076927986 kcal/mol)

>  <smiles>  (29) 
CCN(CC)CCNc1c2c([n+](C)c3c1CCCC3)CCCC2

>  <score_type>  (29) 
oracle

>  <origin>  (29) 
adg

>  <m_score__min__energy>  (29) 
-5.8499999999999996

>  <m_primary>  (29) 
energy

$$$$
29:0
     RDKit          3D

 48 51  0  0  0  0  0  0  0  0999 V2000
   54.5010   24.7600   45.4930 C   0  0  0  0  0  0  0  0  0  0  0  0
   55.3540   25.8510   45.9730 N   0  0  0  0  0  0  0  0  0  0  0  0
   56.6570   25.3570   46.4420 C   0  0  0  0  0  0  0  0  0  0  0  0
   57.6200   26.4530   46.6340 C   0  0  0  0  0  0  0  0  0  0  0  0
   58.4070   27.3520   46.7940 C   0  0  0  0  0  0  0  0  0  0  0  0
   59.3660   28.4440   46.9890 C   0  0  0  0  0  0  0  0  0  0  0  0
   58.6440   29.7050   47.4670 C   0  0  0  0  0  0  0  0  0  0  0  0
   58.4560   30.6770   46.3340 C   0  0  0  0  0  0  0  0  0  0  0  0
   58.9890   31.9650   46.2100 C   0  0  0  0  0  0  0  0  0  0  0  0
   59.8800   32.6190   47.1890 C   0  0  0  0  0  0  0  0  0  0  0  0
   59.3720   33.5900   48.0820 C   0  0  0  0  0  0  0  0  0  0  0  0
   60.2140   34.2100   49.0200 C   0  0  0  0  0  0  0  0  0  0  0  0
   61.5630   33.8530   49.0550 C   0  0  0  0  0  0  0  0  0  0  0  0
   62.5330   34.3680   49.9200 C   0  0  0  0  0  0  0  0  0  0  0  0
   63.7930   33.8110   49.7080 C   0  0  0  0  0  0  0  0  0  0  0  0
   63.6950   32.6840   48.4510 S   0  0  0  0  0  0  0  0  0  0  0  0
   62.0560   32.9030   48.1750 C   0  0  0  0  0  0  0  0  0  0  0  0
   61.2450   32.2720   47.2360 C   0  0  0  0  0  0  0  0  0  0  0  0
   58.6230   32.5140   45.0200 N   0  0  0  0  0  0  0  0  0  0  0  0
   58.9980   33.8300   44.4980 C   0  0  0  0  0  0  0  0  0  0  0  0
   57.8850   31.5780   44.3870 C   0  0  0  0  0  0  0  0  0  0  0  0
   57.3110   31.6510   43.1130 C   0  0  0  0  0  0  0  0  0  0  0  0
   56.5910   30.5360   42.6470 C   0  0  0  0  0  0  0  0  0  0  0  0
   56.4650   29.3800   43.4460 C   0  0  0  0  0  0  0  0  0  0  0  0
   57.0580   29.3290   44.7200 C   0  0  0  0  0  0  0  0  0  0  0  0
   57.7590   30.4510   45.1620 C   0  0  0  0  0  0  0  0  0  0  0  0
   54.0784   24.2195   46.3528 H   0  0  0  0  0  0  0  0  0  0  0  0
   53.6847   25.1741   44.8830 H   0  0  0  0  0  0  0  0  0  0  0  0
   55.0998   24.0676   44.8830 H   0  0  0  0  0  0  0  0  0  0  0  0
   54.8630   26.3410   46.7590 H   0  0  0  0  0  0  0  0  0  0  0  0
   56.5161   24.8349   47.3999 H   0  0  0  0  0  0  0  0  0  0  0  0
   57.0605   24.6774   45.6770 H   0  0  0  0  0  0  0  0  0  0  0  0
   60.1095   28.1439   47.7421 H   0  0  0  0  0  0  0  0  0  0  0  0
   59.8644   28.6579   46.0320 H   0  0  0  0  0  0  0  0  0  0  0  0
   57.6590   29.4257   47.8693 H   0  0  0  0  0  0  0  0  0  0  0  0
   59.2542   30.1860   48.2457 H   0  0  0  0  0  0  0  0  0  0  0  0
   58.3071   33.8627   48.0420 H   0  0  0  0  0  0  0  0  0  0  0  0
   59.8169   34.9642   49.7153 H   0  0  0  0  0  0  0  0  0  0  0  0
   62.3244   35.1303   50.6851 H   0  0  0  0  0  0  0  0  0  0  0  0
   64.7050   34.0640   50.2685 H   0  0  0  0  0  0  0  0  0  0  0  0
   61.6595   31.5209   46.5475 H   0  0  0  0  0  0  0  0  0  0  0  0
   59.1932   34.5150   45.3363 H   0  0  0  0  0  0  0  0  0  0  0  0
   59.9050   33.7356   43.8828 H   0  0  0  0  0  0  0  0  0  0  0  0
   58.1775   34.2279   43.8828 H   0  0  0  0  0  0  0  0  0  0  0  0
   57.4196   32.5538   42.4940 H   0  0  0  0  0  0  0  0  0  0  0  0
   56.1227   30.5656   41.6521 H   0  0  0  0  0  0  0  0  0  0  0  0
   55.9000   28.5142   43.0704 H   0  0  0  0  0  0  0  0  0  0  0  0
   56.9716   28.4310   45.3493 H   0  0  0  0  0  0  0  0  0  0  0  0
  1  2  1  0
  2  3  1  0
  3  4  1  0
  4  5  3  0
  5  6  1  0
  6  7  1  0
  7  8  1  0
  8  9  2  0
  9 10  1  0
 10 11  2  0
 11 12  1  0
 12 13  2  0
 13 14  1  0
 14 15  2  0
 15 16  1  0
 16 17  1  0
 17 18  2  0
  9 19  1  0
 19 20  1  0
 19 21  1  0
 21 22  2  0
 22 23  1  0
 23 24  2  0
 24 25  1  0
 25 26  2  0
 26  8  1  0
 18 10  1  0
 26 21  1  0
 17 13  1  0
  1 27  1  0
  1 28  1  0
  1 29  1  0
  2 30  1  0
  3 31  1  0
  3 32  1  0
  6 33  1  0
  6 34  1  0
  7 35  1  0
  7 36  1  0
 11 37  1  0
 12 38  1  0
 14 39  1  0
 15 40  1  0
 18 41  1  0
 20 42  1  0
 20 43  1  0
 20 44  1  0
 22 45  1  0
 23 46  1  0
 24 47  1  0
 25 48  1  0
M  END
>  <UniqueID>  (30) 
30

>  <SMILES>  (30) 
CNCC#CCCc1c(-c2ccc3ccsc3c2)n(C)c2ccccc12

>  <Energy>  (30) 
113.28150921454895

>  <Genealogy>  (30) 
CNCC#CCCc1c(-c2ccc3ccsc3c2)n(C)c2ccccc12 (3D coordinates assigned)
CNCC#CCCc1c(-c2ccc3ccsc3c2)n(C)c2ccccc12 (optimized conformer: 113.28150921454895 kcal/mol)

>  <smiles>  (30) 
CNCC#CCCc1c(-c2ccc3ccsc3c2)n(C)c2ccccc12

>  <score_type>  (30) 
oracle

>  <origin>  (30) 
adg

>  <m_score__min__energy>  (30) 
-8.6799999999999997

>  <m_primary>  (30) 
energy

$$$$
