0:0
     RDKit          3D

 64 67  0  0  0  0  0  0  0  0999 V2000
   58.1480   27.2680   44.1740 C   0  0  0  0  0  0  0  0  0  0  0  0
   57.3150   27.7260   45.3700 C   0  0  0  0  0  0  0  0  0  0  0  0
   57.1890   29.1980   45.3720 N   0  0  0  0  0  0  0  0  0  0  0  0
   58.4480   29.9010   45.7110 C   0  0  0  0  0  0  0  0  0  0  0  0
   59.1340   29.3860   46.9860 C   0  0  0  0  0  0  0  0  0  0  0  0
   56.5210   29.7390   44.1680 C   0  0  0  0  0  0  0  0  0  0  0  0
   57.0520   31.1420   43.8800 C   0  0  0  0  0  0  0  0  0  0  0  0
   56.5010   32.0780   44.8560 N   0  0  0  0  0  0  0  0  0  0  0  0
   57.1180   33.3110   45.2500 C   0  0  0  0  0  0  0  0  0  0  0  0
   56.6640   34.3890   44.7840 O   0  0  0  0  0  0  0  0  0  0  0  0
   58.2520   33.3570   46.1960 C   0  0  0  0  0  0  0  0  0  0  0  0
   59.4100   34.1100   45.8780 C   0  0  0  0  0  0  0  0  0  0  0  0
   60.4830   34.1990   46.7840 C   0  0  0  0  0  0  0  0  0  0  0  0
   60.3640   33.5330   48.0100 C   0  0  0  0  0  0  0  0  0  0  0  0
   59.2490   32.8140   48.3170 C   0  0  0  0  0  0  0  0  0  0  0  0
   58.1640   32.7170   47.4510 C   0  0  0  0  0  0  0  0  0  0  0  0
   59.3740   32.2460   49.5220 N   0  0  0  0  0  0  0  0  0  0  0  0
   60.6030   32.6490   49.9340 C   0  0  0  0  0  0  0  0  0  0  0  0
   61.1230   32.1820   51.2230 C   0  0  0  0  0  0  0  0  0  0  0  0
   62.0030   31.0860   51.2740 C   0  0  0  0  0  0  0  0  0  0  0  0
   62.3340   30.4130   50.1430 F   0  0  0  0  0  0  0  0  0  0  0  0
   62.5730   30.7020   52.4920 C   0  0  0  0  0  0  0  0  0  0  0  0
   62.3010   31.4290   53.6550 C   0  0  0  0  0  0  0  0  0  0  0  0
   61.4740   32.5530   53.5970 C   0  0  0  0  0  0  0  0  0  0  0  0
   60.9010   32.9440   52.3820 C   0  0  0  0  0  0  0  0  0  0  0  0
   60.1390   34.0660   52.3320 F   0  0  0  0  0  0  0  0  0  0  0  0
   61.2460   33.4650   49.0350 N   0  0  0  0  0  0  0  0  0  0  0  0
   62.5780   34.1190   49.0340 C   0  0  0  0  0  0  0  0  0  0  0  0
   63.1110   34.5790   50.4210 C   0  0  0  0  0  0  0  0  0  0  0  0
   64.1130   33.6320   51.1070 C   0  0  0  0  0  0  0  0  0  0  0  0
   65.1500   33.0820   50.1320 C   0  0  0  0  0  0  0  0  0  0  0  0
   64.4580   32.3650   48.9760 C   0  0  0  0  0  0  0  0  0  0  0  0
   63.6030   33.3430   48.1730 C   0  0  0  0  0  0  0  0  0  0  0  0
   59.0594   26.7669   44.5323 H   0  0  0  0  0  0  0  0  0  0  0  0
   57.5595   26.5666   43.5643 H   0  0  0  0  0  0  0  0  0  0  0  0
   58.4249   28.1407   43.5643 H   0  0  0  0  0  0  0  0  0  0  0  0
   56.3132   27.2759   45.3084 H   0  0  0  0  0  0  0  0  0  0  0  0
   57.8141   27.4078   46.2972 H   0  0  0  0  0  0  0  0  0  0  0  0
   59.1473   29.7806   44.8705 H   0  0  0  0  0  0  0  0  0  0  0  0
   58.1825   30.9520   45.8977 H   0  0  0  0  0  0  0  0  0  0  0  0
   58.6095   29.7797   47.8691 H   0  0  0  0  0  0  0  0  0  0  0  0
   59.1025   28.2865   47.0008 H   0  0  0  0  0  0  0  0  0  0  0  0
   60.1810   29.7231   47.0008 H   0  0  0  0  0  0  0  0  0  0  0  0
   56.7280   29.0847   43.3083 H   0  0  0  0  0  0  0  0  0  0  0  0
   55.4355   29.7852   44.3397 H   0  0  0  0  0  0  0  0  0  0  0  0
   58.1497   31.1410   43.9514 H   0  0  0  0  0  0  0  0  0  0  0  0
   56.7520   31.4480   42.8669 H   0  0  0  0  0  0  0  0  0  0  0  0
   59.4706   34.6312   44.9112 H   0  0  0  0  0  0  0  0  0  0  0  0
   61.3875   34.7741   46.5367 H   0  0  0  0  0  0  0  0  0  0  0  0
   57.2618   32.1565   47.7369 H   0  0  0  0  0  0  0  0  0  0  0  0
   63.2369   29.8260   52.5352 H   0  0  0  0  0  0  0  0  0  0  0  0
   62.7379   31.1160   54.6147 H   0  0  0  0  0  0  0  0  0  0  0  0
   61.2725   33.1329   54.5098 H   0  0  0  0  0  0  0  0  0  0  0  0
   62.4175   35.0847   48.5323 H   0  0  0  0  0  0  0  0  0  0  0  0
   63.6060   35.5519   50.2855 H   0  0  0  0  0  0  0  0  0  0  0  0
   62.2318   34.6094   51.0814 H   0  0  0  0  0  0  0  0  0  0  0  0
   64.6338   34.1843   51.9031 H   0  0  0  0  0  0  0  0  0  0  0  0
   63.5476   32.7803   51.5130 H   0  0  0  0  0  0  0  0  0  0  0  0
   65.7528   33.9125   49.7358 H   0  0  0  0  0  0  0  0  0  0  0  0
   65.7974   32.3676   50.6616 H   0  0  0  0  0  0  0  0  0  0  0  0
   65.2196   31.9241   48.3160 H   0  0  0  0  0  0  0  0  0  0  0  0
   63.8077   31.5777   49.3848 H   0  0  0  0  0  0  0  0  0  0  0  0
   64.2699   34.0699   47.6864 H   0  0  0  0  0  0  0  0  0  0  0  0
   63.0302   32.7494   47.4453 H   0  0  0  0  0  0  0  0  0  0  0  0
  1  2  1  0
  2  3  1  0
  3  4  1  0
  4  5  1  0
  3  6  1  0
  6  7  1  0
  7  8  1  0
  8  9  1  0
  9 10  2  0
  9 11  1  0
 11 12  2  0
 12 13  1  0
 13 14  2  0
 14 15  1  0
 15 16  2  0
 15 17  1  0
 17 18  2  0
 18 19  1  0
 19 20  2  0
 20 21  1  0
 20 22  1  0
 22 23  2  0
 23 24  1  0
 24 25  2  0
 25 26  1  0
 18 27  1  0
 27 28  1  0
 28 29  1  0
 29 30  1  0
 30 31  1  0
 31 32  1  0
 32 33  1  0
 16 11  1  0
 25 19  1  0
 33 28  1  0
 27 14  1  0
  1 34  1  0
  1 35  1  0
  1 36  1  0
  2 37  1  0
  2 38  1  0
  4 39  1  0
  4 40  1  0
  5 41  1  0
  5 42  1  0
  5 43  1  0
  6 44  1  0
  6 45  1  0
  7 46  1  0
  7 47  1  0
 12 48  1  0
 13 49  1  0
 16 50  1  0
 22 51  1  0
 23 52  1  0
 24 53  1  0
 28 54  1  0
 29 55  1  0
 29 56  1  0
 30 57  1  0
 30 58  1  0
 31 59  1  0
 31 60  1  0
 32 61  1  0
 32 62  1  0
 33 63  1  0
 33 64  1  0
M  CHG  1   8  -1
M  END
>  <UniqueID>  (1) 
1

>  <SMILES>  (1) 
CCN(CC)CC[N-]C(=O)c1ccc2c(c1)nc(-c1c(F)cccc1F)n2C1CCCCC1

>  <Energy>  (1) 
122.16915880930324

>  <Genealogy>  (1) 
CCN(CC)CC[N-]C(=O)c1ccc2c(c1)nc(-c1c(F)cccc1F)n2C1CCCCC1 (protonated)
CCN(CC)CC[N-]C(=O)c1ccc2c(c1)nc(-c1c(F)cccc1F)n2C1CCCCC1 (3D coordinates assigned)
CCN(CC)CC[N-]C(=O)c1ccc2c(c1)nc(-c1c(F)cccc1F)n2C1CCCCC1 (nonaromatic ring conformer: 122.16915880930324 kcal/mol)

>  <smiles>  (1) 
CCN(CC)CCNC(=O)c1ccc2c(c1)nc(-c1c(F)cccc1F)n2C1CCCCC1

>  <score_type>  (1) 
oracle

>  <origin>  (1) 
adg

>  <m_score__min__energy>  (1) 
-9.9299999999999997

>  <m_primary>  (1) 
energy

$$$$
1:0
     RDKit          3D

 42 45  0  0  0  0  0  0  0  0999 V2000
   63.7320   32.8720   46.6790 O   0  0  0  0  0  0  0  0  0  0  0  0
   62.8560   33.2390   47.8410 S   0  0  0  0  0  0  0  0  0  0  0  0
   63.3960   34.4860   48.4840 O   0  0  0  0  0  0  0  0  0  0  0  0
   61.1790   33.5750   47.3680 C   0  0  0  0  0  0  0  0  0  0  0  0
   60.8960   33.5890   45.9930 C   0  0  0  0  0  0  0  0  0  0  0  0
   59.6190   33.9090   45.5280 C   0  0  0  0  0  0  0  0  0  0  0  0
   58.6030   34.2090   46.4330 C   0  0  0  0  0  0  0  0  0  0  0  0
   58.8590   34.1780   47.8040 C   0  0  0  0  0  0  0  0  0  0  0  0
   60.1360   33.8570   48.2860 C   0  0  0  0  0  0  0  0  0  0  0  0
   60.3450   33.8310   50.1920 Br  0  0  0  0  0  0  0  0  0  0  0  0
   62.8860   31.8980   48.9950 C   0  0  0  0  0  0  0  0  0  0  0  0
   61.9800   30.8520   49.0790 C   0  0  0  0  0  0  0  0  0  0  0  0
   60.9110   30.5180   48.1190 C   0  0  0  0  0  0  0  0  0  0  0  0
   61.2280   30.3810   46.7580 C   0  0  0  0  0  0  0  0  0  0  0  0
   60.2280   30.1160   45.8210 C   0  0  0  0  0  0  0  0  0  0  0  0
   58.9000   29.9830   46.2330 C   0  0  0  0  0  0  0  0  0  0  0  0
   57.6420   29.6750   45.0520 Cl  0  0  0  0  0  0  0  0  0  0  0  0
   58.5740   30.1050   47.5870 C   0  0  0  0  0  0  0  0  0  0  0  0
   59.5710   30.3680   48.5340 C   0  0  0  0  0  0  0  0  0  0  0  0
   59.0940   30.5820   50.2150 Cl  0  0  0  0  0  0  0  0  0  0  0  0
   62.2240   30.1650   50.2090 N   0  0  0  0  0  0  0  0  0  0  0  0
   63.2250   30.7250   50.8180 O   0  0  0  0  0  0  0  0  0  0  0  0
   63.6670   31.7600   50.1380 C   0  0  0  0  0  0  0  0  0  0  0  0
   64.8050   32.5900   50.5790 C   0  0  0  0  0  0  0  0  0  0  0  0
   66.0970   32.2960   50.1150 C   0  0  0  0  0  0  0  0  0  0  0  0
   67.1820   33.0880   50.5020 C   0  0  0  0  0  0  0  0  0  0  0  0
   66.9830   34.1870   51.3430 C   0  0  0  0  0  0  0  0  0  0  0  0
   65.6970   34.5010   51.7890 C   0  0  0  0  0  0  0  0  0  0  0  0
   64.6090   33.7110   51.4030 C   0  0  0  0  0  0  0  0  0  0  0  0
   61.6906   33.3447   45.2727 H   0  0  0  0  0  0  0  0  0  0  0  0
   59.4150   33.9243   44.4472 H   0  0  0  0  0  0  0  0  0  0  0  0
   57.5993   34.4702   46.0665 H   0  0  0  0  0  0  0  0  0  0  0  0
   58.0509   34.4077   48.5141 H   0  0  0  0  0  0  0  0  0  0  0  0
   62.2723   30.4833   46.4278 H   0  0  0  0  0  0  0  0  0  0  0  0
   60.4861   30.0118   44.7568 H   0  0  0  0  0  0  0  0  0  0  0  0
   57.5284   29.9937   47.9101 H   0  0  0  0  0  0  0  0  0  0  0  0
   61.7150   29.3200   50.5530 H   0  0  0  0  0  0  0  0  0  0  0  0
   66.2562   31.4389   49.4442 H   0  0  0  0  0  0  0  0  0  0  0  0
   68.1937   32.8462   50.1443 H   0  0  0  0  0  0  0  0  0  0  0  0
   67.8389   34.8043   51.6534 H   0  0  0  0  0  0  0  0  0  0  0  0
   65.5397   35.3703   52.4444 H   0  0  0  0  0  0  0  0  0  0  0  0
   63.5960   33.9684   51.7459 H   0  0  0  0  0  0  0  0  0  0  0  0
  1  2  2  0
  2  3  2  0
  2  4  1  0
  4  5  2  0
  5  6  1  0
  6  7  2  0
  7  8  1  0
  8  9  2  0
  9 10  1  0
  2 11  1  0
 11 12  1  0
 12 13  1  0
 13 14  2  0
 14 15  1  0
 15 16  2  0
 16 17  1  0
 16 18  1  0
 18 19  2  0
 19 20  1  0
 12 21  2  0
 21 22  1  0
 22 23  1  0
 23 24  1  0
 24 25  2  0
 25 26  1  0
 26 27  2  0
 27 28  1  0
 28 29  2  0
  9  4  1  0
 23 11  2  0
 29 24  1  0
 19 13  1  0
  5 30  1  0
  6 31  1  0
  7 32  1  0
  8 33  1  0
 14 34  1  0
 15 35  1  0
 18 36  1  0
 21 37  1  0
 25 38  1  0
 26 39  1  0
 27 40  1  0
 28 41  1  0
 29 42  1  0
M  CHG  1  21   1
M  END
>  <UniqueID>  (2) 
2

>  <SMILES>  (2) 
O=S(=O)(c1ccccc1Br)c1c(-c2ccc(Cl)cc2Cl)[nH+]oc1-c1ccccc1

>  <Energy>  (2) 
91.59764329063411

>  <Genealogy>  (2) 
O=S(=O)(c1ccccc1Br)c1c(-c2ccc(Cl)cc2Cl)[nH+]oc1-c1ccccc1 (protonated)
O=S(=O)(c1ccccc1Br)c1c(-c2ccc(Cl)cc2Cl)[nH+]oc1-c1ccccc1 (3D coordinates assigned)
O=S(=O)(c1ccccc1Br)c1c(-c2ccc(Cl)cc2Cl)[nH+]oc1-c1ccccc1 (optimized conformer: 91.59764329063411 kcal/mol)

>  <smiles>  (2) 
O=S(=O)(c1ccccc1Br)c1c(-c2ccc(Cl)cc2Cl)noc1-c1ccccc1

>  <score_type>  (2) 
oracle

>  <origin>  (2) 
adg

>  <m_score__min__energy>  (2) 
-7.9800000000000004

>  <m_primary>  (2) 
energy

$$$$
2:0
     RDKit          3D

 18 19  0  0  0  0  0  0  0  0999 V2000
   59.1710   34.7020   46.6490 C   0  0  0  0  0  0  0  0  0  0  0  0
   58.5180   33.6480   47.2900 C   0  0  0  0  0  0  0  0  0  0  0  0
   57.8780   32.6580   46.5390 C   0  0  0  0  0  0  0  0  0  0  0  0
   57.8870   32.7130   45.1330 C   0  0  0  0  0  0  0  0  0  0  0  0
   57.2290   31.6940   44.3570 N   0  0  0  0  0  0  0  0  0  0  0  0
   57.4440   31.4940   43.0650 N   0  0  0  0  0  0  0  0  0  0  0  0
   56.6520   30.4670   42.7080 C   0  0  0  0  0  0  0  0  0  0  0  0
   55.9600   30.0620   43.8270 C   0  0  0  0  0  0  0  0  0  0  0  0
   56.3380   30.8460   44.8510 N   0  0  0  0  0  0  0  0  0  0  0  0
   58.5480   33.7800   44.4970 C   0  0  0  0  0  0  0  0  0  0  0  0
   59.1860   34.7690   45.2540 C   0  0  0  0  0  0  0  0  0  0  0  0
   59.6738   35.4798   47.2425 H   0  0  0  0  0  0  0  0  0  0  0  0
   58.5070   33.5963   48.3887 H   0  0  0  0  0  0  0  0  0  0  0  0
   57.3641   31.8307   47.0503 H   0  0  0  0  0  0  0  0  0  0  0  0
   56.5717   30.0292   41.7021 H   0  0  0  0  0  0  0  0  0  0  0  0
   55.2279   29.2424   43.8746 H   0  0  0  0  0  0  0  0  0  0  0  0
   58.5633   33.8370   43.3986 H   0  0  0  0  0  0  0  0  0  0  0  0
   59.7001   35.6004   44.7496 H   0  0  0  0  0  0  0  0  0  0  0  0
  1  2  2  0
  2  3  1  0
  3  4  2  0
  4  5  1  0
  5  6  1  0
  6  7  2  0
  7  8  1  0
  8  9  2  0
  4 10  1  0
 10 11  2  0
 11  1  1  0
  9  5  1  0
  1 12  1  0
  2 13  1  0
  3 14  1  0
  7 15  1  0
  8 16  1  0
 10 17  1  0
 11 18  1  0
M  END
>  <UniqueID>  (3) 
3

>  <SMILES>  (3) 
c1ccc(-n2nccn2)cc1

>  <Energy>  (3) 
53.04545463931135

>  <Genealogy>  (3) 
c1ccc(-n2nccn2)cc1 (3D coordinates assigned)
c1ccc(-n2nccn2)cc1 (optimized conformer: 53.04545463931135 kcal/mol)

>  <smiles>  (3) 
c1ccc(-n2nccn2)cc1

>  <score_type>  (3) 
oracle

>  <origin>  (3) 
adg

>  <m_score__min__energy>  (3) 
-5.4400000000000004

>  <m_primary>  (3) 
energy

$$$$
3:0
     RDKit          3D

 43 45  0  0  0  0  0  0  0  0999 V2000
   67.1170   32.1820   50.8050 C   0  0  0  0  0  0  0  0  0  0  0  0
   65.9070   31.4600   51.0060 O   0  0  0  0  0  0  0  0  0  0  0  0
   64.6990   31.7320   50.3450 C   0  0  0  0  0  0  0  0  0  0  0  0
   64.6890   32.7410   49.3780 C   0  0  0  0  0  0  0  0  0  0  0  0
   63.5100   33.0620   48.6830 C   0  0  0  0  0  0  0  0  0  0  0  0
   63.4750   34.0750   47.7090 O   0  0  0  0  0  0  0  0  0  0  0  0
   63.3610   33.8450   46.3090 C   0  0  0  0  0  0  0  0  0  0  0  0
   62.3270   32.3530   48.9650 C   0  0  0  0  0  0  0  0  0  0  0  0
   61.0780   32.6840   48.2360 C   0  0  0  0  0  0  0  0  0  0  0  0
   60.5270   31.8080   47.2670 C   0  0  0  0  0  0  0  0  0  0  0  0
   61.1670   30.4620   46.9840 C   0  0  0  0  0  0  0  0  0  0  0  0
   59.3650   32.2120   46.5600 C   0  0  0  0  0  0  0  0  0  0  0  0
   58.7830   31.4180   45.5440 C   0  0  0  0  0  0  0  0  0  0  0  0
   57.6320   31.8460   44.8770 C   0  0  0  0  0  0  0  0  0  0  0  0
   56.9250   30.8470   43.6200 Cl  0  0  0  0  0  0  0  0  0  0  0  0
   57.0450   33.0690   45.2050 C   0  0  0  0  0  0  0  0  0  0  0  0
   57.6070   33.8710   46.1960 C   0  0  0  0  0  0  0  0  0  0  0  0
   58.7650   33.4570   46.8760 C   0  0  0  0  0  0  0  0  0  0  0  0
   59.3090   34.2550   47.8350 N   0  0  0  0  0  0  0  0  0  0  0  0
   60.4380   33.9060   48.5050 C   0  0  0  0  0  0  0  0  0  0  0  0
   60.9120   34.6950   49.3680 O   0  0  0  0  0  0  0  0  0  0  0  0
   62.3230   31.3340   49.9370 C   0  0  0  0  0  0  0  0  0  0  0  0
   61.1240   30.6460   50.1860 O   0  0  0  0  0  0  0  0  0  0  0  0
   60.1190   31.0740   51.0990 C   0  0  0  0  0  0  0  0  0  0  0  0
   63.5130   31.0300   50.6230 C   0  0  0  0  0  0  0  0  0  0  0  0
   67.5545   32.4430   51.7799 H   0  0  0  0  0  0  0  0  0  0  0  0
   67.8260   31.5592   50.2399 H   0  0  0  0  0  0  0  0  0  0  0  0
   66.9056   33.1018   50.2399 H   0  0  0  0  0  0  0  0  0  0  0  0
   65.6158   33.2911   49.1579 H   0  0  0  0  0  0  0  0  0  0  0  0
   62.8786   32.8718   46.1354 H   0  0  0  0  0  0  0  0  0  0  0  0
   62.7534   34.6416   45.8548 H   0  0  0  0  0  0  0  0  0  0  0  0
   64.3629   33.8439   45.8548 H   0  0  0  0  0  0  0  0  0  0  0  0
   61.4048   29.9620   47.9345 H   0  0  0  0  0  0  0  0  0  0  0  0
   60.4690   29.8384   46.4062 H   0  0  0  0  0  0  0  0  0  0  0  0
   62.0913   30.6097   46.4062 H   0  0  0  0  0  0  0  0  0  0  0  0
   59.2410   30.4543   45.2764 H   0  0  0  0  0  0  0  0  0  0  0  0
   56.1369   33.4004   44.6801 H   0  0  0  0  0  0  0  0  0  0  0  0
   57.1410   34.8350   46.4479 H   0  0  0  0  0  0  0  0  0  0  0  0
   58.8580   35.1730   48.0620 H   0  0  0  0  0  0  0  0  0  0  0  0
   60.4721   30.9236   52.1299 H   0  0  0  0  0  0  0  0  0  0  0  0
   59.9061   32.1409   50.9363 H   0  0  0  0  0  0  0  0  0  0  0  0
   59.2023   30.4882   50.9363 H   0  0  0  0  0  0  0  0  0  0  0  0
   63.5156   30.2357   51.3840 H   0  0  0  0  0  0  0  0  0  0  0  0
  1  2  1  0
  2  3  1  0
  3  4  2  0
  4  5  1  0
  5  6  1  0
  6  7  1  0
  5  8  2  0
  8  9  1  0
  9 10  2  0
 10 11  1  0
 10 12  1  0
 12 13  2  0
 13 14  1  0
 14 15  1  0
 14 16  2  0
 16 17  1  0
 17 18  2  0
 18 19  1  0
 19 20  1  0
 20 21  2  0
  8 22  1  0
 22 23  1  0
 23 24  1  0
 22 25  2  0
 25  3  1  0
 20  9  1  0
 18 12  1  0
  1 26  1  0
  1 27  1  0
  1 28  1  0
  4 29  1  0
  7 30  1  0
  7 31  1  0
  7 32  1  0
 11 33  1  0
 11 34  1  0
 11 35  1  0
 13 36  1  0
 16 37  1  0
 17 38  1  0
 19 39  1  0
 24 40  1  0
 24 41  1  0
 24 42  1  0
 25 43  1  0
M  END
>  <UniqueID>  (4) 
4

>  <SMILES>  (4) 
COc1cc(OC)c(-c2c(C)c3cc(Cl)ccc3[nH]c2=O)c(OC)c1

>  <Energy>  (4) 
59.52289048565848

>  <Genealogy>  (4) 
COc1cc(OC)c(-c2c(C)c3cc(Cl)ccc3[nH]c2=O)c(OC)c1 (3D coordinates assigned)
COc1cc(OC)c(-c2c(C)c3cc(Cl)ccc3[nH]c2=O)c(OC)c1 (optimized conformer: 59.52289048565848 kcal/mol)

>  <smiles>  (4) 
COc1cc(OC)c(-c2c(C)c3cc(Cl)ccc3[nH]c2=O)c(OC)c1

>  <score_type>  (4) 
oracle

>  <origin>  (4) 
adg

>  <m_score__min__energy>  (4) 
-6.4500000000000002

>  <m_primary>  (4) 
energy

$$$$
4:0
     RDKit          3D

 57 58  0  0  0  0  0  0  0  0999 V2000
   60.9850   31.8680   50.9080 C   0  0  0  0  0  0  0  0  0  0  0  0
   61.5850   33.2700   50.8440 C   0  0  0  0  0  0  0  0  0  0  0  0
   62.0910   33.5600   49.4920 N   0  0  0  0  0  0  0  0  0  0  0  0
   63.5290   33.4220   49.2290 C   0  0  0  0  0  0  0  0  0  0  0  0
   63.7460   32.6650   47.9210 C   0  0  0  0  0  0  0  0  0  0  0  0
   63.1050   33.4290   46.7610 C   0  0  0  0  0  0  0  0  0  0  0  0
   61.6790   33.8260   47.0600 C   0  0  0  0  0  0  0  0  0  0  0  0
   60.8360   34.1740   45.9920 C   0  0  0  0  0  0  0  0  0  0  0  0
   59.5180   34.6040   46.2290 C   0  0  0  0  0  0  0  0  0  0  0  0
   58.6280   34.9540   45.1990 O   0  0  0  0  0  0  0  0  0  0  0  0
   57.7420   34.0680   44.5110 C   0  0  0  0  0  0  0  0  0  0  0  0
   57.8380   32.6400   45.0740 C   0  0  1  0  0  0  0  0  0  0  0  0
   57.0600   32.5250   46.2370 O   0  0  0  0  0  0  0  0  0  0  0  0
   57.3540   31.6190   44.0310 C   0  0  0  0  0  0  0  0  0  0  0  0
   56.7340   30.4520   44.6990 N   0  0  0  0  0  0  0  0  0  0  0  0
   55.5420   29.9560   43.9890 C   0  0  0  0  0  0  0  0  0  0  0  0
   57.6940   29.3730   45.0350 C   0  0  0  0  0  0  0  0  0  0  0  0
   58.1350   29.3270   46.5160 C   0  0  0  0  0  0  0  0  0  0  0  0
   58.8870   30.5390   46.9070 N   0  0  0  0  0  0  0  0  0  0  0  0
   58.9120   30.6980   48.3710 C   0  0  0  0  0  0  0  0  0  0  0  0
   60.2670   30.4770   46.3960 C   0  0  0  0  0  0  0  0  0  0  0  0
   59.0590   34.6880   47.5450 C   0  0  0  0  0  0  0  0  0  0  0  0
   59.8890   34.3570   48.6150 C   0  0  0  0  0  0  0  0  0  0  0  0
   61.2110   33.9230   48.3930 C   0  0  0  0  0  0  0  0  0  0  0  0
   60.8580   31.5712   51.9596 H   0  0  0  0  0  0  0  0  0  0  0  0
   60.0066   31.8646   50.4053 H   0  0  0  0  0  0  0  0  0  0  0  0
   61.6580   31.1578   50.4053 H   0  0  0  0  0  0  0  0  0  0  0  0
   60.8104   34.0062   51.1050 H   0  0  0  0  0  0  0  0  0  0  0  0
   62.4228   33.3282   51.5544 H   0  0  0  0  0  0  0  0  0  0  0  0
   63.9836   34.4207   49.1525 H   0  0  0  0  0  0  0  0  0  0  0  0
   63.9967   32.8636   50.0533 H   0  0  0  0  0  0  0  0  0  0  0  0
   64.8252   32.5600   47.7357 H   0  0  0  0  0  0  0  0  0  0  0  0
   63.2820   31.6707   47.9983 H   0  0  0  0  0  0  0  0  0  0  0  0
   63.6930   34.3383   46.5675 H   0  0  0  0  0  0  0  0  0  0  0  0
   63.0946   32.7656   45.8837 H   0  0  0  0  0  0  0  0  0  0  0  0
   61.2103   34.1096   44.9597 H   0  0  0  0  0  0  0  0  0  0  0  0
   56.7100   34.4309   44.6265 H   0  0  0  0  0  0  0  0  0  0  0  0
   58.0274   34.0443   43.4489 H   0  0  0  0  0  0  0  0  0  0  0  0
   58.8905   32.4336   45.3181 H   0  0  0  0  0  0  0  0  0  0  0  0
   57.0240   31.5610   46.4710 H   0  0  0  0  0  0  0  0  0  0  0  0
   56.6124   32.0964   43.3736 H   0  0  0  0  0  0  0  0  0  0  0  0
   58.2167   31.2755   43.4414 H   0  0  0  0  0  0  0  0  0  0  0  0
   54.7840   29.6406   44.7211 H   0  0  0  0  0  0  0  0  0  0  0  0
   55.1310   30.7578   43.3579 H   0  0  0  0  0  0  0  0  0  0  0  0
   55.8211   29.0993   43.3579 H   0  0  0  0  0  0  0  0  0  0  0  0
   57.2238   28.4094   44.7891 H   0  0  0  0  0  0  0  0  0  0  0  0
   58.6030   29.5779   44.4504 H   0  0  0  0  0  0  0  0  0  0  0  0
   57.2404   29.2437   47.1507 H   0  0  0  0  0  0  0  0  0  0  0  0
   58.7974   28.4586   46.6469 H   0  0  0  0  0  0  0  0  0  0  0  0
   58.7581   29.7192   48.8488 H   0  0  0  0  0  0  0  0  0  0  0  0
   59.8855   31.1073   48.6788 H   0  0  0  0  0  0  0  0  0  0  0  0
   58.1110   31.3863   48.6788 H   0  0  0  0  0  0  0  0  0  0  0  0
   60.9700   30.4454   47.2415 H   0  0  0  0  0  0  0  0  0  0  0  0
   60.3905   29.5724   45.7825 H   0  0  0  0  0  0  0  0  0  0  0  0
   60.4711   31.3669   45.7825 H   0  0  0  0  0  0  0  0  0  0  0  0
   58.0285   35.0198   47.7401 H   0  0  0  0  0  0  0  0  0  0  0  0
   59.5077   34.4355   49.6438 H   0  0  0  0  0  0  0  0  0  0  0  0
  1  2  1  0
  2  3  1  0
  3  4  1  0
  4  5  1  0
  5  6  1  0
  6  7  1  0
  7  8  2  0
  8  9  1  0
  9 10  1  0
 10 11  1  0
 11 12  1  0
 12 13  1  0
 12 14  1  0
 14 15  1  0
 15 16  1  0
 15 17  1  0
 17 18  1  0
 18 19  1  0
 19 20  1  0
 19 21  1  0
  9 22  2  0
 22 23  1  0
 23 24  2  0
 24  3  1  0
 24  7  1  0
  1 25  1  0
  1 26  1  0
  1 27  1  0
  2 28  1  0
  2 29  1  0
  4 30  1  0
  4 31  1  0
  5 32  1  0
  5 33  1  0
  6 34  1  0
  6 35  1  0
  8 36  1  0
 11 37  1  0
 11 38  1  0
 12 39  1  1
 13 40  1  0
 14 41  1  0
 14 42  1  0
 16 43  1  0
 16 44  1  0
 16 45  1  0
 17 46  1  0
 17 47  1  0
 18 48  1  0
 18 49  1  0
 20 50  1  0
 20 51  1  0
 20 52  1  0
 21 53  1  0
 21 54  1  0
 21 55  1  0
 22 56  1  0
 23 57  1  0
M  END
>  <UniqueID>  (5) 
5

>  <SMILES>  (5) 
CCN1CCCc2cc(OC[C@@H](O)CN(C)CCN(C)C)ccc21

>  <Energy>  (5) 
57.21148066721976

>  <Genealogy>  (5) 
CCN1CCCc2cc(OC[C@@H](O)CN(C)CCN(C)C)ccc21 (chirality)
CCN1CCCc2cc(OC[C@@H](O)CN(C)CCN(C)C)ccc21 (3D coordinates assigned)
CCN1CCCc2cc(OC[C@@H](O)CN(C)CCN(C)C)ccc21 (nonaromatic ring conformer: 57.21148066721976 kcal/mol)

>  <smiles>  (5) 
CCN1CCCc2cc(OCC(O)CN(C)CCN(C)C)ccc21

>  <score_type>  (5) 
oracle

>  <origin>  (5) 
adg

>  <m_score__min__energy>  (5) 
-7.8899999999999997

>  <m_primary>  (5) 
energy

$$$$
5:0
     RDKit          3D

 53 56  0  0  1  0  0  0  0  0999 V2000
   58.9480   27.1260   46.8320 C   0  0  0  0  0  0  0  0  0  0  0  0
   59.7430   27.7360   45.8560 C   0  0  0  0  0  0  0  0  0  0  0  0
   59.4040   27.7320   44.5300 C   0  0  0  0  0  0  0  0  0  0  0  0
   58.2300   27.1010   44.1300 C   0  0  0  0  0  0  0  0  0  0  0  0
   57.8580   27.0960   42.6800 C   0  0  0  0  0  0  0  0  0  0  0  0
   57.0190   28.2200   42.3270 N   0  0  0  0  0  0  0  0  0  0  0  0
   56.8010   29.2070   43.1260 C   0  0  0  0  0  0  0  0  0  0  0  0
   55.6490   29.8420   43.3970 N   0  0  0  0  0  0  0  0  0  0  0  0
   55.8580   30.7930   44.2690 N   0  0  0  0  0  0  0  0  0  0  0  0
   57.1740   30.7670   44.5600 C   0  0  0  0  0  0  0  0  0  0  0  0
   57.8350   31.6740   45.5000 C   0  0  0  0  0  0  0  0  0  0  0  0
   58.6370   31.1900   46.5120 C   0  0  0  0  0  0  0  0  0  0  0  0
   59.2520   32.0580   47.3890 C   0  0  0  0  0  0  0  0  0  0  0  0
   59.0940   33.4210   47.2940 C   0  0  0  0  0  0  0  0  0  0  0  0
   59.6930   34.3570   48.1720 N   0  0  0  0  0  0  0  0  0  0  0  0
   61.0860   34.3620   48.5500 C   0  0  0  0  0  0  0  0  0  0  0  0
   61.3000   34.0670   50.0060 C   0  0  0  0  0  0  0  0  0  0  0  0
   62.3500   33.0840   50.3520 C   0  0  0  0  0  0  0  0  0  0  0  0
   63.7650   33.5110   50.0450 C   0  0  0  0  0  0  0  0  0  0  0  0
   64.1950   33.0980   48.6590 C   0  0  0  0  0  0  0  0  0  0  0  0
   63.3830   33.8270   47.6270 C   0  0  0  0  0  0  0  0  0  0  0  0
   61.9220   33.4830   47.6520 C   0  0  0  0  0  0  0  0  0  0  0  0
   58.2810   33.8740   46.2660 C   0  0  0  0  0  0  0  0  0  0  0  0
   57.6560   33.0390   45.3780 C   0  0  0  0  0  0  0  0  0  0  0  0
   57.7200   29.8060   43.8620 O   0  0  0  0  0  0  0  0  0  0  0  0
   57.4190   26.4840   45.0830 C   0  0  0  0  0  0  0  0  0  0  0  0
   57.7870   26.5030   46.4270 C   0  0  0  0  0  0  0  0  0  0  0  0
   59.2409   27.1430   47.8922 H   0  0  0  0  0  0  0  0  0  0  0  0
   60.6727   28.2362   46.1649 H   0  0  0  0  0  0  0  0  0  0  0  0
   60.0523   28.2221   43.7887 H   0  0  0  0  0  0  0  0  0  0  0  0
   58.7778   27.1379   42.0782 H   0  0  0  0  0  0  0  0  0  0  0  0
   57.2903   26.1752   42.4803 H   0  0  0  0  0  0  0  0  0  0  0  0
   54.7450   29.5960   42.9690 H   0  0  0  0  0  0  0  0  0  0  0  0
   58.7869   30.1056   46.6201 H   0  0  0  0  0  0  0  0  0  0  0  0
   59.8876   31.6485   48.1880 H   0  0  0  0  0  0  0  0  0  0  0  0
   59.0950   35.1090   48.5860 H   0  0  0  0  0  0  0  0  0  0  0  0
   61.4399   35.3928   48.4009 H   0  0  0  0  0  0  0  0  0  0  0  0
   61.5589   35.0148   50.5006 H   0  0  0  0  0  0  0  0  0  0  0  0
   60.3596   33.6056   50.3418 H   0  0  0  0  0  0  0  0  0  0  0  0
   62.2833   32.8823   51.4313 H   0  0  0  0  0  0  0  0  0  0  0  0
   62.1572   32.2018   49.7239 H   0  0  0  0  0  0  0  0  0  0  0  0
   63.8301   34.6062   50.1249 H   0  0  0  0  0  0  0  0  0  0  0  0
   64.4318   33.0175   50.7674 H   0  0  0  0  0  0  0  0  0  0  0  0
   65.2593   33.3394   48.5214 H   0  0  0  0  0  0  0  0  0  0  0  0
   64.0380   32.0156   48.5413 H   0  0  0  0  0  0  0  0  0  0  0  0
   63.4879   34.9077   47.8031 H   0  0  0  0  0  0  0  0  0  0  0  0
   63.7673   33.5216   46.6426 H   0  0  0  0  0  0  0  0  0  0  0  0
   61.5315   33.5690   46.6273 H   0  0  0  0  0  0  0  0  0  0  0  0
   61.8483   32.4629   48.0570 H   0  0  0  0  0  0  0  0  0  0  0  0
   58.1304   34.9583   46.1582 H   0  0  0  0  0  0  0  0  0  0  0  0
   57.0206   33.4491   44.5791 H   0  0  0  0  0  0  0  0  0  0  0  0
   56.4899   25.9829   44.7737 H   0  0  0  0  0  0  0  0  0  0  0  0
   57.1433   26.0150   47.1736 H   0  0  0  0  0  0  0  0  0  0  0  0
  1  2  2  0
  2  3  1  0
  3  4  2  0
  4  5  1  0
  5  6  1  0
  6  7  2  0
  7  8  1  0
  8  9  1  0
  9 10  2  0
 10 11  1  0
 11 12  2  0
 12 13  1  0
 13 14  2  0
 14 15  1  0
 15 16  1  0
 16 17  1  0
 17 18  1  0
 18 19  1  0
 19 20  1  0
 20 21  1  0
 21 22  1  0
 14 23  1  0
 23 24  2  0
 10 25  1  0
  4 26  1  0
 26 27  2  0
 27  1  1  0
 25  7  1  0
 24 11  1  0
 22 16  1  0
  1 28  1  0
  2 29  1  0
  3 30  1  0
  5 31  1  0
  5 32  1  0
  8 33  1  0
 12 34  1  0
 13 35  1  0
 15 36  1  0
 16 37  1  0
 17 38  1  0
 17 39  1  0
 18 40  1  0
 18 41  1  0
 19 42  1  0
 19 43  1  0
 20 44  1  0
 20 45  1  0
 21 46  1  0
 21 47  1  0
 22 48  1  0
 22 49  1  0
 23 50  1  0
 24 51  1  0
 26 52  1  0
 27 53  1  0
M  END
>  <smiles>  (6) 
c1ccc(CN=c2[nH]nc(-c3ccc(NC4CCCCCC4)cc3)o2)cc1

>  <score_type>  (6) 
oracle

>  <origin>  (6) 
adg

>  <m_score__min__energy>  (6) 
-7.0800000000000001

>  <m_primary>  (6) 
energy

$$$$
6:0
     RDKit          3D

 53 56  0  0  1  0  0  0  0  0999 V2000
   56.9200   31.2610   52.1180 C   0  0  0  0  0  0  0  0  0  0  0  0
   57.8690   31.2150   50.9530 C   0  0  0  0  0  0  0  0  0  0  0  0
   58.2150   30.0120   50.4330 N   0  0  0  0  0  0  0  0  0  0  0  0
   59.0610   29.9310   49.3900 C   0  0  0  0  0  0  0  0  0  0  0  0
   59.4680   28.7150   48.7930 N   0  0  0  0  0  0  0  0  0  0  0  0
   58.9710   28.2890   47.6080 C   0  0  0  0  0  0  0  0  0  0  0  0
   59.5920   27.0910   47.3550 C   0  0  0  0  0  0  0  0  0  0  0  0
   60.4320   26.8140   48.3610 N   0  0  0  0  0  0  0  0  0  0  0  0
   60.3570   27.8060   49.2410 C   0  0  0  0  0  0  0  0  0  0  0  0
   61.1310   27.9000   50.5170 C   0  0  0  0  0  0  0  0  0  0  0  0
   59.5610   31.1060   48.8750 C   0  0  0  0  0  0  0  0  0  0  0  0
   59.1900   32.3020   49.4250 C   0  0  0  0  0  0  0  0  0  0  0  0
   59.6730   33.3790   48.9220 N   0  0  0  0  0  0  0  0  0  0  0  0
   59.0760   34.0840   47.8010 C   0  0  0  0  0  0  0  0  0  0  0  0
   57.7550   33.4750   47.4020 C   0  0  0  0  0  0  0  0  0  0  0  0
   57.3810   33.6290   45.9700 C   0  0  0  0  0  0  0  0  0  0  0  0
   58.4010   33.7560   45.0230 N   0  0  0  0  0  0  0  0  0  0  0  0
   58.2970   33.0940   43.7820 C   0  0  0  0  0  0  0  0  0  0  0  0
   57.9340   31.6590   43.8520 C   0  0  0  0  0  0  0  0  0  0  0  0
   58.4510   30.7800   44.7750 C   0  0  0  0  0  0  0  0  0  0  0  0
   58.0520   29.4520   44.7670 C   0  0  0  0  0  0  0  0  0  0  0  0
   57.1350   28.9640   43.8500 C   0  0  0  0  0  0  0  0  0  0  0  0
   56.6100   29.8500   42.9150 C   0  0  0  0  0  0  0  0  0  0  0  0
   57.0180   31.1760   42.9330 C   0  0  0  0  0  0  0  0  0  0  0  0
   59.6220   34.3630   45.3750 C   0  0  0  0  0  0  0  0  0  0  0  0
   60.1120   33.8570   46.6860 C   0  0  0  0  0  0  0  0  0  0  0  0
   58.3470   32.3770   50.4620 N   0  0  0  0  0  0  0  0  0  0  0  0
   57.4913   31.2333   53.0576 H   0  0  0  0  0  0  0  0  0  0  0  0
   56.3306   32.1888   52.0744 H   0  0  0  0  0  0  0  0  0  0  0  0
   56.2437   30.3946   52.0744 H   0  0  0  0  0  0  0  0  0  0  0  0
   58.2251   28.7969   46.9790 H   0  0  0  0  0  0  0  0  0  0  0  0
   59.4265   26.4603   46.4691 H   0  0  0  0  0  0  0  0  0  0  0  0
   60.4423   27.8164   51.3706 H   0  0  0  0  0  0  0  0  0  0  0  0
   61.8683   27.0848   50.5595 H   0  0  0  0  0  0  0  0  0  0  0  0
   61.6518   28.8680   50.5595 H   0  0  0  0  0  0  0  0  0  0  0  0
   60.2570   31.0828   48.0235 H   0  0  0  0  0  0  0  0  0  0  0  0
   58.8636   35.1403   48.0225 H   0  0  0  0  0  0  0  0  0  0  0  0
   57.7970   32.3990   47.6267 H   0  0  0  0  0  0  0  0  0  0  0  0
   56.9885   34.0197   47.9728 H   0  0  0  0  0  0  0  0  0  0  0  0
   56.7888   32.7445   45.6924 H   0  0  0  0  0  0  0  0  0  0  0  0
   56.8570   34.5954   45.9317 H   0  0  0  0  0  0  0  0  0  0  0  0
   57.5287   33.6091   43.1866 H   0  0  0  0  0  0  0  0  0  0  0  0
   59.3019   33.1295   43.3361 H   0  0  0  0  0  0  0  0  0  0  0  0
   59.1810   31.1305   45.5195 H   0  0  0  0  0  0  0  0  0  0  0  0
   58.4771   28.7639   45.5125 H   0  0  0  0  0  0  0  0  0  0  0  0
   56.8311   27.9069   43.8611 H   0  0  0  0  0  0  0  0  0  0  0  0
   55.8793   29.5032   42.1695 H   0  0  0  0  0  0  0  0  0  0  0  0
   56.5981   31.8694   42.1894 H   0  0  0  0  0  0  0  0  0  0  0  0
   60.3708   34.1397   44.6008 H   0  0  0  0  0  0  0  0  0  0  0  0
   59.4627   35.4484   45.4562 H   0  0  0  0  0  0  0  0  0  0  0  0
   60.3144   32.7792   46.6001 H   0  0  0  0  0  0  0  0  0  0  0  0
   61.0275   34.4076   46.9482 H   0  0  0  0  0  0  0  0  0  0  0  0
   58.0860   33.2820   50.8550 H   0  0  0  0  0  0  0  0  0  0  0  0
  1  2  1  0
  2  3  2  0
  3  4  1  0
  4  5  1  0
  5  6  1  0
  6  7  2  0
  7  8  1  0
  8  9  2  0
  9 10  1  0
  4 11  2  0
 11 12  1  0
 12 13  2  0
 13 14  1  0
 14 15  1  0
 15 16  1  0
 16 17  1  0
 17 18  1  0
 18 19  1  0
 19 20  2  0
 20 21  1  0
 21 22  2  0
 22 23  1  0
 23 24  2  0
 17 25  1  0
 25 26  1  0
 12 27  1  0
 27  2  1  0
  9  5  1  0
 26 14  1  0
 24 19  1  0
  1 28  1  0
  1 29  1  0
  1 30  1  0
  6 31  1  0
  7 32  1  0
 10 33  1  0
 10 34  1  0
 10 35  1  0
 11 36  1  0
 14 37  1  0
 15 38  1  0
 15 39  1  0
 16 40  1  0
 16 41  1  0
 18 42  1  0
 18 43  1  0
 20 44  1  0
 21 45  1  0
 22 46  1  0
 23 47  1  0
 24 48  1  0
 25 49  1  0
 25 50  1  0
 26 51  1  0
 26 52  1  0
 27 53  1  0
M  END
>  <smiles>  (7) 
Cc1nc(-n2ccnc2C)cc(=NC2CCN(Cc3ccccc3)CC2)[nH]1

>  <score_type>  (7) 
oracle

>  <origin>  (7) 
adg

>  <m_score__min__energy>  (7) 
-8.7899999999999991

>  <m_primary>  (7) 
energy

$$$$
7:0
     RDKit          3D

 42 44  0  0  0  0  0  0  0  0999 V2000
   55.5140   28.9990   45.1420 O   0  0  0  0  0  0  0  0  0  0  0  0
   56.7630   28.8630   45.0650 C   0  0  0  0  0  0  0  0  0  0  0  0
   57.4270   29.0380   43.7270 C   0  0  0  0  0  0  0  0  0  0  0  0
   56.6990   30.4480   42.8260 S   0  0  0  0  0  0  0  0  0  0  0  0
   57.3890   31.7000   43.9140 C   0  0  0  0  0  0  0  0  0  0  0  0
   58.1350   32.7540   43.3790 C   0  0  0  0  0  0  0  0  0  0  0  0
   58.6740   33.7160   44.2360 C   0  0  0  0  0  0  0  0  0  0  0  0
   58.4550   33.6200   45.6100 C   0  0  0  0  0  0  0  0  0  0  0  0
   57.7050   32.5530   46.1100 C   0  0  0  0  0  0  0  0  0  0  0  0
   57.1980   31.6170   45.2620 N   0  0  0  0  0  0  0  0  0  0  0  0
   57.5100   28.6700   46.2750 N   0  0  0  0  0  0  0  0  0  0  0  0
   58.6510   29.4240   46.7060 C   0  0  0  0  0  0  0  0  0  0  0  0
   58.6480   29.9890   47.9810 C   0  0  0  0  0  0  0  0  0  0  0  0
   59.7350   30.7410   48.4280 C   0  0  0  0  0  0  0  0  0  0  0  0
   60.8790   30.9250   47.6140 C   0  0  0  0  0  0  0  0  0  0  0  0
   62.0110   31.7300   48.0700 N   0  0  0  0  0  0  0  0  0  0  0  0
   62.6260   31.4380   49.3810 C   0  0  0  0  0  0  0  0  0  0  0  0
   63.7330   32.4210   49.7710 C   0  0  0  0  0  0  0  0  0  0  0  0
   64.5110   32.7720   48.6520 O   0  0  0  0  0  0  0  0  0  0  0  0
   63.7220   33.5590   47.7920 C   0  0  0  0  0  0  0  0  0  0  0  0
   62.6050   32.7280   47.1540 C   0  0  0  0  0  0  0  0  0  0  0  0
   60.8910   30.2860   46.3520 C   0  0  0  0  0  0  0  0  0  0  0  0
   59.7970   29.5390   45.9100 C   0  0  0  0  0  0  0  0  0  0  0  0
   58.5010   29.2216   43.8780 H   0  0  0  0  0  0  0  0  0  0  0  0
   57.2760   28.1235   43.1347 H   0  0  0  0  0  0  0  0  0  0  0  0
   58.2960   32.8251   42.2932 H   0  0  0  0  0  0  0  0  0  0  0  0
   59.2692   34.5466   43.8287 H   0  0  0  0  0  0  0  0  0  0  0  0
   58.8686   34.3767   46.2929 H   0  0  0  0  0  0  0  0  0  0  0  0
   57.5237   32.4690   47.1917 H   0  0  0  0  0  0  0  0  0  0  0  0
   56.6430   30.8240   45.6560 H   0  0  0  0  0  0  0  0  0  0  0  0
   57.7803   29.8404   48.6406 H   0  0  0  0  0  0  0  0  0  0  0  0
   59.7028   31.1979   49.4281 H   0  0  0  0  0  0  0  0  0  0  0  0
   61.8403   31.4760   50.1499 H   0  0  0  0  0  0  0  0  0  0  0  0
   63.0896   30.4433   49.3056 H   0  0  0  0  0  0  0  0  0  0  0  0
   63.2763   33.3293   50.1912 H   0  0  0  0  0  0  0  0  0  0  0  0
   64.3847   31.9389   50.5145 H   0  0  0  0  0  0  0  0  0  0  0  0
   63.2734   34.3816   48.3683 H   0  0  0  0  0  0  0  0  0  0  0  0
   64.3649   33.9535   46.9913 H   0  0  0  0  0  0  0  0  0  0  0  0
   61.8097   33.4115   46.8218 H   0  0  0  0  0  0  0  0  0  0  0  0
   63.0547   32.1711   46.3188 H   0  0  0  0  0  0  0  0  0  0  0  0
   61.7776   30.3791   45.7075 H   0  0  0  0  0  0  0  0  0  0  0  0
   59.8359   29.0383   44.9313 H   0  0  0  0  0  0  0  0  0  0  0  0
  1  2  2  0
  2  3  1  0
  3  4  1  0
  4  5  1  0
  5  6  2  0
  6  7  1  0
  7  8  2  0
  8  9  1  0
  9 10  2  0
  2 11  1  0
 11 12  1  0
 12 13  2  0
 13 14  1  0
 14 15  2  0
 15 16  1  0
 16 17  1  0
 17 18  1  0
 18 19  1  0
 19 20  1  0
 20 21  1  0
 15 22  1  0
 22 23  2  0
 10  5  1  0
 23 12  1  0
 21 16  1  0
  3 24  1  0
  3 25  1  0
  6 26  1  0
  7 27  1  0
  8 28  1  0
  9 29  1  0
 10 30  1  0
 13 31  1  0
 14 32  1  0
 17 33  1  0
 17 34  1  0
 18 35  1  0
 18 36  1  0
 20 37  1  0
 20 38  1  0
 21 39  1  0
 21 40  1  0
 22 41  1  0
 23 42  1  0
M  CHG  2  10   1  11  -1
M  END
>  <UniqueID>  (8) 
6

>  <SMILES>  (8) 
O=C(CSc1cccc[nH+]1)[N-]c1ccc(N2CCOCC2)cc1

>  <Energy>  (8) 
49.18069467549373

>  <Genealogy>  (8) 
O=C(CSc1cccc[nH+]1)[N-]c1ccc(N2CCOCC2)cc1 (protonated)
O=C(CSc1cccc[nH+]1)[N-]c1ccc(N2CCOCC2)cc1 (3D coordinates assigned)
O=C(CSc1cccc[nH+]1)[N-]c1ccc(N2CCOCC2)cc1 (nonaromatic ring conformer: 49.18069467549373 kcal/mol)

>  <smiles>  (8) 
O=C(CSc1ccccn1)Nc1ccc(N2CCOCC2)cc1

>  <score_type>  (8) 
oracle

>  <origin>  (8) 
adg

>  <m_score__min__energy>  (8) 
-7.5899999999999999

>  <m_primary>  (8) 
energy

$$$$
8:0
     RDKit          3D

 47 49  0  0  0  0  0  0  0  0999 V2000
   55.3320   29.7240   44.1330 C   0  0  0  0  0  0  0  0  0  0  0  0
   56.3670   30.1390   43.0910 C   0  0  0  0  0  0  0  0  0  0  0  0
   57.7240   29.9840   43.6190 N   0  0  0  0  0  0  0  0  0  0  0  0
   58.1360   30.3520   44.9500 C   0  0  0  0  0  0  0  0  0  0  0  0
   58.1290   29.4330   46.0130 C   0  0  0  0  0  0  0  0  0  0  0  0
   58.5350   29.8240   47.2890 C   0  0  0  0  0  0  0  0  0  0  0  0
   58.9560   31.1390   47.5350 C   0  0  0  0  0  0  0  0  0  0  0  0
   59.3580   31.4970   48.9100 C   0  0  0  0  0  0  0  0  0  0  0  0
   58.5480   32.3350   49.6930 C   0  0  0  0  0  0  0  0  0  0  0  0
   58.9460   32.6860   50.9870 C   0  0  0  0  0  0  0  0  0  0  0  0
   60.1460   32.1950   51.5090 C   0  0  0  0  0  0  0  0  0  0  0  0
   60.5360   32.5450   52.7600 F   0  0  0  0  0  0  0  0  0  0  0  0
   60.9460   31.3420   50.7420 C   0  0  0  0  0  0  0  0  0  0  0  0
   60.5500   30.9870   49.4490 C   0  0  0  0  0  0  0  0  0  0  0  0
   58.9960   32.0680   46.4670 C   0  0  0  0  0  0  0  0  0  0  0  0
   59.5920   33.7270   46.6770 S   0  0  0  0  0  0  0  0  0  0  0  0
   58.5950   34.5040   47.4890 O   0  0  0  0  0  0  0  0  0  0  0  0
   59.7480   34.3980   45.3400 O   0  0  0  0  0  0  0  0  0  0  0  0
   61.1690   33.7240   47.4640 C   0  0  0  0  0  0  0  0  0  0  0  0
   61.3300   34.2680   48.7440 C   0  0  0  0  0  0  0  0  0  0  0  0
   62.5690   34.2000   49.3880 C   0  0  0  0  0  0  0  0  0  0  0  0
   63.6670   33.5910   48.7490 C   0  0  0  0  0  0  0  0  0  0  0  0
   64.9260   33.4820   49.3580 O   0  0  0  0  0  0  0  0  0  0  0  0
   65.3510   32.3620   50.1260 C   0  0  0  0  0  0  0  0  0  0  0  0
   63.5040   33.0680   47.4600 C   0  0  0  0  0  0  0  0  0  0  0  0
   62.2630   33.1340   46.8200 C   0  0  0  0  0  0  0  0  0  0  0  0
   58.5770   31.6620   45.1900 C   0  0  0  0  0  0  0  0  0  0  0  0
   55.7406   29.8878   45.1411 H   0  0  0  0  0  0  0  0  0  0  0  0
   54.4205   30.3262   44.0045 H   0  0  0  0  0  0  0  0  0  0  0  0
   55.0890   28.6589   44.0045 H   0  0  0  0  0  0  0  0  0  0  0  0
   56.2529   29.5077   42.1974 H   0  0  0  0  0  0  0  0  0  0  0  0
   56.2061   31.1965   42.8343 H   0  0  0  0  0  0  0  0  0  0  0  0
   58.4350   29.5680   42.9760 H   0  0  0  0  0  0  0  0  0  0  0  0
   57.8010   28.3978   45.8377 H   0  0  0  0  0  0  0  0  0  0  0  0
   58.5248   29.0931   48.1110 H   0  0  0  0  0  0  0  0  0  0  0  0
   57.5989   32.7161   49.2880 H   0  0  0  0  0  0  0  0  0  0  0  0
   58.3135   33.3496   51.5950 H   0  0  0  0  0  0  0  0  0  0  0  0
   61.8868   30.9504   51.1561 H   0  0  0  0  0  0  0  0  0  0  0  0
   61.1743   30.3059   48.8520 H   0  0  0  0  0  0  0  0  0  0  0  0
   60.4781   34.7509   49.2450 H   0  0  0  0  0  0  0  0  0  0  0  0
   62.6869   34.6232   50.3965 H   0  0  0  0  0  0  0  0  0  0  0  0
   65.2619   32.5967   51.1970 H   0  0  0  0  0  0  0  0  0  0  0  0
   64.7201   31.4931   49.8874 H   0  0  0  0  0  0  0  0  0  0  0  0
   66.3995   32.1304   49.8874 H   0  0  0  0  0  0  0  0  0  0  0  0
   64.3586   32.6020   46.9476 H   0  0  0  0  0  0  0  0  0  0  0  0
   62.1457   32.7211   45.8072 H   0  0  0  0  0  0  0  0  0  0  0  0
   58.5948   32.3852   44.3614 H   0  0  0  0  0  0  0  0  0  0  0  0
  1  2  1  0
  2  3  1  0
  3  4  1  0
  4  5  2  0
  5  6  1  0
  6  7  2  0
  7  8  1  0
  8  9  2  0
  9 10  1  0
 10 11  2  0
 11 12  1  0
 11 13  1  0
 13 14  2  0
  7 15  1  0
 15 16  1  0
 16 17  2  0
 16 18  2  0
 16 19  1  0
 19 20  2  0
 20 21  1  0
 21 22  2  0
 22 23  1  0
 23 24  1  0
 22 25  1  0
 25 26  2  0
 15 27  2  0
 27  4  1  0
 14  8  1  0
 26 19  1  0
  1 28  1  0
  1 29  1  0
  1 30  1  0
  2 31  1  0
  2 32  1  0
  3 33  1  0
  5 34  1  0
  6 35  1  0
  9 36  1  0
 10 37  1  0
 13 38  1  0
 14 39  1  0
 20 40  1  0
 21 41  1  0
 24 42  1  0
 24 43  1  0
 24 44  1  0
 25 45  1  0
 26 46  1  0
 27 47  1  0
M  END
>  <UniqueID>  (9) 
7

>  <SMILES>  (9) 
CCNc1ccc(-c2ccc(F)cc2)c(S(=O)(=O)c2ccc(OC)cc2)c1

>  <Energy>  (9) 
53.02944745943444

>  <Genealogy>  (9) 
CCNc1ccc(-c2ccc(F)cc2)c(S(=O)(=O)c2ccc(OC)cc2)c1 (3D coordinates assigned)
CCNc1ccc(-c2ccc(F)cc2)c(S(=O)(=O)c2ccc(OC)cc2)c1 (optimized conformer: 53.02944745943444 kcal/mol)

>  <smiles>  (9) 
CCNc1ccc(-c2ccc(F)cc2)c(S(=O)(=O)c2ccc(OC)cc2)c1

>  <score_type>  (9) 
oracle

>  <origin>  (9) 
adg

>  <m_score__min__energy>  (9) 
-7.5199999999999996

>  <m_primary>  (9) 
energy

$$$$
9:0
     RDKit          3D

 42 43  0  0  0  0  0  0  0  0999 V2000
   60.1080   33.5170   50.5540 C   0  0  0  0  0  0  0  0  0  0  0  0
   60.6530   33.6410   49.2450 O   0  0  0  0  0  0  0  0  0  0  0  0
   59.9050   33.5480   48.0600 C   0  0  0  0  0  0  0  0  0  0  0  0
   58.5470   33.1800   48.0620 C   0  0  0  0  0  0  0  0  0  0  0  0
   57.8360   33.0990   46.8630 C   0  0  0  0  0  0  0  0  0  0  0  0
   58.4630   33.3910   45.6450 C   0  0  0  0  0  0  0  0  0  0  0  0
   57.7050   33.2690   44.3490 C   0  0  0  0  0  0  0  0  0  0  0  0
   57.5280   31.8050   43.9420 C   0  0  0  0  0  0  0  0  0  0  0  0
   56.6180   31.1320   44.8620 N   0  0  0  0  0  0  0  0  0  0  0  0
   56.3500   29.7260   44.8370 C   0  0  0  0  0  0  0  0  0  0  0  0
   55.1510   29.3370   44.8720 O   0  0  0  0  0  0  0  0  0  0  0  0
   57.4700   28.7210   44.7760 C   0  0  0  0  0  0  0  0  0  0  0  0
   58.5820   29.1140   45.6370 N   0  0  0  0  0  0  0  0  0  0  0  0
   59.8230   29.4400   45.2290 C   0  0  0  0  0  0  0  0  0  0  0  0
   60.5650   29.7960   46.3340 C   0  0  0  0  0  0  0  0  0  0  0  0
   59.6840   29.6770   47.3940 C   0  0  0  0  0  0  0  0  0  0  0  0
   60.0140   29.8970   48.8360 C   0  0  0  0  0  0  0  0  0  0  0  0
   58.9380   30.4710   49.4870 F   0  0  0  0  0  0  0  0  0  0  0  0
   61.1070   30.7370   48.9460 F   0  0  0  0  0  0  0  0  0  0  0  0
   60.3100   28.6840   49.4290 F   0  0  0  0  0  0  0  0  0  0  0  0
   58.4840   29.2550   46.9500 N   0  0  0  0  0  0  0  0  0  0  0  0
   59.8200   33.7470   45.6390 C   0  0  0  0  0  0  0  0  0  0  0  0
   60.5450   33.8320   46.8440 C   0  0  0  0  0  0  0  0  0  0  0  0
   61.9030   34.1910   46.8730 O   0  0  0  0  0  0  0  0  0  0  0  0
   62.9690   33.2890   47.1500 C   0  0  0  0  0  0  0  0  0  0  0  0
   60.8976   33.6967   51.2985 H   0  0  0  0  0  0  0  0  0  0  0  0
   59.3033   34.2550   50.6876 H   0  0  0  0  0  0  0  0  0  0  0  0
   59.7019   32.5035   50.6876 H   0  0  0  0  0  0  0  0  0  0  0  0
   58.0427   32.9549   49.0133 H   0  0  0  0  0  0  0  0  0  0  0  0
   56.7764   32.8039   46.8751 H   0  0  0  0  0  0  0  0  0  0  0  0
   56.7133   33.7294   44.4696 H   0  0  0  0  0  0  0  0  0  0  0  0
   58.2794   33.7802   43.5624 H   0  0  0  0  0  0  0  0  0  0  0  0
   57.1149   31.7586   42.9236 H   0  0  0  0  0  0  0  0  0  0  0  0
   58.5063   31.3031   43.9741 H   0  0  0  0  0  0  0  0  0  0  0  0
   57.0912   27.7418   45.1042 H   0  0  0  0  0  0  0  0  0  0  0  0
   57.8345   28.6693   43.7394 H   0  0  0  0  0  0  0  0  0  0  0  0
   60.1833   29.4247   44.1898 H   0  0  0  0  0  0  0  0  0  0  0  0
   61.6202   30.1052   46.3661 H   0  0  0  0  0  0  0  0  0  0  0  0
   60.3227   33.9618   44.6844 H   0  0  0  0  0  0  0  0  0  0  0  0
   63.0895   33.1870   48.2386 H   0  0  0  0  0  0  0  0  0  0  0  0
   62.7404   32.3059   46.7127 H   0  0  0  0  0  0  0  0  0  0  0  0
   63.9007   33.6771   46.7127 H   0  0  0  0  0  0  0  0  0  0  0  0
  1  2  1  0
  2  3  1  0
  3  4  2  0
  4  5  1  0
  5  6  2  0
  6  7  1  0
  7  8  1  0
  8  9  1  0
  9 10  1  0
 10 11  2  0
 10 12  1  0
 12 13  1  0
 13 14  1  0
 14 15  2  0
 15 16  1  0
 16 17  1  0
 17 18  1  0
 17 19  1  0
 17 20  1  0
 16 21  2  0
  6 22  1  0
 22 23  2  0
 23 24  1  0
 24 25  1  0
 23  3  1  0
 21 13  1  0
  1 26  1  0
  1 27  1  0
  1 28  1  0
  4 29  1  0
  5 30  1  0
  7 31  1  0
  7 32  1  0
  8 33  1  0
  8 34  1  0
 12 35  1  0
 12 36  1  0
 14 37  1  0
 15 38  1  0
 22 39  1  0
 25 40  1  0
 25 41  1  0
 25 42  1  0
M  CHG  1   9  -1
M  END
>  <UniqueID>  (10) 
8

>  <SMILES>  (10) 
COc1ccc(CC[N-]C(=O)Cn2ccc(C(F)(F)F)n2)cc1OC

>  <Energy>  (10) 
63.49325718614037

>  <Genealogy>  (10) 
COc1ccc(CC[N-]C(=O)Cn2ccc(C(F)(F)F)n2)cc1OC (protonated)
COc1ccc(CC[N-]C(=O)Cn2ccc(C(F)(F)F)n2)cc1OC (3D coordinates assigned)
COc1ccc(CC[N-]C(=O)Cn2ccc(C(F)(F)F)n2)cc1OC (optimized conformer: 63.49325718614037 kcal/mol)

>  <smiles>  (10) 
COc1ccc(CCNC(=O)Cn2ccc(C(F)(F)F)n2)cc1OC

>  <score_type>  (10) 
oracle

>  <origin>  (10) 
adg

>  <m_score__min__energy>  (10) 
-8.8200000000000003

>  <m_primary>  (10) 
energy

$$$$
10:0
     RDKit          3D

 49 50  0  0  0  0  0  0  0  0999 V2000
   59.5960   35.0240   45.6250 C   0  0  0  0  0  0  0  0  0  0  0  0
   58.9940   34.1170   44.5540 C   0  0  0  0  0  0  0  0  0  0  0  0
   58.2620   32.9800   45.1590 N   0  0  0  0  0  0  0  0  0  0  0  0
   57.4430   32.2580   44.1480 C   0  0  0  0  0  0  0  0  0  0  0  0
   58.1310   32.3140   42.7910 C   0  0  0  0  0  0  0  0  0  0  0  0
   57.4330   33.4570   46.2920 C   0  0  0  0  0  0  0  0  0  0  0  0
   58.0120   33.0250   47.6480 C   0  0  0  0  0  0  0  0  0  0  0  0
   59.0310   31.9820   47.4960 N   0  0  0  0  0  0  0  0  0  0  0  0
   59.3820   31.0110   48.5090 C   0  0  0  0  0  0  0  0  0  0  0  0
   59.0070   31.1960   49.8580 C   0  0  0  0  0  0  0  0  0  0  0  0
   59.3600   30.2610   50.8330 C   0  0  0  0  0  0  0  0  0  0  0  0
   60.0730   29.1170   50.4830 C   0  0  0  0  0  0  0  0  0  0  0  0
   60.4280   28.8990   49.1530 C   0  0  0  0  0  0  0  0  0  0  0  0
   60.0930   29.8330   48.1620 C   0  0  0  0  0  0  0  0  0  0  0  0
   60.5210   29.4300   46.4600 S   0  0  0  0  0  0  0  0  0  0  0  0
   59.0220   28.4890   46.1650 C   0  0  0  0  0  0  0  0  0  0  0  0
   59.0070   27.1100   46.3990 C   0  0  0  0  0  0  0  0  0  0  0  0
   57.8600   26.3670   46.1170 C   0  0  0  0  0  0  0  0  0  0  0  0
   56.7180   26.9990   45.6190 C   0  0  0  0  0  0  0  0  0  0  0  0
   56.7180   28.3790   45.3810 C   0  0  0  0  0  0  0  0  0  0  0  0
   55.5490   28.9700   44.8780 O   0  0  0  0  0  0  0  0  0  0  0  0
   55.4890   29.7430   43.6840 C   0  0  0  0  0  0  0  0  0  0  0  0
   57.8850   29.1230   45.6480 C   0  0  0  0  0  0  0  0  0  0  0  0
   59.3383   34.6358   46.6214 H   0  0  0  0  0  0  0  0  0  0  0  0
   60.6900   35.0481   45.5125 H   0  0  0  0  0  0  0  0  0  0  0  0
   59.1933   36.0415   45.5125 H   0  0  0  0  0  0  0  0  0  0  0  0
   58.2973   34.7042   43.9378 H   0  0  0  0  0  0  0  0  0  0  0  0
   59.8132   33.7145   43.9401 H   0  0  0  0  0  0  0  0  0  0  0  0
   57.3261   31.2082   44.4550 H   0  0  0  0  0  0  0  0  0  0  0  0
   56.4546   32.7350   44.0738 H   0  0  0  0  0  0  0  0  0  0  0  0
   59.2180   32.4025   42.9344 H   0  0  0  0  0  0  0  0  0  0  0  0
   57.9089   31.3948   42.2291 H   0  0  0  0  0  0  0  0  0  0  0  0
   57.7632   33.1852   42.2291 H   0  0  0  0  0  0  0  0  0  0  0  0
   57.3850   34.5555   46.2596 H   0  0  0  0  0  0  0  0  0  0  0  0
   56.4316   33.0129   46.1921 H   0  0  0  0  0  0  0  0  0  0  0  0
   58.4672   33.8995   48.1359 H   0  0  0  0  0  0  0  0  0  0  0  0
   57.1916   32.6163   48.2562 H   0  0  0  0  0  0  0  0  0  0  0  0
   59.4490   31.8990   46.5440 H   0  0  0  0  0  0  0  0  0  0  0  0
   58.4298   32.0876   50.1440 H   0  0  0  0  0  0  0  0  0  0  0  0
   59.0738   30.4286   51.8818 H   0  0  0  0  0  0  0  0  0  0  0  0
   60.3556   28.3864   51.2553 H   0  0  0  0  0  0  0  0  0  0  0  0
   60.9761   27.9858   48.8780 H   0  0  0  0  0  0  0  0  0  0  0  0
   59.8993   26.6113   46.8053 H   0  0  0  0  0  0  0  0  0  0  0  0
   57.8550   25.2803   46.2874 H   0  0  0  0  0  0  0  0  0  0  0  0
   55.8130   26.4089   45.4125 H   0  0  0  0  0  0  0  0  0  0  0  0
   55.4062   30.8093   43.9413 H   0  0  0  0  0  0  0  0  0  0  0  0
   56.4027   29.5780   43.0941 H   0  0  0  0  0  0  0  0  0  0  0  0
   54.6117   29.4390   43.0941 H   0  0  0  0  0  0  0  0  0  0  0  0
   57.9029   30.2048   45.4498 H   0  0  0  0  0  0  0  0  0  0  0  0
  1  2  1  0
  2  3  1  0
  3  4  1  0
  4  5  1  0
  3  6  1  0
  6  7  1  0
  7  8  1  0
  8  9  1  0
  9 10  2  0
 10 11  1  0
 11 12  2  0
 12 13  1  0
 13 14  2  0
 14 15  1  0
 15 16  1  0
 16 17  2  0
 17 18  1  0
 18 19  2  0
 19 20  1  0
 20 21  1  0
 21 22  1  0
 20 23  2  0
 14  9  1  0
 23 16  1  0
  1 24  1  0
  1 25  1  0
  1 26  1  0
  2 27  1  0
  2 28  1  0
  4 29  1  0
  4 30  1  0
  5 31  1  0
  5 32  1  0
  5 33  1  0
  6 34  1  0
  6 35  1  0
  7 36  1  0
  7 37  1  0
  8 38  1  0
 10 39  1  0
 11 40  1  0
 12 41  1  0
 13 42  1  0
 17 43  1  0
 18 44  1  0
 19 45  1  0
 22 46  1  0
 22 47  1  0
 22 48  1  0
 23 49  1  0
M  END
>  <UniqueID>  (11) 
9

>  <SMILES>  (11) 
CCN(CC)CCNc1ccccc1Sc1cccc(OC)c1

>  <Energy>  (11) 
41.250125592582606

>  <Genealogy>  (11) 
CCN(CC)CCNc1ccccc1Sc1cccc(OC)c1 (3D coordinates assigned)
CCN(CC)CCNc1ccccc1Sc1cccc(OC)c1 (optimized conformer: 41.250125592582606 kcal/mol)

>  <smiles>  (11) 
CCN(CC)CCNc1ccccc1Sc1cccc(OC)c1

>  <score_type>  (11) 
oracle

>  <origin>  (11) 
adg

>  <m_score__min__energy>  (11) 
-6.5800000000000001

>  <m_primary>  (11) 
energy

$$$$
11:0
     RDKit          3D

 47 49  0  0  0  0  0  0  0  0999 V2000
   59.6560   35.2700   45.9810 C   0  0  0  0  0  0  0  0  0  0  0  0
   59.7840   33.9280   46.6450 C   0  0  0  0  0  0  0  0  0  0  0  0
   58.6700   33.2660   47.0140 C   0  0  0  0  0  0  0  0  0  0  0  0
   58.7300   31.9380   47.7260 C   0  0  0  0  0  0  0  0  0  0  0  0
   59.9610   31.1860   47.4180 N   0  0  0  0  0  0  0  0  0  0  0  0
   59.9170   30.5790   46.0690 C   0  0  0  0  0  0  0  0  0  0  0  0
   58.8550   29.5080   45.9900 C   0  0  0  0  0  0  0  0  0  0  0  0
   59.1610   28.2880   46.5230 N   0  0  0  0  0  0  0  0  0  0  0  0
   58.2550   27.2860   46.4990 C   0  0  0  0  0  0  0  0  0  0  0  0
   58.4570   26.0020   47.0080 C   0  0  0  0  0  0  0  0  0  0  0  0
   57.3440   25.1820   46.8330 C   0  0  0  0  0  0  0  0  0  0  0  0
   56.1260   26.0620   46.0500 S   0  0  0  0  0  0  0  0  0  0  0  0
   57.0190   27.4810   45.9390 C   0  0  0  0  0  0  0  0  0  0  0  0
   56.6820   28.7100   45.3930 C   0  0  0  0  0  0  0  0  0  0  0  0
   55.5450   28.8680   44.8660 O   0  0  0  0  0  0  0  0  0  0  0  0
   57.6020   29.7350   45.4340 N   0  0  0  0  0  0  0  0  0  0  0  0
   57.2520   31.0380   44.8270 C   0  0  0  0  0  0  0  0  0  0  0  0
   57.2660   30.9310   43.2880 C   0  0  0  0  0  0  0  0  0  0  0  0
   58.1460   31.9130   42.6170 N   0  0  0  0  0  0  0  0  0  0  0  0
   57.6300   32.3470   41.3090 C   0  0  0  0  0  0  0  0  0  0  0  0
   58.4760   33.0670   43.4700 C   0  0  0  0  0  0  0  0  0  0  0  0
   61.1520   32.0320   47.6500 C   0  0  0  0  0  0  0  0  0  0  0  0
   61.1550   33.3030   46.7830 C   0  0  0  0  0  0  0  0  0  0  0  0
   59.5813   36.0536   46.7493 H   0  0  0  0  0  0  0  0  0  0  0  0
   60.5406   35.4546   45.3538 H   0  0  0  0  0  0  0  0  0  0  0  0
   58.7524   35.2841   45.3538 H   0  0  0  0  0  0  0  0  0  0  0  0
   57.6878   33.7072   46.7893 H   0  0  0  0  0  0  0  0  0  0  0  0
   58.6883   32.1172   48.8105 H   0  0  0  0  0  0  0  0  0  0  0  0
   57.8761   31.3359   47.3820 H   0  0  0  0  0  0  0  0  0  0  0  0
   59.6934   31.3621   45.3296 H   0  0  0  0  0  0  0  0  0  0  0  0
   60.8941   30.1187   45.8605 H   0  0  0  0  0  0  0  0  0  0  0  0
   59.3889   25.6747   47.4922 H   0  0  0  0  0  0  0  0  0  0  0  0
   57.2683   24.1320   47.1520 H   0  0  0  0  0  0  0  0  0  0  0  0
   56.2473   31.3361   45.1612 H   0  0  0  0  0  0  0  0  0  0  0  0
   57.9912   31.7897   45.1408 H   0  0  0  0  0  0  0  0  0  0  0  0
   57.6066   29.9210   43.0160 H   0  0  0  0  0  0  0  0  0  0  0  0
   56.2414   31.1428   42.9484 H   0  0  0  0  0  0  0  0  0  0  0  0
   56.7960   33.0485   41.4583 H   0  0  0  0  0  0  0  0  0  0  0  0
   58.4323   32.8458   40.7455 H   0  0  0  0  0  0  0  0  0  0  0  0
   57.2760   31.4711   40.7455 H   0  0  0  0  0  0  0  0  0  0  0  0
   58.3930   32.7767   44.5278 H   0  0  0  0  0  0  0  0  0  0  0  0
   59.5043   33.3962   43.2597 H   0  0  0  0  0  0  0  0  0  0  0  0
   57.7772   33.8901   43.2597 H   0  0  0  0  0  0  0  0  0  0  0  0
   61.1723   32.3284   48.7091 H   0  0  0  0  0  0  0  0  0  0  0  0
   62.0382   31.4407   47.3762 H   0  0  0  0  0  0  0  0  0  0  0  0
   61.8311   34.0391   47.2424 H   0  0  0  0  0  0  0  0  0  0  0  0
   61.4872   33.0130   45.7753 H   0  0  0  0  0  0  0  0  0  0  0  0
  1  2  1  0
  2  3  2  0
  3  4  1  0
  4  5  1  0
  5  6  1  0
  6  7  1  0
  7  8  2  0
  8  9  1  0
  9 10  1  0
 10 11  2  0
 11 12  1  0
 12 13  1  0
 13 14  1  0
 14 15  2  0
 14 16  1  0
 16 17  1  0
 17 18  1  0
 18 19  1  0
 19 20  1  0
 19 21  1  0
  5 22  1  0
 22 23  1  0
 23  2  1  0
 16  7  1  0
 13  9  2  0
  1 24  1  0
  1 25  1  0
  1 26  1  0
  3 27  1  0
  4 28  1  0
  4 29  1  0
  6 30  1  0
  6 31  1  0
 10 32  1  0
 11 33  1  0
 17 34  1  0
 17 35  1  0
 18 36  1  0
 18 37  1  0
 20 38  1  0
 20 39  1  0
 20 40  1  0
 21 41  1  0
 21 42  1  0
 21 43  1  0
 22 44  1  0
 22 45  1  0
 23 46  1  0
 23 47  1  0
M  END
>  <UniqueID>  (12) 
10

>  <SMILES>  (12) 
CC1=CCN(Cc2nc3ccsc3c(=O)n2CCN(C)C)CC1

>  <Energy>  (12) 
87.55033150583446

>  <Genealogy>  (12) 
CC1=CCN(Cc2nc3ccsc3c(=O)n2CCN(C)C)CC1 (3D coordinates assigned)
CC1=CCN(Cc2nc3ccsc3c(=O)n2CCN(C)C)CC1 (nonaromatic ring conformer: 87.55033150583446 kcal/mol)

>  <smiles>  (12) 
CC1=CCN(Cc2nc3ccsc3c(=O)n2CCN(C)C)CC1

>  <score_type>  (12) 
oracle

>  <origin>  (12) 
adg

>  <m_score__min__energy>  (12) 
-7.0899999999999999

>  <m_primary>  (12) 
energy

$$$$
12:0
     RDKit          3D

 26 28  0  0  0  0  0  0  0  0999 V2000
   55.7600   29.2610   44.5080 O   0  0  0  0  0  0  0  0  0  0  0  0
   56.8410   29.3420   45.1550 C   0  0  0  0  0  0  0  0  0  0  0  0
   57.3990   28.1920   45.7540 C   0  0  0  0  0  0  0  0  0  0  0  0
   56.7010   26.8860   45.6250 C   0  0  0  0  0  0  0  0  0  0  0  0
   57.3070   25.7720   45.1570 N   0  0  0  0  0  0  0  0  0  0  0  0
   56.3530   24.8270   45.2300 C   0  0  0  0  0  0  0  0  0  0  0  0
   55.2070   25.3800   45.7420 C   0  0  0  0  0  0  0  0  0  0  0  0
   55.4200   26.6820   45.9990 N   0  0  0  0  0  0  0  0  0  0  0  0
   58.6190   28.3360   46.4690 C   0  0  0  0  0  0  0  0  0  0  0  0
   59.2930   27.1940   47.1850 C   0  0  0  0  0  0  0  0  0  0  0  0
   58.3640   26.4370   47.8760 F   0  0  0  0  0  0  0  0  0  0  0  0
   60.2130   27.6840   48.0950 F   0  0  0  0  0  0  0  0  0  0  0  0
   59.9630   26.3990   46.2740 F   0  0  0  0  0  0  0  0  0  0  0  0
   59.2130   29.5260   46.5320 O   0  0  0  0  0  0  0  0  0  0  0  0
   58.7200   30.6230   45.9710 C   0  0  0  0  0  0  0  0  0  0  0  0
   59.4130   31.8320   46.0930 C   0  0  0  0  0  0  0  0  0  0  0  0
   58.9030   32.9950   45.5110 C   0  0  0  0  0  0  0  0  0  0  0  0
   57.6970   32.9560   44.8070 C   0  0  0  0  0  0  0  0  0  0  0  0
   56.9960   31.7530   44.6800 C   0  0  0  0  0  0  0  0  0  0  0  0
   57.5030   30.5750   45.2620 C   0  0  0  0  0  0  0  0  0  0  0  0
   56.4728   23.7764   44.9269 H   0  0  0  0  0  0  0  0  0  0  0  0
   54.2628   24.8428   45.9150 H   0  0  0  0  0  0  0  0  0  0  0  0
   60.3618   31.8670   46.6485 H   0  0  0  0  0  0  0  0  0  0  0  0
   59.4521   33.9433   45.6072 H   0  0  0  0  0  0  0  0  0  0  0  0
   57.2979   33.8742   44.3514 H   0  0  0  0  0  0  0  0  0  0  0  0
   56.0469   31.7266   44.1246 H   0  0  0  0  0  0  0  0  0  0  0  0
  1  2  2  0
  2  3  1  0
  3  4  1  0
  4  5  2  0
  5  6  1  0
  6  7  2  0
  7  8  1  0
  3  9  2  0
  9 10  1  0
 10 11  1  0
 10 12  1  0
 10 13  1  0
  9 14  1  0
 14 15  1  0
 15 16  2  0
 16 17  1  0
 17 18  2  0
 18 19  1  0
 19 20  2  0
 20  2  1  0
  8  4  1  0
 20 15  1  0
  6 21  1  0
  7 22  1  0
 16 23  1  0
 17 24  1  0
 18 25  1  0
 19 26  1  0
M  CHG  1   8  -1
M  END
>  <UniqueID>  (13) 
11

>  <SMILES>  (13) 
O=c1c(-c2ncc[n-]2)c(C(F)(F)F)oc2ccccc12

>  <Energy>  (13) 
68.24215479847165

>  <Genealogy>  (13) 
O=c1c(-c2ncc[n-]2)c(C(F)(F)F)oc2ccccc12 (protonated)
O=c1c(-c2ncc[n-]2)c(C(F)(F)F)oc2ccccc12 (3D coordinates assigned)
O=c1c(-c2ncc[n-]2)c(C(F)(F)F)oc2ccccc12 (optimized conformer: 68.24215479847165 kcal/mol)

>  <smiles>  (13) 
O=c1c(-c2ncc[nH]2)c(C(F)(F)F)oc2ccccc12

>  <score_type>  (13) 
oracle

>  <origin>  (13) 
adg

>  <m_score__min__energy>  (13) 
-7.4400000000000004

>  <m_primary>  (13) 
energy

$$$$
13:0
     RDKit          3D

 33 35  0  0  0  0  0  0  0  0999 V2000
   56.7423   33.8793   43.9169 H   0  0  0  0  0  0  0  0  0  0  0  0
   57.5430   33.5890   44.6130 C   0  0  0  0  0  0  0  0  0  0  0  0
   58.1460   34.5730   45.2960 C   0  0  0  0  0  0  0  0  0  0  0  0
   57.4963   35.3081   45.7935 H   0  0  0  0  0  0  0  0  0  0  0  0
   59.6320   34.7620   45.4430 C   0  0  0  0  0  0  0  0  0  0  0  0
   60.1528   34.1370   44.7026 H   0  0  0  0  0  0  0  0  0  0  0  0
   59.8770   35.8217   45.2787 H   0  0  0  0  0  0  0  0  0  0  0  0
   60.0600   34.3760   46.7880 N   0  0  0  0  0  0  0  0  0  0  0  0
   59.2910   34.3760   47.9050 C   0  0  0  0  0  0  0  0  0  0  0  0
   58.2256   34.6485   47.9315 H   0  0  0  0  0  0  0  0  0  0  0  0
   60.0350   33.9840   49.0120 C   0  0  0  0  0  0  0  0  0  0  0  0
   59.6852   33.8875   50.0504 H   0  0  0  0  0  0  0  0  0  0  0  0
   61.3040   33.7420   48.5320 C   0  0  0  0  0  0  0  0  0  0  0  0
   62.4570   33.3260   49.1950 C   0  0  0  0  0  0  0  0  0  0  0  0
   62.4510   33.1330   50.2779 H   0  0  0  0  0  0  0  0  0  0  0  0
   63.6280   33.1610   48.4350 C   0  0  0  0  0  0  0  0  0  0  0  0
   64.5567   32.8349   48.9261 H   0  0  0  0  0  0  0  0  0  0  0  0
   63.6200   33.4110   47.0460 C   0  0  0  0  0  0  0  0  0  0  0  0
   64.5425   33.2772   46.4619 H   0  0  0  0  0  0  0  0  0  0  0  0
   62.4410   33.8300   46.4030 C   0  0  0  0  0  0  0  0  0  0  0  0
   62.4245   34.0272   45.3209 H   0  0  0  0  0  0  0  0  0  0  0  0
   61.2910   33.9880   47.1820 C   0  0  0  0  0  0  0  0  0  0  0  0
   57.8590   32.1510   44.7130 C   0  0  0  0  0  0  0  0  0  0  0  0
   58.1580   31.2980   46.1340 S   0  0  0  0  0  0  0  0  0  0  0  0
   58.2020   29.7670   45.4440 C   0  0  0  0  0  0  0  0  0  0  0  0
   58.3968   28.8243   45.9764 H   0  0  0  0  0  0  0  0  0  0  0  0
   57.9500   29.8980   44.0860 C   0  0  0  0  0  0  0  0  0  0  0  0
   57.9113   29.0419   43.3963 H   0  0  0  0  0  0  0  0  0  0  0  0
   57.7490   31.2250   43.6740 C   0  0  0  0  0  0  0  0  0  0  0  0
   57.3960   31.5920   42.2650 C   0  0  0  0  0  0  0  0  0  0  0  0
   56.6335   32.3848   42.2727 H   0  0  0  0  0  0  0  0  0  0  0  0
   58.2950   31.9530   41.7439 H   0  0  0  0  0  0  0  0  0  0  0  0
   57.0004   30.7077   41.7439 H   0  0  0  0  0  0  0  0  0  0  0  0
  1  2  1  0
  2  3  2  0
  3  4  1  0
  3  5  1  0
  5  6  1  0
  5  7  1  0
  5  8  1  0
  8  9  1  0
  9 10  1  0
  9 11  2  0
 11 12  1  0
 11 13  1  0
 13 14  2  0
 14 15  1  0
 14 16  1  0
 16 17  1  0
 16 18  2  0
 18 19  1  0
 18 20  1  0
 20 21  1  0
 20 22  2  0
  2 23  1  0
 23 24  1  0
 24 25  1  0
 25 26  1  0
 25 27  2  0
 27 28  1  0
 27 29  1  0
 29 30  1  0
 30 31  1  0
 30 32  1  0
 30 33  1  0
 22  8  1  0
 29 23  2  0
 22 13  1  0
M  END
>  <UniqueID>  (14) 
12

>  <SMILES>  (14) 
Cc1ccsc1/C=C\Cn1ccc2ccccc21

>  <Energy>  (14) 
97.99102011737664

>  <Genealogy>  (14) 
Cc1ccsc1/C=C\Cn1ccc2ccccc21 (cis-trans isomerization)
Cc1ccsc1/C=C\Cn1ccc2ccccc21 (3D coordinates assigned)
Cc1ccsc1/C=C\Cn1ccc2ccccc21 (optimized conformer: 97.99102011737664 kcal/mol)

>  <smiles>  (14) 
Cc1ccsc1C=CCn1ccc2ccccc21

>  <score_type>  (14) 
oracle

>  <origin>  (14) 
adg

>  <m_score__min__energy>  (14) 
-7.4100000000000001

>  <m_primary>  (14) 
energy

$$$$
14:0
     RDKit          3D

 42 44  0  0  0  0  0  0  0  0999 V2000
   65.7620   31.7570   51.2680 C   0  0  0  0  0  0  0  0  0  0  0  0
   64.7030   32.0690   50.2530 C   0  0  0  0  0  0  0  0  0  0  0  0
   64.9060   33.0870   49.3090 C   0  0  0  0  0  0  0  0  0  0  0  0
   63.9340   33.3540   48.3400 C   0  0  0  0  0  0  0  0  0  0  0  0
   62.7550   32.5950   48.2960 C   0  0  0  0  0  0  0  0  0  0  0  0
   61.5140   32.9330   47.0920 S   0  0  0  0  0  0  0  0  0  0  0  0
   61.0910   31.6330   46.4640 O   0  0  0  0  0  0  0  0  0  0  0  0
   62.0800   33.8210   46.0190 O   0  0  0  0  0  0  0  0  0  0  0  0
   60.1470   33.7060   47.8710 N   0  0  0  0  0  0  0  0  0  0  0  0
   59.6370   34.8490   47.0610 C   0  0  0  0  0  0  0  0  0  0  0  0
   58.2650   34.5900   46.4120 C   0  0  0  0  0  0  0  0  0  0  0  0
   58.1620   33.1920   45.9920 N   0  0  0  0  0  0  0  0  0  0  0  0
   58.1190   32.8560   44.5910 C   0  0  0  0  0  0  0  0  0  0  0  0
   58.7200   33.5860   43.7570 O   0  0  0  0  0  0  0  0  0  0  0  0
   57.4050   31.6670   44.0960 C   0  0  0  0  0  0  0  0  0  0  0  0
   57.3570   31.2130   42.7900 C   0  0  0  0  0  0  0  0  0  0  0  0
   56.5960   30.0640   42.8240 C   0  0  0  0  0  0  0  0  0  0  0  0
   56.2340   29.8830   44.1430 C   0  0  0  0  0  0  0  0  0  0  0  0
   56.7330   30.8510   44.8750 O   0  0  0  0  0  0  0  0  0  0  0  0
   58.3860   32.1480   47.0010 C   0  0  0  0  0  0  0  0  0  0  0  0
   59.1050   32.7200   48.2350 C   0  0  0  0  0  0  0  0  0  0  0  0
   62.5570   31.5710   49.2300 C   0  0  0  0  0  0  0  0  0  0  0  0
   63.5280   31.3020   50.1990 C   0  0  0  0  0  0  0  0  0  0  0  0
   65.3476   31.8791   52.2796 H   0  0  0  0  0  0  0  0  0  0  0  0
   66.1038   30.7200   51.1344 H   0  0  0  0  0  0  0  0  0  0  0  0
   66.6114   32.4431   51.1344 H   0  0  0  0  0  0  0  0  0  0  0  0
   65.8338   33.6776   49.3313 H   0  0  0  0  0  0  0  0  0  0  0  0
   64.0942   34.1613   47.6102 H   0  0  0  0  0  0  0  0  0  0  0  0
   60.5190   34.0960   48.7690 H   0  0  0  0  0  0  0  0  0  0  0  0
   59.5494   35.7271   47.7177 H   0  0  0  0  0  0  0  0  0  0  0  0
   60.3539   35.0048   46.2414 H   0  0  0  0  0  0  0  0  0  0  0  0
   57.4708   34.8103   47.1405 H   0  0  0  0  0  0  0  0  0  0  0  0
   58.1559   35.2392   45.5307 H   0  0  0  0  0  0  0  0  0  0  0  0
   57.8278   31.6728   41.9086 H   0  0  0  0  0  0  0  0  0  0  0  0
   56.3309   29.4212   41.9716 H   0  0  0  0  0  0  0  0  0  0  0  0
   55.6202   29.0531   44.5233 H   0  0  0  0  0  0  0  0  0  0  0  0
   57.4156   31.7325   47.3104 H   0  0  0  0  0  0  0  0  0  0  0  0
   59.0178   31.3632   46.5594 H   0  0  0  0  0  0  0  0  0  0  0  0
   58.3626   33.2119   48.8806 H   0  0  0  0  0  0  0  0  0  0  0  0
   59.5984   31.8851   48.7541 H   0  0  0  0  0  0  0  0  0  0  0  0
   61.6328   30.9752   49.2012 H   0  0  0  0  0  0  0  0  0  0  0  0
   63.3712   30.4872   50.9212 H   0  0  0  0  0  0  0  0  0  0  0  0
  1  2  1  0
  2  3  2  0
  3  4  1  0
  4  5  2  0
  5  6  1  0
  6  7  2  0
  6  8  2  0
  6  9  1  0
  9 10  1  0
 10 11  1  0
 11 12  1  0
 12 13  1  0
 13 14  2  0
 13 15  1  0
 15 16  2  0
 16 17  1  0
 17 18  2  0
 18 19  1  0
 12 20  1  0
 20 21  1  0
  5 22  1  0
 22 23  2  0
 23  2  1  0
 21  9  1  0
 19 15  1  0
  1 24  1  0
  1 25  1  0
  1 26  1  0
  3 27  1  0
  4 28  1  0
  9 29  1  0
 10 30  1  0
 10 31  1  0
 11 32  1  0
 11 33  1  0
 16 34  1  0
 17 35  1  0
 18 36  1  0
 20 37  1  0
 20 38  1  0
 21 39  1  0
 21 40  1  0
 22 41  1  0
 23 42  1  0
M  CHG  1   9   1
M  END
>  <UniqueID>  (15) 
13

>  <SMILES>  (15) 
Cc1ccc(S(=O)(=O)[NH+]2CCN(C(=O)c3ccco3)CC2)cc1

>  <Energy>  (15) 
78.46697308785625

>  <Genealogy>  (15) 
Cc1ccc(S(=O)(=O)[NH+]2CCN(C(=O)c3ccco3)CC2)cc1 (protonated)
Cc1ccc(S(=O)(=O)[NH+]2CCN(C(=O)c3ccco3)CC2)cc1 (3D coordinates assigned)
Cc1ccc(S(=O)(=O)[NH+]2CCN(C(=O)c3ccco3)CC2)cc1 (nonaromatic ring conformer: 78.46697308785625 kcal/mol)

>  <smiles>  (15) 
Cc1ccc(S(=O)(=O)N2CCN(C(=O)c3ccco3)CC2)cc1

>  <score_type>  (15) 
oracle

>  <origin>  (15) 
adg

>  <m_score__min__energy>  (15) 
-6.7400000000000002

>  <m_primary>  (15) 
energy

$$$$
15:0
     RDKit          3D

 32 33  0  0  0  0  0  0  0  0999 V2000
   57.9160   32.3480   41.5450 C   0  0  0  0  0  0  0  0  0  0  0  0
   57.0180   31.2390   42.0850 C   0  0  0  0  0  0  0  0  0  0  0  0
   57.5750   30.6800   43.3140 N   0  0  0  0  0  0  0  0  0  0  0  0
   56.7880   30.4570   44.4900 C   0  0  0  0  0  0  0  0  0  0  0  0
   55.5680   30.7770   44.5090 O   0  0  0  0  0  0  0  0  0  0  0  0
   57.3910   29.8890   45.6170 O   0  0  0  0  0  0  0  0  0  0  0  0
   58.3110   30.5880   46.4510 C   0  0  0  0  0  0  0  0  0  0  0  0
   58.1970   32.0670   46.2390 C   0  0  0  0  0  0  0  0  0  0  0  0
   57.0870   32.6630   45.8810 O   0  0  0  0  0  0  0  0  0  0  0  0
   57.3530   33.9430   45.7580 C   0  0  0  0  0  0  0  0  0  0  0  0
   58.6420   34.2330   46.0330 N   0  0  0  0  0  0  0  0  0  0  0  0
   59.1790   33.0400   46.3540 C   0  0  0  0  0  0  0  0  0  0  0  0
   60.6050   32.8690   46.7130 C   0  0  0  0  0  0  0  0  0  0  0  0
   61.5200   33.8950   46.4200 C   0  0  0  0  0  0  0  0  0  0  0  0
   62.8680   33.7600   46.7630 C   0  0  0  0  0  0  0  0  0  0  0  0
   63.3130   32.6070   47.4140 C   0  0  0  0  0  0  0  0  0  0  0  0
   62.4080   31.5920   47.7310 C   0  0  0  0  0  0  0  0  0  0  0  0
   61.0580   31.7220   47.3880 C   0  0  0  0  0  0  0  0  0  0  0  0
   58.3628   32.8998   42.3852 H   0  0  0  0  0  0  0  0  0  0  0  0
   58.7143   31.9067   40.9302 H   0  0  0  0  0  0  0  0  0  0  0  0
   57.3183   33.0371   40.9302 H   0  0  0  0  0  0  0  0  0  0  0  0
   56.0203   31.6517   42.2952 H   0  0  0  0  0  0  0  0  0  0  0  0
   56.9482   30.4405   41.3317 H   0  0  0  0  0  0  0  0  0  0  0  0
   58.5980   30.4760   43.3550 H   0  0  0  0  0  0  0  0  0  0  0  0
   58.0927   30.3559   47.5038 H   0  0  0  0  0  0  0  0  0  0  0  0
   59.3328   30.2710   46.1952 H   0  0  0  0  0  0  0  0  0  0  0  0
   56.6073   34.6960   45.4633 H   0  0  0  0  0  0  0  0  0  0  0  0
   61.1728   34.8099   45.9176 H   0  0  0  0  0  0  0  0  0  0  0  0
   63.5796   34.5628   46.5200 H   0  0  0  0  0  0  0  0  0  0  0  0
   64.3757   32.4987   47.6767 H   0  0  0  0  0  0  0  0  0  0  0  0
   62.7574   30.6882   48.2516 H   0  0  0  0  0  0  0  0  0  0  0  0
   60.3477   30.9232   47.6476 H   0  0  0  0  0  0  0  0  0  0  0  0
  1  2  1  0
  2  3  1  0
  3  4  1  0
  4  5  2  0
  4  6  1  0
  6  7  1  0
  7  8  1  0
  8  9  1  0
  9 10  1  0
 10 11  2  0
 11 12  1  0
 12 13  1  0
 13 14  2  0
 14 15  1  0
 15 16  2  0
 16 17  1  0
 17 18  2  0
 12  8  2  0
 18 13  1  0
  1 19  1  0
  1 20  1  0
  1 21  1  0
  2 22  1  0
  2 23  1  0
  3 24  1  0
  7 25  1  0
  7 26  1  0
 10 27  1  0
 14 28  1  0
 15 29  1  0
 16 30  1  0
 17 31  1  0
 18 32  1  0
M  END
>  <UniqueID>  (16) 
14

>  <SMILES>  (16) 
CCNC(=O)OCc1ocnc1-c1ccccc1

>  <Energy>  (16) 
58.785993132894205

>  <Genealogy>  (16) 
CCNC(=O)OCc1ocnc1-c1ccccc1 (3D coordinates assigned)
CCNC(=O)OCc1ocnc1-c1ccccc1 (optimized conformer: 58.785993132894205 kcal/mol)

>  <smiles>  (16) 
CCNC(=O)OCc1ocnc1-c1ccccc1

>  <score_type>  (16) 
oracle

>  <origin>  (16) 
adg

>  <m_score__min__energy>  (16) 
-6.25

>  <m_primary>  (16) 
energy

$$$$
16:0
     RDKit          3D

 48 49  0  0  0  0  0  0  0  0999 V2000
   56.2790   29.7520   42.8050 C   0  0  0  0  0  0  0  0  0  0  0  0
   56.2380   29.5050   44.3070 C   0  0  0  0  0  0  0  0  0  0  0  0
   56.9540   30.5940   45.0110 N   0  0  0  0  0  0  0  0  0  0  0  0
   58.2420   30.1410   45.5930 C   0  0  0  0  0  0  0  0  0  0  0  0
   58.9480   29.0390   44.7880 C   0  0  0  0  0  0  0  0  0  0  0  0
   57.0350   31.8300   44.2000 C   0  0  0  0  0  0  0  0  0  0  0  0
   57.8540   32.9270   44.8990 C   0  0  0  0  0  0  0  0  0  0  0  0
   57.3830   33.1820   46.3450 C   0  0  0  0  0  0  0  0  0  0  0  0
   58.3320   34.0840   47.1500 C   0  0  0  0  0  0  0  0  0  0  0  0
   59.2150   33.3020   48.0310 N   0  0  0  0  0  0  0  0  0  0  0  0
   58.8040   32.9530   49.3620 C   0  0  0  0  0  0  0  0  0  0  0  0
   57.7240   32.3320   49.5590 O   0  0  0  0  0  0  0  0  0  0  0  0
   59.6270   33.3730   50.5330 C   0  0  0  0  0  0  0  0  0  0  0  0
   60.8690   32.5020   50.6190 C   0  0  0  0  0  0  0  0  0  0  0  0
   61.9450   32.7710   49.5800 C   0  0  0  0  0  0  0  0  0  0  0  0
   63.2400   32.9810   50.0930 C   0  0  0  0  0  0  0  0  0  0  0  0
   64.3190   33.2410   49.2500 C   0  0  0  0  0  0  0  0  0  0  0  0
   65.5560   33.4330   49.7710 F   0  0  0  0  0  0  0  0  0  0  0  0
   64.1270   33.3010   47.8760 C   0  0  0  0  0  0  0  0  0  0  0  0
   62.8550   33.1180   47.3390 C   0  0  0  0  0  0  0  0  0  0  0  0
   61.7390   32.8690   48.1670 C   0  0  0  0  0  0  0  0  0  0  0  0
   60.4210   32.7430   47.4840 C   0  0  0  0  0  0  0  0  0  0  0  0
   60.3750   32.2070   46.3420 O   0  0  0  0  0  0  0  0  0  0  0  0
   56.4564   30.8206   42.6139 H   0  0  0  0  0  0  0  0  0  0  0  0
   57.0911   29.1598   42.3581 H   0  0  0  0  0  0  0  0  0  0  0  0
   55.3191   29.4540   42.3581 H   0  0  0  0  0  0  0  0  0  0  0  0
   55.1915   29.4772   44.6447 H   0  0  0  0  0  0  0  0  0  0  0  0
   56.7240   28.5441   44.5319 H   0  0  0  0  0  0  0  0  0  0  0  0
   58.9160   31.0081   45.6543 H   0  0  0  0  0  0  0  0  0  0  0  0
   58.0080   29.7103   46.5777 H   0  0  0  0  0  0  0  0  0  0  0  0
   59.4096   28.3185   45.4793 H   0  0  0  0  0  0  0  0  0  0  0  0
   58.2137   28.5203   44.1542 H   0  0  0  0  0  0  0  0  0  0  0  0
   59.7262   29.4893   44.1542 H   0  0  0  0  0  0  0  0  0  0  0  0
   57.5101   31.5919   43.2369 H   0  0  0  0  0  0  0  0  0  0  0  0
   56.0124   32.2094   44.0573 H   0  0  0  0  0  0  0  0  0  0  0  0
   58.9100   32.6197   44.9206 H   0  0  0  0  0  0  0  0  0  0  0  0
   57.7168   33.8599   44.3325 H   0  0  0  0  0  0  0  0  0  0  0  0
   56.3938   33.6618   46.3093 H   0  0  0  0  0  0  0  0  0  0  0  0
   57.3561   32.2066   46.8528 H   0  0  0  0  0  0  0  0  0  0  0  0
   58.9510   34.6640   46.4497 H   0  0  0  0  0  0  0  0  0  0  0  0
   57.7206   34.7466   47.7803 H   0  0  0  0  0  0  0  0  0  0  0  0
   59.9248   34.4251   50.4132 H   0  0  0  0  0  0  0  0  0  0  0  0
   59.0367   33.2611   51.4545 H   0  0  0  0  0  0  0  0  0  0  0  0
   61.3162   32.6509   51.6129 H   0  0  0  0  0  0  0  0  0  0  0  0
   60.5243   31.4747   50.4296 H   0  0  0  0  0  0  0  0  0  0  0  0
   63.4028   32.9390   51.1801 H   0  0  0  0  0  0  0  0  0  0  0  0
   64.9813   33.4935   47.2103 H   0  0  0  0  0  0  0  0  0  0  0  0
   62.7173   33.1685   46.2488 H   0  0  0  0  0  0  0  0  0  0  0  0
  1  2  1  0
  2  3  1  0
  3  4  1  0
  4  5  1  0
  3  6  1  0
  6  7  1  0
  7  8  1  0
  8  9  1  0
  9 10  1  0
 10 11  1  0
 11 12  2  0
 11 13  1  0
 13 14  1  0
 14 15  1  0
 15 16  2  0
 16 17  1  0
 17 18  1  0
 17 19  2  0
 19 20  1  0
 20 21  2  0
 21 22  1  0
 22 23  2  0
 22 10  1  0
 21 15  1  0
  1 24  1  0
  1 25  1  0
  1 26  1  0
  2 27  1  0
  2 28  1  0
  4 29  1  0
  4 30  1  0
  5 31  1  0
  5 32  1  0
  5 33  1  0
  6 34  1  0
  6 35  1  0
  7 36  1  0
  7 37  1  0
  8 38  1  0
  8 39  1  0
  9 40  1  0
  9 41  1  0
 13 42  1  0
 13 43  1  0
 14 44  1  0
 14 45  1  0
 16 46  1  0
 19 47  1  0
 20 48  1  0
M  END
>  <UniqueID>  (17) 
15

>  <SMILES>  (17) 
CCN(CC)CCCCN1C(=O)CCc2cc(F)ccc2C1=O

>  <Energy>  (17) 
58.33423897767702

>  <Genealogy>  (17) 
CCN(CC)CCCCN1C(=O)CCc2cc(F)ccc2C1=O (3D coordinates assigned)
CCN(CC)CCCCN1C(=O)CCc2cc(F)ccc2C1=O (nonaromatic ring conformer: 58.33423897767702 kcal/mol)

>  <smiles>  (17) 
CCN(CC)CCCCN1C(=O)CCc2cc(F)ccc2C1=O

>  <score_type>  (17) 
oracle

>  <origin>  (17) 
adg

>  <m_score__min__energy>  (17) 
-4.8499999999999996

>  <m_primary>  (17) 
energy

$$$$
17:0
     RDKit          3D

 38 40  0  0  1  0  0  0  0  0999 V2000
   58.0870   26.7380   42.6700 C   0  0  0  0  0  0  0  0  0  0  0  0
   57.7710   27.0440   44.4050 S   0  0  0  0  0  0  0  0  0  0  0  0
   58.1140   28.7260   44.8890 C   0  0  0  0  0  0  0  0  0  0  0  0
   59.3870   29.0230   45.3100 C   0  0  0  0  0  0  0  0  0  0  0  0
   59.6450   30.3270   45.6830 C   0  0  0  0  0  0  0  0  0  0  0  0
   58.6900   31.3190   45.6470 C   0  0  0  0  0  0  0  0  0  0  0  0
   58.9450   32.7000   46.0360 C   0  0  0  0  0  0  0  0  0  0  0  0
   58.9670   33.7500   45.1430 C   0  0  0  0  0  0  0  0  0  0  0  0
   59.2140   35.0500   45.5480 C   0  0  0  0  0  0  0  0  0  0  0  0
   59.4430   35.3370   46.8350 N   0  0  0  0  0  0  0  0  0  0  0  0
   59.4200   34.3100   47.7050 C   0  0  0  0  0  0  0  0  0  0  0  0
   59.6410   34.5920   48.9440 N   0  0  0  0  0  0  0  0  0  0  0  0
   60.2550   33.5880   49.7920 C   0  0  0  0  0  0  0  0  0  0  0  0
   61.7300   33.9990   49.8810 C   0  0  0  0  0  0  0  0  0  0  0  0
   62.4020   33.5510   48.6770 N   0  0  0  0  0  0  0  0  0  0  0  0
   62.6790   32.2370   48.4670 C   0  0  0  0  0  0  0  0  0  0  0  0
   63.3180   32.0840   47.2530 C   0  0  0  0  0  0  0  0  0  0  0  0
   63.4150   33.3730   46.7310 C   0  0  0  0  0  0  0  0  0  0  0  0
   62.8430   34.2120   47.6410 N   0  0  0  0  0  0  0  0  0  0  0  0
   59.1830   33.0370   47.3380 N   0  0  0  0  0  0  0  0  0  0  0  0
   57.4530   30.9970   45.2290 N   0  0  0  0  0  0  0  0  0  0  0  0
   57.1560   29.7240   44.8520 C   0  0  0  0  0  0  0  0  0  0  0  0
   58.8739   25.9760   42.5695 H   0  0  0  0  0  0  0  0  0  0  0  0
   57.1659   26.3798   42.1871 H   0  0  0  0  0  0  0  0  0  0  0  0
   58.4154   27.6702   42.1871 H   0  0  0  0  0  0  0  0  0  0  0  0
   60.1706   28.2520   45.3485 H   0  0  0  0  0  0  0  0  0  0  0  0
   60.6584   30.5853   46.0241 H   0  0  0  0  0  0  0  0  0  0  0  0
   58.7828   33.5486   44.0774 H   0  0  0  0  0  0  0  0  0  0  0  0
   59.2222   35.8584   44.8021 H   0  0  0  0  0  0  0  0  0  0  0  0
   59.6260   36.3220   47.1190 H   0  0  0  0  0  0  0  0  0  0  0  0
   59.7919   33.5878   50.7898 H   0  0  0  0  0  0  0  0  0  0  0  0
   60.1307   32.5720   49.3892 H   0  0  0  0  0  0  0  0  0  0  0  0
   61.8066   35.0932   49.9643 H   0  0  0  0  0  0  0  0  0  0  0  0
   62.1970   33.5437   50.7668 H   0  0  0  0  0  0  0  0  0  0  0  0
   62.4314   31.4192   49.1597 H   0  0  0  0  0  0  0  0  0  0  0  0
   63.6734   31.1483   46.7967 H   0  0  0  0  0  0  0  0  0  0  0  0
   63.8664   33.6585   45.7694 H   0  0  0  0  0  0  0  0  0  0  0  0
   56.1377   29.4841   44.5122 H   0  0  0  0  0  0  0  0  0  0  0  0
  1  2  1  0
  2  3  1  0
  3  4  2  0
  4  5  1  0
  5  6  2  0
  6  7  1  0
  7  8  1  0
  8  9  2  0
  9 10  1  0
 10 11  1  0
 11 12  2  0
 12 13  1  0
 13 14  1  0
 14 15  1  0
 15 16  1  0
 16 17  2  0
 17 18  1  0
 18 19  2  0
 11 20  1  0
  6 21  1  0
 21 22  2  0
 22  3  1  0
 20  7  2  0
 19 15  1  0
  1 23  1  0
  1 24  1  0
  1 25  1  0
  4 26  1  0
  5 27  1  0
  8 28  1  0
  9 29  1  0
 10 30  1  0
 13 31  1  0
 13 32  1  0
 14 33  1  0
 14 34  1  0
 16 35  1  0
 17 36  1  0
 18 37  1  0
 22 38  1  0
M  END
>  <smiles>  (18) 
CSc1ccc(-c2cc[nH]c(=NCCn3cccn3)n2)nc1

>  <score_type>  (18) 
oracle

>  <origin>  (18) 
adg

>  <m_score__min__energy>  (18) 
-7.4199999999999999

>  <m_primary>  (18) 
energy

$$$$
18:0
     RDKit          3D

 56 58  0  0  0  0  0  0  0  0999 V2000
   63.6560   32.7590   47.1070 C   0  0  0  0  0  0  0  0  0  0  0  0
   63.0300   32.0300   48.1210 C   0  0  0  0  0  0  0  0  0  0  0  0
   61.6910   32.2780   48.4390 C   0  0  0  0  0  0  0  0  0  0  0  0
   60.9710   33.2670   47.7470 C   0  0  0  0  0  0  0  0  0  0  0  0
   59.5200   33.5110   48.0620 C   0  0  0  0  0  0  0  0  0  0  0  0
   58.8250   34.2060   46.8750 C   0  0  0  0  0  0  0  0  0  0  0  0
   58.2820   33.2720   45.8630 N   0  0  0  0  0  0  0  0  0  0  0  0
   58.8750   33.4480   44.5200 C   0  0  0  0  0  0  0  0  0  0  0  0
   57.9090   32.9770   43.4070 C   0  0  0  0  0  0  0  0  0  0  0  0
   58.0850   31.4930   43.0150 C   0  0  0  0  0  0  0  0  0  0  0  0
   58.1370   30.5370   44.1580 N   0  0  0  0  0  0  0  0  0  0  0  0
   57.7560   29.1660   43.7550 C   0  0  0  0  0  0  0  0  0  0  0  0
   57.8930   28.1890   44.9310 C   0  0  0  0  0  0  0  0  0  0  0  0
   59.2920   27.7130   45.0400 N   0  0  0  0  0  0  0  0  0  0  0  0
   59.4580   26.6340   46.0370 C   0  0  0  0  0  0  0  0  0  0  0  0
   59.3610   27.1570   47.4760 C   0  0  0  0  0  0  0  0  0  0  0  0
   60.4040   28.2470   47.7140 C   0  0  0  0  0  0  0  0  0  0  0  0
   60.2610   29.3660   46.6810 C   0  0  0  0  0  0  0  0  0  0  0  0
   60.2720   28.8050   45.2460 C   0  0  0  0  0  0  0  0  0  0  0  0
   57.4430   30.9530   45.4010 C   0  0  0  0  0  0  0  0  0  0  0  0
   58.2770   31.8680   46.3170 C   0  0  0  0  0  0  0  0  0  0  0  0
   61.6040   33.9850   46.7180 C   0  0  0  0  0  0  0  0  0  0  0  0
   62.9430   33.7330   46.4020 C   0  0  0  0  0  0  0  0  0  0  0  0
   64.7112   32.5664   46.8630 H   0  0  0  0  0  0  0  0  0  0  0  0
   63.5912   31.2597   48.6702 H   0  0  0  0  0  0  0  0  0  0  0  0
   61.1996   31.6971   49.2334 H   0  0  0  0  0  0  0  0  0  0  0  0
   59.0248   32.5489   48.2599 H   0  0  0  0  0  0  0  0  0  0  0  0
   59.4501   34.1597   48.9476 H   0  0  0  0  0  0  0  0  0  0  0  0
   57.9948   34.8118   47.2670 H   0  0  0  0  0  0  0  0  0  0  0  0
   59.5907   34.8125   46.3692 H   0  0  0  0  0  0  0  0  0  0  0  0
   59.1041   34.5130   44.3673 H   0  0  0  0  0  0  0  0  0  0  0  0
   59.7891   32.8387   44.4640 H   0  0  0  0  0  0  0  0  0  0  0  0
   56.8771   33.1226   43.7590 H   0  0  0  0  0  0  0  0  0  0  0  0
   58.1368   33.5739   42.5116 H   0  0  0  0  0  0  0  0  0  0  0  0
   57.2396   31.2084   42.3713 H   0  0  0  0  0  0  0  0  0  0  0  0
   59.0616   31.4232   42.5136 H   0  0  0  0  0  0  0  0  0  0  0  0
   56.7115   29.1696   43.4101 H   0  0  0  0  0  0  0  0  0  0  0  0
   58.4273   28.8387   42.9474 H   0  0  0  0  0  0  0  0  0  0  0  0
   57.6093   28.6999   45.8629 H   0  0  0  0  0  0  0  0  0  0  0  0
   57.2324   27.3262   44.7599 H   0  0  0  0  0  0  0  0  0  0  0  0
   58.6712   25.8815   45.8794 H   0  0  0  0  0  0  0  0  0  0  0  0
   60.4594   26.1993   45.9017 H   0  0  0  0  0  0  0  0  0  0  0  0
   58.3566   27.5726   47.6443 H   0  0  0  0  0  0  0  0  0  0  0  0
   59.5459   26.3259   48.1725 H   0  0  0  0  0  0  0  0  0  0  0  0
   60.2654   28.6658   48.7217 H   0  0  0  0  0  0  0  0  0  0  0  0
   61.4065   27.8042   47.6197 H   0  0  0  0  0  0  0  0  0  0  0  0
   59.3111   29.8934   46.8527 H   0  0  0  0  0  0  0  0  0  0  0  0
   61.1124   30.0536   46.7925 H   0  0  0  0  0  0  0  0  0  0  0  0
   60.0364   29.6226   44.5489 H   0  0  0  0  0  0  0  0  0  0  0  0
   61.2727   28.3851   45.0662 H   0  0  0  0  0  0  0  0  0  0  0  0
   56.5257   31.4909   45.1198 H   0  0  0  0  0  0  0  0  0  0  0  0
   57.2422   30.0345   45.9720 H   0  0  0  0  0  0  0  0  0  0  0  0
   57.8566   31.8275   47.3327 H   0  0  0  0  0  0  0  0  0  0  0  0
   59.3155   31.5062   46.2934 H   0  0  0  0  0  0  0  0  0  0  0  0
   61.0438   34.7487   46.1585 H   0  0  0  0  0  0  0  0  0  0  0  0
   63.4350   34.3012   45.5988 H   0  0  0  0  0  0  0  0  0  0  0  0
  1  2  2  0
  2  3  1  0
  3  4  2  0
  4  5  1  0
  5  6  1  0
  6  7  1  0
  7  8  1  0
  8  9  1  0
  9 10  1  0
 10 11  1  0
 11 12  1  0
 12 13  1  0
 13 14  1  0
 14 15  1  0
 15 16  1  0
 16 17  1  0
 17 18  1  0
 18 19  1  0
 11 20  1  0
 20 21  1  0
  4 22  1  0
 22 23  2  0
 23  1  1  0
 21  7  1  0
 19 14  1  0
  1 24  1  0
  2 25  1  0
  3 26  1  0
  5 27  1  0
  5 28  1  0
  6 29  1  0
  6 30  1  0
  8 31  1  0
  8 32  1  0
  9 33  1  0
  9 34  1  0
 10 35  1  0
 10 36  1  0
 12 37  1  0
 12 38  1  0
 13 39  1  0
 13 40  1  0
 15 41  1  0
 15 42  1  0
 16 43  1  0
 16 44  1  0
 17 45  1  0
 17 46  1  0
 18 47  1  0
 18 48  1  0
 19 49  1  0
 19 50  1  0
 20 51  1  0
 20 52  1  0
 21 53  1  0
 21 54  1  0
 22 55  1  0
 23 56  1  0
M  END
>  <UniqueID>  (19) 
16

>  <SMILES>  (19) 
c1ccc(CCN2CCCN(CCN3CCCCC3)CC2)cc1

>  <Energy>  (19) 
72.67571874911339

>  <Genealogy>  (19) 
c1ccc(CCN2CCCN(CCN3CCCCC3)CC2)cc1 (3D coordinates assigned)
c1ccc(CCN2CCCN(CCN3CCCCC3)CC2)cc1 (nonaromatic ring conformer: 72.67571874911339 kcal/mol)

>  <smiles>  (19) 
c1ccc(CCN2CCCN(CCN3CCCCC3)CC2)cc1

>  <score_type>  (19) 
oracle

>  <origin>  (19) 
adg

>  <m_score__min__energy>  (19) 
-5.75

>  <m_primary>  (19) 
energy

$$$$
19:0
     RDKit          3D

 50 53  0  0  0  0  0  0  0  0999 V2000
   59.3610   31.2810   50.7840 O   0  0  0  0  0  0  0  0  0  0  0  0
   59.3720   31.8490   49.6620 C   0  0  0  0  0  0  0  0  0  0  0  0
   59.0210   33.2370   49.5880 N   0  0  0  0  0  0  0  0  0  0  0  0
   59.6320   34.2180   48.6960 C   0  0  0  0  0  0  0  0  0  0  0  0
   59.0180   34.1590   47.3220 C   0  0  0  0  0  0  0  0  0  0  0  0
   59.6370   34.8030   46.2390 C   0  0  0  0  0  0  0  0  0  0  0  0
   59.0320   34.7650   44.9800 C   0  0  0  0  0  0  0  0  0  0  0  0
   57.8470   34.1230   44.8110 N   0  0  0  0  0  0  0  0  0  0  0  0
   57.2210   33.4980   45.8430 C   0  0  0  0  0  0  0  0  0  0  0  0
   57.7930   33.5070   47.1170 C   0  0  0  0  0  0  0  0  0  0  0  0
   59.7280   31.0720   48.4590 C   0  0  0  0  0  0  0  0  0  0  0  0
   58.8340   30.3180   47.7230 C   0  0  0  0  0  0  0  0  0  0  0  0
   59.5430   29.8290   46.6380 C   0  0  0  0  0  0  0  0  0  0  0  0
   59.0120   28.9950   45.4960 C   0  0  0  0  0  0  0  0  0  0  0  0
   58.4900   29.8880   44.3530 C   0  0  0  0  0  0  0  0  0  0  0  0
   57.0690   30.4290   44.6160 C   0  0  0  0  0  0  0  0  0  0  0  0
   56.1380   29.4490   45.2160 N   0  0  0  0  0  0  0  0  0  0  0  0
   56.6370   28.0680   45.2050 C   0  0  0  0  0  0  0  0  0  0  0  0
   57.9620   27.9570   45.9710 C   0  0  0  0  0  0  0  0  0  0  0  0
   60.8320   30.3150   46.7480 C   0  0  0  0  0  0  0  0  0  0  0  0
   60.9460   31.0590   47.8670 N   0  0  0  0  0  0  0  0  0  0  0  0
   62.1240   31.7800   48.2630 C   0  0  0  0  0  0  0  0  0  0  0  0
   62.8310   31.4040   49.4150 C   0  0  0  0  0  0  0  0  0  0  0  0
   63.9760   32.1070   49.8000 C   0  0  0  0  0  0  0  0  0  0  0  0
   64.4320   33.1800   49.0310 C   0  0  0  0  0  0  0  0  0  0  0  0
   63.7500   33.5420   47.8660 C   0  0  0  0  0  0  0  0  0  0  0  0
   62.6050   32.8400   47.4750 C   0  0  0  0  0  0  0  0  0  0  0  0
   61.9650   33.1930   46.3340 F   0  0  0  0  0  0  0  0  0  0  0  0
   59.4826   35.2248   49.1132 H   0  0  0  0  0  0  0  0  0  0  0  0
   60.7047   33.9904   48.6091 H   0  0  0  0  0  0  0  0  0  0  0  0
   60.5904   35.3331   46.3803 H   0  0  0  0  0  0  0  0  0  0  0  0
   59.5167   35.2563   44.1235 H   0  0  0  0  0  0  0  0  0  0  0  0
   56.2629   32.9846   45.6745 H   0  0  0  0  0  0  0  0  0  0  0  0
   57.2860   33.0058   47.9547 H   0  0  0  0  0  0  0  0  0  0  0  0
   57.7728   30.1416   47.9525 H   0  0  0  0  0  0  0  0  0  0  0  0
   59.8513   28.4109   45.0905 H   0  0  0  0  0  0  0  0  0  0  0  0
   59.1740   30.7411   44.2336 H   0  0  0  0  0  0  0  0  0  0  0  0
   58.4452   29.2695   43.4445 H   0  0  0  0  0  0  0  0  0  0  0  0
   57.1498   31.2878   45.2986 H   0  0  0  0  0  0  0  0  0  0  0  0
   56.6505   30.6957   43.6343 H   0  0  0  0  0  0  0  0  0  0  0  0
   55.9460   29.7210   46.2090 H   0  0  0  0  0  0  0  0  0  0  0  0
   55.8915   27.4122   45.6785 H   0  0  0  0  0  0  0  0  0  0  0  0
   56.8085   27.7652   44.1615 H   0  0  0  0  0  0  0  0  0  0  0  0
   57.7653   28.1187   47.0411 H   0  0  0  0  0  0  0  0  0  0  0  0
   58.3740   26.9547   45.7822 H   0  0  0  0  0  0  0  0  0  0  0  0
   61.6434   30.1237   46.0304 H   0  0  0  0  0  0  0  0  0  0  0  0
   62.4827   30.5523   50.0178 H   0  0  0  0  0  0  0  0  0  0  0  0
   64.5192   31.8145   50.7107 H   0  0  0  0  0  0  0  0  0  0  0  0
   65.3267   33.7394   49.3418 H   0  0  0  0  0  0  0  0  0  0  0  0
   64.1145   34.3810   47.2551 H   0  0  0  0  0  0  0  0  0  0  0  0
  1  2  2  0
  2  3  1  0
  3  4  1  0
  4  5  1  0
  5  6  2  0
  6  7  1  0
  7  8  2  0
  8  9  1  0
  9 10  2  0
  2 11  1  0
 11 12  2  0
 12 13  1  0
 13 14  1  0
 14 15  1  0
 15 16  1  0
 16 17  1  0
 17 18  1  0
 18 19  1  0
 13 20  2  0
 20 21  1  0
 21 22  1  0
 22 23  2  0
 23 24  1  0
 24 25  2  0
 25 26  1  0
 26 27  2  0
 27 28  1  0
 10  5  1  0
 21 11  1  0
 27 22  1  0
 19 14  1  0
  4 29  1  0
  4 30  1  0
  6 31  1  0
  7 32  1  0
  9 33  1  0
 10 34  1  0
 12 35  1  0
 14 36  1  0
 15 37  1  0
 15 38  1  0
 16 39  1  0
 16 40  1  0
 17 41  1  0
 18 42  1  0
 18 43  1  0
 19 44  1  0
 19 45  1  0
 20 46  1  0
 23 47  1  0
 24 48  1  0
 25 49  1  0
 26 50  1  0
M  CHG  1   3  -1
M  END
>  <UniqueID>  (20) 
17

>  <SMILES>  (20) 
O=C([N-]Cc1ccncc1)c1cc(C2CCNCC2)cn1-c1ccccc1F

>  <Energy>  (20) 
93.45848985096741

>  <Genealogy>  (20) 
O=C([N-]Cc1ccncc1)c1cc(C2CCNCC2)cn1-c1ccccc1F (protonated)
O=C([N-]Cc1ccncc1)c1cc(C2CCNCC2)cn1-c1ccccc1F (3D coordinates assigned)
O=C([N-]Cc1ccncc1)c1cc(C2CCNCC2)cn1-c1ccccc1F (nonaromatic ring conformer: 93.45848985096741 kcal/mol)

>  <smiles>  (20) 
O=C(NCc1ccncc1)c1cc(C2CCNCC2)cn1-c1ccccc1F

>  <score_type>  (20) 
oracle

>  <origin>  (20) 
adg

>  <m_score__min__energy>  (20) 
-9.7400000000000002

>  <m_primary>  (20) 
energy

$$$$
20:0
     RDKit          3D

 54 57  0  0  0  0  0  0  0  0999 V2000
   61.6450   33.8080   46.7880 C   0  0  0  0  0  0  0  0  0  0  0  0
   60.2400   34.0270   46.7280 O   0  0  0  0  0  0  0  0  0  0  0  0
   59.3290   33.1560   46.1110 C   0  0  0  0  0  0  0  0  0  0  0  0
   58.2730   33.6170   45.3030 C   0  0  0  0  0  0  0  0  0  0  0  0
   57.3910   32.7080   44.7120 C   0  0  0  0  0  0  0  0  0  0  0  0
   57.5510   31.3330   44.9160 C   0  0  0  0  0  0  0  0  0  0  0  0
   56.3210   30.1180   44.0930 Br  0  0  0  0  0  0  0  0  0  0  0  0
   58.6050   30.8660   45.7180 C   0  0  0  0  0  0  0  0  0  0  0  0
   58.7860   29.4630   45.9380 N   0  0  0  0  0  0  0  0  0  0  0  0
   59.0980   28.5970   44.7960 C   0  0  0  0  0  0  0  0  0  0  0  0
   59.4620   27.1800   45.2510 C   0  0  0  0  0  0  0  0  0  0  0  0
   58.5030   26.7000   46.2600 N   0  0  0  0  0  0  0  0  0  0  0  0
   58.0470   25.3300   46.2300 C   0  0  0  0  0  0  0  0  0  0  0  0
   58.5970   24.5020   45.4510 O   0  0  0  0  0  0  0  0  0  0  0  0
   56.9210   24.8650   47.1220 C   0  0  0  0  0  0  0  0  0  0  0  0
   55.9040   24.1170   46.3610 N   0  0  0  0  0  0  0  0  0  0  0  0
   54.8440   24.8340   45.6900 C   0  0  0  0  0  0  0  0  0  0  0  0
   54.7760   26.0910   45.7540 O   0  0  0  0  0  0  0  0  0  0  0  0
   53.8520   24.0940   44.8420 C   0  0  0  0  0  0  0  0  0  0  0  0
   53.7240   22.7370   45.2610 O   0  0  0  0  0  0  0  0  0  0  0  0
   54.8080   22.0040   45.7450 C   0  0  0  0  0  0  0  0  0  0  0  0
   54.7600   20.6080   45.7220 C   0  0  0  0  0  0  0  0  0  0  0  0
   55.8510   19.8600   46.1700 C   0  0  0  0  0  0  0  0  0  0  0  0
   57.0060   20.5060   46.6320 C   0  0  0  0  0  0  0  0  0  0  0  0
   58.1710   19.7030   47.1310 C   0  0  0  0  0  0  0  0  0  0  0  0
   57.0400   21.9080   46.6920 C   0  0  0  0  0  0  0  0  0  0  0  0
   55.9340   22.6720   46.2630 C   0  0  0  0  0  0  0  0  0  0  0  0
   58.0970   27.5890   47.3630 C   0  0  0  0  0  0  0  0  0  0  0  0
   58.8150   28.9410   47.3060 C   0  0  0  0  0  0  0  0  0  0  0  0
   59.4860   31.7790   46.3120 C   0  0  0  0  0  0  0  0  0  0  0  0
   61.9638   33.7583   47.8396 H   0  0  0  0  0  0  0  0  0  0  0  0
   61.8902   32.8608   46.2854 H   0  0  0  0  0  0  0  0  0  0  0  0
   62.1669   34.6356   46.2854 H   0  0  0  0  0  0  0  0  0  0  0  0
   58.1413   34.6963   45.1360 H   0  0  0  0  0  0  0  0  0  0  0  0
   56.5667   33.0755   44.0832 H   0  0  0  0  0  0  0  0  0  0  0  0
   58.2201   28.5461   44.1352 H   0  0  0  0  0  0  0  0  0  0  0  0
   59.9624   29.0226   44.2652 H   0  0  0  0  0  0  0  0  0  0  0  0
   59.4423   26.5048   44.3828 H   0  0  0  0  0  0  0  0  0  0  0  0
   60.4679   27.1966   45.6958 H   0  0  0  0  0  0  0  0  0  0  0  0
   57.3322   24.2126   47.9064 H   0  0  0  0  0  0  0  0  0  0  0  0
   56.4406   25.7511   47.5625 H   0  0  0  0  0  0  0  0  0  0  0  0
   52.8725   24.5880   44.9225 H   0  0  0  0  0  0  0  0  0  0  0  0
   54.2081   24.1044   43.8013 H   0  0  0  0  0  0  0  0  0  0  0  0
   53.8601   20.0964   45.3499 H   0  0  0  0  0  0  0  0  0  0  0  0
   55.8038   18.7611   46.1603 H   0  0  0  0  0  0  0  0  0  0  0  0
   58.1717   19.7025   48.2310 H   0  0  0  0  0  0  0  0  0  0  0  0
   58.0880   18.6694   46.7639 H   0  0  0  0  0  0  0  0  0  0  0  0
   59.1074   20.1484   46.7639 H   0  0  0  0  0  0  0  0  0  0  0  0
   57.9368   22.4156   47.0769 H   0  0  0  0  0  0  0  0  0  0  0  0
   57.0123   27.7603   47.2998 H   0  0  0  0  0  0  0  0  0  0  0  0
   58.3688   27.1002   48.3102 H   0  0  0  0  0  0  0  0  0  0  0  0
   58.3103   29.6507   47.9780 H   0  0  0  0  0  0  0  0  0  0  0  0
   59.8605   28.8096   47.6216 H   0  0  0  0  0  0  0  0  0  0  0  0
   60.3089   31.4108   46.9423 H   0  0  0  0  0  0  0  0  0  0  0  0
  1  2  1  0
  2  3  1  0
  3  4  2  0
  4  5  1  0
  5  6  2  0
  6  7  1  0
  6  8  1  0
  8  9  1  0
  9 10  1  0
 10 11  1  0
 11 12  1  0
 12 13  1  0
 13 14  2  0
 13 15  1  0
 15 16  1  0
 16 17  1  0
 17 18  2  0
 17 19  1  0
 19 20  1  0
 20 21  1  0
 21 22  2  0
 22 23  1  0
 23 24  2  0
 24 25  1  0
 24 26  1  0
 26 27  2  0
 12 28  1  0
 28 29  1  0
  8 30  2  0
 30  3  1  0
 29  9  1  0
 27 16  1  0
 27 21  1  0
  1 31  1  0
  1 32  1  0
  1 33  1  0
  4 34  1  0
  5 35  1  0
 10 36  1  0
 10 37  1  0
 11 38  1  0
 11 39  1  0
 15 40  1  0
 15 41  1  0
 19 42  1  0
 19 43  1  0
 22 44  1  0
 23 45  1  0
 25 46  1  0
 25 47  1  0
 25 48  1  0
 26 49  1  0
 28 50  1  0
 28 51  1  0
 29 52  1  0
 29 53  1  0
 30 54  1  0
M  END
>  <UniqueID>  (21) 
18

>  <SMILES>  (21) 
COc1ccc(Br)c(N2CCN(C(=O)CN3C(=O)COc4ccc(C)cc43)CC2)c1

>  <Energy>  (21) 
65.97932975680986

>  <Genealogy>  (21) 
COc1ccc(Br)c(N2CCN(C(=O)CN3C(=O)COc4ccc(C)cc43)CC2)c1 (3D coordinates assigned)
COc1ccc(Br)c(N2CCN(C(=O)CN3C(=O)COc4ccc(C)cc43)CC2)c1 (nonaromatic ring conformer: 65.97932975680986 kcal/mol)

>  <smiles>  (21) 
COc1ccc(Br)c(N2CCN(C(=O)CN3C(=O)COc4ccc(C)cc43)CC2)c1

>  <score_type>  (21) 
oracle

>  <origin>  (21) 
adg

>  <m_score__min__energy>  (21) 
-7.79

>  <m_primary>  (21) 
energy

$$$$
21:0
     RDKit          3D

 46 49  0  0  0  0  0  0  0  0999 V2000
   58.3410   32.9480   48.4590 O   0  0  0  0  0  0  0  0  0  0  0  0
   59.0350   33.1860   47.4320 C   0  0  0  0  0  0  0  0  0  0  0  0
   58.5290   32.7330   46.1150 C   0  0  0  0  0  0  0  0  0  0  0  0
   58.6720   33.5440   44.9760 C   0  0  0  0  0  0  0  0  0  0  0  0
   58.1790   33.1050   43.7460 C   0  0  0  0  0  0  0  0  0  0  0  0
   57.5550   31.8560   43.6510 C   0  0  0  0  0  0  0  0  0  0  0  0
   57.0460   31.3860   42.4320 C   0  0  0  0  0  0  0  0  0  0  0  0
   56.4290   30.1320   42.3710 C   0  0  0  0  0  0  0  0  0  0  0  0
   56.3160   29.3460   43.5220 C   0  0  0  0  0  0  0  0  0  0  0  0
   56.8220   29.8090   44.7420 C   0  0  0  0  0  0  0  0  0  0  0  0
   57.4400   31.0610   44.8120 C   0  0  0  0  0  0  0  0  0  0  0  0
   57.9280   31.5160   45.9960 N   0  0  0  0  0  0  0  0  0  0  0  0
   60.3010   33.8700   47.5730 N   0  0  0  0  0  0  0  0  0  0  0  0
   61.3780   33.6910   46.5910 C   0  0  0  0  0  0  0  0  0  0  0  0
   62.7690   33.8050   47.2480 C   0  0  0  0  0  0  0  0  0  0  0  0
   62.7880   33.2910   48.6350 N   0  0  0  0  0  0  0  0  0  0  0  0
   63.0890   31.8490   48.7890 C   0  0  0  0  0  0  0  0  0  0  0  0
   61.8780   30.9490   48.6410 C   0  0  0  0  0  0  0  0  0  0  0  0
   61.4290   30.5650   47.3650 C   0  0  0  0  0  0  0  0  0  0  0  0
   60.3350   29.7070   47.2270 C   0  0  0  0  0  0  0  0  0  0  0  0
   59.6700   29.2320   48.3590 C   0  0  0  0  0  0  0  0  0  0  0  0
   58.6160   28.3890   48.2220 F   0  0  0  0  0  0  0  0  0  0  0  0
   60.0840   29.6320   49.6300 C   0  0  0  0  0  0  0  0  0  0  0  0
   61.1760   30.4950   49.7760 C   0  0  0  0  0  0  0  0  0  0  0  0
   61.5570   30.8660   51.0250 F   0  0  0  0  0  0  0  0  0  0  0  0
   61.7480   33.8300   49.5470 C   0  0  0  0  0  0  0  0  0  0  0  0
   60.6310   34.5790   48.8110 C   0  0  0  0  0  0  0  0  0  0  0  0
   59.1707   34.5214   45.0536 H   0  0  0  0  0  0  0  0  0  0  0  0
   58.2808   33.7395   42.8533 H   0  0  0  0  0  0  0  0  0  0  0  0
   57.1317   32.0024   41.5250 H   0  0  0  0  0  0  0  0  0  0  0  0
   56.0313   29.7629   41.4141 H   0  0  0  0  0  0  0  0  0  0  0  0
   55.8283   28.3615   43.4684 H   0  0  0  0  0  0  0  0  0  0  0  0
   56.7334   29.1879   45.6456 H   0  0  0  0  0  0  0  0  0  0  0  0
   61.2805   32.6964   46.1314 H   0  0  0  0  0  0  0  0  0  0  0  0
   61.2888   34.4837   45.8336 H   0  0  0  0  0  0  0  0  0  0  0  0
   63.4896   33.2288   46.6491 H   0  0  0  0  0  0  0  0  0  0  0  0
   63.0330   34.8722   47.2850 H   0  0  0  0  0  0  0  0  0  0  0  0
   63.8266   31.5656   48.0238 H   0  0  0  0  0  0  0  0  0  0  0  0
   63.4671   31.7095   49.8125 H   0  0  0  0  0  0  0  0  0  0  0  0
   61.9429   30.9429   46.4688 H   0  0  0  0  0  0  0  0  0  0  0  0
   59.9970   29.4052   46.2247 H   0  0  0  0  0  0  0  0  0  0  0  0
   59.5503   29.2678   50.5202 H   0  0  0  0  0  0  0  0  0  0  0  0
   61.3008   32.9921   50.1018 H   0  0  0  0  0  0  0  0  0  0  0  0
   62.2406   34.5512   50.2157 H   0  0  0  0  0  0  0  0  0  0  0  0
   59.7392   34.6303   49.4530 H   0  0  0  0  0  0  0  0  0  0  0  0
   60.9693   35.5978   48.5709 H   0  0  0  0  0  0  0  0  0  0  0  0
  1  2  2  0
  2  3  1  0
  3  4  2  0
  4  5  1  0
  5  6  2  0
  6  7  1  0
  7  8  2  0
  8  9  1  0
  9 10  2  0
 10 11  1  0
 11 12  2  0
  2 13  1  0
 13 14  1  0
 14 15  1  0
 15 16  1  0
 16 17  1  0
 17 18  1  0
 18 19  2  0
 19 20  1  0
 20 21  2  0
 21 22  1  0
 21 23  1  0
 23 24  2  0
 24 25  1  0
 16 26  1  0
 26 27  1  0
 12  3  1  0
 27 13  1  0
 11  6  1  0
 24 18  1  0
  4 28  1  0
  5 29  1  0
  7 30  1  0
  8 31  1  0
  9 32  1  0
 10 33  1  0
 14 34  1  0
 14 35  1  0
 15 36  1  0
 15 37  1  0
 17 38  1  0
 17 39  1  0
 19 40  1  0
 20 41  1  0
 23 42  1  0
 26 43  1  0
 26 44  1  0
 27 45  1  0
 27 46  1  0
M  END
>  <UniqueID>  (22) 
19

>  <SMILES>  (22) 
O=C(c1ccc2ccccc2n1)N1CCN(Cc2ccc(F)cc2F)CC1

>  <Energy>  (22) 
66.33954695384178

>  <Genealogy>  (22) 
O=C(c1ccc2ccccc2n1)N1CCN(Cc2ccc(F)cc2F)CC1 (3D coordinates assigned)
O=C(c1ccc2ccccc2n1)N1CCN(Cc2ccc(F)cc2F)CC1 (nonaromatic ring conformer: 66.33954695384178 kcal/mol)

>  <smiles>  (22) 
O=C(c1ccc2ccccc2n1)N1CCN(Cc2ccc(F)cc2F)CC1

>  <score_type>  (22) 
oracle

>  <origin>  (22) 
adg

>  <m_score__min__energy>  (22) 
-7.7999999999999998

>  <m_primary>  (22) 
energy

$$$$
22:0
     RDKit          3D

 36 38  0  0  0  0  0  0  0  0999 V2000
   55.0190   25.7610   45.2370 H   0  0  0  0  0  0  0  0  0  0  0  0
   55.5770   26.0930   46.0560 N   0  0  0  0  0  0  0  0  0  0  0  0
   56.2970   27.1670   45.9920 C   0  0  0  0  0  0  0  0  0  0  0  0
   57.4640   27.2380   46.6830 N   0  0  0  0  0  0  0  0  0  0  0  0
   58.2360   28.3540   46.6400 C   0  0  0  0  0  0  0  0  0  0  0  0
   59.1818   28.3897   47.2005 H   0  0  0  0  0  0  0  0  0  0  0  0
   57.8300   29.4580   45.8840 C   0  0  0  0  0  0  0  0  0  0  0  0
   56.6340   29.3560   45.1520 C   0  0  0  0  0  0  0  0  0  0  0  0
   55.8900   28.2220   45.2380 N   0  0  0  0  0  0  0  0  0  0  0  0
   56.1190   30.5160   44.3490 C   0  0  0  0  0  0  0  0  0  0  0  0
   55.7266   30.1410   43.3922 H   0  0  0  0  0  0  0  0  0  0  0  0
   55.3290   31.0125   44.9315 H   0  0  0  0  0  0  0  0  0  0  0  0
   57.2200   31.5420   44.0660 C   0  0  0  0  0  0  0  0  0  0  0  0
   57.9263   31.1265   43.3322 H   0  0  0  0  0  0  0  0  0  0  0  0
   56.7659   32.4603   43.6653 H   0  0  0  0  0  0  0  0  0  0  0  0
   57.9410   31.8600   45.3140 N   0  0  0  0  0  0  0  0  0  0  0  0
   58.8370   33.0160   45.1050 C   0  0  0  0  0  0  0  0  0  0  0  0
   59.5538   32.7770   44.3056 H   0  0  0  0  0  0  0  0  0  0  0  0
   58.2283   33.8883   44.8246 H   0  0  0  0  0  0  0  0  0  0  0  0
   59.5940   33.3400   46.3670 C   0  0  0  0  0  0  0  0  0  0  0  0
   58.9250   33.8450   47.4910 C   0  0  0  0  0  0  0  0  0  0  0  0
   57.8334   33.9785   47.4649 H   0  0  0  0  0  0  0  0  0  0  0  0
   59.6390   34.1790   48.6430 C   0  0  0  0  0  0  0  0  0  0  0  0
   59.1089   34.5806   49.5192 H   0  0  0  0  0  0  0  0  0  0  0  0
   61.0240   34.0050   48.6870 C   0  0  0  0  0  0  0  0  0  0  0  0
   61.5813   34.2810   49.5943 H   0  0  0  0  0  0  0  0  0  0  0  0
   61.7100   33.4790   47.5780 C   0  0  0  0  0  0  0  0  0  0  0  0
   63.2120   33.3410   47.6030 C   0  0  0  0  0  0  0  0  0  0  0  0
   63.7520   34.0740   46.5620 F   0  0  0  0  0  0  0  0  0  0  0  0
   63.5820   32.0160   47.4620 F   0  0  0  0  0  0  0  0  0  0  0  0
   63.7280   33.8100   48.7990 F   0  0  0  0  0  0  0  0  0  0  0  0
   60.9870   33.1710   46.4110 C   0  0  0  0  0  0  0  0  0  0  0  0
   61.5183   32.7942   45.5246 H   0  0  0  0  0  0  0  0  0  0  0  0
   58.7090   30.6780   45.7690 C   0  0  0  0  0  0  0  0  0  0  0  0
   59.5117   30.4732   45.0453 H   0  0  0  0  0  0  0  0  0  0  0  0
   59.1247   30.8986   46.7632 H   0  0  0  0  0  0  0  0  0  0  0  0
  1  2  1  0
  2  3  2  0
  3  4  1  0
  4  5  2  0
  5  6  1  0
  5  7  1  0
  7  8  2  0
  8  9  1  0
  8 10  1  0
 10 11  1  0
 10 12  1  0
 10 13  1  0
 13 14  1  0
 13 15  1  0
 13 16  1  0
 16 17  1  0
 17 18  1  0
 17 19  1  0
 17 20  1  0
 20 21  2  0
 21 22  1  0
 21 23  1  0
 23 24  1  0
 23 25  2  0
 25 26  1  0
 25 27  1  0
 27 28  1  0
 28 29  1  0
 28 30  1  0
 28 31  1  0
 27 32  2  0
 32 33  1  0
 16 34  1  0
 34 35  1  0
 34 36  1  0
  9  3  1  0
 32 20  1  0
 34  7  1  0
M  CHG  1   9  -1
M  END
>  <UniqueID>  (23) 
20

>  <SMILES>  (23) 
[H]/N=c1/ncc2c([n-]1)CCN(Cc1cccc(C(F)(F)F)c1)C2

>  <Energy>  (23) 
41.46750127573897

>  <Genealogy>  (23) 
N=c1ncc2c([n-]1)CCN(Cc1cccc(C(F)(F)F)c1)C2 (protonated)
[H]/N=c1/ncc2c([n-]1)CCN(Cc1cccc(C(F)(F)F)c1)C2 (cis-trans isomerization)
[H]/N=c1/ncc2c([n-]1)CCN(Cc1cccc(C(F)(F)F)c1)C2 (3D coordinates assigned)
[H]/N=c1/ncc2c([n-]1)CCN(Cc1cccc(C(F)(F)F)c1)C2 (nonaromatic ring conformer: 41.46750127573897 kcal/mol)

>  <smiles>  (23) 
N=c1ncc2c([nH]1)CCN(Cc1cccc(C(F)(F)F)c1)C2

>  <score_type>  (23) 
oracle

>  <origin>  (23) 
adg

>  <m_score__min__energy>  (23) 
-9.2100000000000009

>  <m_primary>  (23) 
energy

$$$$
23:0
     RDKit          3D

 42 45  0  0  0  0  0  0  0  0999 V2000
   59.4610   32.6680   52.6930 C   0  0  0  0  0  0  0  0  0  0  0  0
   60.0620   31.7160   51.8390 O   0  0  0  0  0  0  0  0  0  0  0  0
   59.8280   31.7630   50.4730 C   0  0  0  0  0  0  0  0  0  0  0  0
   60.5250   31.0060   49.5550 C   0  0  0  0  0  0  0  0  0  0  0  0
   60.2340   31.1060   48.1900 C   0  0  0  0  0  0  0  0  0  0  0  0
   59.2420   31.9690   47.7780 C   0  0  0  0  0  0  0  0  0  0  0  0
   63.7880   32.8830   46.9970 N   0  0  0  0  0  0  0  0  0  0  0  0
   59.2320   33.2260   45.6980 C   0  0  0  0  0  0  0  0  0  0  0  0
   60.1980   34.5080   46.4570 S   0  0  0  0  0  0  0  0  0  0  0  0
   61.7590   33.8560   46.9310 C   0  0  0  0  0  0  0  0  0  0  0  0
   62.7180   33.2750   46.4270 N   0  0  0  0  0  0  0  0  0  0  0  0
   58.8730   32.1400   46.4140 N   0  0  0  0  0  0  0  0  0  0  0  0
   58.1360   31.1440   45.8620 C   0  0  0  0  0  0  0  0  0  0  0  0
   64.8560   32.8400   49.0960 N   0  0  0  0  0  0  0  0  0  0  0  0
   62.3710   33.9660   48.7270 S   0  0  0  0  0  0  0  0  0  0  0  0
   58.8590   33.3450   44.4050 N   0  0  0  0  0  0  0  0  0  0  0  0
   58.1240   32.3770   43.8140 C   0  0  0  0  0  0  0  0  0  0  0  0
   57.7780   32.5590   42.4980 C   0  0  0  0  0  0  0  0  0  0  0  0
   57.0180   31.5680   41.8720 C   0  0  0  0  0  0  0  0  0  0  0  0
   56.6390   30.4510   42.5770 C   0  0  0  0  0  0  0  0  0  0  0  0
   56.9880   30.2600   43.9170 C   0  0  0  0  0  0  0  0  0  0  0  0
   56.5810   29.0600   44.6750 C   0  0  0  0  0  0  0  0  0  0  0  0
   57.7450   31.2530   44.5300 C   0  0  0  0  0  0  0  0  0  0  0  0
   63.9240   33.1110   48.2920 C   0  0  0  0  0  0  0  0  0  0  0  0
   57.8100   30.1420   46.5350 O   0  0  0  0  0  0  0  0  0  0  0  0
   58.5460   32.7250   48.7080 C   0  0  0  0  0  0  0  0  0  0  0  0
   58.8230   32.6380   50.0590 C   0  0  0  0  0  0  0  0  0  0  0  0
   59.6396   32.3850   53.7409 H   0  0  0  0  0  0  0  0  0  0  0  0
   59.8972   33.6595   52.5015 H   0  0  0  0  0  0  0  0  0  0  0  0
   58.3783   32.7006   52.5015 H   0  0  0  0  0  0  0  0  0  0  0  0
   61.3138   30.3201   49.8975 H   0  0  0  0  0  0  0  0  0  0  0  0
   60.7895   30.5039   47.4559 H   0  0  0  0  0  0  0  0  0  0  0  0
   64.5740   32.3770   46.4550 H   0  0  0  0  0  0  0  0  0  0  0  0
   65.8490   32.7630   48.8440 H   0  0  0  0  0  0  0  0  0  0  0  0
   58.0907   33.4608   41.9512 H   0  0  0  0  0  0  0  0  0  0  0  0
   56.7239   31.6814   40.8181 H   0  0  0  0  0  0  0  0  0  0  0  0
   56.0402   29.6805   42.0693 H   0  0  0  0  0  0  0  0  0  0  0  0
   56.6509   29.2662   45.7532 H   0  0  0  0  0  0  0  0  0  0  0  0
   55.5439   28.7984   44.4182 H   0  0  0  0  0  0  0  0  0  0  0  0
   57.2450   28.2214   44.4182 H   0  0  0  0  0  0  0  0  0  0  0  0
   57.7563   33.4088   48.3634 H   0  0  0  0  0  0  0  0  0  0  0  0
   58.2656   33.2430   50.7893 H   0  0  0  0  0  0  0  0  0  0  0  0
  1  2  1  0
  2  3  1  0
  3  4  2  0
  4  5  1  0
  5  6  2  0
  6  7  1  0
  7  8  1  0
  8  9  1  0
  9 10  1  0
 10 11  2  0
 11 12  1  0
 12 13  1  0
 13 14  2  3
 13 15  1  0
  8 16  2  0
 16 17  1  0
 17 18  2  0
 18 19  1  0
 19 20  2  0
 20 21  1  0
 21 22  1  0
 21 23  2  0
 23 24  1  0
 24 25  2  0
  6 26  1  0
 26 27  2  0
 27  3  1  0
 24  7  1  0
 15 10  1  0
 23 17  1  0
  1 28  1  0
  1 29  1  0
  1 30  1  0
  4 31  1  0
  5 32  1  0
 12 33  1  0
 14 34  1  0
 18 35  1  0
 19 36  1  0
 20 37  1  0
 22 38  1  0
 22 39  1  0
 22 40  1  0
 26 41  1  0
 27 42  1  0
M  END
>  <smiles>  (24) 
COc1ccc(-n2c(Sc3n[nH]c(=N)s3)nc3cccc(C)c3c2=O)cc1

>  <score_type>  (24) 
oracle

>  <origin>  (24) 
adg

>  <m_score__min__energy>  (24) 
-8.0700000000000003

>  <m_primary>  (24) 
energy

$$$$
24:0
     RDKit          3D

 45 46  0  0  0  0  0  0  0  0999 V2000
   59.2070   27.3780   45.5860 C   0  0  0  0  0  0  0  0  0  0  0  0
   57.7820   27.5030   45.0550 C   0  0  0  0  0  0  0  0  0  0  0  0
   57.7130   28.4920   43.8880 C   0  0  0  0  0  0  0  0  0  0  0  0
   56.6370   29.8880   44.2310 S   0  0  0  0  0  0  0  0  0  0  0  0
   56.2710   30.5050   42.9100 O   0  0  0  0  0  0  0  0  0  0  0  0
   55.3750   29.3780   44.8710 O   0  0  0  0  0  0  0  0  0  0  0  0
   57.3490   31.1390   45.2280 N   0  0  0  0  0  0  0  0  0  0  0  0
   57.3920   32.4240   44.5130 C   0  0  0  0  0  0  0  0  0  0  0  0
   58.0130   33.4980   45.3630 C   0  0  0  0  0  0  0  0  0  0  0  0
   58.9170   33.2150   46.3190 C   0  0  0  0  0  0  0  0  0  0  0  0
   59.5900   34.2880   47.1030 C   0  0  0  0  0  0  0  0  0  0  0  0
   58.9300   35.3360   47.3510 O   0  0  0  0  0  0  0  0  0  0  0  0
   60.9460   34.1860   47.6170 N   0  0  0  0  0  0  0  0  0  0  0  0
   61.0470   33.3150   48.8100 C   0  0  0  0  0  0  0  0  0  0  0  0
   62.4320   33.4460   49.4750 C   0  0  0  0  0  0  0  0  0  0  0  0
   63.5570   33.7050   48.4540 C   0  0  0  0  0  0  0  0  0  0  0  0
   63.1940   33.1660   47.0690 C   0  0  0  0  0  0  0  0  0  0  0  0
   61.9010   33.8200   46.5380 C   0  0  0  0  0  0  0  0  0  0  0  0
   59.1450   31.7840   46.7540 C   0  0  0  0  0  0  0  0  0  0  0  0
   58.6900   30.7700   45.7010 C   0  0  0  0  0  0  0  0  0  0  0  0
   59.1899   27.3795   46.6859 H   0  0  0  0  0  0  0  0  0  0  0  0
   59.6507   26.4375   45.2275 H   0  0  0  0  0  0  0  0  0  0  0  0
   59.8077   28.2269   45.2275 H   0  0  0  0  0  0  0  0  0  0  0  0
   57.4393   26.5162   44.7103 H   0  0  0  0  0  0  0  0  0  0  0  0
   57.1384   27.8744   45.8661 H   0  0  0  0  0  0  0  0  0  0  0  0
   58.7262   28.8693   43.6852 H   0  0  0  0  0  0  0  0  0  0  0  0
   57.2991   27.9567   43.0208 H   0  0  0  0  0  0  0  0  0  0  0  0
   57.9862   32.3043   43.5951 H   0  0  0  0  0  0  0  0  0  0  0  0
   56.3614   32.7231   44.2712 H   0  0  0  0  0  0  0  0  0  0  0  0
   57.7198   34.5454   45.1986 H   0  0  0  0  0  0  0  0  0  0  0  0
   61.2040   35.1500   47.9430 H   0  0  0  0  0  0  0  0  0  0  0  0
   60.2715   33.6055   49.5340 H   0  0  0  0  0  0  0  0  0  0  0  0
   60.9077   32.2706   48.4939 H   0  0  0  0  0  0  0  0  0  0  0  0
   62.4030   34.2836   50.1875 H   0  0  0  0  0  0  0  0  0  0  0  0
   62.6516   32.4929   49.9784 H   0  0  0  0  0  0  0  0  0  0  0  0
   63.7308   34.7887   48.3812 H   0  0  0  0  0  0  0  0  0  0  0  0
   64.4625   33.1849   48.7997 H   0  0  0  0  0  0  0  0  0  0  0  0
   64.0176   33.3819   46.3726 H   0  0  0  0  0  0  0  0  0  0  0  0
   63.0287   32.0814   47.1492 H   0  0  0  0  0  0  0  0  0  0  0  0
   62.1715   34.7321   45.9858 H   0  0  0  0  0  0  0  0  0  0  0  0
   61.4008   33.0815   45.8943 H   0  0  0  0  0  0  0  0  0  0  0  0
   60.2192   31.6395   46.9415 H   0  0  0  0  0  0  0  0  0  0  0  0
   58.5485   31.6123   47.6621 H   0  0  0  0  0  0  0  0  0  0  0  0
   59.3936   30.7758   44.8555 H   0  0  0  0  0  0  0  0  0  0  0  0
   58.6637   29.7629   46.1426 H   0  0  0  0  0  0  0  0  0  0  0  0
  1  2  1  0
  2  3  1  0
  3  4  1  0
  4  5  2  0
  4  6  2  0
  4  7  1  0
  7  8  1  0
  8  9  1  0
  9 10  2  0
 10 11  1  0
 11 12  2  0
 11 13  1  0
 13 14  1  0
 14 15  1  0
 15 16  1  0
 16 17  1  0
 17 18  1  0
 10 19  1  0
 19 20  1  0
 20  7  1  0
 18 13  1  0
  1 21  1  0
  1 22  1  0
  1 23  1  0
  2 24  1  0
  2 25  1  0
  3 26  1  0
  3 27  1  0
  8 28  1  0
  8 29  1  0
  9 30  1  0
 13 31  1  0
 14 32  1  0
 14 33  1  0
 15 34  1  0
 15 35  1  0
 16 36  1  0
 16 37  1  0
 17 38  1  0
 17 39  1  0
 18 40  1  0
 18 41  1  0
 19 42  1  0
 19 43  1  0
 20 44  1  0
 20 45  1  0
M  CHG  1  13   1
M  END
>  <UniqueID>  (25) 
21

>  <SMILES>  (25) 
CCCS(=O)(=O)N1CC=C(C(=O)[NH+]2CCCCC2)CC1

>  <Energy>  (25) 
49.41465035959111

>  <Genealogy>  (25) 
CCCS(=O)(=O)N1CC=C(C(=O)[NH+]2CCCCC2)CC1 (protonated)
CCCS(=O)(=O)N1CC=C(C(=O)[NH+]2CCCCC2)CC1 (3D coordinates assigned)
CCCS(=O)(=O)N1CC=C(C(=O)[NH+]2CCCCC2)CC1 (nonaromatic ring conformer: 49.41465035959111 kcal/mol)

>  <smiles>  (25) 
CCCS(=O)(=O)N1CC=C(C(=O)N2CCCCC2)CC1

>  <score_type>  (25) 
oracle

>  <origin>  (25) 
adg

>  <m_score__min__energy>  (25) 
-7.1200000000000001

>  <m_primary>  (25) 
energy

$$$$
25:0
     RDKit          3D

 39 41  0  0  0  0  0  0  0  0999 V2000
   56.3630   27.6870   44.4910 H   0  0  0  0  0  0  0  0  0  0  0  0
   55.9030   28.5440   44.8740 N   0  0  0  0  0  0  0  0  0  0  0  0
   56.5570   29.6500   45.0350 C   0  0  0  0  0  0  0  0  0  0  0  0
   55.9990   30.8280   44.6530 N   0  0  0  0  0  0  0  0  0  0  0  0
   56.6420   32.0090   44.8320 C   0  0  0  0  0  0  0  0  0  0  0  0
   56.1709   32.9488   44.5083 H   0  0  0  0  0  0  0  0  0  0  0  0
   57.9110   32.0270   45.4320 C   0  0  0  0  0  0  0  0  0  0  0  0
   58.6280   33.3070   45.6540 C   0  0  0  0  0  0  0  0  0  0  0  0
   59.3470   33.5310   46.8440 C   0  0  0  0  0  0  0  0  0  0  0  0
   59.3810   32.7500   47.6179 H   0  0  0  0  0  0  0  0  0  0  0  0
   60.0180   34.7410   47.0470 C   0  0  0  0  0  0  0  0  0  0  0  0
   60.5779   34.9082   47.9790 H   0  0  0  0  0  0  0  0  0  0  0  0
   59.9790   35.7380   46.0690 C   0  0  0  0  0  0  0  0  0  0  0  0
   60.5071   36.6892   46.2313 H   0  0  0  0  0  0  0  0  0  0  0  0
   59.2690   35.5260   44.8850 C   0  0  0  0  0  0  0  0  0  0  0  0
   59.2401   36.3105   44.1145 H   0  0  0  0  0  0  0  0  0  0  0  0
   58.5950   34.3190   44.6770 C   0  0  0  0  0  0  0  0  0  0  0  0
   58.0353   34.1594   43.7436 H   0  0  0  0  0  0  0  0  0  0  0  0
   58.4720   30.8420   45.8180 N   0  0  0  0  0  0  0  0  0  0  0  0
   59.4290   30.8360   46.2350 H   0  0  0  0  0  0  0  0  0  0  0  0
   57.8330   29.6520   45.6260 C   0  0  0  0  0  0  0  0  0  0  0  0
   58.4560   28.4260   46.0470 N   0  0  0  0  0  0  0  0  0  0  0  0
   59.1730   27.5840   45.0880 C   0  0  0  0  0  0  0  0  0  0  0  0
   58.9286   27.9111   44.0666 H   0  0  0  0  0  0  0  0  0  0  0  0
   60.2534   27.6803   45.2707 H   0  0  0  0  0  0  0  0  0  0  0  0
   58.7710   26.1050   45.2560 C   0  0  0  0  0  0  0  0  0  0  0  0
   57.9160   25.9022   44.5943 H   0  0  0  0  0  0  0  0  0  0  0  0
   59.6571   25.5048   45.0017 H   0  0  0  0  0  0  0  0  0  0  0  0
   58.3860   25.7340   46.6430 N   0  0  0  0  0  0  0  0  0  0  0  0
   56.9260   25.5910   46.7880 C   0  0  0  0  0  0  0  0  0  0  0  0
   56.6644   25.5654   47.8561 H   0  0  0  0  0  0  0  0  0  0  0  0
   56.4245   26.4443   46.3080 H   0  0  0  0  0  0  0  0  0  0  0  0
   56.5996   24.6566   46.3080 H   0  0  0  0  0  0  0  0  0  0  0  0
   58.9570   26.6320   47.6690 C   0  0  0  0  0  0  0  0  0  0  0  0
   58.6329   26.2892   48.6627 H   0  0  0  0  0  0  0  0  0  0  0  0
   60.0529   26.6016   47.5789 H   0  0  0  0  0  0  0  0  0  0  0  0
   58.5010   28.0860   47.4710 C   0  0  0  0  0  0  0  0  0  0  0  0
   57.4976   28.2117   47.9040 H   0  0  0  0  0  0  0  0  0  0  0  0
   59.2191   28.7527   47.9709 H   0  0  0  0  0  0  0  0  0  0  0  0
  1  2  1  0
  2  3  2  0
  3  4  1  0
  4  5  1  0
  5  6  1  0
  5  7  2  0
  7  8  1  0
  8  9  2  0
  9 10  1  0
  9 11  1  0
 11 12  1  0
 11 13  2  0
 13 14  1  0
 13 15  1  0
 15 16  1  0
 15 17  2  0
 17 18  1  0
  7 19  1  0
 19 20  1  0
 19 21  2  0
 21 22  1  0
 22 23  1  0
 23 24  1  0
 23 25  1  0
 23 26  1  0
 26 27  1  0
 26 28  1  0
 26 29  1  0
 29 30  1  0
 30 31  1  0
 30 32  1  0
 30 33  1  0
 29 34  1  0
 34 35  1  0
 34 36  1  0
 34 37  1  0
 37 38  1  0
 37 39  1  0
 21  3  1  0
 37 22  1  0
 17  8  1  0
M  CHG  2   4  -1  19   1
M  END
>  <UniqueID>  (26) 
22

>  <SMILES>  (26) 
[H]/N=c1\[n-]cc(-c2ccccc2)[nH+]c1N1CCN(C)CC1

>  <Energy>  (26) 
58.67590542526112

>  <Genealogy>  (26) 
CN1CCN(c2[nH+]c(-c3ccccc3)c[n-]c2=N)CC1 (protonated)
[H]/N=c1\[n-]cc(-c2ccccc2)[nH+]c1N1CCN(C)CC1 (cis-trans isomerization)
[H]/N=c1\[n-]cc(-c2ccccc2)[nH+]c1N1CCN(C)CC1 (3D coordinates assigned)
[H]/N=c1\[n-]cc(-c2ccccc2)[nH+]c1N1CCN(C)CC1 (nonaromatic ring conformer: 58.67590542526112 kcal/mol)

>  <smiles>  (26) 
CN1CCN(c2nc(-c3ccccc3)c[nH]c2=N)CC1

>  <score_type>  (26) 
oracle

>  <origin>  (26) 
adg

>  <m_score__min__energy>  (26) 
-6.8700000000000001

>  <m_primary>  (26) 
energy

$$$$
26:0
     RDKit          3D

 63 65  0  0  0  0  0  0  0  0999 V2000
   56.7820   31.2940   52.3270 C   0  0  0  0  0  0  0  0  0  0  0  0
   58.1720   31.3230   52.0200 O   0  0  0  0  0  0  0  0  0  0  0  0
   58.7310   32.0260   50.9420 C   0  0  0  0  0  0  0  0  0  0  0  0
   58.1420   32.0410   49.6650 C   0  0  0  0  0  0  0  0  0  0  0  0
   58.7390   32.7550   48.6230 C   0  0  0  0  0  0  0  0  0  0  0  0
   59.9390   33.4600   48.8260 C   0  0  0  0  0  0  0  0  0  0  0  0
   60.5440   34.2470   47.6600 C   0  0  2  0  0  0  0  0  0  0  0  0
   59.5370   35.2010   46.9640 C   0  0  0  0  0  0  0  0  0  0  0  0
   59.3210   34.7900   45.5670 N   0  0  0  0  0  0  0  0  0  0  0  0
   58.1690   33.8840   45.4450 C   0  0  0  0  0  0  0  0  0  0  0  0
   58.3950   32.8840   44.3060 C   0  0  0  0  0  0  0  0  0  0  0  0
   57.7790   31.5520   44.6400 C   0  0  0  0  0  0  0  0  0  0  0  0
   56.7790   31.0130   43.8190 C   0  0  0  0  0  0  0  0  0  0  0  0
   56.2300   29.7620   44.1050 C   0  0  0  0  0  0  0  0  0  0  0  0
   56.6800   29.0230   45.2160 C   0  0  0  0  0  0  0  0  0  0  0  0
   56.1510   27.7640   45.5360 O   0  0  0  0  0  0  0  0  0  0  0  0
   56.9200   26.5690   45.6410 C   0  0  0  0  0  0  0  0  0  0  0  0
   57.6890   29.5510   46.0370 C   0  0  0  0  0  0  0  0  0  0  0  0
   58.1200   28.7900   47.1350 O   0  0  0  0  0  0  0  0  0  0  0  0
   59.2950   29.0600   47.8930 C   0  0  0  0  0  0  0  0  0  0  0  0
   58.2400   30.8150   45.7410 C   0  0  0  0  0  0  0  0  0  0  0  0
   61.3100   33.3560   46.7270 N   0  0  0  0  0  0  0  0  0  0  0  0
   62.6720   33.8260   46.3560 C   0  0  0  0  0  0  0  0  0  0  0  0
   63.7730   33.4680   47.3810 C   0  0  0  0  0  0  0  0  0  0  0  0
   63.3810   32.3810   48.2850 N   0  0  0  0  0  0  0  0  0  0  0  0
   62.6340   31.3550   47.5600 C   0  0  0  0  0  0  0  0  0  0  0  0
   61.2720   31.9140   47.1180 C   0  0  0  0  0  0  0  0  0  0  0  0
   60.5130   33.4520   50.1130 C   0  0  0  0  0  0  0  0  0  0  0  0
   59.9150   32.7370   51.1540 C   0  0  0  0  0  0  0  0  0  0  0  0
   56.6476   31.2912   53.4188 H   0  0  0  0  0  0  0  0  0  0  0  0
   56.2935   32.1821   51.8997 H   0  0  0  0  0  0  0  0  0  0  0  0
   56.3310   30.3863   51.8997 H   0  0  0  0  0  0  0  0  0  0  0  0
   57.2078   31.4885   49.4859 H   0  0  0  0  0  0  0  0  0  0  0  0
   58.2643   32.7659   47.6308 H   0  0  0  0  0  0  0  0  0  0  0  0
   61.2873   34.9342   48.0904 H   0  0  0  0  0  0  0  0  0  0  0  0
   58.5784   35.1715   47.5027 H   0  0  0  0  0  0  0  0  0  0  0  0
   59.9465   36.2219   46.9760 H   0  0  0  0  0  0  0  0  0  0  0  0
   59.1040   35.6470   45.0090 H   0  0  0  0  0  0  0  0  0  0  0  0
   58.0381   33.3348   46.3890 H   0  0  0  0  0  0  0  0  0  0  0  0
   57.2694   34.4778   45.2257 H   0  0  0  0  0  0  0  0  0  0  0  0
   57.9354   33.2742   43.3859 H   0  0  0  0  0  0  0  0  0  0  0  0
   59.4772   32.7482   44.1630 H   0  0  0  0  0  0  0  0  0  0  0  0
   56.4250   31.5789   42.9447 H   0  0  0  0  0  0  0  0  0  0  0  0
   55.4408   29.3508   43.4584 H   0  0  0  0  0  0  0  0  0  0  0  0
   57.0765   26.3258   46.7023 H   0  0  0  0  0  0  0  0  0  0  0  0
   56.3833   25.7433   45.1509 H   0  0  0  0  0  0  0  0  0  0  0  0
   57.8938   26.7154   45.1509 H   0  0  0  0  0  0  0  0  0  0  0  0
   59.0595   29.0059   48.9661 H   0  0  0  0  0  0  0  0  0  0  0  0
   60.0677   28.3160   47.6492 H   0  0  0  0  0  0  0  0  0  0  0  0
   59.6654   30.0667   47.6492 H   0  0  0  0  0  0  0  0  0  0  0  0
   59.0370   31.2260   46.3781 H   0  0  0  0  0  0  0  0  0  0  0  0
   60.7690   33.3990   45.8290 H   0  0  0  0  0  0  0  0  0  0  0  0
   62.9409   33.3733   45.3902 H   0  0  0  0  0  0  0  0  0  0  0  0
   62.6250   34.9243   46.3168 H   0  0  0  0  0  0  0  0  0  0  0  0
   64.6758   33.1602   46.8330 H   0  0  0  0  0  0  0  0  0  0  0  0
   63.9524   34.3611   47.9976 H   0  0  0  0  0  0  0  0  0  0  0  0
   64.2510   31.9430   48.6680 H   0  0  0  0  0  0  0  0  0  0  0  0
   63.2064   31.0453   46.6732 H   0  0  0  0  0  0  0  0  0  0  0  0
   62.4735   30.4896   48.2198 H   0  0  0  0  0  0  0  0  0  0  0  0
   60.9209   31.3297   46.2547 H   0  0  0  0  0  0  0  0  0  0  0  0
   60.5970   31.8342   47.9829 H   0  0  0  0  0  0  0  0  0  0  0  0
   61.4402   34.0137   50.2998 H   0  0  0  0  0  0  0  0  0  0  0  0
   60.3810   32.7338   52.1504 H   0  0  0  0  0  0  0  0  0  0  0  0
  1  2  1  0
  2  3  1  0
  3  4  2  0
  4  5  1  0
  5  6  2  0
  6  7  1  0
  7  8  1  0
  8  9  1  0
  9 10  1  0
 10 11  1  0
 11 12  1  0
 12 13  2  0
 13 14  1  0
 14 15  2  0
 15 16  1  0
 16 17  1  0
 15 18  1  0
 18 19  1  0
 19 20  1  0
 18 21  2  0
  7 22  1  0
 22 23  1  0
 23 24  1  0
 24 25  1  0
 25 26  1  0
 26 27  1  0
  6 28  1  0
 28 29  2  0
 29  3  1  0
 21 12  1  0
 27 22  1  0
  1 30  1  0
  1 31  1  0
  1 32  1  0
  4 33  1  0
  5 34  1  0
  7 35  1  1
  8 36  1  0
  8 37  1  0
  9 38  1  0
 10 39  1  0
 10 40  1  0
 11 41  1  0
 11 42  1  0
 13 43  1  0
 14 44  1  0
 17 45  1  0
 17 46  1  0
 17 47  1  0
 20 48  1  0
 20 49  1  0
 20 50  1  0
 21 51  1  0
 22 52  1  0
 23 53  1  0
 23 54  1  0
 24 55  1  0
 24 56  1  0
 25 57  1  0
 26 58  1  0
 26 59  1  0
 27 60  1  0
 27 61  1  0
 28 62  1  0
 29 63  1  0
M  CHG  1  22   1
M  END
>  <UniqueID>  (27) 
23

>  <SMILES>  (27) 
COc1ccc([C@H](CNCCc2ccc(OC)c(OC)c2)[NH+]2CCNCC2)cc1

>  <Energy>  (27) 
78.92411211029415

>  <Genealogy>  (27) 
COc1ccc(C(CNCCc2ccc(OC)c(OC)c2)[NH+]2CCNCC2)cc1 (protonated)
COc1ccc([C@H](CNCCc2ccc(OC)c(OC)c2)[NH+]2CCNCC2)cc1 (chirality)
COc1ccc([C@H](CNCCc2ccc(OC)c(OC)c2)[NH+]2CCNCC2)cc1 (3D coordinates assigned)
COc1ccc([C@H](CNCCc2ccc(OC)c(OC)c2)[NH+]2CCNCC2)cc1 (nonaromatic ring conformer: 78.92411211029415 kcal/mol)

>  <smiles>  (27) 
COc1ccc(C(CNCCc2ccc(OC)c(OC)c2)N2CCNCC2)cc1

>  <score_type>  (27) 
oracle

>  <origin>  (27) 
adg

>  <m_score__min__energy>  (27) 
-6.5999999999999996

>  <m_primary>  (27) 
energy

$$$$
27:0
     RDKit          3D

 66 70  0  0  0  0  0  0  0  0999 V2000
   57.4530   32.3300   52.0120 C   0  0  0  0  0  0  0  0  0  0  0  0
   58.8740   32.7930   51.6560 C   0  0  0  0  0  0  0  0  0  0  0  0
   59.7090   31.7450   51.0290 N   0  0  0  0  0  0  0  0  0  0  0  0
   59.1220   30.3990   51.1190 C   0  0  0  0  0  0  0  0  0  0  0  0
   61.1250   31.7840   51.4550 C   0  0  0  0  0  0  0  0  0  0  0  0
   62.0260   31.3110   50.3120 C   0  0  0  0  0  0  0  0  0  0  0  0
   63.3340   31.9700   50.3780 N   0  0  0  0  0  0  0  0  0  0  0  0
   64.3700   31.5530   51.1310 C   0  0  0  0  0  0  0  0  0  0  0  0
   65.4490   32.3850   50.8910 C   0  0  0  0  0  0  0  0  0  0  0  0
   66.7990   32.2850   51.4960 C   0  0  0  0  0  0  0  0  0  0  0  0
   67.1840   31.1300   52.2020 C   0  0  0  0  0  0  0  0  0  0  0  0
   68.4620   31.0370   52.7640 C   0  0  0  0  0  0  0  0  0  0  0  0
   69.3650   32.0930   52.6320 C   0  0  0  0  0  0  0  0  0  0  0  0
   68.9940   33.2440   51.9360 C   0  0  0  0  0  0  0  0  0  0  0  0
   67.7190   33.3420   51.3700 C   0  0  0  0  0  0  0  0  0  0  0  0
   65.0810   33.3110   49.9820 N   0  0  0  0  0  0  0  0  0  0  0  0
   63.7980   33.0300   49.6710 C   0  0  0  0  0  0  0  0  0  0  0  0
   63.0030   33.8320   48.6600 C   0  0  0  0  0  0  0  0  0  0  0  0
   62.9890   33.0940   47.3040 C   0  0  0  0  0  0  0  0  0  0  0  0
   61.8680   33.6030   46.3960 C   0  0  0  0  0  0  0  0  0  0  0  0
   60.5670   33.4860   47.0660 N   0  0  0  0  0  0  0  0  0  0  0  0
   59.3720   33.4280   46.2780 C   0  0  0  0  0  0  0  0  0  0  0  0
   58.7250   34.5830   45.9710 N   0  0  0  0  0  0  0  0  0  0  0  0
   57.5840   34.5810   45.2330 C   0  0  0  0  0  0  0  0  0  0  0  0
   57.0630   33.4100   44.7850 N   0  0  0  0  0  0  0  0  0  0  0  0
   57.6650   32.2250   45.0630 C   0  0  0  0  0  0  0  0  0  0  0  0
   57.1090   31.0280   44.5940 C   0  0  0  0  0  0  0  0  0  0  0  0
   57.7250   29.8080   44.8850 C   0  0  0  0  0  0  0  0  0  0  0  0
   58.8990   29.7760   45.6430 C   0  0  0  0  0  0  0  0  0  0  0  0
   59.4650   30.9650   46.1150 C   0  0  0  0  0  0  0  0  0  0  0  0
   58.8520   32.1990   45.8280 C   0  0  0  0  0  0  0  0  0  0  0  0
   60.4760   33.3530   48.5230 C   0  0  0  0  0  0  0  0  0  0  0  0
   61.5840   34.1650   49.2010 C   0  0  0  0  0  0  0  0  0  0  0  0
   57.3424   32.2940   53.1058 H   0  0  0  0  0  0  0  0  0  0  0  0
   56.7214   33.0362   51.5925 H   0  0  0  0  0  0  0  0  0  0  0  0
   57.2779   31.3283   51.5925 H   0  0  0  0  0  0  0  0  0  0  0  0
   58.7972   33.6385   50.9566 H   0  0  0  0  0  0  0  0  0  0  0  0
   59.3652   33.0682   52.6010 H   0  0  0  0  0  0  0  0  0  0  0  0
   59.0011   30.1217   52.1766 H   0  0  0  0  0  0  0  0  0  0  0  0
   58.1398   30.3935   50.6239 H   0  0  0  0  0  0  0  0  0  0  0  0
   59.7863   29.6754   50.6239 H   0  0  0  0  0  0  0  0  0  0  0  0
   61.3950   32.8143   51.7298 H   0  0  0  0  0  0  0  0  0  0  0  0
   61.2609   31.1203   52.3216 H   0  0  0  0  0  0  0  0  0  0  0  0
   62.1655   30.2226   50.3887 H   0  0  0  0  0  0  0  0  0  0  0  0
   61.5481   31.5675   49.3550 H   0  0  0  0  0  0  0  0  0  0  0  0
   64.3599   30.6958   51.8203 H   0  0  0  0  0  0  0  0  0  0  0  0
   66.4760   30.2954   52.3126 H   0  0  0  0  0  0  0  0  0  0  0  0
   68.7558   30.1292   53.3113 H   0  0  0  0  0  0  0  0  0  0  0  0
   70.3685   32.0179   53.0763 H   0  0  0  0  0  0  0  0  0  0  0  0
   69.7060   34.0761   51.8323 H   0  0  0  0  0  0  0  0  0  0  0  0
   67.4333   34.2521   50.8223 H   0  0  0  0  0  0  0  0  0  0  0  0
   65.6700   34.0670   49.5710 H   0  0  0  0  0  0  0  0  0  0  0  0
   63.4900   34.8040   48.4924 H   0  0  0  0  0  0  0  0  0  0  0  0
   63.9547   33.2524   46.8016 H   0  0  0  0  0  0  0  0  0  0  0  0
   62.8164   32.0248   47.4966 H   0  0  0  0  0  0  0  0  0  0  0  0
   62.0539   34.6587   46.1493 H   0  0  0  0  0  0  0  0  0  0  0  0
   61.8507   32.9953   45.4793 H   0  0  0  0  0  0  0  0  0  0  0  0
   57.0811   35.5307   44.9979 H   0  0  0  0  0  0  0  0  0  0  0  0
   56.1861   31.0484   43.9958 H   0  0  0  0  0  0  0  0  0  0  0  0
   57.2846   28.8698   44.5164 H   0  0  0  0  0  0  0  0  0  0  0  0
   59.3794   28.8126   45.8691 H   0  0  0  0  0  0  0  0  0  0  0  0
   60.3893   30.9355   46.7106 H   0  0  0  0  0  0  0  0  0  0  0  0
   59.4966   33.7228   48.8607 H   0  0  0  0  0  0  0  0  0  0  0  0
   60.5923   32.2932   48.7936 H   0  0  0  0  0  0  0  0  0  0  0  0
   61.3873   35.2341   49.0328 H   0  0  0  0  0  0  0  0  0  0  0  0
   61.5720   33.9070   50.2702 H   0  0  0  0  0  0  0  0  0  0  0  0
  1  2  1  0
  2  3  1  0
  3  4  1  0
  3  5  1  0
  5  6  1  0
  6  7  1  0
  7  8  1  0
  8  9  2  0
  9 10  1  0
 10 11  2  0
 11 12  1  0
 12 13  2  0
 13 14  1  0
 14 15  2  0
  9 16  1  0
 16 17  2  0
 17 18  1  0
 18 19  1  0
 19 20  1  0
 20 21  1  0
 21 22  1  0
 22 23  2  0
 23 24  1  0
 24 25  2  0
 25 26  1  0
 26 27  2  0
 27 28  1  0
 28 29  2  0
 29 30  1  0
 30 31  2  0
 21 32  1  0
 32 33  1  0
 17  7  1  0
 33 18  1  0
 15 10  1  0
 31 22  1  0
 31 26  1  0
  1 34  1  0
  1 35  1  0
  1 36  1  0
  2 37  1  0
  2 38  1  0
  4 39  1  0
  4 40  1  0
  4 41  1  0
  5 42  1  0
  5 43  1  0
  6 44  1  0
  6 45  1  0
  8 46  1  0
 11 47  1  0
 12 48  1  0
 13 49  1  0
 14 50  1  0
 15 51  1  0
 16 52  1  0
 18 53  1  0
 19 54  1  0
 19 55  1  0
 20 56  1  0
 20 57  1  0
 24 58  1  0
 27 59  1  0
 28 60  1  0
 29 61  1  0
 30 62  1  0
 32 63  1  0
 32 64  1  0
 33 65  1  0
 33 66  1  0
M  CHG  1  16   1
M  END
>  <UniqueID>  (28) 
24

>  <SMILES>  (28) 
CCN(C)CCn1cc(-c2ccccc2)[nH+]c1C1CCN(c2ncnc3ccccc23)CC1

>  <Energy>  (28) 
114.32077076363937

>  <Genealogy>  (28) 
CCN(C)CCn1cc(-c2ccccc2)[nH+]c1C1CCN(c2ncnc3ccccc23)CC1 (protonated)
CCN(C)CCn1cc(-c2ccccc2)[nH+]c1C1CCN(c2ncnc3ccccc23)CC1 (3D coordinates assigned)
CCN(C)CCn1cc(-c2ccccc2)[nH+]c1C1CCN(c2ncnc3ccccc23)CC1 (nonaromatic ring conformer: 114.32077076363937 kcal/mol)

>  <smiles>  (28) 
CCN(C)CCn1cc(-c2ccccc2)nc1C1CCN(c2ncnc3ccccc23)CC1

>  <score_type>  (28) 
oracle

>  <origin>  (28) 
adg

>  <m_score__min__energy>  (28) 
-7.6399999999999997

>  <m_primary>  (28) 
energy

$$$$
28:0
     RDKit          3D

 35 37  0  0  0  0  0  0  0  0999 V2000
   56.6400   28.1560   45.2330 C   0  0  0  0  0  0  0  0  0  0  0  0
   55.6180   29.1150   44.8100 N   0  0  0  0  0  0  0  0  0  0  0  0
   56.0730   29.8520   43.6230 C   0  0  0  0  0  0  0  0  0  0  0  0
   57.1920   30.8280   43.9940 C   0  0  0  0  0  0  0  0  0  0  0  0
   57.4060   30.8540   45.4410 N   0  0  0  0  0  0  0  0  0  0  0  0
   58.6950   31.1110   46.0190 C   0  0  0  0  0  0  0  0  0  0  0  0
   59.5100   30.0150   46.3990 C   0  0  0  0  0  0  0  0  0  0  0  0
   60.7970   30.2200   46.9390 C   0  0  0  0  0  0  0  0  0  0  0  0
   61.2480   31.5300   47.1050 C   0  0  0  0  0  0  0  0  0  0  0  0
   60.4480   32.5740   46.7660 C   0  0  0  0  0  0  0  0  0  0  0  0
   61.0240   33.7740   47.0430 C   0  0  0  0  0  0  0  0  0  0  0  0
   60.3240   34.9580   46.8060 C   0  0  0  0  0  0  0  0  0  0  0  0
   59.0160   34.8730   46.2860 C   0  0  0  0  0  0  0  0  0  0  0  0
   58.4310   33.6150   46.0080 C   0  0  0  0  0  0  0  0  0  0  0  0
   59.1660   32.4310   46.2370 C   0  0  0  0  0  0  0  0  0  0  0  0
   62.3860   33.5730   47.6290 C   0  0  0  0  0  0  0  0  0  0  0  0
   62.5410   32.0270   47.6700 C   0  0  0  0  0  0  0  0  0  0  0  0
   56.6774   28.1209   46.3318 H   0  0  0  0  0  0  0  0  0  0  0  0
   56.3907   27.1583   44.8425 H   0  0  0  0  0  0  0  0  0  0  0  0
   57.6198   28.4682   44.8425 H   0  0  0  0  0  0  0  0  0  0  0  0
   54.7710   28.5620   44.5460 H   0  0  0  0  0  0  0  0  0  0  0  0
   56.4487   29.1378   42.8755 H   0  0  0  0  0  0  0  0  0  0  0  0
   55.2264   30.4213   43.2117 H   0  0  0  0  0  0  0  0  0  0  0  0
   58.1224   30.5140   43.4983 H   0  0  0  0  0  0  0  0  0  0  0  0
   56.9014   31.8364   43.6643 H   0  0  0  0  0  0  0  0  0  0  0  0
   56.6750   30.4160   46.0480 H   0  0  0  0  0  0  0  0  0  0  0  0
   59.1332   28.9895   46.2709 H   0  0  0  0  0  0  0  0  0  0  0  0
   61.4305   29.3667   47.2227 H   0  0  0  0  0  0  0  0  0  0  0  0
   60.7821   35.9349   47.0199 H   0  0  0  0  0  0  0  0  0  0  0  0
   58.4450   35.7935   46.0947 H   0  0  0  0  0  0  0  0  0  0  0  0
   57.4054   33.5593   45.6142 H   0  0  0  0  0  0  0  0  0  0  0  0
   63.1587   34.0286   46.9923 H   0  0  0  0  0  0  0  0  0  0  0  0
   62.4992   34.0406   48.6182 H   0  0  0  0  0  0  0  0  0  0  0  0
   63.3909   31.7008   47.0525 H   0  0  0  0  0  0  0  0  0  0  0  0
   62.7415   31.6437   48.6814 H   0  0  0  0  0  0  0  0  0  0  0  0
  1  2  1  0
  2  3  1  0
  3  4  1  0
  4  5  1  0
  5  6  1  0
  6  7  2  0
  7  8  1  0
  8  9  2  0
  9 10  1  0
 10 11  2  0
 11 12  1  0
 12 13  2  0
 13 14  1  0
 14 15  2  0
 11 16  1  0
 16 17  1  0
 15  6  1  0
 17  9  1  0
 15 10  1  0
  1 18  1  0
  1 19  1  0
  1 20  1  0
  2 21  1  0
  3 22  1  0
  3 23  1  0
  4 24  1  0
  4 25  1  0
  5 26  1  0
  7 27  1  0
  8 28  1  0
 12 29  1  0
 13 30  1  0
 14 31  1  0
 16 32  1  0
 16 33  1  0
 17 34  1  0
 17 35  1  0
M  END
>  <UniqueID>  (29) 
25

>  <SMILES>  (29) 
CNCCNc1ccc2c3c(cccc13)CC2

>  <Energy>  (29) 
57.496119707882656

>  <Genealogy>  (29) 
CNCCNc1ccc2c3c(cccc13)CC2 (3D coordinates assigned)
CNCCNc1ccc2c3c(cccc13)CC2 (nonaromatic ring conformer: 57.496119707882656 kcal/mol)

>  <smiles>  (29) 
CNCCNc1ccc2c3c(cccc13)CC2

>  <score_type>  (29) 
oracle

>  <origin>  (29) 
adg

>  <m_score__min__energy>  (29) 
-7.04

>  <m_primary>  (29) 
energy

$$$$
29:0
     RDKit          3D

 33 35  0  0  0  0  0  0  0  0999 V2000
   56.9180   24.4520   46.2880 C   0  0  0  0  0  0  0  0  0  0  0  0
   57.7470   25.4600   46.8570 O   0  0  0  0  0  0  0  0  0  0  0  0
   58.0570   26.6770   46.2310 C   0  0  0  0  0  0  0  0  0  0  0  0
   59.3750   27.0250   45.8650 C   0  0  0  0  0  0  0  0  0  0  0  0
   59.6360   28.2510   45.2430 C   0  0  0  0  0  0  0  0  0  0  0  0
   58.5880   29.1380   44.9830 C   0  0  0  0  0  0  0  0  0  0  0  0
   58.8210   30.3330   44.3830 N   0  0  0  0  0  0  0  0  0  0  0  0
   57.7960   31.1900   44.1400 C   0  0  0  0  0  0  0  0  0  0  0  0
   58.1130   32.7740   43.3690 S   0  0  0  0  0  0  0  0  0  0  0  0
   57.3840   33.7550   44.7270 C   0  0  0  0  0  0  0  0  0  0  0  0
   58.3100   33.8080   45.9120 C   0  0  0  0  0  0  0  0  0  0  0  0
   58.0210   33.0610   47.0650 C   0  0  0  0  0  0  0  0  0  0  0  0
   58.8940   33.0860   48.1570 C   0  0  0  0  0  0  0  0  0  0  0  0
   60.0630   33.8530   48.1030 C   0  0  0  0  0  0  0  0  0  0  0  0
   60.3590   34.5940   46.9560 C   0  0  0  0  0  0  0  0  0  0  0  0
   59.4870   34.5730   45.8630 C   0  0  0  0  0  0  0  0  0  0  0  0
   56.5290   30.8440   44.4910 N   0  0  0  0  0  0  0  0  0  0  0  0
   56.2740   29.6760   45.0810 N   0  0  0  0  0  0  0  0  0  0  0  0
   57.2740   28.7970   45.3450 C   0  0  0  0  0  0  0  0  0  0  0  0
   57.0110   27.5720   45.9660 C   0  0  0  0  0  0  0  0  0  0  0  0
   56.4412   23.8723   47.0921 H   0  0  0  0  0  0  0  0  0  0  0  0
   56.1425   24.9230   45.6661 H   0  0  0  0  0  0  0  0  0  0  0  0
   57.5298   23.7820   45.6661 H   0  0  0  0  0  0  0  0  0  0  0  0
   60.2015   26.3286   46.0698 H   0  0  0  0  0  0  0  0  0  0  0  0
   60.6651   28.5162   44.9590 H   0  0  0  0  0  0  0  0  0  0  0  0
   57.1968   34.7788   44.3708 H   0  0  0  0  0  0  0  0  0  0  0  0
   56.4435   33.2771   45.0386 H   0  0  0  0  0  0  0  0  0  0  0  0
   57.1047   32.4540   47.1095 H   0  0  0  0  0  0  0  0  0  0  0  0
   58.6614   32.5019   49.0597 H   0  0  0  0  0  0  0  0  0  0  0  0
   60.7486   33.8726   48.9630 H   0  0  0  0  0  0  0  0  0  0  0  0
   61.2794   35.1948   46.9127 H   0  0  0  0  0  0  0  0  0  0  0  0
   59.7236   35.1576   44.9617 H   0  0  0  0  0  0  0  0  0  0  0  0
   55.9804   27.3099   46.2474 H   0  0  0  0  0  0  0  0  0  0  0  0
  1  2  1  0
  2  3  1  0
  3  4  2  0
  4  5  1  0
  5  6  2  0
  6  7  1  0
  7  8  2  0
  8  9  1  0
  9 10  1  0
 10 11  1  0
 11 12  2  0
 12 13  1  0
 13 14  2  0
 14 15  1  0
 15 16  2  0
  8 17  1  0
 17 18  2  0
 18 19  1  0
 19 20  2  0
 20  3  1  0
 19  6  1  0
 16 11  1  0
  1 21  1  0
  1 22  1  0
  1 23  1  0
  4 24  1  0
  5 25  1  0
 10 26  1  0
 10 27  1  0
 12 28  1  0
 13 29  1  0
 14 30  1  0
 15 31  1  0
 16 32  1  0
 20 33  1  0
M  END
>  <UniqueID>  (30) 
26

>  <SMILES>  (30) 
COc1ccc2nc(SCc3ccccc3)nnc2c1

>  <Energy>  (30) 
34.38514574696403

>  <Genealogy>  (30) 
COc1ccc2nc(SCc3ccccc3)nnc2c1 (3D coordinates assigned)
COc1ccc2nc(SCc3ccccc3)nnc2c1 (optimized conformer: 34.38514574696403 kcal/mol)

>  <smiles>  (30) 
COc1ccc2nc(SCc3ccccc3)nnc2c1

>  <score_type>  (30) 
oracle

>  <origin>  (30) 
adg

>  <m_score__min__energy>  (30) 
-7.5099999999999998

>  <m_primary>  (30) 
energy

$$$$
30:0
     RDKit          3D

 54 57  0  0  0  0  0  0  0  0999 V2000
   56.9360   29.2880   43.2930 C   0  0  0  0  0  0  0  0  0  0  0  0
   57.3370   30.6250   43.8430 C   0  0  0  0  0  0  0  0  0  0  0  0
   57.4040   30.8270   45.2280 C   0  0  0  0  0  0  0  0  0  0  0  0
   57.8190   32.0610   45.7420 C   0  0  0  0  0  0  0  0  0  0  0  0
   58.1830   33.1060   44.8770 C   0  0  0  0  0  0  0  0  0  0  0  0
   58.6740   34.4130   45.4310 C   0  0  0  0  0  0  0  0  0  0  0  0
   60.4070   34.2210   45.9780 S   0  0  0  0  0  0  0  0  0  0  0  0
   60.1310   34.6040   47.7430 C   0  0  0  0  0  0  0  0  0  0  0  0
   59.0030   33.7560   48.3310 C   0  0  0  0  0  0  0  0  0  0  0  0
   59.5160   32.6410   49.1230 N   0  0  0  0  0  0  0  0  0  0  0  0
   58.6580   31.7570   49.8480 C   0  0  0  0  0  0  0  0  0  0  0  0
   57.6550   32.2250   50.4520 O   0  0  0  0  0  0  0  0  0  0  0  0
   58.8690   30.2690   49.8080 C   0  0  0  0  0  0  0  0  0  0  0  0
   60.0010   29.8910   48.9490 N   0  0  0  0  0  0  0  0  0  0  0  0
   61.3290   30.1080   49.4170 C   0  0  0  0  0  0  0  0  0  0  0  0
   61.7830   29.4170   50.3650 O   0  0  0  0  0  0  0  0  0  0  0  0
   62.1110   31.2160   48.8800 C   0  0  0  0  0  0  0  0  0  0  0  0
   62.8610   32.0000   49.7710 C   0  0  0  0  0  0  0  0  0  0  0  0
   63.5560   33.1150   49.3120 C   0  0  0  0  0  0  0  0  0  0  0  0
   63.5050   33.4390   47.9600 C   0  0  0  0  0  0  0  0  0  0  0  0
   62.7940   32.6630   47.1020 N   0  0  0  0  0  0  0  0  0  0  0  0
   62.1010   31.5590   47.5090 C   0  0  0  0  0  0  0  0  0  0  0  0
   61.4840   30.7990   46.4970 O   0  0  0  0  0  0  0  0  0  0  0  0
   60.5740   29.7260   46.5240 C   0  0  0  0  0  0  0  0  0  0  0  0
   60.3840   29.0740   45.2930 C   0  0  0  0  0  0  0  0  0  0  0  0
   59.4400   28.0620   45.1510 C   0  0  0  0  0  0  0  0  0  0  0  0
   58.6590   27.6850   46.2420 C   0  0  0  0  0  0  0  0  0  0  0  0
   58.8360   28.3050   47.4800 C   0  0  0  0  0  0  0  0  0  0  0  0
   59.8040   29.3180   47.6470 C   0  0  0  0  0  0  0  0  0  0  0  0
   58.1420   32.8940   43.4920 C   0  0  0  0  0  0  0  0  0  0  0  0
   57.7210   31.6620   42.9780 C   0  0  0  0  0  0  0  0  0  0  0  0
   56.7288   28.5971   44.1235 H   0  0  0  0  0  0  0  0  0  0  0  0
   56.0323   29.4013   42.6761 H   0  0  0  0  0  0  0  0  0  0  0  0
   57.7529   28.8853   42.6761 H   0  0  0  0  0  0  0  0  0  0  0  0
   57.1293   30.0123   45.9142 H   0  0  0  0  0  0  0  0  0  0  0  0
   57.8603   32.2134   46.8306 H   0  0  0  0  0  0  0  0  0  0  0  0
   58.6179   35.1872   44.6516 H   0  0  0  0  0  0  0  0  0  0  0  0
   58.0479   34.7108   46.2850 H   0  0  0  0  0  0  0  0  0  0  0  0
   61.0573   34.4033   48.3013 H   0  0  0  0  0  0  0  0  0  0  0  0
   59.8454   35.6631   47.8256 H   0  0  0  0  0  0  0  0  0  0  0  0
   58.3785   34.3923   48.9753 H   0  0  0  0  0  0  0  0  0  0  0  0
   58.4180   33.3411   47.4969 H   0  0  0  0  0  0  0  0  0  0  0  0
   59.0648   29.9115   50.8297 H   0  0  0  0  0  0  0  0  0  0  0  0
   57.9605   29.8104   49.3904 H   0  0  0  0  0  0  0  0  0  0  0  0
   62.8995   31.7317   50.8371 H   0  0  0  0  0  0  0  0  0  0  0  0
   64.1391   33.7332   50.0104 H   0  0  0  0  0  0  0  0  0  0  0  0
   64.0407   34.3239   47.5860 H   0  0  0  0  0  0  0  0  0  0  0  0
   62.7920   32.9180   46.0890 H   0  0  0  0  0  0  0  0  0  0  0  0
   60.9931   29.3695   44.4260 H   0  0  0  0  0  0  0  0  0  0  0  0
   59.3104   27.5608   44.1804 H   0  0  0  0  0  0  0  0  0  0  0  0
   57.9008   26.8964   46.1271 H   0  0  0  0  0  0  0  0  0  0  0  0
   58.2141   28.0006   48.3347 H   0  0  0  0  0  0  0  0  0  0  0  0
   58.4421   33.6997   42.8058 H   0  0  0  0  0  0  0  0  0  0  0  0
   57.6908   31.5054   41.8896 H   0  0  0  0  0  0  0  0  0  0  0  0
  1  2  1  0
  2  3  2  0
  3  4  1  0
  4  5  2  0
  5  6  1  0
  6  7  1  0
  7  8  1  0
  8  9  1  0
  9 10  1  0
 10 11  1  0
 11 12  2  0
 11 13  1  0
 13 14  1  0
 14 15  1  0
 15 16  2  0
 15 17  1  0
 17 18  2  0
 18 19  1  0
 19 20  2  0
 20 21  1  0
 21 22  2  0
 22 23  1  0
 23 24  1  0
 24 25  2  0
 25 26  1  0
 26 27  2  0
 27 28  1  0
 28 29  2  0
  5 30  1  0
 30 31  2  0
 31  2  1  0
 29 14  1  0
 22 17  1  0
 29 24  1  0
  1 32  1  0
  1 33  1  0
  1 34  1  0
  3 35  1  0
  4 36  1  0
  6 37  1  0
  6 38  1  0
  8 39  1  0
  8 40  1  0
  9 41  1  0
  9 42  1  0
 13 43  1  0
 13 44  1  0
 18 45  1  0
 19 46  1  0
 20 47  1  0
 21 48  1  0
 25 49  1  0
 26 50  1  0
 27 51  1  0
 28 52  1  0
 30 53  1  0
 31 54  1  0
M  CHG  2  10  -1  21   1
M  END
>  <UniqueID>  (31) 
27

>  <SMILES>  (31) 
Cc1ccc(CSCC[N-]C(=O)CN2C(=O)c3ccc[nH+]c3Oc3ccccc32)cc1

>  <Energy>  (31) 
86.3282419499223

>  <Genealogy>  (31) 
Cc1ccc(CSCC[N-]C(=O)CN2C(=O)c3ccc[nH+]c3Oc3ccccc32)cc1 (protonated)
Cc1ccc(CSCC[N-]C(=O)CN2C(=O)c3ccc[nH+]c3Oc3ccccc32)cc1 (3D coordinates assigned)
Cc1ccc(CSCC[N-]C(=O)CN2C(=O)c3ccc[nH+]c3Oc3ccccc32)cc1 (nonaromatic ring conformer: 86.3282419499223 kcal/mol)

>  <smiles>  (31) 
Cc1ccc(CSCCNC(=O)CN2C(=O)c3cccnc3Oc3ccccc32)cc1

>  <score_type>  (31) 
oracle

>  <origin>  (31) 
adg

>  <m_score__min__energy>  (31) 
-9.3800000000000008

>  <m_primary>  (31) 
energy

$$$$
31:0
     RDKit          3D

 36 38  0  0  0  0  0  0  0  0999 V2000
   61.5120   31.0790   47.6080 C   0  0  0  0  0  0  0  0  0  0  0  0
   60.2970   31.2710   46.8910 O   0  0  0  0  0  0  0  0  0  0  0  0
   59.8250   32.5120   46.4340 C   0  0  0  0  0  0  0  0  0  0  0  0
   60.4840   33.7150   46.7630 C   0  0  0  0  0  0  0  0  0  0  0  0
   60.0290   34.9340   46.2570 C   0  0  0  0  0  0  0  0  0  0  0  0
   58.9190   34.9720   45.4160 C   0  0  0  0  0  0  0  0  0  0  0  0
   58.2510   33.7920   45.0870 C   0  0  0  0  0  0  0  0  0  0  0  0
   58.6810   32.5570   45.6020 C   0  0  0  0  0  0  0  0  0  0  0  0
   57.9310   31.3320   45.2410 C   0  0  0  0  0  0  0  0  0  0  0  0
   56.6360   31.3360   44.8640 N   0  0  0  0  0  0  0  0  0  0  0  0
   56.3310   30.0870   44.6700 O   0  0  0  0  0  0  0  0  0  0  0  0
   57.3710   29.3250   44.9180 C   0  0  0  0  0  0  0  0  0  0  0  0
   57.3600   27.8480   44.8050 C   0  0  0  0  0  0  0  0  0  0  0  0
   57.7660   27.2420   43.6040 C   0  0  0  0  0  0  0  0  0  0  0  0
   57.7650   25.8500   43.4760 C   0  0  0  0  0  0  0  0  0  0  0  0
   57.3640   25.0460   44.5480 C   0  0  0  0  0  0  0  0  0  0  0  0
   57.3600   23.2610   44.3810 S   0  0  0  0  0  0  0  0  0  0  0  0
   56.1320   23.2670   43.0380 C   0  0  0  0  0  0  0  0  0  0  0  0
   56.9570   25.6390   45.7470 C   0  0  0  0  0  0  0  0  0  0  0  0
   56.9550   27.0320   45.8780 C   0  0  0  0  0  0  0  0  0  0  0  0
   58.4230   30.0770   45.2920 N   0  0  0  0  0  0  0  0  0  0  0  0
   61.3090   31.1111   48.6886 H   0  0  0  0  0  0  0  0  0  0  0  0
   61.9426   30.1017   47.3447 H   0  0  0  0  0  0  0  0  0  0  0  0
   62.2230   31.8759   47.3447 H   0  0  0  0  0  0  0  0  0  0  0  0
   61.3634   33.6925   47.4235 H   0  0  0  0  0  0  0  0  0  0  0  0
   60.5481   35.8666   46.5230 H   0  0  0  0  0  0  0  0  0  0  0  0
   58.5689   35.9330   45.0110 H   0  0  0  0  0  0  0  0  0  0  0  0
   57.3788   33.8287   44.4177 H   0  0  0  0  0  0  0  0  0  0  0  0
   58.0870   27.8677   42.7582 H   0  0  0  0  0  0  0  0  0  0  0  0
   58.0803   25.3858   42.5299 H   0  0  0  0  0  0  0  0  0  0  0  0
   55.1192   23.2719   43.4672 H   0  0  0  0  0  0  0  0  0  0  0  0
   56.2716   24.1645   42.4175 H   0  0  0  0  0  0  0  0  0  0  0  0
   56.2629   22.3682   42.4175 H   0  0  0  0  0  0  0  0  0  0  0  0
   56.6374   25.0085   46.5898 H   0  0  0  0  0  0  0  0  0  0  0  0
   56.6352   27.4920   46.8247 H   0  0  0  0  0  0  0  0  0  0  0  0
   59.3690   29.7660   45.6060 H   0  0  0  0  0  0  0  0  0  0  0  0
  1  2  1  0
  2  3  1  0
  3  4  2  0
  4  5  1  0
  5  6  2  0
  6  7  1  0
  7  8  2  0
  8  9  1  0
  9 10  2  0
 10 11  1  0
 11 12  1  0
 12 13  1  0
 13 14  2  0
 14 15  1  0
 15 16  2  0
 16 17  1  0
 17 18  1  0
 16 19  1  0
 19 20  2  0
 12 21  2  0
  8  3  1  0
 21  9  1  0
 20 13  1  0
  1 22  1  0
  1 23  1  0
  1 24  1  0
  4 25  1  0
  5 26  1  0
  6 27  1  0
  7 28  1  0
 14 29  1  0
 15 30  1  0
 18 31  1  0
 18 32  1  0
 18 33  1  0
 19 34  1  0
 20 35  1  0
 21 36  1  0
M  CHG  1  21   1
M  END
>  <UniqueID>  (32) 
28

>  <SMILES>  (32) 
COc1ccccc1-c1noc(-c2ccc(SC)cc2)[nH+]1

>  <Energy>  (32) 
73.34905281742799

>  <Genealogy>  (32) 
COc1ccccc1-c1noc(-c2ccc(SC)cc2)[nH+]1 (protonated)
COc1ccccc1-c1noc(-c2ccc(SC)cc2)[nH+]1 (3D coordinates assigned)
COc1ccccc1-c1noc(-c2ccc(SC)cc2)[nH+]1 (optimized conformer: 73.34905281742799 kcal/mol)

>  <smiles>  (32) 
COc1ccccc1-c1noc(-c2ccc(SC)cc2)n1

>  <score_type>  (32) 
oracle

>  <origin>  (32) 
adg

>  <m_score__min__energy>  (32) 
-5.6699999999999999

>  <m_primary>  (32) 
energy

$$$$
33:0
     RDKit          3D

 30 31  0  0  0  0  0  0  0  0999 V2000
   59.4909   34.0948   46.3828 H   0  0  0  0  0  0  0  0  0  0  0  0
   58.9510   33.4400   45.6830 C   0  0  0  0  0  0  0  0  0  0  0  0
   58.8310   33.8100   44.3420 C   0  0  0  0  0  0  0  0  0  0  0  0
   59.2796   34.7514   43.9921 H   0  0  0  0  0  0  0  0  0  0  0  0
   58.1450   32.9920   43.4430 C   0  0  0  0  0  0  0  0  0  0  0  0
   58.0548   33.2890   42.3877 H   0  0  0  0  0  0  0  0  0  0  0  0
   57.5710   31.7920   43.8850 C   0  0  0  0  0  0  0  0  0  0  0  0
   56.8720   30.9580   43.0030 C   0  0  0  0  0  0  0  0  0  0  0  0
   56.7707   31.2378   41.9440 H   0  0  0  0  0  0  0  0  0  0  0  0
   56.3040   29.7710   43.4700 C   0  0  0  0  0  0  0  0  0  0  0  0
   55.7543   29.1124   42.7814 H   0  0  0  0  0  0  0  0  0  0  0  0
   56.4380   29.4240   44.8190 C   0  0  0  0  0  0  0  0  0  0  0  0
   55.9050   28.3210   45.2520 N   0  0  0  0  0  0  0  0  0  0  0  0
   56.6730   27.2030   45.7890 C   0  0  0  0  0  0  0  0  0  0  0  0
   56.6499   27.2367   46.8882 H   0  0  0  0  0  0  0  0  0  0  0  0
   56.2338   26.2561   45.4418 H   0  0  0  0  0  0  0  0  0  0  0  0
   57.7144   27.2732   45.4418 H   0  0  0  0  0  0  0  0  0  0  0  0
   57.1220   30.2470   45.6620 N   0  0  0  0  0  0  0  0  0  0  0  0
   57.6890   31.4120   45.2420 C   0  0  0  0  0  0  0  0  0  0  0  0
   58.3880   32.2380   46.1470 C   0  0  0  0  0  0  0  0  0  0  0  0
   58.5110   31.8710   47.6090 C   0  0  0  0  0  0  0  0  0  0  0  0
   57.5046   31.6924   48.0156 H   0  0  0  0  0  0  0  0  0  0  0  0
   59.0088   32.7043   48.1265 H   0  0  0  0  0  0  0  0  0  0  0  0
   59.3610   30.6090   47.8190 C   0  0  0  0  0  0  0  0  0  0  0  0
   58.7193   29.7251   47.6887 H   0  0  0  0  0  0  0  0  0  0  0  0
   59.7836   30.6542   48.8336 H   0  0  0  0  0  0  0  0  0  0  0  0
   60.5260   30.5200   46.8320 C   0  0  0  0  0  0  0  0  0  0  0  0
   61.4726   30.4477   47.3876 H   0  0  0  0  0  0  0  0  0  0  0  0
   60.4032   29.6286   46.1993 H   0  0  0  0  0  0  0  0  0  0  0  0
   60.5401   31.4197   46.1993 H   0  0  0  0  0  0  0  0  0  0  0  0
  1  2  1  0
  2  3  2  0
  3  4  1  0
  3  5  1  0
  5  6  1  0
  5  7  2  0
  7  8  1  0
  8  9  1  0
  8 10  2  0
 10 11  1  0
 10 12  1  0
 12 13  2  0
 13 14  1  0
 14 15  1  0
 14 16  1  0
 14 17  1  0
 12 18  1  0
 18 19  1  0
 19 20  2  0
 20 21  1  0
 21 22  1  0
 21 23  1  0
 21 24  1  0
 24 25  1  0
 24 26  1  0
 24 27  1  0
 27 28  1  0
 27 29  1  0
 27 30  1  0
 20  2  1  0
 19  7  1  0
M  CHG  1  18  -1
M  END
>  <UniqueID>  (33) 
29

>  <SMILES>  (33) 
CCCc1cccc2cc/c(=N/C)[n-]c12

>  <Energy>  (33) 
27.42255435994586

>  <Genealogy>  (33) 
CCCc1cccc2ccc(=NC)[n-]c12 (protonated)
CCCc1cccc2cc/c(=N/C)[n-]c12 (cis-trans isomerization)
CCCc1cccc2cc/c(=N/C)[n-]c12 (3D coordinates assigned)
CCCc1cccc2cc/c(=N/C)[n-]c12 (optimized conformer: 27.42255435994586 kcal/mol)

>  <smiles>  (33) 
CCCc1cccc2ccc(=NC)[nH]c12

>  <score_type>  (33) 
oracle

>  <origin>  (33) 
adg

>  <m_score__min__energy>  (33) 
-8.2799999999999994

>  <m_primary>  (33) 
energy

$$$$
34:0
     RDKit          3D

 68 70  0  0  0  0  0  0  0  0999 V2000
   62.1300   19.5580   48.5120 C   0  0  0  0  0  0  0  0  0  0  0  0
   60.9370   19.1890   49.4060 C   0  0  0  0  0  0  0  0  0  0  0  0
   60.4380   20.3170   50.2270 N   0  0  0  0  0  0  0  0  0  0  0  0
   61.3970   20.7360   51.2770 C   0  0  0  0  0  0  0  0  0  0  0  0
   60.8290   21.9300   52.0350 C   0  0  0  0  0  0  0  0  0  0  0  0
   59.0670   20.0940   50.7350 C   0  0  0  0  0  0  0  0  0  0  0  0
   58.1280   19.6800   49.5930 C   0  0  0  0  0  0  0  0  0  0  0  0
   57.0810   20.7630   49.3140 C   0  0  0  0  0  0  0  0  0  0  0  0
   56.9720   20.9960   47.8670 N   0  0  0  0  0  0  0  0  0  0  0  0
   55.7380   21.7170   47.4990 C   0  0  0  0  0  0  0  0  0  0  0  0
   55.7200   23.1650   48.0200 C   0  0  0  0  0  0  0  0  0  0  0  0
   55.4630   24.1210   46.9380 N   0  0  0  0  0  0  0  0  0  0  0  0
   56.4750   24.9970   46.4040 C   0  0  0  0  0  0  0  0  0  0  0  0
   57.8290   24.6030   46.3060 C   0  0  0  0  0  0  0  0  0  0  0  0
   58.2490   23.3510   46.7360 O   0  0  0  0  0  0  0  0  0  0  0  0
   58.7820   25.4870   45.7910 C   0  0  0  0  0  0  0  0  0  0  0  0
   58.4100   26.7710   45.3830 C   0  0  0  0  0  0  0  0  0  0  0  0
   59.6480   27.8980   44.7410 S   0  0  0  0  0  0  0  0  0  0  0  0
   59.3070   29.1590   45.9770 C   0  0  0  0  0  0  0  0  0  0  0  0
   59.8200   28.9750   47.2690 C   0  0  0  0  0  0  0  0  0  0  0  0
   59.6100   29.9380   48.2580 C   0  0  0  0  0  0  0  0  0  0  0  0
   58.8810   31.0910   47.9670 C   0  0  0  0  0  0  0  0  0  0  0  0
   58.3610   31.2840   46.6850 C   0  0  0  0  0  0  0  0  0  0  0  0
   58.5630   30.3230   45.6790 C   0  0  0  0  0  0  0  0  0  0  0  0
   58.0250   30.5510   44.3660 N   0  0  0  0  0  0  0  0  0  0  0  0
   57.0550   29.6680   43.7400 C   0  0  0  0  0  0  0  0  0  0  0  0
   56.4630   30.4670   42.5850 C   0  0  0  0  0  0  0  0  0  0  0  0
   57.4200   31.6320   42.3520 C   0  0  0  0  0  0  0  0  0  0  0  0
   58.1640   31.8170   43.6660 C   0  0  0  0  0  0  0  0  0  0  0  0
   57.0720   27.1660   45.4670 C   0  0  0  0  0  0  0  0  0  0  0  0
   56.1110   26.2920   45.9830 C   0  0  0  0  0  0  0  0  0  0  0  0
   54.7890   26.7160   46.0660 O   0  0  0  0  0  0  0  0  0  0  0  0
   62.9916   19.8245   49.1418 H   0  0  0  0  0  0  0  0  0  0  0  0
   62.3919   18.6989   47.8769 H   0  0  0  0  0  0  0  0  0  0  0  0
   61.8611   20.4149   47.8769 H   0  0  0  0  0  0  0  0  0  0  0  0
   60.1166   18.8376   48.7631 H   0  0  0  0  0  0  0  0  0  0  0  0
   61.2851   18.4126   50.1032 H   0  0  0  0  0  0  0  0  0  0  0  0
   61.5629   19.9029   51.9759 H   0  0  0  0  0  0  0  0  0  0  0  0
   62.3523   21.0181   50.8103 H   0  0  0  0  0  0  0  0  0  0  0  0
   60.9139   21.7515   53.1171 H   0  0  0  0  0  0  0  0  0  0  0  0
   61.3926   22.8360   51.7675 H   0  0  0  0  0  0  0  0  0  0  0  0
   59.7705   22.0643   51.7675 H   0  0  0  0  0  0  0  0  0  0  0  0
   59.0875   19.2971   51.4930 H   0  0  0  0  0  0  0  0  0  0  0  0
   58.6961   21.0304   51.1772 H   0  0  0  0  0  0  0  0  0  0  0  0
   58.7225   19.5132   48.6827 H   0  0  0  0  0  0  0  0  0  0  0  0
   57.6048   18.7590   49.8898 H   0  0  0  0  0  0  0  0  0  0  0  0
   56.1060   20.4364   49.7048 H   0  0  0  0  0  0  0  0  0  0  0  0
   57.3871   21.6969   49.8080 H   0  0  0  0  0  0  0  0  0  0  0  0
   57.8110   21.5300   47.5420 H   0  0  0  0  0  0  0  0  0  0  0  0
   55.6551   21.7363   46.4023 H   0  0  0  0  0  0  0  0  0  0  0  0
   54.8923   21.1865   47.9609 H   0  0  0  0  0  0  0  0  0  0  0  0
   54.9294   23.2624   48.7786 H   0  0  0  0  0  0  0  0  0  0  0  0
   56.7063   23.3891   48.4523 H   0  0  0  0  0  0  0  0  0  0  0  0
   54.5550   24.0540   46.4230 H   0  0  0  0  0  0  0  0  0  0  0  0
   59.8318   25.1697   45.7063 H   0  0  0  0  0  0  0  0  0  0  0  0
   60.3919   28.0655   47.5051 H   0  0  0  0  0  0  0  0  0  0  0  0
   60.0199   29.7872   49.2676 H   0  0  0  0  0  0  0  0  0  0  0  0
   58.7155   31.8485   48.7473 H   0  0  0  0  0  0  0  0  0  0  0  0
   57.7884   32.1960   46.4606 H   0  0  0  0  0  0  0  0  0  0  0  0
   57.5482   28.7588   43.3656 H   0  0  0  0  0  0  0  0  0  0  0  0
   56.2807   29.3430   44.4506 H   0  0  0  0  0  0  0  0  0  0  0  0
   56.3937   29.8418   41.6826 H   0  0  0  0  0  0  0  0  0  0  0  0
   55.4462   30.8181   42.8148 H   0  0  0  0  0  0  0  0  0  0  0  0
   58.1247   31.3942   41.5415 H   0  0  0  0  0  0  0  0  0  0  0  0
   56.8850   32.5458   42.0542 H   0  0  0  0  0  0  0  0  0  0  0  0
   59.2250   32.0402   43.4801 H   0  0  0  0  0  0  0  0  0  0  0  0
   57.7604   32.6562   44.2515 H   0  0  0  0  0  0  0  0  0  0  0  0
   56.7741   28.1684   45.1258 H   0  0  0  0  0  0  0  0  0  0  0  0
  1  2  1  0
  2  3  1  0
  3  4  1  0
  4  5  1  0
  3  6  1  0
  6  7  1  0
  7  8  1  0
  8  9  1  0
  9 10  1  0
 10 11  1  0
 11 12  1  0
 12 13  1  0
 13 14  2  0
 14 15  1  0
 14 16  1  0
 16 17  2  0
 17 18  1  0
 18 19  1  0
 19 20  2  0
 20 21  1  0
 21 22  2  0
 22 23  1  0
 23 24  2  0
 24 25  1  0
 25 26  1  0
 26 27  1  0
 27 28  1  0
 28 29  1  0
 17 30  1  0
 30 31  2  0
 31 32  1  0
 31 13  1  0
 24 19  1  0
 29 25  1  0
  1 33  1  0
  1 34  1  0
  1 35  1  0
  2 36  1  0
  2 37  1  0
  4 38  1  0
  4 39  1  0
  5 40  1  0
  5 41  1  0
  5 42  1  0
  6 43  1  0
  6 44  1  0
  7 45  1  0
  7 46  1  0
  8 47  1  0
  8 48  1  0
  9 49  1  0
 10 50  1  0
 10 51  1  0
 11 52  1  0
 11 53  1  0
 12 54  1  0
 16 55  1  0
 20 56  1  0
 21 57  1  0
 22 58  1  0
 23 59  1  0
 26 60  1  0
 26 61  1  0
 27 62  1  0
 27 63  1  0
 28 64  1  0
 28 65  1  0
 29 66  1  0
 29 67  1  0
 30 68  1  0
M  CHG  2  15  -1  32  -1
M  END
>  <UniqueID>  (34) 
30

>  <SMILES>  (34) 
CCN(CC)CCCNCCNc1c([O-])cc(Sc2ccccc2N2CCCC2)cc1[O-]

>  <Energy>  (34) 
69.65183919410141

>  <Genealogy>  (34) 
CCN(CC)CCCNCCNc1c([O-])cc(Sc2ccccc2N2CCCC2)cc1[O-] (protonated)
CCN(CC)CCCNCCNc1c([O-])cc(Sc2ccccc2N2CCCC2)cc1[O-] (3D coordinates assigned)
CCN(CC)CCCNCCNc1c([O-])cc(Sc2ccccc2N2CCCC2)cc1[O-] (nonaromatic ring conformer: 69.65183919410141 kcal/mol)

>  <smiles>  (34) 
CCN(CC)CCCNCCNc1c(O)cc(Sc2ccccc2N2CCCC2)cc1O

>  <score_type>  (34) 
oracle

>  <origin>  (34) 
adg

>  <m_score__min__energy>  (34) 
-12.630000000000001

>  <m_primary>  (34) 
energy

$$$$
35:0
     RDKit          3D

 40 42  0  0  0  0  0  0  0  0999 V2000
   59.0060   34.7360   46.9070 C   0  0  0  0  0  0  0  0  0  0  0  0
   58.2540   33.6160   47.2710 C   0  0  0  0  0  0  0  0  0  0  0  0
   57.8130   32.7190   46.2930 C   0  0  0  0  0  0  0  0  0  0  0  0
   58.1250   32.9370   44.9410 C   0  0  0  0  0  0  0  0  0  0  0  0
   57.6230   31.9950   43.8770 C   0  0  0  0  0  0  0  0  0  0  0  0
   57.3040   30.6010   44.4490 C   0  0  0  0  0  0  0  0  0  0  0  0
   58.3630   29.5900   44.1380 N   0  0  1  0  0  0  0  0  0  0  0  0
   59.5440   29.7250   45.0230 C   0  0  0  0  0  0  0  0  0  0  0  0
   59.2440   29.3750   46.4980 C   0  0  0  0  0  0  0  0  0  0  0  0
   58.0400   28.4370   46.6610 C   0  0  0  0  0  0  0  0  0  0  0  0
   57.9470   27.4570   45.4870 C   0  0  1  0  0  0  0  0  0  0  0  0
   56.7920   26.5110   45.6720 C   0  0  0  0  0  0  0  0  0  0  0  0
   56.8380   25.1410   45.5360 C   0  0  0  0  0  0  0  0  0  0  0  0
   55.5400   24.7370   45.7540 C   0  0  0  0  0  0  0  0  0  0  0  0
   54.7690   25.8150   45.9970 N   0  0  0  0  0  0  0  0  0  0  0  0
   55.5300   26.8970   45.9420 N   0  0  0  0  0  0  0  0  0  0  0  0
   57.8490   28.1910   44.1210 C   0  0  0  0  0  0  0  0  0  0  0  0
   58.8810   34.0670   44.5820 C   0  0  0  0  0  0  0  0  0  0  0  0
   59.3190   34.9610   45.5630 C   0  0  0  0  0  0  0  0  0  0  0  0
   59.3517   35.4406   47.6777 H   0  0  0  0  0  0  0  0  0  0  0  0
   58.0085   33.4396   48.3286 H   0  0  0  0  0  0  0  0  0  0  0  0
   57.2196   31.8395   46.5836 H   0  0  0  0  0  0  0  0  0  0  0  0
   56.7086   32.4150   43.4327 H   0  0  0  0  0  0  0  0  0  0  0  0
   58.4143   31.8808   43.1215 H   0  0  0  0  0  0  0  0  0  0  0  0
   57.2068   30.6833   45.5416 H   0  0  0  0  0  0  0  0  0  0  0  0
   56.3700   30.2568   43.9809 H   0  0  0  0  0  0  0  0  0  0  0  0
   58.7150   29.7650   43.1670 H   0  0  0  0  0  0  0  0  0  0  0  0
   60.3332   29.0515   44.6576 H   0  0  0  0  0  0  0  0  0  0  0  0
   59.8544   30.7799   44.9945 H   0  0  0  0  0  0  0  0  0  0  0  0
   60.1299   28.8857   46.9289 H   0  0  0  0  0  0  0  0  0  0  0  0
   59.0003   30.3147   47.0152 H   0  0  0  0  0  0  0  0  0  0  0  0
   58.1502   27.8688   47.5964 H   0  0  0  0  0  0  0  0  0  0  0  0
   57.1228   29.0438   46.6856 H   0  0  0  0  0  0  0  0  0  0  0  0
   58.8787   26.8724   45.4748 H   0  0  0  0  0  0  0  0  0  0  0  0
   57.7117   24.5135   45.3059 H   0  0  0  0  0  0  0  0  0  0  0  0
   55.1870   23.6954   45.7330 H   0  0  0  0  0  0  0  0  0  0  0  0
   58.4287   27.6200   43.3808 H   0  0  0  0  0  0  0  0  0  0  0  0
   56.7793   28.2515   43.8720 H   0  0  0  0  0  0  0  0  0  0  0  0
   59.1285   34.2480   43.5256 H   0  0  0  0  0  0  0  0  0  0  0  0
   59.9109   35.8430   45.2773 H   0  0  0  0  0  0  0  0  0  0  0  0
  1  2  2  0
  2  3  1  0
  3  4  2  0
  4  5  1  0
  5  6  1  0
  6  7  1  0
  7  8  1  0
  8  9  1  0
  9 10  1  0
 10 11  1  0
 11 12  1  0
 12 13  1  0
 13 14  2  0
 14 15  1  0
 15 16  1  0
 11 17  1  0
  4 18  1  0
 18 19  2  0
 19  1  1  0
 17  7  1  0
 16 12  2  0
  1 20  1  0
  2 21  1  0
  3 22  1  0
  5 23  1  0
  5 24  1  0
  6 25  1  0
  6 26  1  0
  7 27  1  6
  8 28  1  0
  8 29  1  0
  9 30  1  0
  9 31  1  0
 10 32  1  0
 10 33  1  0
 11 34  1  6
 13 35  1  0
 14 36  1  0
 17 37  1  0
 17 38  1  0
 18 39  1  0
 19 40  1  0
M  CHG  2   7   1  15  -1
M  END
>  <UniqueID>  (35) 
31

>  <SMILES>  (35) 
c1ccc(CC[N@H+]2CCC[C@@H](c3cc[n-]n3)C2)cc1

>  <Energy>  (35) 
80.55799703670895

>  <Genealogy>  (35) 
c1ccc(CC[NH+]2CCCC(c3cc[n-]n3)C2)cc1 (protonated)
c1ccc(CC[N@H+]2CCC[C@@H](c3cc[n-]n3)C2)cc1 (chirality)
c1ccc(CC[N@H+]2CCC[C@@H](c3cc[n-]n3)C2)cc1 (3D coordinates assigned)
c1ccc(CC[N@H+]2CCC[C@@H](c3cc[n-]n3)C2)cc1 (nonaromatic ring conformer: 80.55799703670895 kcal/mol)

>  <smiles>  (35) 
c1ccc(CCN2CCCC(c3cc[nH]n3)C2)cc1

>  <score_type>  (35) 
oracle

>  <origin>  (35) 
adg

>  <m_score__min__energy>  (35) 
-9.1199999999999992

>  <m_primary>  (35) 
energy

$$$$
36:0
     RDKit          3D

 41 43  0  0  0  0  0  0  0  0999 V2000
   63.3660   33.8450   46.3650 C   0  0  0  0  0  0  0  0  0  0  0  0
   63.6440   32.9440   47.5570 C   0  0  0  0  0  0  0  0  0  0  0  0
   62.4390   32.7350   48.2850 O   0  0  0  0  0  0  0  0  0  0  0  0
   61.8420   33.7320   49.0590 C   0  0  0  0  0  0  0  0  0  0  0  0
   62.2930   34.0050   50.2050 O   0  0  0  0  0  0  0  0  0  0  0  0
   60.6820   34.5160   48.5030 C   0  0  0  0  0  0  0  0  0  0  0  0
   59.9420   33.8470   47.3060 C   0  0  2  0  0  0  0  0  0  0  0  0
   58.6480   34.5790   46.9060 C   0  0  0  0  0  0  0  0  0  0  0  0
   58.2080   34.1020   45.5260 C   0  0  0  0  0  0  0  0  0  0  0  0
   58.1690   32.6020   45.4630 C   0  0  0  0  0  0  0  0  0  0  0  0
   57.4140   31.9800   44.4550 C   0  0  0  0  0  0  0  0  0  0  0  0
   57.3140   30.5880   44.4010 C   0  0  0  0  0  0  0  0  0  0  0  0
   56.2700   29.7590   43.0350 Br  0  0  0  0  0  0  0  0  0  0  0  0
   57.9430   29.8050   45.3710 C   0  0  0  0  0  0  0  0  0  0  0  0
   58.7060   30.4140   46.3740 C   0  0  0  0  0  0  0  0  0  0  0  0
   58.8890   31.8080   46.3910 C   0  0  0  0  0  0  0  0  0  0  0  0
   59.7430   32.3680   47.4340 N   0  0  2  0  0  0  0  0  0  0  0  0
   59.2640   31.9110   48.7640 C   0  0  0  0  0  0  0  0  0  0  0  0
   58.9760   30.3790   48.8300 C   0  0  0  0  0  0  0  0  0  0  0  0
   59.2730   29.6310   47.5190 C   0  0  0  0  0  0  0  0  0  0  0  0
   63.0591   34.8396   46.7208 H   0  0  0  0  0  0  0  0  0  0  0  0
   64.2771   33.9386   45.7557 H   0  0  0  0  0  0  0  0  0  0  0  0
   62.5606   33.4090   45.7557 H   0  0  0  0  0  0  0  0  0  0  0  0
   64.0311   31.9770   47.2033 H   0  0  0  0  0  0  0  0  0  0  0  0
   64.3894   33.4204   48.2108 H   0  0  0  0  0  0  0  0  0  0  0  0
   59.9530   34.6657   49.3130 H   0  0  0  0  0  0  0  0  0  0  0  0
   61.1057   35.4538   48.1143 H   0  0  0  0  0  0  0  0  0  0  0  0
   60.6452   33.9636   46.4682 H   0  0  0  0  0  0  0  0  0  0  0  0
   57.8589   34.3590   47.6401 H   0  0  0  0  0  0  0  0  0  0  0  0
   58.8295   35.6636   46.8815 H   0  0  0  0  0  0  0  0  0  0  0  0
   57.2041   34.4974   45.3117 H   0  0  0  0  0  0  0  0  0  0  0  0
   58.9319   34.4656   44.7819 H   0  0  0  0  0  0  0  0  0  0  0  0
   56.8976   32.5939   43.7024 H   0  0  0  0  0  0  0  0  0  0  0  0
   57.8389   28.7102   45.3469 H   0  0  0  0  0  0  0  0  0  0  0  0
   60.6930   31.9450   47.3000 H   0  0  0  0  0  0  0  0  0  0  0  0
   60.0326   32.1532   49.5128 H   0  0  0  0  0  0  0  0  0  0  0  0
   58.3127   32.4274   48.9599 H   0  0  0  0  0  0  0  0  0  0  0  0
   59.5985   29.9437   49.6256 H   0  0  0  0  0  0  0  0  0  0  0  0
   57.8995   30.2650   49.0254 H   0  0  0  0  0  0  0  0  0  0  0  0
   60.3606   29.5262   47.3920 H   0  0  0  0  0  0  0  0  0  0  0  0
   58.8161   28.6308   47.5489 H   0  0  0  0  0  0  0  0  0  0  0  0
  1  2  1  0
  2  3  1  0
  3  4  1  0
  4  5  2  0
  4  6  1  0
  6  7  1  0
  7  8  1  0
  8  9  1  0
  9 10  1  0
 10 11  2  0
 11 12  1  0
 12 13  1  0
 12 14  2  0
 14 15  1  0
 15 16  2  0
 16 17  1  0
 17 18  1  0
 18 19  1  0
 19 20  1  0
 17  7  1  0
 16 10  1  0
 20 15  1  0
  1 21  1  0
  1 22  1  0
  1 23  1  0
  2 24  1  0
  2 25  1  0
  6 26  1  0
  6 27  1  0
  7 28  1  6
  8 29  1  0
  8 30  1  0
  9 31  1  0
  9 32  1  0
 11 33  1  0
 14 34  1  0
 17 35  1  6
 18 36  1  0
 18 37  1  0
 19 38  1  0
 19 39  1  0
 20 40  1  0
 20 41  1  0
M  CHG  1  17   1
M  END
>  <UniqueID>  (36) 
32

>  <SMILES>  (36) 
CCOC(=O)C[C@@H]1CCc2cc(Br)cc3c2[N@@H+]1CCC3

>  <Energy>  (36) 
55.82873016110706

>  <Genealogy>  (36) 
CCOC(=O)CC1CCc2cc(Br)cc3c2[NH+]1CCC3 (protonated)
CCOC(=O)C[C@@H]1CCc2cc(Br)cc3c2[N@@H+]1CCC3 (chirality)
CCOC(=O)C[C@@H]1CCc2cc(Br)cc3c2[N@@H+]1CCC3 (3D coordinates assigned)
CCOC(=O)C[C@@H]1CCc2cc(Br)cc3c2[N@@H+]1CCC3 (nonaromatic ring conformer: 55.82873016110706 kcal/mol)

>  <smiles>  (36) 
CCOC(=O)CC1CCc2cc(Br)cc3c2N1CCC3

>  <score_type>  (36) 
oracle

>  <origin>  (36) 
adg

>  <m_score__min__energy>  (36) 
-6.4299999999999997

>  <m_primary>  (36) 
energy

$$$$
37:0
     RDKit          3D

 76 80  0  0  0  0  0  0  0  0999 V2000
   57.8630   21.5270   43.7520 C   0  0  0  0  0  0  0  0  0  0  0  0
   58.1050   22.8980   44.3910 C   0  0  0  0  0  0  0  0  0  0  0  0
   56.9920   23.9370   44.1340 C   0  0  2  0  0  0  0  0  0  0  0  0
   56.0250   23.5200   43.0150 C   0  0  0  0  0  0  0  0  0  0  0  0
   57.5460   25.2850   43.9250 N   0  0  0  0  0  0  0  0  0  0  0  0
   57.7470   25.8150   42.7280 N   0  0  0  0  0  0  0  0  0  0  0  0
   58.1820   27.0770   42.9060 C   0  0  0  0  0  0  0  0  0  0  0  0
   58.2500   27.3830   44.2200 N   0  0  0  0  0  0  0  0  0  0  0  0
   58.6620   28.6320   44.8030 C   0  0  0  0  0  0  0  0  0  0  0  0
   59.9050   28.7520   45.4460 C   0  0  0  0  0  0  0  0  0  0  0  0
   60.2790   29.9590   46.0480 C   0  0  0  0  0  0  0  0  0  0  0  0
   59.4250   31.0730   46.0010 C   0  0  0  0  0  0  0  0  0  0  0  0
   59.7880   32.2990   46.6690 N   0  0  0  0  0  0  0  0  0  0  0  0
   59.0040   32.8050   47.8070 C   0  0  0  0  0  0  0  0  0  0  0  0
   59.8560   32.7330   49.0820 C   0  0  0  0  0  0  0  0  0  0  0  0
   61.2510   33.1130   48.8130 N   0  0  0  0  0  0  0  0  0  0  0  0
   62.2630   32.5360   49.6590 C   0  0  0  0  0  0  0  0  0  0  0  0
   63.0560   33.3630   50.4640 C   0  0  0  0  0  0  0  0  0  0  0  0
   63.9900   32.8050   51.3430 C   0  0  0  0  0  0  0  0  0  0  0  0
   64.1300   31.4070   51.4360 C   0  0  0  0  0  0  0  0  0  0  0  0
   65.0180   30.7950   52.3350 O   0  0  0  0  0  0  0  0  0  0  0  0
   66.3830   30.4780   52.0480 C   0  0  0  0  0  0  0  0  0  0  0  0
   66.5110   29.0310   51.6510 C   0  0  0  0  0  0  0  0  0  0  0  0
   65.5390   28.1050   52.0610 C   0  0  0  0  0  0  0  0  0  0  0  0
   65.6680   26.7550   51.7260 C   0  0  0  0  0  0  0  0  0  0  0  0
   66.7690   26.3180   50.9850 C   0  0  0  0  0  0  0  0  0  0  0  0
   67.7530   27.2310   50.5740 C   0  0  0  0  0  0  0  0  0  0  0  0
   68.9210   26.7750   49.7530 C   0  0  0  0  0  0  0  0  0  0  0  0
   67.6100   28.5890   50.8930 C   0  0  0  0  0  0  0  0  0  0  0  0
   63.3440   30.5870   50.6200 C   0  0  0  0  0  0  0  0  0  0  0  0
   62.4080   31.1440   49.7450 C   0  0  0  0  0  0  0  0  0  0  0  0
   61.5670   33.7990   47.5420 C   0  0  1  0  0  0  0  0  0  0  0  0
   63.0470   34.1920   47.4030 C   0  0  0  0  0  0  0  0  0  0  0  0
   61.0880   32.9270   46.3650 C   0  0  0  0  0  0  0  0  0  0  0  0
   58.1830   30.9520   45.3540 C   0  0  0  0  0  0  0  0  0  0  0  0
   57.8060   29.7440   44.7620 C   0  0  0  0  0  0  0  0  0  0  0  0
   57.8470   26.2460   44.8280 C   0  0  0  0  0  0  0  0  0  0  0  0
   57.7810   26.0960   46.0780 O   0  0  0  0  0  0  0  0  0  0  0  0
   57.7299   20.7728   44.5416 H   0  0  0  0  0  0  0  0  0  0  0  0
   56.9582   21.5680   43.1278 H   0  0  0  0  0  0  0  0  0  0  0  0
   58.7271   21.2557   43.1278 H   0  0  0  0  0  0  0  0  0  0  0  0
   58.1977   22.7575   45.4780 H   0  0  0  0  0  0  0  0  0  0  0  0
   59.0174   23.2998   43.9263 H   0  0  0  0  0  0  0  0  0  0  0  0
   56.3834   23.9743   45.0496 H   0  0  0  0  0  0  0  0  0  0  0  0
   55.1007   23.1214   43.4587 H   0  0  0  0  0  0  0  0  0  0  0  0
   55.7854   24.3948   42.3926 H   0  0  0  0  0  0  0  0  0  0  0  0
   56.4967   22.7453   42.3926 H   0  0  0  0  0  0  0  0  0  0  0  0
   57.5770   25.3340   41.8140 H   0  0  0  0  0  0  0  0  0  0  0  0
   58.4465   27.7663   42.0906 H   0  0  0  0  0  0  0  0  0  0  0  0
   60.5893   27.8913   45.4767 H   0  0  0  0  0  0  0  0  0  0  0  0
   61.2487   30.0356   46.5616 H   0  0  0  0  0  0  0  0  0  0  0  0
   58.7133   33.8489   47.6178 H   0  0  0  0  0  0  0  0  0  0  0  0
   58.0995   32.1918   47.9331 H   0  0  0  0  0  0  0  0  0  0  0  0
   59.4361   33.4183   49.8330 H   0  0  0  0  0  0  0  0  0  0  0  0
   59.8428   31.6969   49.4511 H   0  0  0  0  0  0  0  0  0  0  0  0
   62.9440   34.4557   50.4049 H   0  0  0  0  0  0  0  0  0  0  0  0
   64.6177   33.4609   51.9641 H   0  0  0  0  0  0  0  0  0  0  0  0
   66.7374   31.1134   51.2230 H   0  0  0  0  0  0  0  0  0  0  0  0
   66.9889   30.6570   52.9484 H   0  0  0  0  0  0  0  0  0  0  0  0
   64.6726   28.4436   52.6482 H   0  0  0  0  0  0  0  0  0  0  0  0
   64.9011   26.0344   52.0463 H   0  0  0  0  0  0  0  0  0  0  0  0
   66.8652   25.2541   50.7226 H   0  0  0  0  0  0  0  0  0  0  0  0
   69.7360   26.4568   50.4198 H   0  0  0  0  0  0  0  0  0  0  0  0
   68.6155   25.9301   49.1183 H   0  0  0  0  0  0  0  0  0  0  0  0
   69.2688   27.6034   49.1183 H   0  0  0  0  0  0  0  0  0  0  0  0
   68.3625   29.3134   50.5480 H   0  0  0  0  0  0  0  0  0  0  0  0
   63.4637   29.4946   50.6675 H   0  0  0  0  0  0  0  0  0  0  0  0
   61.7826   30.4882   49.1214 H   0  0  0  0  0  0  0  0  0  0  0  0
   61.0254   34.7564   47.5351 H   0  0  0  0  0  0  0  0  0  0  0  0
   63.4905   34.3098   48.4027 H   0  0  0  0  0  0  0  0  0  0  0  0
   63.5851   33.4056   46.8534 H   0  0  0  0  0  0  0  0  0  0  0  0
   63.1241   35.1418   46.8534 H   0  0  0  0  0  0  0  0  0  0  0  0
   60.9828   33.5572   45.4696 H   0  0  0  0  0  0  0  0  0  0  0  0
   61.8294   32.1331   46.1916 H   0  0  0  0  0  0  0  0  0  0  0  0
   57.5025   31.8153   45.3135 H   0  0  0  0  0  0  0  0  0  0  0  0
   56.8307   29.6635   44.2597 H   0  0  0  0  0  0  0  0  0  0  0  0
  1  2  1  0
  2  3  1  0
  3  4  1  0
  3  5  1  0
  5  6  1  0
  6  7  2  0
  7  8  1  0
  8  9  1  0
  9 10  2  0
 10 11  1  0
 11 12  2  0
 12 13  1  0
 13 14  1  0
 14 15  1  0
 15 16  1  0
 16 17  1  0
 17 18  2  0
 18 19  1  0
 19 20  2  0
 20 21  1  0
 21 22  1  0
 22 23  1  0
 23 24  2  0
 24 25  1  0
 25 26  2  0
 26 27  1  0
 27 28  1  0
 27 29  2  0
 20 30  1  0
 30 31  2  0
 16 32  1  0
 32 33  1  0
 32 34  1  0
 12 35  1  0
 35 36  2  0
  8 37  1  0
 37 38  2  0
 37  5  1  0
 36  9  1  0
 34 13  1  0
 31 17  1  0
 29 23  1  0
  1 39  1  0
  1 40  1  0
  1 41  1  0
  2 42  1  0
  2 43  1  0
  3 44  1  1
  4 45  1  0
  4 46  1  0
  4 47  1  0
  6 48  1  0
  7 49  1  0
 10 50  1  0
 11 51  1  0
 14 52  1  0
 14 53  1  0
 15 54  1  0
 15 55  1  0
 18 56  1  0
 19 57  1  0
 22 58  1  0
 22 59  1  0
 24 60  1  0
 25 61  1  0
 26 62  1  0
 28 63  1  0
 28 64  1  0
 28 65  1  0
 29 66  1  0
 30 67  1  0
 31 68  1  0
 32 69  1  1
 33 70  1  0
 33 71  1  0
 33 72  1  0
 34 73  1  0
 34 74  1  0
 35 75  1  0
 36 76  1  0
M  CHG  1   6   1
M  END
>  <UniqueID>  (37) 
33

>  <SMILES>  (37) 
CC[C@H](C)n1[nH+]cn(-c2ccc(N3CCN(c4ccc(OCc5cccc(C)c5)cc4)[C@@H](C)C3)cc2)c1=O

>  <Energy>  (37) 
132.02055562666956

>  <Genealogy>  (37) 
CCC(C)n1[nH+]cn(-c2ccc(N3CCN(c4ccc(OCc5cccc(C)c5)cc4)C(C)C3)cc2)c1=O (protonated)
CC[C@H](C)n1[nH+]cn(-c2ccc(N3CCN(c4ccc(OCc5cccc(C)c5)cc4)[C@@H](C)C3)cc2)c1=O (chirality)
CC[C@H](C)n1[nH+]cn(-c2ccc(N3CCN(c4ccc(OCc5cccc(C)c5)cc4)[C@@H](C)C3)cc2)c1=O (3D coordinates assigned)
CC[C@H](C)n1[nH+]cn(-c2ccc(N3CCN(c4ccc(OCc5cccc(C)c5)cc4)[C@@H](C)C3)cc2)c1=O (nonaromatic ring conformer: 132.02055562666956 kcal/mol)

>  <smiles>  (37) 
CCC(C)n1ncn(-c2ccc(N3CCN(c4ccc(OCc5cccc(C)c5)cc4)C(C)C3)cc2)c1=O

>  <score_type>  (37) 
oracle

>  <origin>  (37) 
adg

>  <m_score__min__energy>  (37) 
-8.2300000000000004

>  <m_primary>  (37) 
energy

$$$$
38:0
     RDKit          3D

 34 36  0  0  0  0  0  0  0  0999 V2000
   60.1580   34.5790   49.3350 C   0  0  0  0  0  0  0  0  0  0  0  0
   59.6270   34.2900   47.9630 C   0  0  0  0  0  0  0  0  0  0  0  0
   59.1640   33.0040   47.6470 C   0  0  0  0  0  0  0  0  0  0  0  0
   58.7050   32.7290   46.3510 C   0  0  0  0  0  0  0  0  0  0  0  0
   58.1850   31.3930   45.9900 C   0  0  0  0  0  0  0  0  0  0  0  0
   57.2560   31.1920   45.0340 N   0  0  0  0  0  0  0  0  0  0  0  0
   56.9960   29.8920   44.9530 N   0  0  0  0  0  0  0  0  0  0  0  0
   56.0720   29.3740   43.9480 C   0  0  0  0  0  0  0  0  0  0  0  0
   57.7760   29.2290   45.8510 C   0  0  0  0  0  0  0  0  0  0  0  0
   57.9070   27.8410   46.1430 C   0  0  0  0  0  0  0  0  0  0  0  0
   57.0550   26.7530   45.5200 C   0  0  0  0  0  0  0  0  0  0  0  0
   57.3820   26.5900   44.1890 F   0  0  0  0  0  0  0  0  0  0  0  0
   57.2510   25.5330   46.1440 F   0  0  0  0  0  0  0  0  0  0  0  0
   55.7180   27.0740   45.6480 F   0  0  0  0  0  0  0  0  0  0  0  0
   58.8750   27.4870   47.1180 C   0  0  0  0  0  0  0  0  0  0  0  0
   59.6700   28.4580   47.7510 C   0  0  0  0  0  0  0  0  0  0  0  0
   59.5140   29.8140   47.4480 C   0  0  0  0  0  0  0  0  0  0  0  0
   58.5430   30.1650   46.5130 C   0  0  0  0  0  0  0  0  0  0  0  0
   58.6960   33.7580   45.4000 C   0  0  0  0  0  0  0  0  0  0  0  0
   59.1810   35.0190   45.7440 C   0  0  0  0  0  0  0  0  0  0  0  0
   59.6430   35.2580   47.0020 N   0  0  0  0  0  0  0  0  0  0  0  0
   59.4543   34.1960   50.0887 H   0  0  0  0  0  0  0  0  0  0  0  0
   61.1340   34.0876   49.4614 H   0  0  0  0  0  0  0  0  0  0  0  0
   60.2753   35.6654   49.4614 H   0  0  0  0  0  0  0  0  0  0  0  0
   59.1611   32.2145   48.4129 H   0  0  0  0  0  0  0  0  0  0  0  0
   55.2173   28.8949   44.4480 H   0  0  0  0  0  0  0  0  0  0  0  0
   55.7121   30.2019   43.3195 H   0  0  0  0  0  0  0  0  0  0  0  0
   56.5905   28.6350   43.3195 H   0  0  0  0  0  0  0  0  0  0  0  0
   59.0064   26.4279   47.3847 H   0  0  0  0  0  0  0  0  0  0  0  0
   60.4219   28.1482   48.4917 H   0  0  0  0  0  0  0  0  0  0  0  0
   60.1382   30.5793   47.9326 H   0  0  0  0  0  0  0  0  0  0  0  0
   58.3084   33.5719   44.3875 H   0  0  0  0  0  0  0  0  0  0  0  0
   59.1904   35.8248   44.9952 H   0  0  0  0  0  0  0  0  0  0  0  0
   60.0090   36.2110   47.2270 H   0  0  0  0  0  0  0  0  0  0  0  0
  1  2  1  0
  2  3  2  0
  3  4  1  0
  4  5  1  0
  5  6  2  0
  6  7  1  0
  7  8  1  0
  7  9  1  0
  9 10  2  0
 10 11  1  0
 11 12  1  0
 11 13  1  0
 11 14  1  0
 10 15  1  0
 15 16  2  0
 16 17  1  0
 17 18  2  0
  4 19  2  0
 19 20  1  0
 20 21  2  0
 21  2  1  0
 18  5  1  0
 18  9  1  0
  1 22  1  0
  1 23  1  0
  1 24  1  0
  3 25  1  0
  8 26  1  0
  8 27  1  0
  8 28  1  0
 15 29  1  0
 16 30  1  0
 17 31  1  0
 19 32  1  0
 20 33  1  0
 21 34  1  0
M  CHG  1  21   1
M  END
>  <UniqueID>  (38) 
34

>  <SMILES>  (38) 
Cc1cc(-c2nn(C)c3c(C(F)(F)F)cccc23)cc[nH+]1

>  <Energy>  (38) 
84.87898286841434

>  <Genealogy>  (38) 
Cc1cc(-c2nn(C)c3c(C(F)(F)F)cccc23)cc[nH+]1 (protonated)
Cc1cc(-c2nn(C)c3c(C(F)(F)F)cccc23)cc[nH+]1 (3D coordinates assigned)
Cc1cc(-c2nn(C)c3c(C(F)(F)F)cccc23)cc[nH+]1 (optimized conformer: 84.87898286841434 kcal/mol)

>  <smiles>  (38) 
Cc1cc(-c2nn(C)c3c(C(F)(F)F)cccc23)ccn1

>  <score_type>  (38) 
oracle

>  <origin>  (38) 
adg

>  <m_score__min__energy>  (38) 
-5.1200000000000001

>  <m_primary>  (38) 
energy

$$$$
39:0
     RDKit          3D

 18 18  0  0  0  0  0  0  0  0999 V2000
   58.5290   28.4230   45.4610 C   0  0  0  0  0  0  0  0  0  0  0  0
   57.3840   29.1920   45.8100 O   0  0  0  0  0  0  0  0  0  0  0  0
   56.5130   29.7240   44.8540 C   0  0  0  0  0  0  0  0  0  0  0  0
   55.3050   29.3660   44.8280 O   0  0  0  0  0  0  0  0  0  0  0  0
   57.0280   30.7090   43.8860 C   0  0  0  0  0  0  0  0  0  0  0  0
   56.6520   30.6860   42.2440 S   0  0  0  0  0  0  0  0  0  0  0  0
   57.5960   32.0240   41.8720 C   0  0  0  0  0  0  0  0  0  0  0  0
   58.2020   32.4970   42.9810 N   0  0  0  0  0  0  0  0  0  0  0  0
   57.8960   31.7910   44.1070 C   0  0  0  0  0  0  0  0  0  0  0  0
   58.4980   32.1540   45.4340 C   0  0  0  0  0  0  0  0  0  0  0  0
   57.7780   33.8440   46.0490 Br  0  0  0  0  0  0  0  0  0  0  0  0
   59.0353   28.0830   46.3765 H   0  0  0  0  0  0  0  0  0  0  0  0
   58.2177   27.5501   44.8684 H   0  0  0  0  0  0  0  0  0  0  0  0
   59.2192   29.0413   44.8684 H   0  0  0  0  0  0  0  0  0  0  0  0
   57.7051   32.4544   40.8656 H   0  0  0  0  0  0  0  0  0  0  0  0
   58.8420   33.3210   42.9680 H   0  0  0  0  0  0  0  0  0  0  0  0
   58.2623   31.3691   46.1677 H   0  0  0  0  0  0  0  0  0  0  0  0
   59.5885   32.2456   45.3226 H   0  0  0  0  0  0  0  0  0  0  0  0
  1  2  1  0
  2  3  1  0
  3  4  2  0
  3  5  1  0
  5  6  1  0
  6  7  1  0
  7  8  2  0
  8  9  1  0
  9 10  1  0
 10 11  1  0
  9  5  2  0
  1 12  1  0
  1 13  1  0
  1 14  1  0
  7 15  1  0
  8 16  1  0
 10 17  1  0
 10 18  1  0
M  CHG  1   8   1
M  END
>  <UniqueID>  (39) 
35

>  <SMILES>  (39) 
COC(=O)c1sc[nH+]c1CBr

>  <Energy>  (39) 
42.46663692671172

>  <Genealogy>  (39) 
COC(=O)c1sc[nH+]c1CBr (protonated)
COC(=O)c1sc[nH+]c1CBr (3D coordinates assigned)
COC(=O)c1sc[nH+]c1CBr (optimized conformer: 42.46663692671172 kcal/mol)

>  <smiles>  (39) 
COC(=O)c1scnc1CBr

>  <score_type>  (39) 
oracle

>  <origin>  (39) 
adg

>  <m_score__min__energy>  (39) 
-3.0699999999999998

>  <m_primary>  (39) 
energy

$$$$
40:0
     RDKit          3D

 54 55  0  0  0  0  0  0  0  0999 V2000
   56.3790   30.1170   43.4360 C   0  0  0  0  0  0  0  0  0  0  0  0
   56.2950   31.0220   44.5330 O   0  0  0  0  0  0  0  0  0  0  0  0
   57.3600   31.8170   44.9880 C   0  0  0  0  0  0  0  0  0  0  0  0
   57.3960   33.2110   44.7800 C   0  0  0  0  0  0  0  0  0  0  0  0
   58.4740   33.9680   45.2410 C   0  0  0  0  0  0  0  0  0  0  0  0
   59.5330   33.3510   45.9160 C   0  0  0  0  0  0  0  0  0  0  0  0
   60.7230   34.1630   46.3730 C   0  0  0  0  0  0  0  0  0  0  0  0
   61.0580   33.9070   47.7840 N   0  0  0  0  0  0  0  0  0  0  0  0
   60.1000   34.5460   48.6980 C   0  0  0  0  0  0  0  0  0  0  0  0
   59.6030   33.5450   49.7580 C   0  0  2  0  0  0  0  0  0  0  0  0
   60.7730   32.8300   50.4510 C   0  0  0  0  0  0  0  0  0  0  0  0
   60.2660   31.8660   51.5460 C   0  0  0  0  0  0  0  0  0  0  0  0
   59.0040   31.1410   51.1970 N   0  0  1  0  0  0  0  0  0  0  0  0
   57.8180   31.6690   51.9370 C   0  0  0  0  0  0  0  0  0  0  0  0
   56.7860   30.5780   52.3150 C   0  0  1  0  0  0  0  0  0  0  0  0
   55.3470   30.9990   51.9850 C   0  0  0  0  0  0  0  0  0  0  0  0
   57.0890   29.3640   51.6740 O   0  0  0  0  0  0  0  0  0  0  0  0
   58.7590   31.1100   49.7370 C   0  0  0  0  0  0  0  0  0  0  0  0
   58.6290   32.5200   49.1280 C   0  0  0  0  0  0  0  0  0  0  0  0
   59.5040   31.9640   46.1240 C   0  0  0  0  0  0  0  0  0  0  0  0
   58.4160   31.1910   45.6670 C   0  0  0  0  0  0  0  0  0  0  0  0
   58.3520   29.8010   45.8630 O   0  0  0  0  0  0  0  0  0  0  0  0
   59.2480   28.8610   45.2770 C   0  0  0  0  0  0  0  0  0  0  0  0
   56.4744   29.0889   43.8153 H   0  0  0  0  0  0  0  0  0  0  0  0
   55.4694   30.1987   42.8228 H   0  0  0  0  0  0  0  0  0  0  0  0
   57.2580   30.3647   42.8228 H   0  0  0  0  0  0  0  0  0  0  0  0
   56.5683   33.7056   44.2505 H   0  0  0  0  0  0  0  0  0  0  0  0
   58.4912   35.0549   45.0729 H   0  0  0  0  0  0  0  0  0  0  0  0
   61.5909   33.9027   45.7493 H   0  0  0  0  0  0  0  0  0  0  0  0
   60.4656   35.2278   46.2733 H   0  0  0  0  0  0  0  0  0  0  0  0
   62.0200   34.2730   47.9810 H   0  0  0  0  0  0  0  0  0  0  0  0
   60.5916   35.3909   49.2025 H   0  0  0  0  0  0  0  0  0  0  0  0
   59.2369   34.8980   48.1139 H   0  0  0  0  0  0  0  0  0  0  0  0
   59.0602   34.1149   50.5264 H   0  0  0  0  0  0  0  0  0  0  0  0
   61.3383   32.2567   49.7014 H   0  0  0  0  0  0  0  0  0  0  0  0
   61.4151   33.5881   50.9232 H   0  0  0  0  0  0  0  0  0  0  0  0
   61.0504   31.1187   51.7363 H   0  0  0  0  0  0  0  0  0  0  0  0
   60.0389   32.4841   52.4271 H   0  0  0  0  0  0  0  0  0  0  0  0
   59.1450   30.1400   51.4710 H   0  0  0  0  0  0  0  0  0  0  0  0
   58.1707   32.1491   52.8617 H   0  0  0  0  0  0  0  0  0  0  0  0
   57.3082   32.3761   51.2661 H   0  0  0  0  0  0  0  0  0  0  0  0
   56.8520   30.4408   53.4044 H   0  0  0  0  0  0  0  0  0  0  0  0
   54.7894   31.1621   52.9190 H   0  0  0  0  0  0  0  0  0  0  0  0
   55.3625   31.9303   51.3998 H   0  0  0  0  0  0  0  0  0  0  0  0
   54.8581   30.2062   51.3998 H   0  0  0  0  0  0  0  0  0  0  0  0
   56.2470   28.8400   51.6270 H   0  0  0  0  0  0  0  0  0  0  0  0
   59.5981   30.5918   49.2498 H   0  0  0  0  0  0  0  0  0  0  0  0
   57.8065   30.5857   49.5699 H   0  0  0  0  0  0  0  0  0  0  0  0
   58.8369   32.4563   48.0497 H   0  0  0  0  0  0  0  0  0  0  0  0
   57.6065   32.8718   49.3298 H   0  0  0  0  0  0  0  0  0  0  0  0
   60.3377   31.4744   46.6485 H   0  0  0  0  0  0  0  0  0  0  0  0
   59.7729   28.3103   46.0715 H   0  0  0  0  0  0  0  0  0  0  0  0
   58.6813   28.1538   44.6535 H   0  0  0  0  0  0  0  0  0  0  0  0
   59.9816   29.3931   44.6535 H   0  0  0  0  0  0  0  0  0  0  0  0
  1  2  1  0
  2  3  1  0
  3  4  2  0
  4  5  1  0
  5  6  2  0
  6  7  1  0
  7  8  1  0
  8  9  1  0
  9 10  1  0
 10 11  1  0
 11 12  1  0
 12 13  1  0
 13 14  1  0
 14 15  1  0
 15 16  1  0
 15 17  1  0
 13 18  1  0
 18 19  1  0
  6 20  1  0
 20 21  2  0
 21 22  1  0
 22 23  1  0
 21  3  1  0
 19 10  1  0
  1 24  1  0
  1 25  1  0
  1 26  1  0
  4 27  1  0
  5 28  1  0
  7 29  1  0
  7 30  1  0
  8 31  1  0
  9 32  1  0
  9 33  1  0
 10 34  1  1
 11 35  1  0
 11 36  1  0
 12 37  1  0
 12 38  1  0
 13 39  1  1
 14 40  1  0
 14 41  1  0
 15 42  1  1
 16 43  1  0
 16 44  1  0
 16 45  1  0
 17 46  1  0
 18 47  1  0
 18 48  1  0
 19 49  1  0
 19 50  1  0
 20 51  1  0
 23 52  1  0
 23 53  1  0
 23 54  1  0
M  CHG  1  13   1
M  END
>  <UniqueID>  (40) 
36

>  <SMILES>  (40) 
COc1ccc(CNCC2CC[NH+](C[C@@H](C)O)CC2)cc1OC

>  <Energy>  (40) 
59.149255608394334

>  <Genealogy>  (40) 
COc1ccc(CNCC2CC[NH+](CC(C)O)CC2)cc1OC (protonated)
COc1ccc(CNCC2CC[NH+](C[C@@H](C)O)CC2)cc1OC (chirality)
COc1ccc(CNCC2CC[NH+](C[C@@H](C)O)CC2)cc1OC (3D coordinates assigned)
COc1ccc(CNCC2CC[NH+](C[C@@H](C)O)CC2)cc1OC (nonaromatic ring conformer: 59.149255608394334 kcal/mol)

>  <smiles>  (40) 
COc1ccc(CNCC2CCN(CC(C)O)CC2)cc1OC

>  <score_type>  (40) 
oracle

>  <origin>  (40) 
adg

>  <m_score__min__energy>  (40) 
-5.7999999999999998

>  <m_primary>  (40) 
energy

$$$$
41:0
     RDKit          3D

 41 42  0  0  0  0  0  0  0  0999 V2000
   63.3660   33.8070   46.3990 C   0  0  0  0  0  0  0  0  0  0  0  0
   62.7370   33.1710   47.5670 N   0  0  0  0  0  0  0  0  0  0  0  0
   63.3830   31.8920   47.8950 C   0  0  0  0  0  0  0  0  0  0  0  0
   62.6030   34.0770   48.7310 C   0  0  0  0  0  0  0  0  0  0  0  0
   61.1890   34.1500   49.3470 C   0  0  0  0  0  0  0  0  0  0  0  0
   60.2520   34.7680   48.4630 O   0  0  0  0  0  0  0  0  0  0  0  0
   59.5270   34.1170   47.4520 C   0  0  0  0  0  0  0  0  0  0  0  0
   58.8760   32.9210   47.7750 C   0  0  0  0  0  0  0  0  0  0  0  0
   58.1380   32.2290   46.8110 C   0  0  0  0  0  0  0  0  0  0  0  0
   58.0360   32.7290   45.5040 C   0  0  0  0  0  0  0  0  0  0  0  0
   57.2650   31.9640   44.4630 C   0  0  0  0  0  0  0  0  0  0  0  0
   57.5910   30.5420   44.5410 N   0  0  0  0  0  0  0  0  0  0  0  0
   58.9370   30.0030   44.4890 C   0  0  0  0  0  0  0  0  0  0  0  0
   58.7870   28.4710   44.5880 C   0  0  0  0  0  0  0  0  0  0  0  0
   57.2960   28.1680   44.8210 C   0  0  0  0  0  0  0  0  0  0  0  0
   56.6620   29.4970   44.7460 C   0  0  0  0  0  0  0  0  0  0  0  0
   55.4230   29.6890   44.8660 O   0  0  0  0  0  0  0  0  0  0  0  0
   58.6970   33.9220   45.1710 C   0  0  0  0  0  0  0  0  0  0  0  0
   59.4360   34.6130   46.1360 C   0  0  0  0  0  0  0  0  0  0  0  0
   64.1017   34.5509   46.7385 H   0  0  0  0  0  0  0  0  0  0  0  0
   63.8719   33.0412   45.7926 H   0  0  0  0  0  0  0  0  0  0  0  0
   62.5947   34.3044   45.7926 H   0  0  0  0  0  0  0  0  0  0  0  0
   63.4398   31.7795   48.9878 H   0  0  0  0  0  0  0  0  0  0  0  0
   62.7946   31.0648   47.4713 H   0  0  0  0  0  0  0  0  0  0  0  0
   64.3980   31.8746   47.4713 H   0  0  0  0  0  0  0  0  0  0  0  0
   63.2972   33.7330   49.5119 H   0  0  0  0  0  0  0  0  0  0  0  0
   62.8268   35.0877   48.3589 H   0  0  0  0  0  0  0  0  0  0  0  0
   60.8460   33.1292   49.5711 H   0  0  0  0  0  0  0  0  0  0  0  0
   61.2473   34.7594   50.2609 H   0  0  0  0  0  0  0  0  0  0  0  0
   58.9459   32.5218   48.7976 H   0  0  0  0  0  0  0  0  0  0  0  0
   57.6348   31.2880   47.0781 H   0  0  0  0  0  0  0  0  0  0  0  0
   56.1872   32.1002   44.6354 H   0  0  0  0  0  0  0  0  0  0  0  0
   57.5350   32.3411   43.4656 H   0  0  0  0  0  0  0  0  0  0  0  0
   59.4226   30.2788   43.5413 H   0  0  0  0  0  0  0  0  0  0  0  0
   59.5611   30.3997   45.3034 H   0  0  0  0  0  0  0  0  0  0  0  0
   59.1249   27.9991   43.6536 H   0  0  0  0  0  0  0  0  0  0  0  0
   59.3973   28.0737   45.4125 H   0  0  0  0  0  0  0  0  0  0  0  0
   56.9034   27.4999   44.0403 H   0  0  0  0  0  0  0  0  0  0  0  0
   57.1059   27.6545   45.7750 H   0  0  0  0  0  0  0  0  0  0  0  0
   58.6332   34.3151   44.1456 H   0  0  0  0  0  0  0  0  0  0  0  0
   59.9488   35.5482   45.8668 H   0  0  0  0  0  0  0  0  0  0  0  0
  1  2  1  0
  2  3  1  0
  2  4  1  0
  4  5  1  0
  5  6  1  0
  6  7  1  0
  7  8  2  0
  8  9  1  0
  9 10  2  0
 10 11  1  0
 11 12  1  0
 12 13  1  0
 13 14  1  0
 14 15  1  0
 15 16  1  0
 16 17  2  0
 10 18  1  0
 18 19  2  0
 19  7  1  0
 16 12  1  0
  1 20  1  0
  1 21  1  0
  1 22  1  0
  3 23  1  0
  3 24  1  0
  3 25  1  0
  4 26  1  0
  4 27  1  0
  5 28  1  0
  5 29  1  0
  8 30  1  0
  9 31  1  0
 11 32  1  0
 11 33  1  0
 13 34  1  0
 13 35  1  0
 14 36  1  0
 14 37  1  0
 15 38  1  0
 15 39  1  0
 18 40  1  0
 19 41  1  0
M  END
>  <UniqueID>  (41) 
37

>  <SMILES>  (41) 
CN(C)CCOc1ccc(CN2CCCC2=O)cc1

>  <Energy>  (41) 
46.06158660890602

>  <Genealogy>  (41) 
CN(C)CCOc1ccc(CN2CCCC2=O)cc1 (3D coordinates assigned)
CN(C)CCOc1ccc(CN2CCCC2=O)cc1 (nonaromatic ring conformer: 46.06158660890602 kcal/mol)

>  <smiles>  (41) 
CN(C)CCOc1ccc(CN2CCCC2=O)cc1

>  <score_type>  (41) 
oracle

>  <origin>  (41) 
adg

>  <m_score__min__energy>  (41) 
-6.4299999999999997

>  <m_primary>  (41) 
energy

$$$$
42:0
     RDKit          3D

 58 60  0  0  0  0  0  0  0  0999 V2000
   58.1050   26.7100   42.8370 C   0  0  0  0  0  0  0  0  0  0  0  0
   57.7690   26.0750   44.1830 C   0  0  0  0  0  0  0  0  0  0  0  0
   57.6560   27.1110   45.2370 N   0  0  0  0  0  0  0  0  0  0  0  0
   57.6100   26.4920   46.5840 C   0  0  0  0  0  0  0  0  0  0  0  0
   58.9550   26.6660   47.2800 C   0  0  0  0  0  0  0  0  0  0  0  0
   58.7560   28.0980   45.1320 C   0  0  0  0  0  0  0  0  0  0  0  0
   58.2290   29.5110   45.2890 C   0  0  0  0  0  0  0  0  0  0  0  0
   57.1810   29.9500   44.4670 C   0  0  0  0  0  0  0  0  0  0  0  0
   56.8000   31.2520   44.4810 N   0  0  0  0  0  0  0  0  0  0  0  0
   57.4100   32.1500   45.2930 C   0  0  0  0  0  0  0  0  0  0  0  0
   56.9550   33.8790   45.2080 S   0  0  0  0  0  0  0  0  0  0  0  0
   58.6610   34.4680   44.9070 C   0  0  0  0  0  0  0  0  0  0  0  0
   59.5090   34.3730   46.1470 C   0  0  0  0  0  0  0  0  0  0  0  0
   58.9560   34.6450   47.4110 C   0  0  0  0  0  0  0  0  0  0  0  0
   59.7370   34.5190   48.5630 C   0  0  0  0  0  0  0  0  0  0  0  0
   61.0720   34.1180   48.4630 C   0  0  0  0  0  0  0  0  0  0  0  0
   61.6270   33.8420   47.2110 C   0  0  0  0  0  0  0  0  0  0  0  0
   60.8500   33.9660   46.0550 C   0  0  0  0  0  0  0  0  0  0  0  0
   58.4060   31.7490   46.1210 N   0  0  0  0  0  0  0  0  0  0  0  0
   58.8240   30.4570   46.1560 C   0  0  0  0  0  0  0  0  0  0  0  0
   59.9270   30.1110   47.0690 C   0  0  0  0  0  0  0  0  0  0  0  0
   60.7580   29.2230   46.7370 O   0  0  0  0  0  0  0  0  0  0  0  0
   60.0580   30.8040   48.3200 N   0  0  0  0  0  0  0  0  0  0  0  0
   61.1120   30.5520   49.2630 C   0  0  0  0  0  0  0  0  0  0  0  0
   60.9880   29.5620   50.2510 C   0  0  0  0  0  0  0  0  0  0  0  0
   62.0200   29.3500   51.1700 C   0  0  0  0  0  0  0  0  0  0  0  0
   63.1790   30.1290   51.1150 C   0  0  0  0  0  0  0  0  0  0  0  0
   63.3150   31.1230   50.1370 C   0  0  0  0  0  0  0  0  0  0  0  0
   64.5380   31.9920   50.1080 C   0  0  0  0  0  0  0  0  0  0  0  0
   62.2690   31.3460   49.2280 C   0  0  0  0  0  0  0  0  0  0  0  0
   58.6137   27.6713   43.0019 H   0  0  0  0  0  0  0  0  0  0  0  0
   58.7657   26.0382   42.2694 H   0  0  0  0  0  0  0  0  0  0  0  0
   57.1779   26.8783   42.2694 H   0  0  0  0  0  0  0  0  0  0  0  0
   56.8125   25.5381   44.1003 H   0  0  0  0  0  0  0  0  0  0  0  0
   58.5751   25.3783   44.4566 H   0  0  0  0  0  0  0  0  0  0  0  0
   56.8243   26.9770   47.1819 H   0  0  0  0  0  0  0  0  0  0  0  0
   57.3903   25.4189   46.4826 H   0  0  0  0  0  0  0  0  0  0  0  0
   58.8089   26.6471   48.3701 H   0  0  0  0  0  0  0  0  0  0  0  0
   59.6286   25.8475   46.9861 H   0  0  0  0  0  0  0  0  0  0  0  0
   59.3981   27.6290   46.9861 H   0  0  0  0  0  0  0  0  0  0  0  0
   59.4954   27.8991   45.9217 H   0  0  0  0  0  0  0  0  0  0  0  0
   59.2207   28.0035   44.1395 H   0  0  0  0  0  0  0  0  0  0  0  0
   56.6657   29.2356   43.8081 H   0  0  0  0  0  0  0  0  0  0  0  0
   59.1159   33.8538   44.1159 H   0  0  0  0  0  0  0  0  0  0  0  0
   58.6111   35.5247   44.6055 H   0  0  0  0  0  0  0  0  0  0  0  0
   57.9047   34.9581   47.4933 H   0  0  0  0  0  0  0  0  0  0  0  0
   59.3006   34.7356   49.5492 H   0  0  0  0  0  0  0  0  0  0  0  0
   61.6860   34.0197   49.3704 H   0  0  0  0  0  0  0  0  0  0  0  0
   62.6779   33.5263   47.1343 H   0  0  0  0  0  0  0  0  0  0  0  0
   61.2900   33.7443   45.0715 H   0  0  0  0  0  0  0  0  0  0  0  0
   59.4630   31.6510   48.4680 H   0  0  0  0  0  0  0  0  0  0  0  0
   60.0750   28.9506   50.3021 H   0  0  0  0  0  0  0  0  0  0  0  0
   61.9196   28.5687   51.9377 H   0  0  0  0  0  0  0  0  0  0  0  0
   63.9872   29.9612   51.8420 H   0  0  0  0  0  0  0  0  0  0  0  0
   64.8532   32.2159   51.1378 H   0  0  0  0  0  0  0  0  0  0  0  0
   65.3489   31.4664   49.5825 H   0  0  0  0  0  0  0  0  0  0  0  0
   64.3085   32.9307   49.5825 H   0  0  0  0  0  0  0  0  0  0  0  0
   62.3567   32.1496   48.4820 H   0  0  0  0  0  0  0  0  0  0  0  0
  1  2  1  0
  2  3  1  0
  3  4  1  0
  4  5  1  0
  3  6  1  0
  6  7  1  0
  7  8  2  0
  8  9  1  0
  9 10  2  0
 10 11  1  0
 11 12  1  0
 12 13  1  0
 13 14  2  0
 14 15  1  0
 15 16  2  0
 16 17  1  0
 17 18  2  0
 10 19  1  0
 19 20  2  0
 20 21  1  0
 21 22  2  0
 21 23  1  0
 23 24  1  0
 24 25  2  0
 25 26  1  0
 26 27  2  0
 27 28  1  0
 28 29  1  0
 28 30  2  0
 20  7  1  0
 30 24  1  0
 18 13  1  0
  1 31  1  0
  1 32  1  0
  1 33  1  0
  2 34  1  0
  2 35  1  0
  4 36  1  0
  4 37  1  0
  5 38  1  0
  5 39  1  0
  5 40  1  0
  6 41  1  0
  6 42  1  0
  8 43  1  0
 12 44  1  0
 12 45  1  0
 14 46  1  0
 15 47  1  0
 16 48  1  0
 17 49  1  0
 18 50  1  0
 23 51  1  0
 25 52  1  0
 26 53  1  0
 27 54  1  0
 29 55  1  0
 29 56  1  0
 29 57  1  0
 30 58  1  0
M  END
>  <UniqueID>  (42) 
38

>  <SMILES>  (42) 
CCN(CC)Cc1cnc(SCc2ccccc2)nc1C(=O)Nc1cccc(C)c1

>  <Energy>  (42) 
58.930694199838

>  <Genealogy>  (42) 
CCN(CC)Cc1cnc(SCc2ccccc2)nc1C(=O)Nc1cccc(C)c1 (3D coordinates assigned)
CCN(CC)Cc1cnc(SCc2ccccc2)nc1C(=O)Nc1cccc(C)c1 (optimized conformer: 58.930694199838 kcal/mol)

>  <smiles>  (42) 
CCN(CC)Cc1cnc(SCc2ccccc2)nc1C(=O)Nc1cccc(C)c1

>  <score_type>  (42) 
oracle

>  <origin>  (42) 
adg

>  <m_score__min__energy>  (42) 
-8.2100000000000009

>  <m_primary>  (42) 
energy

$$$$
43:0
     RDKit          3D

 60 62  0  0  0  0  0  0  0  0999 V2000
   63.3670   31.8510   47.1780 C   0  0  0  0  0  0  0  0  0  0  0  0
   63.0510   33.3360   47.0300 C   0  0  0  0  0  0  0  0  0  0  0  0
   62.3320   33.8760   48.2810 C   0  0  0  0  0  0  0  0  0  0  0  0
   60.9890   33.2940   48.5410 N   0  0  1  0  0  0  0  0  0  0  0  0
   60.9110   32.3990   49.7320 C   0  0  0  0  0  0  0  0  0  0  0  0
   60.6020   30.9450   49.4390 C   0  0  0  0  0  0  0  0  0  0  0  0
   60.7190   29.9710   50.4440 C   0  0  0  0  0  0  0  0  0  0  0  0
   60.4130   28.6400   50.1520 C   0  0  0  0  0  0  0  0  0  0  0  0
   59.9830   28.2920   48.8700 C   0  0  0  0  0  0  0  0  0  0  0  0
   59.8630   29.2870   47.8990 C   0  0  0  0  0  0  0  0  0  0  0  0
   60.1660   30.5760   48.2020 N   0  0  0  0  0  0  0  0  0  0  0  0
   59.9310   34.2950   48.4560 C   0  0  0  0  0  0  0  0  0  0  0  0
   59.6340   34.9590   49.4390 O   0  0  0  0  0  0  0  0  0  0  0  0
   59.2170   34.5950   47.1470 C   0  0  0  0  0  0  0  0  0  0  0  0
   60.1090   34.2490   45.9370 C   0  0  0  0  0  0  0  0  0  0  0  0
   59.2700   34.2180   44.6550 C   0  0  0  0  0  0  0  0  0  0  0  0
   58.1980   33.1920   44.7050 N   0  0  0  0  0  0  0  0  0  0  0  0
   58.3960   32.0580   43.7710 C   0  0  0  0  0  0  0  0  0  0  0  0
   57.7930   30.7490   44.2580 C   0  0  0  0  0  0  0  0  0  0  0  0
   56.4070   30.5340   44.1510 C   0  0  0  0  0  0  0  0  0  0  0  0
   55.8410   29.3240   44.5560 C   0  0  0  0  0  0  0  0  0  0  0  0
   56.6470   28.3200   45.0890 C   0  0  0  0  0  0  0  0  0  0  0  0
   58.0210   28.5250   45.2310 C   0  0  0  0  0  0  0  0  0  0  0  0
   58.6070   29.7410   44.8260 C   0  0  0  0  0  0  0  0  0  0  0  0
   59.9860   29.9740   44.9640 O   0  0  0  0  0  0  0  0  0  0  0  0
   60.9940   28.9780   44.8240 C   0  0  0  0  0  0  0  0  0  0  0  0
   57.7750   32.7730   46.0620 C   0  0  0  0  0  0  0  0  0  0  0  0
   57.8140   33.9380   47.0600 C   0  0  0  0  0  0  0  0  0  0  0  0
   63.4220   31.5925   48.2458 H   0  0  0  0  0  0  0  0  0  0  0  0
   62.5750   31.2579   46.6975 H   0  0  0  0  0  0  0  0  0  0  0  0
   64.3319   31.6318   46.6975 H   0  0  0  0  0  0  0  0  0  0  0  0
   63.9900   33.8909   46.8874 H   0  0  0  0  0  0  0  0  0  0  0  0
   62.3890   33.4681   46.1615 H   0  0  0  0  0  0  0  0  0  0  0  0
   62.9675   33.6686   49.1546 H   0  0  0  0  0  0  0  0  0  0  0  0
   62.1695   34.9487   48.0999 H   0  0  0  0  0  0  0  0  0  0  0  0
   60.8470   32.6500   47.7300 H   0  0  0  0  0  0  0  0  0  0  0  0
   61.8799   32.4411   50.2511 H   0  0  0  0  0  0  0  0  0  0  0  0
   60.0680   32.7706   50.3330 H   0  0  0  0  0  0  0  0  0  0  0  0
   61.0494   30.2545   51.4542 H   0  0  0  0  0  0  0  0  0  0  0  0
   60.5104   27.8681   50.9297 H   0  0  0  0  0  0  0  0  0  0  0  0
   59.7418   27.2463   48.6284 H   0  0  0  0  0  0  0  0  0  0  0  0
   59.5223   29.0269   46.8859 H   0  0  0  0  0  0  0  0  0  0  0  0
   59.0329   35.6792   47.1211 H   0  0  0  0  0  0  0  0  0  0  0  0
   60.8976   35.0094   45.8373 H   0  0  0  0  0  0  0  0  0  0  0  0
   60.5612   33.2588   46.0950 H   0  0  0  0  0  0  0  0  0  0  0  0
   58.8074   35.2056   44.5116 H   0  0  0  0  0  0  0  0  0  0  0  0
   59.9405   33.9622   43.8214 H   0  0  0  0  0  0  0  0  0  0  0  0
   57.9316   32.3167   42.8080 H   0  0  0  0  0  0  0  0  0  0  0  0
   59.4811   31.8988   43.6858 H   0  0  0  0  0  0  0  0  0  0  0  0
   55.7627   31.3273   43.7441 H   0  0  0  0  0  0  0  0  0  0  0  0
   54.7576   29.1629   44.4543 H   0  0  0  0  0  0  0  0  0  0  0  0
   56.1999   27.3638   45.3986 H   0  0  0  0  0  0  0  0  0  0  0  0
   58.6501   27.7321   45.6618 H   0  0  0  0  0  0  0  0  0  0  0  0
   61.3261   28.6499   45.8200 H   0  0  0  0  0  0  0  0  0  0  0  0
   60.5860   28.1185   44.2719 H   0  0  0  0  0  0  0  0  0  0  0  0
   61.8486   29.3962   44.2719 H   0  0  0  0  0  0  0  0  0  0  0  0
   56.7474   32.3841   46.0097 H   0  0  0  0  0  0  0  0  0  0  0  0
   58.4747   32.0003   46.4132 H   0  0  0  0  0  0  0  0  0  0  0  0
   57.0863   34.6995   46.7428 H   0  0  0  0  0  0  0  0  0  0  0  0
   57.5693   33.5364   48.0544 H   0  0  0  0  0  0  0  0  0  0  0  0
  1  2  1  0
  2  3  1  0
  3  4  1  0
  4  5  1  0
  5  6  1  0
  6  7  2  0
  7  8  1  0
  8  9  2  0
  9 10  1  0
 10 11  2  0
  4 12  1  0
 12 13  2  0
 12 14  1  0
 14 15  1  0
 15 16  1  0
 16 17  1  0
 17 18  1  0
 18 19  1  0
 19 20  2  0
 20 21  1  0
 21 22  2  0
 22 23  1  0
 23 24  2  0
 24 25  1  0
 25 26  1  0
 17 27  1  0
 27 28  1  0
 11  6  1  0
 28 14  1  0
 24 19  1  0
  1 29  1  0
  1 30  1  0
  1 31  1  0
  2 32  1  0
  2 33  1  0
  3 34  1  0
  3 35  1  0
  4 36  1  6
  5 37  1  0
  5 38  1  0
  7 39  1  0
  8 40  1  0
  9 41  1  0
 10 42  1  0
 14 43  1  0
 15 44  1  0
 15 45  1  0
 16 46  1  0
 16 47  1  0
 18 48  1  0
 18 49  1  0
 20 50  1  0
 21 51  1  0
 22 52  1  0
 23 53  1  0
 26 54  1  0
 26 55  1  0
 26 56  1  0
 27 57  1  0
 27 58  1  0
 28 59  1  0
 28 60  1  0
M  CHG  1   4   1
M  END
>  <UniqueID>  (43) 
39

>  <SMILES>  (43) 
CCC[N@@H+](Cc1ccccn1)C(=O)C1CCN(Cc2ccccc2OC)CC1

>  <Energy>  (43) 
78.60558157654793

>  <Genealogy>  (43) 
CCC[NH+](Cc1ccccn1)C(=O)C1CCN(Cc2ccccc2OC)CC1 (protonated)
CCC[N@@H+](Cc1ccccn1)C(=O)C1CCN(Cc2ccccc2OC)CC1 (chirality)
CCC[N@@H+](Cc1ccccn1)C(=O)C1CCN(Cc2ccccc2OC)CC1 (3D coordinates assigned)
CCC[N@@H+](Cc1ccccn1)C(=O)C1CCN(Cc2ccccc2OC)CC1 (nonaromatic ring conformer: 78.60558157654793 kcal/mol)

>  <smiles>  (43) 
CCCN(Cc1ccccn1)C(=O)C1CCN(Cc2ccccc2OC)CC1

>  <score_type>  (43) 
oracle

>  <origin>  (43) 
adg

>  <m_score__min__energy>  (43) 
-7.4900000000000002

>  <m_primary>  (43) 
energy

$$$$
44:0
     RDKit          3D

 48 51  0  0  1  0  0  0  0  0999 V2000
   54.4110   24.9930   45.6220 C   0  0  0  0  0  0  0  0  0  0  0  0
   54.9090   26.2630   45.9930 O   0  0  0  0  0  0  0  0  0  0  0  0
   56.2580   26.5550   46.0280 C   0  0  0  0  0  0  0  0  0  0  0  0
   57.1080   25.5830   46.4920 C   0  0  0  0  0  0  0  0  0  0  0  0
   58.4530   25.8720   46.5270 C   0  0  0  0  0  0  0  0  0  0  0  0
   58.8660   27.0970   46.1040 C   0  0  0  0  0  0  0  0  0  0  0  0
   60.3570   27.4990   46.1350 C   0  0  0  0  0  0  0  0  0  0  0  0
   60.4220   28.0200   47.3600 N   0  0  0  0  0  0  0  0  0  0  0  0
   60.0250   29.0700   47.8810 C   0  0  0  0  0  0  0  0  0  0  0  0
   59.5790   30.0770   47.1230 N   0  0  0  0  0  0  0  0  0  0  0  0
   59.1220   31.2500   47.6160 C   0  0  0  0  0  0  0  0  0  0  0  0
   58.6500   32.3100   46.7330 C   0  0  0  0  0  0  0  0  0  0  0  0
   59.0090   33.6060   47.0020 C   0  0  0  0  0  0  0  0  0  0  0  0
   58.5460   34.5830   46.1490 C   0  0  0  0  0  0  0  0  0  0  0  0
   57.7470   34.2430   45.0620 C   0  0  0  0  0  0  0  0  0  0  0  0
   57.4020   32.9110   44.8210 C   0  0  0  0  0  0  0  0  0  0  0  0
   57.8800   31.9840   45.6870 N   0  0  0  0  0  0  0  0  0  0  0  0
   59.1250   31.3870   48.9540 N   0  0  0  0  0  0  0  0  0  0  0  0
   59.5660   30.3930   49.7440 C   0  0  0  0  0  0  0  0  0  0  0  0
   59.5450   30.5960   51.0940 C   0  0  0  0  0  0  0  0  0  0  0  0
   60.0050   29.5590   51.8770 C   0  0  0  0  0  0  0  0  0  0  0  0
   60.4680   28.3820   51.4050 C   0  0  0  0  0  0  0  0  0  0  0  0
   60.4950   28.1610   49.9980 C   0  0  0  0  0  0  0  0  0  0  0  0
   60.0370   29.1910   49.2500 C   0  0  0  0  0  0  0  0  0  0  0  0
   57.9930   28.0840   45.6320 C   0  0  0  0  0  0  0  0  0  0  0  0
   56.6490   27.7990   45.5950 C   0  0  0  0  0  0  0  0  0  0  0  0
   55.7260   28.7120   45.1450 O   0  0  0  0  0  0  0  0  0  0  0  0
   56.0720   29.7100   44.2120 C   0  0  0  0  0  0  0  0  0  0  0  0
   54.1825   24.4102   46.5265 H   0  0  0  0  0  0  0  0  0  0  0  0
   53.4954   25.1182   45.0254 H   0  0  0  0  0  0  0  0  0  0  0  0
   55.1677   24.4624   45.0254 H   0  0  0  0  0  0  0  0  0  0  0  0
   56.7273   24.6061   46.8247 H   0  0  0  0  0  0  0  0  0  0  0  0
   59.1783   25.1285   46.8892 H   0  0  0  0  0  0  0  0  0  0  0  0
   61.0188   26.6273   46.0248 H   0  0  0  0  0  0  0  0  0  0  0  0
   60.6765   28.1705   45.3244 H   0  0  0  0  0  0  0  0  0  0  0  0
   59.5640   30.0030   46.0780 H   0  0  0  0  0  0  0  0  0  0  0  0
   59.6425   33.8555   47.8660 H   0  0  0  0  0  0  0  0  0  0  0  0
   58.8089   35.6361   46.3278 H   0  0  0  0  0  0  0  0  0  0  0  0
   57.3834   35.0307   44.3858 H   0  0  0  0  0  0  0  0  0  0  0  0
   56.7704   32.6269   43.9664 H   0  0  0  0  0  0  0  0  0  0  0  0
   59.1806   31.5364   51.5331 H   0  0  0  0  0  0  0  0  0  0  0  0
   59.9940   29.7011   52.9677 H   0  0  0  0  0  0  0  0  0  0  0  0
   60.8199   27.6036   52.0980 H   0  0  0  0  0  0  0  0  0  0  0  0
   60.8606   27.2237   49.5533 H   0  0  0  0  0  0  0  0  0  0  0  0
   58.3724   29.0615   45.2996 H   0  0  0  0  0  0  0  0  0  0  0  0
   56.3869   30.6183   44.7466 H   0  0  0  0  0  0  0  0  0  0  0  0
   56.8982   29.3511   43.5806 H   0  0  0  0  0  0  0  0  0  0  0  0
   55.2010   29.9395   43.5806 H   0  0  0  0  0  0  0  0  0  0  0  0
  1  2  1  0
  2  3  1  0
  3  4  2  0
  4  5  1  0
  5  6  2  0
  6  7  1  0
  7  8  1  0
  8  9  2  0
  9 10  1  0
 10 11  1  0
 11 12  1  0
 12 13  2  0
 13 14  1  0
 14 15  2  0
 15 16  1  0
 16 17  2  0
 11 18  2  0
 18 19  1  0
 19 20  2  0
 20 21  1  0
 21 22  2  0
 22 23  1  0
 23 24  2  0
  6 25  1  0
 25 26  2  0
 26 27  1  0
 27 28  1  0
 26  3  1  0
 24  9  1  0
 17 12  1  0
 24 19  1  0
  1 29  1  0
  1 30  1  0
  1 31  1  0
  4 32  1  0
  5 33  1  0
  7 34  1  0
  7 35  1  0
 10 36  1  0
 13 37  1  0
 14 38  1  0
 15 39  1  0
 16 40  1  0
 20 41  1  0
 21 42  1  0
 22 43  1  0
 23 44  1  0
 25 45  1  0
 28 46  1  0
 28 47  1  0
 28 48  1  0
M  END
>  <smiles>  (44) 
COc1ccc(CN=c2[nH]c(-c3ccccn3)nc3ccccc23)cc1OC

>  <score_type>  (44) 
oracle

>  <origin>  (44) 
adg

>  <m_score__min__energy>  (44) 
-9.1300000000000008

>  <m_primary>  (44) 
energy

$$$$
45:0
     RDKit          3D

 45 46  0  0  0  0  0  0  0  0999 V2000
   58.2310   21.4640   43.6490 N   0  0  0  0  0  0  0  0  0  0  0  0
   56.6260   22.0950   43.7510 S   0  0  0  0  0  0  0  0  0  0  0  0
   56.0270   22.1590   42.3730 O   0  0  0  0  0  0  0  0  0  0  0  0
   55.7800   21.1950   44.6080 O   0  0  0  0  0  0  0  0  0  0  0  0
   56.6820   23.7010   44.4670 C   0  0  0  0  0  0  0  0  0  0  0  0
   55.8170   24.0510   45.5130 C   0  0  0  0  0  0  0  0  0  0  0  0
   55.8310   25.3490   46.0320 C   0  0  0  0  0  0  0  0  0  0  0  0
   56.6920   26.3170   45.4900 C   0  0  0  0  0  0  0  0  0  0  0  0
   56.6690   27.6770   45.9420 N   0  0  0  0  0  0  0  0  0  0  0  0
   56.3610   28.8340   45.1450 C   0  0  0  0  0  0  0  0  0  0  0  0
   55.1900   28.9690   44.7050 O   0  0  0  0  0  0  0  0  0  0  0  0
   57.3790   29.8950   44.8270 C   0  0  0  0  0  0  0  0  0  0  0  0
   56.7590   31.1750   44.7700 O   0  0  0  0  0  0  0  0  0  0  0  0
   57.4330   32.3310   44.3680 C   0  0  0  0  0  0  0  0  0  0  0  0
   58.1230   32.3340   43.3140 O   0  0  0  0  0  0  0  0  0  0  0  0
   57.4120   33.5490   45.2450 C   0  0  0  0  0  0  0  0  0  0  0  0
   58.5310   33.5460   46.2980 C   0  0  0  0  0  0  0  0  0  0  0  0
   58.1750   32.7330   47.5540 C   0  0  0  0  0  0  0  0  0  0  0  0
   59.2810   31.8680   47.9640 N   0  0  0  0  0  0  0  0  0  0  0  0
   59.4670   30.6480   47.5540 C   0  0  0  0  0  0  0  0  0  0  0  0
   60.2220   30.4180   46.3960 C   0  0  0  0  0  0  0  0  0  0  0  0
   60.4240   29.1070   45.9590 C   0  0  0  0  0  0  0  0  0  0  0  0
   59.8760   28.0420   46.6770 C   0  0  0  0  0  0  0  0  0  0  0  0
   59.1310   28.3060   47.8280 C   0  0  0  0  0  0  0  0  0  0  0  0
   58.9450   29.5890   48.2380 N   0  0  0  0  0  0  0  0  0  0  0  0
   57.5920   25.9500   44.4830 C   0  0  0  0  0  0  0  0  0  0  0  0
   57.5800   24.6520   43.9660 C   0  0  0  0  0  0  0  0  0  0  0  0
   58.1920   20.6280   43.0240 H   0  0  0  0  0  0  0  0  0  0  0  0
   58.4860   21.1190   44.6010 H   0  0  0  0  0  0  0  0  0  0  0  0
   55.1253   23.3023   45.9266 H   0  0  0  0  0  0  0  0  0  0  0  0
   55.1657   25.6129   46.8673 H   0  0  0  0  0  0  0  0  0  0  0  0
   58.1526   29.9013   45.6090 H   0  0  0  0  0  0  0  0  0  0  0  0
   57.8322   29.6737   43.8494 H   0  0  0  0  0  0  0  0  0  0  0  0
   57.5289   34.4403   44.6110 H   0  0  0  0  0  0  0  0  0  0  0  0
   56.4523   33.5526   45.7826 H   0  0  0  0  0  0  0  0  0  0  0  0
   59.4359   33.1138   45.8460 H   0  0  0  0  0  0  0  0  0  0  0  0
   58.6863   34.5879   46.6147 H   0  0  0  0  0  0  0  0  0  0  0  0
   57.9409   33.4271   48.3746 H   0  0  0  0  0  0  0  0  0  0  0  0
   57.3084   32.0974   47.3195 H   0  0  0  0  0  0  0  0  0  0  0  0
   60.6515   31.2621   45.8365 H   0  0  0  0  0  0  0  0  0  0  0  0
   61.0137   28.9137   45.0508 H   0  0  0  0  0  0  0  0  0  0  0  0
   60.0296   27.0064   46.3395 H   0  0  0  0  0  0  0  0  0  0  0  0
   58.6946   27.4761   48.4031 H   0  0  0  0  0  0  0  0  0  0  0  0
   58.3119   26.6866   44.0969 H   0  0  0  0  0  0  0  0  0  0  0  0
   58.2785   24.3759   43.1624 H   0  0  0  0  0  0  0  0  0  0  0  0
  1  2  1  0
  2  3  2  0
  2  4  2  0
  2  5  1  0
  5  6  2  0
  6  7  1  0
  7  8  2  0
  8  9  1  0
  9 10  1  0
 10 11  2  0
 10 12  1  0
 12 13  1  0
 13 14  1  0
 14 15  2  0
 14 16  1  0
 16 17  1  0
 17 18  1  0
 18 19  1  0
 19 20  2  3
 20 21  1  0
 21 22  2  0
 22 23  1  0
 23 24  2  0
 24 25  1  0
  8 26  1  0
 26 27  2  0
 27  5  1  0
 25 20  1  0
  1 28  1  0
  1 29  1  0
  6 30  1  0
  7 31  1  0
 12 32  1  0
 12 33  1  0
 16 34  1  0
 16 35  1  0
 17 36  1  0
 17 37  1  0
 18 38  1  0
 18 39  1  0
 21 40  1  0
 22 41  1  0
 23 42  1  0
 24 43  1  0
 26 44  1  0
 27 45  1  0
M  CHG  2   9  -1  25  -1
M  END
>  <UniqueID>  (45) 
40

>  <SMILES>  (45) 
NS(=O)(=O)c1ccc([N-]C(=O)COC(=O)CCCN=c2cccc[n-]2)cc1

>  <Energy>  (45) 
40.67460056279765

>  <Genealogy>  (45) 
NS(=O)(=O)c1ccc([N-]C(=O)COC(=O)CCCN=c2cccc[n-]2)cc1 (protonated)
NS(=O)(=O)c1ccc([N-]C(=O)COC(=O)CCCN=c2cccc[n-]2)cc1 (3D coordinates assigned)
NS(=O)(=O)c1ccc([N-]C(=O)COC(=O)CCCN=c2cccc[n-]2)cc1 (optimized conformer: 40.67460056279765 kcal/mol)

>  <smiles>  (45) 
NS(=O)(=O)c1ccc(NC(=O)COC(=O)CCCN=c2cccc[nH]2)cc1

>  <score_type>  (45) 
oracle

>  <origin>  (45) 
adg

>  <m_score__min__energy>  (45) 
-11.69

>  <m_primary>  (45) 
energy

$$$$
46:0
     RDKit          3D

 49 50  0  0  0  0  0  0  0  0999 V2000
   56.0080   23.0070   43.0370 C   0  0  0  0  0  0  0  0  0  0  0  0
   55.7190   23.6720   44.2630 O   0  0  0  0  0  0  0  0  0  0  0  0
   56.6180   24.5090   44.9440 C   0  0  0  0  0  0  0  0  0  0  0  0
   58.0080   24.2860   44.9220 C   0  0  0  0  0  0  0  0  0  0  0  0
   58.8710   25.1390   45.6130 C   0  0  0  0  0  0  0  0  0  0  0  0
   58.3630   26.2210   46.3430 C   0  0  0  0  0  0  0  0  0  0  0  0
   59.2990   27.1600   47.0570 C   0  0  0  0  0  0  0  0  0  0  0  0
   58.5110   28.2350   47.8100 C   0  0  0  0  0  0  0  0  0  0  0  0
   58.0270   29.2560   46.8840 N   0  0  0  0  0  0  0  0  0  0  0  0
   58.9120   30.0950   46.1270 C   0  0  0  0  0  0  0  0  0  0  0  0
   60.1610   29.9890   46.2740 O   0  0  0  0  0  0  0  0  0  0  0  0
   58.3380   31.1130   45.1690 C   0  0  1  0  0  0  0  0  0  0  0  0
   56.8930   30.9360   44.9900 N   0  0  0  0  0  0  0  0  0  0  0  0
   56.2000   29.8360   44.3790 C   0  0  0  0  0  0  0  0  0  0  0  0
   56.2740   29.5500   42.9110 C   0  0  0  0  0  0  0  0  0  0  0  0
   55.5420   29.0550   45.1160 O   0  0  0  0  0  0  0  0  0  0  0  0
   58.6820   32.5580   45.4910 C   0  0  0  0  0  0  0  0  0  0  0  0
   59.1030   32.8740   46.7970 C   0  0  0  0  0  0  0  0  0  0  0  0
   59.4430   34.1860   47.1380 C   0  0  0  0  0  0  0  0  0  0  0  0
   59.3710   35.1990   46.1800 C   0  0  0  0  0  0  0  0  0  0  0  0
   58.9580   34.9020   44.8790 C   0  0  0  0  0  0  0  0  0  0  0  0
   58.6160   33.5920   44.5330 C   0  0  0  0  0  0  0  0  0  0  0  0
   56.9800   26.4550   46.3560 C   0  0  0  0  0  0  0  0  0  0  0  0
   56.1020   25.5990   45.6610 C   0  0  0  0  0  0  0  0  0  0  0  0
   54.7130   25.8000   45.6590 O   0  0  0  0  0  0  0  0  0  0  0  0
   53.7460   24.7550   45.6100 C   0  0  0  0  0  0  0  0  0  0  0  0
   56.4382   22.0171   43.2493 H   0  0  0  0  0  0  0  0  0  0  0  0
   55.0808   22.8872   42.4574 H   0  0  0  0  0  0  0  0  0  0  0  0
   56.7282   23.6031   42.4574 H   0  0  0  0  0  0  0  0  0  0  0  0
   58.4165   23.4350   44.3573 H   0  0  0  0  0  0  0  0  0  0  0  0
   59.9560   24.9602   45.5838 H   0  0  0  0  0  0  0  0  0  0  0  0
   59.9073   26.5888   47.7737 H   0  0  0  0  0  0  0  0  0  0  0  0
   59.9464   27.6491   46.3142 H   0  0  0  0  0  0  0  0  0  0  0  0
   57.6526   27.7679   48.3150 H   0  0  0  0  0  0  0  0  0  0  0  0
   59.1729   28.7096   48.5493 H   0  0  0  0  0  0  0  0  0  0  0  0
   56.9980   29.3280   46.7190 H   0  0  0  0  0  0  0  0  0  0  0  0
   58.8392   30.9062   44.2119 H   0  0  0  0  0  0  0  0  0  0  0  0
   56.5468   28.4957   42.7561 H   0  0  0  0  0  0  0  0  0  0  0  0
   55.2953   29.7471   42.4492 H   0  0  0  0  0  0  0  0  0  0  0  0
   57.0343   30.1971   42.4492 H   0  0  0  0  0  0  0  0  0  0  0  0
   59.1649   32.0805   47.5563 H   0  0  0  0  0  0  0  0  0  0  0  0
   59.7677   34.4208   48.1624 H   0  0  0  0  0  0  0  0  0  0  0  0
   59.6395   36.2311   46.4497 H   0  0  0  0  0  0  0  0  0  0  0  0
   58.9019   35.7011   44.1252 H   0  0  0  0  0  0  0  0  0  0  0  0
   58.2930   33.3652   43.5063 H   0  0  0  0  0  0  0  0  0  0  0  0
   56.5773   27.3137   46.9132 H   0  0  0  0  0  0  0  0  0  0  0  0
   53.4729   24.4599   46.6339 H   0  0  0  0  0  0  0  0  0  0  0  0
   52.8500   25.1091   45.0792 H   0  0  0  0  0  0  0  0  0  0  0  0
   54.1684   23.8891   45.0792 H   0  0  0  0  0  0  0  0  0  0  0  0
  1  2  1  0
  2  3  1  0
  3  4  2  0
  4  5  1  0
  5  6  2  0
  6  7  1  0
  7  8  1  0
  8  9  1  0
  9 10  1  0
 10 11  2  0
 10 12  1  0
 12 13  1  0
 13 14  1  0
 14 15  1  0
 14 16  2  0
 12 17  1  0
 17 18  2  0
 18 19  1  0
 19 20  2  0
 20 21  1  0
 21 22  2  0
  6 23  1  0
 23 24  2  0
 24 25  1  0
 25 26  1  0
 24  3  1  0
 22 17  1  0
  1 27  1  0
  1 28  1  0
  1 29  1  0
  4 30  1  0
  5 31  1  0
  7 32  1  0
  7 33  1  0
  8 34  1  0
  8 35  1  0
  9 36  1  0
 12 37  1  6
 15 38  1  0
 15 39  1  0
 15 40  1  0
 18 41  1  0
 19 42  1  0
 20 43  1  0
 21 44  1  0
 22 45  1  0
 23 46  1  0
 26 47  1  0
 26 48  1  0
 26 49  1  0
M  CHG  1  13  -1
M  END
>  <UniqueID>  (46) 
41

>  <SMILES>  (46) 
COc1ccc(CCNC(=O)[C@@H]([N-]C(C)=O)c2ccccc2)cc1OC

>  <Energy>  (46) 
44.268726015157455

>  <Genealogy>  (46) 
COc1ccc(CCNC(=O)C([N-]C(C)=O)c2ccccc2)cc1OC (protonated)
COc1ccc(CCNC(=O)[C@@H]([N-]C(C)=O)c2ccccc2)cc1OC (chirality)
COc1ccc(CCNC(=O)[C@@H]([N-]C(C)=O)c2ccccc2)cc1OC (3D coordinates assigned)
COc1ccc(CCNC(=O)[C@@H]([N-]C(C)=O)c2ccccc2)cc1OC (optimized conformer: 44.268726015157455 kcal/mol)

>  <smiles>  (46) 
COc1ccc(CCNC(=O)C(NC(C)=O)c2ccccc2)cc1OC

>  <score_type>  (46) 
oracle

>  <origin>  (46) 
adg

>  <m_score__min__energy>  (46) 
-9.7799999999999994

>  <m_primary>  (46) 
energy

$$$$
47:0
     RDKit          3D

 40 43  0  0  0  0  0  0  0  0999 V2000
   56.6860   30.6670   43.1880 C   0  0  0  0  0  0  0  0  0  0  0  0
   56.5590   31.2170   44.4950 O   0  0  0  0  0  0  0  0  0  0  0  0
   57.4640   32.1230   45.0730 C   0  0  0  0  0  0  0  0  0  0  0  0
   57.3050   33.5170   44.9330 C   0  0  0  0  0  0  0  0  0  0  0  0
   58.2250   34.3970   45.5040 C   0  0  0  0  0  0  0  0  0  0  0  0
   59.3180   33.9020   46.2150 C   0  0  0  0  0  0  0  0  0  0  0  0
   59.4890   32.5260   46.3650 C   0  0  0  0  0  0  0  0  0  0  0  0
   58.5620   31.6260   45.8110 C   0  0  0  0  0  0  0  0  0  0  0  0
   58.7840   30.1410   45.9890 C   0  0  0  0  0  0  0  0  0  0  0  0
   57.5190   29.4110   45.8930 N   0  0  0  0  0  0  0  0  0  0  0  0
   57.4000   28.0370   45.4730 C   0  0  0  0  0  0  0  0  0  0  0  0
   57.9980   27.5690   44.2680 C   0  0  0  0  0  0  0  0  0  0  0  0
   57.8660   26.2260   43.8710 C   0  0  0  0  0  0  0  0  0  0  0  0
   57.1360   25.3800   44.6970 C   0  0  0  0  0  0  0  0  0  0  0  0
   56.5580   25.8150   45.8670 C   0  0  0  0  0  0  0  0  0  0  0  0
   56.6720   27.1370   46.2850 C   0  0  0  0  0  0  0  0  0  0  0  0
   55.9080   24.8070   46.4900 N   0  0  0  0  0  0  0  0  0  0  0  0
   56.0760   23.7410   45.7160 N   0  0  0  0  0  0  0  0  0  0  0  0
   55.5920   22.4960   45.9520 C   0  0  0  0  0  0  0  0  0  0  0  0
   55.8710   21.4860   45.0190 C   0  0  0  0  0  0  0  0  0  0  0  0
   56.6380   21.7860   43.8740 C   0  0  0  0  0  0  0  0  0  0  0  0
   57.1210   23.0880   43.6660 C   0  0  0  0  0  0  0  0  0  0  0  0
   56.8110   24.0470   44.6260 C   0  0  0  0  0  0  0  0  0  0  0  0
   56.9329   29.5977   43.2626 H   0  0  0  0  0  0  0  0  0  0  0  0
   55.7365   30.7871   42.6458 H   0  0  0  0  0  0  0  0  0  0  0  0
   57.4867   31.1913   42.6458 H   0  0  0  0  0  0  0  0  0  0  0  0
   56.4483   33.9142   44.3688 H   0  0  0  0  0  0  0  0  0  0  0  0
   58.0880   35.4828   45.3932 H   0  0  0  0  0  0  0  0  0  0  0  0
   60.0460   34.5976   46.6579 H   0  0  0  0  0  0  0  0  0  0  0  0
   60.3565   32.1417   46.9215 H   0  0  0  0  0  0  0  0  0  0  0  0
   59.4678   29.7822   45.2056 H   0  0  0  0  0  0  0  0  0  0  0  0
   59.2172   29.9662   46.9849 H   0  0  0  0  0  0  0  0  0  0  0  0
   56.6440   29.9450   46.1010 H   0  0  0  0  0  0  0  0  0  0  0  0
   58.5706   28.2670   43.6395 H   0  0  0  0  0  0  0  0  0  0  0  0
   58.3239   25.8589   42.9407 H   0  0  0  0  0  0  0  0  0  0  0  0
   56.2075   27.4737   47.2236 H   0  0  0  0  0  0  0  0  0  0  0  0
   54.9960   22.2837   46.8518 H   0  0  0  0  0  0  0  0  0  0  0  0
   55.4935   20.4654   45.1797 H   0  0  0  0  0  0  0  0  0  0  0  0
   56.8588   20.9964   43.1406 H   0  0  0  0  0  0  0  0  0  0  0  0
   57.7209   23.3402   42.7791 H   0  0  0  0  0  0  0  0  0  0  0  0
  1  2  1  0
  2  3  1  0
  3  4  2  0
  4  5  1  0
  5  6  2  0
  6  7  1  0
  7  8  2  0
  8  9  1  0
  9 10  1  0
 10 11  1  0
 11 12  1  0
 12 13  2  0
 13 14  1  0
 14 15  1  0
 15 16  1  0
 15 17  2  0
 17 18  1  0
 18 19  1  0
 19 20  2  0
 20 21  1  0
 21 22  2  0
 22 23  1  0
  8  3  1  0
 16 11  2  0
 23 18  1  0
 23 14  2  0
  1 24  1  0
  1 25  1  0
  1 26  1  0
  4 27  1  0
  5 28  1  0
  6 29  1  0
  7 30  1  0
  9 31  1  0
  9 32  1  0
 10 33  1  0
 12 34  1  0
 13 35  1  0
 16 36  1  0
 19 37  1  0
 20 38  1  0
 21 39  1  0
 22 40  1  0
M  END
>  <UniqueID>  (47) 
42

>  <SMILES>  (47) 
COc1ccccc1CNc1ccc2c(c1)nn1ccccc21

>  <Energy>  (47) 
87.86127335429266

>  <Genealogy>  (47) 
COc1ccccc1CNc1ccc2c(c1)nn1ccccc21 (3D coordinates assigned)
COc1ccccc1CNc1ccc2c(c1)nn1ccccc21 (optimized conformer: 87.86127335429266 kcal/mol)

>  <smiles>  (47) 
COc1ccccc1CNc1ccc2c(c1)nn1ccccc21

>  <score_type>  (47) 
oracle

>  <origin>  (47) 
adg

>  <m_score__min__energy>  (47) 
-7.9699999999999998

>  <m_primary>  (47) 
energy

$$$$
