0:0
     RDKit          3D

 34 36  0  0  0  0  0  0  0  0999 V2000
   58.2920   28.8910   45.7590 C   0  0  0  0  0  0  0  0  0  0  0  0
   57.8120   30.2920   45.5720 C   0  0  0  0  0  0  0  0  0  0  0  0
   56.7110   30.6410   44.8640 N   0  0  0  0  0  0  0  0  0  0  0  0
   56.6360   31.9730   44.8680 N   0  0  0  0  0  0  0  0  0  0  0  0
   57.7010   32.4050   45.5700 C   0  0  0  0  0  0  0  0  0  0  0  0
   58.0660   33.7120   45.8490 C   0  0  0  0  0  0  0  0  0  0  0  0
   59.2390   33.9000   46.6000 C   0  0  0  0  0  0  0  0  0  0  0  0
   59.9990   32.7800   47.0320 C   0  0  0  0  0  0  0  0  0  0  0  0
   61.2430   32.9360   47.8300 C   0  0  0  0  0  0  0  0  0  0  0  0
   62.4290   32.2700   47.4780 C   0  0  0  0  0  0  0  0  0  0  0  0
   63.5870   32.4240   48.2440 C   0  0  0  0  0  0  0  0  0  0  0  0
   63.5930   33.2440   49.3900 C   0  0  0  0  0  0  0  0  0  0  0  0
   64.7970   33.4040   50.1870 N   0  0  0  0  0  0  0  0  0  0  0  0
   64.7840   34.2270   51.4040 C   0  0  0  0  0  0  0  0  0  0  0  0
   66.0480   32.7490   49.7880 C   0  0  0  0  0  0  0  0  0  0  0  0
   62.3970   33.9000   49.7450 C   0  0  0  0  0  0  0  0  0  0  0  0
   61.2400   33.7440   48.9780 C   0  0  0  0  0  0  0  0  0  0  0  0
   59.5590   31.5230   46.7170 N   0  0  0  0  0  0  0  0  0  0  0  0
   58.4410   31.3880   46.0090 N   0  0  0  0  0  0  0  0  0  0  0  0
   58.3678   28.6698   46.8339 H   0  0  0  0  0  0  0  0  0  0  0  0
   57.5813   28.1943   45.2905 H   0  0  0  0  0  0  0  0  0  0  0  0
   59.2806   28.7765   45.2905 H   0  0  0  0  0  0  0  0  0  0  0  0
   57.4650   34.5640   45.4986 H   0  0  0  0  0  0  0  0  0  0  0  0
   59.5698   34.9178   46.8542 H   0  0  0  0  0  0  0  0  0  0  0  0
   62.4459   31.6207   46.5902 H   0  0  0  0  0  0  0  0  0  0  0  0
   64.5068   31.8980   47.9486 H   0  0  0  0  0  0  0  0  0  0  0  0
   64.7943   33.5734   52.2887 H   0  0  0  0  0  0  0  0  0  0  0  0
   65.6720   34.8761   51.4172 H   0  0  0  0  0  0  0  0  0  0  0  0
   63.8759   34.8477   51.4172 H   0  0  0  0  0  0  0  0  0  0  0  0
   66.6104   32.4545   50.6863 H   0  0  0  0  0  0  0  0  0  0  0  0
   65.8191   31.8551   49.1893 H   0  0  0  0  0  0  0  0  0  0  0  0
   66.6523   33.4464   49.1893 H   0  0  0  0  0  0  0  0  0  0  0  0
   62.3745   34.5429   50.6373 H   0  0  0  0  0  0  0  0  0  0  0  0
   60.3158   34.2603   49.2770 H   0  0  0  0  0  0  0  0  0  0  0  0
  1  2  1  0
  2  3  2  0
  3  4  1  0
  4  5  2  0
  5  6  1  0
  6  7  2  0
  7  8  1  0
  8  9  1  0
  9 10  2  0
 10 11  1  0
 11 12  2  0
 12 13  1  0
 13 14  1  0
 13 15  1  0
 12 16  1  0
 16 17  2  0
  8 18  2  0
 18 19  1  0
 19  2  1  0
 19  5  1  0
 17  9  1  0
  1 20  1  0
  1 21  1  0
  1 22  1  0
  6 23  1  0
  7 24  1  0
 10 25  1  0
 11 26  1  0
 14 27  1  0
 14 28  1  0
 14 29  1  0
 15 30  1  0
 15 31  1  0
 15 32  1  0
 16 33  1  0
 17 34  1  0
M  END
>  <UniqueID>  (1) 
1

>  <SMILES>  (1) 
Cc1nnc2ccc(-c3ccc(N(C)C)cc3)nn12

>  <Energy>  (1) 
83.52669599399628

>  <Genealogy>  (1) 
Cc1nnc2ccc(-c3ccc(N(C)C)cc3)nn12 (3D coordinates assigned)
Cc1nnc2ccc(-c3ccc(N(C)C)cc3)nn12 (optimized conformer: 83.52669599399628 kcal/mol)

>  <smiles>  (1) 
Cc1nnc2ccc(-c3ccc(N(C)C)cc3)nn12

>  <score_type>  (1) 
oracle

>  <origin>  (1) 
adg

>  <m_score__min__energy>  (1) 
-6.9000000000000004

>  <m_primary>  (1) 
energy

$$$$
1:0
     RDKit          3D

 47 50  0  0  0  0  0  0  0  0999 V2000
   57.2880   34.2280   44.8720 C   0  0  0  0  0  0  0  0  0  0  0  0
   56.9610   32.9140   45.3140 O   0  0  0  0  0  0  0  0  0  0  0  0
   57.8240   32.0810   46.0430 C   0  0  0  0  0  0  0  0  0  0  0  0
   58.7400   32.5990   46.9730 C   0  0  0  0  0  0  0  0  0  0  0  0
   59.6030   31.7500   47.6720 C   0  0  0  0  0  0  0  0  0  0  0  0
   60.5600   32.2930   48.5990 N   0  0  0  0  0  0  0  0  0  0  0  0
   60.4480   32.4220   49.9540 C   0  0  0  0  0  0  0  0  0  0  0  0
   59.2230   32.1370   50.7360 C   0  0  0  0  0  0  0  0  0  0  0  0
   58.6220   30.8700   50.6580 C   0  0  0  0  0  0  0  0  0  0  0  0
   57.4620   30.5940   51.3890 C   0  0  0  0  0  0  0  0  0  0  0  0
   56.8990   31.5760   52.2090 C   0  0  0  0  0  0  0  0  0  0  0  0
   57.5000   32.8340   52.3060 C   0  0  0  0  0  0  0  0  0  0  0  0
   58.6610   33.1130   51.5780 C   0  0  0  0  0  0  0  0  0  0  0  0
   61.5950   32.8700   50.5270 N   0  0  0  0  0  0  0  0  0  0  0  0
   62.4390   33.0270   49.4970 C   0  0  0  0  0  0  0  0  0  0  0  0
   63.7680   33.4380   49.5170 C   0  0  0  0  0  0  0  0  0  0  0  0
   64.4440   33.4750   48.3310 N   0  0  0  0  0  0  0  0  0  0  0  0
   63.8530   33.1150   47.1460 C   0  0  0  0  0  0  0  0  0  0  0  0
   62.5110   32.6930   47.1170 C   0  0  0  0  0  0  0  0  0  0  0  0
   61.8240   32.6790   48.3320 C   0  0  0  0  0  0  0  0  0  0  0  0
   59.5440   30.3710   47.4490 C   0  0  0  0  0  0  0  0  0  0  0  0
   58.6260   29.8250   46.5320 C   0  0  0  0  0  0  0  0  0  0  0  0
   58.5640   28.4400   46.3150 O   0  0  0  0  0  0  0  0  0  0  0  0
   58.9660   27.7820   45.1170 C   0  0  0  0  0  0  0  0  0  0  0  0
   57.7580   30.6950   45.8200 C   0  0  0  0  0  0  0  0  0  0  0  0
   56.8090   30.2530   44.8770 O   0  0  0  0  0  0  0  0  0  0  0  0
   56.8970   30.3770   43.4620 C   0  0  0  0  0  0  0  0  0  0  0  0
   57.4499   34.8785   45.7441 H   0  0  0  0  0  0  0  0  0  0  0  0
   58.2049   34.1932   44.2653 H   0  0  0  0  0  0  0  0  0  0  0  0
   56.4618   34.6270   44.2653 H   0  0  0  0  0  0  0  0  0  0  0  0
   58.7788   33.6835   47.1532 H   0  0  0  0  0  0  0  0  0  0  0  0
   59.0654   30.0917   50.0195 H   0  0  0  0  0  0  0  0  0  0  0  0
   56.9918   29.6021   51.3185 H   0  0  0  0  0  0  0  0  0  0  0  0
   55.9830   31.3587   52.7779 H   0  0  0  0  0  0  0  0  0  0  0  0
   57.0596   33.6051   52.9553 H   0  0  0  0  0  0  0  0  0  0  0  0
   59.1370   34.1009   51.6645 H   0  0  0  0  0  0  0  0  0  0  0  0
   61.7800   33.0590   51.5370 H   0  0  0  0  0  0  0  0  0  0  0  0
   64.2590   33.7242   50.4588 H   0  0  0  0  0  0  0  0  0  0  0  0
   64.4326   33.1566   46.2120 H   0  0  0  0  0  0  0  0  0  0  0  0
   62.0249   32.3877   46.1786 H   0  0  0  0  0  0  0  0  0  0  0  0
   60.2245   29.7033   47.9978 H   0  0  0  0  0  0  0  0  0  0  0  0
   59.5241   26.8685   45.3700 H   0  0  0  0  0  0  0  0  0  0  0  0
   58.0757   27.5165   44.5280 H   0  0  0  0  0  0  0  0  0  0  0  0
   59.6086   28.4530   44.5280 H   0  0  0  0  0  0  0  0  0  0  0  0
   57.5165   31.2499   43.2082 H   0  0  0  0  0  0  0  0  0  0  0  0
   57.3537   29.4687   43.0420 H   0  0  0  0  0  0  0  0  0  0  0  0
   55.8888   30.5083   43.0420 H   0  0  0  0  0  0  0  0  0  0  0  0
  1  2  1  0
  2  3  1  0
  3  4  2  0
  4  5  1  0
  5  6  1  0
  6  7  1  0
  7  8  1  0
  8  9  2  0
  9 10  1  0
 10 11  2  0
 11 12  1  0
 12 13  2  0
  7 14  2  0
 14 15  1  0
 15 16  2  0
 16 17  1  0
 17 18  2  0
 18 19  1  0
 19 20  2  0
  5 21  2  0
 21 22  1  0
 22 23  1  0
 23 24  1  0
 22 25  2  0
 25 26  1  0
 26 27  1  0
 25  3  1  0
 20  6  1  0
 13  8  1  0
 20 15  1  0
  1 28  1  0
  1 29  1  0
  1 30  1  0
  4 31  1  0
  9 32  1  0
 10 33  1  0
 11 34  1  0
 12 35  1  0
 13 36  1  0
 14 37  1  0
 16 38  1  0
 18 39  1  0
 19 40  1  0
 21 41  1  0
 24 42  1  0
 24 43  1  0
 24 44  1  0
 27 45  1  0
 27 46  1  0
 27 47  1  0
M  CHG  1  14   1
M  END
>  <UniqueID>  (2) 
2

>  <SMILES>  (2) 
COc1cc(-n2c(-c3ccccc3)[nH+]c3cnccc32)cc(OC)c1OC

>  <Energy>  (2) 
102.41890281631677

>  <Genealogy>  (2) 
COc1cc(-n2c(-c3ccccc3)[nH+]c3cnccc32)cc(OC)c1OC (protonated)
COc1cc(-n2c(-c3ccccc3)[nH+]c3cnccc32)cc(OC)c1OC (3D coordinates assigned)
COc1cc(-n2c(-c3ccccc3)[nH+]c3cnccc32)cc(OC)c1OC (optimized conformer: 102.41890281631677 kcal/mol)

>  <smiles>  (2) 
COc1cc(-n2c(-c3ccccc3)nc3cnccc32)cc(OC)c1OC

>  <score_type>  (2) 
oracle

>  <origin>  (2) 
adg

>  <m_score__min__energy>  (2) 
-5.3700000000000001

>  <m_primary>  (2) 
energy

$$$$
2:0
     RDKit          3D

 46 48  0  0  0  0  0  0  0  0999 V2000
   56.2850   29.6670   42.2610 C   0  0  0  0  0  0  0  0  0  0  0  0
   56.3550   29.3950   43.6560 O   0  0  0  0  0  0  0  0  0  0  0  0
   57.0780   30.1640   44.5840 C   0  0  0  0  0  0  0  0  0  0  0  0
   57.4420   31.4980   44.3250 C   0  0  0  0  0  0  0  0  0  0  0  0
   58.1620   32.2390   45.2740 C   0  0  0  0  0  0  0  0  0  0  0  0
   58.5340   33.5580   44.9980 C   0  0  0  0  0  0  0  0  0  0  0  0
   59.2750   34.3100   45.9220 C   0  0  0  0  0  0  0  0  0  0  0  0
   59.6390   35.7300   45.5650 C   0  0  0  0  0  0  0  0  0  0  0  0
   59.6390   33.7290   47.1660 C   0  0  0  0  0  0  0  0  0  0  0  0
   60.4720   34.4840   48.1900 C   0  0  0  0  0  0  0  0  0  0  0  0
   61.8400   33.8660   48.3410 C   0  0  0  0  0  0  0  0  0  0  0  0
   62.5030   33.3210   47.2270 C   0  0  0  0  0  0  0  0  0  0  0  0
   63.7730   32.7540   47.3690 C   0  0  0  0  0  0  0  0  0  0  0  0
   64.3900   32.7240   48.6220 C   0  0  0  0  0  0  0  0  0  0  0  0
   63.7380   33.2600   49.7360 C   0  0  0  0  0  0  0  0  0  0  0  0
   62.4680   33.8270   49.5980 C   0  0  0  0  0  0  0  0  0  0  0  0
   59.2290   32.4080   47.4600 C   0  0  0  0  0  0  0  0  0  0  0  0
   59.5480   31.8490   48.7020 O   0  0  0  0  0  0  0  0  0  0  0  0
   58.6210   31.8520   49.7810 C   0  0  0  0  0  0  0  0  0  0  0  0
   58.5170   31.6520   46.5050 C   0  0  0  0  0  0  0  0  0  0  0  0
   58.1630   30.3120   46.7520 C   0  0  0  0  0  0  0  0  0  0  0  0
   57.4430   29.5690   45.7990 C   0  0  0  0  0  0  0  0  0  0  0  0
   57.0690   28.2330   46.0210 O   0  0  0  0  0  0  0  0  0  0  0  0
   57.7130   27.1040   45.4370 C   0  0  0  0  0  0  0  0  0  0  0  0
   56.0136   30.7217   42.1062 H   0  0  0  0  0  0  0  0  0  0  0  0
   57.2635   29.4686   41.7992 H   0  0  0  0  0  0  0  0  0  0  0  0
   55.5239   29.0209   41.7992 H   0  0  0  0  0  0  0  0  0  0  0  0
   57.1595   31.9643   43.3696 H   0  0  0  0  0  0  0  0  0  0  0  0
   58.2409   34.0137   44.0407 H   0  0  0  0  0  0  0  0  0  0  0  0
   59.7884   36.3128   46.4859 H   0  0  0  0  0  0  0  0  0  0  0  0
   60.5670   35.7332   44.9744 H   0  0  0  0  0  0  0  0  0  0  0  0
   58.8270   36.1793   44.9744 H   0  0  0  0  0  0  0  0  0  0  0  0
   60.5839   35.5281   47.8624 H   0  0  0  0  0  0  0  0  0  0  0  0
   59.9583   34.4360   49.1615 H   0  0  0  0  0  0  0  0  0  0  0  0
   62.0199   33.3409   46.2389 H   0  0  0  0  0  0  0  0  0  0  0  0
   64.2869   32.3311   46.4932 H   0  0  0  0  0  0  0  0  0  0  0  0
   65.3896   32.2782   48.7319 H   0  0  0  0  0  0  0  0  0  0  0  0
   64.2248   33.2356   50.7221 H   0  0  0  0  0  0  0  0  0  0  0  0
   61.9571   34.2450   50.4779 H   0  0  0  0  0  0  0  0  0  0  0  0
   59.1687   31.8502   50.7349 H   0  0  0  0  0  0  0  0  0  0  0  0
   57.9916   32.7522   49.7212 H   0  0  0  0  0  0  0  0  0  0  0  0
   57.9858   30.9559   49.7212 H   0  0  0  0  0  0  0  0  0  0  0  0
   58.4531   29.8400   47.7023 H   0  0  0  0  0  0  0  0  0  0  0  0
   58.0893   26.4443   46.2327 H   0  0  0  0  0  0  0  0  0  0  0  0
   56.9933   26.5531   44.8137 H   0  0  0  0  0  0  0  0  0  0  0  0
   58.5536   27.4431   44.8137 H   0  0  0  0  0  0  0  0  0  0  0  0
  1  2  1  0
  2  3  1  0
  3  4  2  0
  4  5  1  0
  5  6  2  0
  6  7  1  0
  7  8  1  0
  7  9  2  0
  9 10  1  0
 10 11  1  0
 11 12  2  0
 12 13  1  0
 13 14  2  0
 14 15  1  0
 15 16  2  0
  9 17  1  0
 17 18  1  0
 18 19  1  0
 17 20  2  0
 20 21  1  0
 21 22  2  0
 22 23  1  0
 23 24  1  0
 22  3  1  0
 20  5  1  0
 16 11  1  0
  1 25  1  0
  1 26  1  0
  1 27  1  0
  4 28  1  0
  6 29  1  0
  8 30  1  0
  8 31  1  0
  8 32  1  0
 10 33  1  0
 10 34  1  0
 12 35  1  0
 13 36  1  0
 14 37  1  0
 15 38  1  0
 16 39  1  0
 19 40  1  0
 19 41  1  0
 19 42  1  0
 21 43  1  0
 24 44  1  0
 24 45  1  0
 24 46  1  0
M  END
>  <UniqueID>  (3) 
3

>  <SMILES>  (3) 
COc1cc2cc(C)c(Cc3ccccc3)c(OC)c2cc1OC

>  <Energy>  (3) 
58.584661970132956

>  <Genealogy>  (3) 
COc1cc2cc(C)c(Cc3ccccc3)c(OC)c2cc1OC (3D coordinates assigned)
COc1cc2cc(C)c(Cc3ccccc3)c(OC)c2cc1OC (optimized conformer: 58.584661970132956 kcal/mol)

>  <smiles>  (3) 
COc1cc2cc(C)c(Cc3ccccc3)c(OC)c2cc1OC

>  <score_type>  (3) 
oracle

>  <origin>  (3) 
adg

>  <m_score__min__energy>  (3) 
-7.5300000000000002

>  <m_primary>  (3) 
energy

$$$$
3:0
     RDKit          3D

 43 46  0  0  0  0  0  0  0  0999 V2000
   57.3710   33.9910   44.8240 C   0  0  0  0  0  0  0  0  0  0  0  0
   58.6530   33.7020   45.5550 C   0  0  0  0  0  0  0  0  0  0  0  0
   59.4520   34.7760   45.9780 C   0  0  0  0  0  0  0  0  0  0  0  0
   60.6740   34.5420   46.6050 C   0  0  0  0  0  0  0  0  0  0  0  0
   61.0940   33.2310   46.8120 C   0  0  0  0  0  0  0  0  0  0  0  0
   60.3060   32.1950   46.4240 N   0  0  0  0  0  0  0  0  0  0  0  0
   59.0960   32.3830   45.8270 C   0  0  0  0  0  0  0  0  0  0  0  0
   58.3250   31.2260   45.4680 N   0  0  0  0  0  0  0  0  0  0  0  0
   58.7810   30.0060   45.1290 C   0  0  0  0  0  0  0  0  0  0  0  0
   57.6730   29.2670   44.7600 C   0  0  0  0  0  0  0  0  0  0  0  0
   57.6330   27.8590   44.2950 C   0  0  0  0  0  0  0  0  0  0  0  0
   57.8210   27.5320   42.9460 C   0  0  0  0  0  0  0  0  0  0  0  0
   57.7770   26.2370   42.5430 N   0  0  0  0  0  0  0  0  0  0  0  0
   57.5590   25.2180   43.4150 C   0  0  0  0  0  0  0  0  0  0  0  0
   57.3710   25.4690   44.7920 C   0  0  0  0  0  0  0  0  0  0  0  0
   57.1400   24.3820   45.7400 N   0  0  0  0  0  0  0  0  0  0  0  0
   56.7740   24.7040   47.1360 C   0  0  0  0  0  0  0  0  0  0  0  0
   56.4860   23.4700   47.9970 C   0  0  0  0  0  0  0  0  0  0  0  0
   57.3680   22.4180   47.6810 O   0  0  0  0  0  0  0  0  0  0  0  0
   57.0540   21.9500   46.3930 C   0  0  0  0  0  0  0  0  0  0  0  0
   57.4160   22.9880   45.3280 C   0  0  0  0  0  0  0  0  0  0  0  0
   57.4100   26.8190   45.2110 C   0  0  0  0  0  0  0  0  0  0  0  0
   56.5890   30.0650   44.8650 N   0  0  0  0  0  0  0  0  0  0  0  0
   57.0160   31.2460   45.2850 N   0  0  0  0  0  0  0  0  0  0  0  0
   56.5666   34.1723   45.5521 H   0  0  0  0  0  0  0  0  0  0  0  0
   57.5018   34.8822   44.1926 H   0  0  0  0  0  0  0  0  0  0  0  0
   57.1068   33.1299   44.1926 H   0  0  0  0  0  0  0  0  0  0  0  0
   59.1111   35.8088   45.8134 H   0  0  0  0  0  0  0  0  0  0  0  0
   61.3005   35.3845   46.9331 H   0  0  0  0  0  0  0  0  0  0  0  0
   62.0648   33.0340   47.2902 H   0  0  0  0  0  0  0  0  0  0  0  0
   59.8268   29.6651   45.1429 H   0  0  0  0  0  0  0  0  0  0  0  0
   58.0051   28.3285   42.2100 H   0  0  0  0  0  0  0  0  0  0  0  0
   57.9150   26.0180   41.5300 H   0  0  0  0  0  0  0  0  0  0  0  0
   57.5285   24.1832   43.0432 H   0  0  0  0  0  0  0  0  0  0  0  0
   57.6053   25.2605   47.5935 H   0  0  0  0  0  0  0  0  0  0  0  0
   55.8458   25.2931   47.0975 H   0  0  0  0  0  0  0  0  0  0  0  0
   56.6073   23.7350   49.0577 H   0  0  0  0  0  0  0  0  0  0  0  0
   55.4567   23.1364   47.7989 H   0  0  0  0  0  0  0  0  0  0  0  0
   57.6168   21.0249   46.1994 H   0  0  0  0  0  0  0  0  0  0  0  0
   55.9716   21.7605   46.3436 H   0  0  0  0  0  0  0  0  0  0  0  0
   58.4894   22.8975   45.1052 H   0  0  0  0  0  0  0  0  0  0  0  0
   56.7869   22.7812   44.4497 H   0  0  0  0  0  0  0  0  0  0  0  0
   57.2629   27.0586   46.2745 H   0  0  0  0  0  0  0  0  0  0  0  0
  1  2  1  0
  2  3  2  0
  3  4  1  0
  4  5  2  0
  5  6  1  0
  6  7  2  0
  7  8  1  0
  8  9  1  0
  9 10  2  0
 10 11  1  0
 11 12  2  0
 12 13  1  0
 13 14  2  0
 14 15  1  0
 15 16  1  0
 16 17  1  0
 17 18  1  0
 18 19  1  0
 19 20  1  0
 20 21  1  0
 15 22  2  0
 10 23  1  0
 23 24  2  0
  7  2  1  0
 24  8  1  0
 22 11  1  0
 21 16  1  0
  1 25  1  0
  1 26  1  0
  1 27  1  0
  3 28  1  0
  4 29  1  0
  5 30  1  0
  9 31  1  0
 12 32  1  0
 13 33  1  0
 14 34  1  0
 17 35  1  0
 17 36  1  0
 18 37  1  0
 18 38  1  0
 20 39  1  0
 20 40  1  0
 21 41  1  0
 21 42  1  0
 22 43  1  0
M  CHG  1  13   1
M  END
>  <UniqueID>  (4) 
4

>  <SMILES>  (4) 
Cc1cccnc1-n1cc(-c2c[nH+]cc(N3CCOCC3)c2)nn1

>  <Energy>  (4) 
96.61781773349581

>  <Genealogy>  (4) 
Cc1cccnc1-n1cc(-c2c[nH+]cc(N3CCOCC3)c2)nn1 (protonated)
Cc1cccnc1-n1cc(-c2c[nH+]cc(N3CCOCC3)c2)nn1 (3D coordinates assigned)
Cc1cccnc1-n1cc(-c2c[nH+]cc(N3CCOCC3)c2)nn1 (nonaromatic ring conformer: 96.61781773349581 kcal/mol)

>  <smiles>  (4) 
Cc1cccnc1-n1cc(-c2cncc(N3CCOCC3)c2)nn1

>  <score_type>  (4) 
oracle

>  <origin>  (4) 
adg

>  <m_score__min__energy>  (4) 
-7.1100000000000003

>  <m_primary>  (4) 
energy

$$$$
4:0
     RDKit          3D

 32 33  0  0  0  0  0  0  0  0999 V2000
   56.9340   30.4830   43.3910 C   0  0  0  0  0  0  0  0  0  0  0  0
   56.6420   31.2430   44.5580 O   0  0  0  0  0  0  0  0  0  0  0  0
   57.5860   32.0050   45.2630 C   0  0  0  0  0  0  0  0  0  0  0  0
   57.5830   33.4130   45.2500 C   0  0  0  0  0  0  0  0  0  0  0  0
   58.5450   34.1260   45.9700 C   0  0  0  0  0  0  0  0  0  0  0  0
   59.5250   33.4490   46.7130 C   0  0  0  0  0  0  0  0  0  0  0  0
   60.5460   34.2220   47.5030 C   0  0  0  0  0  0  0  0  0  0  0  0
   61.7390   33.3630   47.8210 C   0  0  0  0  0  0  0  0  0  0  0  0
   61.8680   32.4270   48.8370 C   0  0  0  0  0  0  0  0  0  0  0  0
   60.8410   32.0740   49.8630 C   0  0  0  0  0  0  0  0  0  0  0  0
   63.1120   31.9070   48.8200 N   0  0  0  0  0  0  0  0  0  0  0  0
   63.7710   32.4690   47.8190 N   0  0  0  0  0  0  0  0  0  0  0  0
   62.9730   33.3560   47.1940 C   0  0  0  0  0  0  0  0  0  0  0  0
   63.3890   34.1790   46.0170 C   0  0  0  0  0  0  0  0  0  0  0  0
   59.5270   32.0450   46.7230 C   0  0  0  0  0  0  0  0  0  0  0  0
   58.5640   31.3310   46.0040 C   0  0  0  0  0  0  0  0  0  0  0  0
   57.3143   29.4932   43.6837 H   0  0  0  0  0  0  0  0  0  0  0  0
   56.0183   30.3620   42.7936 H   0  0  0  0  0  0  0  0  0  0  0  0
   57.6951   31.0063   42.7936 H   0  0  0  0  0  0  0  0  0  0  0  0
   56.8202   33.9538   44.6706 H   0  0  0  0  0  0  0  0  0  0  0  0
   58.5344   35.2258   45.9545 H   0  0  0  0  0  0  0  0  0  0  0  0
   60.8744   35.0913   46.9144 H   0  0  0  0  0  0  0  0  0  0  0  0
   60.0863   34.5497   48.4471 H   0  0  0  0  0  0  0  0  0  0  0  0
   61.2625   32.2189   50.8687 H   0  0  0  0  0  0  0  0  0  0  0  0
   59.9602   32.7210   49.7379 H   0  0  0  0  0  0  0  0  0  0  0  0
   60.5441   31.0222   49.7379 H   0  0  0  0  0  0  0  0  0  0  0  0
   64.7620   32.2480   47.5740 H   0  0  0  0  0  0  0  0  0  0  0  0
   63.8593   35.1094   46.3680 H   0  0  0  0  0  0  0  0  0  0  0  0
   64.1084   33.6114   45.4086 H   0  0  0  0  0  0  0  0  0  0  0  0
   62.5053   34.4217   45.4086 H   0  0  0  0  0  0  0  0  0  0  0  0
   60.2910   31.5036   47.3001 H   0  0  0  0  0  0  0  0  0  0  0  0
   58.5748   30.2312   46.0206 H   0  0  0  0  0  0  0  0  0  0  0  0
  1  2  1  0
  2  3  1  0
  3  4  2  0
  4  5  1  0
  5  6  2  0
  6  7  1  0
  7  8  1  0
  8  9  1  0
  9 10  1  0
  9 11  2  0
 11 12  1  0
 12 13  1  0
 13 14  1  0
  6 15  1  0
 15 16  2  0
 16  3  1  0
 13  8  2  0
  1 17  1  0
  1 18  1  0
  1 19  1  0
  4 20  1  0
  5 21  1  0
  7 22  1  0
  7 23  1  0
 10 24  1  0
 10 25  1  0
 10 26  1  0
 12 27  1  0
 14 28  1  0
 14 29  1  0
 14 30  1  0
 15 31  1  0
 16 32  1  0
M  END
>  <UniqueID>  (5) 
5

>  <SMILES>  (5) 
COc1ccc(Cc2c(C)n[nH]c2C)cc1

>  <Energy>  (5) 
57.04759583794738

>  <Genealogy>  (5) 
COc1ccc(Cc2c(C)n[nH]c2C)cc1 (3D coordinates assigned)
COc1ccc(Cc2c(C)n[nH]c2C)cc1 (optimized conformer: 57.04759583794738 kcal/mol)

>  <smiles>  (5) 
COc1ccc(Cc2c(C)n[nH]c2C)cc1

>  <score_type>  (5) 
oracle

>  <origin>  (5) 
adg

>  <m_score__min__energy>  (5) 
-6.2000000000000002

>  <m_primary>  (5) 
energy

$$$$
5:0
     RDKit          3D

 41 41  0  0  0  0  0  0  0  0999 V2000
   58.9420   30.4570   45.6330 C   0  0  0  0  0  0  0  0  0  0  0  0
   60.2190   30.0120   46.3450 C   0  0  0  0  0  0  0  0  0  0  0  0
   60.4530   30.6970   47.7090 C   0  0  0  0  0  0  0  0  0  0  0  0
   61.2700   31.9450   47.7110 N   0  0  0  0  0  0  0  0  0  0  0  0
   62.7310   31.7090   47.5160 C   0  0  0  0  0  0  0  0  0  0  0  0
   63.6370   32.9610   47.5730 C   0  0  0  0  0  0  0  0  0  0  0  0
   63.3930   33.8720   46.3730 C   0  0  0  0  0  0  0  0  0  0  0  0
   60.8930   32.9040   48.7880 C   0  0  0  0  0  0  0  0  0  0  0  0
   59.9410   34.0180   48.2990 C   0  0  0  0  0  0  0  0  0  0  0  0
   59.4170   33.7070   46.9530 N   0  0  0  0  0  0  0  0  0  0  0  0
   57.9640   33.5250   46.9480 C   0  0  0  0  0  0  0  0  0  0  0  0
   57.4940   33.8230   45.5300 C   0  0  0  0  0  0  0  0  0  0  0  0
   58.6410   34.5800   44.8750 C   0  0  0  0  0  0  0  0  0  0  0  0
   59.6630   34.7770   45.9810 C   0  0  0  0  0  0  0  0  0  0  0  0
   58.1794   30.7228   46.3798 H   0  0  0  0  0  0  0  0  0  0  0  0
   59.1593   31.3324   45.0033 H   0  0  0  0  0  0  0  0  0  0  0  0
   58.5682   29.6361   45.0033 H   0  0  0  0  0  0  0  0  0  0  0  0
   60.1620   28.9258   46.5094 H   0  0  0  0  0  0  0  0  0  0  0  0
   61.0598   30.3007   45.6972 H   0  0  0  0  0  0  0  0  0  0  0  0
   59.4670   30.9457   48.1285 H   0  0  0  0  0  0  0  0  0  0  0  0
   61.0381   29.9727   48.2947 H   0  0  0  0  0  0  0  0  0  0  0  0
   60.9670   32.3960   46.8150 H   0  0  0  0  0  0  0  0  0  0  0  0
   63.0669   31.0153   48.3009 H   0  0  0  0  0  0  0  0  0  0  0  0
   62.8327   31.3176   46.4930 H   0  0  0  0  0  0  0  0  0  0  0  0
   63.4217   33.5183   48.4966 H   0  0  0  0  0  0  0  0  0  0  0  0
   64.6869   32.6332   47.5546 H   0  0  0  0  0  0  0  0  0  0  0  0
   63.1234   34.8785   46.7256 H   0  0  0  0  0  0  0  0  0  0  0  0
   64.3074   33.9294   45.7643 H   0  0  0  0  0  0  0  0  0  0  0  0
   62.5723   33.4647   45.7643 H   0  0  0  0  0  0  0  0  0  0  0  0
   60.3949   32.3466   49.5949 H   0  0  0  0  0  0  0  0  0  0  0  0
   61.8173   33.3898   49.1340 H   0  0  0  0  0  0  0  0  0  0  0  0
   59.0995   34.1075   49.0018 H   0  0  0  0  0  0  0  0  0  0  0  0
   60.5008   34.9636   48.2496 H   0  0  0  0  0  0  0  0  0  0  0  0
   57.7099   32.4906   47.2228 H   0  0  0  0  0  0  0  0  0  0  0  0
   57.4778   34.1913   47.6758 H   0  0  0  0  0  0  0  0  0  0  0  0
   57.2904   32.8880   44.9875 H   0  0  0  0  0  0  0  0  0  0  0  0
   56.5614   34.4063   45.5221 H   0  0  0  0  0  0  0  0  0  0  0  0
   59.0715   33.9924   44.0507 H   0  0  0  0  0  0  0  0  0  0  0  0
   58.3115   35.5357   44.4413 H   0  0  0  0  0  0  0  0  0  0  0  0
   60.6832   34.6995   45.5771 H   0  0  0  0  0  0  0  0  0  0  0  0
   59.5703   35.7708   46.4433 H   0  0  0  0  0  0  0  0  0  0  0  0
  1  2  1  0
  2  3  1  0
  3  4  1  0
  4  5  1  0
  5  6  1  0
  6  7  1  0
  4  8  1  0
  8  9  1  0
  9 10  1  0
 10 11  1  0
 11 12  1  0
 12 13  1  0
 13 14  1  0
 14 10  1  0
  1 15  1  0
  1 16  1  0
  1 17  1  0
  2 18  1  0
  2 19  1  0
  3 20  1  0
  3 21  1  0
  4 22  1  0
  5 23  1  0
  5 24  1  0
  6 25  1  0
  6 26  1  0
  7 27  1  0
  7 28  1  0
  7 29  1  0
  8 30  1  0
  8 31  1  0
  9 32  1  0
  9 33  1  0
 11 34  1  0
 11 35  1  0
 12 36  1  0
 12 37  1  0
 13 38  1  0
 13 39  1  0
 14 40  1  0
 14 41  1  0
M  CHG  1   4   1
M  END
>  <UniqueID>  (6) 
6

>  <SMILES>  (6) 
CCC[NH+](CCC)CCN1CCCC1

>  <Energy>  (6) 
48.19758415350103

>  <Genealogy>  (6) 
CCC[NH+](CCC)CCN1CCCC1 (protonated)
CCC[NH+](CCC)CCN1CCCC1 (3D coordinates assigned)
CCC[NH+](CCC)CCN1CCCC1 (nonaromatic ring conformer: 48.19758415350103 kcal/mol)

>  <smiles>  (6) 
CCCN(CCC)CCN1CCCC1

>  <score_type>  (6) 
oracle

>  <origin>  (6) 
adg

>  <m_score__min__energy>  (6) 
-2.7999999999999998

>  <m_primary>  (6) 
energy

$$$$
6:0
     RDKit          3D

 37 38  0  0  0  0  0  0  0  0999 V2000
   57.4090   32.3420   40.7870 C   0  0  0  0  0  0  0  0  0  0  0  0
   57.4430   31.9010   42.2210 C   0  0  0  0  0  0  0  0  0  0  0  0
   56.7060   30.7810   42.6310 C   0  0  0  0  0  0  0  0  0  0  0  0
   56.7060   30.3930   43.9720 C   0  0  0  0  0  0  0  0  0  0  0  0
   57.4310   31.1250   44.9150 C   0  0  0  0  0  0  0  0  0  0  0  0
   58.1640   32.2610   44.5270 C   0  0  0  0  0  0  0  0  0  0  0  0
   58.9160   33.0270   45.5490 C   0  0  0  0  0  0  0  0  0  0  0  0
   59.8610   32.5150   46.3660 N   0  0  0  0  0  0  0  0  0  0  0  0
   60.2640   33.5590   47.1120 C   0  0  0  0  0  0  0  0  0  0  0  0
   61.3280   33.4930   48.1800 C   0  0  0  0  0  0  0  0  0  0  0  0
   62.6860   33.1470   47.6660 N   0  0  0  0  0  0  0  0  0  0  0  0
   62.9550   33.8250   46.3750 C   0  0  0  0  0  0  0  0  0  0  0  0
   63.6890   33.6070   48.6560 C   0  0  0  0  0  0  0  0  0  0  0  0
   62.8330   31.6810   47.4960 C   0  0  0  0  0  0  0  0  0  0  0  0
   59.5500   34.6750   46.7300 C   0  0  0  0  0  0  0  0  0  0  0  0
   58.7310   34.3130   45.7700 O   0  0  0  0  0  0  0  0  0  0  0  0
   58.1570   32.6480   43.1730 C   0  0  0  0  0  0  0  0  0  0  0  0
   57.3245   33.4378   40.7423 H   0  0  0  0  0  0  0  0  0  0  0  0
   58.3343   32.0247   40.2838 H   0  0  0  0  0  0  0  0  0  0  0  0
   56.5433   31.8867   40.2838 H   0  0  0  0  0  0  0  0  0  0  0  0
   56.1261   30.2063   41.8938 H   0  0  0  0  0  0  0  0  0  0  0  0
   56.1333   29.5082   44.2869 H   0  0  0  0  0  0  0  0  0  0  0  0
   57.4287   30.8107   45.9691 H   0  0  0  0  0  0  0  0  0  0  0  0
   60.2140   31.5350   46.4290 H   0  0  0  0  0  0  0  0  0  0  0  0
   61.3847   34.4750   48.6724 H   0  0  0  0  0  0  0  0  0  0  0  0
   61.0353   32.6882   48.8704 H   0  0  0  0  0  0  0  0  0  0  0  0
   63.3545   34.8319   46.5659 H   0  0  0  0  0  0  0  0  0  0  0  0
   63.6899   33.2418   45.8007 H   0  0  0  0  0  0  0  0  0  0  0  0
   62.0202   33.9042   45.8007 H   0  0  0  0  0  0  0  0  0  0  0  0
   63.3075   33.4321   49.6728 H   0  0  0  0  0  0  0  0  0  0  0  0
   64.6263   33.0487   48.5149 H   0  0  0  0  0  0  0  0  0  0  0  0
   63.8774   34.6815   48.5149 H   0  0  0  0  0  0  0  0  0  0  0  0
   62.8812   31.2003   48.4842 H   0  0  0  0  0  0  0  0  0  0  0  0
   61.9697   31.2881   46.9388 H   0  0  0  0  0  0  0  0  0  0  0  0
   63.7571   31.4673   46.9388 H   0  0  0  0  0  0  0  0  0  0  0  0
   59.6488   35.6856   47.1530 H   0  0  0  0  0  0  0  0  0  0  0  0
   58.7149   33.5422   42.8582 H   0  0  0  0  0  0  0  0  0  0  0  0
  1  2  1  0
  2  3  2  0
  3  4  1  0
  4  5  2  0
  5  6  1  0
  6  7  1  0
  7  8  2  0
  8  9  1  0
  9 10  1  0
 10 11  1  0
 11 12  1  0
 11 13  1  0
 11 14  1  0
  9 15  2  0
 15 16  1  0
  6 17  2  0
 17  2  1  0
 16  7  1  0
  1 18  1  0
  1 19  1  0
  1 20  1  0
  3 21  1  0
  4 22  1  0
  5 23  1  0
  8 24  1  0
 10 25  1  0
 10 26  1  0
 12 27  1  0
 12 28  1  0
 12 29  1  0
 13 30  1  0
 13 31  1  0
 13 32  1  0
 14 33  1  0
 14 34  1  0
 14 35  1  0
 15 36  1  0
 17 37  1  0
M  CHG  2   8   1  11   1
M  END
>  <UniqueID>  (7) 
7

>  <SMILES>  (7) 
Cc1cccc(-c2[nH+]c(C[N+](C)(C)C)co2)c1

>  <Energy>  (7) 
72.00558142539771

>  <Genealogy>  (7) 
Cc1cccc(-c2[nH+]c(C[N+](C)(C)C)co2)c1 (protonated)
Cc1cccc(-c2[nH+]c(C[N+](C)(C)C)co2)c1 (3D coordinates assigned)
Cc1cccc(-c2[nH+]c(C[N+](C)(C)C)co2)c1 (optimized conformer: 72.00558142539771 kcal/mol)

>  <smiles>  (7) 
Cc1cccc(-c2nc(C[N+](C)(C)C)co2)c1

>  <score_type>  (7) 
oracle

>  <origin>  (7) 
adg

>  <m_score__min__energy>  (7) 
-3.3300000000000001

>  <m_primary>  (7) 
energy

$$$$
7:0
     RDKit          3D

 51 54  0  0  0  0  0  0  0  0999 V2000
   61.1330   28.9690   44.5260 C   0  0  0  0  0  0  0  0  0  0  0  0
   60.4520   27.9380   45.3000 N   0  0  0  0  0  0  0  0  0  0  0  0
   61.1270   27.1340   46.1180 N   0  0  0  0  0  0  0  0  0  0  0  0
   60.2510   26.3590   46.7880 C   0  0  0  0  0  0  0  0  0  0  0  0
   58.9830   26.6990   46.3870 C   0  0  0  0  0  0  0  0  0  0  0  0
   57.7490   26.2160   46.8060 C   0  0  0  0  0  0  0  0  0  0  0  0
   56.6020   26.7780   46.2340 C   0  0  0  0  0  0  0  0  0  0  0  0
   56.7110   27.7860   45.2570 C   0  0  0  0  0  0  0  0  0  0  0  0
   57.9750   28.2580   44.8220 C   0  0  0  0  0  0  0  0  0  0  0  0
   58.0390   29.2210   43.7410 N   0  0  0  0  0  0  0  0  0  0  0  0
   58.3450   30.6160   44.1670 C   0  0  0  0  0  0  0  0  0  0  0  0
   57.8990   31.7110   43.1660 C   0  0  0  0  0  0  0  0  0  0  0  0
   58.4510   33.0760   43.6010 C   0  0  0  0  0  0  0  0  0  0  0  0
   58.3210   33.2860   45.0520 N   0  0  0  0  0  0  0  0  0  0  0  0
   58.9480   34.4510   45.6360 C   0  0  0  0  0  0  0  0  0  0  0  0
   59.3070   35.4020   44.8890 O   0  0  0  0  0  0  0  0  0  0  0  0
   59.2140   34.5710   47.1150 C   0  0  0  0  0  0  0  0  0  0  0  0
   59.6120   33.2460   47.7180 C   0  0  0  0  0  0  0  0  0  0  0  0
   58.9040   32.7180   48.8120 C   0  0  0  0  0  0  0  0  0  0  0  0
   59.2580   31.4770   49.3510 C   0  0  0  0  0  0  0  0  0  0  0  0
   60.3140   30.7460   48.7950 C   0  0  0  0  0  0  0  0  0  0  0  0
   60.7510   29.1830   49.4640 Cl  0  0  0  0  0  0  0  0  0  0  0  0
   61.0120   31.2570   47.6970 C   0  0  0  0  0  0  0  0  0  0  0  0
   60.6620   32.4970   47.1570 C   0  0  0  0  0  0  0  0  0  0  0  0
   57.4410   32.3940   45.8240 C   0  0  0  0  0  0  0  0  0  0  0  0
   57.8100   30.9180   45.5970 C   0  0  0  0  0  0  0  0  0  0  0  0
   59.1220   27.6890   45.4450 C   0  0  0  0  0  0  0  0  0  0  0  0
   61.6077   29.6877   45.2102 H   0  0  0  0  0  0  0  0  0  0  0  0
   61.9020   28.5036   43.8919 H   0  0  0  0  0  0  0  0  0  0  0  0
   60.4031   29.4936   43.8919 H   0  0  0  0  0  0  0  0  0  0  0  0
   60.5079   25.5872   47.5284 H   0  0  0  0  0  0  0  0  0  0  0  0
   57.6764   25.4195   47.5612 H   0  0  0  0  0  0  0  0  0  0  0  0
   55.6077   26.4296   46.5501 H   0  0  0  0  0  0  0  0  0  0  0  0
   55.7966   28.2161   44.8223 H   0  0  0  0  0  0  0  0  0  0  0  0
   57.1640   29.2060   43.1820 H   0  0  0  0  0  0  0  0  0  0  0  0
   58.7600   28.8960   43.0540 H   0  0  0  0  0  0  0  0  0  0  0  0
   59.4439   30.6622   44.1843 H   0  0  0  0  0  0  0  0  0  0  0  0
   58.2811   31.4660   42.1640 H   0  0  0  0  0  0  0  0  0  0  0  0
   56.8001   31.7557   43.1455 H   0  0  0  0  0  0  0  0  0  0  0  0
   59.5151   33.1322   43.3279 H   0  0  0  0  0  0  0  0  0  0  0  0
   57.8677   33.8567   43.0910 H   0  0  0  0  0  0  0  0  0  0  0  0
   60.0276   35.2941   47.2737 H   0  0  0  0  0  0  0  0  0  0  0  0
   58.2881   34.9072   47.6046 H   0  0  0  0  0  0  0  0  0  0  0  0
   58.0669   33.2842   49.2464 H   0  0  0  0  0  0  0  0  0  0  0  0
   58.7057   31.0749   50.2131 H   0  0  0  0  0  0  0  0  0  0  0  0
   61.8393   30.6810   47.2568 H   0  0  0  0  0  0  0  0  0  0  0  0
   61.2106   32.8898   46.2882 H   0  0  0  0  0  0  0  0  0  0  0  0
   57.5413   32.6287   46.8940 H   0  0  0  0  0  0  0  0  0  0  0  0
   56.4050   32.5502   45.4888 H   0  0  0  0  0  0  0  0  0  0  0  0
   58.5871   30.6392   46.3239 H   0  0  0  0  0  0  0  0  0  0  0  0
   56.8862   30.3342   45.7229 H   0  0  0  0  0  0  0  0  0  0  0  0
  1  2  1  0
  2  3  1  0
  3  4  2  0
  4  5  1  0
  5  6  2  0
  6  7  1  0
  7  8  2  0
  8  9  1  0
  9 10  1  0
 10 11  1  0
 11 12  1  0
 12 13  1  0
 13 14  1  0
 14 15  1  0
 15 16  2  0
 15 17  1  0
 17 18  1  0
 18 19  2  0
 19 20  1  0
 20 21  2  0
 21 22  1  0
 21 23  1  0
 23 24  2  0
 14 25  1  0
 25 26  1  0
  9 27  2  0
 27  2  1  0
 27  5  1  0
 26 11  1  0
 24 18  1  0
  1 28  1  0
  1 29  1  0
  1 30  1  0
  4 31  1  0
  6 32  1  0
  7 33  1  0
  8 34  1  0
 10 35  1  0
 10 36  1  0
 11 37  1  0
 12 38  1  0
 12 39  1  0
 13 40  1  0
 13 41  1  0
 17 42  1  0
 17 43  1  0
 19 44  1  0
 20 45  1  0
 23 46  1  0
 24 47  1  0
 25 48  1  0
 25 49  1  0
 26 50  1  0
 26 51  1  0
M  CHG  1  10   1
M  END
>  <UniqueID>  (8) 
8

>  <SMILES>  (8) 
Cn1ncc2cccc([NH2+]C3CCN(C(=O)Cc4ccc(Cl)cc4)CC3)c21

>  <Energy>  (8) 
107.62214419296002

>  <Genealogy>  (8) 
Cn1ncc2cccc([NH2+]C3CCN(C(=O)Cc4ccc(Cl)cc4)CC3)c21 (protonated)
Cn1ncc2cccc([NH2+]C3CCN(C(=O)Cc4ccc(Cl)cc4)CC3)c21 (3D coordinates assigned)
Cn1ncc2cccc([NH2+]C3CCN(C(=O)Cc4ccc(Cl)cc4)CC3)c21 (nonaromatic ring conformer: 107.62214419296002 kcal/mol)

>  <smiles>  (8) 
Cn1ncc2cccc(NC3CCN(C(=O)Cc4ccc(Cl)cc4)CC3)c21

>  <score_type>  (8) 
oracle

>  <origin>  (8) 
adg

>  <m_score__min__energy>  (8) 
-7.0099999999999998

>  <m_primary>  (8) 
energy

$$$$
8:0
     RDKit          3D

 45 49  0  0  0  0  0  0  0  0999 V2000
   56.0750   21.8200   43.4250 F   0  0  0  0  0  0  0  0  0  0  0  0
   56.5370   22.9660   43.9840 C   0  0  0  0  0  0  0  0  0  0  0  0
   56.6320   23.0750   45.3740 C   0  0  0  0  0  0  0  0  0  0  0  0
   57.1060   24.2530   45.9570 C   0  0  0  0  0  0  0  0  0  0  0  0
   57.4910   25.3360   45.1490 C   0  0  0  0  0  0  0  0  0  0  0  0
   57.9570   26.4910   45.7080 N   0  0  0  0  0  0  0  0  0  0  0  0
   58.3350   27.5530   44.9410 C   0  0  0  0  0  0  0  0  0  0  0  0
   58.8180   28.7460   45.5610 N   0  0  0  0  0  0  0  0  0  0  0  0
   58.4550   29.6050   46.7030 C   0  0  0  0  0  0  0  0  0  0  0  0
   59.5670   30.5940   46.5190 C   0  0  0  0  0  0  0  0  0  0  0  0
   59.0820   31.9870   46.1580 C   0  0  0  0  0  0  0  0  0  0  0  0
   57.8330   32.1530   45.6350 N   0  0  0  0  0  0  0  0  0  0  0  0
   57.3610   33.3710   45.2690 C   0  0  0  0  0  0  0  0  0  0  0  0
   58.1710   34.4920   45.4270 C   0  0  0  0  0  0  0  0  0  0  0  0
   59.4070   34.3500   45.9690 N   0  0  0  0  0  0  0  0  0  0  0  0
   59.8850   33.1360   46.3590 C   0  0  0  0  0  0  0  0  0  0  0  0
   61.2260   33.0810   46.9790 C   0  0  0  0  0  0  0  0  0  0  0  0
   61.4240   32.4260   48.2070 C   0  0  0  0  0  0  0  0  0  0  0  0
   62.6920   32.4030   48.7960 C   0  0  0  0  0  0  0  0  0  0  0  0
   63.7650   33.0450   48.1730 C   0  0  0  0  0  0  0  0  0  0  0  0
   63.5720   33.7170   46.9630 C   0  0  0  0  0  0  0  0  0  0  0  0
   62.3050   33.7420   46.3700 C   0  0  0  0  0  0  0  0  0  0  0  0
   59.9230   29.7020   45.3650 C   0  0  0  0  0  0  0  0  0  0  0  0
   58.2520   27.4740   43.5470 C   0  0  0  0  0  0  0  0  0  0  0  0
   57.7810   26.3070   42.9470 C   0  0  0  0  0  0  0  0  0  0  0  0
   57.3950   25.2230   43.7420 C   0  0  0  0  0  0  0  0  0  0  0  0
   56.9170   24.0360   43.1670 C   0  0  0  0  0  0  0  0  0  0  0  0
   56.3325   22.2301   46.0116 H   0  0  0  0  0  0  0  0  0  0  0  0
   57.1779   24.3327   47.0517 H   0  0  0  0  0  0  0  0  0  0  0  0
   58.0260   26.5690   46.7490 H   0  0  0  0  0  0  0  0  0  0  0  0
   57.4596   30.0600   46.5924 H   0  0  0  0  0  0  0  0  0  0  0  0
   58.3732   29.1210   47.6874 H   0  0  0  0  0  0  0  0  0  0  0  0
   60.2896   30.8890   47.2941 H   0  0  0  0  0  0  0  0  0  0  0  0
   56.3483   33.4718   44.8515 H   0  0  0  0  0  0  0  0  0  0  0  0
   57.8124   35.4841   45.1153 H   0  0  0  0  0  0  0  0  0  0  0  0
   60.5786   31.9299   48.7062 H   0  0  0  0  0  0  0  0  0  0  0  0
   62.8448   31.8788   49.7509 H   0  0  0  0  0  0  0  0  0  0  0  0
   64.7628   33.0215   48.6354 H   0  0  0  0  0  0  0  0  0  0  0  0
   64.4167   34.2266   46.4765 H   0  0  0  0  0  0  0  0  0  0  0  0
   62.1535   34.2814   45.4233 H   0  0  0  0  0  0  0  0  0  0  0  0
   59.8699   30.2197   44.3959 H   0  0  0  0  0  0  0  0  0  0  0  0
   60.9434   29.2916   45.3447 H   0  0  0  0  0  0  0  0  0  0  0  0
   58.5572   28.3294   42.9264 H   0  0  0  0  0  0  0  0  0  0  0  0
   57.7131   26.2390   41.8512 H   0  0  0  0  0  0  0  0  0  0  0  0
   56.8410   23.9466   42.0733 H   0  0  0  0  0  0  0  0  0  0  0  0
  1  2  1  0
  2  3  2  0
  3  4  1  0
  4  5  2  0
  5  6  1  0
  6  7  2  0
  7  8  1  0
  8  9  1  0
  9 10  1  0
 10 11  1  0
 11 12  2  0
 12 13  1  0
 13 14  2  0
 14 15  1  0
 15 16  2  0
 16 17  1  0
 17 18  2  0
 18 19  1  0
 19 20  2  0
 20 21  1  0
 21 22  2  0
 10 23  1  0
  7 24  1  0
 24 25  2  0
 25 26  1  0
 26 27  2  0
 27  2  1  0
 26  5  1  0
 23  8  1  0
 16 11  1  0
 22 17  1  0
  3 28  1  0
  4 29  1  0
  6 30  1  0
  9 31  1  0
  9 32  1  0
 10 33  1  0
 13 34  1  0
 14 35  1  0
 18 36  1  0
 19 37  1  0
 20 38  1  0
 21 39  1  0
 22 40  1  0
 23 41  1  0
 23 42  1  0
 24 43  1  0
 25 44  1  0
 27 45  1  0
M  CHG  1   6   1
M  END
>  <UniqueID>  (9) 
9

>  <SMILES>  (9) 
Fc1ccc2[nH+]c(N3CC(c4nccnc4-c4ccccc4)C3)ccc2c1

>  <Energy>  (9) 
108.4886094105195

>  <Genealogy>  (9) 
Fc1ccc2[nH+]c(N3CC(c4nccnc4-c4ccccc4)C3)ccc2c1 (protonated)
Fc1ccc2[nH+]c(N3CC(c4nccnc4-c4ccccc4)C3)ccc2c1 (3D coordinates assigned)
Fc1ccc2[nH+]c(N3CC(c4nccnc4-c4ccccc4)C3)ccc2c1 (nonaromatic ring conformer: 108.4886094105195 kcal/mol)

>  <smiles>  (9) 
Fc1ccc2nc(N3CC(c4nccnc4-c4ccccc4)C3)ccc2c1

>  <score_type>  (9) 
oracle

>  <origin>  (9) 
adg

>  <m_score__min__energy>  (9) 
-6.9400000000000004

>  <m_primary>  (9) 
energy

$$$$
9:0
     RDKit          3D

 36 37  0  0  0  0  0  0  0  0999 V2000
   59.6674   35.6864   46.7588 H   0  0  0  0  0  0  0  0  0  0  0  0
   59.2120   34.7620   46.3740 C   0  0  0  0  0  0  0  0  0  0  0  0
   58.8310   33.7510   47.2590 C   0  0  0  0  0  0  0  0  0  0  0  0
   58.9874   33.8800   48.3402 H   0  0  0  0  0  0  0  0  0  0  0  0
   58.2510   32.5750   46.7730 C   0  0  0  0  0  0  0  0  0  0  0  0
   57.9481   31.7822   47.4727 H   0  0  0  0  0  0  0  0  0  0  0  0
   58.0550   32.4050   45.3950 C   0  0  0  0  0  0  0  0  0  0  0  0
   57.3440   30.9100   44.7950 S   0  0  0  0  0  0  0  0  0  0  0  0
   58.0040   30.4750   43.5170 O   0  0  0  0  0  0  0  0  0  0  0  0
   55.8910   31.1650   44.5150 O   0  0  0  0  0  0  0  0  0  0  0  0
   57.4710   29.6420   45.9740 N   0  0  0  0  0  0  0  0  0  0  0  0
   58.3230   28.6570   45.9560 C   0  0  0  0  0  0  0  0  0  0  0  0
   57.9150   27.3580   45.3550 C   0  0  0  0  0  0  0  0  0  0  0  0
   57.2880   26.3670   46.1360 C   0  0  0  0  0  0  0  0  0  0  0  0
   57.0974   26.5536   47.2032 H   0  0  0  0  0  0  0  0  0  0  0  0
   56.9060   25.1490   45.5670 C   0  0  0  0  0  0  0  0  0  0  0  0
   56.4150   24.3842   46.1867 H   0  0  0  0  0  0  0  0  0  0  0  0
   57.1460   24.9000   44.2130 C   0  0  0  0  0  0  0  0  0  0  0  0
   56.6220   23.2340   43.4390 Br  0  0  0  0  0  0  0  0  0  0  0  0
   57.7700   25.8710   43.4270 C   0  0  0  0  0  0  0  0  0  0  0  0
   57.9591   25.6759   42.3611 H   0  0  0  0  0  0  0  0  0  0  0  0
   58.1550   27.0910   43.9920 C   0  0  0  0  0  0  0  0  0  0  0  0
   58.6496   27.8491   43.3670 H   0  0  0  0  0  0  0  0  0  0  0  0
   59.6290   28.8000   46.5400 N   0  0  0  0  0  0  0  0  0  0  0  0
   60.7210   29.3410   45.7310 C   0  0  0  0  0  0  0  0  0  0  0  0
   61.5087   29.7312   46.3922 H   0  0  0  0  0  0  0  0  0  0  0  0
   61.1365   28.5445   45.0962 H   0  0  0  0  0  0  0  0  0  0  0  0
   60.3390   30.1541   45.0962 H   0  0  0  0  0  0  0  0  0  0  0  0
   59.9320   28.1130   47.7960 C   0  0  0  0  0  0  0  0  0  0  0  0
   59.6487   28.7553   48.6429 H   0  0  0  0  0  0  0  0  0  0  0  0
   59.3658   27.1712   47.8446 H   0  0  0  0  0  0  0  0  0  0  0  0
   61.0093   27.8961   47.8446 H   0  0  0  0  0  0  0  0  0  0  0  0
   58.4370   33.4240   44.5100 C   0  0  0  0  0  0  0  0  0  0  0  0
   58.2816   33.2979   43.4284 H   0  0  0  0  0  0  0  0  0  0  0  0
   59.0150   34.6000   44.9990 C   0  0  0  0  0  0  0  0  0  0  0  0
   59.3144   35.3970   44.3025 H   0  0  0  0  0  0  0  0  0  0  0  0
  1  2  1  0
  2  3  2  0
  3  4  1  0
  3  5  1  0
  5  6  1  0
  5  7  2  0
  7  8  1  0
  8  9  2  0
  8 10  2  0
  8 11  1  0
 11 12  2  0
 12 13  1  0
 13 14  2  0
 14 15  1  0
 14 16  1  0
 16 17  1  0
 16 18  2  0
 18 19  1  0
 18 20  1  0
 20 21  1  0
 20 22  2  0
 22 23  1  0
 12 24  1  0
 24 25  1  0
 25 26  1  0
 25 27  1  0
 25 28  1  0
 24 29  1  0
 29 30  1  0
 29 31  1  0
 29 32  1  0
  7 33  1  0
 33 34  1  0
 33 35  2  0
 35 36  1  0
 35  2  1  0
 22 13  1  0
M  END
>  <UniqueID>  (10) 
10

>  <SMILES>  (10) 
CN(C)/C(=N\S(=O)(=O)c1ccccc1)c1ccc(Br)cc1

>  <Energy>  (10) 
43.02144195364721

>  <Genealogy>  (10) 
CN(C)/C(=N\S(=O)(=O)c1ccccc1)c1ccc(Br)cc1 (cis-trans isomerization)
CN(C)/C(=N\S(=O)(=O)c1ccccc1)c1ccc(Br)cc1 (3D coordinates assigned)
CN(C)/C(=N\S(=O)(=O)c1ccccc1)c1ccc(Br)cc1 (optimized conformer: 43.02144195364721 kcal/mol)

>  <smiles>  (10) 
CN(C)C(=NS(=O)(=O)c1ccccc1)c1ccc(Br)cc1

>  <score_type>  (10) 
oracle

>  <origin>  (10) 
adg

>  <m_score__min__energy>  (10) 
-8.0299999999999994

>  <m_primary>  (10) 
energy

$$$$
10:0
     RDKit          3D

 36 38  0  0  1  0  0  0  0  0999 V2000
   60.8890   34.5200   48.4620 C   0  0  0  0  0  0  0  0  0  0  0  0
   59.7420   34.8390   47.6720 O   0  0  0  0  0  0  0  0  0  0  0  0
   59.1600   33.8120   46.9500 C   0  0  0  0  0  0  0  0  0  0  0  0
   59.0670   33.9700   45.5890 C   0  0  0  0  0  0  0  0  0  0  0  0
   58.4900   32.9530   44.8780 C   0  0  0  0  0  0  0  0  0  0  0  0
   58.4010   33.1080   43.5470 N   0  0  0  0  0  0  0  0  0  0  0  0
   57.8460   32.1460   42.8020 C   0  0  0  0  0  0  0  0  0  0  0  0
   57.7320   32.3570   41.0660 Cl  0  0  0  0  0  0  0  0  0  0  0  0
   57.3990   31.0530   43.4310 N   0  0  0  0  0  0  0  0  0  0  0  0
   57.4720   30.8580   44.7690 C   0  0  0  0  0  0  0  0  0  0  0  0
   57.0280   29.8120   45.2380 N   0  0  0  0  0  0  0  0  0  0  0  0
   57.3590   28.5130   45.0560 C   0  0  0  0  0  0  0  0  0  0  0  0
   57.9070   28.1100   43.8150 C   0  0  0  0  0  0  0  0  0  0  0  0
   58.1420   26.7860   43.5670 C   0  0  0  0  0  0  0  0  0  0  0  0
   57.8560   25.8150   44.5020 C   0  0  0  0  0  0  0  0  0  0  0  0
   57.3160   26.1810   45.7330 C   0  0  0  0  0  0  0  0  0  0  0  0
   57.0620   27.5240   46.0250 C   0  0  0  0  0  0  0  0  0  0  0  0
   58.0320   31.8240   45.5470 C   0  0  0  0  0  0  0  0  0  0  0  0
   58.1400   31.7010   46.9010 C   0  0  0  0  0  0  0  0  0  0  0  0
   58.7280   32.7320   47.6550 C   0  0  0  0  0  0  0  0  0  0  0  0
   58.8660   32.6640   49.0250 O   0  0  0  0  0  0  0  0  0  0  0  0
   58.9220   31.4120   49.6790 C   0  0  0  0  0  0  0  0  0  0  0  0
   60.6309   34.5918   49.5289 H   0  0  0  0  0  0  0  0  0  0  0  0
   61.2189   33.4960   48.2327 H   0  0  0  0  0  0  0  0  0  0  0  0
   61.7002   35.2266   48.2327 H   0  0  0  0  0  0  0  0  0  0  0  0
   59.4409   34.8767   45.0909 H   0  0  0  0  0  0  0  0  0  0  0  0
   56.9700   30.3150   42.8200 H   0  0  0  0  0  0  0  0  0  0  0  0
   58.1442   28.8629   43.0489 H   0  0  0  0  0  0  0  0  0  0  0  0
   58.5695   26.4889   42.5980 H   0  0  0  0  0  0  0  0  0  0  0  0
   58.0531   24.7563   44.2776 H   0  0  0  0  0  0  0  0  0  0  0  0
   57.0878   25.4072   46.4808 H   0  0  0  0  0  0  0  0  0  0  0  0
   56.6356   27.8099   46.9979 H   0  0  0  0  0  0  0  0  0  0  0  0
   57.7674   30.7959   47.4029 H   0  0  0  0  0  0  0  0  0  0  0  0
   58.9151   31.5666   50.7681 H   0  0  0  0  0  0  0  0  0  0  0  0
   58.0500   30.8075   49.3889 H   0  0  0  0  0  0  0  0  0  0  0  0
   59.8445   30.8877   49.3889 H   0  0  0  0  0  0  0  0  0  0  0  0
  1  2  1  0
  2  3  1  0
  3  4  2  0
  4  5  1  0
  5  6  1  0
  6  7  2  0
  7  8  1  0
  7  9  1  0
  9 10  1  0
 10 11  2  0
 11 12  1  0
 12 13  2  0
 13 14  1  0
 14 15  2  0
 15 16  1  0
 16 17  2  0
 10 18  1  0
 18 19  1  0
 19 20  2  0
 20 21  1  0
 21 22  1  0
 20  3  1  0
 18  5  2  0
 17 12  1  0
  1 23  1  0
  1 24  1  0
  1 25  1  0
  4 26  1  0
  9 27  1  0
 13 28  1  0
 14 29  1  0
 15 30  1  0
 16 31  1  0
 17 32  1  0
 19 33  1  0
 22 34  1  0
 22 35  1  0
 22 36  1  0
M  END
>  <smiles>  (11) 
COc1cc2nc(Cl)[nH]c(=Nc3ccccc3)c2cc1OC

>  <score_type>  (11) 
oracle

>  <origin>  (11) 
adg

>  <m_score__min__energy>  (11) 
-6.5599999999999996

>  <m_primary>  (11) 
energy

$$$$
11:0
     RDKit          3D

 60 62  0  0  0  0  0  0  0  0999 V2000
   63.3960   33.8540   46.3380 C   0  0  0  0  0  0  0  0  0  0  0  0
   63.7020   32.7890   47.3940 C   0  0  0  0  0  0  0  0  0  0  0  0
   62.9860   32.9810   48.6710 N   0  0  0  0  0  0  0  0  0  0  0  0
   63.5260   32.3060   49.8690 C   0  0  0  0  0  0  0  0  0  0  0  0
   65.0540   32.3360   49.9780 C   0  0  0  0  0  0  0  0  0  0  0  0
   61.2460   33.1410   48.5500 S   0  0  0  0  0  0  0  0  0  0  0  0
   60.6450   33.2720   49.9210 O   0  0  0  0  0  0  0  0  0  0  0  0
   60.9330   34.3990   47.7900 O   0  0  0  0  0  0  0  0  0  0  0  0
   60.5030   31.7820   47.7060 C   0  0  0  0  0  0  0  0  0  0  0  0
   59.1290   31.4970   47.9030 C   0  0  0  0  0  0  0  0  0  0  0  0
   58.5100   30.4360   47.2210 C   0  0  0  0  0  0  0  0  0  0  0  0
   59.2940   29.6670   46.3580 C   0  0  0  0  0  0  0  0  0  0  0  0
   60.6260   29.9330   46.1760 C   0  0  0  0  0  0  0  0  0  0  0  0
   61.1120   29.0260   45.2560 C   0  0  0  0  0  0  0  0  0  0  0  0
   60.0220   28.2340   44.9110 C   0  0  0  0  0  0  0  0  0  0  0  0
   58.9170   28.6200   45.5940 N   0  0  0  0  0  0  0  0  0  0  0  0
   57.5740   28.0590   45.4380 C   0  0  0  0  0  0  0  0  0  0  0  0
   56.7200   28.9490   44.5810 C   0  0  0  0  0  0  0  0  0  0  0  0
   55.5170   29.1620   44.9010 O   0  0  0  0  0  0  0  0  0  0  0  0
   57.2520   29.4970   43.3670 N   0  0  0  0  0  0  0  0  0  0  0  0
   56.4970   30.4220   42.5240 C   0  0  0  0  0  0  0  0  0  0  0  0
   57.3010   31.7060   42.2890 C   0  0  0  0  0  0  0  0  0  0  0  0
   58.5280   31.7600   43.2020 C   0  0  0  0  0  0  0  0  0  0  0  0
   58.3510   32.7910   44.2250 N   0  0  0  0  0  0  0  0  0  0  0  0
   59.3190   33.8320   44.5190 C   0  0  0  0  0  0  0  0  0  0  0  0
   58.7060   34.6700   45.6580 C   0  0  0  0  0  0  0  0  0  0  0  0
   57.4750   33.9060   46.1720 C   0  0  0  0  0  0  0  0  0  0  0  0
   57.3180   32.8160   45.1900 C   0  0  0  0  0  0  0  0  0  0  0  0
   56.3840   31.9720   45.2230 O   0  0  0  0  0  0  0  0  0  0  0  0
   61.2690   30.9770   46.8360 C   0  0  0  0  0  0  0  0  0  0  0  0
   63.1251   34.7968   46.8358 H   0  0  0  0  0  0  0  0  0  0  0  0
   64.2847   34.0133   45.7097 H   0  0  0  0  0  0  0  0  0  0  0  0
   62.5583   33.5173   45.7097 H   0  0  0  0  0  0  0  0  0  0  0  0
   63.4215   31.8070   46.9853 H   0  0  0  0  0  0  0  0  0  0  0  0
   64.7761   32.8655   47.6187 H   0  0  0  0  0  0  0  0  0  0  0  0
   63.1079   32.7987   50.7592 H   0  0  0  0  0  0  0  0  0  0  0  0
   63.2378   31.2474   49.7894 H   0  0  0  0  0  0  0  0  0  0  0  0
   65.3459   32.3417   51.0385 H   0  0  0  0  0  0  0  0  0  0  0  0
   65.4742   31.4459   49.4869 H   0  0  0  0  0  0  0  0  0  0  0  0
   65.4389   33.2419   49.4869 H   0  0  0  0  0  0  0  0  0  0  0  0
   58.5401   32.1136   48.5980 H   0  0  0  0  0  0  0  0  0  0  0  0
   57.4412   30.2178   47.3623 H   0  0  0  0  0  0  0  0  0  0  0  0
   62.1415   28.9465   44.8767 H   0  0  0  0  0  0  0  0  0  0  0  0
   60.0526   27.4087   44.1844 H   0  0  0  0  0  0  0  0  0  0  0  0
   57.6497   27.0684   44.9658 H   0  0  0  0  0  0  0  0  0  0  0  0
   57.1095   27.9753   46.4316 H   0  0  0  0  0  0  0  0  0  0  0  0
   58.2030   29.1990   43.0490 H   0  0  0  0  0  0  0  0  0  0  0  0
   56.2880   29.9426   41.5562 H   0  0  0  0  0  0  0  0  0  0  0  0
   55.5542   30.6780   43.0295 H   0  0  0  0  0  0  0  0  0  0  0  0
   57.6314   31.7366   41.2403 H   0  0  0  0  0  0  0  0  0  0  0  0
   56.6574   32.5688   42.5157 H   0  0  0  0  0  0  0  0  0  0  0  0
   58.6614   30.7831   43.6898 H   0  0  0  0  0  0  0  0  0  0  0  0
   59.4148   32.0020   42.5979 H   0  0  0  0  0  0  0  0  0  0  0  0
   60.2724   33.3879   44.8412 H   0  0  0  0  0  0  0  0  0  0  0  0
   59.5304   34.4486   43.6329 H   0  0  0  0  0  0  0  0  0  0  0  0
   59.4378   34.7954   46.4696 H   0  0  0  0  0  0  0  0  0  0  0  0
   58.4229   35.6703   45.2984 H   0  0  0  0  0  0  0  0  0  0  0  0
   57.6529   33.5051   47.1808 H   0  0  0  0  0  0  0  0  0  0  0  0
   56.5801   34.5398   46.2586 H   0  0  0  0  0  0  0  0  0  0  0  0
   62.3415   31.1685   46.6839 H   0  0  0  0  0  0  0  0  0  0  0  0
  1  2  1  0
  2  3  1  0
  3  4  1  0
  4  5  1  0
  3  6  1  0
  6  7  2  0
  6  8  2  0
  6  9  1  0
  9 10  2  0
 10 11  1  0
 11 12  2  0
 12 13  1  0
 13 14  1  0
 14 15  2  0
 15 16  1  0
 16 17  1  0
 17 18  1  0
 18 19  2  0
 18 20  1  0
 20 21  1  0
 21 22  1  0
 22 23  1  0
 23 24  1  0
 24 25  1  0
 25 26  1  0
 26 27  1  0
 27 28  1  0
 28 29  2  0
 13 30  2  0
 30  9  1  0
 16 12  1  0
 28 24  1  0
  1 31  1  0
  1 32  1  0
  1 33  1  0
  2 34  1  0
  2 35  1  0
  4 36  1  0
  4 37  1  0
  5 38  1  0
  5 39  1  0
  5 40  1  0
 10 41  1  0
 11 42  1  0
 14 43  1  0
 15 44  1  0
 17 45  1  0
 17 46  1  0
 20 47  1  0
 21 48  1  0
 21 49  1  0
 22 50  1  0
 22 51  1  0
 23 52  1  0
 23 53  1  0
 25 54  1  0
 25 55  1  0
 26 56  1  0
 26 57  1  0
 27 58  1  0
 27 59  1  0
 30 60  1  0
M  END
>  <UniqueID>  (12) 
11

>  <SMILES>  (12) 
CCN(CC)S(=O)(=O)c1ccc2c(ccn2CC(=O)NCCCN2CCCC2=O)c1

>  <Energy>  (12) 
96.19502848461804

>  <Genealogy>  (12) 
CCN(CC)S(=O)(=O)c1ccc2c(ccn2CC(=O)NCCCN2CCCC2=O)c1 (3D coordinates assigned)
CCN(CC)S(=O)(=O)c1ccc2c(ccn2CC(=O)NCCCN2CCCC2=O)c1 (nonaromatic ring conformer: 96.19502848461804 kcal/mol)

>  <smiles>  (12) 
CCN(CC)S(=O)(=O)c1ccc2c(ccn2CC(=O)NCCCN2CCCC2=O)c1

>  <score_type>  (12) 
oracle

>  <origin>  (12) 
adg

>  <m_score__min__energy>  (12) 
-9.4100000000000001

>  <m_primary>  (12) 
energy

$$$$
12:0
     RDKit          3D

 50 53  0  0  0  0  0  0  0  0999 V2000
   56.1430   29.9580   43.4620 C   0  0  0  0  0  0  0  0  0  0  0  0
   56.2000   29.3360   44.8580 C   0  0  0  0  0  0  0  0  0  0  0  0
   57.0160   28.0970   44.8870 N   0  0  0  0  0  0  0  0  0  0  0  0
   58.2080   28.2050   44.0020 C   0  0  0  0  0  0  0  0  0  0  0  0
   59.5330   28.4720   44.7470 C   0  0  0  0  0  0  0  0  0  0  0  0
   59.2940   29.1700   46.0120 N   0  0  0  0  0  0  0  0  0  0  0  0
   59.9670   30.4030   46.3030 C   0  0  0  0  0  0  0  0  0  0  0  0
   61.2270   30.3580   46.7980 N   0  0  0  0  0  0  0  0  0  0  0  0
   61.9050   31.4550   47.1280 N   0  0  0  0  0  0  0  0  0  0  0  0
   61.3620   32.7050   47.0070 C   0  0  0  0  0  0  0  0  0  0  0  0
   62.1530   33.9420   47.4210 C   0  0  0  0  0  0  0  0  0  0  0  0
   63.0150   33.7510   48.6440 C   0  0  0  0  0  0  0  0  0  0  0  0
   62.5810   34.2250   49.8940 C   0  0  0  0  0  0  0  0  0  0  0  0
   63.3650   34.0230   51.0340 C   0  0  0  0  0  0  0  0  0  0  0  0
   64.5810   33.3410   50.9360 C   0  0  0  0  0  0  0  0  0  0  0  0
   65.0150   32.8590   49.6990 C   0  0  0  0  0  0  0  0  0  0  0  0
   64.2340   33.0590   48.5550 C   0  0  0  0  0  0  0  0  0  0  0  0
   60.0660   32.8280   46.4430 C   0  0  0  0  0  0  0  0  0  0  0  0
   59.4630   34.0840   46.2020 C   0  0  0  0  0  0  0  0  0  0  0  0
   58.1900   34.1640   45.6350 C   0  0  0  0  0  0  0  0  0  0  0  0
   57.5020   33.0050   45.2860 C   0  0  0  0  0  0  0  0  0  0  0  0
   58.0810   31.7550   45.5040 C   0  0  0  0  0  0  0  0  0  0  0  0
   59.3580   31.6510   46.0880 C   0  0  0  0  0  0  0  0  0  0  0  0
   58.3010   28.6500   46.9540 C   0  0  0  0  0  0  0  0  0  0  0  0
   57.3730   27.6480   46.2530 C   0  0  0  0  0  0  0  0  0  0  0  0
   56.0429   31.0498   43.5509 H   0  0  0  0  0  0  0  0  0  0  0  0
   57.0669   29.7177   42.9155 H   0  0  0  0  0  0  0  0  0  0  0  0
   55.2781   29.5538   42.9155 H   0  0  0  0  0  0  0  0  0  0  0  0
   56.6398   30.0661   45.5534 H   0  0  0  0  0  0  0  0  0  0  0  0
   55.1736   29.0711   45.1517 H   0  0  0  0  0  0  0  0  0  0  0  0
   58.3101   27.2615   43.4457 H   0  0  0  0  0  0  0  0  0  0  0  0
   58.0356   29.0721   43.3475 H   0  0  0  0  0  0  0  0  0  0  0  0
   60.0286   27.5121   44.9542 H   0  0  0  0  0  0  0  0  0  0  0  0
   60.1695   29.1061   44.1124 H   0  0  0  0  0  0  0  0  0  0  0  0
   62.8730   31.3200   47.4910 H   0  0  0  0  0  0  0  0  0  0  0  0
   62.8044   34.2301   46.5827 H   0  0  0  0  0  0  0  0  0  0  0  0
   61.4140   34.7159   47.6760 H   0  0  0  0  0  0  0  0  0  0  0  0
   61.6215   34.7566   49.9757 H   0  0  0  0  0  0  0  0  0  0  0  0
   63.0243   34.4013   52.0091 H   0  0  0  0  0  0  0  0  0  0  0  0
   65.1968   33.1837   51.8338 H   0  0  0  0  0  0  0  0  0  0  0  0
   65.9718   32.3215   49.6239 H   0  0  0  0  0  0  0  0  0  0  0  0
   64.5758   32.6731   47.5833 H   0  0  0  0  0  0  0  0  0  0  0  0
   60.0020   35.0065   46.4637 H   0  0  0  0  0  0  0  0  0  0  0  0
   57.7282   35.1474   45.4631 H   0  0  0  0  0  0  0  0  0  0  0  0
   56.5000   33.0753   44.8375 H   0  0  0  0  0  0  0  0  0  0  0  0
   57.5359   30.8435   45.2175 H   0  0  0  0  0  0  0  0  0  0  0  0
   58.8177   28.1462   47.7842 H   0  0  0  0  0  0  0  0  0  0  0  0
   57.6988   29.4873   47.3366 H   0  0  0  0  0  0  0  0  0  0  0  0
   57.8827   26.6755   46.1870 H   0  0  0  0  0  0  0  0  0  0  0  0
   56.4470   27.5678   46.8413 H   0  0  0  0  0  0  0  0  0  0  0  0
  1  2  1  0
  2  3  1  0
  3  4  1  0
  4  5  1  0
  5  6  1  0
  6  7  1  0
  7  8  2  0
  8  9  1  0
  9 10  2  0
 10 11  1  0
 11 12  1  0
 12 13  2  0
 13 14  1  0
 14 15  2  0
 15 16  1  0
 16 17  2  0
 10 18  1  0
 18 19  2  0
 19 20  1  0
 20 21  2  0
 21 22  1  0
 22 23  2  0
  6 24  1  0
 24 25  1  0
 25  3  1  0
 23  7  1  0
 17 12  1  0
 23 18  1  0
  1 26  1  0
  1 27  1  0
  1 28  1  0
  2 29  1  0
  2 30  1  0
  4 31  1  0
  4 32  1  0
  5 33  1  0
  5 34  1  0
  9 35  1  0
 11 36  1  0
 11 37  1  0
 13 38  1  0
 14 39  1  0
 15 40  1  0
 16 41  1  0
 17 42  1  0
 19 43  1  0
 20 44  1  0
 21 45  1  0
 22 46  1  0
 24 47  1  0
 24 48  1  0
 25 49  1  0
 25 50  1  0
M  CHG  1   9   1
M  END
>  <UniqueID>  (13) 
12

>  <SMILES>  (13) 
CCN1CCN(c2n[nH+]c(Cc3ccccc3)c3ccccc23)CC1

>  <Energy>  (13) 
75.52795902601234

>  <Genealogy>  (13) 
CCN1CCN(c2n[nH+]c(Cc3ccccc3)c3ccccc23)CC1 (protonated)
CCN1CCN(c2n[nH+]c(Cc3ccccc3)c3ccccc23)CC1 (3D coordinates assigned)
CCN1CCN(c2n[nH+]c(Cc3ccccc3)c3ccccc23)CC1 (nonaromatic ring conformer: 75.52795902601234 kcal/mol)

>  <smiles>  (13) 
CCN1CCN(c2nnc(Cc3ccccc3)c3ccccc23)CC1

>  <score_type>  (13) 
oracle

>  <origin>  (13) 
adg

>  <m_score__min__energy>  (13) 
-6.8099999999999996

>  <m_primary>  (13) 
energy

$$$$
13:0
     RDKit          3D

 48 50  0  0  0  0  0  0  0  0999 V2000
   60.0280   28.3830   49.1090 C   0  0  0  0  0  0  0  0  0  0  0  0
   60.2430   29.7200   48.5730 N   0  0  0  0  0  0  0  0  0  0  0  0
   59.4570   30.8850   48.8910 C   0  0  0  0  0  0  0  0  0  0  0  0
   58.5280   30.7580   49.7310 O   0  0  0  0  0  0  0  0  0  0  0  0
   59.6820   32.2210   48.1910 C   0  0  1  0  0  0  0  0  0  0  0  0
   61.1430   32.5710   47.9590 C   0  0  0  0  0  0  0  0  0  0  0  0
   62.1440   32.1520   48.8560 C   0  0  0  0  0  0  0  0  0  0  0  0
   63.4670   32.5670   48.6890 C   0  0  0  0  0  0  0  0  0  0  0  0
   63.8070   33.4260   47.6430 C   0  0  0  0  0  0  0  0  0  0  0  0
   62.8240   33.8740   46.7600 C   0  0  0  0  0  0  0  0  0  0  0  0
   61.4860   33.4740   46.9150 C   0  0  0  0  0  0  0  0  0  0  0  0
   60.4640   33.9610   45.9050 C   0  0  0  0  0  0  0  0  0  0  0  0
   59.0150   33.6800   46.3240 C   0  0  0  0  0  0  0  0  0  0  0  0
   58.9410   32.3450   46.9200 N   0  0  0  0  0  0  0  0  0  0  0  0
   58.8140   31.2480   45.9940 C   0  0  0  0  0  0  0  0  0  0  0  0
   59.8520   30.6500   45.5910 O   0  0  0  0  0  0  0  0  0  0  0  0
   57.4830   30.8780   45.4620 C   0  0  0  0  0  0  0  0  0  0  0  0
   56.6820   31.8070   45.1660 O   0  0  0  0  0  0  0  0  0  0  0  0
   57.1040   29.4160   45.1940 C   0  0  0  0  0  0  0  0  0  0  0  0
   55.6990   29.2810   45.1890 O   0  0  0  0  0  0  0  0  0  0  0  0
   57.6530   28.5250   46.3560 C   0  0  0  0  0  0  0  0  0  0  0  0
   58.9680   27.8200   45.9950 C   0  0  0  0  0  0  0  0  0  0  0  0
   58.7950   26.8880   44.7800 C   0  0  0  0  0  0  0  0  0  0  0  0
   57.7720   27.4090   43.7500 C   0  0  0  0  0  0  0  0  0  0  0  0
   57.6450   28.9360   43.8050 C   0  0  0  0  0  0  0  0  0  0  0  0
   60.0345   28.4232   50.2082 H   0  0  0  0  0  0  0  0  0  0  0  0
   59.0568   28.0006   48.7618 H   0  0  0  0  0  0  0  0  0  0  0  0
   60.8303   27.7154   48.7618 H   0  0  0  0  0  0  0  0  0  0  0  0
   59.2780   32.9493   48.9096 H   0  0  0  0  0  0  0  0  0  0  0  0
   61.8817   31.4919   49.6959 H   0  0  0  0  0  0  0  0  0  0  0  0
   64.2436   32.2156   49.3842 H   0  0  0  0  0  0  0  0  0  0  0  0
   64.8503   33.7500   47.5146 H   0  0  0  0  0  0  0  0  0  0  0  0
   63.0992   34.5469   45.9345 H   0  0  0  0  0  0  0  0  0  0  0  0
   60.5869   35.0469   45.7798 H   0  0  0  0  0  0  0  0  0  0  0  0
   60.6445   33.4127   44.9686 H   0  0  0  0  0  0  0  0  0  0  0  0
   58.6918   34.4308   47.0601 H   0  0  0  0  0  0  0  0  0  0  0  0
   58.3574   33.7307   45.4437 H   0  0  0  0  0  0  0  0  0  0  0  0
   55.3060   30.0860   45.6180 H   0  0  0  0  0  0  0  0  0  0  0  0
   57.8259   29.1622   47.2358 H   0  0  0  0  0  0  0  0  0  0  0  0
   56.9038   27.7452   46.5576 H   0  0  0  0  0  0  0  0  0  0  0  0
   59.7271   28.5797   45.7573 H   0  0  0  0  0  0  0  0  0  0  0  0
   59.2798   27.2101   46.8557 H   0  0  0  0  0  0  0  0  0  0  0  0
   59.7693   26.7813   44.2807 H   0  0  0  0  0  0  0  0  0  0  0  0
   58.4149   25.9277   45.1585 H   0  0  0  0  0  0  0  0  0  0  0  0
   58.0982   27.1138   42.7418 H   0  0  0  0  0  0  0  0  0  0  0  0
   56.7906   26.9729   43.9882 H   0  0  0  0  0  0  0  0  0  0  0  0
   58.6349   29.3837   43.6326 H   0  0  0  0  0  0  0  0  0  0  0  0
   56.9325   29.2518   43.0287 H   0  0  0  0  0  0  0  0  0  0  0  0
  1  2  1  0
  2  3  1  0
  3  4  2  0
  3  5  1  0
  5  6  1  0
  6  7  2  0
  7  8  1  0
  8  9  2  0
  9 10  1  0
 10 11  2  0
 11 12  1  0
 12 13  1  0
 13 14  1  0
 14 15  1  0
 15 16  2  0
 15 17  1  0
 17 18  2  0
 17 19  1  0
 19 20  1  0
 19 21  1  0
 21 22  1  0
 22 23  1  0
 23 24  1  0
 24 25  1  0
 14  5  1  0
 25 19  1  0
 11  6  1  0
  1 26  1  0
  1 27  1  0
  1 28  1  0
  5 29  1  1
  7 30  1  0
  8 31  1  0
  9 32  1  0
 10 33  1  0
 12 34  1  0
 12 35  1  0
 13 36  1  0
 13 37  1  0
 20 38  1  0
 21 39  1  0
 21 40  1  0
 22 41  1  0
 22 42  1  0
 23 43  1  0
 23 44  1  0
 24 45  1  0
 24 46  1  0
 25 47  1  0
 25 48  1  0
M  CHG  1   2  -1
M  END
>  <UniqueID>  (14) 
13

>  <SMILES>  (14) 
C[N-]C(=O)[C@H]1c2ccccc2CCN1C(=O)C(=O)C1(O)CCCCC1

>  <Energy>  (14) 
67.89287528198285

>  <Genealogy>  (14) 
C[N-]C(=O)C1c2ccccc2CCN1C(=O)C(=O)C1(O)CCCCC1 (protonated)
C[N-]C(=O)[C@H]1c2ccccc2CCN1C(=O)C(=O)C1(O)CCCCC1 (chirality)
C[N-]C(=O)[C@H]1c2ccccc2CCN1C(=O)C(=O)C1(O)CCCCC1 (3D coordinates assigned)
C[N-]C(=O)[C@H]1c2ccccc2CCN1C(=O)C(=O)C1(O)CCCCC1 (nonaromatic ring conformer: 67.89287528198285 kcal/mol)

>  <smiles>  (14) 
CNC(=O)C1c2ccccc2CCN1C(=O)C(=O)C1(O)CCCCC1

>  <score_type>  (14) 
oracle

>  <origin>  (14) 
adg

>  <m_score__min__energy>  (14) 
-9.3100000000000005

>  <m_primary>  (14) 
energy

$$$$
14:0
     RDKit          3D

 47 49  0  0  0  0  0  0  0  0999 V2000
   60.0350   35.1550   46.5420 O   0  0  0  0  0  0  0  0  0  0  0  0
   60.1030   33.9100   47.3820 S   0  0  0  0  0  0  0  0  0  0  0  0
   59.2070   34.1540   48.5650 O   0  0  0  0  0  0  0  0  0  0  0  0
   61.7460   33.6830   47.9800 C   0  0  0  0  0  0  0  0  0  0  0  0
   62.7730   33.2760   47.1130 C   0  0  0  0  0  0  0  0  0  0  0  0
   64.0660   33.0730   47.6050 C   0  0  0  0  0  0  0  0  0  0  0  0
   64.3400   33.2720   48.9610 C   0  0  0  0  0  0  0  0  0  0  0  0
   65.5940   33.0730   49.4360 F   0  0  0  0  0  0  0  0  0  0  0  0
   63.3190   33.6760   49.8280 C   0  0  0  0  0  0  0  0  0  0  0  0
   62.0260   33.8800   49.3390 C   0  0  0  0  0  0  0  0  0  0  0  0
   59.5600   32.5090   46.4440 N   0  0  2  0  0  0  0  0  0  0  0  0
   58.0970   32.6580   46.1590 C   0  0  0  0  0  0  0  0  0  0  0  0
   57.7040   32.1470   44.7880 C   0  0  0  0  0  0  0  0  0  0  0  0
   58.1080   32.8310   43.6270 C   0  0  0  0  0  0  0  0  0  0  0  0
   57.7650   32.3420   42.3630 C   0  0  0  0  0  0  0  0  0  0  0  0
   57.0370   31.1550   42.2440 C   0  0  0  0  0  0  0  0  0  0  0  0
   56.6580   30.4500   43.3900 C   0  0  0  0  0  0  0  0  0  0  0  0
   56.9980   30.9360   44.6560 C   0  0  0  0  0  0  0  0  0  0  0  0
   59.8710   31.2160   47.1460 C   0  0  0  0  0  0  0  0  0  0  0  0
   60.9000   30.3250   46.3680 C   0  0  0  0  0  0  0  0  0  0  0  0
   60.2290   29.2220   45.5430 C   0  0  0  0  0  0  0  0  0  0  0  0
   59.4540   28.2400   46.4400 C   0  0  0  0  0  0  0  0  0  0  0  0
   58.8860   28.9070   47.7060 C   0  0  0  0  0  0  0  0  0  0  0  0
   58.5840   30.3900   47.4650 C   0  0  0  0  0  0  0  0  0  0  0  0
   62.5600   33.1167   46.0456 H   0  0  0  0  0  0  0  0  0  0  0  0
   64.8692   32.7561   46.9235 H   0  0  0  0  0  0  0  0  0  0  0  0
   63.5342   33.8331   50.8952 H   0  0  0  0  0  0  0  0  0  0  0  0
   61.2250   34.1964   50.0233 H   0  0  0  0  0  0  0  0  0  0  0  0
   60.1060   32.5290   45.5520 H   0  0  0  0  0  0  0  0  0  0  0  0
   57.5334   32.0948   46.9174 H   0  0  0  0  0  0  0  0  0  0  0  0
   57.8649   33.7329   46.1876 H   0  0  0  0  0  0  0  0  0  0  0  0
   58.6971   33.7558   43.7142 H   0  0  0  0  0  0  0  0  0  0  0  0
   58.0687   32.8926   41.4604 H   0  0  0  0  0  0  0  0  0  0  0  0
   56.7623   30.7756   41.2487 H   0  0  0  0  0  0  0  0  0  0  0  0
   56.0916   29.5118   43.2956 H   0  0  0  0  0  0  0  0  0  0  0  0
   56.7123   30.3690   45.5542 H   0  0  0  0  0  0  0  0  0  0  0  0
   60.3396   31.5129   48.0959 H   0  0  0  0  0  0  0  0  0  0  0  0
   61.4787   30.9685   45.6890 H   0  0  0  0  0  0  0  0  0  0  0  0
   61.5427   29.8348   47.1140 H   0  0  0  0  0  0  0  0  0  0  0  0
   59.5296   29.6837   44.8305 H   0  0  0  0  0  0  0  0  0  0  0  0
   61.0132   28.6610   45.0136 H   0  0  0  0  0  0  0  0  0  0  0  0
   58.6193   27.8188   45.8604 H   0  0  0  0  0  0  0  0  0  0  0  0
   60.1600   27.4616   46.7650 H   0  0  0  0  0  0  0  0  0  0  0  0
   57.9568   28.3943   47.9952 H   0  0  0  0  0  0  0  0  0  0  0  0
   59.6371   28.8307   48.5060 H   0  0  0  0  0  0  0  0  0  0  0  0
   57.8899   30.4757   46.6160 H   0  0  0  0  0  0  0  0  0  0  0  0
   58.1446   30.7969   48.3877 H   0  0  0  0  0  0  0  0  0  0  0  0
  1  2  2  0
  2  3  2  0
  2  4  1  0
  4  5  2  0
  5  6  1  0
  6  7  2  0
  7  8  1  0
  7  9  1  0
  9 10  2  0
  2 11  1  0
 11 12  1  0
 12 13  1  0
 13 14  2  0
 14 15  1  0
 15 16  2  0
 16 17  1  0
 17 18  2  0
 11 19  1  0
 19 20  1  0
 20 21  1  0
 21 22  1  0
 22 23  1  0
 23 24  1  0
 10  4  1  0
 18 13  1  0
 24 19  1  0
  5 25  1  0
  6 26  1  0
  9 27  1  0
 10 28  1  0
 11 29  1  6
 12 30  1  0
 12 31  1  0
 14 32  1  0
 15 33  1  0
 16 34  1  0
 17 35  1  0
 18 36  1  0
 19 37  1  0
 20 38  1  0
 20 39  1  0
 21 40  1  0
 21 41  1  0
 22 42  1  0
 22 43  1  0
 23 44  1  0
 23 45  1  0
 24 46  1  0
 24 47  1  0
M  CHG  1  11   1
M  END
>  <UniqueID>  (15) 
14

>  <SMILES>  (15) 
O=S(=O)(c1ccc(F)cc1)[N@H+](Cc1ccccc1)C1CCCCC1

>  <Energy>  (15) 
62.229740142029065

>  <Genealogy>  (15) 
O=S(=O)(c1ccc(F)cc1)[NH+](Cc1ccccc1)C1CCCCC1 (protonated)
O=S(=O)(c1ccc(F)cc1)[N@H+](Cc1ccccc1)C1CCCCC1 (chirality)
O=S(=O)(c1ccc(F)cc1)[N@H+](Cc1ccccc1)C1CCCCC1 (3D coordinates assigned)
O=S(=O)(c1ccc(F)cc1)[N@H+](Cc1ccccc1)C1CCCCC1 (nonaromatic ring conformer: 62.229740142029065 kcal/mol)

>  <smiles>  (15) 
O=S(=O)(c1ccc(F)cc1)N(Cc1ccccc1)C1CCCCC1

>  <score_type>  (15) 
oracle

>  <origin>  (15) 
adg

>  <m_score__min__energy>  (15) 
-6.7800000000000002

>  <m_primary>  (15) 
energy

$$$$
15:0
     RDKit          3D

 58 63  0  0  0  0  0  0  0  0999 V2000
   61.0750   28.1990   49.5670 O   0  0  0  0  0  0  0  0  0  0  0  0
   60.1700   28.5520   48.7620 C   0  0  0  0  0  0  0  0  0  0  0  0
   59.7360   29.9920   48.7740 C   0  0  0  0  0  0  0  0  0  0  0  0
   60.9230   30.9380   49.0540 C   0  0  0  0  0  0  0  0  0  0  0  0
   60.7010   32.2490   48.4000 N   0  0  0  0  0  0  0  0  0  0  0  0
   60.7950   32.1370   46.9160 C   0  0  0  0  0  0  0  0  0  0  0  0
   59.9500   33.1950   46.1960 C   0  0  0  0  0  0  0  0  0  0  0  0
   58.4480   32.9820   46.5150 C   0  0  0  0  0  0  0  0  0  0  0  0
   57.8160   31.9500   45.6030 C   0  0  0  0  0  0  0  0  0  0  0  0
   56.5300   31.9880   45.1720 N   0  0  0  0  0  0  0  0  0  0  0  0
   56.2900   30.8870   44.5160 O   0  0  0  0  0  0  0  0  0  0  0  0
   57.3540   30.1250   44.5170 C   0  0  0  0  0  0  0  0  0  0  0  0
   57.5070   28.8560   43.9650 C   0  0  0  0  0  0  0  0  0  0  0  0
   58.7640   28.2130   44.1280 C   0  0  0  0  0  0  0  0  0  0  0  0
   59.8010   28.8460   44.8480 C   0  0  0  0  0  0  0  0  0  0  0  0
   60.9910   28.2150   44.9930 F   0  0  0  0  0  0  0  0  0  0  0  0
   59.5990   30.1260   45.4150 C   0  0  0  0  0  0  0  0  0  0  0  0
   58.3570   30.7380   45.2140 C   0  0  0  0  0  0  0  0  0  0  0  0
   58.2320   32.6150   48.0060 C   0  0  0  0  0  0  0  0  0  0  0  0
   59.4600   32.9110   48.8860 C   0  0  0  0  0  0  0  0  0  0  0  0
   59.6000   27.5570   47.8260 C   0  0  0  0  0  0  0  0  0  0  0  0
   60.4420   26.5640   47.2480 C   0  0  0  0  0  0  0  0  0  0  0  0
   59.9250   25.5960   46.3820 C   0  0  0  0  0  0  0  0  0  0  0  0
   58.5510   25.6340   46.1140 C   0  0  0  0  0  0  0  0  0  0  0  0
   57.7170   26.5920   46.6690 C   0  0  0  0  0  0  0  0  0  0  0  0
   58.2190   27.5720   47.5160 C   0  0  0  0  0  0  0  0  0  0  0  0
   56.2670   26.3210   46.3570 C   0  0  0  0  0  0  0  0  0  0  0  0
   56.3920   25.0420   45.5750 C   0  0  0  0  0  0  0  0  0  0  0  0
   55.3580   24.2440   45.0570 C   0  0  0  0  0  0  0  0  0  0  0  0
   55.6970   23.0760   44.3470 C   0  0  0  0  0  0  0  0  0  0  0  0
   57.0490   22.7260   44.1650 C   0  0  0  0  0  0  0  0  0  0  0  0
   58.0760   23.5300   44.7040 C   0  0  0  0  0  0  0  0  0  0  0  0
   57.7190   24.6780   45.4110 C   0  0  0  0  0  0  0  0  0  0  0  0
   59.3023   30.2428   47.7947 H   0  0  0  0  0  0  0  0  0  0  0  0
   58.9942   30.1223   49.5757 H   0  0  0  0  0  0  0  0  0  0  0  0
   61.0209   31.0860   50.1396 H   0  0  0  0  0  0  0  0  0  0  0  0
   61.8421   30.4880   48.6507 H   0  0  0  0  0  0  0  0  0  0  0  0
   61.8465   32.2618   46.6181 H   0  0  0  0  0  0  0  0  0  0  0  0
   60.4099   31.1474   46.6289 H   0  0  0  0  0  0  0  0  0  0  0  0
   60.2555   34.1964   46.5334 H   0  0  0  0  0  0  0  0  0  0  0  0
   60.1049   33.1032   45.1108 H   0  0  0  0  0  0  0  0  0  0  0  0
   57.9415   33.9400   46.3260 H   0  0  0  0  0  0  0  0  0  0  0  0
   56.6841   28.3683   43.4219 H   0  0  0  0  0  0  0  0  0  0  0  0
   58.9300   27.2172   43.6911 H   0  0  0  0  0  0  0  0  0  0  0  0
   60.3911   30.6232   45.9941 H   0  0  0  0  0  0  0  0  0  0  0  0
   57.3792   33.1947   48.3890 H   0  0  0  0  0  0  0  0  0  0  0  0
   58.0487   31.5314   48.0533 H   0  0  0  0  0  0  0  0  0  0  0  0
   59.6261   33.9983   48.9005 H   0  0  0  0  0  0  0  0  0  0  0  0
   59.2477   32.5128   49.8892 H   0  0  0  0  0  0  0  0  0  0  0  0
   61.5158   26.5588   47.4868 H   0  0  0  0  0  0  0  0  0  0  0  0
   60.5736   24.8325   45.9278 H   0  0  0  0  0  0  0  0  0  0  0  0
   57.5573   28.3433   47.9369 H   0  0  0  0  0  0  0  0  0  0  0  0
   55.6734   26.1814   47.2725 H   0  0  0  0  0  0  0  0  0  0  0  0
   55.7512   27.1351   45.8267 H   0  0  0  0  0  0  0  0  0  0  0  0
   54.3048   24.5259   45.2031 H   0  0  0  0  0  0  0  0  0  0  0  0
   54.9040   22.4355   43.9336 H   0  0  0  0  0  0  0  0  0  0  0  0
   57.3065   21.8190   43.5984 H   0  0  0  0  0  0  0  0  0  0  0  0
   59.1332   23.2576   44.5697 H   0  0  0  0  0  0  0  0  0  0  0  0
  1  2  2  0
  2  3  1  0
  3  4  1  0
  4  5  1  0
  5  6  1  0
  6  7  1  0
  7  8  1  0
  8  9  1  0
  9 10  2  0
 10 11  1  0
 11 12  1  0
 12 13  2  0
 13 14  1  0
 14 15  2  0
 15 16  1  0
 15 17  1  0
 17 18  2  0
  8 19  1  0
 19 20  1  0
  2 21  1  0
 21 22  2  0
 22 23  1  0
 23 24  2  0
 24 25  1  0
 25 26  2  0
 25 27  1  0
 27 28  1  0
 28 29  2  0
 29 30  1  0
 30 31  2  0
 31 32  1  0
 32 33  2  0
 20  5  1  0
 26 21  1  0
 33 28  1  0
 18  9  1  0
 33 24  1  0
 18 12  1  0
  3 34  1  0
  3 35  1  0
  4 36  1  0
  4 37  1  0
  6 38  1  0
  6 39  1  0
  7 40  1  0
  7 41  1  0
  8 42  1  0
 13 43  1  0
 14 44  1  0
 17 45  1  0
 19 46  1  0
 19 47  1  0
 20 48  1  0
 20 49  1  0
 22 50  1  0
 23 51  1  0
 26 52  1  0
 27 53  1  0
 27 54  1  0
 29 55  1  0
 30 56  1  0
 31 57  1  0
 32 58  1  0
M  END
>  <UniqueID>  (16) 
15

>  <SMILES>  (16) 
O=C(CCN1CCC(c2noc3ccc(F)cc23)CC1)c1ccc2c(c1)Cc1ccccc1-2

>  <Energy>  (16) 
140.75669757674515

>  <Genealogy>  (16) 
O=C(CCN1CCC(c2noc3ccc(F)cc23)CC1)c1ccc2c(c1)Cc1ccccc1-2 (3D coordinates assigned)
O=C(CCN1CCC(c2noc3ccc(F)cc23)CC1)c1ccc2c(c1)Cc1ccccc1-2 (nonaromatic ring conformer: 140.75669757674515 kcal/mol)

>  <smiles>  (16) 
O=C(CCN1CCC(c2noc3ccc(F)cc23)CC1)c1ccc2c(c1)Cc1ccccc1-2

>  <score_type>  (16) 
oracle

>  <origin>  (16) 
adg

>  <m_score__min__energy>  (16) 
-11.289999999999999

>  <m_primary>  (16) 
energy

$$$$
16:0
     RDKit          3D

 36 38  0  0  0  0  0  0  0  0999 V2000
   57.1550   26.3200   45.7300 C   0  0  0  0  0  0  0  0  0  0  0  0
   57.0150   27.8020   45.5990 C   0  0  0  0  0  0  0  0  0  0  0  0
   55.8710   28.4150   45.2410 N   0  0  0  0  0  0  0  0  0  0  0  0
   56.0880   29.7200   45.1970 N   0  0  0  0  0  0  0  0  0  0  0  0
   57.3740   29.9560   45.5290 C   0  0  0  0  0  0  0  0  0  0  0  0
   57.9400   31.3160   45.6270 C   0  0  0  0  0  0  0  0  0  0  0  0
   58.2200   31.8660   46.8880 C   0  0  0  0  0  0  0  0  0  0  0  0
   58.7300   33.1640   46.9960 C   0  0  0  0  0  0  0  0  0  0  0  0
   58.9770   33.9180   45.8440 C   0  0  0  0  0  0  0  0  0  0  0  0
   59.6630   35.6940   45.9920 Br  0  0  0  0  0  0  0  0  0  0  0  0
   58.7270   33.3680   44.5830 C   0  0  0  0  0  0  0  0  0  0  0  0
   58.2200   32.0700   44.4730 C   0  0  0  0  0  0  0  0  0  0  0  0
   58.0090   28.7460   45.7820 C   0  0  0  0  0  0  0  0  0  0  0  0
   59.4320   28.4890   46.1010 C   0  0  0  0  0  0  0  0  0  0  0  0
   60.0580   27.6230   45.4320 O   0  0  0  0  0  0  0  0  0  0  0  0
   60.1400   29.2230   47.1760 C   0  0  0  0  0  0  0  0  0  0  0  0
   60.0210   28.8250   48.5160 C   0  0  0  0  0  0  0  0  0  0  0  0
   60.7150   29.5050   49.5190 C   0  0  0  0  0  0  0  0  0  0  0  0
   61.5290   30.5980   49.2060 C   0  0  0  0  0  0  0  0  0  0  0  0
   62.1470   31.2770   50.2570 O   0  0  0  0  0  0  0  0  0  0  0  0
   61.6720   31.0010   47.8570 C   0  0  0  0  0  0  0  0  0  0  0  0
   62.5570   32.0680   47.4800 N   0  0  0  0  0  0  0  0  0  0  0  0
   62.1610   32.9730   46.7180 O   0  0  0  0  0  0  0  0  0  0  0  0
   63.7510   32.2340   48.1430 O   0  0  0  0  0  0  0  0  0  0  0  0
   60.9530   30.3230   46.8590 C   0  0  0  0  0  0  0  0  0  0  0  0
   57.1808   26.0469   46.7952 H   0  0  0  0  0  0  0  0  0  0  0  0
   56.2995   25.8266   45.2456 H   0  0  0  0  0  0  0  0  0  0  0  0
   58.0878   25.9956   45.2456 H   0  0  0  0  0  0  0  0  0  0  0  0
   58.0373   31.2728   47.7962 H   0  0  0  0  0  0  0  0  0  0  0  0
   58.9370   33.5922   47.9878 H   0  0  0  0  0  0  0  0  0  0  0  0
   58.9295   33.9574   43.6766 H   0  0  0  0  0  0  0  0  0  0  0  0
   58.0390   31.6359   43.4786 H   0  0  0  0  0  0  0  0  0  0  0  0
   59.3773   27.9724   48.7781 H   0  0  0  0  0  0  0  0  0  0  0  0
   60.6205   29.1778   50.5649 H   0  0  0  0  0  0  0  0  0  0  0  0
   62.9500   31.8790   50.1310 H   0  0  0  0  0  0  0  0  0  0  0  0
   61.0279   30.6586   45.8141 H   0  0  0  0  0  0  0  0  0  0  0  0
  1  2  1  0
  2  3  1  0
  3  4  1  0
  4  5  2  0
  5  6  1  0
  6  7  2  0
  7  8  1  0
  8  9  2  0
  9 10  1  0
  9 11  1  0
 11 12  2  0
  5 13  1  0
 13 14  1  0
 14 15  2  0
 14 16  1  0
 16 17  2  0
 17 18  1  0
 18 19  2  0
 19 20  1  0
 19 21  1  0
 21 22  1  0
 22 23  2  0
 22 24  1  0
 21 25  2  0
 13  2  2  0
 25 16  1  0
 12  6  1  0
  1 26  1  0
  1 27  1  0
  1 28  1  0
  7 29  1  0
  8 30  1  0
 11 31  1  0
 12 32  1  0
 17 33  1  0
 18 34  1  0
 20 35  1  0
 25 36  1  0
M  CHG  3   3  -1  22   1  24  -1
M  END
>  <UniqueID>  (17) 
16

>  <SMILES>  (17) 
Cc1[n-]nc(-c2ccc(Br)cc2)c1C(=O)c1ccc(O)c([N+](=O)[O-])c1

>  <Energy>  (17) 
81.22769160601626

>  <Genealogy>  (17) 
Cc1[n-]nc(-c2ccc(Br)cc2)c1C(=O)c1ccc(O)c([N+](=O)[O-])c1 (protonated)
Cc1[n-]nc(-c2ccc(Br)cc2)c1C(=O)c1ccc(O)c([N+](=O)[O-])c1 (3D coordinates assigned)
Cc1[n-]nc(-c2ccc(Br)cc2)c1C(=O)c1ccc(O)c([N+](=O)[O-])c1 (optimized conformer: 81.22769160601626 kcal/mol)

>  <smiles>  (17) 
Cc1[nH]nc(-c2ccc(Br)cc2)c1C(=O)c1ccc(O)c([N+](=O)[O-])c1

>  <score_type>  (17) 
oracle

>  <origin>  (17) 
adg

>  <m_score__min__energy>  (17) 
-9.6699999999999999

>  <m_primary>  (17) 
energy

$$$$
17:0
     RDKit          3D

 16 15  0  0  0  0  0  0  0  0999 V2000
   59.2090   34.5890   46.1980 C   0  0  0  0  0  0  0  0  0  0  0  0
   58.5210   34.1930   44.8960 C   0  0  0  0  0  0  0  0  0  0  0  0
   57.3580   33.2290   45.1530 C   0  0  0  0  0  0  0  0  0  0  0  0
   57.4080   32.0350   44.1910 C   0  0  0  0  0  0  0  0  0  0  0  0
   57.0260   30.8010   44.8700 N   0  0  0  0  0  0  0  0  0  0  0  0
   56.0530   30.0840   44.4700 C   0  0  0  0  0  0  0  0  0  0  0  0
   55.1070   29.3880   44.0810 O   0  0  0  0  0  0  0  0  0  0  0  0
   58.6070   34.2425   47.0509 H   0  0  0  0  0  0  0  0  0  0  0  0
   60.2062   34.1267   46.2411 H   0  0  0  0  0  0  0  0  0  0  0  0
   59.3101   35.6835   46.2411 H   0  0  0  0  0  0  0  0  0  0  0  0
   58.1345   35.0983   44.4050 H   0  0  0  0  0  0  0  0  0  0  0  0
   59.2568   33.6867   44.2540 H   0  0  0  0  0  0  0  0  0  0  0  0
   57.4191   32.8598   46.1874 H   0  0  0  0  0  0  0  0  0  0  0  0
   56.4137   33.7693   44.9907 H   0  0  0  0  0  0  0  0  0  0  0  0
   56.7147   32.2160   43.3564 H   0  0  0  0  0  0  0  0  0  0  0  0
   58.4377   31.9267   43.8195 H   0  0  0  0  0  0  0  0  0  0  0  0
  1  2  1  0
  2  3  1  0
  3  4  1  0
  4  5  1  0
  5  6  2  0
  6  7  2  0
  1  8  1  0
  1  9  1  0
  1 10  1  0
  2 11  1  0
  2 12  1  0
  3 13  1  0
  3 14  1  0
  4 15  1  0
  4 16  1  0
M  END
>  <UniqueID>  (18) 
17

>  <SMILES>  (18) 
CCCCN=C=O

>  <Energy>  (18) 
3.415775040669862

>  <Genealogy>  (18) 
CCCCN=C=O (3D coordinates assigned)
CCCCN=C=O (optimized conformer: 3.415775040669862 kcal/mol)

>  <smiles>  (18) 
CCCCN=C=O

>  <score_type>  (18) 
oracle

>  <origin>  (18) 
adg

>  <m_score__min__energy>  (18) 
-3.4399999999999999

>  <m_primary>  (18) 
energy

$$$$
18:0
     RDKit          3D

 38 39  0  0  0  0  0  0  0  0999 V2000
   56.3700   25.6810   45.9290 C   0  0  0  0  0  0  0  0  0  0  0  0
   56.8160   27.0160   45.7130 O   0  0  0  0  0  0  0  0  0  0  0  0
   58.0340   27.5370   46.1790 C   0  0  0  0  0  0  0  0  0  0  0  0
   58.2920   27.6850   47.5580 C   0  0  0  0  0  0  0  0  0  0  0  0
   59.5080   28.2110   47.9990 C   0  0  0  0  0  0  0  0  0  0  0  0
   60.4800   28.5960   47.0760 C   0  0  0  0  0  0  0  0  0  0  0  0
   60.2400   28.4530   45.7080 C   0  0  0  0  0  0  0  0  0  0  0  0
   59.0240   27.9190   45.2460 C   0  0  0  0  0  0  0  0  0  0  0  0
   58.8140   27.7670   43.7530 C   0  0  0  0  0  0  0  0  0  0  0  0
   57.3950   27.9470   43.3680 N   0  0  0  0  0  0  0  0  0  0  0  0
   57.0220   29.3550   43.1370 C   0  0  0  0  0  0  0  0  0  0  0  0
   56.1920   29.9390   44.2580 C   0  0  0  0  0  0  0  0  0  0  0  0
   55.2430   29.2620   44.7360 O   0  0  0  0  0  0  0  0  0  0  0  0
   56.3170   31.3090   44.6630 N   0  0  0  0  0  0  0  0  0  0  0  0
   57.4370   31.9390   45.2990 C   0  0  0  0  0  0  0  0  0  0  0  0
   58.2350   31.1780   46.1640 C   0  0  0  0  0  0  0  0  0  0  0  0
   59.3640   31.7440   46.7660 C   0  0  0  0  0  0  0  0  0  0  0  0
   59.7170   33.0680   46.4880 C   0  0  0  0  0  0  0  0  0  0  0  0
   61.2620   33.8380   47.3050 Br  0  0  0  0  0  0  0  0  0  0  0  0
   58.9440   33.8230   45.6010 C   0  0  0  0  0  0  0  0  0  0  0  0
   57.8150   33.2580   44.9990 C   0  0  0  0  0  0  0  0  0  0  0  0
   56.3050   25.4865   47.0097 H   0  0  0  0  0  0  0  0  0  0  0  0
   55.3784   25.5472   45.4721 H   0  0  0  0  0  0  0  0  0  0  0  0
   57.0821   24.9781   45.4721 H   0  0  0  0  0  0  0  0  0  0  0  0
   57.5295   27.3838   48.2914 H   0  0  0  0  0  0  0  0  0  0  0  0
   59.6996   28.3219   49.0765 H   0  0  0  0  0  0  0  0  0  0  0  0
   61.4361   29.0125   47.4259 H   0  0  0  0  0  0  0  0  0  0  0  0
   61.0095   28.7610   44.9848 H   0  0  0  0  0  0  0  0  0  0  0  0
   59.4214   28.5210   43.2309 H   0  0  0  0  0  0  0  0  0  0  0  0
   59.1144   26.7470   43.4711 H   0  0  0  0  0  0  0  0  0  0  0  0
   56.7450   27.5100   44.0630 H   0  0  0  0  0  0  0  0  0  0  0  0
   57.2430   27.4390   42.4650 H   0  0  0  0  0  0  0  0  0  0  0  0
   57.9422   29.9492   43.0362 H   0  0  0  0  0  0  0  0  0  0  0  0
   56.4097   29.3871   42.2237 H   0  0  0  0  0  0  0  0  0  0  0  0
   57.9723   30.1300   46.3707 H   0  0  0  0  0  0  0  0  0  0  0  0
   59.9747   31.1466   47.4589 H   0  0  0  0  0  0  0  0  0  0  0  0
   59.2240   34.8627   45.3762 H   0  0  0  0  0  0  0  0  0  0  0  0
   57.2203   33.8494   44.2873 H   0  0  0  0  0  0  0  0  0  0  0  0
  1  2  1  0
  2  3  1  0
  3  4  2  0
  4  5  1  0
  5  6  2  0
  6  7  1  0
  7  8  2  0
  8  9  1  0
  9 10  1  0
 10 11  1  0
 11 12  1  0
 12 13  2  0
 12 14  1  0
 14 15  1  0
 15 16  2  0
 16 17  1  0
 17 18  2  0
 18 19  1  0
 18 20  1  0
 20 21  2  0
  8  3  1  0
 21 15  1  0
  1 22  1  0
  1 23  1  0
  1 24  1  0
  4 25  1  0
  5 26  1  0
  6 27  1  0
  7 28  1  0
  9 29  1  0
  9 30  1  0
 10 31  1  0
 10 32  1  0
 11 33  1  0
 11 34  1  0
 16 35  1  0
 17 36  1  0
 20 37  1  0
 21 38  1  0
M  CHG  2  10   1  14  -1
M  END
>  <UniqueID>  (19) 
18

>  <SMILES>  (19) 
COc1ccccc1C[NH2+]CC(=O)[N-]c1ccc(Br)cc1

>  <Energy>  (19) 
45.21752413556869

>  <Genealogy>  (19) 
COc1ccccc1C[NH2+]CC(=O)[N-]c1ccc(Br)cc1 (protonated)
COc1ccccc1C[NH2+]CC(=O)[N-]c1ccc(Br)cc1 (3D coordinates assigned)
COc1ccccc1C[NH2+]CC(=O)[N-]c1ccc(Br)cc1 (optimized conformer: 45.21752413556869 kcal/mol)

>  <smiles>  (19) 
COc1ccccc1CNCC(=O)Nc1ccc(Br)cc1

>  <score_type>  (19) 
oracle

>  <origin>  (19) 
adg

>  <m_score__min__energy>  (19) 
-7.5999999999999996

>  <m_primary>  (19) 
energy

$$$$
19:0
     RDKit          3D

 55 58  0  0  0  0  0  0  0  0999 V2000
   56.0620   29.0880   53.4620 C   0  0  0  0  0  0  0  0  0  0  0  0
   55.1640   30.2380   52.3720 S   0  0  0  0  0  0  0  0  0  0  0  0
   56.6560   31.0860   51.8590 C   0  0  0  0  0  0  0  0  0  0  0  0
   56.9510   32.3580   52.3580 C   0  0  0  0  0  0  0  0  0  0  0  0
   58.1450   32.9780   51.9830 C   0  0  0  0  0  0  0  0  0  0  0  0
   59.0430   32.3110   51.1390 C   0  0  0  0  0  0  0  0  0  0  0  0
   60.2610   32.9940   50.6760 C   0  0  0  0  0  0  0  0  0  0  0  0
   61.2100   33.2610   51.6210 N   0  0  0  0  0  0  0  0  0  0  0  0
   62.4020   33.8240   51.3010 C   0  0  0  0  0  0  0  0  0  0  0  0
   62.6780   34.1350   49.9770 C   0  0  0  0  0  0  0  0  0  0  0  0
   61.7460   33.8780   49.0280 N   0  0  0  0  0  0  0  0  0  0  0  0
   60.5370   33.3240   49.3140 C   0  0  0  0  0  0  0  0  0  0  0  0
   59.6790   33.1350   48.2090 O   0  0  0  0  0  0  0  0  0  0  0  0
   58.8400   34.0600   47.5130 C   0  0  0  0  0  0  0  0  0  0  0  0
   59.6910   34.7450   46.4220 C   0  0  0  0  0  0  0  0  0  0  0  0
   59.6460   33.9540   45.1120 C   0  0  0  0  0  0  0  0  0  0  0  0
   58.2750   33.9290   44.5550 N   0  0  0  0  0  0  0  0  0  0  0  0
   58.1040   32.9430   43.4660 C   0  0  0  0  0  0  0  0  0  0  0  0
   57.7040   31.5720   43.9580 C   0  0  0  0  0  0  0  0  0  0  0  0
   56.7120   30.8320   43.2970 C   0  0  0  0  0  0  0  0  0  0  0  0
   56.3850   29.5570   43.7610 C   0  0  0  0  0  0  0  0  0  0  0  0
   57.0390   29.0330   44.8760 C   0  0  0  0  0  0  0  0  0  0  0  0
   58.0100   29.8050   45.5270 C   0  0  0  0  0  0  0  0  0  0  0  0
   58.7500   29.2570   46.7050 C   0  0  0  0  0  0  0  0  0  0  0  0
   58.3190   31.0410   45.0510 N   0  0  0  0  0  0  0  0  0  0  0  0
   57.1830   33.9200   45.5620 C   0  0  0  0  0  0  0  0  0  0  0  0
   57.6230   33.3200   46.9060 C   0  0  0  0  0  0  0  0  0  0  0  0
   58.6610   31.0810   50.5840 C   0  0  0  0  0  0  0  0  0  0  0  0
   57.5000   30.4900   50.9730 N   0  0  0  0  0  0  0  0  0  0  0  0
   55.8608   29.3457   54.5123 H   0  0  0  0  0  0  0  0  0  0  0  0
   55.7259   28.0591   53.2660 H   0  0  0  0  0  0  0  0  0  0  0  0
   57.1417   29.1646   53.2660 H   0  0  0  0  0  0  0  0  0  0  0  0
   56.2508   32.8649   53.0383 H   0  0  0  0  0  0  0  0  0  0  0  0
   58.3801   33.9881   52.3496 H   0  0  0  0  0  0  0  0  0  0  0  0
   61.0320   33.0180   52.6220 H   0  0  0  0  0  0  0  0  0  0  0  0
   63.1445   34.0325   52.0854 H   0  0  0  0  0  0  0  0  0  0  0  0
   63.6430   34.5853   49.7011 H   0  0  0  0  0  0  0  0  0  0  0  0
   58.4453   34.8239   48.1991 H   0  0  0  0  0  0  0  0  0  0  0  0
   59.3000   35.7576   46.2441 H   0  0  0  0  0  0  0  0  0  0  0  0
   60.7341   34.7893   46.7683 H   0  0  0  0  0  0  0  0  0  0  0  0
   60.3218   34.4257   44.3835 H   0  0  0  0  0  0  0  0  0  0  0  0
   59.9607   32.9198   45.3158 H   0  0  0  0  0  0  0  0  0  0  0  0
   57.3242   33.3098   42.7824 H   0  0  0  0  0  0  0  0  0  0  0  0
   59.0781   32.8380   42.9659 H   0  0  0  0  0  0  0  0  0  0  0  0
   56.1967   31.2529   42.4210 H   0  0  0  0  0  0  0  0  0  0  0  0
   55.6122   28.9659   43.2478 H   0  0  0  0  0  0  0  0  0  0  0  0
   56.7949   28.0242   45.2403 H   0  0  0  0  0  0  0  0  0  0  0  0
   58.2748   29.6089   47.6326 H   0  0  0  0  0  0  0  0  0  0  0  0
   58.7253   28.1577   46.6745 H   0  0  0  0  0  0  0  0  0  0  0  0
   59.7943   29.6013   46.6745 H   0  0  0  0  0  0  0  0  0  0  0  0
   56.8506   34.9550   45.7303 H   0  0  0  0  0  0  0  0  0  0  0  0
   56.3710   33.2919   45.1669 H   0  0  0  0  0  0  0  0  0  0  0  0
   56.7827   33.3831   47.6130 H   0  0  0  0  0  0  0  0  0  0  0  0
   57.9209   32.2765   46.7258 H   0  0  0  0  0  0  0  0  0  0  0  0
   59.3011   30.5941   49.8335 H   0  0  0  0  0  0  0  0  0  0  0  0
  1  2  1  0
  2  3  1  0
  3  4  2  0
  4  5  1  0
  5  6  2  0
  6  7  1  0
  7  8  2  0
  8  9  1  0
  9 10  2  0
 10 11  1  0
 11 12  2  0
 12 13  1  0
 13 14  1  0
 14 15  1  0
 15 16  1  0
 16 17  1  0
 17 18  1  0
 18 19  1  0
 19 20  2  0
 20 21  1  0
 21 22  2  0
 22 23  1  0
 23 24  1  0
 23 25  2  0
 17 26  1  0
 26 27  1  0
  6 28  1  0
 28 29  2  0
 29  3  1  0
 12  7  1  0
 27 14  1  0
 25 19  1  0
  1 30  1  0
  1 31  1  0
  1 32  1  0
  4 33  1  0
  5 34  1  0
  8 35  1  0
  9 36  1  0
 10 37  1  0
 14 38  1  0
 15 39  1  0
 15 40  1  0
 16 41  1  0
 16 42  1  0
 18 43  1  0
 18 44  1  0
 20 45  1  0
 21 46  1  0
 22 47  1  0
 24 48  1  0
 24 49  1  0
 24 50  1  0
 26 51  1  0
 26 52  1  0
 27 53  1  0
 27 54  1  0
 28 55  1  0
M  CHG  1   8   1
M  END
>  <UniqueID>  (20) 
19

>  <SMILES>  (20) 
CSc1ccc(-c2[nH+]ccnc2OC2CCN(Cc3cccc(C)n3)CC2)cn1

>  <Energy>  (20) 
81.04348975832153

>  <Genealogy>  (20) 
CSc1ccc(-c2[nH+]ccnc2OC2CCN(Cc3cccc(C)n3)CC2)cn1 (protonated)
CSc1ccc(-c2[nH+]ccnc2OC2CCN(Cc3cccc(C)n3)CC2)cn1 (3D coordinates assigned)
CSc1ccc(-c2[nH+]ccnc2OC2CCN(Cc3cccc(C)n3)CC2)cn1 (nonaromatic ring conformer: 81.04348975832153 kcal/mol)

>  <smiles>  (20) 
CSc1ccc(-c2nccnc2OC2CCN(Cc3cccc(C)n3)CC2)cn1

>  <score_type>  (20) 
oracle

>  <origin>  (20) 
adg

>  <m_score__min__energy>  (20) 
-7.4100000000000001

>  <m_primary>  (20) 
energy

$$$$
20:0
     RDKit          3D

 45 48  0  0  0  0  0  0  0  0999 V2000
   66.8030   32.8300   50.4510 C   0  0  0  0  0  0  0  0  0  0  0  0
   65.6810   33.4720   49.8520 O   0  0  0  0  0  0  0  0  0  0  0  0
   64.5500   32.7990   49.3670 C   0  0  0  0  0  0  0  0  0  0  0  0
   64.1140   33.0820   48.0700 C   0  0  0  0  0  0  0  0  0  0  0  0
   62.9920   32.4390   47.5400 C   0  0  0  0  0  0  0  0  0  0  0  0
   62.2780   31.4960   48.3030 C   0  0  0  0  0  0  0  0  0  0  0  0
   61.1220   30.8410   47.7400 N   0  0  0  0  0  0  0  0  0  0  0  0
   60.5270   31.0810   46.5510 C   0  0  0  0  0  0  0  0  0  0  0  0
   59.4610   30.2080   46.4580 C   0  0  0  0  0  0  0  0  0  0  0  0
   58.5230   30.0670   45.3200 C   0  0  0  0  0  0  0  0  0  0  0  0
   58.3190   28.7910   44.7630 C   0  0  0  0  0  0  0  0  0  0  0  0
   57.4060   28.6070   43.7230 C   0  0  0  0  0  0  0  0  0  0  0  0
   56.6900   29.6920   43.2200 C   0  0  0  0  0  0  0  0  0  0  0  0
   56.8910   30.9680   43.7490 C   0  0  0  0  0  0  0  0  0  0  0  0
   57.8070   31.1730   44.7940 C   0  0  0  0  0  0  0  0  0  0  0  0
   58.0540   32.5110   45.2540 N   0  0  0  0  0  0  0  0  0  0  0  0
   57.7950   32.9350   46.6180 C   0  0  0  0  0  0  0  0  0  0  0  0
   58.1980   34.4010   46.6680 C   0  0  0  0  0  0  0  0  0  0  0  0
   59.1130   34.6230   45.4650 C   0  0  0  0  0  0  0  0  0  0  0  0
   58.8110   33.4900   44.4910 C   0  0  0  0  0  0  0  0  0  0  0  0
   59.4550   29.4620   47.5780 N   0  0  0  0  0  0  0  0  0  0  0  0
   60.4620   29.8590   48.3380 N   0  0  0  0  0  0  0  0  0  0  0  0
   62.7210   31.2110   49.6090 C   0  0  0  0  0  0  0  0  0  0  0  0
   63.8450   31.8560   50.1360 C   0  0  0  0  0  0  0  0  0  0  0  0
   66.7133   32.8813   51.5461 H   0  0  0  0  0  0  0  0  0  0  0  0
   66.8349   31.7770   50.1347 H   0  0  0  0  0  0  0  0  0  0  0  0
   67.7270   33.3361   50.1347 H   0  0  0  0  0  0  0  0  0  0  0  0
   64.6590   33.8178   47.4604 H   0  0  0  0  0  0  0  0  0  0  0  0
   62.6636   32.6722   46.5164 H   0  0  0  0  0  0  0  0  0  0  0  0
   60.8324   31.8269   45.8024 H   0  0  0  0  0  0  0  0  0  0  0  0
   58.8841   27.9305   45.1506 H   0  0  0  0  0  0  0  0  0  0  0  0
   57.2513   27.6036   43.2996 H   0  0  0  0  0  0  0  0  0  0  0  0
   55.9660   29.5426   42.4055 H   0  0  0  0  0  0  0  0  0  0  0  0
   56.3268   31.8209   43.3438 H   0  0  0  0  0  0  0  0  0  0  0  0
   56.7282   32.8205   46.8608 H   0  0  0  0  0  0  0  0  0  0  0  0
   58.3548   32.3314   47.3476 H   0  0  0  0  0  0  0  0  0  0  0  0
   57.3091   35.0451   46.5971 H   0  0  0  0  0  0  0  0  0  0  0  0
   58.7040   34.6495   47.6125 H   0  0  0  0  0  0  0  0  0  0  0  0
   58.9000   35.5956   44.9974 H   0  0  0  0  0  0  0  0  0  0  0  0
   60.1725   34.6277   45.7608 H   0  0  0  0  0  0  0  0  0  0  0  0
   58.2155   33.8604   43.6436 H   0  0  0  0  0  0  0  0  0  0  0  0
   59.7312   33.0569   44.0720 H   0  0  0  0  0  0  0  0  0  0  0  0
   58.8090   28.6800   47.8210 H   0  0  0  0  0  0  0  0  0  0  0  0
   62.1785   30.4747   50.2202 H   0  0  0  0  0  0  0  0  0  0  0  0
   64.1793   31.6242   51.1580 H   0  0  0  0  0  0  0  0  0  0  0  0
  1  2  1  0
  2  3  1  0
  3  4  2  0
  4  5  1  0
  5  6  2  0
  6  7  1  0
  7  8  1  0
  8  9  2  0
  9 10  1  0
 10 11  2  0
 11 12  1  0
 12 13  2  0
 13 14  1  0
 14 15  2  0
 15 16  1  0
 16 17  1  0
 17 18  1  0
 18 19  1  0
 19 20  1  0
  9 21  1  0
 21 22  2  0
  6 23  1  0
 23 24  2  0
 24  3  1  0
 22  7  1  0
 15 10  1  0
 20 16  1  0
  1 25  1  0
  1 26  1  0
  1 27  1  0
  4 28  1  0
  5 29  1  0
  8 30  1  0
 11 31  1  0
 12 32  1  0
 13 33  1  0
 14 34  1  0
 17 35  1  0
 17 36  1  0
 18 37  1  0
 18 38  1  0
 19 39  1  0
 19 40  1  0
 20 41  1  0
 20 42  1  0
 21 43  1  0
 23 44  1  0
 24 45  1  0
M  CHG  1  21   1
M  END
>  <UniqueID>  (21) 
20

>  <SMILES>  (21) 
COc1ccc(-n2cc(-c3ccccc3N3CCCC3)[nH+]n2)cc1

>  <Energy>  (21) 
94.72373410577549

>  <Genealogy>  (21) 
COc1ccc(-n2cc(-c3ccccc3N3CCCC3)[nH+]n2)cc1 (protonated)
COc1ccc(-n2cc(-c3ccccc3N3CCCC3)[nH+]n2)cc1 (3D coordinates assigned)
COc1ccc(-n2cc(-c3ccccc3N3CCCC3)[nH+]n2)cc1 (nonaromatic ring conformer: 94.72373410577549 kcal/mol)

>  <smiles>  (21) 
COc1ccc(-n2cc(-c3ccccc3N3CCCC3)nn2)cc1

>  <score_type>  (21) 
oracle

>  <origin>  (21) 
adg

>  <m_score__min__energy>  (21) 
-6.1200000000000001

>  <m_primary>  (21) 
energy

$$$$
21:0
     RDKit          3D

 15 15  0  0  0  0  0  0  0  0999 V2000
   56.6460   27.4610   45.6250 C   0  0  0  0  0  0  0  0  0  0  0  0
   55.8770   28.5800   45.2010 O   0  0  0  0  0  0  0  0  0  0  0  0
   56.4390   29.6780   44.5460 C   0  0  0  0  0  0  0  0  0  0  0  0
   56.3930   29.7430   43.1490 C   0  0  0  0  0  0  0  0  0  0  0  0
   56.9550   30.8420   42.4950 C   0  0  0  0  0  0  0  0  0  0  0  0
   57.5560   31.8590   43.2370 C   0  0  0  0  0  0  0  0  0  0  0  0
   57.5860   31.7630   44.6300 C   0  0  0  0  0  0  0  0  0  0  0  0
   57.0320   30.6850   45.2490 N   0  0  0  0  0  0  0  0  0  0  0  0
   56.6691   27.4273   46.7242 H   0  0  0  0  0  0  0  0  0  0  0  0
   56.1916   26.5365   45.2393 H   0  0  0  0  0  0  0  0  0  0  0  0
   57.6720   27.5538   45.2393 H   0  0  0  0  0  0  0  0  0  0  0  0
   55.9187   28.9361   42.5711 H   0  0  0  0  0  0  0  0  0  0  0  0
   56.9237   30.9053   41.3973 H   0  0  0  0  0  0  0  0  0  0  0  0
   58.0017   32.7276   42.7302 H   0  0  0  0  0  0  0  0  0  0  0  0
   58.0571   32.5582   45.2264 H   0  0  0  0  0  0  0  0  0  0  0  0
  1  2  1  0
  2  3  1  0
  3  4  2  0
  4  5  1  0
  5  6  2  0
  6  7  1  0
  7  8  2  0
  8  3  1  0
  1  9  1  0
  1 10  1  0
  1 11  1  0
  4 12  1  0
  5 13  1  0
  6 14  1  0
  7 15  1  0
M  END
>  <UniqueID>  (22) 
21

>  <SMILES>  (22) 
COc1ccccn1

>  <Energy>  (22) 
11.998698432413043

>  <Genealogy>  (22) 
COc1ccccn1 (3D coordinates assigned)
COc1ccccn1 (optimized conformer: 11.998698432413043 kcal/mol)

>  <smiles>  (22) 
COc1ccccn1

>  <score_type>  (22) 
oracle

>  <origin>  (22) 
adg

>  <m_score__min__energy>  (22) 
-4.2599999999999998

>  <m_primary>  (22) 
energy

$$$$
22:0
     RDKit          3D

 47 50  0  0  1  0  0  0  0  0999 V2000
   59.6520   34.9450   47.5180 C   0  0  0  0  0  0  0  0  0  0  0  0
   58.9100   34.9670   46.3000 O   0  0  0  0  0  0  0  0  0  0  0  0
   58.5070   33.7680   45.7310 C   0  0  0  0  0  0  0  0  0  0  0  0
   58.1690   32.6520   46.4670 C   0  0  0  0  0  0  0  0  0  0  0  0
   57.7820   31.5130   45.7670 C   0  0  0  0  0  0  0  0  0  0  0  0
   57.7310   31.4760   44.3940 C   0  0  0  0  0  0  0  0  0  0  0  0
   57.3210   30.2690   43.6340 C   0  0  0  0  0  0  0  0  0  0  0  0
   56.3590   29.3730   44.3860 C   0  0  0  0  0  0  0  0  0  0  0  0
   56.8000   28.7460   45.5390 N   0  0  0  0  0  0  0  0  0  0  0  0
   57.4360   27.7100   45.7260 C   0  0  0  0  0  0  0  0  0  0  0  0
   57.0550   26.5750   45.1080 N   0  0  0  0  0  0  0  0  0  0  0  0
   57.6950   25.4040   45.2120 C   0  0  0  0  0  0  0  0  0  0  0  0
   57.2830   24.1790   44.5440 C   0  0  0  0  0  0  0  0  0  0  0  0
   57.9170   22.9610   44.8240 C   0  0  0  0  0  0  0  0  0  0  0  0
   57.5420   21.7880   44.2020 C   0  0  0  0  0  0  0  0  0  0  0  0
   56.5300   21.7850   43.2860 N   0  0  0  0  0  0  0  0  0  0  0  0
   55.8950   22.9300   42.9890 C   0  0  0  0  0  0  0  0  0  0  0  0
   56.2710   24.1150   43.6140 C   0  0  0  0  0  0  0  0  0  0  0  0
   58.7900   25.3660   45.9860 N   0  0  0  0  0  0  0  0  0  0  0  0
   59.2000   26.4750   46.6190 C   0  0  0  0  0  0  0  0  0  0  0  0
   60.3290   26.3650   47.4020 C   0  0  0  0  0  0  0  0  0  0  0  0
   60.7290   27.5130   48.0480 C   0  0  0  0  0  0  0  0  0  0  0  0
   60.1050   28.7160   47.9710 C   0  0  0  0  0  0  0  0  0  0  0  0
   58.9490   28.8220   47.1670 C   0  0  0  0  0  0  0  0  0  0  0  0
   58.5500   27.6960   46.5260 C   0  0  0  0  0  0  0  0  0  0  0  0
   58.0730   32.6020   43.6750 C   0  0  0  0  0  0  0  0  0  0  0  0
   58.4610   33.7470   44.3350 C   0  0  0  0  0  0  0  0  0  0  0  0
   58.9575   34.9656   48.3708 H   0  0  0  0  0  0  0  0  0  0  0  0
   60.2587   34.0285   47.5612 H   0  0  0  0  0  0  0  0  0  0  0  0
   60.3120   35.8240   47.5612 H   0  0  0  0  0  0  0  0  0  0  0  0
   58.2039   32.6616   47.5664 H   0  0  0  0  0  0  0  0  0  0  0  0
   57.5072   30.6105   46.3326 H   0  0  0  0  0  0  0  0  0  0  0  0
   56.8361   30.5939   42.7016 H   0  0  0  0  0  0  0  0  0  0  0  0
   58.2318   29.6801   43.4506 H   0  0  0  0  0  0  0  0  0  0  0  0
   55.4916   29.9897   44.6639 H   0  0  0  0  0  0  0  0  0  0  0  0
   56.1635   28.5449   43.6888 H   0  0  0  0  0  0  0  0  0  0  0  0
   56.2050   26.5870   44.5010 H   0  0  0  0  0  0  0  0  0  0  0  0
   58.7351   22.9396   45.5590 H   0  0  0  0  0  0  0  0  0  0  0  0
   58.0616   20.8496   44.4457 H   0  0  0  0  0  0  0  0  0  0  0  0
   55.0782   22.9314   42.2522 H   0  0  0  0  0  0  0  0  0  0  0  0
   55.7362   25.0403   43.3534 H   0  0  0  0  0  0  0  0  0  0  0  0
   60.8774   25.4170   47.5045 H   0  0  0  0  0  0  0  0  0  0  0  0
   61.6282   27.4502   48.6784 H   0  0  0  0  0  0  0  0  0  0  0  0
   60.4904   29.5869   48.5214 H   0  0  0  0  0  0  0  0  0  0  0  0
   58.4002   29.7699   47.0659 H   0  0  0  0  0  0  0  0  0  0  0  0
   58.0360   32.5857   42.5757 H   0  0  0  0  0  0  0  0  0  0  0  0
   58.7348   34.6455   43.7624 H   0  0  0  0  0  0  0  0  0  0  0  0
  1  2  1  0
  2  3  1  0
  3  4  2  0
  4  5  1  0
  5  6  2  0
  6  7  1  0
  7  8  1  0
  8  9  1  0
  9 10  2  0
 10 11  1  0
 11 12  1  0
 12 13  1  0
 13 14  2  0
 14 15  1  0
 15 16  2  0
 16 17  1  0
 17 18  2  0
 12 19  2  0
 19 20  1  0
 20 21  2  0
 21 22  1  0
 22 23  2  0
 23 24  1  0
 24 25  2  0
  6 26  1  0
 26 27  2  0
 27  3  1  0
 25 10  1  0
 18 13  1  0
 25 20  1  0
  1 28  1  0
  1 29  1  0
  1 30  1  0
  4 31  1  0
  5 32  1  0
  7 33  1  0
  7 34  1  0
  8 35  1  0
  8 36  1  0
 11 37  1  0
 14 38  1  0
 15 39  1  0
 17 40  1  0
 18 41  1  0
 21 42  1  0
 22 43  1  0
 23 44  1  0
 24 45  1  0
 26 46  1  0
 27 47  1  0
M  END
>  <smiles>  (23) 
COc1ccc(CCN=c2[nH]c(-c3ccncc3)nc3ccccc23)cc1

>  <score_type>  (23) 
oracle

>  <origin>  (23) 
adg

>  <m_score__min__energy>  (23) 
-8.25

>  <m_primary>  (23) 
energy

$$$$
23:0
     RDKit          3D

 47 49  0  0  0  0  0  0  0  0999 V2000
   57.0420   21.4370   43.0320 C   0  0  0  0  0  0  0  0  0  0  0  0
   56.0000   22.2110   43.6160 O   0  0  0  0  0  0  0  0  0  0  0  0
   56.1790   23.4830   44.1810 C   0  0  0  0  0  0  0  0  0  0  0  0
   55.3300   23.9920   45.1820 C   0  0  0  0  0  0  0  0  0  0  0  0
   55.5510   25.2650   45.7150 C   0  0  0  0  0  0  0  0  0  0  0  0
   56.6330   26.0430   45.2670 C   0  0  0  0  0  0  0  0  0  0  0  0
   56.8760   27.3650   45.7680 N   0  0  0  0  0  0  0  0  0  0  0  0
   56.6870   28.5910   45.0480 C   0  0  0  0  0  0  0  0  0  0  0  0
   55.5220   29.0420   44.8760 O   0  0  0  0  0  0  0  0  0  0  0  0
   57.8290   29.3350   44.5660 N   0  0  0  0  0  0  0  0  0  0  0  0
   57.6390   30.5800   43.8000 C   0  0  0  0  0  0  0  0  0  0  0  0
   57.8900   31.7890   44.6660 C   0  0  0  0  0  0  0  0  0  0  0  0
   57.8250   31.6860   46.0660 C   0  0  0  0  0  0  0  0  0  0  0  0
   58.0070   32.8190   46.8660 C   0  0  0  0  0  0  0  0  0  0  0  0
   58.2630   34.0600   46.2750 C   0  0  0  0  0  0  0  0  0  0  0  0
   58.3440   34.1680   44.8850 C   0  0  0  0  0  0  0  0  0  0  0  0
   58.1620   33.0380   44.0810 C   0  0  0  0  0  0  0  0  0  0  0  0
   59.1950   28.8120   44.7440 C   0  0  0  0  0  0  0  0  0  0  0  0
   59.7110   29.1120   46.1300 C   0  0  0  0  0  0  0  0  0  0  0  0
   59.2420   28.3820   47.2360 C   0  0  0  0  0  0  0  0  0  0  0  0
   59.6840   28.6930   48.5250 C   0  0  0  0  0  0  0  0  0  0  0  0
   60.6010   29.7290   48.7210 C   0  0  0  0  0  0  0  0  0  0  0  0
   61.0830   30.4500   47.6270 C   0  0  0  0  0  0  0  0  0  0  0  0
   60.6450   30.1420   46.3350 C   0  0  0  0  0  0  0  0  0  0  0  0
   57.4600   25.5450   44.2550 C   0  0  0  0  0  0  0  0  0  0  0  0
   57.2410   24.2710   43.7220 C   0  0  0  0  0  0  0  0  0  0  0  0
   57.6520   20.9839   43.8273 H   0  0  0  0  0  0  0  0  0  0  0  0
   56.6041   20.6435   42.4087 H   0  0  0  0  0  0  0  0  0  0  0  0
   57.6752   22.0855   42.4087 H   0  0  0  0  0  0  0  0  0  0  0  0
   54.4884   23.3847   45.5465 H   0  0  0  0  0  0  0  0  0  0  0  0
   54.8756   25.6598   46.4882 H   0  0  0  0  0  0  0  0  0  0  0  0
   58.3405   30.5921   42.9528 H   0  0  0  0  0  0  0  0  0  0  0  0
   56.6003   30.6156   43.4397 H   0  0  0  0  0  0  0  0  0  0  0  0
   57.6302   30.7102   46.5348 H   0  0  0  0  0  0  0  0  0  0  0  0
   57.9487   32.7335   47.9611 H   0  0  0  0  0  0  0  0  0  0  0  0
   58.4006   34.9513   46.9049 H   0  0  0  0  0  0  0  0  0  0  0  0
   58.5514   35.1438   44.4215 H   0  0  0  0  0  0  0  0  0  0  0  0
   58.2320   33.1270   42.9868 H   0  0  0  0  0  0  0  0  0  0  0  0
   59.1862   27.7227   44.5911 H   0  0  0  0  0  0  0  0  0  0  0  0
   59.8554   29.2980   44.0107 H   0  0  0  0  0  0  0  0  0  0  0  0
   58.5239   27.5623   47.0863 H   0  0  0  0  0  0  0  0  0  0  0  0
   59.3093   28.1212   49.3867 H   0  0  0  0  0  0  0  0  0  0  0  0
   60.9429   29.9763   49.7368 H   0  0  0  0  0  0  0  0  0  0  0  0
   61.8088   31.2620   47.7815 H   0  0  0  0  0  0  0  0  0  0  0  0
   61.0332   30.7083   45.4756 H   0  0  0  0  0  0  0  0  0  0  0  0
   58.2891   26.1603   43.8755 H   0  0  0  0  0  0  0  0  0  0  0  0
   57.9078   23.8854   42.9367 H   0  0  0  0  0  0  0  0  0  0  0  0
  1  2  1  0
  2  3  1  0
  3  4  2  0
  4  5  1  0
  5  6  2  0
  6  7  1  0
  7  8  1  0
  8  9  2  0
  8 10  1  0
 10 11  1  0
 11 12  1  0
 12 13  2  0
 13 14  1  0
 14 15  2  0
 15 16  1  0
 16 17  2  0
 10 18  1  0
 18 19  1  0
 19 20  2  0
 20 21  1  0
 21 22  2  0
 22 23  1  0
 23 24  2  0
  6 25  1  0
 25 26  2  0
 26  3  1  0
 17 12  1  0
 24 19  1  0
  1 27  1  0
  1 28  1  0
  1 29  1  0
  4 30  1  0
  5 31  1  0
 11 32  1  0
 11 33  1  0
 13 34  1  0
 14 35  1  0
 15 36  1  0
 16 37  1  0
 17 38  1  0
 18 39  1  0
 18 40  1  0
 20 41  1  0
 21 42  1  0
 22 43  1  0
 23 44  1  0
 24 45  1  0
 25 46  1  0
 26 47  1  0
M  CHG  1   7  -1
M  END
>  <UniqueID>  (24) 
22

>  <SMILES>  (24) 
COc1ccc([N-]C(=O)N(Cc2ccccc2)Cc2ccccc2)cc1

>  <Energy>  (24) 
48.1731832355226

>  <Genealogy>  (24) 
COc1ccc([N-]C(=O)N(Cc2ccccc2)Cc2ccccc2)cc1 (protonated)
COc1ccc([N-]C(=O)N(Cc2ccccc2)Cc2ccccc2)cc1 (3D coordinates assigned)
COc1ccc([N-]C(=O)N(Cc2ccccc2)Cc2ccccc2)cc1 (optimized conformer: 48.1731832355226 kcal/mol)

>  <smiles>  (24) 
COc1ccc(NC(=O)N(Cc2ccccc2)Cc2ccccc2)cc1

>  <score_type>  (24) 
oracle

>  <origin>  (24) 
adg

>  <m_score__min__energy>  (24) 
-9.7400000000000002

>  <m_primary>  (24) 
energy

$$$$
24:0
     RDKit          3D

 42 43  0  0  0  0  0  0  0  0999 V2000
   56.2740   30.6490   52.3740 C   0  0  0  0  0  0  0  0  0  0  0  0
   57.4010   30.0930   51.6020 N   0  0  0  0  0  0  0  0  0  0  0  0
   58.4250   29.6010   52.5410 C   0  0  0  0  0  0  0  0  0  0  0  0
   57.9900   31.1110   50.7070 C   0  0  0  0  0  0  0  0  0  0  0  0
   59.4860   30.8690   50.4590 C   0  0  0  0  0  0  0  0  0  0  0  0
   60.2420   32.1370   50.3860 N   0  0  0  0  0  0  0  0  0  0  0  0
   61.7050   32.0850   50.5630 C   0  0  0  0  0  0  0  0  0  0  0  0
   62.4200   32.5260   49.3220 C   0  0  0  0  0  0  0  0  0  0  0  0
   62.7120   31.7290   48.2220 C   0  0  0  0  0  0  0  0  0  0  0  0
   63.3470   32.4270   47.1880 C   0  0  0  0  0  0  0  0  0  0  0  0
   63.5540   33.7710   47.4660 C   0  0  0  0  0  0  0  0  0  0  0  0
   62.9440   34.0900   49.0000 S   0  0  0  0  0  0  0  0  0  0  0  0
   59.5640   33.4170   50.4690 C   0  0  0  0  0  0  0  0  0  0  0  0
   58.9990   33.9730   51.9050 S   0  0  0  0  0  0  0  0  0  0  0  0
   59.6330   34.3470   49.3790 N   0  0  0  0  0  0  0  0  0  0  0  0
   59.2820   34.0000   48.0330 C   0  0  0  0  0  0  0  0  0  0  0  0
   58.5160   32.8560   47.7610 C   0  0  0  0  0  0  0  0  0  0  0  0
   58.1630   32.5370   46.4460 C   0  0  0  0  0  0  0  0  0  0  0  0
   58.5670   33.3650   45.3940 C   0  0  0  0  0  0  0  0  0  0  0  0
   58.1340   32.9600   43.7430 Cl  0  0  0  0  0  0  0  0  0  0  0  0
   59.3130   34.5180   45.6590 C   0  0  0  0  0  0  0  0  0  0  0  0
   59.6610   34.8400   46.9750 C   0  0  0  0  0  0  0  0  0  0  0  0
   56.4806   30.5471   53.4496 H   0  0  0  0  0  0  0  0  0  0  0  0
   56.1478   31.7128   52.1241 H   0  0  0  0  0  0  0  0  0  0  0  0
   55.3530   30.1019   52.1241 H   0  0  0  0  0  0  0  0  0  0  0  0
   58.0842   29.7647   53.5740 H   0  0  0  0  0  0  0  0  0  0  0  0
   58.5886   28.5260   52.3749 H   0  0  0  0  0  0  0  0  0  0  0  0
   59.3665   30.1451   52.3749 H   0  0  0  0  0  0  0  0  0  0  0  0
   57.4619   31.0830   49.7425 H   0  0  0  0  0  0  0  0  0  0  0  0
   57.8825   32.0916   51.1937 H   0  0  0  0  0  0  0  0  0  0  0  0
   59.8896   30.2606   51.2818 H   0  0  0  0  0  0  0  0  0  0  0  0
   59.5935   30.3506   49.4948 H   0  0  0  0  0  0  0  0  0  0  0  0
   61.9890   32.7468   51.3944 H   0  0  0  0  0  0  0  0  0  0  0  0
   61.9918   31.0450   50.7777 H   0  0  0  0  0  0  0  0  0  0  0  0
   62.4687   30.6575   48.1690 H   0  0  0  0  0  0  0  0  0  0  0  0
   63.6534   31.9544   46.2432 H   0  0  0  0  0  0  0  0  0  0  0  0
   64.0342   34.5013   46.7981 H   0  0  0  0  0  0  0  0  0  0  0  0
   59.9440   35.3250   49.5770 H   0  0  0  0  0  0  0  0  0  0  0  0
   58.1913   32.2063   48.5871 H   0  0  0  0  0  0  0  0  0  0  0  0
   57.5679   31.6353   46.2393 H   0  0  0  0  0  0  0  0  0  0  0  0
   59.6263   35.1721   44.8319 H   0  0  0  0  0  0  0  0  0  0  0  0
   60.2343   35.7558   47.1813 H   0  0  0  0  0  0  0  0  0  0  0  0
  1  2  1  0
  2  3  1  0
  2  4  1  0
  4  5  1  0
  5  6  1  0
  6  7  1  0
  7  8  1  0
  8  9  2  0
  9 10  1  0
 10 11  2  0
 11 12  1  0
  6 13  1  0
 13 14  2  0
 13 15  1  0
 15 16  1  0
 16 17  2  0
 17 18  1  0
 18 19  2  0
 19 20  1  0
 19 21  1  0
 21 22  2  0
 12  8  1  0
 22 16  1  0
  1 23  1  0
  1 24  1  0
  1 25  1  0
  3 26  1  0
  3 27  1  0
  3 28  1  0
  4 29  1  0
  4 30  1  0
  5 31  1  0
  5 32  1  0
  7 33  1  0
  7 34  1  0
  9 35  1  0
 10 36  1  0
 11 37  1  0
 15 38  1  0
 17 39  1  0
 18 40  1  0
 21 41  1  0
 22 42  1  0
M  END
>  <UniqueID>  (25) 
23

>  <SMILES>  (25) 
CN(C)CCN(Cc1cccs1)C(=S)Nc1ccc(Cl)cc1

>  <Energy>  (25) 
70.11145999503051

>  <Genealogy>  (25) 
CN(C)CCN(Cc1cccs1)C(=S)Nc1ccc(Cl)cc1 (3D coordinates assigned)
CN(C)CCN(Cc1cccs1)C(=S)Nc1ccc(Cl)cc1 (optimized conformer: 70.11145999503051 kcal/mol)

>  <smiles>  (25) 
CN(C)CCN(Cc1cccs1)C(=S)Nc1ccc(Cl)cc1

>  <score_type>  (25) 
oracle

>  <origin>  (25) 
adg

>  <m_score__min__energy>  (25) 
-6.96

>  <m_primary>  (25) 
energy

$$$$
25:0
     RDKit          3D

 79 84  0  0  0  0  0  0  0  0999 V2000
   60.7040   27.7120   46.0670 C   0  0  0  0  0  0  0  0  0  0  0  0
   60.1500   28.9040   46.7600 C   0  0  0  0  0  0  0  0  0  0  0  0
   59.7490   30.0450   46.1080 C   0  0  0  0  0  0  0  0  0  0  0  0
   59.2310   31.1520   46.7890 C   0  0  0  0  0  0  0  0  0  0  0  0
   58.8200   32.3490   46.0670 C   0  0  0  0  0  0  0  0  0  0  0  0
   59.4330   33.5580   46.2970 C   0  0  0  0  0  0  0  0  0  0  0  0
   60.4910   33.7370   47.2350 N   0  0  0  0  0  0  0  0  0  0  0  0
   60.3280   34.3060   48.5430 C   0  0  0  0  0  0  0  0  0  0  0  0
   61.0180   33.4460   49.6260 C   0  0  0  0  0  0  0  0  0  0  0  0
   62.3310   33.0470   49.1390 C   0  0  0  0  0  0  0  0  0  0  0  0
   63.3010   32.4210   49.9930 C   0  0  0  0  0  0  0  0  0  0  0  0
   64.6040   32.8620   50.0890 N   0  0  0  0  0  0  0  0  0  0  0  0
   65.2980   32.1280   50.9500 C   0  0  0  0  0  0  0  0  0  0  0  0
   66.7060   32.3500   51.2690 C   0  0  0  0  0  0  0  0  0  0  0  0
   67.2730   31.5380   52.2320 C   0  0  0  0  0  0  0  0  0  0  0  0
   68.6020   31.6880   52.5900 C   0  0  0  0  0  0  0  0  0  0  0  0
   69.3560   32.6720   51.9630 C   0  0  0  0  0  0  0  0  0  0  0  0
   68.7840   33.4830   51.0010 C   0  0  0  0  0  0  0  0  0  0  0  0
   67.4420   33.3410   50.6300 C   0  0  0  0  0  0  0  0  0  0  0  0
   64.4470   31.2030   51.4180 N   0  0  0  0  0  0  0  0  0  0  0  0
   63.2380   31.3780   50.8400 N   0  0  0  0  0  0  0  0  0  0  0  0
   62.1260   30.5590   51.1290 C   0  0  0  0  0  0  0  0  0  0  0  0
   61.0550   31.2990   51.9140 C   0  0  0  0  0  0  0  0  0  0  0  0
   59.7210   30.8900   51.4980 N   0  0  0  0  0  0  0  0  0  0  0  0
   59.3050   29.8760   52.4520 C   0  0  0  0  0  0  0  0  0  0  0  0
   57.9830   29.3420   51.9420 C   0  0  0  0  0  0  0  0  0  0  0  0
   57.0260   30.3840   52.0010 N   0  0  0  0  0  0  0  0  0  0  0  0
   56.0730   30.3380   53.0570 C   0  0  0  0  0  0  0  0  0  0  0  0
   57.3760   31.6490   51.4900 C   0  0  0  0  0  0  0  0  0  0  0  0
   58.8240   32.0150   51.4690 C   0  0  0  0  0  0  0  0  0  0  0  0
   62.2200   32.2510   47.8270 C   0  0  0  0  0  0  0  0  0  0  0  0
   61.8160   33.2940   46.7760 C   0  0  0  0  0  0  0  0  0  0  0  0
   59.0040   34.6280   45.5980 N   0  0  0  0  0  0  0  0  0  0  0  0
   58.0090   34.5840   44.6860 C   0  0  0  0  0  0  0  0  0  0  0  0
   57.4220   33.3890   44.4740 N   0  0  0  0  0  0  0  0  0  0  0  0
   57.7990   32.2690   45.1390 C   0  0  0  0  0  0  0  0  0  0  0  0
   57.2110   31.1360   44.9100 N   0  0  0  0  0  0  0  0  0  0  0  0
   59.1490   31.0220   48.1590 C   0  0  0  0  0  0  0  0  0  0  0  0
   59.5410   29.8930   48.8420 C   0  0  0  0  0  0  0  0  0  0  0  0
   60.0530   28.8070   48.1510 C   0  0  0  0  0  0  0  0  0  0  0  0
   60.4390   27.6950   48.8130 F   0  0  0  0  0  0  0  0  0  0  0  0
   61.0445   26.9793   46.8134 H   0  0  0  0  0  0  0  0  0  0  0  0
   59.9243   27.2586   45.4373 H   0  0  0  0  0  0  0  0  0  0  0  0
   61.5533   28.0157   45.4373 H   0  0  0  0  0  0  0  0  0  0  0  0
   59.8383   30.0897   45.0125 H   0  0  0  0  0  0  0  0  0  0  0  0
   60.7696   35.3134   48.5519 H   0  0  0  0  0  0  0  0  0  0  0  0
   59.2523   34.3473   48.7693 H   0  0  0  0  0  0  0  0  0  0  0  0
   61.1285   34.0328   50.5498 H   0  0  0  0  0  0  0  0  0  0  0  0
   60.4106   32.5541   49.8396 H   0  0  0  0  0  0  0  0  0  0  0  0
   62.7710   34.0488   49.0263 H   0  0  0  0  0  0  0  0  0  0  0  0
   66.6621   30.7640   52.7196 H   0  0  0  0  0  0  0  0  0  0  0  0
   69.0524   31.0402   53.3565 H   0  0  0  0  0  0  0  0  0  0  0  0
   70.4137   32.8064   52.2335 H   0  0  0  0  0  0  0  0  0  0  0  0
   69.3970   34.2571   50.5163 H   0  0  0  0  0  0  0  0  0  0  0  0
   66.9883   33.9872   49.8641 H   0  0  0  0  0  0  0  0  0  0  0  0
   61.6908   30.2060   50.1825 H   0  0  0  0  0  0  0  0  0  0  0  0
   62.4771   29.7192   51.7467 H   0  0  0  0  0  0  0  0  0  0  0  0
   61.1797   31.0808   52.9849 H   0  0  0  0  0  0  0  0  0  0  0  0
   61.1647   32.3767   51.7228 H   0  0  0  0  0  0  0  0  0  0  0  0
   60.0503   29.0684   52.5011 H   0  0  0  0  0  0  0  0  0  0  0  0
   59.2080   30.2916   53.4658 H   0  0  0  0  0  0  0  0  0  0  0  0
   58.0966   29.0007   50.9025 H   0  0  0  0  0  0  0  0  0  0  0  0
   57.6552   28.4931   52.5600 H   0  0  0  0  0  0  0  0  0  0  0  0
   56.5961   30.3632   54.0243 H   0  0  0  0  0  0  0  0  0  0  0  0
   55.3999   31.2047   52.9814 H   0  0  0  0  0  0  0  0  0  0  0  0
   55.4865   29.4105   52.9814 H   0  0  0  0  0  0  0  0  0  0  0  0
   57.0104   31.6969   50.4537 H   0  0  0  0  0  0  0  0  0  0  0  0
   56.9190   32.3660   52.1880 H   0  0  0  0  0  0  0  0  0  0  0  0
   59.0208   32.5886   50.5513 H   0  0  0  0  0  0  0  0  0  0  0  0
   59.0154   32.5934   52.3849 H   0  0  0  0  0  0  0  0  0  0  0  0
   63.1856   31.7922   47.5680 H   0  0  0  0  0  0  0  0  0  0  0  0
   61.4945   31.4272   47.8983 H   0  0  0  0  0  0  0  0  0  0  0  0
   62.5280   34.1323   46.7581 H   0  0  0  0  0  0  0  0  0  0  0  0
   61.8061   32.8931   45.7517 H   0  0  0  0  0  0  0  0  0  0  0  0
   57.6912   35.4843   44.1397 H   0  0  0  0  0  0  0  0  0  0  0  0
   56.6520   33.3690   43.7620 H   0  0  0  0  0  0  0  0  0  0  0  0
   56.2250   31.0360   45.2370 H   0  0  0  0  0  0  0  0  0  0  0  0
   58.7483   31.8670   48.7382 H   0  0  0  0  0  0  0  0  0  0  0  0
   59.4476   29.8531   49.9373 H   0  0  0  0  0  0  0  0  0  0  0  0
  1  2  1  0
  2  3  2  0
  3  4  1  0
  4  5  1  0
  5  6  2  0
  6  7  1  0
  7  8  1  0
  8  9  1  0
  9 10  1  0
 10 11  1  0
 11 12  2  0
 12 13  1  0
 13 14  1  0
 14 15  2  0
 15 16  1  0
 16 17  2  0
 17 18  1  0
 18 19  2  0
 13 20  2  0
 20 21  1  0
 21 22  1  0
 22 23  1  0
 23 24  1  0
 24 25  1  0
 25 26  1  0
 26 27  1  0
 27 28  1  0
 27 29  1  0
 29 30  1  0
 10 31  1  0
 31 32  1  0
  6 33  1  0
 33 34  2  0
 34 35  1  0
 35 36  1  0
 36 37  2  3
  4 38  2  0
 38 39  1  0
 39 40  2  0
 40 41  1  0
 40  2  1  0
 36  5  1  0
 32  7  1  0
 21 11  1  0
 30 24  1  0
 19 14  1  0
  1 42  1  0
  1 43  1  0
  1 44  1  0
  3 45  1  0
  8 46  1  0
  8 47  1  0
  9 48  1  0
  9 49  1  0
 10 50  1  0
 15 51  1  0
 16 52  1  0
 17 53  1  0
 18 54  1  0
 19 55  1  0
 22 56  1  0
 22 57  1  0
 23 58  1  0
 23 59  1  0
 25 60  1  0
 25 61  1  0
 26 62  1  0
 26 63  1  0
 28 64  1  0
 28 65  1  0
 28 66  1  0
 29 67  1  0
 29 68  1  0
 30 69  1  0
 30 70  1  0
 31 71  1  0
 31 72  1  0
 32 73  1  0
 32 74  1  0
 34 75  1  0
 35 76  1  0
 37 77  1  0
 38 78  1  0
 39 79  1  0
M  END
>  <smiles>  (26) 
Cc1cc(-c2c(N3CCC(c4nc(-c5ccccc5)nn4CCN4CCN(C)CC4)CC3)nc[nH]c2=N)ccc1F

>  <score_type>  (26) 
oracle

>  <origin>  (26) 
adg

>  <m_score__min__energy>  (26) 
-11.01

>  <m_primary>  (26) 
energy

$$$$
26:0
     RDKit          3D

 31 32  0  0  0  0  0  0  0  0999 V2000
   57.0190   31.1180   42.7520 C   0  0  0  0  0  0  0  0  0  0  0  0
   56.3420   29.7500   42.7280 C   0  0  0  0  0  0  0  0  0  0  0  0
   55.1440   29.7120   43.6740 C   0  0  0  0  0  0  0  0  0  0  0  0
   55.5680   29.2280   44.9820 N   0  0  0  0  0  0  0  0  0  0  0  0
   56.9270   29.1640   45.4340 C   0  0  0  0  0  0  0  0  0  0  0  0
   57.4310   30.1800   45.9810 O   0  0  0  0  0  0  0  0  0  0  0  0
   57.7840   27.9380   45.2480 C   0  0  0  0  0  0  0  0  0  0  0  0
   57.4790   26.8750   46.3080 C   0  0  0  0  0  0  0  0  0  0  0  0
   56.4220   25.9710   45.8570 N   0  0  0  0  0  0  0  0  0  0  0  0
   55.1430   26.0600   46.2210 N   0  0  0  0  0  0  0  0  0  0  0  0
   54.4290   25.0530   45.7180 N   0  0  0  0  0  0  0  0  0  0  0  0
   55.3070   24.3120   45.0210 C   0  0  0  0  0  0  0  0  0  0  0  0
   55.0710   23.1500   44.3670 N   0  0  0  0  0  0  0  0  0  0  0  0
   56.1240   22.5200   43.7570 C   0  0  0  0  0  0  0  0  0  0  0  0
   57.4300   23.0670   43.8240 C   0  0  0  0  0  0  0  0  0  0  0  0
   57.6510   24.2720   44.5190 C   0  0  0  0  0  0  0  0  0  0  0  0
   56.5400   24.8690   45.1030 C   0  0  0  0  0  0  0  0  0  0  0  0
   57.1744   31.4320   43.7947 H   0  0  0  0  0  0  0  0  0  0  0  0
   57.9902   31.0555   42.2393 H   0  0  0  0  0  0  0  0  0  0  0  0
   56.3803   31.8523   42.2393 H   0  0  0  0  0  0  0  0  0  0  0  0
   55.9986   29.5372   41.7049 H   0  0  0  0  0  0  0  0  0  0  0  0
   57.0705   28.9942   43.0568 H   0  0  0  0  0  0  0  0  0  0  0  0
   54.7262   30.7244   43.7762 H   0  0  0  0  0  0  0  0  0  0  0  0
   54.3778   29.0366   43.2657 H   0  0  0  0  0  0  0  0  0  0  0  0
   57.5911   27.5147   44.2512 H   0  0  0  0  0  0  0  0  0  0  0  0
   58.8383   28.2347   45.3496 H   0  0  0  0  0  0  0  0  0  0  0  0
   58.3907   26.2920   46.5050 H   0  0  0  0  0  0  0  0  0  0  0  0
   57.1390   27.3814   47.2234 H   0  0  0  0  0  0  0  0  0  0  0  0
   55.9542   21.5808   43.2101 H   0  0  0  0  0  0  0  0  0  0  0  0
   58.2692   22.5514   43.3342 H   0  0  0  0  0  0  0  0  0  0  0  0
   58.6534   24.7185   44.5958 H   0  0  0  0  0  0  0  0  0  0  0  0
  1  2  1  0
  2  3  1  0
  3  4  1  0
  4  5  1  0
  5  6  2  0
  5  7  1  0
  7  8  1  0
  8  9  1  0
  9 10  1  0
 10 11  2  0
 11 12  1  0
 12 13  2  0
 13 14  1  0
 14 15  2  0
 15 16  1  0
 16 17  2  0
 17  9  1  0
 17 12  1  0
  1 18  1  0
  1 19  1  0
  1 20  1  0
  2 21  1  0
  2 22  1  0
  3 23  1  0
  3 24  1  0
  7 25  1  0
  7 26  1  0
  8 27  1  0
  8 28  1  0
 14 29  1  0
 15 30  1  0
 16 31  1  0
M  CHG  1   4  -1
M  END
>  <UniqueID>  (27) 
24

>  <SMILES>  (27) 
CCC[N-]C(=O)CCn1nnc2ncccc21

>  <Energy>  (27) 
66.14465852741375

>  <Genealogy>  (27) 
CCC[N-]C(=O)CCn1nnc2ncccc21 (protonated)
CCC[N-]C(=O)CCn1nnc2ncccc21 (3D coordinates assigned)
CCC[N-]C(=O)CCn1nnc2ncccc21 (optimized conformer: 66.14465852741375 kcal/mol)

>  <smiles>  (27) 
CCCNC(=O)CCn1nnc2ncccc21

>  <score_type>  (27) 
oracle

>  <origin>  (27) 
adg

>  <m_score__min__energy>  (27) 
-8.3499999999999996

>  <m_primary>  (27) 
energy

$$$$
27:0
     RDKit          3D

 47 48  0  0  0  0  0  0  0  0999 V2000
   63.2780   33.7710   46.7270 C   0  0  0  0  0  0  0  0  0  0  0  0
   61.7770   33.7150   46.9960 C   0  0  0  0  0  0  0  0  0  0  0  0
   61.2070   32.2900   46.8710 C   0  0  0  0  0  0  0  0  0  0  0  0
   59.7950   32.1840   47.2860 N   0  0  0  0  0  0  0  0  0  0  0  0
   59.3470   32.9790   48.4400 C   0  0  0  0  0  0  0  0  0  0  0  0
   58.5640   32.1300   49.4450 C   0  0  0  0  0  0  0  0  0  0  0  0
   59.0040   30.6670   49.4240 C   0  0  0  0  0  0  0  0  0  0  0  0
   58.8040   31.8580   46.2970 C   0  0  0  0  0  0  0  0  0  0  0  0
   57.9060   32.7190   45.6760 C   0  0  0  0  0  0  0  0  0  0  0  0
   57.7700   34.1970   45.8990 C   0  0  0  0  0  0  0  0  0  0  0  0
   58.9970   34.9450   45.3870 C   0  0  0  0  0  0  0  0  0  0  0  0
   57.0900   32.0100   44.8550 N   0  0  0  0  0  0  0  0  0  0  0  0
   57.5300   30.7380   44.9850 C   0  0  0  0  0  0  0  0  0  0  0  0
   57.0210   29.6110   44.3400 C   0  0  0  0  0  0  0  0  0  0  0  0
   55.8880   29.7120   43.3610 C   0  0  0  0  0  0  0  0  0  0  0  0
   57.6520   28.3830   44.6090 C   0  0  0  0  0  0  0  0  0  0  0  0
   58.7450   28.3280   45.5020 C   0  0  0  0  0  0  0  0  0  0  0  0
   59.3950   27.0150   45.8190 C   0  0  0  0  0  0  0  0  0  0  0  0
   59.1690   29.4730   46.1160 N   0  0  0  0  0  0  0  0  0  0  0  0
   58.5550   30.6230   45.8390 N   0  0  0  0  0  0  0  0  0  0  0  0
   63.8214   33.7913   47.6832 H   0  0  0  0  0  0  0  0  0  0  0  0
   63.5808   32.8835   46.1519 H   0  0  0  0  0  0  0  0  0  0  0  0
   63.5138   34.6786   46.1519 H   0  0  0  0  0  0  0  0  0  0  0  0
   61.5876   34.0823   48.0154 H   0  0  0  0  0  0  0  0  0  0  0  0
   61.2791   34.3410   46.2409 H   0  0  0  0  0  0  0  0  0  0  0  0
   61.2861   31.9740   45.8203 H   0  0  0  0  0  0  0  0  0  0  0  0
   61.7921   31.6465   47.5445 H   0  0  0  0  0  0  0  0  0  0  0  0
   60.2279   33.4043   48.9431 H   0  0  0  0  0  0  0  0  0  0  0  0
   58.6812   33.7730   48.0708 H   0  0  0  0  0  0  0  0  0  0  0  0
   58.7263   32.5352   50.4547 H   0  0  0  0  0  0  0  0  0  0  0  0
   57.5005   32.1689   49.1668 H   0  0  0  0  0  0  0  0  0  0  0  0
   59.1137   30.3023   50.4560 H   0  0  0  0  0  0  0  0  0  0  0  0
   58.2475   30.0641   48.9005 H   0  0  0  0  0  0  0  0  0  0  0  0
   59.9676   30.5814   48.9005 H   0  0  0  0  0  0  0  0  0  0  0  0
   56.8793   34.5603   45.3655 H   0  0  0  0  0  0  0  0  0  0  0  0
   57.6750   34.3800   46.9795 H   0  0  0  0  0  0  0  0  0  0  0  0
   59.5891   35.3060   46.2409 H   0  0  0  0  0  0  0  0  0  0  0  0
   59.6108   34.2673   44.7755 H   0  0  0  0  0  0  0  0  0  0  0  0
   58.6758   35.8011   44.7755 H   0  0  0  0  0  0  0  0  0  0  0  0
   54.9373   29.7967   43.9079 H   0  0  0  0  0  0  0  0  0  0  0  0
   56.0279   30.6012   42.7288 H   0  0  0  0  0  0  0  0  0  0  0  0
   55.8684   28.8120   42.7288 H   0  0  0  0  0  0  0  0  0  0  0  0
   57.2935   27.4636   44.1229 H   0  0  0  0  0  0  0  0  0  0  0  0
   59.4567   26.8904   46.9102 H   0  0  0  0  0  0  0  0  0  0  0  0
   58.7977   26.1971   45.3897 H   0  0  0  0  0  0  0  0  0  0  0  0
   60.4076   26.9940   45.3897 H   0  0  0  0  0  0  0  0  0  0  0  0
   59.9730   29.4490   46.7830 H   0  0  0  0  0  0  0  0  0  0  0  0
  1  2  1  0
  2  3  1  0
  3  4  1  0
  4  5  1  0
  5  6  1  0
  6  7  1  0
  4  8  1  0
  8  9  2  0
  9 10  1  0
 10 11  1  0
  9 12  1  0
 12 13  2  0
 13 14  1  0
 14 15  1  0
 14 16  2  0
 16 17  1  0
 17 18  1  0
 17 19  2  0
 19 20  1  0
 20  8  1  0
 20 13  1  0
  1 21  1  0
  1 22  1  0
  1 23  1  0
  2 24  1  0
  2 25  1  0
  3 26  1  0
  3 27  1  0
  5 28  1  0
  5 29  1  0
  6 30  1  0
  6 31  1  0
  7 32  1  0
  7 33  1  0
  7 34  1  0
 10 35  1  0
 10 36  1  0
 11 37  1  0
 11 38  1  0
 11 39  1  0
 15 40  1  0
 15 41  1  0
 15 42  1  0
 16 43  1  0
 18 44  1  0
 18 45  1  0
 18 46  1  0
 19 47  1  0
M  CHG  1  19   1
M  END
>  <UniqueID>  (28) 
25

>  <SMILES>  (28) 
CCCN(CCC)c1c(CC)nc2c(C)cc(C)[nH+]n12

>  <Energy>  (28) 
74.48473230174217

>  <Genealogy>  (28) 
CCCN(CCC)c1c(CC)nc2c(C)cc(C)[nH+]n12 (protonated)
CCCN(CCC)c1c(CC)nc2c(C)cc(C)[nH+]n12 (3D coordinates assigned)
CCCN(CCC)c1c(CC)nc2c(C)cc(C)[nH+]n12 (optimized conformer: 74.48473230174217 kcal/mol)

>  <smiles>  (28) 
CCCN(CCC)c1c(CC)nc2c(C)cc(C)nn12

>  <score_type>  (28) 
oracle

>  <origin>  (28) 
adg

>  <m_score__min__energy>  (28) 
-5.04

>  <m_primary>  (28) 
energy

$$$$
28:0
     RDKit          3D

 46 48  0  0  0  0  0  0  0  0999 V2000
   63.3970   34.5353   45.7010 H   0  0  0  0  0  0  0  0  0  0  0  0
   63.0190   33.8650   46.4870 C   0  0  0  0  0  0  0  0  0  0  0  0
   61.6830   33.4650   46.4780 C   0  0  0  0  0  0  0  0  0  0  0  0
   61.0102   33.8148   45.6812 H   0  0  0  0  0  0  0  0  0  0  0  0
   61.1990   32.6220   47.4780 C   0  0  0  0  0  0  0  0  0  0  0  0
   60.1455   32.3059   47.4605 H   0  0  0  0  0  0  0  0  0  0  0  0
   62.0430   32.1720   48.5080 C   0  0  0  0  0  0  0  0  0  0  0  0
   61.4760   31.2330   49.5500 C   0  0  0  0  0  0  0  0  0  0  0  0
   62.3030   30.7723   50.1102 H   0  0  0  0  0  0  0  0  0  0  0  0
   60.8293   31.8062   50.2306 H   0  0  0  0  0  0  0  0  0  0  0  0
   60.6750   30.1750   48.9110 N   0  0  0  0  0  0  0  0  0  0  0  0
   61.0770   29.9240   47.9780 H   0  0  0  0  0  0  0  0  0  0  0  0
   59.7120   30.5510   48.7470 H   0  0  0  0  0  0  0  0  0  0  0  0
   60.5570   28.9740   49.7590 C   0  0  0  0  0  0  0  0  0  0  0  0
   61.4636   28.8898   50.3762 H   0  0  0  0  0  0  0  0  0  0  0  0
   59.6525   29.0918   50.3738 H   0  0  0  0  0  0  0  0  0  0  0  0
   60.3960   27.6800   48.9450 C   0  0  0  0  0  0  0  0  0  0  0  0
   61.1617   26.9556   49.2595 H   0  0  0  0  0  0  0  0  0  0  0  0
   59.3920   27.2674   49.1229 H   0  0  0  0  0  0  0  0  0  0  0  0
   60.5510   27.9570   47.5180 N   0  0  0  0  0  0  0  0  0  0  0  0
   59.6250   28.3950   46.7130 C   0  0  0  0  0  0  0  0  0  0  0  0
   59.2730   29.7160   46.7870 N   0  0  0  0  0  0  0  0  0  0  0  0
   58.3180   30.1910   45.9520 C   0  0  0  0  0  0  0  0  0  0  0  0
   57.7730   31.4490   45.8290 C   0  0  0  0  0  0  0  0  0  0  0  0
   58.0830   32.6470   46.6640 C   0  0  0  0  0  0  0  0  0  0  0  0
   58.0138   32.3797   47.7288 H   0  0  0  0  0  0  0  0  0  0  0  0
   59.1013   32.9971   46.4393 H   0  0  0  0  0  0  0  0  0  0  0  0
   57.3623   33.4470   46.4393 H   0  0  0  0  0  0  0  0  0  0  0  0
   56.8130   31.4040   44.8720 N   0  0  0  0  0  0  0  0  0  0  0  0
   56.7710   30.1630   44.3900 N   0  0  0  0  0  0  0  0  0  0  0  0
   55.8420   29.7150   43.3600 C   0  0  0  0  0  0  0  0  0  0  0  0
   54.9482   29.2840   43.8347 H   0  0  0  0  0  0  0  0  0  0  0  0
   55.5482   30.5705   42.7340 H   0  0  0  0  0  0  0  0  0  0  0  0
   56.3285   28.9525   42.7340 H   0  0  0  0  0  0  0  0  0  0  0  0
   57.6790   29.4130   45.0430 C   0  0  0  0  0  0  0  0  0  0  0  0
   57.9800   28.0620   44.9170 C   0  0  0  0  0  0  0  0  0  0  0  0
   57.4624   27.4251   44.1846 H   0  0  0  0  0  0  0  0  0  0  0  0
   58.9760   27.5430   45.7670 C   0  0  0  0  0  0  0  0  0  0  0  0
   59.2545   26.4808   45.7026 H   0  0  0  0  0  0  0  0  0  0  0  0
   63.4090   32.5570   48.5040 C   0  0  0  0  0  0  0  0  0  0  0  0
   64.3660   32.1020   49.5760 C   0  0  0  0  0  0  0  0  0  0  0  0
   63.9327   32.3080   50.5658 H   0  0  0  0  0  0  0  0  0  0  0  0
   64.5462   31.0218   49.4722 H   0  0  0  0  0  0  0  0  0  0  0  0
   65.3175   32.6441   49.4722 H   0  0  0  0  0  0  0  0  0  0  0  0
   63.8770   33.4160   47.4920 C   0  0  0  0  0  0  0  0  0  0  0  0
   64.9293   33.7366   47.4932 H   0  0  0  0  0  0  0  0  0  0  0  0
  1  2  1  0
  2  3  2  0
  3  4  1  0
  3  5  1  0
  5  6  1  0
  5  7  2  0
  7  8  1  0
  8  9  1  0
  8 10  1  0
  8 11  1  0
 11 12  1  0
 11 13  1  0
 11 14  1  0
 14 15  1  0
 14 16  1  0
 14 17  1  0
 17 18  1  0
 17 19  1  0
 17 20  1  0
 20 21  2  0
 21 22  1  0
 22 23  1  0
 23 24  1  0
 24 25  1  0
 25 26  1  0
 25 27  1  0
 25 28  1  0
 24 29  2  0
 29 30  1  0
 30 31  1  0
 31 32  1  0
 31 33  1  0
 31 34  1  0
 30 35  1  0
 35 36  1  0
 36 37  1  0
 36 38  2  0
 38 39  1  0
  7 40  1  0
 40 41  1  0
 41 42  1  0
 41 43  1  0
 41 44  1  0
 40 45  2  0
 45 46  1  0
 45  2  1  0
 38 21  1  0
 35 23  2  0
M  CHG  2  11   1  22  -1
M  END
>  <UniqueID>  (29) 
26

>  <SMILES>  (29) 
Cc1ccccc1C[NH2+]CC/N=c1\ccc2c([n-]1)c(C)nn2C

>  <Energy>  (29) 
87.9255815611746

>  <Genealogy>  (29) 
Cc1ccccc1C[NH2+]CCN=c1ccc2c([n-]1)c(C)nn2C (protonated)
Cc1ccccc1C[NH2+]CC/N=c1\ccc2c([n-]1)c(C)nn2C (cis-trans isomerization)
Cc1ccccc1C[NH2+]CC/N=c1\ccc2c([n-]1)c(C)nn2C (3D coordinates assigned)
Cc1ccccc1C[NH2+]CC/N=c1\ccc2c([n-]1)c(C)nn2C (optimized conformer: 87.9255815611746 kcal/mol)

>  <smiles>  (29) 
Cc1ccccc1CNCCN=c1ccc2c([nH]1)c(C)nn2C

>  <score_type>  (29) 
oracle

>  <origin>  (29) 
adg

>  <m_score__min__energy>  (29) 
-6.5999999999999996

>  <m_primary>  (29) 
energy

$$$$
29:0
     RDKit          3D

 49 51  0  0  0  0  0  0  0  0999 V2000
   62.5570   32.4490   47.8080 C   0  0  0  0  0  0  0  0  0  0  0  0
   61.3270   33.2640   47.3910 C   0  0  2  0  0  0  0  0  0  0  0  0
   60.4910   33.6590   48.6150 C   0  0  0  0  0  0  0  0  0  0  0  0
   59.2920   34.5350   48.2160 C   0  0  0  0  0  0  0  0  0  0  0  0
   58.8840   34.3570   46.7400 C   0  0  0  0  0  0  0  0  0  0  0  0
   59.0560   32.9660   46.2630 N   0  0  0  0  0  0  0  0  0  0  0  0
   58.0810   32.0230   46.8600 C   0  0  0  0  0  0  0  0  0  0  0  0
   58.5630   30.6000   46.7440 C   0  0  0  0  0  0  0  0  0  0  0  0
   59.2440   29.9890   47.8070 C   0  0  0  0  0  0  0  0  0  0  0  0
   59.6740   28.6630   47.7010 C   0  0  0  0  0  0  0  0  0  0  0  0
   59.4290   27.9270   46.5260 C   0  0  0  0  0  0  0  0  0  0  0  0
   59.8480   26.5960   46.3700 O   0  0  0  0  0  0  0  0  0  0  0  0
   59.0100   25.4430   46.4590 C   0  0  0  0  0  0  0  0  0  0  0  0
   57.6550   25.7920   47.0830 C   0  0  0  0  0  0  0  0  0  0  0  0
   56.5960   24.9540   46.5210 N   0  0  0  0  0  0  0  0  0  0  0  0
   55.4210   25.3700   46.0100 C   0  0  0  0  0  0  0  0  0  0  0  0
   55.0050   26.6970   45.9950 O   0  0  0  0  0  0  0  0  0  0  0  0
   54.6980   24.3100   45.5030 C   0  0  0  0  0  0  0  0  0  0  0  0
   55.4750   23.1840   45.7050 C   0  0  0  0  0  0  0  0  0  0  0  0
   56.6310   23.6210   46.3270 C   0  0  0  0  0  0  0  0  0  0  0  0
   57.6960   22.8090   46.7030 O   0  0  0  0  0  0  0  0  0  0  0  0
   58.7400   28.5400   45.4680 C   0  0  0  0  0  0  0  0  0  0  0  0
   58.3970   27.5810   43.8470 Br  0  0  0  0  0  0  0  0  0  0  0  0
   58.3110   29.8670   45.5760 C   0  0  0  0  0  0  0  0  0  0  0  0
   60.4600   32.4810   46.3710 C   0  0  0  0  0  0  0  0  0  0  0  0
   62.6160   32.4099   48.9057 H   0  0  0  0  0  0  0  0  0  0  0  0
   62.4726   31.4275   47.4087 H   0  0  0  0  0  0  0  0  0  0  0  0
   63.4648   32.9249   47.4087 H   0  0  0  0  0  0  0  0  0  0  0  0
   61.6834   34.1838   46.9043 H   0  0  0  0  0  0  0  0  0  0  0  0
   60.1204   32.7465   49.1049 H   0  0  0  0  0  0  0  0  0  0  0  0
   61.1299   34.2370   49.2989 H   0  0  0  0  0  0  0  0  0  0  0  0
   58.4350   34.2677   48.8517 H   0  0  0  0  0  0  0  0  0  0  0  0
   59.5906   35.5850   48.3517 H   0  0  0  0  0  0  0  0  0  0  0  0
   57.8261   34.6380   46.6311 H   0  0  0  0  0  0  0  0  0  0  0  0
   59.5402   34.9993   46.1343 H   0  0  0  0  0  0  0  0  0  0  0  0
   57.9457   32.2711   47.9231 H   0  0  0  0  0  0  0  0  0  0  0  0
   57.1284   32.1149   46.3177 H   0  0  0  0  0  0  0  0  0  0  0  0
   59.4408   30.5560   48.7288 H   0  0  0  0  0  0  0  0  0  0  0  0
   60.2067   28.1920   48.5403 H   0  0  0  0  0  0  0  0  0  0  0  0
   58.8469   25.0388   45.4491 H   0  0  0  0  0  0  0  0  0  0  0  0
   59.5073   24.6985   47.0981 H   0  0  0  0  0  0  0  0  0  0  0  0
   57.7054   25.6298   48.1698 H   0  0  0  0  0  0  0  0  0  0  0  0
   57.4258   26.8455   46.8647 H   0  0  0  0  0  0  0  0  0  0  0  0
   53.7043   24.3520   45.0331 H   0  0  0  0  0  0  0  0  0  0  0  0
   55.2245   22.1496   45.4272 H   0  0  0  0  0  0  0  0  0  0  0  0
   57.7630   22.4400   47.6450 H   0  0  0  0  0  0  0  0  0  0  0  0
   57.7731   30.3378   44.7400 H   0  0  0  0  0  0  0  0  0  0  0  0
   60.4374   31.4246   46.6768 H   0  0  0  0  0  0  0  0  0  0  0  0
   60.9222   32.6294   45.3839 H   0  0  0  0  0  0  0  0  0  0  0  0
  1  2  1  0
  2  3  1  0
  3  4  1  0
  4  5  1  0
  5  6  1  0
  6  7  1  0
  7  8  1  0
  8  9  2  0
  9 10  1  0
 10 11  2  0
 11 12  1  0
 12 13  1  0
 13 14  1  0
 14 15  1  0
 15 16  1  0
 16 17  1  0
 16 18  2  0
 18 19  1  0
 19 20  2  0
 20 21  1  0
 11 22  1  0
 22 23  1  0
 22 24  2  0
  6 25  1  0
 25  2  1  0
 24  8  1  0
 20 15  1  0
  1 26  1  0
  1 27  1  0
  1 28  1  0
  2 29  1  6
  3 30  1  0
  3 31  1  0
  4 32  1  0
  4 33  1  0
  5 34  1  0
  5 35  1  0
  7 36  1  0
  7 37  1  0
  9 38  1  0
 10 39  1  0
 13 40  1  0
 13 41  1  0
 14 42  1  0
 14 43  1  0
 18 44  1  0
 19 45  1  0
 21 46  1  0
 24 47  1  0
 25 48  1  0
 25 49  1  0
M  CHG  1  17  -1
M  END
>  <UniqueID>  (30) 
27

>  <SMILES>  (30) 
C[C@@H]1CCCN(Cc2ccc(OCCn3c([O-])ccc3O)c(Br)c2)C1

>  <Energy>  (30) 
80.58575255904378

>  <Genealogy>  (30) 
CC1CCCN(Cc2ccc(OCCn3c([O-])ccc3O)c(Br)c2)C1 (protonated)
C[C@@H]1CCCN(Cc2ccc(OCCn3c([O-])ccc3O)c(Br)c2)C1 (chirality)
C[C@@H]1CCCN(Cc2ccc(OCCn3c([O-])ccc3O)c(Br)c2)C1 (3D coordinates assigned)
C[C@@H]1CCCN(Cc2ccc(OCCn3c([O-])ccc3O)c(Br)c2)C1 (nonaromatic ring conformer: 80.58575255904378 kcal/mol)

>  <smiles>  (30) 
CC1CCCN(Cc2ccc(OCCn3c(O)ccc3O)c(Br)c2)C1

>  <score_type>  (30) 
oracle

>  <origin>  (30) 
adg

>  <m_score__min__energy>  (30) 
-11.609999999999999

>  <m_primary>  (30) 
energy

$$$$
30:0
     RDKit          3D

 43 45  0  0  0  0  0  0  0  0999 V2000
   57.7460   33.5480   44.9320 C   0  0  0  0  0  0  0  0  0  0  0  0
   57.6550   32.4260   43.9010 C   0  0  0  0  0  0  0  0  0  0  0  0
   57.3470   31.1330   44.5570 N   0  0  0  0  0  0  0  0  0  0  0  0
   56.1130   30.5450   44.0030 C   0  0  0  0  0  0  0  0  0  0  0  0
   55.6910   29.3500   44.8660 C   0  0  0  0  0  0  0  0  0  0  0  0
   56.8380   28.4860   45.1600 N   0  0  0  0  0  0  0  0  0  0  0  0
   56.6550   27.3180   45.9920 C   0  0  0  0  0  0  0  0  0  0  0  0
   55.5550   26.6990   45.9830 O   0  0  0  0  0  0  0  0  0  0  0  0
   57.7180   26.8270   46.8190 N   0  0  0  0  0  0  0  0  0  0  0  0
   58.5950   27.6670   47.5790 C   0  0  0  0  0  0  0  0  0  0  0  0
   59.6690   27.1280   48.3050 C   0  0  0  0  0  0  0  0  0  0  0  0
   60.5170   27.9610   49.0410 C   0  0  0  0  0  0  0  0  0  0  0  0
   60.2970   29.3530   49.0630 C   0  0  0  0  0  0  0  0  0  0  0  0
   61.1160   30.2430   49.7950 C   0  0  0  0  0  0  0  0  0  0  0  0
   62.2950   29.7610   50.6080 C   0  0  0  0  0  0  0  0  0  0  0  0
   60.8210   31.6130   49.7590 C   0  0  0  0  0  0  0  0  0  0  0  0
   59.7340   32.0620   49.0040 C   0  0  0  0  0  0  0  0  0  0  0  0
   59.4620   33.2900   48.9700 O   0  0  0  0  0  0  0  0  0  0  0  0
   58.9830   31.2010   48.3250 O   0  0  0  0  0  0  0  0  0  0  0  0
   59.2160   29.8920   48.3220 C   0  0  0  0  0  0  0  0  0  0  0  0
   58.3820   29.0500   47.5780 C   0  0  0  0  0  0  0  0  0  0  0  0
   58.1040   28.7040   44.4490 C   0  0  0  0  0  0  0  0  0  0  0  0
   58.5040   30.1940   44.4930 C   0  0  0  0  0  0  0  0  0  0  0  0
   57.7112   33.1193   45.9444 H   0  0  0  0  0  0  0  0  0  0  0  0
   58.6914   34.0940   44.7973 H   0  0  0  0  0  0  0  0  0  0  0  0
   56.9010   34.2392   44.7973 H   0  0  0  0  0  0  0  0  0  0  0  0
   56.8594   32.6629   43.1793 H   0  0  0  0  0  0  0  0  0  0  0  0
   58.6239   32.3392   43.3875 H   0  0  0  0  0  0  0  0  0  0  0  0
   55.3131   31.3001   44.0042 H   0  0  0  0  0  0  0  0  0  0  0  0
   56.2950   30.2093   42.9714 H   0  0  0  0  0  0  0  0  0  0  0  0
   55.2674   29.7202   45.8112 H   0  0  0  0  0  0  0  0  0  0  0  0
   54.9423   28.7640   44.3128 H   0  0  0  0  0  0  0  0  0  0  0  0
   59.8446   26.0422   48.2947 H   0  0  0  0  0  0  0  0  0  0  0  0
   61.3575   27.5292   49.6040 H   0  0  0  0  0  0  0  0  0  0  0  0
   62.0646   29.8552   51.6795 H   0  0  0  0  0  0  0  0  0  0  0  0
   62.4995   28.7071   50.3682 H   0  0  0  0  0  0  0  0  0  0  0  0
   63.1792   30.3698   50.3682 H   0  0  0  0  0  0  0  0  0  0  0  0
   61.4399   32.3286   50.3203 H   0  0  0  0  0  0  0  0  0  0  0  0
   57.5560   29.4768   46.9902 H   0  0  0  0  0  0  0  0  0  0  0  0
   58.8935   28.1038   44.9249 H   0  0  0  0  0  0  0  0  0  0  0  0
   57.9766   28.4026   43.3988 H   0  0  0  0  0  0  0  0  0  0  0  0
   59.1311   30.3573   45.3818 H   0  0  0  0  0  0  0  0  0  0  0  0
   59.0349   30.4080   43.5537 H   0  0  0  0  0  0  0  0  0  0  0  0
  1  2  1  0
  2  3  1  0
  3  4  1  0
  4  5  1  0
  5  6  1  0
  6  7  1  0
  7  8  2  0
  7  9  1  0
  9 10  1  0
 10 11  2  0
 11 12  1  0
 12 13  2  0
 13 14  1  0
 14 15  1  0
 14 16  2  0
 16 17  1  0
 17 18  2  0
 17 19  1  0
 19 20  1  0
 20 21  2  0
  6 22  1  0
 22 23  1  0
 23  3  1  0
 21 10  1  0
 20 13  1  0
  1 24  1  0
  1 25  1  0
  1 26  1  0
  2 27  1  0
  2 28  1  0
  4 29  1  0
  4 30  1  0
  5 31  1  0
  5 32  1  0
 11 33  1  0
 12 34  1  0
 15 35  1  0
 15 36  1  0
 15 37  1  0
 16 38  1  0
 21 39  1  0
 22 40  1  0
 22 41  1  0
 23 42  1  0
 23 43  1  0
M  CHG  1   9  -1
M  END
>  <UniqueID>  (31) 
28

>  <SMILES>  (31) 
CCN1CCN(C(=O)[N-]c2ccc3c(C)cc(=O)oc3c2)CC1

>  <Energy>  (31) 
58.57450789289235

>  <Genealogy>  (31) 
CCN1CCN(C(=O)[N-]c2ccc3c(C)cc(=O)oc3c2)CC1 (protonated)
CCN1CCN(C(=O)[N-]c2ccc3c(C)cc(=O)oc3c2)CC1 (3D coordinates assigned)
CCN1CCN(C(=O)[N-]c2ccc3c(C)cc(=O)oc3c2)CC1 (nonaromatic ring conformer: 58.57450789289235 kcal/mol)

>  <smiles>  (31) 
CCN1CCN(C(=O)Nc2ccc3c(C)cc(=O)oc3c2)CC1

>  <score_type>  (31) 
oracle

>  <origin>  (31) 
adg

>  <m_score__min__energy>  (31) 
-9.2200000000000006

>  <m_primary>  (31) 
energy

$$$$
31:0
     RDKit          3D

 45 48  0  0  0  0  0  0  0  0999 V2000
   56.2410   26.2030   46.0940 C   0  0  0  0  0  0  0  0  0  0  0  0
   55.7680   27.4620   45.6230 O   0  0  0  0  0  0  0  0  0  0  0  0
   56.5970   28.5150   45.2090 C   0  0  0  0  0  0  0  0  0  0  0  0
   56.1420   29.3560   44.1870 C   0  0  0  0  0  0  0  0  0  0  0  0
   56.9280   30.4210   43.7440 C   0  0  0  0  0  0  0  0  0  0  0  0
   58.1790   30.6560   44.3190 C   0  0  0  0  0  0  0  0  0  0  0  0
   58.6580   29.8230   45.3440 C   0  0  0  0  0  0  0  0  0  0  0  0
   60.0050   30.0910   45.9740 C   0  0  0  0  0  0  0  0  0  0  0  0
   59.8570   30.8680   47.2300 N   0  0  0  0  0  0  0  0  0  0  0  0
   59.8200   30.1560   48.4070 C   0  0  0  0  0  0  0  0  0  0  0  0
   59.9120   28.8970   48.4040 O   0  0  0  0  0  0  0  0  0  0  0  0
   59.6840   30.7970   49.6330 C   0  0  0  0  0  0  0  0  0  0  0  0
   59.5930   32.1830   49.7010 C   0  0  0  0  0  0  0  0  0  0  0  0
   59.4990   32.8090   51.0400 C   0  0  0  0  0  0  0  0  0  0  0  0
   58.2510   32.9440   51.6710 C   0  0  0  0  0  0  0  0  0  0  0  0
   58.1650   33.5150   52.9440 C   0  0  0  0  0  0  0  0  0  0  0  0
   59.3220   33.9450   53.5980 C   0  0  0  0  0  0  0  0  0  0  0  0
   60.5690   33.8010   52.9830 C   0  0  0  0  0  0  0  0  0  0  0  0
   60.6590   33.2310   51.7100 C   0  0  0  0  0  0  0  0  0  0  0  0
   59.6200   32.9330   48.5060 C   0  0  0  0  0  0  0  0  0  0  0  0
   59.4770   34.3380   48.5270 C   0  0  0  0  0  0  0  0  0  0  0  0
   59.5280   35.0760   47.3490 C   0  0  0  0  0  0  0  0  0  0  0  0
   59.7150   34.4340   46.1330 C   0  0  0  0  0  0  0  0  0  0  0  0
   59.8350   33.0450   46.0790 C   0  0  0  0  0  0  0  0  0  0  0  0
   59.7750   32.2540   47.2580 C   0  0  0  0  0  0  0  0  0  0  0  0
   57.8600   28.7540   45.7850 C   0  0  0  0  0  0  0  0  0  0  0  0
   56.2422   26.1999   47.1940 H   0  0  0  0  0  0  0  0  0  0  0  0
   55.5822   25.4027   45.7258 H   0  0  0  0  0  0  0  0  0  0  0  0
   57.2638   26.0345   45.7258 H   0  0  0  0  0  0  0  0  0  0  0  0
   55.1579   29.1764   43.7296 H   0  0  0  0  0  0  0  0  0  0  0  0
   56.5614   31.0766   42.9404 H   0  0  0  0  0  0  0  0  0  0  0  0
   58.7929   31.4983   43.9672 H   0  0  0  0  0  0  0  0  0  0  0  0
   60.4944   29.1320   46.1993 H   0  0  0  0  0  0  0  0  0  0  0  0
   60.6129   30.6761   45.2683 H   0  0  0  0  0  0  0  0  0  0  0  0
   59.6480   30.2025   50.5578 H   0  0  0  0  0  0  0  0  0  0  0  0
   57.3389   32.5994   51.1618 H   0  0  0  0  0  0  0  0  0  0  0  0
   57.1851   33.6258   53.4313 H   0  0  0  0  0  0  0  0  0  0  0  0
   59.2517   34.3975   54.5982 H   0  0  0  0  0  0  0  0  0  0  0  0
   61.4796   34.1363   53.5010 H   0  0  0  0  0  0  0  0  0  0  0  0
   61.6421   33.1125   51.2310 H   0  0  0  0  0  0  0  0  0  0  0  0
   59.3235   34.8546   49.4860 H   0  0  0  0  0  0  0  0  0  0  0  0
   59.4199   36.1702   47.3814 H   0  0  0  0  0  0  0  0  0  0  0  0
   59.7689   35.0238   45.2061 H   0  0  0  0  0  0  0  0  0  0  0  0
   59.9787   32.5531   45.1057 H   0  0  0  0  0  0  0  0  0  0  0  0
   58.2252   28.0971   46.5882 H   0  0  0  0  0  0  0  0  0  0  0  0
  1  2  1  0
  2  3  1  0
  3  4  2  0
  4  5  1  0
  5  6  2  0
  6  7  1  0
  7  8  1  0
  8  9  1  0
  9 10  1  0
 10 11  2  0
 10 12  1  0
 12 13  2  0
 13 14  1  0
 14 15  2  0
 15 16  1  0
 16 17  2  0
 17 18  1  0
 18 19  2  0
 13 20  1  0
 20 21  2  0
 21 22  1  0
 22 23  2  0
 23 24  1  0
 24 25  2  0
  7 26  2  0
 26  3  1  0
 25  9  1  0
 19 14  1  0
 25 20  1  0
  1 27  1  0
  1 28  1  0
  1 29  1  0
  4 30  1  0
  5 31  1  0
  6 32  1  0
  8 33  1  0
  8 34  1  0
 12 35  1  0
 15 36  1  0
 16 37  1  0
 17 38  1  0
 18 39  1  0
 19 40  1  0
 21 41  1  0
 22 42  1  0
 23 43  1  0
 24 44  1  0
 26 45  1  0
M  END
>  <UniqueID>  (32) 
29

>  <SMILES>  (32) 
COc1cccc(Cn2c(=O)cc(-c3ccccc3)c3ccccc32)c1

>  <Energy>  (32) 
70.06281083558902

>  <Genealogy>  (32) 
COc1cccc(Cn2c(=O)cc(-c3ccccc3)c3ccccc32)c1 (3D coordinates assigned)
COc1cccc(Cn2c(=O)cc(-c3ccccc3)c3ccccc32)c1 (optimized conformer: 70.06281083558902 kcal/mol)

>  <smiles>  (32) 
COc1cccc(Cn2c(=O)cc(-c3ccccc3)c3ccccc32)c1

>  <score_type>  (32) 
oracle

>  <origin>  (32) 
adg

>  <m_score__min__energy>  (32) 
-8.5500000000000007

>  <m_primary>  (32) 
energy

$$$$
32:0
     RDKit          3D

 46 48  0  0  0  0  0  0  0  0999 V2000
   56.6560   30.3010   43.6080 C   0  0  0  0  0  0  0  0  0  0  0  0
   56.5490   31.0400   44.8210 O   0  0  0  0  0  0  0  0  0  0  0  0
   57.5120   31.9270   45.3250 C   0  0  0  0  0  0  0  0  0  0  0  0
   57.2740   33.3170   45.2670 C   0  0  0  0  0  0  0  0  0  0  0  0
   58.2030   34.2280   45.7530 C   0  0  0  0  0  0  0  0  0  0  0  0
   59.3880   33.7750   46.3100 C   0  0  0  0  0  0  0  0  0  0  0  0
   59.6540   32.4100   46.3830 C   0  0  0  0  0  0  0  0  0  0  0  0
   58.7350   31.4380   45.8980 C   0  0  0  0  0  0  0  0  0  0  0  0
   59.0630   30.0050   46.0040 N   0  0  0  0  0  0  0  0  0  0  0  0
   58.1430   29.1290   46.7650 C   0  0  0  0  0  0  0  0  0  0  0  0
   58.5910   27.6700   46.8870 C   0  0  0  0  0  0  0  0  0  0  0  0
   59.1920   27.1650   45.6430 N   0  0  0  0  0  0  0  0  0  0  0  0
   58.2380   27.1810   44.4970 C   0  0  0  0  0  0  0  0  0  0  0  0
   57.5460   25.8250   44.2690 C   0  0  0  0  0  0  0  0  0  0  0  0
   57.1710   25.1870   45.5280 N   0  0  0  0  0  0  0  0  0  0  0  0
   57.8970   24.1100   46.1840 C   0  0  0  0  0  0  0  0  0  0  0  0
   57.0810   23.7770   47.4580 C   0  0  0  0  0  0  0  0  0  0  0  0
   55.9140   24.6550   47.4470 N   0  0  0  0  0  0  0  0  0  0  0  0
   56.0180   25.4620   46.2960 C   0  0  0  0  0  0  0  0  0  0  0  0
   55.1700   26.3420   45.9940 O   0  0  0  0  0  0  0  0  0  0  0  0
   60.4300   27.9220   45.3950 C   0  0  0  0  0  0  0  0  0  0  0  0
   60.2180   29.4430   45.2660 C   0  0  0  0  0  0  0  0  0  0  0  0
   56.8101   29.2367   43.8394 H   0  0  0  0  0  0  0  0  0  0  0  0
   55.7314   30.4191   43.0239 H   0  0  0  0  0  0  0  0  0  0  0  0
   57.5091   30.6765   43.0239 H   0  0  0  0  0  0  0  0  0  0  0  0
   56.3350   33.6858   44.8286 H   0  0  0  0  0  0  0  0  0  0  0  0
   57.9983   35.3073   45.6958 H   0  0  0  0  0  0  0  0  0  0  0  0
   60.1223   34.4971   46.6965 H   0  0  0  0  0  0  0  0  0  0  0  0
   60.6018   32.0736   46.8284 H   0  0  0  0  0  0  0  0  0  0  0  0
   58.0414   29.5407   47.7800 H   0  0  0  0  0  0  0  0  0  0  0  0
   57.1976   29.1141   46.2028 H   0  0  0  0  0  0  0  0  0  0  0  0
   59.3337   27.5943   47.6949 H   0  0  0  0  0  0  0  0  0  0  0  0
   57.7004   27.0612   47.1019 H   0  0  0  0  0  0  0  0  0  0  0  0
   59.4700   26.1730   45.8370 H   0  0  0  0  0  0  0  0  0  0  0  0
   57.4660   27.9393   44.6946 H   0  0  0  0  0  0  0  0  0  0  0  0
   58.8176   27.4102   43.5906 H   0  0  0  0  0  0  0  0  0  0  0  0
   56.6391   25.9852   43.6674 H   0  0  0  0  0  0  0  0  0  0  0  0
   58.2547   25.1635   43.7492 H   0  0  0  0  0  0  0  0  0  0  0  0
   57.9580   23.2308   45.5258 H   0  0  0  0  0  0  0  0  0  0  0  0
   58.9298   24.4018   46.4254 H   0  0  0  0  0  0  0  0  0  0  0  0
   56.7639   22.7238   47.4412 H   0  0  0  0  0  0  0  0  0  0  0  0
   57.6832   23.9287   48.3659 H   0  0  0  0  0  0  0  0  0  0  0  0
   61.1212   27.7385   46.2308 H   0  0  0  0  0  0  0  0  0  0  0  0
   60.8295   27.5729   44.4314 H   0  0  0  0  0  0  0  0  0  0  0  0
   61.1268   29.9414   45.6342 H   0  0  0  0  0  0  0  0  0  0  0  0
   60.0043   29.6223   44.2020 H   0  0  0  0  0  0  0  0  0  0  0  0
  1  2  1  0
  2  3  1  0
  3  4  2  0
  4  5  1  0
  5  6  2  0
  6  7  1  0
  7  8  2  0
  8  9  1  0
  9 10  1  0
 10 11  1  0
 11 12  1  0
 12 13  1  0
 13 14  1  0
 14 15  1  0
 15 16  1  0
 16 17  1  0
 17 18  1  0
 18 19  1  0
 19 20  2  0
 12 21  1  0
 21 22  1  0
  8  3  1  0
 22  9  1  0
 19 15  1  0
  1 23  1  0
  1 24  1  0
  1 25  1  0
  4 26  1  0
  5 27  1  0
  6 28  1  0
  7 29  1  0
 10 30  1  0
 10 31  1  0
 11 32  1  0
 11 33  1  0
 12 34  1  0
 13 35  1  0
 13 36  1  0
 14 37  1  0
 14 38  1  0
 16 39  1  0
 16 40  1  0
 17 41  1  0
 17 42  1  0
 21 43  1  0
 21 44  1  0
 22 45  1  0
 22 46  1  0
M  CHG  2  12   1  18  -1
M  END
>  <UniqueID>  (33) 
30

>  <SMILES>  (33) 
COc1ccccc1N1CC[NH+](CCN2CC[N-]C2=O)CC1

>  <Energy>  (33) 
75.99636181209564

>  <Genealogy>  (33) 
COc1ccccc1N1CC[NH+](CCN2CC[N-]C2=O)CC1 (protonated)
COc1ccccc1N1CC[NH+](CCN2CC[N-]C2=O)CC1 (3D coordinates assigned)
COc1ccccc1N1CC[NH+](CCN2CC[N-]C2=O)CC1 (nonaromatic ring conformer: 75.99636181209564 kcal/mol)

>  <smiles>  (33) 
COc1ccccc1N1CCN(CCN2CCNC2=O)CC1

>  <score_type>  (33) 
oracle

>  <origin>  (33) 
adg

>  <m_score__min__energy>  (33) 
-7.5300000000000002

>  <m_primary>  (33) 
energy

$$$$
33:0
     RDKit          3D

 45 47  0  0  1  0  0  0  0  0999 V2000
   56.9810   30.4940   43.7540 C   0  0  0  0  0  0  0  0  0  0  0  0
   56.6600   31.4030   44.8450 N   0  0  0  0  0  0  0  0  0  0  0  0
   57.4780   32.3180   45.2060 C   0  0  0  0  0  0  0  0  0  0  0  0
   58.6840   31.9830   45.8370 C   0  0  0  0  0  0  0  0  0  0  0  0
   59.5680   32.9160   46.2330 C   0  0  0  0  0  0  0  0  0  0  0  0
   60.8580   32.7870   46.8490 C   0  0  0  0  0  0  0  0  0  0  0  0
   61.8070   33.7680   46.5180 C   0  0  0  0  0  0  0  0  0  0  0  0
   63.0530   33.8360   47.0780 C   0  0  0  0  0  0  0  0  0  0  0  0
   63.4530   32.9190   48.0240 C   0  0  0  0  0  0  0  0  0  0  0  0
   64.6610   32.8940   48.6470 O   0  0  0  0  0  0  0  0  0  0  0  0
   64.8650   32.5070   49.9580 C   0  0  0  0  0  0  0  0  0  0  0  0
   63.9880   33.3660   50.7070 F   0  0  0  0  0  0  0  0  0  0  0  0
   64.5220   31.2310   50.2870 F   0  0  0  0  0  0  0  0  0  0  0  0
   66.2490   32.8570   50.5070 C   0  0  0  0  0  0  0  0  0  0  0  0
   66.6060   31.9060   51.4460 F   0  0  0  0  0  0  0  0  0  0  0  0
   66.1260   34.0730   51.2200 F   0  0  0  0  0  0  0  0  0  0  0  0
   67.2210   33.0480   49.6100 F   0  0  0  0  0  0  0  0  0  0  0  0
   62.5310   31.9490   48.3570 C   0  0  0  0  0  0  0  0  0  0  0  0
   61.2500   31.8740   47.7850 C   0  0  0  0  0  0  0  0  0  0  0  0
   60.2490   30.5790   48.3390 S   0  0  0  0  0  0  0  0  0  0  0  0
   58.8740   31.0880   48.7290 O   0  0  0  0  0  0  0  0  0  0  0  0
   60.8880   29.7580   49.3640 O   0  0  0  0  0  0  0  0  0  0  0  0
   59.8820   29.4710   46.9880 C   0  0  0  0  0  0  0  0  0  0  0  0
   60.6970   29.3970   45.8910 C   0  0  0  0  0  0  0  0  0  0  0  0
   60.3540   28.5220   44.8920 C   0  0  0  0  0  0  0  0  0  0  0  0
   59.2340   27.7320   44.9600 C   0  0  0  0  0  0  0  0  0  0  0  0
   58.4100   27.8040   46.0650 C   0  0  0  0  0  0  0  0  0  0  0  0
   58.7550   28.6760   47.0570 C   0  0  0  0  0  0  0  0  0  0  0  0
   59.1820   34.2160   45.9580 N   0  0  0  0  0  0  0  0  0  0  0  0
   58.0340   34.5250   45.3570 C   0  0  0  0  0  0  0  0  0  0  0  0
   57.1490   33.6060   44.9630 N   0  0  0  0  0  0  0  0  0  0  0  0
   57.3206   29.5323   44.1659 H   0  0  0  0  0  0  0  0  0  0  0  0
   56.0856   30.3324   43.1359 H   0  0  0  0  0  0  0  0  0  0  0  0
   57.7793   30.9305   43.1359 H   0  0  0  0  0  0  0  0  0  0  0  0
   58.9150   30.9222   46.0141 H   0  0  0  0  0  0  0  0  0  0  0  0
   61.5330   34.5234   45.7668 H   0  0  0  0  0  0  0  0  0  0  0  0
   63.7445   34.6336   46.7686 H   0  0  0  0  0  0  0  0  0  0  0  0
   62.8127   31.1963   49.1081 H   0  0  0  0  0  0  0  0  0  0  0  0
   61.5999   30.0205   45.8128 H   0  0  0  0  0  0  0  0  0  0  0  0
   60.9999   28.4510   44.0044 H   0  0  0  0  0  0  0  0  0  0  0  0
   58.9936   27.0435   44.1365 H   0  0  0  0  0  0  0  0  0  0  0  0
   57.5071   27.1806   46.1435 H   0  0  0  0  0  0  0  0  0  0  0  0
   58.1105   28.7482   47.9455 H   0  0  0  0  0  0  0  0  0  0  0  0
   57.8046   35.5857   45.1771 H   0  0  0  0  0  0  0  0  0  0  0  0
   56.2670   33.8830   44.4990 H   0  0  0  0  0  0  0  0  0  0  0  0
  1  2  1  0
  2  3  2  0
  3  4  1  0
  4  5  2  0
  5  6  1  0
  6  7  2  0
  7  8  1  0
  8  9  2  0
  9 10  1  0
 10 11  1  0
 11 12  1  0
 11 13  1  0
 11 14  1  0
 14 15  1  0
 14 16  1  0
 14 17  1  0
  9 18  1  0
 18 19  2  0
 19 20  1  0
 20 21  2  0
 20 22  2  0
 20 23  1  0
 23 24  2  0
 24 25  1  0
 25 26  2  0
 26 27  1  0
 27 28  2  0
  5 29  1  0
 29 30  2  0
 30 31  1  0
 31  3  1  0
 19  6  1  0
 28 23  1  0
  1 32  1  0
  1 33  1  0
  1 34  1  0
  4 35  1  0
  7 36  1  0
  8 37  1  0
 18 38  1  0
 24 39  1  0
 25 40  1  0
 26 41  1  0
 27 42  1  0
 28 43  1  0
 30 44  1  0
 31 45  1  0
M  END
>  <smiles>  (34) 
CN=c1cc(-c2ccc(OC(F)(F)C(F)(F)F)cc2S(=O)(=O)c2ccccc2)nc[nH]1

>  <score_type>  (34) 
oracle

>  <origin>  (34) 
adg

>  <m_score__min__energy>  (34) 
-7.3399999999999999

>  <m_primary>  (34) 
energy

$$$$
34:0
     RDKit          3D

 57 60  0  0  0  0  0  0  0  0999 V2000
   57.4080   25.4900   43.1670 C   0  0  0  0  0  0  0  0  0  0  0  0
   56.9710   24.0410   43.4130 C   0  0  0  0  0  0  0  0  0  0  0  0
   57.6640   23.4140   44.5670 N   0  0  0  0  0  0  0  0  0  0  0  0
   58.3670   22.1690   44.1550 C   0  0  0  0  0  0  0  0  0  0  0  0
   57.4780   21.2450   43.3130 C   0  0  0  0  0  0  0  0  0  0  0  0
   56.7720   23.1720   45.7360 C   0  0  0  0  0  0  0  0  0  0  0  0
   56.9240   24.1750   46.9040 C   0  0  0  0  0  0  0  0  0  0  0  0
   57.4630   25.4530   46.4450 N   0  0  0  0  0  0  0  0  0  0  0  0
   58.8150   25.7020   46.4510 O   0  0  0  0  0  0  0  0  0  0  0  0
   58.9270   27.1050   46.2330 C   0  0  1  0  0  0  0  0  0  0  0  0
   59.8180   27.9110   47.1850 C   0  0  0  0  0  0  0  0  0  0  0  0
   59.9070   29.2630   46.4260 C   0  0  0  0  0  0  0  0  0  0  0  0
   59.0770   28.9970   45.1390 C   0  0  1  0  0  0  0  0  0  0  0  0
   59.4230   27.5380   44.8700 C   0  0  0  0  0  0  0  0  0  0  0  0
   57.6180   28.8450   45.5340 C   0  0  0  0  0  0  0  0  0  0  0  0
   56.4770   29.5390   44.9120 C   0  0  0  0  0  0  0  0  0  0  0  0
   55.3580   28.9650   44.8280 O   0  0  0  0  0  0  0  0  0  0  0  0
   56.6660   30.8530   44.3720 N   0  0  0  0  0  0  0  0  0  0  0  0
   57.4560   31.9070   44.9400 C   0  0  0  0  0  0  0  0  0  0  0  0
   57.9280   32.9180   44.0940 C   0  0  0  0  0  0  0  0  0  0  0  0
   58.7140   33.9560   44.6000 C   0  0  0  0  0  0  0  0  0  0  0  0
   59.0460   33.9860   45.9570 C   0  0  0  0  0  0  0  0  0  0  0  0
   58.5910   32.9750   46.8170 C   0  0  0  0  0  0  0  0  0  0  0  0
   59.0000   32.9760   48.2600 C   0  0  0  0  0  0  0  0  0  0  0  0
   57.8160   31.9240   46.3000 C   0  0  0  0  0  0  0  0  0  0  0  0
   57.5860   27.7140   46.2330 C   0  0  0  0  0  0  0  0  0  0  0  0
   56.6800   26.6310   46.3250 C   0  0  0  0  0  0  0  0  0  0  0  0
   55.4220   26.6720   46.2870 O   0  0  0  0  0  0  0  0  0  0  0  0
   57.5605   25.9958   44.1318 H   0  0  0  0  0  0  0  0  0  0  0  0
   58.3484   25.4975   42.5963 H   0  0  0  0  0  0  0  0  0  0  0  0
   56.6286   26.0162   42.5963 H   0  0  0  0  0  0  0  0  0  0  0  0
   55.8881   24.0294   43.6059 H   0  0  0  0  0  0  0  0  0  0  0  0
   57.2345   23.4611   42.5162 H   0  0  0  0  0  0  0  0  0  0  0  0
   58.3900   24.0930   44.9030 H   0  0  0  0  0  0  0  0  0  0  0  0
   59.2523   22.4431   43.5625 H   0  0  0  0  0  0  0  0  0  0  0  0
   58.6456   21.6239   45.0689 H   0  0  0  0  0  0  0  0  0  0  0  0
   56.8708   20.6139   43.9786 H   0  0  0  0  0  0  0  0  0  0  0  0
   56.8156   21.8520   42.6783 H   0  0  0  0  0  0  0  0  0  0  0  0
   58.1101   20.6065   42.6783 H   0  0  0  0  0  0  0  0  0  0  0  0
   55.7309   23.2163   45.3837 H   0  0  0  0  0  0  0  0  0  0  0  0
   57.0601   22.1901   46.1396 H   0  0  0  0  0  0  0  0  0  0  0  0
   55.9373   24.3459   47.3592 H   0  0  0  0  0  0  0  0  0  0  0  0
   57.6244   23.7480   47.6369 H   0  0  0  0  0  0  0  0  0  0  0  0
   59.3497   28.0315   48.1730 H   0  0  0  0  0  0  0  0  0  0  0  0
   60.7908   27.4456   47.4017 H   0  0  0  0  0  0  0  0  0  0  0  0
   59.4671   30.0787   47.0185 H   0  0  0  0  0  0  0  0  0  0  0  0
   60.9408   29.5760   46.2180 H   0  0  0  0  0  0  0  0  0  0  0  0
   59.2473   29.7548   44.3600 H   0  0  0  0  0  0  0  0  0  0  0  0
   58.8568   27.0982   44.0357 H   0  0  0  0  0  0  0  0  0  0  0  0
   60.4473   27.2776   44.5649 H   0  0  0  0  0  0  0  0  0  0  0  0
   57.6780   32.8947   43.0230 H   0  0  0  0  0  0  0  0  0  0  0  0
   59.0721   34.7509   43.9293 H   0  0  0  0  0  0  0  0  0  0  0  0
   59.6657   34.8044   46.3521 H   0  0  0  0  0  0  0  0  0  0  0  0
   58.1022   32.9738   48.8956 H   0  0  0  0  0  0  0  0  0  0  0  0
   59.6011   32.0793   48.4714 H   0  0  0  0  0  0  0  0  0  0  0  0
   59.5967   33.8756   48.4714 H   0  0  0  0  0  0  0  0  0  0  0  0
   57.4885   31.1092   46.9624 H   0  0  0  0  0  0  0  0  0  0  0  0
  1  2  1  0
  2  3  1  0
  3  4  1  0
  4  5  1  0
  3  6  1  0
  6  7  1  0
  7  8  1  0
  8  9  1  0
 10  9  1  1
 10 11  1  0
 11 12  1  0
 12 13  1  0
 13 14  1  0
 13 15  1  0
 15 16  1  0
 16 17  2  0
 16 18  1  0
 18 19  1  0
 19 20  2  0
 20 21  1  0
 21 22  2  0
 22 23  1  0
 23 24  1  0
 23 25  2  0
 15 26  2  0
 26 27  1  0
 27 28  2  0
 27  8  1  0
 14 10  1  0
 25 19  1  0
 26 10  1  0
  1 29  1  0
  1 30  1  0
  1 31  1  0
  2 32  1  0
  2 33  1  0
  3 34  1  0
  4 35  1  0
  4 36  1  0
  5 37  1  0
  5 38  1  0
  5 39  1  0
  6 40  1  0
  6 41  1  0
  7 42  1  0
  7 43  1  0
 11 44  1  0
 11 45  1  0
 12 46  1  0
 12 47  1  0
 13 48  1  6
 14 49  1  0
 14 50  1  0
 20 51  1  0
 21 52  1  0
 22 53  1  0
 24 54  1  0
 24 55  1  0
 24 56  1  0
 25 57  1  0
M  CHG  2   3   1  18  -1
M  END
>  <UniqueID>  (35) 
31

>  <SMILES>  (35) 
CC[NH+](CC)CCN1O[C@@]23CC[C@@H](C2)C(C(=O)[N-]c2cccc(C)c2)=C3C1=O

>  <Energy>  (35) 
147.8908377486411

>  <Genealogy>  (35) 
CC[NH+](CC)CCN1OC23CCC(C2)C(C(=O)[N-]c2cccc(C)c2)=C3C1=O (protonated)
CC[NH+](CC)CCN1O[C@@]23CC[C@@H](C2)C(C(=O)[N-]c2cccc(C)c2)=C3C1=O (chirality)
CC[NH+](CC)CCN1O[C@@]23CC[C@@H](C2)C(C(=O)[N-]c2cccc(C)c2)=C3C1=O (3D coordinates assigned)
CC[NH+](CC)CCN1O[C@@]23CC[C@@H](C2)C(C(=O)[N-]c2cccc(C)c2)=C3C1=O (nonaromatic ring conformer: 147.8908377486411 kcal/mol)

>  <smiles>  (35) 
CCN(CC)CCN1OC23CCC(C2)C(C(=O)Nc2cccc(C)c2)=C3C1=O

>  <score_type>  (35) 
oracle

>  <origin>  (35) 
adg

>  <m_score__min__energy>  (35) 
-9.0399999999999991

>  <m_primary>  (35) 
energy

$$$$
35:0
     RDKit          3D

 45 47  0  0  0  0  0  0  0  0999 V2000
   58.9750   29.3920   49.4970 C   0  0  0  0  0  0  0  0  0  0  0  0
   58.6530   29.5920   48.1260 O   0  0  0  0  0  0  0  0  0  0  0  0
   59.1700   28.7910   47.1020 C   0  0  0  0  0  0  0  0  0  0  0  0
   60.2200   29.1540   46.5040 O   0  0  0  0  0  0  0  0  0  0  0  0
   58.4700   27.5810   46.7220 N   0  0  0  0  0  0  0  0  0  0  0  0
   58.8230   26.3570   47.4650 C   0  0  0  0  0  0  0  0  0  0  0  0
   58.0930   25.1170   46.9340 C   0  0  0  0  0  0  0  0  0  0  0  0
   56.5930   25.3880   46.7890 C   0  0  0  0  0  0  0  0  0  0  0  0
   56.2770   26.6760   45.9980 C   0  0  0  0  0  0  0  0  0  0  0  0
   57.5360   27.4610   45.5720 C   0  0  1  0  0  0  0  0  0  0  0  0
   57.1330   28.7720   44.9470 C   0  0  0  0  0  0  0  0  0  0  0  0
   57.8580   29.4830   44.0140 C   0  0  0  0  0  0  0  0  0  0  0  0
   57.0800   30.6000   43.7860 C   0  0  0  0  0  0  0  0  0  0  0  0
   57.3940   31.7020   42.8710 C   0  0  0  0  0  0  0  0  0  0  0  0
   57.0860   31.6130   41.6520 O   0  0  0  0  0  0  0  0  0  0  0  0
   58.0480   32.8740   43.3660 N   0  0  0  0  0  0  0  0  0  0  0  0
   57.6150   33.5750   44.5670 C   0  0  0  0  0  0  0  0  0  0  0  0
   58.6310   33.3720   45.6550 C   0  0  0  0  0  0  0  0  0  0  0  0
   58.8090   32.1050   46.2310 C   0  0  0  0  0  0  0  0  0  0  0  0
   59.7570   31.9110   47.1890 N   0  0  0  0  0  0  0  0  0  0  0  0
   60.5630   32.9250   47.6050 C   0  0  0  0  0  0  0  0  0  0  0  0
   60.4320   34.1990   47.0500 C   0  0  0  0  0  0  0  0  0  0  0  0
   59.4690   34.4220   46.0640 C   0  0  0  0  0  0  0  0  0  0  0  0
   59.3520   35.6570   45.5130 F   0  0  0  0  0  0  0  0  0  0  0  0
   55.9680   30.5430   44.5450 N   0  0  0  0  0  0  0  0  0  0  0  0
   56.0340   29.4360   45.2270 O   0  0  0  0  0  0  0  0  0  0  0  0
   58.2089   29.8679   50.1268 H   0  0  0  0  0  0  0  0  0  0  0  0
   59.0087   28.3138   49.7122 H   0  0  0  0  0  0  0  0  0  0  0  0
   59.9564   29.8397   49.7122 H   0  0  0  0  0  0  0  0  0  0  0  0
   59.9071   26.1921   47.3787 H   0  0  0  0  0  0  0  0  0  0  0  0
   58.5182   26.5017   48.5120 H   0  0  0  0  0  0  0  0  0  0  0  0
   58.5073   24.8482   45.9511 H   0  0  0  0  0  0  0  0  0  0  0  0
   58.2343   24.2925   47.6483 H   0  0  0  0  0  0  0  0  0  0  0  0
   56.1335   24.5361   46.2664 H   0  0  0  0  0  0  0  0  0  0  0  0
   56.1872   25.5213   47.8027 H   0  0  0  0  0  0  0  0  0  0  0  0
   55.7159   26.4001   45.0930 H   0  0  0  0  0  0  0  0  0  0  0  0
   55.6971   27.3312   46.6646 H   0  0  0  0  0  0  0  0  0  0  0  0
   58.0933   26.9192   44.7936 H   0  0  0  0  0  0  0  0  0  0  0  0
   58.8254   29.2222   43.5599 H   0  0  0  0  0  0  0  0  0  0  0  0
   57.5183   34.6492   44.3506 H   0  0  0  0  0  0  0  0  0  0  0  0
   56.6419   33.1794   44.8935 H   0  0  0  0  0  0  0  0  0  0  0  0
   58.1791   31.2635   45.9068 H   0  0  0  0  0  0  0  0  0  0  0  0
   59.8700   30.9620   47.6100 H   0  0  0  0  0  0  0  0  0  0  0  0
   61.3203   32.7403   48.3811 H   0  0  0  0  0  0  0  0  0  0  0  0
   61.0819   35.0202   47.3865 H   0  0  0  0  0  0  0  0  0  0  0  0
  1  2  1  0
  2  3  1  0
  3  4  2  0
  3  5  1  0
  5  6  1  0
  6  7  1  0
  7  8  1  0
  8  9  1  0
  9 10  1  0
 10 11  1  0
 11 12  2  0
 12 13  1  0
 13 14  1  0
 14 15  2  0
 14 16  1  0
 16 17  1  0
 17 18  1  0
 18 19  2  0
 19 20  1  0
 20 21  2  0
 21 22  1  0
 22 23  2  0
 23 24  1  0
 13 25  2  0
 25 26  1  0
 10  5  1  0
 26 11  1  0
 23 18  1  0
  1 27  1  0
  1 28  1  0
  1 29  1  0
  6 30  1  0
  6 31  1  0
  7 32  1  0
  7 33  1  0
  8 34  1  0
  8 35  1  0
  9 36  1  0
  9 37  1  0
 10 38  1  6
 12 39  1  0
 17 40  1  0
 17 41  1  0
 19 42  1  0
 20 43  1  0
 21 44  1  0
 22 45  1  0
M  CHG  2  16  -1  20   1
M  END
>  <UniqueID>  (36) 
32

>  <SMILES>  (36) 
COC(=O)N1CCCC[C@H]1c1cc(C(=O)[N-]Cc2c[nH+]ccc2F)no1

>  <Energy>  (36) 
77.57659102884348

>  <Genealogy>  (36) 
COC(=O)N1CCCCC1c1cc(C(=O)[N-]Cc2c[nH+]ccc2F)no1 (protonated)
COC(=O)N1CCCC[C@H]1c1cc(C(=O)[N-]Cc2c[nH+]ccc2F)no1 (chirality)
COC(=O)N1CCCC[C@H]1c1cc(C(=O)[N-]Cc2c[nH+]ccc2F)no1 (3D coordinates assigned)
COC(=O)N1CCCC[C@H]1c1cc(C(=O)[N-]Cc2c[nH+]ccc2F)no1 (nonaromatic ring conformer: 77.57659102884348 kcal/mol)

>  <smiles>  (36) 
COC(=O)N1CCCCC1c1cc(C(=O)NCc2cnccc2F)no1

>  <score_type>  (36) 
oracle

>  <origin>  (36) 
adg

>  <m_score__min__energy>  (36) 
-8.0399999999999991

>  <m_primary>  (36) 
energy

$$$$
36:0
     RDKit          3D

 36 37  0  0  0  0  0  0  0  0999 V2000
   62.1210   33.7160   47.2370 C   0  0  0  0  0  0  0  0  0  0  0  0
   60.8570   33.8530   46.3910 C   0  0  0  0  0  0  0  0  0  0  0  0
   59.6170   34.1470   47.2450 C   0  0  0  0  0  0  0  0  0  0  0  0
   58.3980   33.6830   46.5690 N   0  0  0  0  0  0  0  0  0  0  0  0
   58.4710   33.9010   45.1180 C   0  0  0  0  0  0  0  0  0  0  0  0
   57.9020   32.7460   44.3360 C   0  0  0  0  0  0  0  0  0  0  0  0
   58.1140   32.6100   42.9670 C   0  0  0  0  0  0  0  0  0  0  0  0
   57.2550   31.2720   42.4250 S   0  0  0  0  0  0  0  0  0  0  0  0
   56.6100   30.8450   43.9180 C   0  0  0  0  0  0  0  0  0  0  0  0
   55.7110   29.7030   44.1500 C   0  0  0  0  0  0  0  0  0  0  0  0
   54.7180   29.5410   43.3940 O   0  0  0  0  0  0  0  0  0  0  0  0
   55.9050   28.7940   45.2410 N   0  0  0  0  0  0  0  0  0  0  0  0
   57.0870   28.0220   45.5070 C   0  0  0  0  0  0  0  0  0  0  0  0
   58.3400   28.6230   45.3230 C   0  0  0  0  0  0  0  0  0  0  0  0
   59.5120   27.9220   45.6210 C   0  0  0  0  0  0  0  0  0  0  0  0
   59.4400   26.6140   46.1090 C   0  0  0  0  0  0  0  0  0  0  0  0
   58.1960   26.0110   46.3090 C   0  0  0  0  0  0  0  0  0  0  0  0
   57.0220   26.7130   46.0210 C   0  0  0  0  0  0  0  0  0  0  0  0
   57.0400   31.7670   44.8660 C   0  0  0  0  0  0  0  0  0  0  0  0
   61.8533   33.7450   48.3035 H   0  0  0  0  0  0  0  0  0  0  0  0
   62.6133   32.7592   47.0084 H   0  0  0  0  0  0  0  0  0  0  0  0
   62.8069   34.5451   47.0084 H   0  0  0  0  0  0  0  0  0  0  0  0
   60.9974   34.6763   45.6751 H   0  0  0  0  0  0  0  0  0  0  0  0
   60.6916   32.8964   45.8737 H   0  0  0  0  0  0  0  0  0  0  0  0
   59.7132   33.6298   48.2110 H   0  0  0  0  0  0  0  0  0  0  0  0
   59.5437   35.2337   47.3991 H   0  0  0  0  0  0  0  0  0  0  0  0
   57.5960   34.2540   46.9280 H   0  0  0  0  0  0  0  0  0  0  0  0
   57.9046   34.8103   44.8682 H   0  0  0  0  0  0  0  0  0  0  0  0
   59.5322   34.0006   44.8461 H   0  0  0  0  0  0  0  0  0  0  0  0
   58.7387   33.2678   42.3449 H   0  0  0  0  0  0  0  0  0  0  0  0
   58.4013   29.6529   44.9416 H   0  0  0  0  0  0  0  0  0  0  0  0
   60.4915   28.3998   45.4714 H   0  0  0  0  0  0  0  0  0  0  0  0
   60.3628   26.0597   46.3355 H   0  0  0  0  0  0  0  0  0  0  0  0
   58.1401   24.9820   46.6938 H   0  0  0  0  0  0  0  0  0  0  0  0
   56.0440   26.2410   46.1966 H   0  0  0  0  0  0  0  0  0  0  0  0
   56.7373   31.7347   45.9230 H   0  0  0  0  0  0  0  0  0  0  0  0
  1  2  1  0
  2  3  1  0
  3  4  1  0
  4  5  1  0
  5  6  1  0
  6  7  2  0
  7  8  1  0
  8  9  1  0
  9 10  1  0
 10 11  2  0
 10 12  1  0
 12 13  1  0
 13 14  2  0
 14 15  1  0
 15 16  2  0
 16 17  1  0
 17 18  2  0
  9 19  2  0
 19  6  1  0
 18 13  1  0
  1 20  1  0
  1 21  1  0
  1 22  1  0
  2 23  1  0
  2 24  1  0
  3 25  1  0
  3 26  1  0
  4 27  1  0
  5 28  1  0
  5 29  1  0
  7 30  1  0
 14 31  1  0
 15 32  1  0
 16 33  1  0
 17 34  1  0
 18 35  1  0
 19 36  1  0
M  CHG  1  12  -1
M  END
>  <UniqueID>  (37) 
33

>  <SMILES>  (37) 
CCCNCc1csc(C(=O)[N-]c2ccccc2)c1

>  <Energy>  (37) 
59.16785137619738

>  <Genealogy>  (37) 
CCCNCc1csc(C(=O)[N-]c2ccccc2)c1 (protonated)
CCCNCc1csc(C(=O)[N-]c2ccccc2)c1 (3D coordinates assigned)
CCCNCc1csc(C(=O)[N-]c2ccccc2)c1 (optimized conformer: 59.16785137619738 kcal/mol)

>  <smiles>  (37) 
CCCNCc1csc(C(=O)Nc2ccccc2)c1

>  <score_type>  (37) 
oracle

>  <origin>  (37) 
adg

>  <m_score__min__energy>  (37) 
-8.4900000000000002

>  <m_primary>  (37) 
energy

$$$$
37:0
     RDKit          3D

 50 52  0  0  0  0  0  0  0  0999 V2000
   58.8950   29.4660   49.5210 C   0  0  0  0  0  0  0  0  0  0  0  0
   59.8940   30.3870   50.2060 C   0  0  0  0  0  0  0  0  0  0  0  0
   60.0170   31.6410   49.4740 N   0  0  0  0  0  0  0  0  0  0  0  0
   58.9030   32.3730   48.9630 C   0  0  0  0  0  0  0  0  0  0  0  0
   57.8080   32.3650   49.5890 O   0  0  0  0  0  0  0  0  0  0  0  0
   59.0610   33.1120   47.6530 C   0  0  1  0  0  0  0  0  0  0  0  0
   60.1020   32.4140   46.7560 C   0  0  0  0  0  0  0  0  0  0  0  0
   59.5550   31.1860   45.9890 C   0  0  1  0  0  0  0  0  0  0  0  0
   60.0640   29.8520   46.5630 C   0  0  0  0  0  0  0  0  0  0  0  0
   59.3950   28.6530   45.9200 C   0  0  0  0  0  0  0  0  0  0  0  0
   59.9480   27.3830   46.1290 C   0  0  0  0  0  0  0  0  0  0  0  0
   59.3270   26.2430   45.6150 C   0  0  0  0  0  0  0  0  0  0  0  0
   58.1340   26.3510   44.8740 C   0  0  0  0  0  0  0  0  0  0  0  0
   57.4290   25.1680   44.3210 C   0  0  0  0  0  0  0  0  0  0  0  0
   56.3060   24.6560   44.8410 C   0  0  0  0  0  0  0  0  0  0  0  0
   55.6640   25.2270   46.0360 C   0  0  0  0  0  0  0  0  0  0  0  0
   54.7850   26.3400   45.8930 N   0  0  0  0  0  0  0  0  0  0  0  0
   55.8870   24.7520   47.1830 O   0  0  0  0  0  0  0  0  0  0  0  0
   57.5680   27.6170   44.6810 C   0  0  0  0  0  0  0  0  0  0  0  0
   58.1720   28.7670   45.2080 C   0  0  0  0  0  0  0  0  0  0  0  0
   57.5490   30.1150   44.9210 C   0  0  0  0  0  0  0  0  0  0  0  0
   58.0120   31.1530   45.9510 C   0  0  2  0  0  0  0  0  0  0  0  0
   57.4200   32.4950   45.7640 N   0  0  0  0  0  0  0  0  0  0  0  0
   57.7410   33.1330   44.4720 C   0  0  0  0  0  0  0  0  0  0  0  0
   57.7100   33.3920   46.9150 C   0  0  0  0  0  0  0  0  0  0  0  0
   58.3110   28.9276   50.2820 H   0  0  0  0  0  0  0  0  0  0  0  0
   58.2171   30.0626   48.8929 H   0  0  0  0  0  0  0  0  0  0  0  0
   59.4347   28.7420   48.8929 H   0  0  0  0  0  0  0  0  0  0  0  0
   59.5497   30.5974   51.2293 H   0  0  0  0  0  0  0  0  0  0  0  0
   60.8758   29.8916   50.2306 H   0  0  0  0  0  0  0  0  0  0  0  0
   59.4449   34.1130   47.8991 H   0  0  0  0  0  0  0  0  0  0  0  0
   60.4694   33.1448   46.0205 H   0  0  0  0  0  0  0  0  0  0  0  0
   60.8960   32.0439   47.4213 H   0  0  0  0  0  0  0  0  0  0  0  0
   59.9378   31.3011   44.9642 H   0  0  0  0  0  0  0  0  0  0  0  0
   61.1486   29.7850   46.3923 H   0  0  0  0  0  0  0  0  0  0  0  0
   59.8229   29.8350   47.6361 H   0  0  0  0  0  0  0  0  0  0  0  0
   60.8806   27.2829   46.7037 H   0  0  0  0  0  0  0  0  0  0  0  0
   59.7729   25.2528   45.7901 H   0  0  0  0  0  0  0  0  0  0  0  0
   57.8544   24.6824   43.4304 H   0  0  0  0  0  0  0  0  0  0  0  0
   55.8482   23.7796   44.3590 H   0  0  0  0  0  0  0  0  0  0  0  0
   54.7430   27.0850   46.6240 H   0  0  0  0  0  0  0  0  0  0  0  0
   56.6345   27.7107   44.1067 H   0  0  0  0  0  0  0  0  0  0  0  0
   57.8483   30.4450   43.9153 H   0  0  0  0  0  0  0  0  0  0  0  0
   56.4547   30.0201   44.9799 H   0  0  0  0  0  0  0  0  0  0  0  0
   57.6345   30.8326   46.9333 H   0  0  0  0  0  0  0  0  0  0  0  0
   58.2287   34.1023   44.6528 H   0  0  0  0  0  0  0  0  0  0  0  0
   58.4191   32.4824   43.9002 H   0  0  0  0  0  0  0  0  0  0  0  0
   56.8144   33.2897   43.9002 H   0  0  0  0  0  0  0  0  0  0  0  0
   57.7336   34.4268   46.5427 H   0  0  0  0  0  0  0  0  0  0  0  0
   56.9150   33.2089   47.6529 H   0  0  0  0  0  0  0  0  0  0  0  0
  1  2  1  0
  2  3  1  0
  3  4  1  0
  4  5  2  0
  4  6  1  0
  6  7  1  0
  7  8  1  0
  8  9  1  0
  9 10  1  0
 10 11  2  0
 11 12  1  0
 12 13  2  0
 13 14  1  0
 14 15  2  3
 15 16  1  0
 16 17  1  0
 16 18  2  0
 13 19  1  0
 19 20  2  0
 20 21  1  0
 21 22  1  0
 22 23  1  0
 23 24  1  0
 23 25  1  0
 25  6  1  0
 22  8  1  0
 20 10  1  0
  1 26  1  0
  1 27  1  0
  1 28  1  0
  2 29  1  0
  2 30  1  0
  6 31  1  1
  7 32  1  0
  7 33  1  0
  8 34  1  6
  9 35  1  0
  9 36  1  0
 11 37  1  0
 12 38  1  0
 14 39  1  0
 15 40  1  0
 17 41  1  0
 19 42  1  0
 21 43  1  0
 21 44  1  0
 22 45  1  1
 24 46  1  0
 24 47  1  0
 24 48  1  0
 25 49  1  0
 25 50  1  0
M  CHG  2   3  -1  17  -1
M  END
>  <UniqueID>  (38) 
34

>  <SMILES>  (38) 
CC[N-]C(=O)[C@H]1C[C@H]2Cc3ccc(C=CC([NH-])=O)cc3CC2N(C)C1

>  <Energy>  (38) 
64.71098708197628

>  <Genealogy>  (38) 
CC[N-]C(=O)C1CC2Cc3ccc(C=CC([NH-])=O)cc3CC2N(C)C1 (protonated)
CC[N-]C(=O)[C@H]1C[C@H]2Cc3ccc(C=CC([NH-])=O)cc3CC2N(C)C1 (chirality)
CC[N-]C(=O)[C@H]1C[C@H]2Cc3ccc(C=CC([NH-])=O)cc3CC2N(C)C1 (3D coordinates assigned)
CC[N-]C(=O)[C@H]1C[C@H]2Cc3ccc(C=CC([NH-])=O)cc3CC2N(C)C1 (nonaromatic ring conformer: 64.71098708197628 kcal/mol)

>  <smiles>  (38) 
CCNC(=O)C1CC2Cc3ccc(C=CC(N)=O)cc3CC2N(C)C1

>  <score_type>  (38) 
oracle

>  <origin>  (38) 
adg

>  <m_score__min__energy>  (38) 
-12.48

>  <m_primary>  (38) 
energy

$$$$
38:0
     RDKit          3D

 51 54  0  0  0  0  0  0  0  0999 V2000
   56.1660   29.6240   52.7570 C   0  0  0  0  0  0  0  0  0  0  0  0
   57.0940   29.8420   51.6990 O   0  0  0  0  0  0  0  0  0  0  0  0
   57.8160   31.0300   51.5070 C   0  0  0  0  0  0  0  0  0  0  0  0
   58.1980   31.7600   52.6360 C   0  0  0  0  0  0  0  0  0  0  0  0
   58.9170   32.9480   52.4980 C   0  0  0  0  0  0  0  0  0  0  0  0
   59.2650   33.4180   51.2310 C   0  0  0  0  0  0  0  0  0  0  0  0
   58.8950   32.7000   50.0780 C   0  0  0  0  0  0  0  0  0  0  0  0
   59.2590   33.1910   48.7230 C   0  0  0  0  0  0  0  0  0  0  0  0
   58.5180   33.0380   47.5510 C   0  0  0  0  0  0  0  0  0  0  0  0
   59.1230   33.6100   46.4190 C   0  0  0  0  0  0  0  0  0  0  0  0
   58.4960   33.5980   45.0790 C   0  0  0  0  0  0  0  0  0  0  0  0
   59.0610   34.2080   44.1310 O   0  0  0  0  0  0  0  0  0  0  0  0
   57.2970   32.8590   44.8030 N   0  0  0  0  0  0  0  0  0  0  0  0
   57.2090   31.5670   44.6870 C   0  0  0  0  0  0  0  0  0  0  0  0
   57.6430   30.7790   45.7060 N   0  0  0  0  0  0  0  0  0  0  0  0
   57.6010   29.4180   45.6360 C   0  0  0  0  0  0  0  0  0  0  0  0
   58.0630   28.6570   46.7860 N   0  0  1  0  0  0  0  0  0  0  0  0
   58.0370   27.2310   46.6740 C   0  0  0  0  0  0  0  0  0  0  0  0
   57.0470   26.5880   46.2310 O   0  0  0  0  0  0  0  0  0  0  0  0
   59.1100   26.6080   47.2710 O   0  0  0  0  0  0  0  0  0  0  0  0
   59.9290   27.5830   47.8840 C   0  0  0  0  0  0  0  0  0  0  0  0
   59.4520   28.9220   47.2680 C   0  0  1  0  0  0  0  0  0  0  0  0
   60.4920   29.4530   46.2230 C   0  0  1  0  0  0  0  0  0  0  0  0
   60.5320   28.6950   44.8840 C   0  0  0  0  0  0  0  0  0  0  0  0
   60.3110   30.8280   46.0020 O   0  0  0  0  0  0  0  0  0  0  0  0
   57.0730   28.8220   44.4720 C   0  0  0  0  0  0  0  0  0  0  0  0
   56.6440   29.6440   43.4320 C   0  0  0  0  0  0  0  0  0  0  0  0
   56.7240   30.9920   43.5530 N   0  0  0  0  0  0  0  0  0  0  0  0
   60.3380   34.2340   46.6970 C   0  0  0  0  0  0  0  0  0  0  0  0
   60.6540   34.0550   48.3350 S   0  0  0  0  0  0  0  0  0  0  0  0
   58.1650   31.5040   50.2280 C   0  0  0  0  0  0  0  0  0  0  0  0
   56.6771   29.7441   53.7236 H   0  0  0  0  0  0  0  0  0  0  0  0
   55.3466   30.3541   52.6823 H   0  0  0  0  0  0  0  0  0  0  0  0
   55.7574   28.6054   52.6823 H   0  0  0  0  0  0  0  0  0  0  0  0
   57.9304   31.3960   53.6390 H   0  0  0  0  0  0  0  0  0  0  0  0
   59.2109   33.5168   53.3925 H   0  0  0  0  0  0  0  0  0  0  0  0
   59.8320   34.3554   51.1326 H   0  0  0  0  0  0  0  0  0  0  0  0
   57.5495   32.5176   47.5162 H   0  0  0  0  0  0  0  0  0  0  0  0
   57.4100   28.8820   47.5730 H   0  0  0  0  0  0  0  0  0  0  0  0
   59.7863   27.5826   48.9747 H   0  0  0  0  0  0  0  0  0  0  0  0
   61.0004   27.3997   47.7153 H   0  0  0  0  0  0  0  0  0  0  0  0
   59.4020   29.7625   47.9758 H   0  0  0  0  0  0  0  0  0  0  0  0
   61.4726   29.2640   46.6841 H   0  0  0  0  0  0  0  0  0  0  0  0
   60.5891   27.6135   45.0765 H   0  0  0  0  0  0  0  0  0  0  0  0
   59.6209   28.9176   44.3093 H   0  0  0  0  0  0  0  0  0  0  0  0
   61.4147   29.0122   44.3093 H   0  0  0  0  0  0  0  0  0  0  0  0
   59.4360   30.9390   45.5470 H   0  0  0  0  0  0  0  0  0  0  0  0
   57.0011   27.7277   44.3867 H   0  0  0  0  0  0  0  0  0  0  0  0
   56.2397   29.1985   42.5111 H   0  0  0  0  0  0  0  0  0  0  0  0
   60.9784   34.7535   45.9690 H   0  0  0  0  0  0  0  0  0  0  0  0
   57.8646   30.9345   49.3361 H   0  0  0  0  0  0  0  0  0  0  0  0
  1  2  1  0
  2  3  1  0
  3  4  2  0
  4  5  1  0
  5  6  2  0
  6  7  1  0
  7  8  1  0
  8  9  2  0
  9 10  1  0
 10 11  1  0
 11 12  2  0
 11 13  1  0
 13 14  2  3
 14 15  1  0
 15 16  2  0
 16 17  1  0
 17 18  1  0
 18 19  2  0
 18 20  1  0
 20 21  1  0
 21 22  1  0
 22 23  1  0
 23 24  1  0
 23 25  1  0
 16 26  1  0
 26 27  2  0
 27 28  1  0
 10 29  2  0
 29 30  1  0
  7 31  2  0
 31  3  1  0
 30  8  1  0
 28 14  1  0
 22 17  1  0
  1 32  1  0
  1 33  1  0
  1 34  1  0
  4 35  1  0
  5 36  1  0
  6 37  1  0
  9 38  1  0
 17 39  1  1
 21 40  1  0
 21 41  1  0
 22 42  1  1
 23 43  1  1
 24 44  1  0
 24 45  1  0
 24 46  1  0
 25 47  1  0
 26 48  1  0
 27 49  1  0
 29 50  1  0
 31 51  1  0
M  CHG  2  17   1  28  -1
M  END
>  <UniqueID>  (39) 
35

>  <SMILES>  (39) 
COc1cccc(-c2cc(C(=O)N=c3nc([N@H+]4C(=O)OC[C@H]4C(C)O)cc[n-]3)cs2)c1

>  <Energy>  (39) 
116.85349184641946

>  <Genealogy>  (39) 
COc1cccc(-c2cc(C(=O)N=c3nc([NH+]4C(=O)OCC4C(C)O)cc[n-]3)cs2)c1 (protonated)
COc1cccc(-c2cc(C(=O)N=c3nc([N@H+]4C(=O)OC[C@H]4C(C)O)cc[n-]3)cs2)c1 (chirality)
COc1cccc(-c2cc(C(=O)N=c3nc([N@H+]4C(=O)OC[C@H]4C(C)O)cc[n-]3)cs2)c1 (3D coordinates assigned)
COc1cccc(-c2cc(C(=O)N=c3nc([N@H+]4C(=O)OC[C@H]4C(C)O)cc[n-]3)cs2)c1 (nonaromatic ring conformer: 116.85349184641946 kcal/mol)

>  <smiles>  (39) 
COc1cccc(-c2cc(C(=O)N=c3nc(N4C(=O)OCC4C(C)O)cc[nH]3)cs2)c1

>  <score_type>  (39) 
oracle

>  <origin>  (39) 
adg

>  <m_score__min__energy>  (39) 
-8.5099999999999998

>  <m_primary>  (39) 
energy

$$$$
39:0
     RDKit          3D

 36 38  0  0  0  0  0  0  0  0999 V2000
   56.5920   23.4730   48.2480 C   0  0  0  0  0  0  0  0  0  0  0  0
   57.4700   23.8910   47.2080 O   0  0  0  0  0  0  0  0  0  0  0  0
   57.5150   25.1910   46.6790 C   0  0  0  0  0  0  0  0  0  0  0  0
   58.7130   25.9220   46.5970 C   0  0  0  0  0  0  0  0  0  0  0  0
   58.7200   27.2130   46.0670 C   0  0  0  0  0  0  0  0  0  0  0  0
   57.5320   27.8060   45.6090 C   0  0  0  0  0  0  0  0  0  0  0  0
   57.5660   29.1820   45.0460 C   0  0  0  0  0  0  0  0  0  0  0  0
   57.0240   29.5430   43.8090 C   0  0  0  0  0  0  0  0  0  0  0  0
   57.2790   31.1890   43.5920 S   0  0  0  0  0  0  0  0  0  0  0  0
   58.0610   31.3880   45.0680 C   0  0  0  0  0  0  0  0  0  0  0  0
   58.6020   32.6620   45.5950 C   0  0  0  0  0  0  0  0  0  0  0  0
   58.7420   33.7720   44.7450 C   0  0  0  0  0  0  0  0  0  0  0  0
   59.2530   34.9680   45.2500 C   0  0  0  0  0  0  0  0  0  0  0  0
   59.6220   35.0530   46.5910 C   0  0  0  0  0  0  0  0  0  0  0  0
   59.4730   33.9360   47.4130 C   0  0  0  0  0  0  0  0  0  0  0  0
   58.9720   32.7740   46.9080 N   0  0  0  0  0  0  0  0  0  0  0  0
   58.1320   30.2140   45.7330 N   0  0  0  0  0  0  0  0  0  0  0  0
   56.3350   27.0690   45.6850 C   0  0  0  0  0  0  0  0  0  0  0  0
   56.3220   25.7660   46.2190 C   0  0  0  0  0  0  0  0  0  0  0  0
   55.1420   25.0080   46.3080 O   0  0  0  0  0  0  0  0  0  0  0  0
   54.6930   24.0900   45.3170 C   0  0  0  0  0  0  0  0  0  0  0  0
   57.0499   23.6910   49.2241 H   0  0  0  0  0  0  0  0  0  0  0  0
   55.6378   24.0135   48.1617 H   0  0  0  0  0  0  0  0  0  0  0  0
   56.4100   22.3916   48.1617 H   0  0  0  0  0  0  0  0  0  0  0  0
   59.6519   25.4731   46.9532 H   0  0  0  0  0  0  0  0  0  0  0  0
   59.6656   27.7719   46.0073 H   0  0  0  0  0  0  0  0  0  0  0  0
   56.5193   28.8679   43.1022 H   0  0  0  0  0  0  0  0  0  0  0  0
   58.4503   33.6984   43.6869 H   0  0  0  0  0  0  0  0  0  0  0  0
   59.3643   35.8418   44.5911 H   0  0  0  0  0  0  0  0  0  0  0  0
   60.0268   35.9917   46.9973 H   0  0  0  0  0  0  0  0  0  0  0  0
   59.7611   33.9935   48.4730 H   0  0  0  0  0  0  0  0  0  0  0  0
   58.8770   31.9620   47.5570 H   0  0  0  0  0  0  0  0  0  0  0  0
   55.3978   27.5166   45.3226 H   0  0  0  0  0  0  0  0  0  0  0  0
   54.2601   23.2050   45.8063 H   0  0  0  0  0  0  0  0  0  0  0  0
   53.9291   24.5724   44.6895 H   0  0  0  0  0  0  0  0  0  0  0  0
   55.5428   23.7832   44.6895 H   0  0  0  0  0  0  0  0  0  0  0  0
  1  2  1  0
  2  3  1  0
  3  4  2  0
  4  5  1  0
  5  6  2  0
  6  7  1  0
  7  8  2  0
  8  9  1  0
  9 10  1  0
 10 11  1  0
 11 12  2  0
 12 13  1  0
 13 14  2  0
 14 15  1  0
 15 16  2  0
 10 17  2  0
  6 18  1  0
 18 19  2  0
 19 20  1  0
 20 21  1  0
 19  3  1  0
 17  7  1  0
 16 11  1  0
  1 22  1  0
  1 23  1  0
  1 24  1  0
  4 25  1  0
  5 26  1  0
  8 27  1  0
 12 28  1  0
 13 29  1  0
 14 30  1  0
 15 31  1  0
 16 32  1  0
 18 33  1  0
 21 34  1  0
 21 35  1  0
 21 36  1  0
M  CHG  1  16   1
M  END
>  <UniqueID>  (40) 
36

>  <SMILES>  (40) 
COc1ccc(-c2csc(-c3cccc[nH+]3)n2)cc1OC

>  <Energy>  (40) 
70.27586900594

>  <Genealogy>  (40) 
COc1ccc(-c2csc(-c3cccc[nH+]3)n2)cc1OC (protonated)
COc1ccc(-c2csc(-c3cccc[nH+]3)n2)cc1OC (3D coordinates assigned)
COc1ccc(-c2csc(-c3cccc[nH+]3)n2)cc1OC (optimized conformer: 70.27586900594 kcal/mol)

>  <smiles>  (40) 
COc1ccc(-c2csc(-c3ccccn3)n2)cc1OC

>  <score_type>  (40) 
oracle

>  <origin>  (40) 
adg

>  <m_score__min__energy>  (40) 
-5.1799999999999997

>  <m_primary>  (40) 
energy

$$$$
40:0
     RDKit          3D

 35 36  0  0  0  0  0  0  0  0999 V2000
   59.8700   33.9040   49.3680 C   0  0  0  0  0  0  0  0  0  0  0  0
   61.1660   34.1950   48.6040 C   0  0  0  0  0  0  0  0  0  0  0  0
   61.2540   33.5290   47.2810 N   0  0  0  0  0  0  0  0  0  0  0  0
   62.5150   33.8590   46.5680 C   0  0  0  0  0  0  0  0  0  0  0  0
   63.7170   33.0800   47.1150 C   0  0  0  0  0  0  0  0  0  0  0  0
   60.0270   33.7070   46.5140 C   0  0  0  0  0  0  0  0  0  0  0  0
   59.6510   34.8810   46.2430 O   0  0  0  0  0  0  0  0  0  0  0  0
   59.1230   32.6010   46.1160 C   0  0  0  0  0  0  0  0  0  0  0  0
   58.0070   32.7830   45.4000 C   0  0  0  0  0  0  0  0  0  0  0  0
   57.4070   31.4770   45.1280 C   0  0  0  0  0  0  0  0  0  0  0  0
   56.3440   31.2700   44.4860 O   0  0  0  0  0  0  0  0  0  0  0  0
   58.2750   30.4730   45.7170 C   0  0  0  0  0  0  0  0  0  0  0  0
   58.2320   29.0760   45.7230 C   0  0  0  0  0  0  0  0  0  0  0  0
   57.1090   28.3230   45.0740 C   0  0  0  0  0  0  0  0  0  0  0  0
   59.3020   28.4020   46.3470 C   0  0  0  0  0  0  0  0  0  0  0  0
   60.3560   29.1410   46.9230 C   0  0  0  0  0  0  0  0  0  0  0  0
   60.3500   30.5050   46.8850 N   0  0  0  0  0  0  0  0  0  0  0  0
   59.3120   31.1560   46.3020 C   0  0  0  0  0  0  0  0  0  0  0  0
   60.0644   33.9477   50.4498 H   0  0  0  0  0  0  0  0  0  0  0  0
   59.1108   34.6540   49.1013 H   0  0  0  0  0  0  0  0  0  0  0  0
   59.5044   32.9014   49.1013 H   0  0  0  0  0  0  0  0  0  0  0  0
   61.2386   35.2816   48.4489 H   0  0  0  0  0  0  0  0  0  0  0  0
   61.9895   33.7960   49.2144 H   0  0  0  0  0  0  0  0  0  0  0  0
   61.3010   32.5050   47.5010 H   0  0  0  0  0  0  0  0  0  0  0  0
   62.3921   33.6162   45.5022 H   0  0  0  0  0  0  0  0  0  0  0  0
   62.7139   34.9306   46.7170 H   0  0  0  0  0  0  0  0  0  0  0  0
   63.6940   33.0949   48.2147 H   0  0  0  0  0  0  0  0  0  0  0  0
   63.6712   32.0394   46.7614 H   0  0  0  0  0  0  0  0  0  0  0  0
   64.6482   33.5468   46.7614 H   0  0  0  0  0  0  0  0  0  0  0  0
   57.6074   33.7535   45.0708 H   0  0  0  0  0  0  0  0  0  0  0  0
   56.4617   27.8890   45.8503 H   0  0  0  0  0  0  0  0  0  0  0  0
   56.5206   29.0098   44.4479 H   0  0  0  0  0  0  0  0  0  0  0  0
   57.5210   27.5179   44.4479 H   0  0  0  0  0  0  0  0  0  0  0  0
   59.3145   27.3027   46.3844 H   0  0  0  0  0  0  0  0  0  0  0  0
   61.1906   28.6130   47.4074 H   0  0  0  0  0  0  0  0  0  0  0  0
  1  2  1  0
  2  3  1  0
  3  4  1  0
  4  5  1  0
  3  6  1  0
  6  7  2  0
  6  8  1  0
  8  9  2  0
  9 10  1  0
 10 11  2  0
 10 12  1  0
 12 13  2  0
 13 14  1  0
 13 15  1  0
 15 16  2  0
 16 17  1  0
 17 18  2  0
 18  8  1  0
 18 12  1  0
  1 19  1  0
  1 20  1  0
  1 21  1  0
  2 22  1  0
  2 23  1  0
  3 24  1  0
  4 25  1  0
  4 26  1  0
  5 27  1  0
  5 28  1  0
  5 29  1  0
  9 30  1  0
 14 31  1  0
 14 32  1  0
 14 33  1  0
 15 34  1  0
 16 35  1  0
M  CHG  1   3   1
M  END
>  <UniqueID>  (41) 
37

>  <SMILES>  (41) 
CC[NH+](CC)C(=O)C1=CC(=O)c2c(C)ccnc21

>  <Energy>  (41) 
76.24261255838194

>  <Genealogy>  (41) 
CC[NH+](CC)C(=O)C1=CC(=O)c2c(C)ccnc21 (protonated)
CC[NH+](CC)C(=O)C1=CC(=O)c2c(C)ccnc21 (3D coordinates assigned)
CC[NH+](CC)C(=O)C1=CC(=O)c2c(C)ccnc21 (nonaromatic ring conformer: 76.24261255838194 kcal/mol)

>  <smiles>  (41) 
CCN(CC)C(=O)C1=CC(=O)c2c(C)ccnc21

>  <score_type>  (41) 
oracle

>  <origin>  (41) 
adg

>  <m_score__min__energy>  (41) 
-5.3899999999999997

>  <m_primary>  (41) 
energy

$$$$
41:0
     RDKit          3D

 37 38  0  0  0  0  0  0  0  0999 V2000
   59.5080   28.5410   45.1530 C   0  0  0  0  0  0  0  0  0  0  0  0
   58.4710   28.0600   44.1510 C   0  0  0  0  0  0  0  0  0  0  0  0
   57.1690   28.1930   44.7110 O   0  0  0  0  0  0  0  0  0  0  0  0
   56.3920   29.3440   44.5530 C   0  0  0  0  0  0  0  0  0  0  0  0
   55.1740   29.3340   44.8760 O   0  0  0  0  0  0  0  0  0  0  0  0
   57.0100   30.5680   44.0070 C   0  0  0  0  0  0  0  0  0  0  0  0
   57.0030   30.8660   42.6330 C   0  0  0  0  0  0  0  0  0  0  0  0
   57.6320   32.0620   42.3120 C   0  0  0  0  0  0  0  0  0  0  0  0
   58.2010   32.7600   43.7300 S   0  0  0  0  0  0  0  0  0  0  0  0
   57.6550   31.5480   44.7650 C   0  0  0  0  0  0  0  0  0  0  0  0
   57.8120   31.5170   46.1920 N   0  0  0  0  0  0  0  0  0  0  0  0
   58.3830   32.5520   47.0050 C   0  0  0  0  0  0  0  0  0  0  0  0
   57.6680   33.1670   47.8390 O   0  0  0  0  0  0  0  0  0  0  0  0
   59.8160   32.9030   46.8680 C   0  0  0  0  0  0  0  0  0  0  0  0
   60.9280   32.1020   47.1150 C   0  0  0  0  0  0  0  0  0  0  0  0
   60.9600   30.6620   47.5440 C   0  0  0  0  0  0  0  0  0  0  0  0
   60.3030   30.4880   48.9080 C   0  0  0  0  0  0  0  0  0  0  0  0
   62.0370   32.8110   46.8320 N   0  0  0  0  0  0  0  0  0  0  0  0
   61.6770   33.9960   46.4410 O   0  0  0  0  0  0  0  0  0  0  0  0
   60.3690   34.1080   46.4440 C   0  0  0  0  0  0  0  0  0  0  0  0
   59.6510   35.3520   46.0410 C   0  0  0  0  0  0  0  0  0  0  0  0
   59.1380   28.3694   46.1746 H   0  0  0  0  0  0  0  0  0  0  0  0
   60.4461   27.9861   45.0047 H   0  0  0  0  0  0  0  0  0  0  0  0
   59.6903   29.6156   45.0047 H   0  0  0  0  0  0  0  0  0  0  0  0
   58.5391   28.6648   43.2347 H   0  0  0  0  0  0  0  0  0  0  0  0
   58.6588   27.0034   43.9093 H   0  0  0  0  0  0  0  0  0  0  0  0
   56.5409   30.2108   41.8799 H   0  0  0  0  0  0  0  0  0  0  0  0
   57.7394   32.4811   41.3006 H   0  0  0  0  0  0  0  0  0  0  0  0
   60.4203   30.0532   46.8036 H   0  0  0  0  0  0  0  0  0  0  0  0
   62.0091   30.3388   47.6146 H   0  0  0  0  0  0  0  0  0  0  0  0
   61.0422   30.6838   49.6987 H   0  0  0  0  0  0  0  0  0  0  0  0
   59.4663   31.1955   49.0049 H   0  0  0  0  0  0  0  0  0  0  0  0
   59.9262   29.4591   49.0049 H   0  0  0  0  0  0  0  0  0  0  0  0
   63.0260   32.4820   46.9000 H   0  0  0  0  0  0  0  0  0  0  0  0
   59.3345   35.9004   46.9405 H   0  0  0  0  0  0  0  0  0  0  0  0
   60.3224   35.9854   45.4427 H   0  0  0  0  0  0  0  0  0  0  0  0
   58.7667   35.0875   45.4427 H   0  0  0  0  0  0  0  0  0  0  0  0
  1  2  1  0
  2  3  1  0
  3  4  1  0
  4  5  2  0
  4  6  1  0
  6  7  1  0
  7  8  2  0
  8  9  1  0
  9 10  1  0
 10 11  1  0
 11 12  1  0
 12 13  2  0
 12 14  1  0
 14 15  1  0
 15 16  1  0
 16 17  1  0
 15 18  2  0
 18 19  1  0
 19 20  1  0
 20 21  1  0
 10  6  2  0
 20 14  2  0
  1 22  1  0
  1 23  1  0
  1 24  1  0
  2 25  1  0
  2 26  1  0
  7 27  1  0
  8 28  1  0
 16 29  1  0
 16 30  1  0
 17 31  1  0
 17 32  1  0
 17 33  1  0
 18 34  1  0
 21 35  1  0
 21 36  1  0
 21 37  1  0
M  CHG  2  11  -1  18   1
M  END
>  <UniqueID>  (42) 
38

>  <SMILES>  (42) 
CCOC(=O)c1ccsc1[N-]C(=O)c1c(CC)[nH+]oc1C

>  <Energy>  (42) 
86.71050247375534

>  <Genealogy>  (42) 
CCOC(=O)c1ccsc1[N-]C(=O)c1c(CC)[nH+]oc1C (protonated)
CCOC(=O)c1ccsc1[N-]C(=O)c1c(CC)[nH+]oc1C (3D coordinates assigned)
CCOC(=O)c1ccsc1[N-]C(=O)c1c(CC)[nH+]oc1C (optimized conformer: 86.71050247375534 kcal/mol)

>  <smiles>  (42) 
CCOC(=O)c1ccsc1NC(=O)c1c(CC)noc1C

>  <score_type>  (42) 
oracle

>  <origin>  (42) 
adg

>  <m_score__min__energy>  (42) 
-7.3600000000000003

>  <m_primary>  (42) 
energy

$$$$
42:0
     RDKit          3D

 50 53  0  0  0  0  0  0  0  0999 V2000
   58.1580   27.7120   43.8130 C   0  0  0  0  0  0  0  0  0  0  0  0
   57.6360   28.6470   44.8220 N   0  0  0  0  0  0  0  0  0  0  0  0
   58.6840   29.6150   45.2180 C   0  0  0  0  0  0  0  0  0  0  0  0
   58.0680   30.8800   45.8320 C   0  0  0  0  0  0  0  0  0  0  0  0
   57.1910   31.5980   44.8720 N   0  0  0  0  0  0  0  0  0  0  0  0
   57.8830   32.7590   44.2690 C   0  0  0  0  0  0  0  0  0  0  0  0
   57.4140   34.0860   44.8860 C   0  0  0  0  0  0  0  0  0  0  0  0
   57.6270   34.1020   46.2990 O   0  0  0  0  0  0  0  0  0  0  0  0
   58.8460   33.8470   46.9470 C   0  0  0  0  0  0  0  0  0  0  0  0
   58.8040   33.4360   48.2840 C   0  0  0  0  0  0  0  0  0  0  0  0
   59.9800   33.1610   48.9850 C   0  0  0  0  0  0  0  0  0  0  0  0
   61.2290   33.2990   48.3570 C   0  0  0  0  0  0  0  0  0  0  0  0
   62.4250   33.0260   49.0490 C   0  0  0  0  0  0  0  0  0  0  0  0
   63.6700   33.1550   48.3940 C   0  0  0  0  0  0  0  0  0  0  0  0
   63.7060   33.5970   47.0640 C   0  0  0  0  0  0  0  0  0  0  0  0
   62.5240   33.8710   46.3740 C   0  0  0  0  0  0  0  0  0  0  0  0
   61.2820   33.7230   47.0080 C   0  0  0  0  0  0  0  0  0  0  0  0
   60.0940   33.9980   46.3130 C   0  0  0  0  0  0  0  0  0  0  0  0
   64.9040   32.9290   49.1130 N   0  0  0  0  0  0  0  0  0  0  0  0
   64.7310   31.9810   50.2260 C   0  0  0  0  0  0  0  0  0  0  0  0
   63.5880   32.4310   51.1420 C   0  0  0  0  0  0  0  0  0  0  0  0
   62.3950   32.5950   50.3810 O   0  0  0  0  0  0  0  0  0  0  0  0
   56.6090   30.7110   43.8330 C   0  0  0  0  0  0  0  0  0  0  0  0
   56.3780   29.2880   44.3660 C   0  0  0  0  0  0  0  0  0  0  0  0
   58.6348   26.8580   44.3164 H   0  0  0  0  0  0  0  0  0  0  0  0
   57.3305   27.3517   43.1841 H   0  0  0  0  0  0  0  0  0  0  0  0
   58.8990   28.2273   43.1841 H   0  0  0  0  0  0  0  0  0  0  0  0
   59.3470   29.1432   45.9582 H   0  0  0  0  0  0  0  0  0  0  0  0
   59.2490   29.9036   44.3194 H   0  0  0  0  0  0  0  0  0  0  0  0
   57.4718   30.5933   46.7108 H   0  0  0  0  0  0  0  0  0  0  0  0
   58.8901   31.5559   46.1101 H   0  0  0  0  0  0  0  0  0  0  0  0
   58.9655   32.6529   44.4330 H   0  0  0  0  0  0  0  0  0  0  0  0
   57.6461   32.7785   43.1950 H   0  0  0  0  0  0  0  0  0  0  0  0
   57.9768   34.9132   44.4288 H   0  0  0  0  0  0  0  0  0  0  0  0
   56.3366   34.1979   44.6946 H   0  0  0  0  0  0  0  0  0  0  0  0
   57.8327   33.3282   48.7890 H   0  0  0  0  0  0  0  0  0  0  0  0
   59.9281   32.8347   50.0342 H   0  0  0  0  0  0  0  0  0  0  0  0
   64.6746   33.7291   46.5596 H   0  0  0  0  0  0  0  0  0  0  0  0
   62.5670   34.2050   45.3268 H   0  0  0  0  0  0  0  0  0  0  0  0
   60.1383   34.3336   45.2664 H   0  0  0  0  0  0  0  0  0  0  0  0
   65.6260   32.5410   48.4640 H   0  0  0  0  0  0  0  0  0  0  0  0
   65.2450   33.8460   49.4860 H   0  0  0  0  0  0  0  0  0  0  0  0
   64.4991   30.9851   49.8205 H   0  0  0  0  0  0  0  0  0  0  0  0
   65.6621   31.9452   50.8106 H   0  0  0  0  0  0  0  0  0  0  0  0
   63.4231   31.6712   51.9202 H   0  0  0  0  0  0  0  0  0  0  0  0
   63.8544   33.3900   51.6104 H   0  0  0  0  0  0  0  0  0  0  0  0
   55.6461   31.1297   43.5052 H   0  0  0  0  0  0  0  0  0  0  0  0
   57.3188   30.6526   42.9947 H   0  0  0  0  0  0  0  0  0  0  0  0
   55.6784   29.3368   45.2134 H   0  0  0  0  0  0  0  0  0  0  0  0
   55.9704   28.6822   43.5433 H   0  0  0  0  0  0  0  0  0  0  0  0
  1  2  1  0
  2  3  1  0
  3  4  1  0
  4  5  1  0
  5  6  1  0
  6  7  1  0
  7  8  1  0
  8  9  1  0
  9 10  2  0
 10 11  1  0
 11 12  2  0
 12 13  1  0
 13 14  2  0
 14 15  1  0
 15 16  2  0
 16 17  1  0
 17 18  2  0
 14 19  1  0
 19 20  1  0
 20 21  1  0
 21 22  1  0
  5 23  1  0
 23 24  1  0
 24  2  1  0
 18  9  1  0
 17 12  1  0
 22 13  1  0
  1 25  1  0
  1 26  1  0
  1 27  1  0
  3 28  1  0
  3 29  1  0
  4 30  1  0
  4 31  1  0
  6 32  1  0
  6 33  1  0
  7 34  1  0
  7 35  1  0
 10 36  1  0
 11 37  1  0
 15 38  1  0
 16 39  1  0
 18 40  1  0
 19 41  1  0
 19 42  1  0
 20 43  1  0
 20 44  1  0
 21 45  1  0
 21 46  1  0
 23 47  1  0
 23 48  1  0
 24 49  1  0
 24 50  1  0
M  CHG  1  19   1
M  END
>  <UniqueID>  (43) 
39

>  <SMILES>  (43) 
CN1CCN(CCOc2ccc3c4c(ccc3c2)[NH2+]CCO4)CC1

>  <Energy>  (43) 
70.40748672383502

>  <Genealogy>  (43) 
CN1CCN(CCOc2ccc3c4c(ccc3c2)[NH2+]CCO4)CC1 (protonated)
CN1CCN(CCOc2ccc3c4c(ccc3c2)[NH2+]CCO4)CC1 (3D coordinates assigned)
CN1CCN(CCOc2ccc3c4c(ccc3c2)[NH2+]CCO4)CC1 (nonaromatic ring conformer: 70.40748672383502 kcal/mol)

>  <smiles>  (43) 
CN1CCN(CCOc2ccc3c4c(ccc3c2)NCCO4)CC1

>  <score_type>  (43) 
oracle

>  <origin>  (43) 
adg

>  <m_score__min__energy>  (43) 
-7.46

>  <m_primary>  (43) 
energy

$$$$
43:0
     RDKit          3D

 42 44  0  0  0  0  0  0  0  0999 V2000
   58.1280   32.3790   42.1600 C   0  0  0  0  0  0  0  0  0  0  0  0
   57.5410   31.3400   43.0790 C   0  0  0  0  0  0  0  0  0  0  0  0
   56.6100   30.4220   42.5570 C   0  0  0  0  0  0  0  0  0  0  0  0
   56.0520   29.4350   43.3700 C   0  0  0  0  0  0  0  0  0  0  0  0
   56.4160   29.3450   44.7120 C   0  0  0  0  0  0  0  0  0  0  0  0
   57.3350   30.2480   45.2490 C   0  0  0  0  0  0  0  0  0  0  0  0
   57.9020   31.2580   44.4500 C   0  0  0  0  0  0  0  0  0  0  0  0
   58.8930   32.2030   45.0980 C   0  0  0  0  0  0  0  0  0  0  0  0
   58.2250   33.4660   45.4860 N   0  0  0  0  0  0  0  0  0  0  0  0
   59.0510   34.6640   45.1760 C   0  0  0  0  0  0  0  0  0  0  0  0
   59.7900   35.2470   46.3970 C   0  0  0  0  0  0  0  0  0  0  0  0
   60.0720   34.1920   47.3760 N   0  0  0  0  0  0  0  0  0  0  0  0
   61.4130   33.9400   47.8430 C   0  0  0  0  0  0  0  0  0  0  0  0
   61.7420   34.1240   49.1980 C   0  0  0  0  0  0  0  0  0  0  0  0
   63.0380   33.8610   49.6530 C   0  0  0  0  0  0  0  0  0  0  0  0
   64.0130   33.4040   48.7650 C   0  0  0  0  0  0  0  0  0  0  0  0
   65.2680   33.1470   49.2090 F   0  0  0  0  0  0  0  0  0  0  0  0
   63.6960   33.2080   47.4180 C   0  0  0  0  0  0  0  0  0  0  0  0
   62.4010   33.4720   46.9590 C   0  0  0  0  0  0  0  0  0  0  0  0
   58.9530   33.3820   47.8710 C   0  0  0  0  0  0  0  0  0  0  0  0
   57.7680   33.4400   46.8920 C   0  0  0  0  0  0  0  0  0  0  0  0
   58.5821   33.1829   42.7580 H   0  0  0  0  0  0  0  0  0  0  0  0
   58.8972   31.9147   41.5254 H   0  0  0  0  0  0  0  0  0  0  0  0
   57.3333   32.7983   41.5254 H   0  0  0  0  0  0  0  0  0  0  0  0
   56.3197   30.4835   41.4978 H   0  0  0  0  0  0  0  0  0  0  0  0
   55.3229   28.7261   42.9505 H   0  0  0  0  0  0  0  0  0  0  0  0
   55.9788   28.5618   45.3487 H   0  0  0  0  0  0  0  0  0  0  0  0
   57.6192   30.1692   46.3087 H   0  0  0  0  0  0  0  0  0  0  0  0
   59.3152   31.7261   45.9948 H   0  0  0  0  0  0  0  0  0  0  0  0
   59.6930   32.4295   44.3777 H   0  0  0  0  0  0  0  0  0  0  0  0
   59.7992   34.3826   44.4204 H   0  0  0  0  0  0  0  0  0  0  0  0
   58.3616   35.4430   44.8185 H   0  0  0  0  0  0  0  0  0  0  0  0
   60.7376   35.6971   46.0661 H   0  0  0  0  0  0  0  0  0  0  0  0
   59.1532   36.0101   46.8684 H   0  0  0  0  0  0  0  0  0  0  0  0
   60.9756   34.4768   49.9039 H   0  0  0  0  0  0  0  0  0  0  0  0
   63.2894   34.0146   50.7128 H   0  0  0  0  0  0  0  0  0  0  0  0
   64.4644   32.8463   46.7189 H   0  0  0  0  0  0  0  0  0  0  0  0
   62.1541   33.3123   45.8990 H   0  0  0  0  0  0  0  0  0  0  0  0
   59.2823   32.3380   47.9786 H   0  0  0  0  0  0  0  0  0  0  0  0
   58.6293   33.7811   48.8436 H   0  0  0  0  0  0  0  0  0  0  0  0
   57.1345   32.5539   47.0452 H   0  0  0  0  0  0  0  0  0  0  0  0
   57.2044   34.3641   47.0880 H   0  0  0  0  0  0  0  0  0  0  0  0
  1  2  1  0
  2  3  2  0
  3  4  1  0
  4  5  2  0
  5  6  1  0
  6  7  2  0
  7  8  1  0
  8  9  1  0
  9 10  1  0
 10 11  1  0
 11 12  1  0
 12 13  1  0
 13 14  2  0
 14 15  1  0
 15 16  2  0
 16 17  1  0
 16 18  1  0
 18 19  2  0
 12 20  1  0
 20 21  1  0
  7  2  1  0
 21  9  1  0
 19 13  1  0
  1 22  1  0
  1 23  1  0
  1 24  1  0
  3 25  1  0
  4 26  1  0
  5 27  1  0
  6 28  1  0
  8 29  1  0
  8 30  1  0
 10 31  1  0
 10 32  1  0
 11 33  1  0
 11 34  1  0
 14 35  1  0
 15 36  1  0
 18 37  1  0
 19 38  1  0
 20 39  1  0
 20 40  1  0
 21 41  1  0
 21 42  1  0
M  END
>  <UniqueID>  (44) 
40

>  <SMILES>  (44) 
Cc1ccccc1CN1CCN(c2ccc(F)cc2)CC1

>  <Energy>  (44) 
56.08153849818346

>  <Genealogy>  (44) 
Cc1ccccc1CN1CCN(c2ccc(F)cc2)CC1 (3D coordinates assigned)
Cc1ccccc1CN1CCN(c2ccc(F)cc2)CC1 (nonaromatic ring conformer: 56.08153849818346 kcal/mol)

>  <smiles>  (44) 
Cc1ccccc1CN1CCN(c2ccc(F)cc2)CC1

>  <score_type>  (44) 
oracle

>  <origin>  (44) 
adg

>  <m_score__min__energy>  (44) 
-7.7599999999999998

>  <m_primary>  (44) 
energy

$$$$
44:0
     RDKit          3D

 43 45  0  0  0  0  0  0  0  0999 V2000
   57.0110   28.2140   45.4340 C   0  0  0  0  0  0  0  0  0  0  0  0
   56.2980   29.4000   45.0990 O   0  0  0  0  0  0  0  0  0  0  0  0
   56.8380   30.4670   44.3650 C   0  0  0  0  0  0  0  0  0  0  0  0
   56.8470   30.4830   42.9570 C   0  0  0  0  0  0  0  0  0  0  0  0
   57.3790   31.5770   42.2710 C   0  0  0  0  0  0  0  0  0  0  0  0
   57.9080   32.6590   42.9770 C   0  0  0  0  0  0  0  0  0  0  0  0
   57.9220   32.6510   44.3800 C   0  0  0  0  0  0  0  0  0  0  0  0
   58.4730   33.7660   45.1000 N   0  0  0  0  0  0  0  0  0  0  0  0
   59.3130   34.6960   44.6020 C   0  0  0  0  0  0  0  0  0  0  0  0
   59.6720   35.5520   45.6220 C   0  0  0  0  0  0  0  0  0  0  0  0
   59.0680   35.1490   46.7540 N   0  0  0  0  0  0  0  0  0  0  0  0
   58.3450   34.0660   46.4130 C   0  0  0  0  0  0  0  0  0  0  0  0
   57.4300   33.0900   47.6180 S   0  0  0  0  0  0  0  0  0  0  0  0
   58.9000   32.2200   48.2640 C   0  0  0  0  0  0  0  0  0  0  0  0
   60.0400   33.1750   48.4920 C   0  0  0  0  0  0  0  0  0  0  0  0
   59.8430   34.1820   49.2240 O   0  0  0  0  0  0  0  0  0  0  0  0
   61.3360   32.9790   47.8870 N   0  0  0  0  0  0  0  0  0  0  0  0
   61.7680   31.6480   47.4400 C   0  0  0  0  0  0  0  0  0  0  0  0
   63.2970   31.5570   47.4420 C   0  0  0  0  0  0  0  0  0  0  0  0
   63.8650   32.6390   46.7320 O   0  0  0  0  0  0  0  0  0  0  0  0
   63.5930   33.8470   47.4160 C   0  0  0  0  0  0  0  0  0  0  0  0
   62.0910   34.1460   47.4160 C   0  0  0  0  0  0  0  0  0  0  0  0
   57.3760   31.5540   45.0660 C   0  0  0  0  0  0  0  0  0  0  0  0
   57.0689   28.1177   46.5282 H   0  0  0  0  0  0  0  0  0  0  0  0
   56.4877   27.3412   45.0163 H   0  0  0  0  0  0  0  0  0  0  0  0
   58.0272   28.2668   45.0163 H   0  0  0  0  0  0  0  0  0  0  0  0
   56.4340   29.6317   42.3960 H   0  0  0  0  0  0  0  0  0  0  0  0
   57.3812   31.5862   41.1710 H   0  0  0  0  0  0  0  0  0  0  0  0
   58.3159   33.5222   42.4306 H   0  0  0  0  0  0  0  0  0  0  0  0
   59.6543   34.7609   43.5583 H   0  0  0  0  0  0  0  0  0  0  0  0
   60.3410   36.4199   45.5257 H   0  0  0  0  0  0  0  0  0  0  0  0
   59.1710   35.5680   47.7050 H   0  0  0  0  0  0  0  0  0  0  0  0
   58.6407   31.7364   49.2174 H   0  0  0  0  0  0  0  0  0  0  0  0
   59.2156   31.4710   47.5228 H   0  0  0  0  0  0  0  0  0  0  0  0
   61.3582   30.8863   48.1196 H   0  0  0  0  0  0  0  0  0  0  0  0
   61.4007   31.4773   46.4173 H   0  0  0  0  0  0  0  0  0  0  0  0
   63.6582   31.5780   48.4808 H   0  0  0  0  0  0  0  0  0  0  0  0
   63.5950   30.6184   46.9519 H   0  0  0  0  0  0  0  0  0  0  0  0
   63.9433   33.7598   48.4551 H   0  0  0  0  0  0  0  0  0  0  0  0
   64.1158   34.6678   46.9032 H   0  0  0  0  0  0  0  0  0  0  0  0
   61.8915   34.9991   48.0811 H   0  0  0  0  0  0  0  0  0  0  0  0
   61.7751   34.3843   46.3896 H   0  0  0  0  0  0  0  0  0  0  0  0
   57.3707   31.5482   46.1660 H   0  0  0  0  0  0  0  0  0  0  0  0
  1  2  1  0
  2  3  1  0
  3  4  2  0
  4  5  1  0
  5  6  2  0
  6  7  1  0
  7  8  1  0
  8  9  1  0
  9 10  2  0
 10 11  1  0
 11 12  2  0
 12 13  1  0
 13 14  1  0
 14 15  1  0
 15 16  2  0
 15 17  1  0
 17 18  1  0
 18 19  1  0
 19 20  1  0
 20 21  1  0
 21 22  1  0
  7 23  2  0
 23  3  1  0
 12  8  1  0
 22 17  1  0
  1 24  1  0
  1 25  1  0
  1 26  1  0
  4 27  1  0
  5 28  1  0
  6 29  1  0
  9 30  1  0
 10 31  1  0
 11 32  1  0
 14 33  1  0
 14 34  1  0
 18 35  1  0
 18 36  1  0
 19 37  1  0
 19 38  1  0
 21 39  1  0
 21 40  1  0
 22 41  1  0
 22 42  1  0
 23 43  1  0
M  CHG  1  11   1
M  END
>  <UniqueID>  (45) 
41

>  <SMILES>  (45) 
COc1cccc(-n2cc[nH+]c2SCC(=O)N2CCOCC2)c1

>  <Energy>  (45) 
75.56262791655298

>  <Genealogy>  (45) 
COc1cccc(-n2cc[nH+]c2SCC(=O)N2CCOCC2)c1 (protonated)
COc1cccc(-n2cc[nH+]c2SCC(=O)N2CCOCC2)c1 (3D coordinates assigned)
COc1cccc(-n2cc[nH+]c2SCC(=O)N2CCOCC2)c1 (nonaromatic ring conformer: 75.56262791655298 kcal/mol)

>  <smiles>  (45) 
COc1cccc(-n2ccnc2SCC(=O)N2CCOCC2)c1

>  <score_type>  (45) 
oracle

>  <origin>  (45) 
adg

>  <m_score__min__energy>  (45) 
-5.6500000000000004

>  <m_primary>  (45) 
energy

$$$$
45:0
     RDKit          3D

 48 51  0  0  0  0  0  0  0  0999 V2000
   63.3690   32.9060   47.1680 C   0  0  0  0  0  0  0  0  0  0  0  0
   62.0960   33.0070   47.7970 O   0  0  0  0  0  0  0  0  0  0  0  0
   60.9060   33.3310   47.1270 C   0  0  0  0  0  0  0  0  0  0  0  0
   60.4880   34.6780   46.9310 C   0  0  0  0  0  0  0  0  0  0  0  0
   59.2950   34.9650   46.2430 C   0  0  0  0  0  0  0  0  0  0  0  0
   58.5420   33.8920   45.7770 C   0  0  0  0  0  0  0  0  0  0  0  0
   57.3960   33.9240   45.0760 N   0  0  0  0  0  0  0  0  0  0  0  0
   57.0990   32.6200   44.8560 C   0  0  0  0  0  0  0  0  0  0  0  0
   58.0170   31.7810   45.3990 N   0  0  0  0  0  0  0  0  0  0  0  0
   57.9880   30.3440   45.3740 C   0  0  0  0  0  0  0  0  0  0  0  0
   57.7150   29.6610   44.1800 C   0  0  0  0  0  0  0  0  0  0  0  0
   57.7020   28.2640   44.1490 C   0  0  0  0  0  0  0  0  0  0  0  0
   57.9750   27.5220   45.3100 C   0  0  0  0  0  0  0  0  0  0  0  0
   57.9500   26.0800   45.2910 N   0  0  0  0  0  0  0  0  0  0  0  0
   58.0700   25.2140   46.4600 C   0  0  0  0  0  0  0  0  0  0  0  0
   57.8140   23.7730   45.9330 C   0  0  1  0  0  0  0  0  0  0  0  0
   56.5500   23.1550   46.5420 C   0  0  0  0  0  0  0  0  0  0  0  0
   55.5350   24.1810   46.7600 N   0  0  0  0  0  0  0  0  0  0  0  0
   54.7840   24.8400   45.7320 C   0  0  0  0  0  0  0  0  0  0  0  0
   54.0680   24.0750   44.6610 C   0  0  0  0  0  0  0  0  0  0  0  0
   54.7540   26.0990   45.7110 O   0  0  0  0  0  0  0  0  0  0  0  0
   57.6740   23.9080   44.5220 O   0  0  0  0  0  0  0  0  0  0  0  0
   57.7520   25.2350   44.1730 C   0  0  0  0  0  0  0  0  0  0  0  0
   57.7100   25.6350   42.9790 O   0  0  0  0  0  0  0  0  0  0  0  0
   58.2420   28.2090   46.5070 C   0  0  0  0  0  0  0  0  0  0  0  0
   58.2590   29.6060   46.5390 C   0  0  0  0  0  0  0  0  0  0  0  0
   58.5100   30.2400   47.7130 F   0  0  0  0  0  0  0  0  0  0  0  0
   58.9240   32.5960   45.9760 C   0  0  0  0  0  0  0  0  0  0  0  0
   60.1120   32.2750   46.6360 C   0  0  0  0  0  0  0  0  0  0  0  0
   64.1537   32.8437   47.9363 H   0  0  0  0  0  0  0  0  0  0  0  0
   63.3975   32.0028   46.5408 H   0  0  0  0  0  0  0  0  0  0  0  0
   63.5395   33.7934   46.5408 H   0  0  0  0  0  0  0  0  0  0  0  0
   61.1037   35.5018   47.3212 H   0  0  0  0  0  0  0  0  0  0  0  0
   58.9686   36.0026   46.0790 H   0  0  0  0  0  0  0  0  0  0  0  0
   56.8570   34.7620   44.7660 H   0  0  0  0  0  0  0  0  0  0  0  0
   56.2131   32.2799   44.2996 H   0  0  0  0  0  0  0  0  0  0  0  0
   57.5095   30.2293   43.2608 H   0  0  0  0  0  0  0  0  0  0  0  0
   57.4762   27.7412   43.2079 H   0  0  0  0  0  0  0  0  0  0  0  0
   59.0774   25.2916   46.8950 H   0  0  0  0  0  0  0  0  0  0  0  0
   57.3587   25.4931   47.2513 H   0  0  0  0  0  0  0  0  0  0  0  0
   58.6391   23.1004   46.2101 H   0  0  0  0  0  0  0  0  0  0  0  0
   56.1528   22.3925   45.8558 H   0  0  0  0  0  0  0  0  0  0  0  0
   56.8073   22.6972   47.5086 H   0  0  0  0  0  0  0  0  0  0  0  0
   53.3862   23.3466   45.1242 H   0  0  0  0  0  0  0  0  0  0  0  0
   53.4903   24.7721   44.0363 H   0  0  0  0  0  0  0  0  0  0  0  0
   54.8018   23.5447   44.0363 H   0  0  0  0  0  0  0  0  0  0  0  0
   58.4396   27.6410   47.4281 H   0  0  0  0  0  0  0  0  0  0  0  0
   60.4196   31.2273   46.7690 H   0  0  0  0  0  0  0  0  0  0  0  0
  1  2  1  0
  2  3  1  0
  3  4  2  0
  4  5  1  0
  5  6  2  0
  6  7  1  0
  7  8  2  0
  8  9  1  0
  9 10  1  0
 10 11  2  0
 11 12  1  0
 12 13  2  0
 13 14  1  0
 14 15  1  0
 15 16  1  0
 16 17  1  0
 17 18  1  0
 18 19  1  0
 19 20  1  0
 19 21  2  0
 16 22  1  0
 22 23  1  0
 23 24  2  0
 13 25  1  0
 25 26  2  0
 26 27  1  0
  9 28  1  0
 28 29  2  0
 29  3  1  0
 28  6  1  0
 26 10  1  0
 23 14  1  0
  1 30  1  0
  1 31  1  0
  1 32  1  0
  4 33  1  0
  5 34  1  0
  7 35  1  0
  8 36  1  0
 11 37  1  0
 12 38  1  0
 15 39  1  0
 15 40  1  0
 16 41  1  6
 17 42  1  0
 17 43  1  0
 20 44  1  0
 20 45  1  0
 20 46  1  0
 25 47  1  0
 29 48  1  0
M  CHG  2   7   1  18  -1
M  END
>  <UniqueID>  (46) 
42

>  <SMILES>  (46) 
COc1ccc2[nH+]cn(-c3ccc(N4C[C@@H](C[N-]C(C)=O)OC4=O)cc3F)c2c1

>  <Energy>  (46) 
110.83020064835067

>  <Genealogy>  (46) 
COc1ccc2[nH+]cn(-c3ccc(N4CC(C[N-]C(C)=O)OC4=O)cc3F)c2c1 (protonated)
COc1ccc2[nH+]cn(-c3ccc(N4C[C@@H](C[N-]C(C)=O)OC4=O)cc3F)c2c1 (chirality)
COc1ccc2[nH+]cn(-c3ccc(N4C[C@@H](C[N-]C(C)=O)OC4=O)cc3F)c2c1 (3D coordinates assigned)
COc1ccc2[nH+]cn(-c3ccc(N4C[C@@H](C[N-]C(C)=O)OC4=O)cc3F)c2c1 (nonaromatic ring conformer: 110.83020064835067 kcal/mol)

>  <smiles>  (46) 
COc1ccc2ncn(-c3ccc(N4CC(CNC(C)=O)OC4=O)cc3F)c2c1

>  <score_type>  (46) 
oracle

>  <origin>  (46) 
adg

>  <m_score__min__energy>  (46) 
-8.0700000000000003

>  <m_primary>  (46) 
energy

$$$$
46:0
     RDKit          3D

 55 55  0  0  0  0  0  0  0  0999 V2000
   63.5940   32.6920   47.1740 C   0  0  0  0  0  0  0  0  0  0  0  0
   62.8400   33.8350   46.5020 C   0  0  0  0  0  0  0  0  0  0  0  0
   61.3440   33.5190   46.3850 C   0  0  0  0  0  0  0  0  0  0  0  0
   60.5350   34.3000   47.4300 C   0  0  0  0  0  0  0  0  0  0  0  0
   59.2550   34.9210   46.8470 C   0  0  0  0  0  0  0  0  0  0  0  0
   58.9720   34.4510   45.4090 C   0  0  0  0  0  0  0  0  0  0  0  0
   57.6840   33.6190   45.3010 C   0  0  0  0  0  0  0  0  0  0  0  0
   57.8840   32.3130   44.5210 C   0  0  0  0  0  0  0  0  0  0  0  0
   57.3540   31.2100   45.2540 O   0  0  0  0  0  0  0  0  0  0  0  0
   56.7620   30.0960   44.6490 C   0  0  0  0  0  0  0  0  0  0  0  0
   55.5110   30.0310   44.5020 O   0  0  0  0  0  0  0  0  0  0  0  0
   57.6290   28.9840   44.1440 C   0  0  0  0  0  0  0  0  0  0  0  0
   59.1040   29.2090   44.5020 C   0  0  0  0  0  0  0  0  0  0  0  0
   59.6030   28.2140   45.5570 C   0  0  0  0  0  0  0  0  0  0  0  0
   59.8110   28.9030   46.8710 C   0  0  0  0  0  0  0  0  0  0  0  0
   60.3180   28.2620   47.8320 O   0  0  0  0  0  0  0  0  0  0  0  0
   59.3530   30.2530   47.0500 N   0  0  0  0  0  0  0  0  0  0  0  0
   59.6420   31.0580   48.2070 C   0  0  0  0  0  0  0  0  0  0  0  0
   58.6120   31.8050   48.7960 C   0  0  0  0  0  0  0  0  0  0  0  0
   58.8670   32.6020   49.9130 C   0  0  0  0  0  0  0  0  0  0  0  0
   60.1580   32.6830   50.4380 C   0  0  0  0  0  0  0  0  0  0  0  0
   61.2150   31.9810   49.8340 C   0  0  0  0  0  0  0  0  0  0  0  0
   62.6030   32.0330   50.4240 C   0  0  0  0  0  0  0  0  0  0  0  0
   63.2140   33.2430   50.1390 F   0  0  0  0  0  0  0  0  0  0  0  0
   63.3910   31.0200   49.9070 F   0  0  0  0  0  0  0  0  0  0  0  0
   62.5180   31.8850   51.7940 F   0  0  0  0  0  0  0  0  0  0  0  0
   60.9460   31.1560   48.7270 C   0  0  0  0  0  0  0  0  0  0  0  0
   63.5237   32.7986   48.2666 H   0  0  0  0  0  0  0  0  0  0  0  0
   63.1513   31.7320   46.8700 H   0  0  0  0  0  0  0  0  0  0  0  0
   64.6508   32.7211   46.8700 H   0  0  0  0  0  0  0  0  0  0  0  0
   62.9679   34.7496   47.0996 H   0  0  0  0  0  0  0  0  0  0  0  0
   63.2471   33.9733   45.4895 H   0  0  0  0  0  0  0  0  0  0  0  0
   60.9952   33.7959   45.3792 H   0  0  0  0  0  0  0  0  0  0  0  0
   61.1977   32.4429   46.5602 H   0  0  0  0  0  0  0  0  0  0  0  0
   60.2546   33.6137   48.2426 H   0  0  0  0  0  0  0  0  0  0  0  0
   61.1681   35.1232   47.7928 H   0  0  0  0  0  0  0  0  0  0  0  0
   58.4041   34.6380   47.4842 H   0  0  0  0  0  0  0  0  0  0  0  0
   59.3959   36.0116   46.8198 H   0  0  0  0  0  0  0  0  0  0  0  0
   58.8753   35.3354   44.7621 H   0  0  0  0  0  0  0  0  0  0  0  0
   59.8096   33.8097   45.0975 H   0  0  0  0  0  0  0  0  0  0  0  0
   57.3383   33.3729   46.3159 H   0  0  0  0  0  0  0  0  0  0  0  0
   56.9448   34.2221   44.7534 H   0  0  0  0  0  0  0  0  0  0  0  0
   57.3674   32.3864   43.5526 H   0  0  0  0  0  0  0  0  0  0  0  0
   58.9608   32.1526   44.3637 H   0  0  0  0  0  0  0  0  0  0  0  0
   57.2932   28.0377   44.5932 H   0  0  0  0  0  0  0  0  0  0  0  0
   57.5426   28.9517   43.0479 H   0  0  0  0  0  0  0  0  0  0  0  0
   59.7109   29.0941   43.5918 H   0  0  0  0  0  0  0  0  0  0  0  0
   59.1988   30.2214   44.9215 H   0  0  0  0  0  0  0  0  0  0  0  0
   58.8580   27.4143   45.6815 H   0  0  0  0  0  0  0  0  0  0  0  0
   60.5613   27.7906   45.2217 H   0  0  0  0  0  0  0  0  0  0  0  0
   58.6920   30.6400   46.3380 H   0  0  0  0  0  0  0  0  0  0  0  0
   57.5966   31.7626   48.3751 H   0  0  0  0  0  0  0  0  0  0  0  0
   58.0482   33.1681   50.3811 H   0  0  0  0  0  0  0  0  0  0  0  0
   60.3488   33.2994   51.3289 H   0  0  0  0  0  0  0  0  0  0  0  0
   61.7622   30.5823   48.2636 H   0  0  0  0  0  0  0  0  0  0  0  0
  1  2  1  0
  2  3  1  0
  3  4  1  0
  4  5  1  0
  5  6  1  0
  6  7  1  0
  7  8  1  0
  8  9  1  0
  9 10  1  0
 10 11  2  0
 10 12  1  0
 12 13  1  0
 13 14  1  0
 14 15  1  0
 15 16  2  0
 15 17  1  0
 17 18  1  0
 18 19  2  0
 19 20  1  0
 20 21  2  0
 21 22  1  0
 22 23  1  0
 23 24  1  0
 23 25  1  0
 23 26  1  0
 22 27  2  0
 27 18  1  0
  1 28  1  0
  1 29  1  0
  1 30  1  0
  2 31  1  0
  2 32  1  0
  3 33  1  0
  3 34  1  0
  4 35  1  0
  4 36  1  0
  5 37  1  0
  5 38  1  0
  6 39  1  0
  6 40  1  0
  7 41  1  0
  7 42  1  0
  8 43  1  0
  8 44  1  0
 12 45  1  0
 12 46  1  0
 13 47  1  0
 13 48  1  0
 14 49  1  0
 14 50  1  0
 17 51  1  0
 19 52  1  0
 20 53  1  0
 21 54  1  0
 27 55  1  0
M  END
>  <UniqueID>  (47) 
43

>  <SMILES>  (47) 
CCCCCCCCOC(=O)CCCC(=O)Nc1cccc(C(F)(F)F)c1

>  <Energy>  (47) 
35.05686772675163

>  <Genealogy>  (47) 
CCCCCCCCOC(=O)CCCC(=O)Nc1cccc(C(F)(F)F)c1 (3D coordinates assigned)
CCCCCCCCOC(=O)CCCC(=O)Nc1cccc(C(F)(F)F)c1 (optimized conformer: 35.05686772675163 kcal/mol)

>  <smiles>  (47) 
CCCCCCCCOC(=O)CCCC(=O)Nc1cccc(C(F)(F)F)c1

>  <score_type>  (47) 
oracle

>  <origin>  (47) 
adg

>  <m_score__min__energy>  (47) 
-6.5899999999999999

>  <m_primary>  (47) 
energy

$$$$
47:0
     RDKit          3D

 44 46  0  0  0  0  0  0  0  0999 V2000
   58.7420   34.7380   44.8150 O   0  0  0  0  0  0  0  0  0  0  0  0
   58.3470   33.9450   45.7120 C   0  0  0  0  0  0  0  0  0  0  0  0
   57.0960   33.1510   45.4890 C   0  0  0  0  0  0  0  0  0  0  0  0
   57.4430   31.7540   45.0560 C   0  0  0  0  0  0  0  0  0  0  0  0
   58.5340   31.0820   45.6320 C   0  0  0  0  0  0  0  0  0  0  0  0
   58.8350   29.7710   45.2480 C   0  0  0  0  0  0  0  0  0  0  0  0
   58.0440   29.1180   44.2980 C   0  0  0  0  0  0  0  0  0  0  0  0
   58.4250   27.4740   43.8190 Cl  0  0  0  0  0  0  0  0  0  0  0  0
   56.9490   29.7780   43.7290 C   0  0  0  0  0  0  0  0  0  0  0  0
   56.6470   31.0900   44.1090 C   0  0  0  0  0  0  0  0  0  0  0  0
   59.0650   33.8250   46.9490 N   0  0  0  0  0  0  0  0  0  0  0  0
   60.2820   34.5820   47.2370 C   0  0  0  0  0  0  0  0  0  0  0  0
   61.4580   33.6540   47.4450 C   0  0  0  0  0  0  0  0  0  0  0  0
   62.6280   33.8580   46.6940 C   0  0  0  0  0  0  0  0  0  0  0  0
   63.7280   33.0180   46.8560 C   0  0  0  0  0  0  0  0  0  0  0  0
   63.6580   31.9700   47.7700 C   0  0  0  0  0  0  0  0  0  0  0  0
   62.5230   31.7700   48.4880 N   0  0  0  0  0  0  0  0  0  0  0  0
   61.4240   32.5640   48.3510 C   0  0  0  0  0  0  0  0  0  0  0  0
   60.2780   32.2900   49.1700 N   0  0  0  0  0  0  0  0  0  0  0  0
   59.5700   31.0130   48.9950 C   0  0  0  0  0  0  0  0  0  0  0  0
   58.5340   30.7710   50.0920 C   0  0  0  0  0  0  0  0  0  0  0  0
   57.8940   31.9750   50.4460 O   0  0  0  0  0  0  0  0  0  0  0  0
   58.8130   32.7880   51.1410 C   0  0  0  0  0  0  0  0  0  0  0  0
   59.9500   33.2610   50.2250 C   0  0  0  0  0  0  0  0  0  0  0  0
   56.5194   33.1095   46.4249 H   0  0  0  0  0  0  0  0  0  0  0  0
   56.4975   33.6342   44.7027 H   0  0  0  0  0  0  0  0  0  0  0  0
   59.1533   31.5882   46.3871 H   0  0  0  0  0  0  0  0  0  0  0  0
   59.6962   29.2525   45.6946 H   0  0  0  0  0  0  0  0  0  0  0  0
   56.3253   29.2647   42.9823 H   0  0  0  0  0  0  0  0  0  0  0  0
   55.7821   31.6037   43.6639 H   0  0  0  0  0  0  0  0  0  0  0  0
   58.6470   33.2540   47.7190 H   0  0  0  0  0  0  0  0  0  0  0  0
   60.4974   35.2527   46.3921 H   0  0  0  0  0  0  0  0  0  0  0  0
   60.1252   35.1626   48.1580 H   0  0  0  0  0  0  0  0  0  0  0  0
   62.6759   34.6871   45.9727 H   0  0  0  0  0  0  0  0  0  0  0  0
   64.6428   33.1813   46.2674 H   0  0  0  0  0  0  0  0  0  0  0  0
   64.5222   31.3041   47.9104 H   0  0  0  0  0  0  0  0  0  0  0  0
   59.0588   31.0222   48.0211 H   0  0  0  0  0  0  0  0  0  0  0  0
   60.3141   30.2047   49.0496 H   0  0  0  0  0  0  0  0  0  0  0  0
   57.7820   30.0559   49.7272 H   0  0  0  0  0  0  0  0  0  0  0  0
   59.0450   30.3678   50.9787 H   0  0  0  0  0  0  0  0  0  0  0  0
   58.2840   33.6672   51.5373 H   0  0  0  0  0  0  0  0  0  0  0  0
   59.2512   32.1942   51.9567 H   0  0  0  0  0  0  0  0  0  0  0  0
   59.6478   34.2061   49.7502 H   0  0  0  0  0  0  0  0  0  0  0  0
   60.8469   33.3845   50.8498 H   0  0  0  0  0  0  0  0  0  0  0  0
  1  2  2  0
  2  3  1  0
  3  4  1  0
  4  5  2  0
  5  6  1  0
  6  7  2  0
  7  8  1  0
  7  9  1  0
  9 10  2  0
  2 11  1  0
 11 12  1  0
 12 13  1  0
 13 14  2  0
 14 15  1  0
 15 16  2  0
 16 17  1  0
 17 18  2  0
 18 19  1  0
 19 20  1  0
 20 21  1  0
 21 22  1  0
 22 23  1  0
 23 24  1  0
 10  4  1  0
 18 13  1  0
 24 19  1  0
  3 25  1  0
  3 26  1  0
  5 27  1  0
  6 28  1  0
  9 29  1  0
 10 30  1  0
 11 31  1  0
 12 32  1  0
 12 33  1  0
 14 34  1  0
 15 35  1  0
 16 36  1  0
 20 37  1  0
 20 38  1  0
 21 39  1  0
 21 40  1  0
 23 41  1  0
 23 42  1  0
 24 43  1  0
 24 44  1  0
M  END
>  <UniqueID>  (48) 
44

>  <SMILES>  (48) 
O=C(Cc1ccc(Cl)cc1)NCc1cccnc1N1CCOCC1

>  <Energy>  (48) 
50.79011502315982

>  <Genealogy>  (48) 
O=C(Cc1ccc(Cl)cc1)NCc1cccnc1N1CCOCC1 (3D coordinates assigned)
O=C(Cc1ccc(Cl)cc1)NCc1cccnc1N1CCOCC1 (nonaromatic ring conformer: 50.79011502315982 kcal/mol)

>  <smiles>  (48) 
O=C(Cc1ccc(Cl)cc1)NCc1cccnc1N1CCOCC1

>  <score_type>  (48) 
oracle

>  <origin>  (48) 
adg

>  <m_score__min__energy>  (48) 
-8.0500000000000007

>  <m_primary>  (48) 
energy

$$$$
48:0
     RDKit          3D

 31 32  0  0  0  0  0  0  0  0999 V2000
   55.5010   25.5570   46.0860 O   0  0  0  0  0  0  0  0  0  0  0  0
   56.2920   26.4750   45.7490 C   0  0  0  0  0  0  0  0  0  0  0  0
   57.7260   26.2610   45.4670 C   0  0  0  0  0  0  0  0  0  0  0  0
   58.1780   27.6270   44.9370 C   0  0  0  0  0  0  0  0  0  0  0  0
   57.0390   28.6320   45.2730 C   0  0  1  0  0  0  0  0  0  0  0  0
   57.3950   29.4330   46.3730 O   0  0  0  0  0  0  0  0  0  0  0  0
   56.6880   29.5320   44.0740 C   0  0  0  0  0  0  0  0  0  0  0  0
   56.4760   30.9230   44.5130 N   0  0  0  0  0  0  0  0  0  0  0  0
   57.4250   31.8450   43.8790 C   0  0  0  0  0  0  0  0  0  0  0  0
   57.9870   32.7760   44.9160 C   0  0  0  0  0  0  0  0  0  0  0  0
   57.6820   32.5960   46.2760 C   0  0  0  0  0  0  0  0  0  0  0  0
   58.1790   33.4870   47.2320 C   0  0  0  0  0  0  0  0  0  0  0  0
   58.9730   34.5680   46.8380 C   0  0  0  0  0  0  0  0  0  0  0  0
   59.2670   34.7630   45.4850 C   0  0  0  0  0  0  0  0  0  0  0  0
   58.7720   33.8740   44.5260 C   0  0  0  0  0  0  0  0  0  0  0  0
   55.8810   27.8190   45.6200 N   0  0  0  0  0  0  0  0  0  0  0  0
   58.2733   25.9906   46.3821 H   0  0  0  0  0  0  0  0  0  0  0  0
   57.9120   25.4379   44.7614 H   0  0  0  0  0  0  0  0  0  0  0  0
   59.1129   27.9345   45.4283 H   0  0  0  0  0  0  0  0  0  0  0  0
   58.3681   27.5897   43.8542 H   0  0  0  0  0  0  0  0  0  0  0  0
   56.6620   30.0880   46.5190 H   0  0  0  0  0  0  0  0  0  0  0  0
   57.5134   29.5042   43.3474 H   0  0  0  0  0  0  0  0  0  0  0  0
   55.7612   29.1611   43.6120 H   0  0  0  0  0  0  0  0  0  0  0  0
   56.6360   30.9670   45.5480 H   0  0  0  0  0  0  0  0  0  0  0  0
   58.2431   31.2707   43.4198 H   0  0  0  0  0  0  0  0  0  0  0  0
   56.9070   32.4289   43.1039 H   0  0  0  0  0  0  0  0  0  0  0  0
   57.0504   31.7516   46.5893 H   0  0  0  0  0  0  0  0  0  0  0  0
   57.9448   33.3371   48.2963 H   0  0  0  0  0  0  0  0  0  0  0  0
   59.3665   35.2652   47.5924 H   0  0  0  0  0  0  0  0  0  0  0  0
   59.8881   35.6163   45.1749 H   0  0  0  0  0  0  0  0  0  0  0  0
   58.9982   34.0350   43.4616 H   0  0  0  0  0  0  0  0  0  0  0  0
  1  2  2  0
  2  3  1  0
  3  4  1  0
  4  5  1  0
  5  6  1  1
  5  7  1  0
  7  8  1  0
  8  9  1  0
  9 10  1  0
 10 11  2  0
 11 12  1  0
 12 13  2  0
 13 14  1  0
 14 15  2  0
  5 16  1  0
 16  2  1  0
 15 10  1  0
  3 17  1  0
  3 18  1  0
  4 19  1  0
  4 20  1  0
  6 21  1  0
  7 22  1  0
  7 23  1  0
  8 24  1  0
  9 25  1  0
  9 26  1  0
 11 27  1  0
 12 28  1  0
 13 29  1  0
 14 30  1  0
 15 31  1  0
M  CHG  1  16  -1
M  END
>  <UniqueID>  (49) 
45

>  <SMILES>  (49) 
O=C1CC[C@@](O)(CNCc2ccccc2)[N-]1

>  <Energy>  (49) 
37.415970871306364

>  <Genealogy>  (49) 
O=C1CCC(O)(CNCc2ccccc2)[N-]1 (protonated)
O=C1CC[C@@](O)(CNCc2ccccc2)[N-]1 (chirality)
O=C1CC[C@@](O)(CNCc2ccccc2)[N-]1 (3D coordinates assigned)
O=C1CC[C@@](O)(CNCc2ccccc2)[N-]1 (nonaromatic ring conformer: 37.415970871306364 kcal/mol)

>  <smiles>  (49) 
O=C1CCC(O)(CNCc2ccccc2)N1

>  <score_type>  (49) 
oracle

>  <origin>  (49) 
adg

>  <m_score__min__energy>  (49) 
-9.2200000000000006

>  <m_primary>  (49) 
energy

$$$$
