0:0
     RDKit          3D

 35 37  0  0  0  0  0  0  0  0999 V2000
   55.1460   28.1700   44.8890 H   0  0  0  0  0  0  0  0  0  0  0  0
   55.9130   28.7880   45.2250 N   0  0  0  0  0  0  0  0  0  0  0  0
   57.0020   28.3520   45.7810 C   0  0  0  0  0  0  0  0  0  0  0  0
   57.2230   27.0750   46.2920 C   0  0  0  0  0  0  0  0  0  0  0  0
   56.3590   25.8790   46.2780 C   0  0  0  0  0  0  0  0  0  0  0  0
   56.8060   24.7920   46.7370 O   0  0  0  0  0  0  0  0  0  0  0  0
   55.0680   25.9380   45.7440 O   0  0  0  0  0  0  0  0  0  0  0  0
   54.2620   24.7870   45.5020 C   0  0  0  0  0  0  0  0  0  0  0  0
   54.0996   24.2540   46.4505 H   0  0  0  0  0  0  0  0  0  0  0  0
   53.3007   25.1115   45.0770 H   0  0  0  0  0  0  0  0  0  0  0  0
   54.9440   23.8500   44.5120 C   0  0  0  0  0  0  0  0  0  0  0  0
   55.5045   23.0800   45.0624 H   0  0  0  0  0  0  0  0  0  0  0  0
   54.1837   23.3684   43.8796 H   0  0  0  0  0  0  0  0  0  0  0  0
   55.6360   24.4254   43.8796 H   0  0  0  0  0  0  0  0  0  0  0  0
   58.4840   27.1540   46.8620 C   0  0  0  0  0  0  0  0  0  0  0  0
   59.0052   26.3314   47.3735 H   0  0  0  0  0  0  0  0  0  0  0  0
   58.9690   28.3970   46.6900 N   0  0  0  0  0  0  0  0  0  0  0  0
   59.8990   28.7400   47.0210 H   0  0  0  0  0  0  0  0  0  0  0  0
   58.0840   29.1250   46.0250 N   0  0  0  0  0  0  0  0  0  0  0  0
   58.2840   30.5140   45.7050 C   0  0  0  0  0  0  0  0  0  0  0  0
   58.8960   31.3250   46.6120 N   0  0  0  0  0  0  0  0  0  0  0  0
   59.1310   32.6410   46.3670 C   0  0  0  0  0  0  0  0  0  0  0  0
   59.7560   33.4360   47.3350 C   0  0  0  0  0  0  0  0  0  0  0  0
   60.0593   32.9955   48.2962 H   0  0  0  0  0  0  0  0  0  0  0  0
   59.9950   34.7910   47.0800 C   0  0  0  0  0  0  0  0  0  0  0  0
   60.4866   35.4145   47.8413 H   0  0  0  0  0  0  0  0  0  0  0  0
   59.6100   35.3540   45.8590 C   0  0  0  0  0  0  0  0  0  0  0  0
   59.7995   36.4198   45.6636 H   0  0  0  0  0  0  0  0  0  0  0  0
   58.9850   34.5680   44.8850 C   0  0  0  0  0  0  0  0  0  0  0  0
   58.6839   35.0148   43.9260 H   0  0  0  0  0  0  0  0  0  0  0  0
   58.7430   33.2080   45.1340 C   0  0  0  0  0  0  0  0  0  0  0  0
   58.1270   32.3910   44.1790 C   0  0  0  0  0  0  0  0  0  0  0  0
   57.8216   32.8110   43.2093 H   0  0  0  0  0  0  0  0  0  0  0  0
   57.9010   31.0430   44.4590 C   0  0  0  0  0  0  0  0  0  0  0  0
   57.4248   30.3958   43.7078 H   0  0  0  0  0  0  0  0  0  0  0  0
  1  2  1  0
  2  3  2  0
  3  4  1  0
  4  5  1  0
  5  6  2  0
  5  7  1  0
  7  8  1  0
  8  9  1  0
  8 10  1  0
  8 11  1  0
 11 12  1  0
 11 13  1  0
 11 14  1  0
  4 15  2  0
 15 16  1  0
 15 17  1  0
 17 18  1  0
 17 19  1  0
 19 20  1  0
 20 21  2  0
 21 22  1  0
 22 23  2  0
 23 24  1  0
 23 25  1  0
 25 26  1  0
 25 27  2  0
 27 28  1  0
 27 29  1  0
 29 30  1  0
 29 31  2  0
 31 32  1  0
 32 33  1  0
 32 34  2  0
 34 35  1  0
 19  3  1  0
 34 20  1  0
 31 22  1  0
M  END
>  <UniqueID>  (1) 
1

>  <SMILES>  (1) 
[H]/N=c1\c(C(=O)OCC)c[nH]n1-c1ccc2ccccc2n1

>  <Energy>  (1) 
74.9314418969291

>  <Genealogy>  (1) 
[H]/N=c1\c(C(=O)OCC)c[nH]n1-c1ccc2ccccc2n1 (cis-trans isomerization)
[H]/N=c1\c(C(=O)OCC)c[nH]n1-c1ccc2ccccc2n1 (3D coordinates assigned)
[H]/N=c1\c(C(=O)OCC)c[nH]n1-c1ccc2ccccc2n1 (optimized conformer: 74.9314418969291 kcal/mol)

>  <smiles>  (1) 
CCOC(=O)c1c[nH]n(-c2ccc3ccccc3n2)c1=N

>  <score_type>  (1) 
oracle

>  <origin>  (1) 
adg

>  <m_score__min__energy>  (1) 
-7.3200000000000003

>  <m_primary>  (1) 
energy

$$$$
1:0
     RDKit          3D

 36 37  0  0  0  0  0  0  0  0999 V2000
   57.5710   26.2870   47.0700 C   0  0  0  0  0  0  0  0  0  0  0  0
   56.7550   26.8240   45.9320 C   0  0  0  0  0  0  0  0  0  0  0  0
   55.5390   26.7260   45.9740 O   0  0  0  0  0  0  0  0  0  0  0  0
   57.4040   27.4770   44.7400 C   0  0  0  0  0  0  0  0  0  0  0  0
   57.5540   28.9260   44.9750 N   0  0  0  0  0  0  0  0  0  0  0  0
   56.5230   29.7900   44.6400 C   0  0  0  0  0  0  0  0  0  0  0  0
   55.4630   29.3520   44.1150 O   0  0  0  0  0  0  0  0  0  0  0  0
   56.6340   31.1310   44.8760 N   0  0  0  0  0  0  0  0  0  0  0  0
   57.7630   31.6010   45.4480 C   0  0  0  0  0  0  0  0  0  0  0  0
   58.0180   32.8800   45.7730 N   0  0  0  0  0  0  0  0  0  0  0  0
   59.2500   32.7980   46.3410 C   0  0  0  0  0  0  0  0  0  0  0  0
   59.7460   31.5340   46.3710 N   0  0  0  0  0  0  0  0  0  0  0  0
   61.0060   31.1100   46.9860 C   0  0  0  0  0  0  0  0  0  0  0  0
   61.5910   32.2220   47.8600 C   0  0  0  0  0  0  0  0  0  0  0  0
   62.9670   32.5440   47.4150 N   0  0  0  0  0  0  0  0  0  0  0  0
   63.8980   32.6150   48.5520 C   0  0  0  0  0  0  0  0  0  0  0  0
   63.0040   33.8040   46.6570 C   0  0  0  0  0  0  0  0  0  0  0  0
   58.7820   30.7880   45.8030 C   0  0  0  0  0  0  0  0  0  0  0  0
   58.6940   29.4160   45.5770 C   0  0  0  0  0  0  0  0  0  0  0  0
   59.6350   28.6470   45.9150 O   0  0  0  0  0  0  0  0  0  0  0  0
   57.1131   26.5883   48.0237 H   0  0  0  0  0  0  0  0  0  0  0  0
   57.6054   25.1892   47.0105 H   0  0  0  0  0  0  0  0  0  0  0  0
   58.5929   26.6897   47.0105 H   0  0  0  0  0  0  0  0  0  0  0  0
   58.3958   27.0305   44.5756 H   0  0  0  0  0  0  0  0  0  0  0  0
   56.7712   27.3195   43.8541 H   0  0  0  0  0  0  0  0  0  0  0  0
   59.7919   33.6694   46.7373 H   0  0  0  0  0  0  0  0  0  0  0  0
   60.8215   30.2223   47.6089 H   0  0  0  0  0  0  0  0  0  0  0  0
   61.7252   30.8772   46.1869 H   0  0  0  0  0  0  0  0  0  0  0  0
   60.9615   33.1202   47.7768 H   0  0  0  0  0  0  0  0  0  0  0  0
   61.6195   31.8825   48.9059 H   0  0  0  0  0  0  0  0  0  0  0  0
   63.3309   32.5717   49.4935 H   0  0  0  0  0  0  0  0  0  0  0  0
   64.5979   31.7676   48.5063 H   0  0  0  0  0  0  0  0  0  0  0  0
   64.4613   33.5587   48.5063 H   0  0  0  0  0  0  0  0  0  0  0  0
   63.0289   34.6523   47.3568 H   0  0  0  0  0  0  0  0  0  0  0  0
   63.9031   33.8246   46.0237 H   0  0  0  0  0  0  0  0  0  0  0  0
   62.1076   33.8774   46.0237 H   0  0  0  0  0  0  0  0  0  0  0  0
  1  2  1  0
  2  3  2  0
  2  4  1  0
  4  5  1  0
  5  6  1  0
  6  7  2  0
  6  8  1  0
  8  9  1  0
  9 10  1  0
 10 11  2  0
 11 12  1  0
 12 13  1  0
 13 14  1  0
 14 15  1  0
 15 16  1  0
 15 17  1  0
 12 18  1  0
 18 19  1  0
 19 20  2  0
 19  5  1  0
 18  9  2  0
  1 21  1  0
  1 22  1  0
  1 23  1  0
  4 24  1  0
  4 25  1  0
 11 26  1  0
 13 27  1  0
 13 28  1  0
 14 29  1  0
 14 30  1  0
 16 31  1  0
 16 32  1  0
 16 33  1  0
 17 34  1  0
 17 35  1  0
 17 36  1  0
M  CHG  1   8  -1
M  END
>  <UniqueID>  (2) 
2

>  <SMILES>  (2) 
CC(=O)Cn1c(=O)[n-]c2ncn(CCN(C)C)c2c1=O

>  <Energy>  (2) 
75.19358894941166

>  <Genealogy>  (2) 
CC(=O)Cn1c(=O)[n-]c2ncn(CCN(C)C)c2c1=O (protonated)
CC(=O)Cn1c(=O)[n-]c2ncn(CCN(C)C)c2c1=O (3D coordinates assigned)
CC(=O)Cn1c(=O)[n-]c2ncn(CCN(C)C)c2c1=O (optimized conformer: 75.19358894941166 kcal/mol)

>  <smiles>  (2) 
CC(=O)Cn1c(=O)[nH]c2ncn(CCN(C)C)c2c1=O

>  <score_type>  (2) 
oracle

>  <origin>  (2) 
adg

>  <m_score__min__energy>  (2) 
-7.6799999999999997

>  <m_primary>  (2) 
energy

$$$$
2:0
     RDKit          3D

 40 43  0  0  0  0  0  0  0  0999 V2000
   57.2990   30.6520   42.8830 O   0  0  0  0  0  0  0  0  0  0  0  0
   57.1500   30.1110   44.2770 S   0  0  0  0  0  0  0  0  0  0  0  0
   55.7850   30.4660   44.8000 O   0  0  0  0  0  0  0  0  0  0  0  0
   57.3620   28.3640   44.2360 C   0  0  0  0  0  0  0  0  0  0  0  0
   57.1070   27.6050   45.3870 C   0  0  0  0  0  0  0  0  0  0  0  0
   57.2620   26.2160   45.3600 C   0  0  0  0  0  0  0  0  0  0  0  0
   57.6760   25.5790   44.1860 C   0  0  0  0  0  0  0  0  0  0  0  0
   57.9360   26.3330   43.0370 C   0  0  0  0  0  0  0  0  0  0  0  0
   57.7810   27.7230   43.0600 C   0  0  0  0  0  0  0  0  0  0  0  0
   58.3460   30.8120   45.3120 N   0  0  0  0  0  0  0  0  0  0  0  0
   59.2380   30.1710   46.1050 C   0  0  0  0  0  0  0  0  0  0  0  0
   60.0170   31.0210   46.8280 N   0  0  0  0  0  0  0  0  0  0  0  0
   59.5760   32.2380   46.4450 C   0  0  0  0  0  0  0  0  0  0  0  0
   59.9700   33.5090   46.8720 C   0  0  0  0  0  0  0  0  0  0  0  0
   61.0240   33.7210   47.8350 N   0  0  0  0  0  0  0  0  0  0  0  0
   60.7360   34.2360   49.1800 C   0  0  0  0  0  0  0  0  0  0  0  0
   61.8290   33.8070   50.1680 C   0  0  0  0  0  0  0  0  0  0  0  0
   63.1770   34.2090   49.7300 N   0  0  0  0  0  0  0  0  0  0  0  0
   63.3990   34.1660   48.2690 C   0  0  0  0  0  0  0  0  0  0  0  0
   62.3890   33.2830   47.5250 C   0  0  0  0  0  0  0  0  0  0  0  0
   59.2930   34.5770   46.3440 N   0  0  0  0  0  0  0  0  0  0  0  0
   58.2810   34.4160   45.4330 C   0  0  0  0  0  0  0  0  0  0  0  0
   57.9100   33.1670   45.0240 N   0  0  0  0  0  0  0  0  0  0  0  0
   58.5740   32.1080   45.5430 C   0  0  0  0  0  0  0  0  0  0  0  0
   56.7844   28.1035   46.3130 H   0  0  0  0  0  0  0  0  0  0  0  0
   57.0580   25.6231   46.2638 H   0  0  0  0  0  0  0  0  0  0  0  0
   57.7971   24.4859   44.1661 H   0  0  0  0  0  0  0  0  0  0  0  0
   58.2629   25.8321   42.1138 H   0  0  0  0  0  0  0  0  0  0  0  0
   57.9877   28.3141   42.1556 H   0  0  0  0  0  0  0  0  0  0  0  0
   59.3238   29.0757   46.1590 H   0  0  0  0  0  0  0  0  0  0  0  0
   60.6916   35.3345   49.1446 H   0  0  0  0  0  0  0  0  0  0  0  0
   59.7723   33.8269   49.5176 H   0  0  0  0  0  0  0  0  0  0  0  0
   61.6230   34.2699   51.1444 H   0  0  0  0  0  0  0  0  0  0  0  0
   61.8116   32.7088   50.2284 H   0  0  0  0  0  0  0  0  0  0  0  0
   63.3560   35.1850   50.0610 H   0  0  0  0  0  0  0  0  0  0  0  0
   63.3238   35.1901   47.8746 H   0  0  0  0  0  0  0  0  0  0  0  0
   64.3951   33.7293   48.1046 H   0  0  0  0  0  0  0  0  0  0  0  0
   62.5614   33.3640   46.4416 H   0  0  0  0  0  0  0  0  0  0  0  0
   62.5164   32.2378   47.8432 H   0  0  0  0  0  0  0  0  0  0  0  0
   57.7644   35.2990   45.0288 H   0  0  0  0  0  0  0  0  0  0  0  0
  1  2  2  0
  2  3  2  0
  2  4  1  0
  4  5  2  0
  5  6  1  0
  6  7  2  0
  7  8  1  0
  8  9  2  0
  2 10  1  0
 10 11  1  0
 11 12  2  0
 12 13  1  0
 13 14  2  0
 14 15  1  0
 15 16  1  0
 16 17  1  0
 17 18  1  0
 18 19  1  0
 19 20  1  0
 14 21  1  0
 21 22  2  0
 22 23  1  0
 23 24  2  0
  9  4  1  0
 24 10  1  0
 24 13  1  0
 20 15  1  0
  5 25  1  0
  6 26  1  0
  7 27  1  0
  8 28  1  0
  9 29  1  0
 11 30  1  0
 16 31  1  0
 16 32  1  0
 17 33  1  0
 17 34  1  0
 18 35  1  0
 19 36  1  0
 19 37  1  0
 20 38  1  0
 20 39  1  0
 22 40  1  0
M  END
>  <UniqueID>  (3) 
3

>  <SMILES>  (3) 
O=S(=O)(c1ccccc1)n1cnc2c(N3CCNCC3)ncnc21

>  <Energy>  (3) 
93.24597662491635

>  <Genealogy>  (3) 
O=S(=O)(c1ccccc1)n1cnc2c(N3CCNCC3)ncnc21 (3D coordinates assigned)
O=S(=O)(c1ccccc1)n1cnc2c(N3CCNCC3)ncnc21 (nonaromatic ring conformer: 93.24597662491635 kcal/mol)

>  <smiles>  (3) 
O=S(=O)(c1ccccc1)n1cnc2c(N3CCNCC3)ncnc21

>  <score_type>  (3) 
oracle

>  <origin>  (3) 
adg

>  <m_score__min__energy>  (3) 
-7.4000000000000004

>  <m_primary>  (3) 
energy

$$$$
3:0
     RDKit          3D

 42 45  0  0  0  0  0  0  0  0999 V2000
   66.5650   32.7280   50.1350 C   0  0  0  0  0  0  0  0  0  0  0  0
   65.3560   32.0010   50.3260 O   0  0  0  0  0  0  0  0  0  0  0  0
   64.2230   32.1190   49.5080 C   0  0  0  0  0  0  0  0  0  0  0  0
   64.1240   33.0850   48.4900 C   0  0  0  0  0  0  0  0  0  0  0  0
   62.9730   33.1620   47.6990 C   0  0  0  0  0  0  0  0  0  0  0  0
   61.9040   32.2720   47.9030 C   0  0  0  0  0  0  0  0  0  0  0  0
   60.6720   32.3440   47.0780 C   0  0  0  0  0  0  0  0  0  0  0  0
   60.1550   31.1890   46.5460 N   0  0  0  0  0  0  0  0  0  0  0  0
   59.0260   31.1790   45.7760 C   0  0  0  0  0  0  0  0  0  0  0  0
   58.5450   29.9400   45.2200 N   0  0  0  0  0  0  0  0  0  0  0  0
   58.2660   28.7880   46.0880 C   0  0  0  0  0  0  0  0  0  0  0  0
   56.9920   28.0760   45.6170 C   0  0  0  0  0  0  0  0  0  0  0  0
   56.0700   29.0250   45.1180 O   0  0  0  0  0  0  0  0  0  0  0  0
   56.5150   29.5450   43.8720 C   0  0  0  0  0  0  0  0  0  0  0  0
   58.0180   29.9040   43.8520 C   0  0  0  0  0  0  0  0  0  0  0  0
   58.3990   32.4040   45.5470 C   0  0  0  0  0  0  0  0  0  0  0  0
   57.2610   32.6780   44.8830 N   0  0  0  0  0  0  0  0  0  0  0  0
   57.0900   34.0180   44.9840 C   0  0  0  0  0  0  0  0  0  0  0  0
   58.1180   34.5980   45.7210 C   0  0  0  0  0  0  0  0  0  0  0  0
   58.9280   33.5430   46.0710 C   0  0  0  0  0  0  0  0  0  0  0  0
   60.0530   33.5430   46.8260 N   0  0  0  0  0  0  0  0  0  0  0  0
   62.0050   31.3170   48.9300 C   0  0  0  0  0  0  0  0  0  0  0  0
   63.1560   31.2410   49.7200 C   0  0  0  0  0  0  0  0  0  0  0  0
   66.9956   32.9869   51.1135 H   0  0  0  0  0  0  0  0  0  0  0  0
   67.2796   32.1097   49.5719 H   0  0  0  0  0  0  0  0  0  0  0  0
   66.3539   33.6491   49.5719 H   0  0  0  0  0  0  0  0  0  0  0  0
   64.9559   33.7832   48.3153 H   0  0  0  0  0  0  0  0  0  0  0  0
   62.9036   33.9257   46.9103 H   0  0  0  0  0  0  0  0  0  0  0  0
   59.1124   28.0866   46.0465 H   0  0  0  0  0  0  0  0  0  0  0  0
   58.1240   29.1388   47.1209 H   0  0  0  0  0  0  0  0  0  0  0  0
   57.2464   27.3605   44.8212 H   0  0  0  0  0  0  0  0  0  0  0  0
   56.5398   27.5413   46.4653 H   0  0  0  0  0  0  0  0  0  0  0  0
   56.3274   28.7908   43.0936 H   0  0  0  0  0  0  0  0  0  0  0  0
   55.9586   30.4772   43.6946 H   0  0  0  0  0  0  0  0  0  0  0  0
   58.5653   29.1471   43.2709 H   0  0  0  0  0  0  0  0  0  0  0  0
   58.1459   30.8942   43.3904 H   0  0  0  0  0  0  0  0  0  0  0  0
   56.6140   32.0110   44.4120 H   0  0  0  0  0  0  0  0  0  0  0  0
   56.2500   34.5739   44.5421 H   0  0  0  0  0  0  0  0  0  0  0  0
   58.2526   35.6614   45.9682 H   0  0  0  0  0  0  0  0  0  0  0  0
   60.4320   34.4480   47.1840 H   0  0  0  0  0  0  0  0  0  0  0  0
   61.1711   30.6235   49.1135 H   0  0  0  0  0  0  0  0  0  0  0  0
   63.2226   30.4839   50.5152 H   0  0  0  0  0  0  0  0  0  0  0  0
  1  2  1  0
  2  3  1  0
  3  4  2  0
  4  5  1  0
  5  6  2  0
  6  7  1  0
  7  8  2  0
  8  9  1  0
  9 10  1  0
 10 11  1  0
 11 12  1  0
 12 13  1  0
 13 14  1  0
 14 15  1  0
  9 16  2  0
 16 17  1  0
 17 18  1  0
 18 19  2  0
 19 20  1  0
 20 21  2  0
  6 22  1  0
 22 23  2  0
 23  3  1  0
 21  7  1  0
 15 10  1  0
 20 16  1  0
  1 24  1  0
  1 25  1  0
  1 26  1  0
  4 27  1  0
  5 28  1  0
 11 29  1  0
 11 30  1  0
 12 31  1  0
 12 32  1  0
 14 33  1  0
 14 34  1  0
 15 35  1  0
 15 36  1  0
 17 37  1  0
 18 38  1  0
 19 39  1  0
 21 40  1  0
 22 41  1  0
 23 42  1  0
M  CHG  1  21   1
M  END
>  <UniqueID>  (4) 
4

>  <SMILES>  (4) 
COc1ccc(-c2nc(N3CCOCC3)c3[nH]ccc3[nH+]2)cc1

>  <Energy>  (4) 
94.94849876461565

>  <Genealogy>  (4) 
COc1ccc(-c2nc(N3CCOCC3)c3[nH]ccc3[nH+]2)cc1 (protonated)
COc1ccc(-c2nc(N3CCOCC3)c3[nH]ccc3[nH+]2)cc1 (3D coordinates assigned)
COc1ccc(-c2nc(N3CCOCC3)c3[nH]ccc3[nH+]2)cc1 (nonaromatic ring conformer: 94.94849876461565 kcal/mol)

>  <smiles>  (4) 
COc1ccc(-c2nc(N3CCOCC3)c3[nH]ccc3n2)cc1

>  <score_type>  (4) 
oracle

>  <origin>  (4) 
adg

>  <m_score__min__energy>  (4) 
-5.5300000000000002

>  <m_primary>  (4) 
energy

$$$$
4:0
     RDKit          3D

 50 52  0  0  0  0  0  0  0  0999 V2000
   59.9750   35.2450   46.3820 C   0  0  0  0  0  0  0  0  0  0  0  0
   59.1950   34.8430   45.1300 C   0  0  0  0  0  0  0  0  0  0  0  0
   57.8700   34.1310   45.4580 C   0  0  0  0  0  0  0  0  0  0  0  0
   57.9180   33.2530   46.7250 C   0  0  0  0  0  0  0  0  0  0  0  0
   58.6790   32.0120   46.5160 N   0  0  0  0  0  0  0  0  0  0  0  0
   59.8310   31.6380   47.1440 C   0  0  0  0  0  0  0  0  0  0  0  0
   60.4640   32.3840   48.2930 C   0  0  0  0  0  0  0  0  0  0  0  0
   61.8580   31.9270   48.5390 N   0  0  0  0  0  0  0  0  0  0  0  0
   62.8240   32.5070   47.5690 C   0  0  0  0  0  0  0  0  0  0  0  0
   63.4500   33.8250   48.0700 C   0  0  0  0  0  0  0  0  0  0  0  0
   62.5840   34.4790   48.9720 O   0  0  0  0  0  0  0  0  0  0  0  0
   62.4710   33.7310   50.1700 C   0  0  0  0  0  0  0  0  0  0  0  0
   62.2810   32.2130   49.9280 C   0  0  0  0  0  0  0  0  0  0  0  0
   60.3180   30.4480   46.7110 N   0  0  0  0  0  0  0  0  0  0  0  0
   59.4270   30.0780   45.7750 C   0  0  0  0  0  0  0  0  0  0  0  0
   58.4360   30.9950   45.6590 C   0  0  0  0  0  0  0  0  0  0  0  0
   57.3830   30.7700   44.7710 C   0  0  0  0  0  0  0  0  0  0  0  0
   56.4270   31.5850   44.6820 O   0  0  0  0  0  0  0  0  0  0  0  0
   57.4040   29.6240   44.0080 N   0  0  0  0  0  0  0  0  0  0  0  0
   56.2950   29.3440   43.0800 C   0  0  0  0  0  0  0  0  0  0  0  0
   58.4170   28.6960   44.1690 C   0  0  0  0  0  0  0  0  0  0  0  0
   58.3880   27.6150   43.5140 O   0  0  0  0  0  0  0  0  0  0  0  0
   59.4550   28.9320   45.0420 N   0  0  0  0  0  0  0  0  0  0  0  0
   60.5200   27.9400   45.2430 C   0  0  0  0  0  0  0  0  0  0  0  0
   59.4072   34.9523   47.2775 H   0  0  0  0  0  0  0  0  0  0  0  0
   60.9510   34.7376   46.3846 H   0  0  0  0  0  0  0  0  0  0  0  0
   60.1281   36.3343   46.3846 H   0  0  0  0  0  0  0  0  0  0  0  0
   58.9726   35.7495   44.5479 H   0  0  0  0  0  0  0  0  0  0  0  0
   59.8193   34.1375   44.5621 H   0  0  0  0  0  0  0  0  0  0  0  0
   57.0931   34.8969   45.5988 H   0  0  0  0  0  0  0  0  0  0  0  0
   57.6578   33.4566   44.6153 H   0  0  0  0  0  0  0  0  0  0  0  0
   58.3923   33.8266   47.5350 H   0  0  0  0  0  0  0  0  0  0  0  0
   56.8849   32.9750   46.9809 H   0  0  0  0  0  0  0  0  0  0  0  0
   60.4766   33.4585   48.0577 H   0  0  0  0  0  0  0  0  0  0  0  0
   59.8720   32.1880   49.1992 H   0  0  0  0  0  0  0  0  0  0  0  0
   61.8860   30.8850   48.4300 H   0  0  0  0  0  0  0  0  0  0  0  0
   63.6294   31.7782   47.3956 H   0  0  0  0  0  0  0  0  0  0  0  0
   62.2728   32.7309   46.6438 H   0  0  0  0  0  0  0  0  0  0  0  0
   64.3998   33.6029   48.5785 H   0  0  0  0  0  0  0  0  0  0  0  0
   63.6234   34.4840   47.2065 H   0  0  0  0  0  0  0  0  0  0  0  0
   63.3866   33.8785   50.7615 H   0  0  0  0  0  0  0  0  0  0  0  0
   61.5752   34.0919   50.6965 H   0  0  0  0  0  0  0  0  0  0  0  0
   63.2339   31.6993   50.1230 H   0  0  0  0  0  0  0  0  0  0  0  0
   61.4927   31.8545   50.6063 H   0  0  0  0  0  0  0  0  0  0  0  0
   55.3854   29.1143   43.6544 H   0  0  0  0  0  0  0  0  0  0  0  0
   56.1158   30.2251   42.4463 H   0  0  0  0  0  0  0  0  0  0  0  0
   56.5556   28.4835   42.4463 H   0  0  0  0  0  0  0  0  0  0  0  0
   60.6820   27.7891   46.3205 H   0  0  0  0  0  0  0  0  0  0  0  0
   60.2255   26.9869   44.7795 H   0  0  0  0  0  0  0  0  0  0  0  0
   61.4499   28.3013   44.7795 H   0  0  0  0  0  0  0  0  0  0  0  0
  1  2  1  0
  2  3  1  0
  3  4  1  0
  4  5  1  0
  5  6  1  0
  6  7  1  0
  7  8  1  0
  8  9  1  0
  9 10  1  0
 10 11  1  0
 11 12  1  0
 12 13  1  0
  6 14  2  0
 14 15  1  0
 15 16  2  0
 16 17  1  0
 17 18  2  0
 17 19  1  0
 19 20  1  0
 19 21  1  0
 21 22  2  0
 21 23  1  0
 23 24  1  0
 16  5  1  0
 13  8  1  0
 23 15  1  0
  1 25  1  0
  1 26  1  0
  1 27  1  0
  2 28  1  0
  2 29  1  0
  3 30  1  0
  3 31  1  0
  4 32  1  0
  4 33  1  0
  7 34  1  0
  7 35  1  0
  8 36  1  0
  9 37  1  0
  9 38  1  0
 10 39  1  0
 10 40  1  0
 12 41  1  0
 12 42  1  0
 13 43  1  0
 13 44  1  0
 20 45  1  0
 20 46  1  0
 20 47  1  0
 24 48  1  0
 24 49  1  0
 24 50  1  0
M  CHG  1   8   1
M  END
>  <UniqueID>  (5) 
5

>  <SMILES>  (5) 
CCCCn1c(C[NH+]2CCOCC2)nc2c1c(=O)n(C)c(=O)n2C

>  <Energy>  (5) 
104.45808140582989

>  <Genealogy>  (5) 
CCCCn1c(C[NH+]2CCOCC2)nc2c1c(=O)n(C)c(=O)n2C (protonated)
CCCCn1c(C[NH+]2CCOCC2)nc2c1c(=O)n(C)c(=O)n2C (3D coordinates assigned)
CCCCn1c(C[NH+]2CCOCC2)nc2c1c(=O)n(C)c(=O)n2C (nonaromatic ring conformer: 104.45808140582989 kcal/mol)

>  <smiles>  (5) 
CCCCn1c(CN2CCOCC2)nc2c1c(=O)n(C)c(=O)n2C

>  <score_type>  (5) 
oracle

>  <origin>  (5) 
adg

>  <m_score__min__energy>  (5) 
-5.4000000000000004

>  <m_primary>  (5) 
energy

$$$$
5:0
     RDKit          3D

 48 51  0  0  0  0  0  0  0  0999 V2000
   58.5240   32.5890   48.6630 C   0  0  0  0  0  0  0  0  0  0  0  0
   58.5530   33.3020   47.3780 N   0  0  0  0  0  0  0  0  0  0  0  0
   57.4260   33.2760   46.5980 C   0  0  0  0  0  0  0  0  0  0  0  0
   57.3980   33.9030   45.3540 C   0  0  0  0  0  0  0  0  0  0  0  0
   58.5330   34.5580   44.8920 C   0  0  0  0  0  0  0  0  0  0  0  0
   59.6800   34.5850   45.6790 C   0  0  0  0  0  0  0  0  0  0  0  0
   59.6870   33.9570   46.9370 C   0  0  0  0  0  0  0  0  0  0  0  0
   60.9670   34.0410   47.7580 C   0  0  0  0  0  0  0  0  0  0  0  0
   61.9750   33.0400   47.3240 N   0  0  1  0  0  0  0  0  0  0  0  0
   63.2970   33.6560   47.1040 C   0  0  0  0  0  0  0  0  0  0  0  0
   62.0540   31.8890   48.2610 C   0  0  0  0  0  0  0  0  0  0  0  0
   61.1730   30.7180   47.8740 C   0  0  0  0  0  0  0  0  0  0  0  0
   60.6640   29.8500   48.8680 C   0  0  0  0  0  0  0  0  0  0  0  0
   59.8560   28.7560   48.5200 C   0  0  0  0  0  0  0  0  0  0  0  0
   59.5650   28.5540   47.1720 C   0  0  0  0  0  0  0  0  0  0  0  0
   60.0460   29.4000   46.1910 C   0  0  0  0  0  0  0  0  0  0  0  0
   60.8480   30.4930   46.5190 C   0  0  0  0  0  0  0  0  0  0  0  0
   59.5920   28.9740   44.8240 C   0  0  0  0  0  0  0  0  0  0  0  0
   58.7820   27.7590   45.1710 C   0  0  0  0  0  0  0  0  0  0  0  0
   58.0930   26.9140   44.2990 C   0  0  0  0  0  0  0  0  0  0  0  0
   57.3900   25.8220   44.8360 C   0  0  0  0  0  0  0  0  0  0  0  0
   57.3860   25.5900   46.2260 C   0  0  0  0  0  0  0  0  0  0  0  0
   58.0840   26.4490   47.0910 C   0  0  0  0  0  0  0  0  0  0  0  0
   58.7730   27.5250   46.5340 C   0  0  0  0  0  0  0  0  0  0  0  0
   58.5536   33.3171   49.4870 H   0  0  0  0  0  0  0  0  0  0  0  0
   57.6009   31.9947   48.7318 H   0  0  0  0  0  0  0  0  0  0  0  0
   59.3957   31.9217   48.7318 H   0  0  0  0  0  0  0  0  0  0  0  0
   56.5293   32.7517   46.9600 H   0  0  0  0  0  0  0  0  0  0  0  0
   56.4841   33.8796   44.7422 H   0  0  0  0  0  0  0  0  0  0  0  0
   58.5247   35.0525   43.9094 H   0  0  0  0  0  0  0  0  0  0  0  0
   60.5828   35.0984   45.3165 H   0  0  0  0  0  0  0  0  0  0  0  0
   61.3954   35.0478   47.6453 H   0  0  0  0  0  0  0  0  0  0  0  0
   60.7112   33.8317   48.8072 H   0  0  0  0  0  0  0  0  0  0  0  0
   61.6700   32.6400   46.4060 H   0  0  0  0  0  0  0  0  0  0  0  0
   63.7659   33.8745   48.0748 H   0  0  0  0  0  0  0  0  0  0  0  0
   63.9349   32.9624   46.5366 H   0  0  0  0  0  0  0  0  0  0  0  0
   63.1762   34.5906   46.5366 H   0  0  0  0  0  0  0  0  0  0  0  0
   63.0970   31.5411   48.2944 H   0  0  0  0  0  0  0  0  0  0  0  0
   61.6959   32.2479   49.2372 H   0  0  0  0  0  0  0  0  0  0  0  0
   60.9040   30.0342   49.9256 H   0  0  0  0  0  0  0  0  0  0  0  0
   59.4631   28.0764   49.2906 H   0  0  0  0  0  0  0  0  0  0  0  0
   61.2210   31.1683   45.7349 H   0  0  0  0  0  0  0  0  0  0  0  0
   58.9771   29.7476   44.3409 H   0  0  0  0  0  0  0  0  0  0  0  0
   60.4059   28.7927   44.1065 H   0  0  0  0  0  0  0  0  0  0  0  0
   58.1002   27.0990   43.2147 H   0  0  0  0  0  0  0  0  0  0  0  0
   56.8394   25.1441   44.1671 H   0  0  0  0  0  0  0  0  0  0  0  0
   56.8334   24.7317   46.6358 H   0  0  0  0  0  0  0  0  0  0  0  0
   58.0867   26.2773   48.1775 H   0  0  0  0  0  0  0  0  0  0  0  0
  1  2  1  0
  2  3  2  0
  3  4  1  0
  4  5  2  0
  5  6  1  0
  6  7  2  0
  7  8  1  0
  8  9  1  0
  9 10  1  0
  9 11  1  0
 11 12  1  0
 12 13  2  0
 13 14  1  0
 14 15  2  0
 15 16  1  0
 16 17  2  0
 16 18  1  0
 18 19  1  0
 19 20  2  0
 20 21  1  0
 21 22  2  0
 22 23  1  0
 23 24  2  0
  7  2  1  0
 17 12  1  0
 24 19  1  0
 24 15  1  0
  1 25  1  0
  1 26  1  0
  1 27  1  0
  3 28  1  0
  4 29  1  0
  5 30  1  0
  6 31  1  0
  8 32  1  0
  8 33  1  0
  9 34  1  6
 10 35  1  0
 10 36  1  0
 10 37  1  0
 11 38  1  0
 11 39  1  0
 13 40  1  0
 14 41  1  0
 17 42  1  0
 18 43  1  0
 18 44  1  0
 20 45  1  0
 21 46  1  0
 22 47  1  0
 23 48  1  0
M  CHG  2   2   1   9   1
M  END
>  <UniqueID>  (6) 
6

>  <SMILES>  (6) 
C[n+]1ccccc1C[N@@H+](C)Cc1ccc2c(c1)Cc1ccccc1-2

>  <Energy>  (6) 
80.87154466819482

>  <Genealogy>  (6) 
C[n+]1ccccc1C[NH+](C)Cc1ccc2c(c1)Cc1ccccc1-2 (protonated)
C[n+]1ccccc1C[N@@H+](C)Cc1ccc2c(c1)Cc1ccccc1-2 (chirality)
C[n+]1ccccc1C[N@@H+](C)Cc1ccc2c(c1)Cc1ccccc1-2 (3D coordinates assigned)
C[n+]1ccccc1C[N@@H+](C)Cc1ccc2c(c1)Cc1ccccc1-2 (nonaromatic ring conformer: 80.87154466819482 kcal/mol)

>  <smiles>  (6) 
CN(Cc1ccc2c(c1)Cc1ccccc1-2)Cc1cccc[n+]1C

>  <score_type>  (6) 
oracle

>  <origin>  (6) 
adg

>  <m_score__min__energy>  (6) 
-5.46

>  <m_primary>  (6) 
energy

$$$$
6:0
     RDKit          3D

 45 47  0  0  0  0  0  0  0  0999 V2000
   60.9910   30.5290   47.5980 N   0  0  0  0  0  0  0  0  0  0  0  0
   60.0340   30.0710   47.1350 C   0  0  0  0  0  0  0  0  0  0  0  0
   58.8380   29.5000   46.5560 C   0  0  0  0  0  0  0  0  0  0  0  0
   57.9380   30.2800   45.8060 C   0  0  0  0  0  0  0  0  0  0  0  0
   58.1080   31.7390   45.6140 C   0  0  0  0  0  0  0  0  0  0  0  0
   58.1370   32.6170   46.7130 C   0  0  0  0  0  0  0  0  0  0  0  0
   58.2720   33.9950   46.5120 C   0  0  0  0  0  0  0  0  0  0  0  0
   58.3660   34.5080   45.2160 C   0  0  0  0  0  0  0  0  0  0  0  0
   58.3160   33.6450   44.1170 C   0  0  0  0  0  0  0  0  0  0  0  0
   58.1810   32.2670   44.3140 C   0  0  0  0  0  0  0  0  0  0  0  0
   56.8770   29.6740   45.2170 N   0  0  0  0  0  0  0  0  0  0  0  0
   56.6450   28.3450   45.3470 C   0  0  0  0  0  0  0  0  0  0  0  0
   57.4850   27.5560   46.0820 N   0  0  0  0  0  0  0  0  0  0  0  0
   57.1870   26.1420   46.1950 C   0  0  0  0  0  0  0  0  0  0  0  0
   58.1040   25.2800   46.1120 O   0  0  0  0  0  0  0  0  0  0  0  0
   55.8630   25.7220   46.3900 O   0  0  0  0  0  0  0  0  0  0  0  0
   55.1690   24.8560   45.4950 C   0  0  0  0  0  0  0  0  0  0  0  0
   55.7030   23.4130   45.5710 C   0  0  0  0  0  0  0  0  0  0  0  0
   57.0140   23.2210   44.8910 N   0  0  0  0  0  0  0  0  0  0  0  0
   56.9090   23.4960   43.4330 C   0  0  0  0  0  0  0  0  0  0  0  0
   56.6040   22.2280   42.6060 C   0  0  0  0  0  0  0  0  0  0  0  0
   55.9300   21.2670   43.3900 O   0  0  0  0  0  0  0  0  0  0  0  0
   56.7880   20.7710   44.4020 C   0  0  0  0  0  0  0  0  0  0  0  0
   57.6020   21.8800   45.1120 C   0  0  0  0  0  0  0  0  0  0  0  0
   58.5840   28.1230   46.6870 C   0  0  0  0  0  0  0  0  0  0  0  0
   59.3770   27.4170   47.3720 O   0  0  0  0  0  0  0  0  0  0  0  0
   58.0532   32.2183   47.7348 H   0  0  0  0  0  0  0  0  0  0  0  0
   58.3042   34.6754   47.3757 H   0  0  0  0  0  0  0  0  0  0  0  0
   58.4794   35.5910   45.0601 H   0  0  0  0  0  0  0  0  0  0  0  0
   58.3829   34.0503   43.0966 H   0  0  0  0  0  0  0  0  0  0  0  0
   58.1317   31.5927   43.4463 H   0  0  0  0  0  0  0  0  0  0  0  0
   55.7698   27.8957   44.8549 H   0  0  0  0  0  0  0  0  0  0  0  0
   54.1005   24.8551   45.7563 H   0  0  0  0  0  0  0  0  0  0  0  0
   55.3235   25.2257   44.4706 H   0  0  0  0  0  0  0  0  0  0  0  0
   55.8188   23.1413   46.6306 H   0  0  0  0  0  0  0  0  0  0  0  0
   54.9750   22.7740   45.0498 H   0  0  0  0  0  0  0  0  0  0  0  0
   57.6810   23.9260   45.2850 H   0  0  0  0  0  0  0  0  0  0  0  0
   56.1014   24.2248   43.2699 H   0  0  0  0  0  0  0  0  0  0  0  0
   57.8822   23.8841   43.0980 H   0  0  0  0  0  0  0  0  0  0  0  0
   55.9720   22.5007   41.7480 H   0  0  0  0  0  0  0  0  0  0  0  0
   57.5547   21.7961   42.2601 H   0  0  0  0  0  0  0  0  0  0  0  0
   56.1767   20.2508   45.1541 H   0  0  0  0  0  0  0  0  0  0  0  0
   57.5094   20.0974   43.9164 H   0  0  0  0  0  0  0  0  0  0  0  0
   57.6196   21.6726   46.1921 H   0  0  0  0  0  0  0  0  0  0  0  0
   58.6189   21.8793   44.6926 H   0  0  0  0  0  0  0  0  0  0  0  0
  1  2  3  0
  2  3  1  0
  3  4  2  0
  4  5  1  0
  5  6  2  0
  6  7  1  0
  7  8  2  0
  8  9  1  0
  9 10  2  0
  4 11  1  0
 11 12  2  0
 12 13  1  0
 13 14  1  0
 14 15  2  0
 14 16  1  0
 16 17  1  0
 17 18  1  0
 18 19  1  0
 19 20  1  0
 20 21  1  0
 21 22  1  0
 22 23  1  0
 23 24  1  0
 13 25  1  0
 25 26  2  0
 25  3  1  0
 10  5  1  0
 24 19  1  0
  6 27  1  0
  7 28  1  0
  8 29  1  0
  9 30  1  0
 10 31  1  0
 12 32  1  0
 17 33  1  0
 17 34  1  0
 18 35  1  0
 18 36  1  0
 19 37  1  0
 20 38  1  0
 20 39  1  0
 21 40  1  0
 21 41  1  0
 23 42  1  0
 23 43  1  0
 24 44  1  0
 24 45  1  0
M  CHG  1  19   1
M  END
>  <UniqueID>  (7) 
7

>  <SMILES>  (7) 
N#Cc1c(-c2ccccc2)ncn(C(=O)OCC[NH+]2CCOCC2)c1=O

>  <Energy>  (7) 
70.72747624568123

>  <Genealogy>  (7) 
N#Cc1c(-c2ccccc2)ncn(C(=O)OCC[NH+]2CCOCC2)c1=O (protonated)
N#Cc1c(-c2ccccc2)ncn(C(=O)OCC[NH+]2CCOCC2)c1=O (3D coordinates assigned)
N#Cc1c(-c2ccccc2)ncn(C(=O)OCC[NH+]2CCOCC2)c1=O (nonaromatic ring conformer: 70.72747624568123 kcal/mol)

>  <smiles>  (7) 
N#Cc1c(-c2ccccc2)ncn(C(=O)OCCN2CCOCC2)c1=O

>  <score_type>  (7) 
oracle

>  <origin>  (7) 
adg

>  <m_score__min__energy>  (7) 
-5.46

>  <m_primary>  (7) 
energy

$$$$
7:0
     RDKit          3D

 43 45  0  0  0  0  0  0  0  0999 V2000
   55.5130   30.4100   44.8510 O   0  0  0  0  0  0  0  0  0  0  0  0
   56.5410   29.8200   44.4230 C   0  0  0  0  0  0  0  0  0  0  0  0
   57.6560   30.6340   43.8320 C   0  0  0  0  0  0  0  0  0  0  0  0
   57.8950   31.8550   44.6790 C   0  0  0  0  0  0  0  0  0  0  0  0
   58.1430   31.7280   46.0600 C   0  0  0  0  0  0  0  0  0  0  0  0
   58.3260   32.8690   46.8500 C   0  0  0  0  0  0  0  0  0  0  0  0
   58.2600   34.1420   46.2720 C   0  0  0  0  0  0  0  0  0  0  0  0
   58.0040   34.2760   44.9020 C   0  0  0  0  0  0  0  0  0  0  0  0
   57.8160   33.1380   44.1080 C   0  0  0  0  0  0  0  0  0  0  0  0
   56.6800   28.4120   44.6560 N   0  0  0  0  0  0  0  0  0  0  0  0
   57.4970   27.8140   45.6700 C   0  0  0  0  0  0  0  0  0  0  0  0
   58.6730   28.4560   46.0910 C   0  0  0  0  0  0  0  0  0  0  0  0
   59.5100   27.8530   47.0310 C   0  0  0  0  0  0  0  0  0  0  0  0
   59.1900   26.5950   47.5460 C   0  0  0  0  0  0  0  0  0  0  0  0
   58.0360   25.9340   47.1190 C   0  0  0  0  0  0  0  0  0  0  0  0
   57.1830   26.5270   46.1700 C   0  0  0  0  0  0  0  0  0  0  0  0
   55.9500   25.8130   45.7560 C   0  0  0  0  0  0  0  0  0  0  0  0
   54.8220   26.3220   46.0000 O   0  0  0  0  0  0  0  0  0  0  0  0
   56.0200   24.5330   45.1040 N   0  0  0  0  0  0  0  0  0  0  0  0
   54.9450   23.5610   45.3170 C   0  0  0  0  0  0  0  0  0  0  0  0
   55.4520   22.1460   45.0070 C   0  0  0  0  0  0  0  0  0  0  0  0
   56.0540   22.0960   43.7260 O   0  0  0  0  0  0  0  0  0  0  0  0
   57.2160   22.9050   43.7120 C   0  0  0  0  0  0  0  0  0  0  0  0
   56.8490   24.3800   43.9030 C   0  0  0  0  0  0  0  0  0  0  0  0
   58.5731   30.0276   43.7972 H   0  0  0  0  0  0  0  0  0  0  0  0
   57.3806   30.9448   42.8134 H   0  0  0  0  0  0  0  0  0  0  0  0
   58.1930   30.7295   46.5187 H   0  0  0  0  0  0  0  0  0  0  0  0
   58.5221   32.7649   47.9274 H   0  0  0  0  0  0  0  0  0  0  0  0
   58.4092   35.0370   46.8939 H   0  0  0  0  0  0  0  0  0  0  0  0
   57.9505   35.2768   44.4487 H   0  0  0  0  0  0  0  0  0  0  0  0
   57.6058   33.2478   43.0339 H   0  0  0  0  0  0  0  0  0  0  0  0
   58.9361   29.4406   45.6771 H   0  0  0  0  0  0  0  0  0  0  0  0
   60.4219   28.3687   47.3663 H   0  0  0  0  0  0  0  0  0  0  0  0
   59.8487   26.1233   48.2901 H   0  0  0  0  0  0  0  0  0  0  0  0
   57.7922   24.9423   47.5277 H   0  0  0  0  0  0  0  0  0  0  0  0
   54.6128   23.6082   46.3646 H   0  0  0  0  0  0  0  0  0  0  0  0
   54.1038   23.7989   44.6494 H   0  0  0  0  0  0  0  0  0  0  0  0
   56.1935   21.8546   45.7654 H   0  0  0  0  0  0  0  0  0  0  0  0
   54.5968   21.4544   45.0215 H   0  0  0  0  0  0  0  0  0  0  0  0
   57.8851   22.5906   44.5266 H   0  0  0  0  0  0  0  0  0  0  0  0
   57.7179   22.7876   42.7402 H   0  0  0  0  0  0  0  0  0  0  0  0
   57.7682   24.9737   44.0154 H   0  0  0  0  0  0  0  0  0  0  0  0
   56.2865   24.7315   43.0255 H   0  0  0  0  0  0  0  0  0  0  0  0
  1  2  2  0
  2  3  1  0
  3  4  1  0
  4  5  2  0
  5  6  1  0
  6  7  2  0
  7  8  1  0
  8  9  2  0
  2 10  1  0
 10 11  1  0
 11 12  2  0
 12 13  1  0
 13 14  2  0
 14 15  1  0
 15 16  2  0
 16 17  1  0
 17 18  2  0
 17 19  1  0
 19 20  1  0
 20 21  1  0
 21 22  1  0
 22 23  1  0
 23 24  1  0
  9  4  1  0
 16 11  1  0
 24 19  1  0
  3 25  1  0
  3 26  1  0
  5 27  1  0
  6 28  1  0
  7 29  1  0
  8 30  1  0
  9 31  1  0
 12 32  1  0
 13 33  1  0
 14 34  1  0
 15 35  1  0
 20 36  1  0
 20 37  1  0
 21 38  1  0
 21 39  1  0
 23 40  1  0
 23 41  1  0
 24 42  1  0
 24 43  1  0
M  CHG  1  10  -1
M  END
>  <UniqueID>  (8) 
8

>  <SMILES>  (8) 
O=C(Cc1ccccc1)[N-]c1ccccc1C(=O)N1CCOCC1

>  <Energy>  (8) 
54.59443401743176

>  <Genealogy>  (8) 
O=C(Cc1ccccc1)[N-]c1ccccc1C(=O)N1CCOCC1 (protonated)
O=C(Cc1ccccc1)[N-]c1ccccc1C(=O)N1CCOCC1 (3D coordinates assigned)
O=C(Cc1ccccc1)[N-]c1ccccc1C(=O)N1CCOCC1 (nonaromatic ring conformer: 54.59443401743176 kcal/mol)

>  <smiles>  (8) 
O=C(Cc1ccccc1)Nc1ccccc1C(=O)N1CCOCC1

>  <score_type>  (8) 
oracle

>  <origin>  (8) 
adg

>  <m_score__min__energy>  (8) 
-11.31

>  <m_primary>  (8) 
energy

$$$$
8:0
     RDKit          3D

 44 45  0  0  0  0  0  0  0  0999 V2000
   57.7800   32.7560   47.5630 C   0  0  0  0  0  0  0  0  0  0  0  0
   58.0470   33.8490   46.5030 C   0  0  2  0  0  0  0  0  0  0  0  0
   57.4280   33.3950   45.1520 C   0  0  0  0  0  0  0  0  0  0  0  0
   58.3510   32.5160   44.4190 N   0  0  0  0  0  0  0  0  0  0  0  0
   57.7940   32.0570   43.1360 C   0  0  0  0  0  0  0  0  0  0  0  0
   56.8650   30.8460   43.2970 C   0  0  0  0  0  0  0  0  0  0  0  0
   57.3860   29.9500   44.3240 N   0  0  0  0  0  0  0  0  0  0  0  0
   58.0080   28.7770   44.1090 C   0  0  0  0  0  0  0  0  0  0  0  0
   58.2750   28.1990   45.3320 C   0  0  0  0  0  0  0  0  0  0  0  0
   57.7670   29.0890   46.2600 C   0  0  0  0  0  0  0  0  0  0  0  0
   57.2220   30.1440   45.6230 N   0  0  0  0  0  0  0  0  0  0  0  0
   59.5170   34.1100   46.3860 N   0  0  0  0  0  0  0  0  0  0  0  0
   59.8390   35.4590   45.8800 C   0  0  0  0  0  0  0  0  0  0  0  0
   60.2910   33.8280   47.6260 C   0  0  0  0  0  0  0  0  0  0  0  0
   61.5760   33.0610   47.3920 C   0  0  0  0  0  0  0  0  0  0  0  0
   62.8360   33.6030   47.2250 C   0  0  0  0  0  0  0  0  0  0  0  0
   63.6890   32.5760   47.0600 N   0  0  0  0  0  0  0  0  0  0  0  0
   63.0010   31.4480   47.1310 N   0  0  0  0  0  0  0  0  0  0  0  0
   61.7220   31.7150   47.3440 N   0  0  0  0  0  0  0  0  0  0  0  0
   60.6980   30.6820   47.4610 C   0  0  0  0  0  0  0  0  0  0  0  0
   57.8854   33.1876   48.5693 H   0  0  0  0  0  0  0  0  0  0  0  0
   56.7598   32.3645   47.4370 H   0  0  0  0  0  0  0  0  0  0  0  0
   58.5048   31.9382   47.4370 H   0  0  0  0  0  0  0  0  0  0  0  0
   57.5756   34.7963   46.8037 H   0  0  0  0  0  0  0  0  0  0  0  0
   56.4930   32.8503   45.3496 H   0  0  0  0  0  0  0  0  0  0  0  0
   57.2319   34.2869   44.5388 H   0  0  0  0  0  0  0  0  0  0  0  0
   58.5850   31.6870   45.0150 H   0  0  0  0  0  0  0  0  0  0  0  0
   57.2232   32.8817   42.6843 H   0  0  0  0  0  0  0  0  0  0  0  0
   58.6355   31.7496   42.4977 H   0  0  0  0  0  0  0  0  0  0  0  0
   55.8628   31.1922   43.5900 H   0  0  0  0  0  0  0  0  0  0  0  0
   56.8083   30.3050   42.3409 H   0  0  0  0  0  0  0  0  0  0  0  0
   58.2603   28.3519   43.1264 H   0  0  0  0  0  0  0  0  0  0  0  0
   58.7804   27.2415   45.5264 H   0  0  0  0  0  0  0  0  0  0  0  0
   57.8023   28.9562   47.3514 H   0  0  0  0  0  0  0  0  0  0  0  0
   60.0015   36.1398   46.7286 H   0  0  0  0  0  0  0  0  0  0  0  0
   60.7513   35.4126   45.2672 H   0  0  0  0  0  0  0  0  0  0  0  0
   59.0041   35.8297   45.2672 H   0  0  0  0  0  0  0  0  0  0  0  0
   60.5430   34.7873   48.1016 H   0  0  0  0  0  0  0  0  0  0  0  0
   59.6541   33.1938   48.2601 H   0  0  0  0  0  0  0  0  0  0  0  0
   63.0931   34.6725   47.2267 H   0  0  0  0  0  0  0  0  0  0  0  0
   64.7190   32.6370   46.9050 H   0  0  0  0  0  0  0  0  0  0  0  0
   60.4992   30.4815   48.5241 H   0  0  0  0  0  0  0  0  0  0  0  0
   59.7736   31.0252   46.9735 H   0  0  0  0  0  0  0  0  0  0  0  0
   61.0493   29.7606   46.9735 H   0  0  0  0  0  0  0  0  0  0  0  0
  1  2  1  0
  2  3  1  0
  3  4  1  0
  4  5  1  0
  5  6  1  0
  6  7  1  0
  7  8  1  0
  8  9  2  0
  9 10  1  0
 10 11  2  0
  2 12  1  0
 12 13  1  0
 12 14  1  0
 14 15  1  0
 15 16  2  0
 16 17  1  0
 17 18  2  0
 18 19  1  0
 19 20  1  0
 11  7  1  0
 19 15  1  0
  1 21  1  0
  1 22  1  0
  1 23  1  0
  2 24  1  1
  3 25  1  0
  3 26  1  0
  4 27  1  0
  5 28  1  0
  5 29  1  0
  6 30  1  0
  6 31  1  0
  8 32  1  0
  9 33  1  0
 10 34  1  0
 13 35  1  0
 13 36  1  0
 13 37  1  0
 14 38  1  0
 14 39  1  0
 16 40  1  0
 17 41  1  0
 20 42  1  0
 20 43  1  0
 20 44  1  0
M  CHG  1  17   1
M  END
>  <UniqueID>  (9) 
9

>  <SMILES>  (9) 
C[C@H](CNCCn1cccn1)N(C)Cc1c[nH+]nn1C

>  <Energy>  (9) 
112.19218567360008

>  <Genealogy>  (9) 
CC(CNCCn1cccn1)N(C)Cc1c[nH+]nn1C (protonated)
C[C@H](CNCCn1cccn1)N(C)Cc1c[nH+]nn1C (chirality)
C[C@H](CNCCn1cccn1)N(C)Cc1c[nH+]nn1C (3D coordinates assigned)
C[C@H](CNCCn1cccn1)N(C)Cc1c[nH+]nn1C (optimized conformer: 112.19218567360008 kcal/mol)

>  <smiles>  (9) 
CC(CNCCn1cccn1)N(C)Cc1cnnn1C

>  <score_type>  (9) 
oracle

>  <origin>  (9) 
adg

>  <m_score__min__energy>  (9) 
-5.2800000000000002

>  <m_primary>  (9) 
energy

$$$$
9:0
     RDKit          3D

 54 56  0  0  0  0  0  0  0  0999 V2000
   61.8790   32.1670   52.3650 C   0  0  0  0  0  0  0  0  0  0  0  0
   62.6180   33.3520   52.9940 C   0  0  0  0  0  0  0  0  0  0  0  0
   64.0580   33.3920   52.6250 N   0  0  0  0  0  0  0  0  0  0  0  0
   64.7440   34.5340   53.2870 C   0  0  0  0  0  0  0  0  0  0  0  0
   64.8810   35.7840   52.4030 C   0  0  0  0  0  0  0  0  0  0  0  0
   64.7560   32.0980   52.8910 C   0  0  0  0  0  0  0  0  0  0  0  0
   65.9950   31.9110   51.9890 C   0  0  0  0  0  0  0  0  0  0  0  0
   65.6300   31.7540   50.5050 C   0  0  0  0  0  0  0  0  0  0  0  0
   65.6120   33.0920   49.7540 C   0  0  0  0  0  0  0  0  0  0  0  0
   64.3900   33.7860   50.0010 O   0  0  0  0  0  0  0  0  0  0  0  0
   63.2810   33.8140   49.1390 C   0  0  0  0  0  0  0  0  0  0  0  0
   61.9780   34.1140   49.5810 C   0  0  0  0  0  0  0  0  0  0  0  0
   60.9110   34.1230   48.6780 C   0  0  0  0  0  0  0  0  0  0  0  0
   61.1230   33.8220   47.3230 C   0  0  0  0  0  0  0  0  0  0  0  0
   60.0330   33.8490   46.3870 N   0  0  0  0  0  0  0  0  0  0  0  0
   59.5740   34.9480   45.7390 C   0  0  0  0  0  0  0  0  0  0  0  0
   58.4960   34.6250   44.9240 C   0  0  0  0  0  0  0  0  0  0  0  0
   58.3120   33.2690   45.0860 C   0  0  0  0  0  0  0  0  0  0  0  0
   57.3920   32.4090   44.4900 C   0  0  0  0  0  0  0  0  0  0  0  0
   57.4620   31.0440   44.8170 C   0  0  0  0  0  0  0  0  0  0  0  0
   58.4450   30.5730   45.7140 C   0  0  0  0  0  0  0  0  0  0  0  0
   59.3630   31.4640   46.2990 C   0  0  0  0  0  0  0  0  0  0  0  0
   59.2570   32.8230   45.9750 C   0  0  0  0  0  0  0  0  0  0  0  0
   62.4230   33.5350   46.8820 C   0  0  0  0  0  0  0  0  0  0  0  0
   63.4900   33.5260   47.7850 C   0  0  0  0  0  0  0  0  0  0  0  0
   61.4767   31.5219   53.1600 H   0  0  0  0  0  0  0  0  0  0  0  0
   61.0527   32.5393   51.7416 H   0  0  0  0  0  0  0  0  0  0  0  0
   62.5769   31.5887   51.7416 H   0  0  0  0  0  0  0  0  0  0  0  0
   62.1418   34.2838   52.6548 H   0  0  0  0  0  0  0  0  0  0  0  0
   62.5581   33.2387   54.0865 H   0  0  0  0  0  0  0  0  0  0  0  0
   64.1080   33.6090   51.6010 H   0  0  0  0  0  0  0  0  0  0  0  0
   64.1705   34.8075   54.1849 H   0  0  0  0  0  0  0  0  0  0  0  0
   65.7651   34.1977   53.5199 H   0  0  0  0  0  0  0  0  0  0  0  0
   64.9787   36.6751   53.0406 H   0  0  0  0  0  0  0  0  0  0  0  0
   65.7740   35.6879   51.7679 H   0  0  0  0  0  0  0  0  0  0  0  0
   63.9884   35.8836   51.7679 H   0  0  0  0  0  0  0  0  0  0  0  0
   65.0767   32.0776   53.9430 H   0  0  0  0  0  0  0  0  0  0  0  0
   64.0516   31.2818   52.6729 H   0  0  0  0  0  0  0  0  0  0  0  0
   66.6469   32.7901   52.0999 H   0  0  0  0  0  0  0  0  0  0  0  0
   66.5004   30.9870   52.3063 H   0  0  0  0  0  0  0  0  0  0  0  0
   66.3694   31.0933   50.0289 H   0  0  0  0  0  0  0  0  0  0  0  0
   64.6154   31.3320   50.4556 H   0  0  0  0  0  0  0  0  0  0  0  0
   66.4552   33.7104   50.0955 H   0  0  0  0  0  0  0  0  0  0  0  0
   65.6987   32.8962   48.6751 H   0  0  0  0  0  0  0  0  0  0  0  0
   61.7990   34.3424   50.6420 H   0  0  0  0  0  0  0  0  0  0  0  0
   59.8984   34.3676   49.0313 H   0  0  0  0  0  0  0  0  0  0  0  0
   59.9974   35.9578   45.8442 H   0  0  0  0  0  0  0  0  0  0  0  0
   57.9139   35.3061   44.2859 H   0  0  0  0  0  0  0  0  0  0  0  0
   56.6354   32.7862   43.7863 H   0  0  0  0  0  0  0  0  0  0  0  0
   56.7461   30.3379   44.3710 H   0  0  0  0  0  0  0  0  0  0  0  0
   58.4935   29.5013   45.9573 H   0  0  0  0  0  0  0  0  0  0  0  0
   60.1402   31.1048   46.9896 H   0  0  0  0  0  0  0  0  0  0  0  0
   62.6040   33.3157   45.8194 H   0  0  0  0  0  0  0  0  0  0  0  0
   64.5035   33.2904   47.4283 H   0  0  0  0  0  0  0  0  0  0  0  0
  1  2  1  0
  2  3  1  0
  3  4  1  0
  4  5  1  0
  3  6  1  0
  6  7  1  0
  7  8  1  0
  8  9  1  0
  9 10  1  0
 10 11  1  0
 11 12  2  0
 12 13  1  0
 13 14  2  0
 14 15  1  0
 15 16  1  0
 16 17  2  0
 17 18  1  0
 18 19  2  0
 19 20  1  0
 20 21  2  0
 21 22  1  0
 22 23  2  0
 14 24  1  0
 24 25  2  0
 25 11  1  0
 23 15  1  0
 23 18  1  0
  1 26  1  0
  1 27  1  0
  1 28  1  0
  2 29  1  0
  2 30  1  0
  3 31  1  0
  4 32  1  0
  4 33  1  0
  5 34  1  0
  5 35  1  0
  5 36  1  0
  6 37  1  0
  6 38  1  0
  7 39  1  0
  7 40  1  0
  8 41  1  0
  8 42  1  0
  9 43  1  0
  9 44  1  0
 12 45  1  0
 13 46  1  0
 16 47  1  0
 17 48  1  0
 19 49  1  0
 20 50  1  0
 21 51  1  0
 22 52  1  0
 24 53  1  0
 25 54  1  0
M  CHG  1   3   1
M  END
>  <UniqueID>  (10) 
10

>  <SMILES>  (10) 
CC[NH+](CC)CCCCOc1ccc(-n2ccc3ccccc32)cc1

>  <Energy>  (10) 
94.48230166205941

>  <Genealogy>  (10) 
CC[NH+](CC)CCCCOc1ccc(-n2ccc3ccccc32)cc1 (protonated)
CC[NH+](CC)CCCCOc1ccc(-n2ccc3ccccc32)cc1 (3D coordinates assigned)
CC[NH+](CC)CCCCOc1ccc(-n2ccc3ccccc32)cc1 (optimized conformer: 94.48230166205941 kcal/mol)

>  <smiles>  (10) 
CCN(CC)CCCCOc1ccc(-n2ccc3ccccc32)cc1

>  <score_type>  (10) 
oracle

>  <origin>  (10) 
adg

>  <m_score__min__energy>  (10) 
-5.4900000000000002

>  <m_primary>  (10) 
energy

$$$$
10:0
     RDKit          3D

 53 55  0  0  0  0  0  0  0  0999 V2000
   55.5570   29.7150   43.6050 C   0  0  0  0  0  0  0  0  0  0  0  0
   56.9430   29.2930   44.0040 C   0  0  0  0  0  0  0  0  0  0  0  0
   57.4430   28.0960   43.5750 N   0  0  0  0  0  0  0  0  0  0  0  0
   58.6910   27.6790   43.9160 C   0  0  0  0  0  0  0  0  0  0  0  0
   59.5010   28.4770   44.7210 C   0  0  0  0  0  0  0  0  0  0  0  0
   59.0210   29.7050   45.1740 C   0  0  0  0  0  0  0  0  0  0  0  0
   57.7270   30.1290   44.8220 C   0  0  0  0  0  0  0  0  0  0  0  0
   57.1910   31.3580   45.2500 O   0  0  0  0  0  0  0  0  0  0  0  0
   57.2380   32.5840   44.5210 C   0  0  0  0  0  0  0  0  0  0  0  0
   58.1870   33.5780   45.1980 C   0  0  0  0  0  0  0  0  0  0  0  0
   58.1350   33.4460   46.7220 C   0  0  0  0  0  0  0  0  0  0  0  0
   58.9670   34.5080   47.3380 N   0  0  0  0  0  0  0  0  0  0  0  0
   59.9570   35.0780   46.3990 C   0  0  0  0  0  0  0  0  0  0  0  0
   61.1280   34.1150   46.0960 C   0  0  0  0  0  0  0  0  0  0  0  0
   61.3590   33.0830   47.2230 C   0  0  0  0  0  0  0  0  0  0  0  0
   62.7640   32.4340   47.1740 C   0  0  0  0  0  0  0  0  0  0  0  0
   63.4390   32.2870   48.5200 C   0  0  0  0  0  0  0  0  0  0  0  0
   64.5130   33.1270   48.8630 C   0  0  0  0  0  0  0  0  0  0  0  0
   65.1440   32.9990   50.1040 C   0  0  0  0  0  0  0  0  0  0  0  0
   64.7040   32.0400   51.0180 C   0  0  0  0  0  0  0  0  0  0  0  0
   63.6280   31.2100   50.6950 C   0  0  0  0  0  0  0  0  0  0  0  0
   62.9910   31.3330   49.4560 C   0  0  0  0  0  0  0  0  0  0  0  0
   61.9380   30.5240   49.1730 F   0  0  0  0  0  0  0  0  0  0  0  0
   61.0290   33.7030   48.5880 C   0  0  0  0  0  0  0  0  0  0  0  0
   59.5540   34.1540   48.6560 C   0  0  0  0  0  0  0  0  0  0  0  0
   54.9554   29.8982   44.5075 H   0  0  0  0  0  0  0  0  0  0  0  0
   55.6121   30.6371   43.0077 H   0  0  0  0  0  0  0  0  0  0  0  0
   55.0889   28.9187   43.0077 H   0  0  0  0  0  0  0  0  0  0  0  0
   56.8630   27.4720   42.9690 H   0  0  0  0  0  0  0  0  0  0  0  0
   59.0625   26.7085   43.5553 H   0  0  0  0  0  0  0  0  0  0  0  0
   60.5113   28.1408   44.9970 H   0  0  0  0  0  0  0  0  0  0  0  0
   59.6549   30.3429   45.8074 H   0  0  0  0  0  0  0  0  0  0  0  0
   57.5931   32.3837   43.4993 H   0  0  0  0  0  0  0  0  0  0  0  0
   56.2283   33.0196   44.4944 H   0  0  0  0  0  0  0  0  0  0  0  0
   59.2141   33.3826   44.8562 H   0  0  0  0  0  0  0  0  0  0  0  0
   57.8740   34.5970   44.9267 H   0  0  0  0  0  0  0  0  0  0  0  0
   57.0947   33.5504   47.0640 H   0  0  0  0  0  0  0  0  0  0  0  0
   58.5207   32.4594   47.0183 H   0  0  0  0  0  0  0  0  0  0  0  0
   59.4466   35.3171   45.4543 H   0  0  0  0  0  0  0  0  0  0  0  0
   60.3829   35.9739   46.8744 H   0  0  0  0  0  0  0  0  0  0  0  0
   60.9068   33.5744   45.1639 H   0  0  0  0  0  0  0  0  0  0  0  0
   62.0419   34.7208   46.0081 H   0  0  0  0  0  0  0  0  0  0  0  0
   60.6633   32.2469   47.0586 H   0  0  0  0  0  0  0  0  0  0  0  0
   62.6638   31.4328   46.7296 H   0  0  0  0  0  0  0  0  0  0  0  0
   63.3979   33.1091   46.5803 H   0  0  0  0  0  0  0  0  0  0  0  0
   64.8591   33.8900   48.1502 H   0  0  0  0  0  0  0  0  0  0  0  0
   65.9887   33.6552   50.3607 H   0  0  0  0  0  0  0  0  0  0  0  0
   65.2045   31.9380   51.9922 H   0  0  0  0  0  0  0  0  0  0  0  0
   63.2804   30.4570   51.4176 H   0  0  0  0  0  0  0  0  0  0  0  0
   61.2123   32.9563   49.3747 H   0  0  0  0  0  0  0  0  0  0  0  0
   61.6695   34.5855   48.7331 H   0  0  0  0  0  0  0  0  0  0  0  0
   58.9617   33.3345   49.0891 H   0  0  0  0  0  0  0  0  0  0  0  0
   59.5291   35.0664   49.2699 H   0  0  0  0  0  0  0  0  0  0  0  0
  1  2  1  0
  2  3  2  0
  3  4  1  0
  4  5  2  0
  5  6  1  0
  6  7  2  0
  7  8  1  0
  8  9  1  0
  9 10  1  0
 10 11  1  0
 11 12  1  0
 12 13  1  0
 13 14  1  0
 14 15  1  0
 15 16  1  0
 16 17  1  0
 17 18  2  0
 18 19  1  0
 19 20  2  0
 20 21  1  0
 21 22  2  0
 22 23  1  0
 15 24  1  0
 24 25  1  0
  7  2  1  0
 25 12  1  0
 22 17  1  0
  1 26  1  0
  1 27  1  0
  1 28  1  0
  3 29  1  0
  4 30  1  0
  5 31  1  0
  6 32  1  0
  9 33  1  0
  9 34  1  0
 10 35  1  0
 10 36  1  0
 11 37  1  0
 11 38  1  0
 13 39  1  0
 13 40  1  0
 14 41  1  0
 14 42  1  0
 15 43  1  0
 16 44  1  0
 16 45  1  0
 18 46  1  0
 19 47  1  0
 20 48  1  0
 21 49  1  0
 24 50  1  0
 24 51  1  0
 25 52  1  0
 25 53  1  0
M  CHG  1   3   1
M  END
>  <UniqueID>  (11) 
11

>  <SMILES>  (11) 
Cc1[nH+]cccc1OCCCN1CCC(Cc2ccccc2F)CC1

>  <Energy>  (11) 
61.644718753317235

>  <Genealogy>  (11) 
Cc1[nH+]cccc1OCCCN1CCC(Cc2ccccc2F)CC1 (protonated)
Cc1[nH+]cccc1OCCCN1CCC(Cc2ccccc2F)CC1 (3D coordinates assigned)
Cc1[nH+]cccc1OCCCN1CCC(Cc2ccccc2F)CC1 (nonaromatic ring conformer: 61.644718753317235 kcal/mol)

>  <smiles>  (11) 
Cc1ncccc1OCCCN1CCC(Cc2ccccc2F)CC1

>  <score_type>  (11) 
oracle

>  <origin>  (11) 
adg

>  <m_score__min__energy>  (11) 
-6.96

>  <m_primary>  (11) 
energy

$$$$
11:0
     RDKit          3D

 48 51  0  0  0  0  0  0  0  0999 V2000
   56.7900   24.3990   47.7100 C   0  0  0  0  0  0  0  0  0  0  0  0
   57.1570   25.0360   46.4010 C   0  0  0  0  0  0  0  0  0  0  0  0
   57.0200   24.3210   45.2050 C   0  0  0  0  0  0  0  0  0  0  0  0
   57.3400   24.9200   43.9860 C   0  0  0  0  0  0  0  0  0  0  0  0
   57.7760   26.2530   43.9380 C   0  0  0  0  0  0  0  0  0  0  0  0
   58.1160   26.8730   42.6090 C   0  0  0  0  0  0  0  0  0  0  0  0
   57.8960   26.9900   45.1370 C   0  0  0  0  0  0  0  0  0  0  0  0
   58.3780   28.3460   45.1170 N   0  0  0  0  0  0  0  0  0  0  0  0
   57.5190   29.4900   45.2740 C   0  0  0  0  0  0  0  0  0  0  0  0
   56.2670   29.3430   45.2350 O   0  0  0  0  0  0  0  0  0  0  0  0
   58.0930   30.8470   45.4200 C   0  0  0  0  0  0  0  0  0  0  0  0
   57.3260   32.2520   44.8710 S   0  0  0  0  0  0  0  0  0  0  0  0
   58.4960   33.2950   45.4430 C   0  0  0  0  0  0  0  0  0  0  0  0
   58.4960   34.6410   45.3130 N   0  0  0  0  0  0  0  0  0  0  0  0
   59.5260   35.3530   45.8420 C   0  0  0  0  0  0  0  0  0  0  0  0
   60.5260   34.7170   46.5150 N   0  0  0  0  0  0  0  0  0  0  0  0
   60.5480   33.3600   46.6630 C   0  0  0  0  0  0  0  0  0  0  0  0
   61.5690   32.7740   47.4730 N   0  0  0  0  0  0  0  0  0  0  0  0
   61.3220   32.3660   48.8440 C   0  0  0  0  0  0  0  0  0  0  0  0
   62.6780   31.9450   49.3870 C   0  0  0  0  0  0  0  0  0  0  0  0
   63.7100   32.6230   48.4870 C   0  0  0  0  0  0  0  0  0  0  0  0
   62.9820   32.9520   47.1870 C   0  0  0  0  0  0  0  0  0  0  0  0
   59.5080   32.6010   46.0860 C   0  0  0  0  0  0  0  0  0  0  0  0
   59.3140   31.1950   46.0400 C   0  0  0  0  0  0  0  0  0  0  0  0
   60.3050   30.1650   46.5160 C   0  0  0  0  0  0  0  0  0  0  0  0
   57.5850   26.3700   46.3620 C   0  0  0  0  0  0  0  0  0  0  0  0
   57.1518   25.0269   48.5375 H   0  0  0  0  0  0  0  0  0  0  0  0
   55.6964   24.3000   47.7758 H   0  0  0  0  0  0  0  0  0  0  0  0
   57.2529   23.4033   47.7758 H   0  0  0  0  0  0  0  0  0  0  0  0
   56.6585   23.2823   45.2264 H   0  0  0  0  0  0  0  0  0  0  0  0
   57.2497   24.3421   43.0544 H   0  0  0  0  0  0  0  0  0  0  0  0
   58.6390   27.8268   42.7724 H   0  0  0  0  0  0  0  0  0  0  0  0
   58.7662   26.1908   42.0417 H   0  0  0  0  0  0  0  0  0  0  0  0
   57.1912   27.0545   42.0417 H   0  0  0  0  0  0  0  0  0  0  0  0
   59.3940   28.5020   44.9350 H   0  0  0  0  0  0  0  0  0  0  0  0
   59.5525   36.4466   45.7265 H   0  0  0  0  0  0  0  0  0  0  0  0
   60.9163   33.2048   49.4286 H   0  0  0  0  0  0  0  0  0  0  0  0
   60.5853   31.5513   48.9033 H   0  0  0  0  0  0  0  0  0  0  0  0
   62.7961   32.2814   50.4276 H   0  0  0  0  0  0  0  0  0  0  0  0
   62.7944   30.8512   49.3872 H   0  0  0  0  0  0  0  0  0  0  0  0
   64.0834   33.5435   48.9596 H   0  0  0  0  0  0  0  0  0  0  0  0
   64.5790   31.9725   48.3089 H   0  0  0  0  0  0  0  0  0  0  0  0
   63.1847   33.9904   46.8859 H   0  0  0  0  0  0  0  0  0  0  0  0
   63.3139   32.3062   46.3607 H   0  0  0  0  0  0  0  0  0  0  0  0
   60.3190   30.1504   47.6158 H   0  0  0  0  0  0  0  0  0  0  0  0
   60.0126   29.1735   46.1399 H   0  0  0  0  0  0  0  0  0  0  0  0
   61.3070   30.4190   46.1399 H   0  0  0  0  0  0  0  0  0  0  0  0
   57.6789   26.9388   47.2988 H   0  0  0  0  0  0  0  0  0  0  0  0
  1  2  1  0
  2  3  2  0
  3  4  1  0
  4  5  2  0
  5  6  1  0
  5  7  1  0
  7  8  1  0
  8  9  1  0
  9 10  2  0
  9 11  1  0
 11 12  1  0
 12 13  1  0
 13 14  2  0
 14 15  1  0
 15 16  2  0
 16 17  1  0
 17 18  1  0
 18 19  1  0
 19 20  1  0
 20 21  1  0
 21 22  1  0
 17 23  2  0
 23 24  1  0
 24 25  1  0
  7 26  2  0
 26  2  1  0
 24 11  2  0
 23 13  1  0
 22 18  1  0
  1 27  1  0
  1 28  1  0
  1 29  1  0
  3 30  1  0
  4 31  1  0
  6 32  1  0
  6 33  1  0
  6 34  1  0
  8 35  1  0
 15 36  1  0
 19 37  1  0
 19 38  1  0
 20 39  1  0
 20 40  1  0
 21 41  1  0
 21 42  1  0
 22 43  1  0
 22 44  1  0
 25 45  1  0
 25 46  1  0
 25 47  1  0
 26 48  1  0
M  END
>  <UniqueID>  (12) 
12

>  <SMILES>  (12) 
Cc1ccc(C)c(NC(=O)c2sc3ncnc(N4CCCC4)c3c2C)c1

>  <Energy>  (12) 
98.17864988268565

>  <Genealogy>  (12) 
Cc1ccc(C)c(NC(=O)c2sc3ncnc(N4CCCC4)c3c2C)c1 (3D coordinates assigned)
Cc1ccc(C)c(NC(=O)c2sc3ncnc(N4CCCC4)c3c2C)c1 (nonaromatic ring conformer: 98.17864988268565 kcal/mol)

>  <smiles>  (12) 
Cc1ccc(C)c(NC(=O)c2sc3ncnc(N4CCCC4)c3c2C)c1

>  <score_type>  (12) 
oracle

>  <origin>  (12) 
adg

>  <m_score__min__energy>  (12) 
-8.4499999999999993

>  <m_primary>  (12) 
energy

$$$$
12:0
     RDKit          3D

 42 44  0  0  0  0  0  0  0  0999 V2000
   60.7710   29.7030   48.9610 C   0  0  0  0  0  0  0  0  0  0  0  0
   60.1140   29.2120   47.7960 O   0  0  0  0  0  0  0  0  0  0  0  0
   59.3150   29.9840   46.9370 C   0  0  0  0  0  0  0  0  0  0  0  0
   59.6080   31.3410   46.7090 C   0  0  0  0  0  0  0  0  0  0  0  0
   58.7810   32.1350   45.9060 C   0  0  0  0  0  0  0  0  0  0  0  0
   59.0650   33.5300   45.7080 N   0  0  0  0  0  0  0  0  0  0  0  0
   58.3570   34.3210   44.9220 N   0  0  0  0  0  0  0  0  0  0  0  0
   58.9340   35.5130   44.8840 N   0  0  0  0  0  0  0  0  0  0  0  0
   60.0220   35.5180   45.6400 N   0  0  0  0  0  0  0  0  0  0  0  0
   60.0990   34.2780   46.1570 C   0  0  0  0  0  0  0  0  0  0  0  0
   61.1400   33.8580   47.1170 C   0  0  0  0  0  0  0  0  0  0  0  0
   62.4090   33.4570   46.6740 C   0  0  0  0  0  0  0  0  0  0  0  0
   63.3990   33.1040   47.5940 C   0  0  0  0  0  0  0  0  0  0  0  0
   63.1310   33.1210   48.9720 C   0  0  0  0  0  0  0  0  0  0  0  0
   64.2260   32.7610   49.9430 C   0  0  0  0  0  0  0  0  0  0  0  0
   64.1190   33.4750   51.1240 F   0  0  0  0  0  0  0  0  0  0  0  0
   65.4540   33.0350   49.3700 F   0  0  0  0  0  0  0  0  0  0  0  0
   64.1580   31.4110   50.2380 F   0  0  0  0  0  0  0  0  0  0  0  0
   61.8470   33.4890   49.4120 C   0  0  0  0  0  0  0  0  0  0  0  0
   60.8580   33.8470   48.4900 C   0  0  0  0  0  0  0  0  0  0  0  0
   57.6850   31.5500   45.2660 C   0  0  0  0  0  0  0  0  0  0  0  0
   57.3850   30.1910   45.4560 C   0  0  0  0  0  0  0  0  0  0  0  0
   56.2860   29.5820   44.8320 O   0  0  0  0  0  0  0  0  0  0  0  0
   55.9340   29.7540   43.4630 C   0  0  0  0  0  0  0  0  0  0  0  0
   58.1910   29.4030   46.2950 C   0  0  0  0  0  0  0  0  0  0  0  0
   57.8180   28.0540   46.4450 O   0  0  0  0  0  0  0  0  0  0  0  0
   58.6460   26.9160   46.2310 C   0  0  0  0  0  0  0  0  0  0  0  0
   60.2608   29.3217   49.8578 H   0  0  0  0  0  0  0  0  0  0  0  0
   61.8174   29.3637   48.9623 H   0  0  0  0  0  0  0  0  0  0  0  0
   60.7421   30.8026   48.9623 H   0  0  0  0  0  0  0  0  0  0  0  0
   60.5024   31.7857   47.1697 H   0  0  0  0  0  0  0  0  0  0  0  0
   62.6258   33.4203   45.5962 H   0  0  0  0  0  0  0  0  0  0  0  0
   64.3967   32.8103   47.2359 H   0  0  0  0  0  0  0  0  0  0  0  0
   61.6190   33.4953   50.4881 H   0  0  0  0  0  0  0  0  0  0  0  0
   59.8534   34.1214   48.8443 H   0  0  0  0  0  0  0  0  0  0  0  0
   57.0505   32.1603   44.6065 H   0  0  0  0  0  0  0  0  0  0  0  0
   54.9475   30.2360   43.3958 H   0  0  0  0  0  0  0  0  0  0  0  0
   56.6856   30.3864   42.9678 H   0  0  0  0  0  0  0  0  0  0  0  0
   55.8970   28.7725   42.9678 H   0  0  0  0  0  0  0  0  0  0  0  0
   58.9510   26.4968   47.2012 H   0  0  0  0  0  0  0  0  0  0  0  0
   58.0872   26.1575   45.6632 H   0  0  0  0  0  0  0  0  0  0  0  0
   59.5397   27.2143   45.6632 H   0  0  0  0  0  0  0  0  0  0  0  0
  1  2  1  0
  2  3  1  0
  3  4  2  0
  4  5  1  0
  5  6  1  0
  6  7  1  0
  7  8  2  0
  8  9  1  0
  9 10  2  0
 10 11  1  0
 11 12  2  0
 12 13  1  0
 13 14  2  0
 14 15  1  0
 15 16  1  0
 15 17  1  0
 15 18  1  0
 14 19  1  0
 19 20  2  0
  5 21  2  0
 21 22  1  0
 22 23  1  0
 23 24  1  0
 22 25  2  0
 25 26  1  0
 26 27  1  0
 25  3  1  0
 10  6  1  0
 20 11  1  0
  1 28  1  0
  1 29  1  0
  1 30  1  0
  4 31  1  0
 12 32  1  0
 13 33  1  0
 19 34  1  0
 20 35  1  0
 21 36  1  0
 24 37  1  0
 24 38  1  0
 24 39  1  0
 27 40  1  0
 27 41  1  0
 27 42  1  0
M  END
>  <UniqueID>  (13) 
13

>  <SMILES>  (13) 
COc1cc(-n2nnnc2-c2ccc(C(F)(F)F)cc2)cc(OC)c1OC

>  <Energy>  (13) 
94.34724457674594

>  <Genealogy>  (13) 
COc1cc(-n2nnnc2-c2ccc(C(F)(F)F)cc2)cc(OC)c1OC (3D coordinates assigned)
COc1cc(-n2nnnc2-c2ccc(C(F)(F)F)cc2)cc(OC)c1OC (optimized conformer: 94.34724457674594 kcal/mol)

>  <smiles>  (13) 
COc1cc(-n2nnnc2-c2ccc(C(F)(F)F)cc2)cc(OC)c1OC

>  <score_type>  (13) 
oracle

>  <origin>  (13) 
adg

>  <m_score__min__energy>  (13) 
-6.8899999999999997

>  <m_primary>  (13) 
energy

$$$$
13:0
     RDKit          3D

 39 41  0  0  0  0  0  0  0  0999 V2000
   57.9340   23.6730   45.7420 C   0  0  0  0  0  0  0  0  0  0  0  0
   57.3660   24.7690   46.4520 O   0  0  0  0  0  0  0  0  0  0  0  0
   57.5770   26.1200   46.1330 C   0  0  0  0  0  0  0  0  0  0  0  0
   58.8670   26.6690   46.0480 C   0  0  0  0  0  0  0  0  0  0  0  0
   59.0410   28.0190   45.7580 C   0  0  0  0  0  0  0  0  0  0  0  0
   57.9370   28.8500   45.5310 C   0  0  0  0  0  0  0  0  0  0  0  0
   58.1700   30.2960   45.3130 C   0  0  0  0  0  0  0  0  0  0  0  0
   57.9530   30.8270   44.0800 N   0  0  0  0  0  0  0  0  0  0  0  0
   58.1520   32.1450   43.8250 C   0  0  0  0  0  0  0  0  0  0  0  0
   57.9320   32.5890   42.6650 O   0  0  0  0  0  0  0  0  0  0  0  0
   58.5970   32.9910   44.8510 C   0  0  0  0  0  0  0  0  0  0  0  0
   58.8200   34.3660   44.6480 C   0  0  0  0  0  0  0  0  0  0  0  0
   59.2690   35.1660   45.7030 C   0  0  0  0  0  0  0  0  0  0  0  0
   59.4980   34.6060   46.9630 C   0  0  0  0  0  0  0  0  0  0  0  0
   59.2810   33.2410   47.1740 C   0  0  0  0  0  0  0  0  0  0  0  0
   58.8310   32.4260   46.1240 C   0  0  0  0  0  0  0  0  0  0  0  0
   58.6210   31.0940   46.3230 N   0  0  0  0  0  0  0  0  0  0  0  0
   56.6350   28.2960   45.5480 C   0  0  0  0  0  0  0  0  0  0  0  0
   55.5310   29.0860   45.2110 O   0  0  0  0  0  0  0  0  0  0  0  0
   55.3970   29.6970   43.9310 C   0  0  0  0  0  0  0  0  0  0  0  0
   56.4540   26.9290   45.8930 C   0  0  0  0  0  0  0  0  0  0  0  0
   55.1950   26.3100   46.0040 O   0  0  0  0  0  0  0  0  0  0  0  0
   54.8470   25.0060   45.5500 C   0  0  0  0  0  0  0  0  0  0  0  0
   58.3182   22.9317   46.4582 H   0  0  0  0  0  0  0  0  0  0  0  0
   57.1639   23.2071   45.1097 H   0  0  0  0  0  0  0  0  0  0  0  0
   58.7587   24.0336   45.1097 H   0  0  0  0  0  0  0  0  0  0  0  0
   59.7456   26.0277   46.2117 H   0  0  0  0  0  0  0  0  0  0  0  0
   60.0568   28.4378   45.7065 H   0  0  0  0  0  0  0  0  0  0  0  0
   58.6408   34.8115   43.6583 H   0  0  0  0  0  0  0  0  0  0  0  0
   59.4427   36.2400   45.5409 H   0  0  0  0  0  0  0  0  0  0  0  0
   59.8496   35.2403   47.7901 H   0  0  0  0  0  0  0  0  0  0  0  0
   59.4637   32.8043   48.1669 H   0  0  0  0  0  0  0  0  0  0  0  0
   58.8270   30.6760   47.2600 H   0  0  0  0  0  0  0  0  0  0  0  0
   55.1629   30.7644   44.0569 H   0  0  0  0  0  0  0  0  0  0  0  0
   56.3396   29.5916   43.3739 H   0  0  0  0  0  0  0  0  0  0  0  0
   54.5850   29.2068   43.3739 H   0  0  0  0  0  0  0  0  0  0  0  0
   54.6721   24.3507   46.4161 H   0  0  0  0  0  0  0  0  0  0  0  0
   53.9322   25.0615   44.9416 H   0  0  0  0  0  0  0  0  0  0  0  0
   55.6678   24.5984   44.9416 H   0  0  0  0  0  0  0  0  0  0  0  0
  1  2  1  0
  2  3  1  0
  3  4  2  0
  4  5  1  0
  5  6  2  0
  6  7  1  0
  7  8  2  0
  8  9  1  0
  9 10  2  0
  9 11  1  0
 11 12  2  0
 12 13  1  0
 13 14  2  0
 14 15  1  0
 15 16  2  0
 16 17  1  0
  6 18  1  0
 18 19  1  0
 19 20  1  0
 18 21  2  0
 21 22  1  0
 22 23  1  0
 21  3  1  0
 17  7  1  0
 16 11  1  0
  1 24  1  0
  1 25  1  0
  1 26  1  0
  4 27  1  0
  5 28  1  0
 12 29  1  0
 13 30  1  0
 14 31  1  0
 15 32  1  0
 17 33  1  0
 20 34  1  0
 20 35  1  0
 20 36  1  0
 23 37  1  0
 23 38  1  0
 23 39  1  0
M  END
>  <UniqueID>  (14) 
14

>  <SMILES>  (14) 
COc1ccc(-c2nc(=O)c3ccccc3[nH]2)c(OC)c1OC

>  <Energy>  (14) 
58.70117033999209

>  <Genealogy>  (14) 
COc1ccc(-c2nc(=O)c3ccccc3[nH]2)c(OC)c1OC (3D coordinates assigned)
COc1ccc(-c2nc(=O)c3ccccc3[nH]2)c(OC)c1OC (optimized conformer: 58.70117033999209 kcal/mol)

>  <smiles>  (14) 
COc1ccc(-c2nc(=O)c3ccccc3[nH]2)c(OC)c1OC

>  <score_type>  (14) 
oracle

>  <origin>  (14) 
adg

>  <m_score__min__energy>  (14) 
-7.8600000000000003

>  <m_primary>  (14) 
energy

$$$$
14:0
     RDKit          3D

 28 29  0  0  0  0  0  0  0  0999 V2000
   58.2190   32.3200   49.7490 C   0  0  0  0  0  0  0  0  0  0  0  0
   59.2770   32.5300   48.7600 N   0  0  0  0  0  0  0  0  0  0  0  0
   60.0020   33.7960   48.7570 C   0  0  0  0  0  0  0  0  0  0  0  0
   59.3140   34.7750   47.8290 C   0  0  0  0  0  0  0  0  0  0  0  0
   59.6110   34.4640   46.4760 O   0  0  0  0  0  0  0  0  0  0  0  0
   59.0660   33.3930   45.7600 C   0  0  0  0  0  0  0  0  0  0  0  0
   58.5490   33.6950   44.4950 C   0  0  0  0  0  0  0  0  0  0  0  0
   57.9810   32.7070   43.6940 C   0  0  0  0  0  0  0  0  0  0  0  0
   57.9180   31.3870   44.1420 C   0  0  0  0  0  0  0  0  0  0  0  0
   57.3120   30.3870   43.3030 N   0  0  0  0  0  0  0  0  0  0  0  0
   56.1010   29.6910   43.6210 C   0  0  0  0  0  0  0  0  0  0  0  0
   55.5700   29.7890   44.7600 O   0  0  0  0  0  0  0  0  0  0  0  0
   58.3850   31.0780   45.4300 C   0  0  0  0  0  0  0  0  0  0  0  0
   58.9650   32.0630   46.2580 C   0  0  0  0  0  0  0  0  0  0  0  0
   59.3640   31.6490   47.6320 C   0  0  0  0  0  0  0  0  0  0  0  0
   59.8740   30.5060   47.8000 O   0  0  0  0  0  0  0  0  0  0  0  0
   58.6414   32.4038   50.7612 H   0  0  0  0  0  0  0  0  0  0  0  0
   57.4353   33.0801   49.6146 H   0  0  0  0  0  0  0  0  0  0  0  0
   57.7850   31.3182   49.6146 H   0  0  0  0  0  0  0  0  0  0  0  0
   60.0205   34.2093   49.7762 H   0  0  0  0  0  0  0  0  0  0  0  0
   61.0316   33.6258   48.4091 H   0  0  0  0  0  0  0  0  0  0  0  0
   58.2264   34.7186   47.9839 H   0  0  0  0  0  0  0  0  0  0  0  0
   59.6742   35.7906   48.0499 H   0  0  0  0  0  0  0  0  0  0  0  0
   58.5919   34.7307   44.1268 H   0  0  0  0  0  0  0  0  0  0  0  0
   57.5802   32.9686   42.7036 H   0  0  0  0  0  0  0  0  0  0  0  0
   57.8290   30.0740   42.4500 H   0  0  0  0  0  0  0  0  0  0  0  0
   55.6254   29.0589   42.8566 H   0  0  0  0  0  0  0  0  0  0  0  0
   58.2969   30.0464   45.8014 H   0  0  0  0  0  0  0  0  0  0  0  0
  1  2  1  0
  2  3  1  0
  3  4  1  0
  4  5  1  0
  5  6  1  0
  6  7  2  0
  7  8  1  0
  8  9  2  0
  9 10  1  0
 10 11  1  0
 11 12  2  0
  9 13  1  0
 13 14  2  0
 14 15  1  0
 15 16  2  0
 15  2  1  0
 14  6  1  0
  1 17  1  0
  1 18  1  0
  1 19  1  0
  3 20  1  0
  3 21  1  0
  4 22  1  0
  4 23  1  0
  7 24  1  0
  8 25  1  0
 10 26  1  0
 11 27  1  0
 13 28  1  0
M  END
>  <UniqueID>  (15) 
15

>  <SMILES>  (15) 
CN1CCOc2ccc(NC=O)cc2C1=O

>  <Energy>  (15) 
42.95876508847557

>  <Genealogy>  (15) 
CN1CCOc2ccc(NC=O)cc2C1=O (3D coordinates assigned)
CN1CCOc2ccc(NC=O)cc2C1=O (nonaromatic ring conformer: 42.95876508847557 kcal/mol)

>  <smiles>  (15) 
CN1CCOc2ccc(NC=O)cc2C1=O

>  <score_type>  (15) 
oracle

>  <origin>  (15) 
adg

>  <m_score__min__energy>  (15) 
-4.3499999999999996

>  <m_primary>  (15) 
energy

$$$$
15:0
     RDKit          3D

 56 60  0  0  0  0  0  0  0  0999 V2000
   55.3680   23.3360   47.3970 C   0  0  0  0  0  0  0  0  0  0  0  0
   55.0220   24.3450   46.4530 O   0  0  0  0  0  0  0  0  0  0  0  0
   55.9480   25.0560   45.6760 C   0  0  0  0  0  0  0  0  0  0  0  0
   56.4770   24.4320   44.5420 C   0  0  0  0  0  0  0  0  0  0  0  0
   57.4020   25.0980   43.7340 C   0  0  0  0  0  0  0  0  0  0  0  0
   57.8060   26.3950   44.0530 C   0  0  0  0  0  0  0  0  0  0  0  0
   57.2900   27.0440   45.1890 C   0  0  0  0  0  0  0  0  0  0  0  0
   57.7200   28.4230   45.5300 C   0  0  0  0  0  0  0  0  0  0  0  0
   58.5130   28.6620   46.6640 C   0  0  0  0  0  0  0  0  0  0  0  0
   58.9140   29.9590   46.9930 C   0  0  0  0  0  0  0  0  0  0  0  0
   58.5200   31.0540   46.1980 C   0  0  0  0  0  0  0  0  0  0  0  0
   57.7630   30.8120   45.0370 C   0  0  0  0  0  0  0  0  0  0  0  0
   57.3480   29.5100   44.7200 C   0  0  0  0  0  0  0  0  0  0  0  0
   57.3460   31.9680   44.1730 C   0  0  0  0  0  0  0  0  0  0  0  0
   58.4480   33.0320   44.1510 C   0  0  0  0  0  0  0  0  0  0  0  0
   58.8490   33.4160   45.5210 N   0  0  0  0  0  0  0  0  0  0  0  0
   58.9130   32.4610   46.5090 C   0  0  0  0  0  0  0  0  0  0  0  0
   59.2940   32.8380   47.8070 C   0  0  0  0  0  0  0  0  0  0  0  0
   59.6570   34.1650   48.0570 C   0  0  0  0  0  0  0  0  0  0  0  0
   60.0520   34.6080   49.3300 O   0  0  0  0  0  0  0  0  0  0  0  0
   60.9630   33.9180   50.1820 C   0  0  0  0  0  0  0  0  0  0  0  0
   62.1590   33.4080   49.3720 C   0  0  1  0  0  0  0  0  0  0  0  0
   61.9770   31.9130   49.0000 C   0  0  0  0  0  0  0  0  0  0  0  0
   63.0670   31.3840   48.2590 O   0  0  0  0  0  0  0  0  0  0  0  0
   63.7480   32.3660   47.4920 C   0  0  0  0  0  0  0  0  0  0  0  0
   62.8600   33.5650   47.1090 C   0  0  0  0  0  0  0  0  0  0  0  0
   62.3250   34.2450   48.2330 O   0  0  0  0  0  0  0  0  0  0  0  0
   59.6330   35.0610   47.0380 N   0  0  0  0  0  0  0  0  0  0  0  0
   59.2410   34.7050   45.7860 C   0  0  0  0  0  0  0  0  0  0  0  0
   59.2460   35.5770   44.8730 O   0  0  0  0  0  0  0  0  0  0  0  0
   56.3570   26.3660   45.9970 C   0  0  0  0  0  0  0  0  0  0  0  0
   55.2341   23.7264   48.4166 H   0  0  0  0  0  0  0  0  0  0  0  0
   54.7190   22.4599   47.2517 H   0  0  0  0  0  0  0  0  0  0  0  0
   56.4181   23.0425   47.2517 H   0  0  0  0  0  0  0  0  0  0  0  0
   56.1628   23.4098   44.2843 H   0  0  0  0  0  0  0  0  0  0  0  0
   57.8128   24.5987   42.8441 H   0  0  0  0  0  0  0  0  0  0  0  0
   58.5334   26.9136   43.4112 H   0  0  0  0  0  0  0  0  0  0  0  0
   58.8216   27.8191   47.2998 H   0  0  0  0  0  0  0  0  0  0  0  0
   59.5425   30.1271   47.8800 H   0  0  0  0  0  0  0  0  0  0  0  0
   56.7257   29.3381   43.8294 H   0  0  0  0  0  0  0  0  0  0  0  0
   57.1650   31.6102   43.1487 H   0  0  0  0  0  0  0  0  0  0  0  0
   56.4259   32.4105   44.5824 H   0  0  0  0  0  0  0  0  0  0  0  0
   59.3238   32.6303   43.6203 H   0  0  0  0  0  0  0  0  0  0  0  0
   58.0595   33.9248   43.6391 H   0  0  0  0  0  0  0  0  0  0  0  0
   59.3067   32.0964   48.6193 H   0  0  0  0  0  0  0  0  0  0  0  0
   61.3196   34.6038   50.9646 H   0  0  0  0  0  0  0  0  0  0  0  0
   60.4478   33.0613   50.6410 H   0  0  0  0  0  0  0  0  0  0  0  0
   63.0785   33.4582   49.9737 H   0  0  0  0  0  0  0  0  0  0  0  0
   61.8706   31.3323   49.9281 H   0  0  0  0  0  0  0  0  0  0  0  0
   61.0832   31.8412   48.3629 H   0  0  0  0  0  0  0  0  0  0  0  0
   64.6013   32.7370   48.0786 H   0  0  0  0  0  0  0  0  0  0  0  0
   64.0662   31.8845   46.5556 H   0  0  0  0  0  0  0  0  0  0  0  0
   63.4641   34.2753   46.5255 H   0  0  0  0  0  0  0  0  0  0  0  0
   62.0113   33.1718   46.5301 H   0  0  0  0  0  0  0  0  0  0  0  0
   59.9180   36.0480   47.2260 H   0  0  0  0  0  0  0  0  0  0  0  0
   55.9436   26.8633   46.8868 H   0  0  0  0  0  0  0  0  0  0  0  0
  1  2  1  0
  2  3  1  0
  3  4  2  0
  4  5  1  0
  5  6  2  0
  6  7  1  0
  7  8  1  0
  8  9  2  0
  9 10  1  0
 10 11  2  0
 11 12  1  0
 12 13  2  0
 12 14  1  0
 14 15  1  0
 15 16  1  0
 16 17  1  0
 17 18  2  0
 18 19  1  0
 19 20  1  0
 20 21  1  0
 21 22  1  0
 22 23  1  0
 23 24  1  0
 24 25  1  0
 25 26  1  0
 26 27  1  0
 19 28  2  0
 28 29  1  0
 29 30  2  0
  7 31  2  0
 31  3  1  0
 13  8  1  0
 29 16  1  0
 17 11  1  0
 27 22  1  0
  1 32  1  0
  1 33  1  0
  1 34  1  0
  4 35  1  0
  5 36  1  0
  6 37  1  0
  9 38  1  0
 10 39  1  0
 13 40  1  0
 14 41  1  0
 14 42  1  0
 15 43  1  0
 15 44  1  0
 18 45  1  0
 21 46  1  0
 21 47  1  0
 22 48  1  1
 23 49  1  0
 23 50  1  0
 25 51  1  0
 25 52  1  0
 26 53  1  0
 26 54  1  0
 28 55  1  0
 31 56  1  0
M  CHG  1  28   1
M  END
>  <UniqueID>  (16) 
16

>  <SMILES>  (16) 
COc1cccc(-c2ccc3c(c2)CCn2c-3cc(OC[C@H]3COCCO3)[nH+]c2=O)c1

>  <Energy>  (16) 
86.95484003078737

>  <Genealogy>  (16) 
COc1cccc(-c2ccc3c(c2)CCn2c-3cc(OCC3COCCO3)[nH+]c2=O)c1 (protonated)
COc1cccc(-c2ccc3c(c2)CCn2c-3cc(OC[C@H]3COCCO3)[nH+]c2=O)c1 (chirality)
COc1cccc(-c2ccc3c(c2)CCn2c-3cc(OC[C@H]3COCCO3)[nH+]c2=O)c1 (3D coordinates assigned)
COc1cccc(-c2ccc3c(c2)CCn2c-3cc(OC[C@H]3COCCO3)[nH+]c2=O)c1 (nonaromatic ring conformer: 86.95484003078737 kcal/mol)

>  <smiles>  (16) 
COc1cccc(-c2ccc3c(c2)CCn2c-3cc(OCC3COCCO3)nc2=O)c1

>  <score_type>  (16) 
oracle

>  <origin>  (16) 
adg

>  <m_score__min__energy>  (16) 
-7.7000000000000002

>  <m_primary>  (16) 
energy

$$$$
16:0
     RDKit          3D

 54 57  0  0  0  0  0  0  0  0999 V2000
   62.2850   33.8490   48.0320 C   0  0  0  0  0  0  0  0  0  0  0  0
   63.0100   32.7720   47.5150 C   0  0  0  0  0  0  0  0  0  0  0  0
   62.6330   31.4610   47.8240 C   0  0  0  0  0  0  0  0  0  0  0  0
   61.5190   31.2200   48.6480 C   0  0  0  0  0  0  0  0  0  0  0  0
   61.1350   29.8100   49.0110 C   0  0  0  0  0  0  0  0  0  0  0  0
   60.1000   29.2590   48.0110 C   0  0  0  0  0  0  0  0  0  0  0  0
   60.4180   29.6010   46.5960 N   0  0  1  0  0  0  0  0  0  0  0  0
   60.2370   28.4360   45.6760 C   0  0  0  0  0  0  0  0  0  0  0  0
   58.7480   28.0690   45.4080 C   0  0  0  0  0  0  0  0  0  0  0  0
   57.8460   29.3050   45.5360 C   0  0  2  0  0  0  0  0  0  0  0  0
   56.6130   29.3940   44.6610 C   0  0  0  0  0  0  0  0  0  0  0  0
   56.3070   30.7700   44.5000 O   0  0  0  0  0  0  0  0  0  0  0  0
   57.4320   31.5090   44.9490 C   0  0  2  0  0  0  0  0  0  0  0  0
   57.7650   32.6580   43.9790 C   0  0  0  0  0  0  0  0  0  0  0  0
   57.6180   33.9800   44.6410 N   0  0  0  0  0  0  0  0  0  0  0  0
   58.9160   34.6400   44.8360 C   0  0  0  0  0  0  0  0  0  0  0  0
   59.4490   34.2060   46.1880 C   0  0  0  0  0  0  0  0  0  0  0  0
   58.2180   33.8300   46.9890 C   0  0  0  0  0  0  0  0  0  0  0  0
   57.0600   33.8520   45.9980 C   0  0  0  0  0  0  0  0  0  0  0  0
   58.5840   30.5240   45.1110 C   0  0  1  0  0  0  0  0  0  0  0  0
   59.6850   30.8340   46.1420 C   0  0  0  0  0  0  0  0  0  0  0  0
   60.8050   32.3100   49.1750 C   0  0  0  0  0  0  0  0  0  0  0  0
   61.1850   33.6180   48.8630 C   0  0  0  0  0  0  0  0  0  0  0  0
   62.5802   34.8794   47.7848 H   0  0  0  0  0  0  0  0  0  0  0  0
   63.8779   32.9554   46.8645 H   0  0  0  0  0  0  0  0  0  0  0  0
   63.2098   30.6155   47.4211 H   0  0  0  0  0  0  0  0  0  0  0  0
   62.0321   29.1738   48.9911 H   0  0  0  0  0  0  0  0  0  0  0  0
   60.6925   29.8095   50.0181 H   0  0  0  0  0  0  0  0  0  0  0  0
   60.0674   28.1638   48.1081 H   0  0  0  0  0  0  0  0  0  0  0  0
   59.1314   29.7216   48.2516 H   0  0  0  0  0  0  0  0  0  0  0  0
   61.4370   29.8430   46.5670 H   0  0  0  0  0  0  0  0  0  0  0  0
   60.7128   28.6772   44.7140 H   0  0  0  0  0  0  0  0  0  0  0  0
   60.6966   27.5662   46.1682 H   0  0  0  0  0  0  0  0  0  0  0  0
   58.6556   27.6598   44.3911 H   0  0  0  0  0  0  0  0  0  0  0  0
   58.4306   27.3244   46.1529 H   0  0  0  0  0  0  0  0  0  0  0  0
   57.5456   29.2230   46.5910 H   0  0  0  0  0  0  0  0  0  0  0  0
   56.8132   28.9359   43.6811 H   0  0  0  0  0  0  0  0  0  0  0  0
   55.7695   28.8593   45.1220 H   0  0  0  0  0  0  0  0  0  0  0  0
   57.2260   31.9931   45.9150 H   0  0  0  0  0  0  0  0  0  0  0  0
   58.8023   32.5444   43.6310 H   0  0  0  0  0  0  0  0  0  0  0  0
   57.0645   32.6128   43.1321 H   0  0  0  0  0  0  0  0  0  0  0  0
   59.6145   34.3371   44.0420 H   0  0  0  0  0  0  0  0  0  0  0  0
   58.8047   35.7336   44.7961 H   0  0  0  0  0  0  0  0  0  0  0  0
   60.1199   33.3410   46.0802 H   0  0  0  0  0  0  0  0  0  0  0  0
   60.0352   34.9984   46.6763 H   0  0  0  0  0  0  0  0  0  0  0  0
   58.3338   32.8253   47.4216 H   0  0  0  0  0  0  0  0  0  0  0  0
   58.0500   34.5238   47.8259 H   0  0  0  0  0  0  0  0  0  0  0  0
   56.4842   32.9181   46.0773 H   0  0  0  0  0  0  0  0  0  0  0  0
   56.3904   34.6973   46.2148 H   0  0  0  0  0  0  0  0  0  0  0  0
   59.1718   30.4936   44.1817 H   0  0  0  0  0  0  0  0  0  0  0  0
   60.4087   31.5262   45.6869 H   0  0  0  0  0  0  0  0  0  0  0  0
   59.1994   31.2761   47.0245 H   0  0  0  0  0  0  0  0  0  0  0  0
   59.9436   32.1327   49.8357 H   0  0  0  0  0  0  0  0  0  0  0  0
   60.6177   34.4671   49.2719 H   0  0  0  0  0  0  0  0  0  0  0  0
  1  2  2  0
  2  3  1  0
  3  4  2  0
  4  5  1  0
  5  6  1  0
  6  7  1  0
  7  8  1  0
  8  9  1  0
  9 10  1  0
 10 11  1  0
 11 12  1  0
 12 13  1  0
 13 14  1  0
 14 15  1  0
 15 16  1  0
 16 17  1  0
 17 18  1  0
 18 19  1  0
 13 20  1  0
 20 21  1  0
  4 22  1  0
 22 23  2  0
 23  1  1  0
 21  7  1  0
 20 10  1  0
 19 15  1  0
  1 24  1  0
  2 25  1  0
  3 26  1  0
  5 27  1  0
  5 28  1  0
  6 29  1  0
  6 30  1  0
  7 31  1  1
  8 32  1  0
  8 33  1  0
  9 34  1  0
  9 35  1  0
 10 36  1  1
 11 37  1  0
 11 38  1  0
 13 39  1  1
 14 40  1  0
 14 41  1  0
 16 42  1  0
 16 43  1  0
 17 44  1  0
 17 45  1  0
 18 46  1  0
 18 47  1  0
 19 48  1  0
 19 49  1  0
 20 50  1  6
 21 51  1  0
 21 52  1  0
 22 53  1  0
 23 54  1  0
M  CHG  1   7   1
M  END
>  <UniqueID>  (17) 
17

>  <SMILES>  (17) 
c1ccc(CC[N@H+]2CC[C@@H]3COC(CN4CCCC4)C3C2)cc1

>  <Energy>  (17) 
77.38261980269866

>  <Genealogy>  (17) 
c1ccc(CC[NH+]2CCC3COC(CN4CCCC4)C3C2)cc1 (protonated)
c1ccc(CC[N@H+]2CC[C@@H]3COC(CN4CCCC4)C3C2)cc1 (chirality)
c1ccc(CC[N@H+]2CC[C@@H]3COC(CN4CCCC4)C3C2)cc1 (3D coordinates assigned)
c1ccc(CC[N@H+]2CC[C@@H]3COC(CN4CCCC4)C3C2)cc1 (nonaromatic ring conformer: 77.38261980269866 kcal/mol)

>  <smiles>  (17) 
c1ccc(CCN2CCC3COC(CN4CCCC4)C3C2)cc1

>  <score_type>  (17) 
oracle

>  <origin>  (17) 
adg

>  <m_score__min__energy>  (17) 
-6.6500000000000004

>  <m_primary>  (17) 
energy

$$$$
17:0
     RDKit          3D

 43 44  0  0  0  0  0  0  0  0999 V2000
   57.4396   32.2629   42.9741 H   0  0  0  0  0  0  0  0  0  0  0  0
   57.6320   32.0010   44.0250 C   0  0  0  0  0  0  0  0  0  0  0  0
   58.2010   32.8920   44.7870 N   0  0  0  0  0  0  0  0  0  0  0  0
   57.6020   33.5770   45.9350 C   0  0  0  0  0  0  0  0  0  0  0  0
   57.3681   32.8412   46.7185 H   0  0  0  0  0  0  0  0  0  0  0  0
   56.6790   34.0832   45.6160 H   0  0  0  0  0  0  0  0  0  0  0  0
   58.5830   34.6130   46.4870 C   0  0  0  0  0  0  0  0  0  0  0  0
   58.2868   34.8640   47.5162 H   0  0  0  0  0  0  0  0  0  0  0  0
   58.5443   35.4910   45.8255 H   0  0  0  0  0  0  0  0  0  0  0  0
   60.0390   34.1080   46.5030 C   0  0  0  0  0  0  0  0  0  0  0  0
   60.6175   34.7245   47.2068 H   0  0  0  0  0  0  0  0  0  0  0  0
   60.4291   34.1866   45.4775 H   0  0  0  0  0  0  0  0  0  0  0  0
   60.1490   32.6740   46.9200 N   0  0  0  0  0  0  0  0  0  0  0  0
   59.6220   32.0720   46.2430 H   0  0  0  0  0  0  0  0  0  0  0  0
   59.5560   32.4750   48.2710 C   0  0  0  0  0  0  0  0  0  0  0  0
   58.7654   33.2244   48.4239 H   0  0  0  0  0  0  0  0  0  0  0  0
   60.3625   32.5839   49.0111 H   0  0  0  0  0  0  0  0  0  0  0  0
   58.9490   31.0760   48.4420 C   0  0  0  0  0  0  0  0  0  0  0  0
   58.8500   30.8477   49.5135 H   0  0  0  0  0  0  0  0  0  0  0  0
   57.9570   31.0462   47.9675 H   0  0  0  0  0  0  0  0  0  0  0  0
   59.6049   30.3312   47.9675 H   0  0  0  0  0  0  0  0  0  0  0  0
   61.5650   32.2230   46.9060 C   0  0  0  0  0  0  0  0  0  0  0  0
   61.6584   31.3275   47.5380 H   0  0  0  0  0  0  0  0  0  0  0  0
   61.8413   32.0062   45.8636 H   0  0  0  0  0  0  0  0  0  0  0  0
   62.5190   33.3020   47.4330 C   0  0  0  0  0  0  0  0  0  0  0  0
   62.5110   33.2930   48.5329 H   0  0  0  0  0  0  0  0  0  0  0  0
   63.5380   33.0985   47.0720 H   0  0  0  0  0  0  0  0  0  0  0  0
   62.1923   34.2884   47.0720 H   0  0  0  0  0  0  0  0  0  0  0  0
   57.2320   30.6620   44.4930 C   0  0  0  0  0  0  0  0  0  0  0  0
   55.9660   30.1010   44.3800 C   0  0  0  0  0  0  0  0  0  0  0  0
   55.0921   30.6053   43.9419 H   0  0  0  0  0  0  0  0  0  0  0  0
   55.9610   28.8450   44.8860 N   0  0  0  0  0  0  0  0  0  0  0  0
   55.1460   28.1950   44.9340 H   0  0  0  0  0  0  0  0  0  0  0  0
   57.2190   28.6050   45.2960 C   0  0  0  0  0  0  0  0  0  0  0  0
   57.7110   27.4330   45.8710 C   0  0  0  0  0  0  0  0  0  0  0  0
   57.0514   26.5733   46.0603 H   0  0  0  0  0  0  0  0  0  0  0  0
   59.0780   27.3860   46.2010 C   0  0  0  0  0  0  0  0  0  0  0  0
   59.4968   26.4818   46.6669 H   0  0  0  0  0  0  0  0  0  0  0  0
   59.9160   28.4920   45.9380 C   0  0  0  0  0  0  0  0  0  0  0  0
   60.9844   28.4416   46.1948 H   0  0  0  0  0  0  0  0  0  0  0  0
   59.3930   29.6570   45.3500 C   0  0  0  0  0  0  0  0  0  0  0  0
   60.0388   30.5192   45.1272 H   0  0  0  0  0  0  0  0  0  0  0  0
   58.0290   29.6850   45.0580 C   0  0  0  0  0  0  0  0  0  0  0  0
  1  2  1  0
  2  3  2  0
  3  4  1  0
  4  5  1  0
  4  6  1  0
  4  7  1  0
  7  8  1  0
  7  9  1  0
  7 10  1  0
 10 11  1  0
 10 12  1  0
 10 13  1  0
 13 14  1  0
 13 15  1  0
 15 16  1  0
 15 17  1  0
 15 18  1  0
 18 19  1  0
 18 20  1  0
 18 21  1  0
 13 22  1  0
 22 23  1  0
 22 24  1  0
 22 25  1  0
 25 26  1  0
 25 27  1  0
 25 28  1  0
  2 29  1  0
 29 30  2  0
 30 31  1  0
 30 32  1  0
 32 33  1  0
 32 34  1  0
 34 35  2  0
 35 36  1  0
 35 37  1  0
 37 38  1  0
 37 39  2  0
 39 40  1  0
 39 41  1  0
 41 42  1  0
 41 43  2  0
 43 29  1  0
 43 34  1  0
M  CHG  1  13   1
M  END
>  <UniqueID>  (18) 
18

>  <SMILES>  (18) 
CC[NH+](CC)CCC/N=C\c1c[nH]c2ccccc12

>  <Energy>  (18) 
81.77080487712047

>  <Genealogy>  (18) 
CC[NH+](CC)CCCN=Cc1c[nH]c2ccccc12 (protonated)
CC[NH+](CC)CCC/N=C\c1c[nH]c2ccccc12 (cis-trans isomerization)
CC[NH+](CC)CCC/N=C\c1c[nH]c2ccccc12 (3D coordinates assigned)
CC[NH+](CC)CCC/N=C\c1c[nH]c2ccccc12 (optimized conformer: 81.77080487712047 kcal/mol)

>  <smiles>  (18) 
CCN(CC)CCCN=Cc1c[nH]c2ccccc12

>  <score_type>  (18) 
oracle

>  <origin>  (18) 
adg

>  <m_score__min__energy>  (18) 
-4.9900000000000002

>  <m_primary>  (18) 
energy

$$$$
18:0
     RDKit          3D

 42 43  0  0  0  0  0  0  0  0999 V2000
   61.4240   34.1800   49.3310 C   0  0  0  0  0  0  0  0  0  0  0  0
   61.7300   32.6730   49.3530 C   0  0  0  0  0  0  0  0  0  0  0  0
   62.6990   32.2300   48.3150 N   0  0  0  0  0  0  0  0  0  0  0  0
   63.6040   33.3500   47.9400 C   0  0  0  0  0  0  0  0  0  0  0  0
   63.3900   33.8450   46.5070 C   0  0  0  0  0  0  0  0  0  0  0  0
   62.0090   31.6210   47.1350 C   0  0  0  0  0  0  0  0  0  0  0  0
   60.4770   31.4410   47.3500 C   0  0  1  0  0  0  0  0  0  0  0  0
   59.5590   32.4160   46.6190 C   0  0  0  0  0  0  0  0  0  0  0  0
   59.9430   33.7260   46.2620 C   0  0  0  0  0  0  0  0  0  0  0  0
   59.0540   34.5690   45.5880 C   0  0  0  0  0  0  0  0  0  0  0  0
   57.7740   34.1200   45.2550 C   0  0  0  0  0  0  0  0  0  0  0  0
   56.9160   34.9410   44.6010 F   0  0  0  0  0  0  0  0  0  0  0  0
   57.3830   32.8240   45.5940 C   0  0  0  0  0  0  0  0  0  0  0  0
   58.2680   31.9780   46.2670 C   0  0  0  0  0  0  0  0  0  0  0  0
   60.0460   29.9950   47.1190 C   0  0  0  0  0  0  0  0  0  0  0  0
   60.3400   29.3940   45.8800 C   0  0  0  0  0  0  0  0  0  0  0  0
   59.9640   28.0790   45.6180 C   0  0  0  0  0  0  0  0  0  0  0  0
   59.2870   27.3560   46.5960 C   0  0  0  0  0  0  0  0  0  0  0  0
   58.9990   27.9350   47.7890 N   0  0  0  0  0  0  0  0  0  0  0  0
   59.3490   29.2160   48.0810 C   0  0  0  0  0  0  0  0  0  0  0  0
   58.8980   29.8230   49.6650 Cl  0  0  0  0  0  0  0  0  0  0  0  0
   61.3481   34.5538   50.3627 H   0  0  0  0  0  0  0  0  0  0  0  0
   62.2327   34.7108   48.8073 H   0  0  0  0  0  0  0  0  0  0  0  0
   60.4723   34.3533   48.8073 H   0  0  0  0  0  0  0  0  0  0  0  0
   62.1432   32.4197   50.3405 H   0  0  0  0  0  0  0  0  0  0  0  0
   60.7826   32.1560   49.1406 H   0  0  0  0  0  0  0  0  0  0  0  0
   63.2840   31.5000   48.7860 H   0  0  0  0  0  0  0  0  0  0  0  0
   63.4267   34.1885   48.6296 H   0  0  0  0  0  0  0  0  0  0  0  0
   64.6352   32.9725   48.0047 H   0  0  0  0  0  0  0  0  0  0  0  0
   62.9536   34.8545   46.5291 H   0  0  0  0  0  0  0  0  0  0  0  0
   64.3557   33.8745   45.9812 H   0  0  0  0  0  0  0  0  0  0  0  0
   62.7069   33.1617   45.9812 H   0  0  0  0  0  0  0  0  0  0  0  0
   62.1661   32.2725   46.2627 H   0  0  0  0  0  0  0  0  0  0  0  0
   62.4392   30.6200   46.9837 H   0  0  0  0  0  0  0  0  0  0  0  0
   60.3398   31.7064   48.4086 H   0  0  0  0  0  0  0  0  0  0  0  0
   60.9504   34.0872   46.5161 H   0  0  0  0  0  0  0  0  0  0  0  0
   59.3639   35.5896   45.3190 H   0  0  0  0  0  0  0  0  0  0  0  0
   56.3761   32.4679   45.3308 H   0  0  0  0  0  0  0  0  0  0  0  0
   57.9521   30.9565   46.5252 H   0  0  0  0  0  0  0  0  0  0  0  0
   60.8732   29.9703   45.1096 H   0  0  0  0  0  0  0  0  0  0  0  0
   60.1996   27.6164   44.6482 H   0  0  0  0  0  0  0  0  0  0  0  0
   58.9857   26.3160   46.4019 H   0  0  0  0  0  0  0  0  0  0  0  0
  1  2  1  0
  2  3  1  0
  3  4  1  0
  4  5  1  0
  3  6  1  0
  6  7  1  0
  7  8  1  0
  8  9  2  0
  9 10  1  0
 10 11  2  0
 11 12  1  0
 11 13  1  0
 13 14  2  0
  7 15  1  0
 15 16  2  0
 16 17  1  0
 17 18  2  0
 18 19  1  0
 19 20  2  0
 20 21  1  0
 14  8  1  0
 20 15  1  0
  1 22  1  0
  1 23  1  0
  1 24  1  0
  2 25  1  0
  2 26  1  0
  3 27  1  0
  4 28  1  0
  4 29  1  0
  5 30  1  0
  5 31  1  0
  5 32  1  0
  6 33  1  0
  6 34  1  0
  7 35  1  1
  9 36  1  0
 10 37  1  0
 13 38  1  0
 14 39  1  0
 16 40  1  0
 17 41  1  0
 18 42  1  0
M  CHG  1   3   1
M  END
>  <UniqueID>  (19) 
19

>  <SMILES>  (19) 
CC[NH+](CC)C[C@@H](c1ccc(F)cc1)c1cccnc1Cl

>  <Energy>  (19) 
53.5010784314466

>  <Genealogy>  (19) 
CC[NH+](CC)CC(c1ccc(F)cc1)c1cccnc1Cl (protonated)
CC[NH+](CC)C[C@@H](c1ccc(F)cc1)c1cccnc1Cl (chirality)
CC[NH+](CC)C[C@@H](c1ccc(F)cc1)c1cccnc1Cl (3D coordinates assigned)
CC[NH+](CC)C[C@@H](c1ccc(F)cc1)c1cccnc1Cl (optimized conformer: 53.5010784314466 kcal/mol)

>  <smiles>  (19) 
CCN(CC)CC(c1ccc(F)cc1)c1cccnc1Cl

>  <score_type>  (19) 
oracle

>  <origin>  (19) 
adg

>  <m_score__min__energy>  (19) 
-4.8499999999999996

>  <m_primary>  (19) 
energy

$$$$
19:0
     RDKit          3D

 53 56  0  0  0  0  0  0  0  0999 V2000
   58.9590   35.3350   50.8530 H   0  0  0  0  0  0  0  0  0  0  0  0
   59.2720   34.3610   50.6580 N   0  0  0  0  0  0  0  0  0  0  0  0
   60.2720   34.0610   49.8860 C   0  0  0  0  0  0  0  0  0  0  0  0
   60.3130   34.3020   48.5420 N   0  0  0  0  0  0  0  0  0  0  0  0
   59.3190   34.9580   47.6800 C   0  0  0  0  0  0  0  0  0  0  0  0
   58.4599   35.2691   48.2925 H   0  0  0  0  0  0  0  0  0  0  0  0
   59.7872   35.8325   47.2045 H   0  0  0  0  0  0  0  0  0  0  0  0
   58.8420   34.0180   46.6000 C   0  0  0  0  0  0  0  0  0  0  0  0
   58.3520   32.7430   46.9390 C   0  0  0  0  0  0  0  0  0  0  0  0
   58.3105   32.4366   47.9947 H   0  0  0  0  0  0  0  0  0  0  0  0
   57.9180   31.8640   45.9440 C   0  0  0  0  0  0  0  0  0  0  0  0
   57.5377   30.8690   46.2184 H   0  0  0  0  0  0  0  0  0  0  0  0
   57.9660   32.2460   44.6010 C   0  0  0  0  0  0  0  0  0  0  0  0
   57.6301   31.5499   43.8183 H   0  0  0  0  0  0  0  0  0  0  0  0
   58.4410   33.5130   44.2530 C   0  0  0  0  0  0  0  0  0  0  0  0
   58.4721   33.8154   43.1958 H   0  0  0  0  0  0  0  0  0  0  0  0
   58.8770   34.3980   45.2440 C   0  0  0  0  0  0  0  0  0  0  0  0
   59.3240   35.6260   44.8780 F   0  0  0  0  0  0  0  0  0  0  0  0
   61.5300   33.8480   48.1710 C   0  0  0  0  0  0  0  0  0  0  0  0
   62.1180   33.8540   46.9030 C   0  0  0  0  0  0  0  0  0  0  0  0
   61.5778   34.2452   46.0283 H   0  0  0  0  0  0  0  0  0  0  0  0
   63.4240   33.3430   46.7820 C   0  0  0  0  0  0  0  0  0  0  0  0
   63.9160   33.3302   45.7983 H   0  0  0  0  0  0  0  0  0  0  0  0
   64.1070   32.8470   47.9130 C   0  0  0  0  0  0  0  0  0  0  0  0
   65.1295   32.4559   47.8052 H   0  0  0  0  0  0  0  0  0  0  0  0
   63.4900   32.8490   49.1770 C   0  0  0  0  0  0  0  0  0  0  0  0
   64.0125   32.4653   50.0657 H   0  0  0  0  0  0  0  0  0  0  0  0
   62.1910   33.3550   49.2650 C   0  0  0  0  0  0  0  0  0  0  0  0
   61.4030   33.4720   50.3520 N   0  0  0  0  0  0  0  0  0  0  0  0
   61.7380   33.1520   51.7420 C   0  0  0  0  0  0  0  0  0  0  0  0
   62.8022   33.3665   51.9192 H   0  0  0  0  0  0  0  0  0  0  0  0
   61.1180   33.7640   52.4137 H   0  0  0  0  0  0  0  0  0  0  0  0
   61.4660   31.6680   52.0170 C   0  0  0  0  0  0  0  0  0  0  0  0
   61.6186   31.1065   51.0835 H   0  0  0  0  0  0  0  0  0  0  0  0
   62.1598   31.3518   52.8099 H   0  0  0  0  0  0  0  0  0  0  0  0
   60.0350   31.3920   52.5260 C   0  0  0  0  0  0  0  0  0  0  0  0
   59.9047   30.3026   52.6045 H   0  0  0  0  0  0  0  0  0  0  0  0
   59.9456   31.9125   53.4909 H   0  0  0  0  0  0  0  0  0  0  0  0
   58.9460   31.9270   51.6610 N   0  0  0  0  0  0  0  0  0  0  0  0
   59.1280   32.9470   51.5150 H   0  0  0  0  0  0  0  0  0  0  0  0
   58.8750   31.2870   50.3270 C   0  0  0  0  0  0  0  0  0  0  0  0
   58.1509   31.8358   49.7069 H   0  0  0  0  0  0  0  0  0  0  0  0
   59.8798   31.3154   49.8804 H   0  0  0  0  0  0  0  0  0  0  0  0
   58.4330   29.8080   50.4220 C   0  0  0  0  0  0  0  0  0  0  0  0
   57.7356   29.5982   49.5976 H   0  0  0  0  0  0  0  0  0  0  0  0
   59.3420   29.1914   50.3623 H   0  0  0  0  0  0  0  0  0  0  0  0
   57.7910   29.4930   51.6460 O   0  0  0  0  0  0  0  0  0  0  0  0
   56.8820   30.5130   52.0000 C   0  0  0  0  0  0  0  0  0  0  0  0
   56.2005   30.6968   51.1564 H   0  0  0  0  0  0  0  0  0  0  0  0
   56.3173   30.1884   52.8864 H   0  0  0  0  0  0  0  0  0  0  0  0
   57.6280   31.8220   52.3420 C   0  0  0  0  0  0  0  0  0  0  0  0
   57.0038   32.6736   52.0335 H   0  0  0  0  0  0  0  0  0  0  0  0
   57.8134   31.8248   53.4263 H   0  0  0  0  0  0  0  0  0  0  0  0
  1  2  1  0
  2  3  2  0
  3  4  1  0
  4  5  1  0
  5  6  1  0
  5  7  1  0
  5  8  1  0
  8  9  2  0
  9 10  1  0
  9 11  1  0
 11 12  1  0
 11 13  2  0
 13 14  1  0
 13 15  1  0
 15 16  1  0
 15 17  2  0
 17 18  1  0
  4 19  1  0
 19 20  2  0
 20 21  1  0
 20 22  1  0
 22 23  1  0
 22 24  2  0
 24 25  1  0
 24 26  1  0
 26 27  1  0
 26 28  2  0
 28 29  1  0
 29 30  1  0
 30 31  1  0
 30 32  1  0
 30 33  1  0
 33 34  1  0
 33 35  1  0
 33 36  1  0
 36 37  1  0
 36 38  1  0
 36 39  1  0
 39 40  1  0
 39 41  1  0
 41 42  1  0
 41 43  1  0
 41 44  1  0
 44 45  1  0
 44 46  1  0
 44 47  1  0
 47 48  1  0
 48 49  1  0
 48 50  1  0
 48 51  1  0
 51 52  1  0
 51 53  1  0
 29  3  1  0
 51 39  1  0
 17  8  1  0
 28 19  1  0
M  CHG  1  39   1
M  END
>  <UniqueID>  (20) 
20

>  <SMILES>  (20) 
[H]/N=c1/n(CCC[NH+]2CCOCC2)c2ccccc2n1Cc1ccccc1F

>  <Energy>  (20) 
108.73638057459148

>  <Genealogy>  (20) 
N=c1n(CCC[NH+]2CCOCC2)c2ccccc2n1Cc1ccccc1F (protonated)
[H]/N=c1/n(CCC[NH+]2CCOCC2)c2ccccc2n1Cc1ccccc1F (cis-trans isomerization)
[H]/N=c1/n(CCC[NH+]2CCOCC2)c2ccccc2n1Cc1ccccc1F (3D coordinates assigned)
[H]/N=c1/n(CCC[NH+]2CCOCC2)c2ccccc2n1Cc1ccccc1F (nonaromatic ring conformer: 108.73638057459148 kcal/mol)

>  <smiles>  (20) 
N=c1n(CCCN2CCOCC2)c2ccccc2n1Cc1ccccc1F

>  <score_type>  (20) 
oracle

>  <origin>  (20) 
adg

>  <m_score__min__energy>  (20) 
-6.0999999999999996

>  <m_primary>  (20) 
energy

$$$$
20:0
     RDKit          3D

 48 50  0  0  1  0  0  0  0  0999 V2000
   56.5620   23.7380   46.4960 C   0  0  0  0  0  0  0  0  0  0  0  0
   56.3820   24.8390   45.4850 C   0  0  0  0  0  0  0  0  0  0  0  0
   56.0360   26.0580   46.0680 O   0  0  0  0  0  0  0  0  0  0  0  0
   56.7050   27.2540   45.9270 C   0  0  0  0  0  0  0  0  0  0  0  0
   57.9550   27.3630   46.4610 N   0  0  0  0  0  0  0  0  0  0  0  0
   58.6270   28.5190   46.3360 C   0  0  0  0  0  0  0  0  0  0  0  0
   59.8300   28.6410   46.8400 N   0  0  0  0  0  0  0  0  0  0  0  0
   60.2710   29.8600   47.4210 C   0  0  0  0  0  0  0  0  0  0  0  0
   59.7690   30.2450   48.6680 C   0  0  0  0  0  0  0  0  0  0  0  0
   60.1800   31.4370   49.2650 C   0  0  0  0  0  0  0  0  0  0  0  0
   61.1030   32.2700   48.6260 C   0  0  0  0  0  0  0  0  0  0  0  0
   61.5710   31.8510   47.3970 C   0  0  0  0  0  0  0  0  0  0  0  0
   61.1810   30.6810   46.7890 C   0  0  0  0  0  0  0  0  0  0  0  0
   58.0200   29.5220   45.6790 N   0  0  0  0  0  0  0  0  0  0  0  0
   56.8030   29.4490   45.1460 C   0  0  0  0  0  0  0  0  0  0  0  0
   56.1870   30.5060   44.4650 O   0  0  0  0  0  0  0  0  0  0  0  0
   56.9420   31.1860   43.4790 C   0  0  0  0  0  0  0  0  0  0  0  0
   58.1850   31.7800   44.0660 C   0  0  0  0  0  0  0  0  0  0  0  0
   57.9970   33.0870   44.6170 N   0  0  0  0  0  0  0  0  0  0  0  0
   59.1940   33.7970   44.9330 C   0  0  0  0  0  0  0  0  0  0  0  0
   58.8570   34.8830   45.9320 C   0  0  0  0  0  0  0  0  0  0  0  0
   58.5440   34.3260   47.1900 O   0  0  0  0  0  0  0  0  0  0  0  0
   57.9590   33.0660   47.0040 C   0  0  0  0  0  0  0  0  0  0  0  0
   57.1050   33.1100   45.7470 C   0  0  0  0  0  0  0  0  0  0  0  0
   56.1250   28.2700   45.2780 N   0  0  0  0  0  0  0  0  0  0  0  0
   56.4935   24.1572   47.5107 H   0  0  0  0  0  0  0  0  0  0  0  0
   55.7756   22.9813   46.3580 H   0  0  0  0  0  0  0  0  0  0  0  0
   57.5484   23.2711   46.3580 H   0  0  0  0  0  0  0  0  0  0  0  0
   57.3255   24.9681   44.9345 H   0  0  0  0  0  0  0  0  0  0  0  0
   55.5574   24.5450   44.8190 H   0  0  0  0  0  0  0  0  0  0  0  0
   59.0419   29.6008   49.1840 H   0  0  0  0  0  0  0  0  0  0  0  0
   59.7745   31.7237   50.2465 H   0  0  0  0  0  0  0  0  0  0  0  0
   61.4399   33.2134   49.0805 H   0  0  0  0  0  0  0  0  0  0  0  0
   62.2978   32.4898   46.8738 H   0  0  0  0  0  0  0  0  0  0  0  0
   61.5913   30.4024   45.8071 H   0  0  0  0  0  0  0  0  0  0  0  0
   57.2226   30.4752   42.6878 H   0  0  0  0  0  0  0  0  0  0  0  0
   56.3267   31.9997   43.0675 H   0  0  0  0  0  0  0  0  0  0  0  0
   58.5428   31.1149   44.8657 H   0  0  0  0  0  0  0  0  0  0  0  0
   58.9103   31.8802   43.2451 H   0  0  0  0  0  0  0  0  0  0  0  0
   59.9309   33.1067   45.3694 H   0  0  0  0  0  0  0  0  0  0  0  0
   59.6210   34.2415   44.0219 H   0  0  0  0  0  0  0  0  0  0  0  0
   59.7213   35.5548   46.0399 H   0  0  0  0  0  0  0  0  0  0  0  0
   57.9825   35.4406   45.5655 H   0  0  0  0  0  0  0  0  0  0  0  0
   58.7453   32.3050   46.8916 H   0  0  0  0  0  0  0  0  0  0  0  0
   57.3362   32.8082   47.8733 H   0  0  0  0  0  0  0  0  0  0  0  0
   56.4369   32.2366   45.7160 H   0  0  0  0  0  0  0  0  0  0  0  0
   56.4839   34.0178   45.7320 H   0  0  0  0  0  0  0  0  0  0  0  0
   55.1510   28.1620   44.8710 H   0  0  0  0  0  0  0  0  0  0  0  0
  1  2  1  0
  2  3  1  0
  3  4  1  0
  4  5  2  0
  5  6  1  0
  6  7  2  0
  7  8  1  0
  8  9  2  0
  9 10  1  0
 10 11  2  0
 11 12  1  0
 12 13  2  0
  6 14  1  0
 14 15  2  0
 15 16  1  0
 16 17  1  0
 17 18  1  0
 18 19  1  0
 19 20  1  0
 20 21  1  0
 21 22  1  0
 22 23  1  0
 23 24  1  0
 15 25  1  0
 25  4  1  0
 13  8  1  0
 24 19  1  0
  1 26  1  0
  1 27  1  0
  1 28  1  0
  2 29  1  0
  2 30  1  0
  9 31  1  0
 10 32  1  0
 11 33  1  0
 12 34  1  0
 13 35  1  0
 17 36  1  0
 17 37  1  0
 18 38  1  0
 18 39  1  0
 20 40  1  0
 20 41  1  0
 21 42  1  0
 21 43  1  0
 23 44  1  0
 23 45  1  0
 24 46  1  0
 24 47  1  0
 25 48  1  0
M  END
>  <smiles>  (21) 
CCOc1nc(=Nc2ccccc2)nc(OCCN2CCOCC2)[nH]1

>  <score_type>  (21) 
oracle

>  <origin>  (21) 
adg

>  <m_score__min__energy>  (21) 
-7.4900000000000002

>  <m_primary>  (21) 
energy

$$$$
21:0
     RDKit          3D

 93 98  0  0  0  0  0  0  0  0999 V2000
   56.5150   30.1520   42.2790 C   0  0  0  0  0  0  0  0  0  0  0  0
   56.6320   31.2720   43.3060 C   0  0  0  0  0  0  0  0  0  0  0  0
   56.3670   30.7650   44.6470 N   0  0  0  0  0  0  0  0  0  0  0  0
   56.6500   29.4230   45.0610 C   0  0  0  0  0  0  0  0  0  0  0  0
   55.7040   28.5960   45.1830 O   0  0  0  0  0  0  0  0  0  0  0  0
   58.0870   29.0230   45.4030 C   0  0  2  0  0  0  0  0  0  0  0  0
   58.3000   27.5970   44.7970 C   0  0  0  0  0  0  0  0  0  0  0  0
   57.8620   26.4480   45.7030 C   0  0  0  0  0  0  0  0  0  0  0  0
   58.6090   26.4570   47.0500 C   0  0  0  0  0  0  0  0  0  0  0  0
   60.1300   26.2590   46.8540 C   0  0  0  0  0  0  0  0  0  0  0  0
   58.0970   25.2650   47.8930 C   0  0  0  0  0  0  0  0  0  0  0  0
   58.2900   27.7730   47.8050 C   0  0  0  0  0  0  0  0  0  0  0  0
   58.3060   29.1050   46.9780 C   0  0  1  0  0  0  0  0  0  0  0  0
   59.4140   30.1110   47.3260 C   0  0  0  0  0  0  0  0  0  0  0  0
   60.6500   29.6620   47.6040 C   0  0  0  0  0  0  0  0  0  0  0  0
   61.8300   30.5690   47.5970 C   0  0  0  0  0  0  0  0  0  0  0  0
   61.4840   31.8860   48.3130 C   0  0  2  0  0  0  0  0  0  0  0  0
   61.2830   31.7800   49.9180 C   0  0  2  0  0  0  0  0  0  0  0  0
   62.1250   32.8990   50.6050 C   0  0  0  0  0  0  0  0  0  0  0  0
   61.8180   30.4230   50.4750 C   0  0  0  0  0  0  0  0  0  0  0  0
   61.5060   30.2560   51.9140 C   0  0  0  0  0  0  0  0  0  0  0  0
   62.1580   29.4720   52.8390 C   0  0  0  0  0  0  0  0  0  0  0  0
   63.4150   28.6950   52.6250 C   0  0  0  0  0  0  0  0  0  0  0  0
   61.4740   29.4960   53.9930 N   0  0  0  0  0  0  0  0  0  0  0  0
   60.3940   30.2440   53.8170 N   0  0  0  0  0  0  0  0  0  0  0  0
   59.4980   30.5230   54.9360 C   0  0  0  0  0  0  0  0  0  0  0  0
   60.3780   30.7270   52.5370 C   0  0  0  0  0  0  0  0  0  0  0  0
   59.3330   31.6010   51.8280 C   0  0  0  0  0  0  0  0  0  0  0  0
   59.1060   32.8870   52.6690 C   0  0  0  0  0  0  0  0  0  0  0  0
   57.9940   30.8230   51.7660 C   0  0  0  0  0  0  0  0  0  0  0  0
   59.7640   31.9270   50.3040 C   0  0  1  0  0  0  0  0  0  0  0  0
   59.1850   33.2680   49.7820 C   0  0  0  0  0  0  0  0  0  0  0  0
   59.7120   33.7150   48.4110 C   0  0  0  0  0  0  0  0  0  0  0  0
   60.3320   32.6130   47.4810 C   0  0  1  0  0  0  0  0  0  0  0  0
   61.0360   33.4580   46.3640 C   0  0  0  0  0  0  0  0  0  0  0  0
   59.2360   31.5590   46.8080 C   0  0  2  0  0  0  0  0  0  0  0  0
   57.7790   32.0480   47.0980 C   0  0  0  0  0  0  0  0  0  0  0  0
   59.3010   31.4060   45.2270 C   0  0  0  0  0  0  0  0  0  0  0  0
   59.1050   29.9670   44.6590 C   0  0  0  0  0  0  0  0  0  0  0  0
   56.4142   29.1875   42.7982 H   0  0  0  0  0  0  0  0  0  0  0  0
   55.6299   30.3234   41.6488 H   0  0  0  0  0  0  0  0  0  0  0  0
   57.4164   30.1368   41.6488 H   0  0  0  0  0  0  0  0  0  0  0  0
   57.6489   31.6900   43.2715 H   0  0  0  0  0  0  0  0  0  0  0  0
   55.8932   32.0515   43.0680 H   0  0  0  0  0  0  0  0  0  0  0  0
   57.7263   27.5332   43.8606 H   0  0  0  0  0  0  0  0  0  0  0  0
   59.3837   27.4806   44.6485 H   0  0  0  0  0  0  0  0  0  0  0  0
   56.7827   26.5390   45.8950 H   0  0  0  0  0  0  0  0  0  0  0  0
   58.0973   25.5034   45.1908 H   0  0  0  0  0  0  0  0  0  0  0  0
   60.6210   26.1951   47.8363 H   0  0  0  0  0  0  0  0  0  0  0  0
   60.3096   25.3299   46.2932 H   0  0  0  0  0  0  0  0  0  0  0  0
   60.5414   27.1112   46.2932 H   0  0  0  0  0  0  0  0  0  0  0  0
   58.1987   25.5017   48.9624 H   0  0  0  0  0  0  0  0  0  0  0  0
   57.0389   25.0774   47.6580 H   0  0  0  0  0  0  0  0  0  0  0  0
   58.6894   24.3684   47.6580 H   0  0  0  0  0  0  0  0  0  0  0  0
   57.2853   27.6677   48.2404 H   0  0  0  0  0  0  0  0  0  0  0  0
   59.1086   27.8846   48.5312 H   0  0  0  0  0  0  0  0  0  0  0  0
   57.3602   29.5112   47.3660 H   0  0  0  0  0  0  0  0  0  0  0  0
   60.7930   28.5978   47.8426 H   0  0  0  0  0  0  0  0  0  0  0  0
   62.6679   30.0810   48.1164 H   0  0  0  0  0  0  0  0  0  0  0  0
   62.1127   30.7866   46.5564 H   0  0  0  0  0  0  0  0  0  0  0  0
   62.3637   32.5463   48.3081 H   0  0  0  0  0  0  0  0  0  0  0  0
   62.0483   32.7971   51.6976 H   0  0  0  0  0  0  0  0  0  0  0  0
   63.1779   32.8045   50.3009 H   0  0  0  0  0  0  0  0  0  0  0  0
   61.7426   33.8845   50.3009 H   0  0  0  0  0  0  0  0  0  0  0  0
   61.3538   29.5996   49.9124 H   0  0  0  0  0  0  0  0  0  0  0  0
   62.9119   30.4142   50.3596 H   0  0  0  0  0  0  0  0  0  0  0  0
   63.8501   28.4260   53.5988 H   0  0  0  0  0  0  0  0  0  0  0  0
   63.1882   27.7793   52.0593 H   0  0  0  0  0  0  0  0  0  0  0  0
   64.1327   29.3072   52.0593 H   0  0  0  0  0  0  0  0  0  0  0  0
   60.0318   30.3568   55.8834 H   0  0  0  0  0  0  0  0  0  0  0  0
   59.1607   31.5687   54.8837 H   0  0  0  0  0  0  0  0  0  0  0  0
   58.6267   29.8536   54.8837 H   0  0  0  0  0  0  0  0  0  0  0  0
   59.1500   32.6376   53.7394 H   0  0  0  0  0  0  0  0  0  0  0  0
   59.8881   33.6232   52.4316 H   0  0  0  0  0  0  0  0  0  0  0  0
   58.1191   33.3109   52.4316 H   0  0  0  0  0  0  0  0  0  0  0  0
   57.6413   30.6181   52.7876 H   0  0  0  0  0  0  0  0  0  0  0  0
   57.2439   31.4259   51.2332 H   0  0  0  0  0  0  0  0  0  0  0  0
   58.1464   29.8728   51.2332 H   0  0  0  0  0  0  0  0  0  0  0  0
   59.2862   31.0900   49.7738 H   0  0  0  0  0  0  0  0  0  0  0  0
   58.0925   33.1622   49.7092 H   0  0  0  0  0  0  0  0  0  0  0  0
   59.5035   34.0390   50.4990 H   0  0  0  0  0  0  0  0  0  0  0  0
   58.8716   34.1710   47.8672 H   0  0  0  0  0  0  0  0  0  0  0  0
   60.5473   34.3936   48.6384 H   0  0  0  0  0  0  0  0  0  0  0  0
   61.6737   34.2234   46.8304 H   0  0  0  0  0  0  0  0  0  0  0  0
   61.6542   32.7969   45.7389 H   0  0  0  0  0  0  0  0  0  0  0  0
   60.2741   33.9467   45.7389 H   0  0  0  0  0  0  0  0  0  0  0  0
   57.6197   32.1015   48.1851 H   0  0  0  0  0  0  0  0  0  0  0  0
   57.6320   33.0447   46.6564 H   0  0  0  0  0  0  0  0  0  0  0  0
   57.0605   31.3418   46.6564 H   0  0  0  0  0  0  0  0  0  0  0  0
   58.5158   32.0450   44.7968 H   0  0  0  0  0  0  0  0  0  0  0  0
   60.3260   31.6920   44.9486 H   0  0  0  0  0  0  0  0  0  0  0  0
   58.7612   30.0675   43.6189 H   0  0  0  0  0  0  0  0  0  0  0  0
   60.0830   29.4800   44.7869 H   0  0  0  0  0  0  0  0  0  0  0  0
  1  2  1  0
  2  3  1  0
  3  4  1  0
  4  5  2  0
  6  4  1  1
  6  7  1  0
  7  8  1  0
  8  9  1  0
  9 10  1  0
  9 11  1  0
  9 12  1  0
 12 13  1  0
 13 14  1  0
 14 15  2  0
 15 16  1  0
 16 17  1  0
 17 18  1  0
 18 19  1  1
 18 20  1  0
 20 21  1  0
 21 22  1  0
 22 23  1  0
 22 24  2  0
 24 25  1  0
 25 26  1  0
 25 27  1  0
 27 28  1  0
 28 29  1  0
 28 30  1  0
 28 31  1  0
 31 32  1  0
 32 33  1  0
 33 34  1  0
 34 35  1  6
 34 36  1  0
 36 37  1  6
 36 38  1  0
 38 39  1  0
 13  6  1  0
 36 14  1  0
 39  6  1  0
 34 17  1  0
 31 18  1  0
 27 21  2  0
  1 40  1  0
  1 41  1  0
  1 42  1  0
  2 43  1  0
  2 44  1  0
  7 45  1  0
  7 46  1  0
  8 47  1  0
  8 48  1  0
 10 49  1  0
 10 50  1  0
 10 51  1  0
 11 52  1  0
 11 53  1  0
 11 54  1  0
 12 55  1  0
 12 56  1  0
 13 57  1  1
 15 58  1  0
 16 59  1  0
 16 60  1  0
 17 61  1  1
 19 62  1  0
 19 63  1  0
 19 64  1  0
 20 65  1  0
 20 66  1  0
 23 67  1  0
 23 68  1  0
 23 69  1  0
 26 70  1  0
 26 71  1  0
 26 72  1  0
 29 73  1  0
 29 74  1  0
 29 75  1  0
 30 76  1  0
 30 77  1  0
 30 78  1  0
 31 79  1  6
 32 80  1  0
 32 81  1  0
 33 82  1  0
 33 83  1  0
 35 84  1  0
 35 85  1  0
 35 86  1  0
 37 87  1  0
 37 88  1  0
 37 89  1  0
 38 90  1  0
 38 91  1  0
 39 92  1  0
 39 93  1  0
M  CHG  1   3  -1
M  END
>  <UniqueID>  (22) 
21

>  <SMILES>  (22) 
CC[N-]C(=O)[C@]12CCC(C)(C)C[C@H]1C1=CCC3C4(C)Cc5c(C)nn(C)c5C(C)(C)C4CCC3(C)C1(C)CC2

>  <Energy>  (22) 
221.91904002540264

>  <Genealogy>  (22) 
CC[N-]C(=O)C12CCC(C)(C)CC1C1=CCC3C4(C)Cc5c(C)nn(C)c5C(C)(C)C4CCC3(C)C1(C)CC2 (protonated)
CC[N-]C(=O)[C@]12CCC(C)(C)C[C@H]1C1=CCC3C4(C)Cc5c(C)nn(C)c5C(C)(C)C4CCC3(C)C1(C)CC2 (chirality)
CC[N-]C(=O)[C@]12CCC(C)(C)C[C@H]1C1=CCC3C4(C)Cc5c(C)nn(C)c5C(C)(C)C4CCC3(C)C1(C)CC2 (3D coordinates assigned)
CC[N-]C(=O)[C@]12CCC(C)(C)C[C@H]1C1=CCC3C4(C)Cc5c(C)nn(C)c5C(C)(C)C4CCC3(C)C1(C)CC2 (nonaromatic ring conformer: 221.91904002540264 kcal/mol)

>  <smiles>  (22) 
CCNC(=O)C12CCC(C)(C)CC1C1=CCC3C4(C)Cc5c(C)nn(C)c5C(C)(C)C4CCC3(C)C1(C)CC2

>  <score_type>  (22) 
oracle

>  <origin>  (22) 
adg

>  <m_score__min__energy>  (22) 
-11.69

>  <m_primary>  (22) 
energy

$$$$
22:0
     RDKit          3D

 30 31  0  0  0  0  0  0  0  0999 V2000
   58.5890   34.5830   44.8870 C   0  0  0  0  0  0  0  0  0  0  0  0
   57.8670   33.3880   44.6080 O   0  0  0  0  0  0  0  0  0  0  0  0
   58.0800   32.1570   45.2510 C   0  0  0  0  0  0  0  0  0  0  0  0
   58.7040   32.0790   46.5060 C   0  0  0  0  0  0  0  0  0  0  0  0
   58.9130   30.8460   47.1200 C   0  0  0  0  0  0  0  0  0  0  0  0
   58.5100   29.6560   46.4900 C   0  0  0  0  0  0  0  0  0  0  0  0
   58.6950   28.4020   47.0950 O   0  0  0  0  0  0  0  0  0  0  0  0
   59.6740   28.1180   48.0880 C   0  0  0  0  0  0  0  0  0  0  0  0
   57.9020   29.7180   45.2200 C   0  0  0  0  0  0  0  0  0  0  0  0
   57.6560   30.9740   44.6150 C   0  0  0  0  0  0  0  0  0  0  0  0
   57.0210   31.0580   43.2450 C   0  0  0  0  0  0  0  0  0  0  0  0
   56.3300   29.7520   42.8460 C   0  0  0  0  0  0  0  0  0  0  0  0
   57.2040   28.6050   43.1150 N   0  0  0  0  0  0  0  0  0  0  0  0
   57.4220   28.4410   44.5590 C   0  0  0  0  0  0  0  0  0  0  0  0
   58.6698   34.7168   45.9758 H   0  0  0  0  0  0  0  0  0  0  0  0
   59.5962   34.5133   44.4504 H   0  0  0  0  0  0  0  0  0  0  0  0
   58.0588   35.4422   44.4504 H   0  0  0  0  0  0  0  0  0  0  0  0
   59.0312   33.0006   47.0097 H   0  0  0  0  0  0  0  0  0  0  0  0
   59.3977   30.8034   48.1065 H   0  0  0  0  0  0  0  0  0  0  0  0
   59.2312   28.2464   49.0867 H   0  0  0  0  0  0  0  0  0  0  0  0
   60.0235   27.0814   47.9724 H   0  0  0  0  0  0  0  0  0  0  0  0
   60.5240   28.8066   47.9724 H   0  0  0  0  0  0  0  0  0  0  0  0
   56.2749   31.8663   43.2495 H   0  0  0  0  0  0  0  0  0  0  0  0
   57.8197   31.2539   42.5145 H   0  0  0  0  0  0  0  0  0  0  0  0
   55.4009   29.6426   43.4247 H   0  0  0  0  0  0  0  0  0  0  0  0
   56.1051   29.7831   41.7697 H   0  0  0  0  0  0  0  0  0  0  0  0
   58.1230   28.7310   42.6280 H   0  0  0  0  0  0  0  0  0  0  0  0
   56.7490   27.7390   42.7430 H   0  0  0  0  0  0  0  0  0  0  0  0
   56.4744   28.1357   45.0268 H   0  0  0  0  0  0  0  0  0  0  0  0
   58.2031   27.6787   44.6957 H   0  0  0  0  0  0  0  0  0  0  0  0
  1  2  1  0
  2  3  1  0
  3  4  2  0
  4  5  1  0
  5  6  2  0
  6  7  1  0
  7  8  1  0
  6  9  1  0
  9 10  2  0
 10 11  1  0
 11 12  1  0
 12 13  1  0
 13 14  1  0
 10  3  1  0
 14  9  1  0
  1 15  1  0
  1 16  1  0
  1 17  1  0
  4 18  1  0
  5 19  1  0
  8 20  1  0
  8 21  1  0
  8 22  1  0
 11 23  1  0
 11 24  1  0
 12 25  1  0
 12 26  1  0
 13 27  1  0
 13 28  1  0
 14 29  1  0
 14 30  1  0
M  CHG  1  13   1
M  END
>  <UniqueID>  (23) 
22

>  <SMILES>  (23) 
COc1ccc(OC)c2c1CC[NH2+]C2

>  <Energy>  (23) 
31.117074697406128

>  <Genealogy>  (23) 
COc1ccc(OC)c2c1CC[NH2+]C2 (protonated)
COc1ccc(OC)c2c1CC[NH2+]C2 (3D coordinates assigned)
COc1ccc(OC)c2c1CC[NH2+]C2 (nonaromatic ring conformer: 31.117074697406128 kcal/mol)

>  <smiles>  (23) 
COc1ccc(OC)c2c1CCNC2

>  <score_type>  (23) 
oracle

>  <origin>  (23) 
adg

>  <m_score__min__energy>  (23) 
-3.5499999999999998

>  <m_primary>  (23) 
energy

$$$$
23:0
     RDKit          3D

 94 97  0  0  0  0  0  0  0  0999 V2000
   51.8678   32.5385   50.3310 H   0  0  0  0  0  0  0  0  0  0  0  0
   51.9590   31.9440   51.2520 C   0  0  0  0  0  0  0  0  0  0  0  0
   52.8590   30.8750   51.3040 C   0  0  0  0  0  0  0  0  0  0  0  0
   53.4802   30.6398   50.4272 H   0  0  0  0  0  0  0  0  0  0  0  0
   52.9740   30.1010   52.4680 C   0  0  0  0  0  0  0  0  0  0  0  0
   53.9880   28.9940   52.5420 C   0  0  0  0  0  0  0  0  0  0  0  0
   54.1130   28.6811   53.5891 H   0  0  0  0  0  0  0  0  0  0  0  0
   53.6415   28.1397   51.9420 H   0  0  0  0  0  0  0  0  0  0  0  0
   55.2740   29.4700   52.0170 N   0  0  0  0  0  0  0  0  0  0  0  0
   55.0740   30.2810   51.3830 H   0  0  0  0  0  0  0  0  0  0  0  0
   56.1520   29.9600   53.0890 C   0  0  0  0  0  0  0  0  0  0  0  0
   55.7379   30.8947   53.4949 H   0  0  0  0  0  0  0  0  0  0  0  0
   56.2096   29.1926   53.8750 H   0  0  0  0  0  0  0  0  0  0  0  0
   57.5670   30.2260   52.5580 C   0  0  0  0  0  0  0  0  0  0  0  0
   58.2904   29.6494   53.1532 H   0  0  0  0  0  0  0  0  0  0  0  0
   57.6120   29.9204   51.5023 H   0  0  0  0  0  0  0  0  0  0  0  0
   57.9110   31.7200   52.6550 C   0  0  0  0  0  0  0  0  0  0  0  0
   57.1521   32.2157   53.2781 H   0  0  0  0  0  0  0  0  0  0  0  0
   58.9160   31.8007   53.0948 H   0  0  0  0  0  0  0  0  0  0  0  0
   57.9490   32.4140   51.2800 C   0  0  0  0  0  0  0  0  0  0  0  0
   58.2189   31.6674   50.5186 H   0  0  0  0  0  0  0  0  0  0  0  0
   56.9518   32.8428   51.1017 H   0  0  0  0  0  0  0  0  0  0  0  0
   58.9620   33.5680   51.2140 C   0  0  0  0  0  0  0  0  0  0  0  0
   58.4284   34.4961   50.9613 H   0  0  0  0  0  0  0  0  0  0  0  0
   59.4527   33.6486   52.1952 H   0  0  0  0  0  0  0  0  0  0  0  0
   60.0000   33.3260   50.2030 N   0  0  0  0  0  0  0  0  0  0  0  0
   60.9370   33.4990   50.6370 H   0  0  0  0  0  0  0  0  0  0  0  0
   59.8610   34.1780   49.0070 C   0  0  0  0  0  0  0  0  0  0  0  0
   59.1827   35.0111   49.2436 H   0  0  0  0  0  0  0  0  0  0  0  0
   60.8635   34.5395   48.7343 H   0  0  0  0  0  0  0  0  0  0  0  0
   59.3010   33.4150   47.8120 C   0  0  0  0  0  0  0  0  0  0  0  0
   58.1140   33.9020   47.2530 C   0  0  0  0  0  0  0  0  0  0  0  0
   57.6503   34.8047   47.6773 H   0  0  0  0  0  0  0  0  0  0  0  0
   57.5090   33.2710   46.1750 C   0  0  0  0  0  0  0  0  0  0  0  0
   56.5691   33.6754   45.7711 H   0  0  0  0  0  0  0  0  0  0  0  0
   58.0740   32.1260   45.5900 C   0  0  0  0  0  0  0  0  0  0  0  0
   57.3790   31.4380   44.4200 C   0  0  0  0  0  0  0  0  0  0  0  0
   57.0258   32.2076   43.7178 H   0  0  0  0  0  0  0  0  0  0  0  0
   58.1088   30.7634   43.9484 H   0  0  0  0  0  0  0  0  0  0  0  0
   56.2300   30.6250   44.8450 N   0  0  0  0  0  0  0  0  0  0  0  0
   55.4170   31.2460   45.0580 H   0  0  0  0  0  0  0  0  0  0  0  0
   55.8480   29.6060   43.8520 C   0  0  0  0  0  0  0  0  0  0  0  0
   55.4074   28.7509   44.3856 H   0  0  0  0  0  0  0  0  0  0  0  0
   55.1385   30.0847   43.1610 H   0  0  0  0  0  0  0  0  0  0  0  0
   57.0250   29.0910   42.9980 C   0  0  0  0  0  0  0  0  0  0  0  0
   56.6335   28.3828   42.2529 H   0  0  0  0  0  0  0  0  0  0  0  0
   57.4960   29.9661   42.5264 H   0  0  0  0  0  0  0  0  0  0  0  0
   58.1030   28.3820   43.8260 C   0  0  0  0  0  0  0  0  0  0  0  0
   58.9552   28.1286   43.1782 H   0  0  0  0  0  0  0  0  0  0  0  0
   58.4413   29.0475   44.6339 H   0  0  0  0  0  0  0  0  0  0  0  0
   57.5460   27.1520   44.4060 N   0  0  0  0  0  0  0  0  0  0  0  0
   56.5360   27.3090   44.6230 H   0  0  0  0  0  0  0  0  0  0  0  0
   58.2670   26.7120   45.6120 C   0  0  0  0  0  0  0  0  0  0  0  0
   57.9479   25.6873   45.8533 H   0  0  0  0  0  0  0  0  0  0  0  0
   59.3416   26.7736   45.3854 H   0  0  0  0  0  0  0  0  0  0  0  0
   58.0130   27.6050   46.8450 C   0  0  0  0  0  0  0  0  0  0  0  0
   57.8770   28.6402   46.4987 H   0  0  0  0  0  0  0  0  0  0  0  0
   57.1214   27.2023   47.3478 H   0  0  0  0  0  0  0  0  0  0  0  0
   59.1480   27.5890   47.8810 C   0  0  0  0  0  0  0  0  0  0  0  0
   58.9843   26.7559   48.5803 H   0  0  0  0  0  0  0  0  0  0  0  0
   60.1037   27.4663   47.3503 H   0  0  0  0  0  0  0  0  0  0  0  0
   59.1920   28.8420   48.6330 N   0  0  0  0  0  0  0  0  0  0  0  0
   59.9700   29.1170   49.6410 C   0  0  0  0  0  0  0  0  0  0  0  0
   60.1090   30.3980   50.2260 N   0  0  0  0  0  0  0  0  0  0  0  0
   59.6290   31.2740   49.9280 H   0  0  0  0  0  0  0  0  0  0  0  0
   61.0450   30.3390   51.3300 C   0  0  0  0  0  0  0  0  0  0  0  0
   60.5416   30.6055   52.2710 H   0  0  0  0  0  0  0  0  0  0  0  0
   61.8752   31.0467   51.1890 H   0  0  0  0  0  0  0  0  0  0  0  0
   61.5520   28.8840   51.3890 C   0  0  0  0  0  0  0  0  0  0  0  0
   61.3338   28.4493   52.3756 H   0  0  0  0  0  0  0  0  0  0  0  0
   62.6399   28.8445   51.2314 H   0  0  0  0  0  0  0  0  0  0  0  0
   60.8150   28.0970   50.2930 C   0  0  0  0  0  0  0  0  0  0  0  0
   60.1987   27.2978   50.7305 H   0  0  0  0  0  0  0  0  0  0  0  0
   61.4998   27.5978   49.5917 H   0  0  0  0  0  0  0  0  0  0  0  0
   59.2680   31.5910   46.1530 C   0  0  0  0  0  0  0  0  0  0  0  0
   59.8510   30.4090   45.6370 C   0  0  0  0  0  0  0  0  0  0  0  0
   59.3747   29.8954   44.7888 H   0  0  0  0  0  0  0  0  0  0  0  0
   61.0180   29.8870   46.1870 C   0  0  0  0  0  0  0  0  0  0  0  0
   61.4605   28.9722   45.7658 H   0  0  0  0  0  0  0  0  0  0  0  0
   61.6260   30.5160   47.2650 C   0  0  0  0  0  0  0  0  0  0  0  0
   62.5487   30.0980   47.6939 H   0  0  0  0  0  0  0  0  0  0  0  0
   61.0720   31.6750   47.8060 C   0  0  0  0  0  0  0  0  0  0  0  0
   61.5605   32.1592   48.6644 H   0  0  0  0  0  0  0  0  0  0  0  0
   59.8890   32.2390   47.2670 C   0  0  0  0  0  0  0  0  0  0  0  0
   52.1940   30.4260   53.5890 C   0  0  0  0  0  0  0  0  0  0  0  0
   52.2920   29.8378   54.5133 H   0  0  0  0  0  0  0  0  0  0  0  0
   51.2940   31.4930   53.5360 C   0  0  0  0  0  0  0  0  0  0  0  0
   50.6779   31.7305   54.4158 H   0  0  0  0  0  0  0  0  0  0  0  0
   51.1690   32.2630   52.3730 C   0  0  0  0  0  0  0  0  0  0  0  0
   50.2590   33.3300   52.3750 O   0  0  0  0  0  0  0  0  0  0  0  0
   49.9940   34.1570   53.5030 C   0  0  0  0  0  0  0  0  0  0  0  0
   50.1765   33.5874   54.4262 H   0  0  0  0  0  0  0  0  0  0  0  0
   50.6557   35.0354   53.4772 H   0  0  0  0  0  0  0  0  0  0  0  0
   48.9451   34.4872   53.4772 H   0  0  0  0  0  0  0  0  0  0  0  0
  1  2  1  0
  2  3  2  0
  3  4  1  0
  3  5  1  0
  5  6  1  0
  6  7  1  0
  6  8  1  0
  6  9  1  0
  9 10  1  0
  9 11  1  0
 11 12  1  0
 11 13  1  0
 11 14  1  0
 14 15  1  0
 14 16  1  0
 14 17  1  0
 17 18  1  0
 17 19  1  0
 17 20  1  0
 20 21  1  0
 20 22  1  0
 20 23  1  0
 23 24  1  0
 23 25  1  0
 23 26  1  0
 26 27  1  0
 26 28  1  0
 28 29  1  0
 28 30  1  0
 28 31  1  0
 31 32  2  0
 32 33  1  0
 32 34  1  0
 34 35  1  0
 34 36  2  0
 36 37  1  0
 37 38  1  0
 37 39  1  0
 37 40  1  0
 40 41  1  0
 40 42  1  0
 42 43  1  0
 42 44  1  0
 42 45  1  0
 45 46  1  0
 45 47  1  0
 45 48  1  0
 48 49  1  0
 48 50  1  0
 48 51  1  0
 51 52  1  0
 51 53  1  0
 53 54  1  0
 53 55  1  0
 53 56  1  0
 56 57  1  0
 56 58  1  0
 56 59  1  0
 59 60  1  0
 59 61  1  0
 59 62  1  0
 62 63  2  0
 63 64  1  0
 64 65  1  0
 64 66  1  0
 66 67  1  0
 66 68  1  0
 66 69  1  0
 69 70  1  0
 69 71  1  0
 69 72  1  0
 72 73  1  0
 72 74  1  0
 36 75  1  0
 75 76  2  0
 76 77  1  0
 76 78  1  0
 78 79  1  0
 78 80  2  0
 80 81  1  0
 80 82  1  0
 82 83  1  0
 82 84  2  0
  5 85  2  0
 85 86  1  0
 85 87  1  0
 87 88  1  0
 87 89  2  0
 89 90  1  0
 90 91  1  0
 91 92  1  0
 91 93  1  0
 91 94  1  0
 89  2  1  0
 84 31  1  0
 72 63  1  0
 84 75  1  0
M  END
>  <UniqueID>  (24) 
23

>  <SMILES>  (24) 
COc1ccc(CNCCCCCNCc2ccc(CNCCCNCCC/N=C3/CCCN3)c3ccccc23)cc1

>  <Energy>  (24) 
105.15720236742183

>  <Genealogy>  (24) 
COc1ccc(CNCCCCCNCc2ccc(CNCCCNCCC/N=C3/CCCN3)c3ccccc23)cc1 (cis-trans isomerization)
COc1ccc(CNCCCCCNCc2ccc(CNCCCNCCC/N=C3/CCCN3)c3ccccc23)cc1 (3D coordinates assigned)
COc1ccc(CNCCCCCNCc2ccc(CNCCCNCCC/N=C3/CCCN3)c3ccccc23)cc1 (nonaromatic ring conformer: 105.15720236742183 kcal/mol)

>  <smiles>  (24) 
COc1ccc(CNCCCCCNCc2ccc(CNCCCNCCCN=C3CCCN3)c3ccccc23)cc1

>  <score_type>  (24) 
oracle

>  <origin>  (24) 
adg

>  <m_score__min__energy>  (24) 
-8.5099999999999998

>  <m_primary>  (24) 
energy

$$$$
24:0
     RDKit          3D

 45 47  0  0  0  0  0  0  0  0999 V2000
   59.7060   32.4220   50.8390 C   0  0  0  0  0  0  0  0  0  0  0  0
   59.8000   32.8640   49.4090 C   0  0  0  0  0  0  0  0  0  0  0  0
   59.9680   31.9190   48.3870 C   0  0  0  0  0  0  0  0  0  0  0  0
   60.0160   32.3250   47.0500 C   0  0  0  0  0  0  0  0  0  0  0  0
   59.9070   33.6870   46.7160 C   0  0  0  0  0  0  0  0  0  0  0  0
   59.9840   34.1350   45.2680 C   0  0  0  0  0  0  0  0  0  0  0  0
   58.7200   33.9830   44.5030 N   0  0  0  0  0  0  0  0  0  0  0  0
   57.5400   34.5310   45.1860 C   0  0  0  0  0  0  0  0  0  0  0  0
   56.7610   33.3720   45.7960 C   0  0  0  0  0  0  0  0  0  0  0  0
   57.3200   32.1160   45.1360 C   0  0  1  0  0  0  0  0  0  0  0  0
   56.2810   31.3180   44.4770 N   0  0  0  0  0  0  0  0  0  0  0  0
   56.1900   29.8850   44.4660 C   0  0  0  0  0  0  0  0  0  0  0  0
   55.1460   29.3080   44.8710 O   0  0  0  0  0  0  0  0  0  0  0  0
   57.3690   29.0620   44.0400 C   0  0  0  0  0  0  0  0  0  0  0  0
   58.4190   29.0200   45.1210 C   0  0  0  0  0  0  0  0  0  0  0  0
   59.7590   29.3150   44.8250 C   0  0  0  0  0  0  0  0  0  0  0  0
   60.7220   29.2240   45.8320 C   0  0  0  0  0  0  0  0  0  0  0  0
   60.3620   28.8440   47.0860 N   0  0  0  0  0  0  0  0  0  0  0  0
   59.0740   28.5460   47.4010 C   0  0  0  0  0  0  0  0  0  0  0  0
   58.0780   28.6250   46.4240 C   0  0  0  0  0  0  0  0  0  0  0  0
   58.3950   32.5930   44.1580 C   0  0  0  0  0  0  0  0  0  0  0  0
   59.6870   34.6240   47.7400 C   0  0  0  0  0  0  0  0  0  0  0  0
   59.6360   34.2150   49.0750 C   0  0  0  0  0  0  0  0  0  0  0  0
   59.8887   33.2812   51.5011 H   0  0  0  0  0  0  0  0  0  0  0  0
   58.7017   32.0171   51.0324 H   0  0  0  0  0  0  0  0  0  0  0  0
   60.4587   31.6435   51.0324 H   0  0  0  0  0  0  0  0  0  0  0  0
   60.0626   30.8523   48.6385 H   0  0  0  0  0  0  0  0  0  0  0  0
   60.1397   31.5751   46.2548 H   0  0  0  0  0  0  0  0  0  0  0  0
   60.2680   35.1976   45.2528 H   0  0  0  0  0  0  0  0  0  0  0  0
   60.7228   33.4824   44.7799 H   0  0  0  0  0  0  0  0  0  0  0  0
   57.8574   35.2244   45.9788 H   0  0  0  0  0  0  0  0  0  0  0  0
   56.9081   35.0789   44.4715 H   0  0  0  0  0  0  0  0  0  0  0  0
   56.9148   33.3356   46.8846 H   0  0  0  0  0  0  0  0  0  0  0  0
   55.6785   33.4743   45.6295 H   0  0  0  0  0  0  0  0  0  0  0  0
   57.7472   31.4373   45.8889 H   0  0  0  0  0  0  0  0  0  0  0  0
   57.0330   28.0368   43.8252 H   0  0  0  0  0  0  0  0  0  0  0  0
   57.8094   29.5200   43.1421 H   0  0  0  0  0  0  0  0  0  0  0  0
   60.0483   29.6157   43.8072 H   0  0  0  0  0  0  0  0  0  0  0  0
   61.7732   29.4602   45.6100 H   0  0  0  0  0  0  0  0  0  0  0  0
   58.8152   28.2423   48.4261 H   0  0  0  0  0  0  0  0  0  0  0  0
   57.0353   28.3796   46.6740 H   0  0  0  0  0  0  0  0  0  0  0  0
   59.2924   31.9635   44.2500 H   0  0  0  0  0  0  0  0  0  0  0  0
   58.0332   32.5255   43.1214 H   0  0  0  0  0  0  0  0  0  0  0  0
   59.5540   35.6866   47.4888 H   0  0  0  0  0  0  0  0  0  0  0  0
   59.4661   34.9577   49.8684 H   0  0  0  0  0  0  0  0  0  0  0  0
  1  2  1  0
  2  3  2  0
  3  4  1  0
  4  5  2  0
  5  6  1  0
  6  7  1  0
  7  8  1  0
  8  9  1  0
  9 10  1  0
 10 11  1  0
 11 12  1  0
 12 13  2  0
 12 14  1  0
 14 15  1  0
 15 16  2  0
 16 17  1  0
 17 18  2  0
 18 19  1  0
 19 20  2  0
 10 21  1  0
  5 22  1  0
 22 23  2  0
 23  2  1  0
 21  7  1  0
 20 15  1  0
  1 24  1  0
  1 25  1  0
  1 26  1  0
  3 27  1  0
  4 28  1  0
  6 29  1  0
  6 30  1  0
  8 31  1  0
  8 32  1  0
  9 33  1  0
  9 34  1  0
 10 35  1  1
 14 36  1  0
 14 37  1  0
 16 38  1  0
 17 39  1  0
 19 40  1  0
 20 41  1  0
 21 42  1  0
 21 43  1  0
 22 44  1  0
 23 45  1  0
M  CHG  1  11  -1
M  END
>  <UniqueID>  (25) 
24

>  <SMILES>  (25) 
Cc1ccc(CN2CC[C@@H]([N-]C(=O)Cc3ccncc3)C2)cc1

>  <Energy>  (25) 
51.243044593343996

>  <Genealogy>  (25) 
Cc1ccc(CN2CCC([N-]C(=O)Cc3ccncc3)C2)cc1 (protonated)
Cc1ccc(CN2CC[C@@H]([N-]C(=O)Cc3ccncc3)C2)cc1 (chirality)
Cc1ccc(CN2CC[C@@H]([N-]C(=O)Cc3ccncc3)C2)cc1 (3D coordinates assigned)
Cc1ccc(CN2CC[C@@H]([N-]C(=O)Cc3ccncc3)C2)cc1 (nonaromatic ring conformer: 51.243044593343996 kcal/mol)

>  <smiles>  (25) 
Cc1ccc(CN2CCC(NC(=O)Cc3ccncc3)C2)cc1

>  <score_type>  (25) 
oracle

>  <origin>  (25) 
adg

>  <m_score__min__energy>  (25) 
-10.23

>  <m_primary>  (25) 
energy

$$$$
25:0
     RDKit          3D

 55 59  0  0  0  0  0  0  0  0999 V2000
   56.3350   30.6900   44.0630 C   0  0  0  0  0  0  0  0  0  0  0  0
   56.2780   31.9370   44.7490 O   0  0  0  0  0  0  0  0  0  0  0  0
   57.3870   32.5720   45.3270 C   0  0  0  0  0  0  0  0  0  0  0  0
   58.4530   33.0800   44.5600 C   0  0  0  0  0  0  0  0  0  0  0  0
   59.5320   33.7130   45.1820 C   0  0  0  0  0  0  0  0  0  0  0  0
   59.5720   33.8300   46.5770 C   0  0  0  0  0  0  0  0  0  0  0  0
   58.5100   33.3240   47.3480 C   0  0  0  0  0  0  0  0  0  0  0  0
   57.4250   32.7030   46.7210 C   0  0  0  0  0  0  0  0  0  0  0  0
   58.5380   33.4240   48.7420 O   0  0  0  0  0  0  0  0  0  0  0  0
   59.6960   33.8280   49.4050 C   0  0  0  0  0  0  0  0  0  0  0  0
   59.7120   33.8710   50.6640 O   0  0  0  0  0  0  0  0  0  0  0  0
   60.8690   34.1540   48.6380 N   0  0  0  0  0  0  0  0  0  0  0  0
   62.1970   34.2360   49.2630 C   0  0  0  0  0  0  0  0  0  0  0  0
   62.9390   32.8720   49.2760 C   0  0  1  0  0  0  0  0  0  0  0  0
   62.1740   31.8540   48.5280 C   0  0  0  0  0  0  0  0  0  0  0  0
   61.5350   31.0430   47.9060 C   0  0  0  0  0  0  0  0  0  0  0  0
   60.7580   30.0750   47.1860 C   0  0  0  0  0  0  0  0  0  0  0  0
   59.6230   29.4990   47.7690 C   0  0  0  0  0  0  0  0  0  0  0  0
   58.8780   28.5710   47.0370 C   0  0  0  0  0  0  0  0  0  0  0  0
   59.2700   28.2330   45.7410 C   0  0  0  0  0  0  0  0  0  0  0  0
   60.4080   28.8300   45.1920 C   0  0  0  0  0  0  0  0  0  0  0  0
   61.1210   29.7310   45.9210 N   0  0  0  0  0  0  0  0  0  0  0  0
   64.3610   33.0420   48.6390 C   0  0  0  0  0  0  0  0  0  0  0  0
   65.2840   32.8080   49.7820 C   0  0  0  0  0  0  0  0  0  0  0  0
   66.6780   32.8820   49.7890 C   0  0  0  0  0  0  0  0  0  0  0  0
   67.3580   32.5800   50.9790 C   0  0  0  0  0  0  0  0  0  0  0  0
   66.6400   32.2020   52.1300 C   0  0  0  0  0  0  0  0  0  0  0  0
   65.2370   32.1250   52.0940 C   0  0  0  0  0  0  0  0  0  0  0  0
   64.5850   32.4420   50.8990 C   0  0  0  0  0  0  0  0  0  0  0  0
   63.1890   32.4140   50.6570 N   0  0  0  0  0  0  0  0  0  0  0  0
   62.2360   31.7140   51.5250 C   0  0  0  0  0  0  0  0  0  0  0  0
   60.6830   34.5950   47.2480 C   0  0  0  0  0  0  0  0  0  0  0  0
   56.3725   29.8700   44.7953 H   0  0  0  0  0  0  0  0  0  0  0  0
   55.4411   30.5775   43.4320 H   0  0  0  0  0  0  0  0  0  0  0  0
   57.2355   30.6595   43.4320 H   0  0  0  0  0  0  0  0  0  0  0  0
   58.4361   32.9779   43.4649 H   0  0  0  0  0  0  0  0  0  0  0  0
   60.3529   34.1209   44.5740 H   0  0  0  0  0  0  0  0  0  0  0  0
   56.5942   32.3140   47.3280 H   0  0  0  0  0  0  0  0  0  0  0  0
   62.8050   34.9619   48.7033 H   0  0  0  0  0  0  0  0  0  0  0  0
   62.0533   34.5458   50.3086 H   0  0  0  0  0  0  0  0  0  0  0  0
   59.3215   29.7736   48.7906 H   0  0  0  0  0  0  0  0  0  0  0  0
   57.9846   28.1079   47.4812 H   0  0  0  0  0  0  0  0  0  0  0  0
   58.6889   27.5038   45.1573 H   0  0  0  0  0  0  0  0  0  0  0  0
   60.7271   28.5718   44.1715 H   0  0  0  0  0  0  0  0  0  0  0  0
   64.5260   32.3016   47.8424 H   0  0  0  0  0  0  0  0  0  0  0  0
   64.5042   34.0253   48.1671 H   0  0  0  0  0  0  0  0  0  0  0  0
   67.2307   33.1704   48.8827 H   0  0  0  0  0  0  0  0  0  0  0  0
   68.4559   32.6388   51.0128 H   0  0  0  0  0  0  0  0  0  0  0  0
   67.1786   31.9664   53.0597 H   0  0  0  0  0  0  0  0  0  0  0  0
   64.6662   31.8227   52.9844 H   0  0  0  0  0  0  0  0  0  0  0  0
   62.4924   31.9023   52.5780 H   0  0  0  0  0  0  0  0  0  0  0  0
   61.2188   32.0812   51.3240 H   0  0  0  0  0  0  0  0  0  0  0  0
   62.2822   30.6335   51.3240 H   0  0  0  0  0  0  0  0  0  0  0  0
   60.4352   35.6667   47.2418 H   0  0  0  0  0  0  0  0  0  0  0  0
   61.6162   34.4092   46.6961 H   0  0  0  0  0  0  0  0  0  0  0  0
  1  2  1  0
  2  3  1  0
  3  4  2  0
  4  5  1  0
  5  6  2  0
  6  7  1  0
  7  8  2  0
  7  9  1  0
  9 10  1  0
 10 11  2  0
 10 12  1  0
 12 13  1  0
 13 14  1  0
 14 15  1  6
 15 16  3  0
 16 17  1  0
 17 18  2  0
 18 19  1  0
 19 20  2  0
 20 21  1  0
 21 22  2  0
 14 23  1  0
 23 24  1  0
 24 25  2  0
 25 26  1  0
 26 27  2  0
 27 28  1  0
 28 29  2  0
 29 30  1  0
 30 31  1  0
 12 32  1  0
  8  3  1  0
 30 14  1  0
 32  6  1  0
 22 17  1  0
 29 24  1  0
  1 33  1  0
  1 34  1  0
  1 35  1  0
  4 36  1  0
  5 37  1  0
  8 38  1  0
 13 39  1  0
 13 40  1  0
 18 41  1  0
 19 42  1  0
 20 43  1  0
 21 44  1  0
 23 45  1  0
 23 46  1  0
 25 47  1  0
 26 48  1  0
 27 49  1  0
 28 50  1  0
 31 51  1  0
 31 52  1  0
 31 53  1  0
 32 54  1  0
 32 55  1  0
M  END
>  <UniqueID>  (26) 
25

>  <SMILES>  (26) 
COc1ccc2c(c1)OC(=O)N(C[C@@]1(C#Cc3ccccn3)Cc3ccccc3N1C)C2

>  <Energy>  (26) 
70.66002102287327

>  <Genealogy>  (26) 
COc1ccc2c(c1)OC(=O)N(C[C@@]1(C#Cc3ccccn3)Cc3ccccc3N1C)C2 (chirality)
COc1ccc2c(c1)OC(=O)N(C[C@@]1(C#Cc3ccccn3)Cc3ccccc3N1C)C2 (3D coordinates assigned)
COc1ccc2c(c1)OC(=O)N(C[C@@]1(C#Cc3ccccn3)Cc3ccccc3N1C)C2 (nonaromatic ring conformer: 70.66002102287327 kcal/mol)

>  <smiles>  (26) 
COc1ccc2c(c1)OC(=O)N(CC1(C#Cc3ccccn3)Cc3ccccc3N1C)C2

>  <score_type>  (26) 
oracle

>  <origin>  (26) 
adg

>  <m_score__min__energy>  (26) 
-7.71

>  <m_primary>  (26) 
energy

$$$$
26:0
     RDKit          3D

 41 42  0  0  0  0  0  0  0  0999 V2000
   63.7590   33.1050   47.0890 C   0  0  0  0  0  0  0  0  0  0  0  0
   62.4280   33.7490   46.6850 C   0  0  0  0  0  0  0  0  0  0  0  0
   61.2490   32.9370   47.1120 N   0  0  0  0  0  0  0  0  0  0  0  0
   61.5370   31.4800   47.1510 C   0  0  0  0  0  0  0  0  0  0  0  0
   60.3480   30.6280   46.6960 C   0  0  0  0  0  0  0  0  0  0  0  0
   60.6710   33.4140   48.3990 C   0  0  0  0  0  0  0  0  0  0  0  0
   59.1260   33.4980   48.4560 C   0  0  0  0  0  0  0  0  0  0  0  0
   58.5720   34.1300   47.2590 N   0  0  0  0  0  0  0  0  0  0  0  0
   58.2740   33.4410   46.0370 C   0  0  0  0  0  0  0  0  0  0  0  0
   57.4670   32.3130   45.8850 C   0  0  0  0  0  0  0  0  0  0  0  0
   57.3890   31.8940   44.5500 C   0  0  0  0  0  0  0  0  0  0  0  0
   58.1090   32.6880   43.6730 C   0  0  0  0  0  0  0  0  0  0  0  0
   58.8890   33.9010   44.5360 S   0  0  0  0  0  0  0  0  0  0  0  0
   58.2360   32.4010   42.2080 C   0  0  0  0  0  0  0  0  0  0  0  0
   57.0160   31.5990   41.7150 C   0  0  0  0  0  0  0  0  0  0  0  0
   56.7370   30.3630   42.5970 C   0  0  0  0  0  0  0  0  0  0  0  0
   56.6330   30.7350   44.0540 C   0  0  0  0  0  0  0  0  0  0  0  0
   55.9520   30.0260   44.8410 O   0  0  0  0  0  0  0  0  0  0  0  0
   63.8313   33.0700   48.1861 H   0  0  0  0  0  0  0  0  0  0  0  0
   63.8092   32.0829   46.6854 H   0  0  0  0  0  0  0  0  0  0  0  0
   64.5916   33.6999   46.6854 H   0  0  0  0  0  0  0  0  0  0  0  0
   62.3603   34.7426   47.1521 H   0  0  0  0  0  0  0  0  0  0  0  0
   62.4082   33.8171   45.5873 H   0  0  0  0  0  0  0  0  0  0  0  0
   60.4780   33.0750   46.4160 H   0  0  0  0  0  0  0  0  0  0  0  0
   62.3914   31.2727   46.4899 H   0  0  0  0  0  0  0  0  0  0  0  0
   61.7554   31.2132   48.1956 H   0  0  0  0  0  0  0  0  0  0  0  0
   59.8130   30.2446   47.5774 H   0  0  0  0  0  0  0  0  0  0  0  0
   59.6655   31.2438   46.0919 H   0  0  0  0  0  0  0  0  0  0  0  0
   60.7117   29.7837   46.0919 H   0  0  0  0  0  0  0  0  0  0  0  0
   61.0007   32.7266   49.1920 H   0  0  0  0  0  0  0  0  0  0  0  0
   61.0302   34.4464   48.5224 H   0  0  0  0  0  0  0  0  0  0  0  0
   58.7171   32.4806   48.5432 H   0  0  0  0  0  0  0  0  0  0  0  0
   58.8487   34.1114   49.3260 H   0  0  0  0  0  0  0  0  0  0  0  0
   58.2990   35.1370   47.3280 H   0  0  0  0  0  0  0  0  0  0  0  0
   56.9516   31.8107   46.7169 H   0  0  0  0  0  0  0  0  0  0  0  0
   58.2941   33.3504   41.6555 H   0  0  0  0  0  0  0  0  0  0  0  0
   59.1475   31.8098   42.0358 H   0  0  0  0  0  0  0  0  0  0  0  0
   56.1317   32.2530   41.7314 H   0  0  0  0  0  0  0  0  0  0  0  0
   57.2329   31.2455   40.6962 H   0  0  0  0  0  0  0  0  0  0  0  0
   55.7906   29.9024   42.2775 H   0  0  0  0  0  0  0  0  0  0  0  0
   57.5746   29.6597   42.4797 H   0  0  0  0  0  0  0  0  0  0  0  0
  1  2  1  0
  2  3  1  0
  3  4  1  0
  4  5  1  0
  3  6  1  0
  6  7  1  0
  7  8  1  0
  8  9  1  0
  9 10  2  0
 10 11  1  0
 11 12  2  0
 12 13  1  0
 12 14  1  0
 14 15  1  0
 15 16  1  0
 16 17  1  0
 17 18  2  0
 13  9  1  0
 17 11  1  0
  1 19  1  0
  1 20  1  0
  1 21  1  0
  2 22  1  0
  2 23  1  0
  3 24  1  0
  4 25  1  0
  4 26  1  0
  5 27  1  0
  5 28  1  0
  5 29  1  0
  6 30  1  0
  6 31  1  0
  7 32  1  0
  7 33  1  0
  8 34  1  0
 10 35  1  0
 14 36  1  0
 14 37  1  0
 15 38  1  0
 15 39  1  0
 16 40  1  0
 16 41  1  0
M  CHG  1   3   1
M  END
>  <UniqueID>  (27) 
26

>  <SMILES>  (27) 
CC[NH+](CC)CCNc1cc2c(s1)CCCC2=O

>  <Energy>  (27) 
69.07729258168825

>  <Genealogy>  (27) 
CC[NH+](CC)CCNc1cc2c(s1)CCCC2=O (protonated)
CC[NH+](CC)CCNc1cc2c(s1)CCCC2=O (3D coordinates assigned)
CC[NH+](CC)CCNc1cc2c(s1)CCCC2=O (nonaromatic ring conformer: 69.07729258168825 kcal/mol)

>  <smiles>  (27) 
CCN(CC)CCNc1cc2c(s1)CCCC2=O

>  <score_type>  (27) 
oracle

>  <origin>  (27) 
adg

>  <m_score__min__energy>  (27) 
-5.29

>  <m_primary>  (27) 
energy

$$$$
27:0
     RDKit          3D

 71 70  0  0  0  0  0  0  0  0999 V2000
   63.2930   33.8420   46.3660 C   0  0  0  0  0  0  0  0  0  0  0  0
   62.6800   33.2200   47.6220 C   0  0  0  0  0  0  0  0  0  0  0  0
   62.3770   31.7210   47.4630 C   0  0  0  0  0  0  0  0  0  0  0  0
   61.0570   31.2650   48.1120 C   0  0  0  0  0  0  0  0  0  0  0  0
   60.1640   30.4570   47.1540 C   0  0  0  0  0  0  0  0  0  0  0  0
   58.7460   31.0550   47.0450 C   0  0  0  0  0  0  0  0  0  0  0  0
   58.6160   32.4440   47.6980 C   0  0  0  0  0  0  0  0  0  0  0  0
   57.7930   33.4230   46.8480 C   0  0  0  0  0  0  0  0  0  0  0  0
   58.6800   34.1450   45.8210 C   0  0  0  0  0  0  0  0  0  0  0  0
   58.6090   33.5040   44.4260 C   0  0  0  0  0  0  0  0  0  0  0  0
   57.4360   32.5230   44.2220 C   0  0  0  0  0  0  0  0  0  0  0  0
   57.8690   31.1030   43.7890 C   0  0  0  0  0  0  0  0  0  0  0  0
   56.5340   29.9160   43.9190 S   0  0  0  0  0  0  0  0  0  0  0  0
   55.3340   30.6000   44.5080 O   0  0  0  0  0  0  0  0  0  0  0  0
   56.1710   29.4150   42.5510 O   0  0  0  0  0  0  0  0  0  0  0  0
   57.0190   28.6030   44.9590 N   0  0  0  0  0  0  0  0  0  0  0  0
   58.4750   28.4350   44.9160 C   0  0  0  0  0  0  0  0  0  0  0  0
   58.8960   27.4630   43.8000 C   0  0  0  0  0  0  0  0  0  0  0  0
   57.7800   26.9400   42.9900 N   0  0  0  0  0  0  0  0  0  0  0  0
   57.4890   25.5090   43.1850 C   0  0  0  0  0  0  0  0  0  0  0  0
   57.5670   25.0740   44.6590 C   0  0  0  0  0  0  0  0  0  0  0  0
   56.5720   25.7770   45.5060 N   0  0  0  0  0  0  0  0  0  0  0  0
   57.1390   26.1230   46.8320 C   0  0  0  0  0  0  0  0  0  0  0  0
   58.6130   25.7320   46.8700 C   0  0  0  0  0  0  0  0  0  0  0  0
   55.3410   24.9630   45.6600 C   0  0  0  0  0  0  0  0  0  0  0  0
   55.4670   23.6230   44.9370 C   0  0  0  0  0  0  0  0  0  0  0  0
   64.0376   34.5976   46.6570 H   0  0  0  0  0  0  0  0  0  0  0  0
   63.7808   33.0574   45.7689 H   0  0  0  0  0  0  0  0  0  0  0  0
   62.5014   34.3183   45.7689 H   0  0  0  0  0  0  0  0  0  0  0  0
   63.3848   33.3486   48.4567 H   0  0  0  0  0  0  0  0  0  0  0  0
   61.7241   33.7310   47.8095 H   0  0  0  0  0  0  0  0  0  0  0  0
   62.3286   31.4922   46.3882 H   0  0  0  0  0  0  0  0  0  0  0  0
   63.1836   31.1816   47.9812 H   0  0  0  0  0  0  0  0  0  0  0  0
   61.2935   30.6375   48.9840 H   0  0  0  0  0  0  0  0  0  0  0  0
   60.5002   32.1700   48.3965 H   0  0  0  0  0  0  0  0  0  0  0  0
   60.6259   30.4534   46.1557 H   0  0  0  0  0  0  0  0  0  0  0  0
   60.0730   29.4361   47.5533 H   0  0  0  0  0  0  0  0  0  0  0  0
   58.4864   31.1448   45.9799 H   0  0  0  0  0  0  0  0  0  0  0  0
   58.0659   30.3783   47.5831 H   0  0  0  0  0  0  0  0  0  0  0  0
   58.1258   32.3288   48.6760 H   0  0  0  0  0  0  0  0  0  0  0  0
   59.6291   32.8607   47.7978 H   0  0  0  0  0  0  0  0  0  0  0  0
   57.0085   32.8650   46.3159 H   0  0  0  0  0  0  0  0  0  0  0  0
   57.3473   34.1756   47.5151 H   0  0  0  0  0  0  0  0  0  0  0  0
   58.3508   35.1918   45.7451 H   0  0  0  0  0  0  0  0  0  0  0  0
   59.7209   34.0718   46.1692 H   0  0  0  0  0  0  0  0  0  0  0  0
   58.5135   34.3102   43.6838 H   0  0  0  0  0  0  0  0  0  0  0  0
   59.5296   32.9131   44.3103 H   0  0  0  0  0  0  0  0  0  0  0  0
   56.8845   32.4419   45.1703 H   0  0  0  0  0  0  0  0  0  0  0  0
   56.8204   32.9297   43.4061 H   0  0  0  0  0  0  0  0  0  0  0  0
   58.2087   31.1402   42.7434 H   0  0  0  0  0  0  0  0  0  0  0  0
   58.6757   30.7772   44.4622 H   0  0  0  0  0  0  0  0  0  0  0  0
   56.5710   27.7330   44.5870 H   0  0  0  0  0  0  0  0  0  0  0  0
   58.9428   29.4137   44.7333 H   0  0  0  0  0  0  0  0  0  0  0  0
   58.8037   28.0186   45.8796 H   0  0  0  0  0  0  0  0  0  0  0  0
   59.5897   27.9905   43.1288 H   0  0  0  0  0  0  0  0  0  0  0  0
   59.3542   26.5956   44.2976 H   0  0  0  0  0  0  0  0  0  0  0  0
   56.9160   27.4820   43.2180 H   0  0  0  0  0  0  0  0  0  0  0  0
   56.4746   25.3038   42.8124 H   0  0  0  0  0  0  0  0  0  0  0  0
   58.2523   24.9403   42.6337 H   0  0  0  0  0  0  0  0  0  0  0  0
   57.3809   23.9915   44.7189 H   0  0  0  0  0  0  0  0  0  0  0  0
   58.5691   25.3302   45.0333 H   0  0  0  0  0  0  0  0  0  0  0  0
   57.0419   27.2055   47.0016 H   0  0  0  0  0  0  0  0  0  0  0  0
   56.5941   25.5795   47.6179 H   0  0  0  0  0  0  0  0  0  0  0  0
   58.9423   25.6446   47.9159 H   0  0  0  0  0  0  0  0  0  0  0  0
   58.7495   24.7666   46.3607 H   0  0  0  0  0  0  0  0  0  0  0  0
   59.2101   26.5028   46.3607 H   0  0  0  0  0  0  0  0  0  0  0  0
   55.1656   24.7776   46.7300 H   0  0  0  0  0  0  0  0  0  0  0  0
   54.5004   25.5181   45.2181 H   0  0  0  0  0  0  0  0  0  0  0  0
   55.5432   22.8128   45.6771 H   0  0  0  0  0  0  0  0  0  0  0  0
   54.5801   23.4616   44.3067 H   0  0  0  0  0  0  0  0  0  0  0  0
   56.3685   23.6298   44.3067 H   0  0  0  0  0  0  0  0  0  0  0  0
  1  2  1  0
  2  3  1  0
  3  4  1  0
  4  5  1  0
  5  6  1  0
  6  7  1  0
  7  8  1  0
  8  9  1  0
  9 10  1  0
 10 11  1  0
 11 12  1  0
 12 13  1  0
 13 14  2  0
 13 15  2  0
 13 16  1  0
 16 17  1  0
 17 18  1  0
 18 19  1  0
 19 20  1  0
 20 21  1  0
 21 22  1  0
 22 23  1  0
 23 24  1  0
 22 25  1  0
 25 26  1  0
  1 27  1  0
  1 28  1  0
  1 29  1  0
  2 30  1  0
  2 31  1  0
  3 32  1  0
  3 33  1  0
  4 34  1  0
  4 35  1  0
  5 36  1  0
  5 37  1  0
  6 38  1  0
  6 39  1  0
  7 40  1  0
  7 41  1  0
  8 42  1  0
  8 43  1  0
  9 44  1  0
  9 45  1  0
 10 46  1  0
 10 47  1  0
 11 48  1  0
 11 49  1  0
 12 50  1  0
 12 51  1  0
 16 52  1  0
 17 53  1  0
 17 54  1  0
 18 55  1  0
 18 56  1  0
 19 57  1  0
 20 58  1  0
 20 59  1  0
 21 60  1  0
 21 61  1  0
 23 62  1  0
 23 63  1  0
 24 64  1  0
 24 65  1  0
 24 66  1  0
 25 67  1  0
 25 68  1  0
 26 69  1  0
 26 70  1  0
 26 71  1  0
M  END
>  <UniqueID>  (28) 
27

>  <SMILES>  (28) 
CCCCCCCCCCCCS(=O)(=O)NCCNCCN(CC)CC

>  <Energy>  (28) 
39.900934282947894

>  <Genealogy>  (28) 
CCCCCCCCCCCCS(=O)(=O)NCCNCCN(CC)CC (3D coordinates assigned)
CCCCCCCCCCCCS(=O)(=O)NCCNCCN(CC)CC (optimized conformer: 39.900934282947894 kcal/mol)

>  <smiles>  (28) 
CCCCCCCCCCCCS(=O)(=O)NCCNCCN(CC)CC

>  <score_type>  (28) 
oracle

>  <origin>  (28) 
adg

>  <m_score__min__energy>  (28) 
-6.4299999999999997

>  <m_primary>  (28) 
energy

$$$$
28:0
     RDKit          3D

 36 38  0  0  0  0  0  0  0  0999 V2000
   62.8001   32.5766   46.5141 H   0  0  0  0  0  0  0  0  0  0  0  0
   62.9430   32.9470   47.5400 C   0  0  0  0  0  0  0  0  0  0  0  0
   64.1150   32.6320   48.2320 C   0  0  0  0  0  0  0  0  0  0  0  0
   64.8943   32.0305   47.7412 H   0  0  0  0  0  0  0  0  0  0  0  0
   64.3050   33.0780   49.5500 C   0  0  0  0  0  0  0  0  0  0  0  0
   65.5910   32.7810   50.2810 C   0  0  0  0  0  0  0  0  0  0  0  0
   65.6070   31.4500   50.6510 F   0  0  0  0  0  0  0  0  0  0  0  0
   65.7020   33.5660   51.4160 F   0  0  0  0  0  0  0  0  0  0  0  0
   66.6830   33.0370   49.4700 F   0  0  0  0  0  0  0  0  0  0  0  0
   63.3190   33.8820   50.1440 C   0  0  0  0  0  0  0  0  0  0  0  0
   63.4705   34.2660   51.1636 H   0  0  0  0  0  0  0  0  0  0  0  0
   62.1470   34.1990   49.4520 C   0  0  0  0  0  0  0  0  0  0  0  0
   61.3775   34.8180   49.9365 H   0  0  0  0  0  0  0  0  0  0  0  0
   61.9440   33.7330   48.1420 C   0  0  0  0  0  0  0  0  0  0  0  0
   60.7070   34.0540   47.3920 C   0  0  0  0  0  0  0  0  0  0  0  0
   60.3850   33.5180   46.1960 N   0  0  0  0  0  0  0  0  0  0  0  0
   59.2220   34.0750   45.8930 N   0  0  0  0  0  0  0  0  0  0  0  0
   58.5030   33.8440   44.6490 C   0  0  0  0  0  0  0  0  0  0  0  0
   59.1922   33.4256   43.9007 H   0  0  0  0  0  0  0  0  0  0  0  0
   58.0939   34.7971   44.2826 H   0  0  0  0  0  0  0  0  0  0  0  0
   57.3830   32.8830   44.8850 C   0  0  0  0  0  0  0  0  0  0  0  0
   56.5120   33.1470   45.7570 O   0  0  0  0  0  0  0  0  0  0  0  0
   57.2960   31.6960   44.0810 N   0  0  0  0  0  0  0  0  0  0  0  0
   56.8490   30.5400   44.4720 C   0  0  0  0  0  0  0  0  0  0  0  0
   55.5470   30.2040   44.5550 N   0  0  0  0  0  0  0  0  0  0  0  0
   55.5150   28.9740   44.9820 O   0  0  0  0  0  0  0  0  0  0  0  0
   56.7300   28.5070   45.1710 C   0  0  0  0  0  0  0  0  0  0  0  0
   57.0400   27.1430   45.6820 C   0  0  0  0  0  0  0  0  0  0  0  0
   57.0375   27.1542   46.7819 H   0  0  0  0  0  0  0  0  0  0  0  0
   56.2800   26.4346   45.3208 H   0  0  0  0  0  0  0  0  0  0  0  0
   58.0316   26.8327   45.3208 H   0  0  0  0  0  0  0  0  0  0  0  0
   57.6480   29.4880   44.8590 C   0  0  0  0  0  0  0  0  0  0  0  0
   58.7459   29.4413   44.9074 H   0  0  0  0  0  0  0  0  0  0  0  0
   58.8390   34.9280   46.8280 N   0  0  0  0  0  0  0  0  0  0  0  0
   59.7530   34.9260   47.7820 N   0  0  0  0  0  0  0  0  0  0  0  0
   59.7110   35.5130   48.6430 H   0  0  0  0  0  0  0  0  0  0  0  0
  1  2  1  0
  2  3  2  0
  3  4  1  0
  3  5  1  0
  5  6  1  0
  6  7  1  0
  6  8  1  0
  6  9  1  0
  5 10  2  0
 10 11  1  0
 10 12  1  0
 12 13  1  0
 12 14  2  0
 14 15  1  0
 15 16  2  0
 16 17  1  0
 17 18  1  0
 18 19  1  0
 18 20  1  0
 18 21  1  0
 21 22  2  0
 21 23  1  0
 23 24  2  0
 24 25  1  0
 25 26  1  0
 26 27  1  0
 27 28  1  0
 28 29  1  0
 28 30  1  0
 28 31  1  0
 27 32  2  0
 32 33  1  0
 17 34  1  0
 34 35  2  0
 35 36  1  0
 14  2  1  0
 35 15  1  0
 32 24  1  0
M  CHG  2  25  -1  35   1
M  END
>  <UniqueID>  (29) 
28

>  <SMILES>  (29) 
Cc1c/c(=N/C(=O)Cn2n[nH+]c(-c3ccc(C(F)(F)F)cc3)n2)[n-]o1

>  <Energy>  (29) 
108.72166478606604

>  <Genealogy>  (29) 
Cc1cc(=NC(=O)Cn2n[nH+]c(-c3ccc(C(F)(F)F)cc3)n2)[n-]o1 (protonated)
Cc1c/c(=N/C(=O)Cn2n[nH+]c(-c3ccc(C(F)(F)F)cc3)n2)[n-]o1 (cis-trans isomerization)
Cc1c/c(=N/C(=O)Cn2n[nH+]c(-c3ccc(C(F)(F)F)cc3)n2)[n-]o1 (3D coordinates assigned)
Cc1c/c(=N/C(=O)Cn2n[nH+]c(-c3ccc(C(F)(F)F)cc3)n2)[n-]o1 (optimized conformer: 108.72166478606604 kcal/mol)

>  <smiles>  (29) 
Cc1cc(=NC(=O)Cn2nnc(-c3ccc(C(F)(F)F)cc3)n2)[nH]o1

>  <score_type>  (29) 
oracle

>  <origin>  (29) 
adg

>  <m_score__min__energy>  (29) 
-9.0800000000000001

>  <m_primary>  (29) 
energy

$$$$
29:0
     RDKit          3D

 63 68  0  0  0  0  0  0  0  0999 V2000
   63.3230   29.9280   51.3650 C   0  0  0  0  0  0  0  0  0  0  0  0
   64.5040   30.5410   50.8600 O   0  0  0  0  0  0  0  0  0  0  0  0
   65.0290   31.7600   51.3180 C   0  0  0  0  0  0  0  0  0  0  0  0
   66.0340   31.8190   52.3040 C   0  0  0  0  0  0  0  0  0  0  0  0
   66.5180   33.0530   52.7470 C   0  0  0  0  0  0  0  0  0  0  0  0
   66.0020   34.2390   52.2180 C   0  0  0  0  0  0  0  0  0  0  0  0
   66.4720   35.4340   52.6480 F   0  0  0  0  0  0  0  0  0  0  0  0
   65.0060   34.1920   51.2390 C   0  0  0  0  0  0  0  0  0  0  0  0
   64.5240   32.9580   50.7810 C   0  0  0  0  0  0  0  0  0  0  0  0
   63.5120   32.9250   49.7670 N   0  0  0  0  0  0  0  0  0  0  0  0
   63.9250   32.7920   48.3640 C   0  0  0  0  0  0  0  0  0  0  0  0
   62.8650   33.3660   47.4270 C   0  0  0  0  0  0  0  0  0  0  0  0
   61.5400   32.7440   47.7310 C   0  0  0  0  0  0  0  0  0  0  0  0
   60.7020   32.4060   46.7160 N   0  0  0  0  0  0  0  0  0  0  0  0
   59.4960   31.8300   46.9610 C   0  0  0  0  0  0  0  0  0  0  0  0
   58.6130   31.4450   45.8370 C   0  0  0  0  0  0  0  0  0  0  0  0
   58.2230   32.3720   44.8240 C   0  0  0  0  0  0  0  0  0  0  0  0
   58.6710   33.8100   44.8510 C   0  0  0  0  0  0  0  0  0  0  0  0
   57.3990   31.9420   43.7510 C   0  0  0  0  0  0  0  0  0  0  0  0
   56.9390   30.6200   43.6810 C   0  0  0  0  0  0  0  0  0  0  0  0
   57.3170   29.7410   44.6910 C   0  0  0  0  0  0  0  0  0  0  0  0
   57.0050   28.4390   44.7850 N   0  0  0  0  0  0  0  0  0  0  0  0
   57.6300   27.9900   45.8940 C   0  0  0  0  0  0  0  0  0  0  0  0
   58.3410   29.0130   46.5090 C   0  0  0  0  0  0  0  0  0  0  0  0
   58.1240   30.1340   45.7280 C   0  0  0  0  0  0  0  0  0  0  0  0
   59.1090   31.6070   48.2430 N   0  0  0  0  0  0  0  0  0  0  0  0
   59.8990   31.9400   49.2970 C   0  0  0  0  0  0  0  0  0  0  0  0
   59.4320   31.6760   50.6280 N   0  0  0  0  0  0  0  0  0  0  0  0
   58.2790   32.4040   51.1570 C   0  0  0  0  0  0  0  0  0  0  0  0
   57.0880   31.4410   51.2400 C   0  0  0  0  0  0  0  0  0  0  0  0
   57.4250   30.2820   51.9830 O   0  0  0  0  0  0  0  0  0  0  0  0
   58.4560   29.5620   51.3300 C   0  0  0  0  0  0  0  0  0  0  0  0
   59.7380   30.3960   51.2660 C   0  0  0  0  0  0  0  0  0  0  0  0
   61.1640   32.5100   49.0620 C   0  0  0  0  0  0  0  0  0  0  0  0
   62.1040   32.8720   50.1920 C   0  0  0  0  0  0  0  0  0  0  0  0
   63.3454   29.9396   52.4647 H   0  0  0  0  0  0  0  0  0  0  0  0
   62.4417   30.4825   51.0103 H   0  0  0  0  0  0  0  0  0  0  0  0
   63.2692   28.8881   51.0103 H   0  0  0  0  0  0  0  0  0  0  0  0
   66.4399   30.8885   52.7275 H   0  0  0  0  0  0  0  0  0  0  0  0
   67.3063   33.0907   53.5133 H   0  0  0  0  0  0  0  0  0  0  0  0
   64.5987   35.1268   50.8263 H   0  0  0  0  0  0  0  0  0  0  0  0
   64.8701   33.3344   48.2139 H   0  0  0  0  0  0  0  0  0  0  0  0
   64.0545   31.7238   48.1356 H   0  0  0  0  0  0  0  0  0  0  0  0
   62.8002   34.4547   47.5701 H   0  0  0  0  0  0  0  0  0  0  0  0
   63.1411   33.1484   46.3847 H   0  0  0  0  0  0  0  0  0  0  0  0
   58.7745   34.1423   45.8945 H   0  0  0  0  0  0  0  0  0  0  0  0
   59.6403   33.9017   44.3391 H   0  0  0  0  0  0  0  0  0  0  0  0
   57.9253   34.4360   44.3391 H   0  0  0  0  0  0  0  0  0  0  0  0
   57.1176   32.6565   42.9634 H   0  0  0  0  0  0  0  0  0  0  0  0
   56.2977   30.2870   42.8516 H   0  0  0  0  0  0  0  0  0  0  0  0
   56.4160   27.8810   44.1280 H   0  0  0  0  0  0  0  0  0  0  0  0
   57.5828   26.9542   46.2612 H   0  0  0  0  0  0  0  0  0  0  0  0
   58.9482   28.9458   47.4237 H   0  0  0  0  0  0  0  0  0  0  0  0
   58.5133   32.7909   52.1597 H   0  0  0  0  0  0  0  0  0  0  0  0
   58.0334   33.2493   50.4973 H   0  0  0  0  0  0  0  0  0  0  0  0
   56.2460   31.9511   51.7308 H   0  0  0  0  0  0  0  0  0  0  0  0
   56.8110   31.1361   50.2200 H   0  0  0  0  0  0  0  0  0  0  0  0
   58.6560   28.6335   51.8850 H   0  0  0  0  0  0  0  0  0  0  0  0
   58.1321   29.3301   50.3047 H   0  0  0  0  0  0  0  0  0  0  0  0
   60.1174   30.5707   52.2836 H   0  0  0  0  0  0  0  0  0  0  0  0
   60.5049   29.8615   50.6861 H   0  0  0  0  0  0  0  0  0  0  0  0
   61.8179   33.8589   50.5848 H   0  0  0  0  0  0  0  0  0  0  0  0
   62.0184   32.0876   50.9585 H   0  0  0  0  0  0  0  0  0  0  0  0
  1  2  1  0
  2  3  1  0
  3  4  2  0
  4  5  1  0
  5  6  2  0
  6  7  1  0
  6  8  1  0
  8  9  2  0
  9 10  1  0
 10 11  1  0
 11 12  1  0
 12 13  1  0
 13 14  2  0
 14 15  1  0
 15 16  1  0
 16 17  2  0
 17 18  1  0
 17 19  1  0
 19 20  2  0
 20 21  1  0
 21 22  1  0
 22 23  1  0
 23 24  2  0
 24 25  1  0
 15 26  2  0
 26 27  1  0
 27 28  1  0
 28 29  1  0
 29 30  1  0
 30 31  1  0
 31 32  1  0
 32 33  1  0
 27 34  2  0
 34 35  1  0
  9  3  1  0
 35 10  1  0
 34 13  1  0
 25 16  1  0
 33 28  1  0
 25 21  2  0
  1 36  1  0
  1 37  1  0
  1 38  1  0
  4 39  1  0
  5 40  1  0
  8 41  1  0
 11 42  1  0
 11 43  1  0
 12 44  1  0
 12 45  1  0
 18 46  1  0
 18 47  1  0
 18 48  1  0
 19 49  1  0
 20 50  1  0
 22 51  1  0
 23 52  1  0
 24 53  1  0
 29 54  1  0
 29 55  1  0
 30 56  1  0
 30 57  1  0
 32 58  1  0
 32 59  1  0
 33 60  1  0
 33 61  1  0
 35 62  1  0
 35 63  1  0
M  END
>  <UniqueID>  (30) 
29

>  <SMILES>  (30) 
COc1ccc(F)cc1N1CCc2nc(-c3c(C)ccc4[nH]ccc34)nc(N3CCOCC3)c2C1

>  <Energy>  (30) 
121.12062789558867

>  <Genealogy>  (30) 
COc1ccc(F)cc1N1CCc2nc(-c3c(C)ccc4[nH]ccc34)nc(N3CCOCC3)c2C1 (3D coordinates assigned)
COc1ccc(F)cc1N1CCc2nc(-c3c(C)ccc4[nH]ccc34)nc(N3CCOCC3)c2C1 (nonaromatic ring conformer: 121.12062789558867 kcal/mol)

>  <smiles>  (30) 
COc1ccc(F)cc1N1CCc2nc(-c3c(C)ccc4[nH]ccc34)nc(N3CCOCC3)c2C1

>  <score_type>  (30) 
oracle

>  <origin>  (30) 
adg

>  <m_score__min__energy>  (30) 
-8.8100000000000005

>  <m_primary>  (30) 
energy

$$$$
30:0
     RDKit          3D

 37 39  0  0  0  0  0  0  0  0999 V2000
   57.0440   34.2570   44.8850 C   0  0  0  0  0  0  0  0  0  0  0  0
   57.6830   32.9020   45.1130 C   0  0  0  0  0  0  0  0  0  0  0  0
   57.4460   31.9190   44.1440 C   0  0  0  0  0  0  0  0  0  0  0  0
   58.0260   30.6700   44.2570 C   0  0  0  0  0  0  0  0  0  0  0  0
   58.8700   30.3920   45.3250 C   0  0  0  0  0  0  0  0  0  0  0  0
   59.4550   29.1190   45.4290 C   0  0  0  0  0  0  0  0  0  0  0  0
   60.3030   28.8180   46.4890 C   0  0  0  0  0  0  0  0  0  0  0  0
   60.5830   29.7850   47.4500 C   0  0  0  0  0  0  0  0  0  0  0  0
   60.0150   31.0570   47.3590 C   0  0  0  0  0  0  0  0  0  0  0  0
   59.1280   31.3950   46.3000 C   0  0  0  0  0  0  0  0  0  0  0  0
   58.5150   32.6400   46.1930 N   0  0  0  0  0  0  0  0  0  0  0  0
   58.6830   33.6810   47.2420 C   0  0  0  0  0  0  0  0  0  0  0  0
   59.8570   34.6290   46.9310 C   0  0  0  0  0  0  0  0  0  0  0  0
   61.1330   34.2130   47.6110 C   0  0  0  0  0  0  0  0  0  0  0  0
   61.2250   34.2200   49.0130 C   0  0  0  0  0  0  0  0  0  0  0  0
   62.3870   33.7720   49.6460 C   0  0  0  0  0  0  0  0  0  0  0  0
   63.4690   33.3170   48.8860 C   0  0  0  0  0  0  0  0  0  0  0  0
   65.0500   32.6890   49.7520 Br  0  0  0  0  0  0  0  0  0  0  0  0
   63.3890   33.3160   47.4890 C   0  0  0  0  0  0  0  0  0  0  0  0
   62.2270   33.7620   46.8520 C   0  0  0  0  0  0  0  0  0  0  0  0
   56.8228   34.7260   45.8551 H   0  0  0  0  0  0  0  0  0  0  0  0
   57.7350   34.8974   44.3172 H   0  0  0  0  0  0  0  0  0  0  0  0
   56.1103   34.1312   44.3172 H   0  0  0  0  0  0  0  0  0  0  0  0
   56.7936   32.1428   43.2871 H   0  0  0  0  0  0  0  0  0  0  0  0
   57.8198   29.8967   43.5023 H   0  0  0  0  0  0  0  0  0  0  0  0
   59.2408   28.3553   44.6668 H   0  0  0  0  0  0  0  0  0  0  0  0
   60.7520   27.8169   46.5679 H   0  0  0  0  0  0  0  0  0  0  0  0
   61.2560   29.5455   48.2865 H   0  0  0  0  0  0  0  0  0  0  0  0
   60.2581   31.8122   48.1209 H   0  0  0  0  0  0  0  0  0  0  0  0
   57.7573   34.2716   47.3078 H   0  0  0  0  0  0  0  0  0  0  0  0
   58.8991   33.1730   48.1935 H   0  0  0  0  0  0  0  0  0  0  0  0
   60.0240   34.6379   45.8438 H   0  0  0  0  0  0  0  0  0  0  0  0
   59.5884   35.6266   47.3087 H   0  0  0  0  0  0  0  0  0  0  0  0
   60.3778   34.5800   49.6152 H   0  0  0  0  0  0  0  0  0  0  0  0
   62.4509   33.7772   50.7441 H   0  0  0  0  0  0  0  0  0  0  0  0
   64.2421   32.9636   46.8907 H   0  0  0  0  0  0  0  0  0  0  0  0
   62.1687   33.7600   45.7536 H   0  0  0  0  0  0  0  0  0  0  0  0
  1  2  1  0
  2  3  2  0
  3  4  1  0
  4  5  2  0
  5  6  1  0
  6  7  2  0
  7  8  1  0
  8  9  2  0
  9 10  1  0
 10 11  2  0
 11 12  1  0
 12 13  1  0
 13 14  1  0
 14 15  2  0
 15 16  1  0
 16 17  2  0
 17 18  1  0
 17 19  1  0
 19 20  2  0
 11  2  1  0
 20 14  1  0
 10  5  1  0
  1 21  1  0
  1 22  1  0
  1 23  1  0
  3 24  1  0
  4 25  1  0
  6 26  1  0
  7 27  1  0
  8 28  1  0
  9 29  1  0
 12 30  1  0
 12 31  1  0
 13 32  1  0
 13 33  1  0
 15 34  1  0
 16 35  1  0
 19 36  1  0
 20 37  1  0
M  CHG  1  11   1
M  END
>  <UniqueID>  (31) 
30

>  <SMILES>  (31) 
Cc1ccc2ccccc2[n+]1CCc1ccc(Br)cc1

>  <Energy>  (31) 
48.27672205792076

>  <Genealogy>  (31) 
Cc1ccc2ccccc2[n+]1CCc1ccc(Br)cc1 (3D coordinates assigned)
Cc1ccc2ccccc2[n+]1CCc1ccc(Br)cc1 (optimized conformer: 48.27672205792076 kcal/mol)

>  <smiles>  (31) 
Cc1ccc2ccccc2[n+]1CCc1ccc(Br)cc1

>  <score_type>  (31) 
oracle

>  <origin>  (31) 
adg

>  <m_score__min__energy>  (31) 
-6.1200000000000001

>  <m_primary>  (31) 
energy

$$$$
31:0
     RDKit          3D

 39 42  0  0  1  0  0  0  0  0999 V2000
   61.8890   30.8520   46.8620 O   0  0  0  0  0  0  0  0  0  0  0  0
   60.8050   30.5230   47.3240 N   0  0  0  0  0  0  0  0  0  0  0  0
   60.6410   30.5890   48.7030 O   0  0  0  0  0  0  0  0  0  0  0  0
   59.7420   30.0870   46.4900 C   0  0  0  0  0  0  0  0  0  0  0  0
   59.2510   28.8190   46.6190 C   0  0  0  0  0  0  0  0  0  0  0  0
   58.2040   28.3210   45.8300 C   0  0  0  0  0  0  0  0  0  0  0  0
   57.7190   26.9480   46.0170 C   0  0  0  0  0  0  0  0  0  0  0  0
   58.5260   25.8780   46.2380 C   0  0  0  0  0  0  0  0  0  0  0  0
   57.9830   24.6710   46.3950 C   0  0  0  0  0  0  0  0  0  0  0  0
   56.6310   24.5660   46.3240 C   0  0  0  0  0  0  0  0  0  0  0  0
   56.1370   26.2800   46.0210 S   0  0  0  0  0  0  0  0  0  0  0  0
   57.6930   29.1820   44.9110 C   0  0  0  0  0  0  0  0  0  0  0  0
   56.6930   28.8630   44.0820 N   0  0  0  0  0  0  0  0  0  0  0  0
   56.1830   29.7250   43.1640 C   0  0  0  0  0  0  0  0  0  0  0  0
   56.6640   30.9840   43.0280 N   0  0  0  0  0  0  0  0  0  0  0  0
   57.6830   31.3640   43.8470 C   0  0  0  0  0  0  0  0  0  0  0  0
   58.1530   32.5510   43.7360 N   0  0  0  0  0  0  0  0  0  0  0  0
   57.5440   33.5840   44.5550 C   0  0  0  0  0  0  0  0  0  0  0  0
   58.2530   33.8070   45.8280 C   0  0  0  0  0  0  0  0  0  0  0  0
   59.3080   34.6970   45.8350 C   0  0  0  0  0  0  0  0  0  0  0  0
   60.0200   34.9550   46.9990 C   0  0  0  0  0  0  0  0  0  0  0  0
   59.6350   34.2860   48.1560 C   0  0  0  0  0  0  0  0  0  0  0  0
   58.5730   33.4090   48.0800 C   0  0  0  0  0  0  0  0  0  0  0  0
   57.8920   33.1680   46.9490 N   0  0  0  0  0  0  0  0  0  0  0  0
   58.1920   30.4850   44.7730 C   0  0  0  0  0  0  0  0  0  0  0  0
   59.2250   30.9550   45.5610 C   0  0  0  0  0  0  0  0  0  0  0  0
   59.6973   28.1580   47.3766 H   0  0  0  0  0  0  0  0  0  0  0  0
   59.6174   26.0064   46.2869 H   0  0  0  0  0  0  0  0  0  0  0  0
   58.6112   23.7865   46.5766 H   0  0  0  0  0  0  0  0  0  0  0  0
   55.9997   23.6708   46.4246 H   0  0  0  0  0  0  0  0  0  0  0  0
   56.2710   27.9430   44.1110 H   0  0  0  0  0  0  0  0  0  0  0  0
   55.3593   29.3924   42.5153 H   0  0  0  0  0  0  0  0  0  0  0  0
   57.5417   34.5255   43.9862 H   0  0  0  0  0  0  0  0  0  0  0  0
   56.5258   33.2487   44.8016 H   0  0  0  0  0  0  0  0  0  0  0  0
   59.5893   35.2102   44.9036 H   0  0  0  0  0  0  0  0  0  0  0  0
   60.8604   35.6647   47.0058 H   0  0  0  0  0  0  0  0  0  0  0  0
   60.1634   34.4519   49.1064 H   0  0  0  0  0  0  0  0  0  0  0  0
   58.2683   32.8793   48.9946 H   0  0  0  0  0  0  0  0  0  0  0  0
   59.6150   31.9774   45.4490 H   0  0  0  0  0  0  0  0  0  0  0  0
  1  2  2  0
  2  3  1  0
  2  4  1  0
  4  5  2  0
  5  6  1  0
  6  7  1  0
  7  8  2  0
  8  9  1  0
  9 10  2  0
 10 11  1  0
  6 12  2  0
 12 13  1  0
 13 14  1  0
 14 15  2  0
 15 16  1  0
 16 17  2  0
 17 18  1  0
 18 19  1  0
 19 20  2  0
 20 21  1  0
 21 22  2  0
 22 23  1  0
 23 24  2  0
 16 25  1  0
 25 26  2  0
 26  4  1  0
 11  7  1  0
 25 12  1  0
 24 19  1  0
  5 27  1  0
  8 28  1  0
  9 29  1  0
 10 30  1  0
 13 31  1  0
 14 32  1  0
 18 33  1  0
 18 34  1  0
 20 35  1  0
 21 36  1  0
 22 37  1  0
 23 38  1  0
 26 39  1  0
M  CHG  2   2   1   3  -1
M  END
>  <smiles>  (32) 
O=[N+]([O-])c1cc(-c2cccs2)c2[nH]cnc(=NCc3ccccn3)c2c1

>  <score_type>  (32) 
oracle

>  <origin>  (32) 
adg

>  <m_score__min__energy>  (32) 
-8.3300000000000001

>  <m_primary>  (32) 
energy

$$$$
32:0
     RDKit          3D

 39 41  0  0  0  0  0  0  0  0999 V2000
   56.3020   30.0670   42.6190 C   0  0  0  0  0  0  0  0  0  0  0  0
   55.8450   29.8360   44.0430 C   0  0  0  0  0  0  0  0  0  0  0  0
   56.9590   29.4960   44.9130 N   0  0  0  0  0  0  0  0  0  0  0  0
   57.1380   28.1150   45.2570 C   0  0  0  0  0  0  0  0  0  0  0  0
   58.1240   27.4080   44.3500 C   0  0  0  0  0  0  0  0  0  0  0  0
   57.7810   30.5650   45.3490 C   0  0  0  0  0  0  0  0  0  0  0  0
   58.7790   30.2820   46.1840 N   0  0  0  0  0  0  0  0  0  0  0  0
   59.6140   31.1860   46.6790 C   0  0  0  0  0  0  0  0  0  0  0  0
   60.5250   30.7810   47.4950 N   0  0  0  0  0  0  0  0  0  0  0  0
   59.4870   32.5520   46.3330 C   0  0  0  0  0  0  0  0  0  0  0  0
   60.2210   33.5670   46.7490 C   0  0  0  0  0  0  0  0  0  0  0  0
   61.3960   33.4990   47.6560 C   0  0  0  0  0  0  0  0  0  0  0  0
   62.5900   33.1780   47.0270 C   0  0  0  0  0  0  0  0  0  0  0  0
   63.7680   33.0450   47.7420 C   0  0  0  0  0  0  0  0  0  0  0  0
   63.6940   33.2470   49.1240 C   0  0  0  0  0  0  0  0  0  0  0  0
   65.3310   33.0580   50.0950 Br  0  0  0  0  0  0  0  0  0  0  0  0
   62.5010   33.5650   49.7240 C   0  0  0  0  0  0  0  0  0  0  0  0
   61.3080   33.7010   49.0090 C   0  0  0  0  0  0  0  0  0  0  0  0
   59.8910   34.8730   46.2760 C   0  0  0  0  0  0  0  0  0  0  0  0
   58.4380   34.5920   45.1760 S   0  0  0  0  0  0  0  0  0  0  0  0
   58.4160   32.7530   45.4560 C   0  0  0  0  0  0  0  0  0  0  0  0
   57.5970   31.8270   44.9800 N   0  0  0  0  0  0  0  0  0  0  0  0
   57.2837   30.5632   42.6249 H   0  0  0  0  0  0  0  0  0  0  0  0
   56.3824   29.1013   42.0985 H   0  0  0  0  0  0  0  0  0  0  0  0
   55.5721   30.7044   42.0985 H   0  0  0  0  0  0  0  0  0  0  0  0
   55.3661   30.7527   44.4176 H   0  0  0  0  0  0  0  0  0  0  0  0
   55.1368   28.9943   44.0453 H   0  0  0  0  0  0  0  0  0  0  0  0
   57.5068   28.0553   46.2916 H   0  0  0  0  0  0  0  0  0  0  0  0
   56.1646   27.6158   45.1417 H   0  0  0  0  0  0  0  0  0  0  0  0
   58.8673   26.8750   44.9611 H   0  0  0  0  0  0  0  0  0  0  0  0
   57.5870   26.6879   43.7151 H   0  0  0  0  0  0  0  0  0  0  0  0
   58.6337   28.1477   43.7151 H   0  0  0  0  0  0  0  0  0  0  0  0
   61.4770   30.5460   47.1070 H   0  0  0  0  0  0  0  0  0  0  0  0
   62.6010   33.0260   45.9376 H   0  0  0  0  0  0  0  0  0  0  0  0
   64.7172   32.7924   47.2467 H   0  0  0  0  0  0  0  0  0  0  0  0
   62.4833   33.7192   50.8130 H   0  0  0  0  0  0  0  0  0  0  0  0
   60.3575   33.9544   49.5013 H   0  0  0  0  0  0  0  0  0  0  0  0
   60.3879   35.8254   46.5127 H   0  0  0  0  0  0  0  0  0  0  0  0
   56.8450   32.1060   44.3320 H   0  0  0  0  0  0  0  0  0  0  0  0
  1  2  1  0
  2  3  1  0
  3  4  1  0
  4  5  1  0
  3  6  1  0
  6  7  2  0
  7  8  1  0
  8  9  2  3
  8 10  1  0
 10 11  1  0
 11 12  1  0
 12 13  2  0
 13 14  1  0
 14 15  2  0
 15 16  1  0
 15 17  1  0
 17 18  2  0
 11 19  2  0
 19 20  1  0
 20 21  1  0
 21 22  1  0
 22  6  1  0
 21 10  2  0
 18 12  1  0
  1 23  1  0
  1 24  1  0
  1 25  1  0
  2 26  1  0
  2 27  1  0
  4 28  1  0
  4 29  1  0
  5 30  1  0
  5 31  1  0
  5 32  1  0
  9 33  1  0
 13 34  1  0
 14 35  1  0
 17 36  1  0
 18 37  1  0
 19 38  1  0
 22 39  1  0
M  END
>  <smiles>  (33) 
CCN(CC)c1nc(=N)c2c(-c3ccc(Br)cc3)csc2[nH]1

>  <score_type>  (33) 
oracle

>  <origin>  (33) 
adg

>  <m_score__min__energy>  (33) 
-7.1399999999999997

>  <m_primary>  (33) 
energy

$$$$
33:0
     RDKit          3D

 39 40  0  0  0  0  0  0  0  0999 V2000
   58.5670   28.4160   46.3240 C   0  0  0  0  0  0  0  0  0  0  0  0
   59.3350   27.7890   45.2370 N   0  0  0  0  0  0  0  0  0  0  0  0
   60.4920   28.6330   44.8950 C   0  0  0  0  0  0  0  0  0  0  0  0
   58.4790   27.5610   44.0500 C   0  0  0  0  0  0  0  0  0  0  0  0
   57.4000   28.6420   43.9570 C   0  0  0  0  0  0  0  0  0  0  0  0
   57.9970   29.9640   43.7590 N   0  0  0  0  0  0  0  0  0  0  0  0
   57.3620   31.1560   44.2370 C   0  0  0  0  0  0  0  0  0  0  0  0
   56.2740   31.0860   44.8700 O   0  0  0  0  0  0  0  0  0  0  0  0
   58.0100   32.4910   44.0230 C   0  0  0  0  0  0  0  0  0  0  0  0
   57.4000   33.5640   44.9290 C   0  0  0  0  0  0  0  0  0  0  0  0
   58.3960   34.0980   45.8610 N   0  0  0  0  0  0  0  0  0  0  0  0
   59.2680   35.1160   45.6530 C   0  0  0  0  0  0  0  0  0  0  0  0
   59.3070   35.7940   44.5920 O   0  0  0  0  0  0  0  0  0  0  0  0
   60.0770   35.3240   46.6770 O   0  0  0  0  0  0  0  0  0  0  0  0
   59.7450   34.4290   47.5760 C   0  0  0  0  0  0  0  0  0  0  0  0
   60.2970   34.2200   48.8370 C   0  0  0  0  0  0  0  0  0  0  0  0
   59.7630   33.1750   49.6150 C   0  0  0  0  0  0  0  0  0  0  0  0
   58.7160   32.3680   49.1140 C   0  0  0  0  0  0  0  0  0  0  0  0
   58.1820   32.6060   47.8340 C   0  0  0  0  0  0  0  0  0  0  0  0
   58.7210   33.6610   47.0940 C   0  0  0  0  0  0  0  0  0  0  0  0
   58.9692   28.0877   47.2938 H   0  0  0  0  0  0  0  0  0  0  0  0
   58.6468   29.5103   46.2455 H   0  0  0  0  0  0  0  0  0  0  0  0
   57.5108   28.1188   46.2455 H   0  0  0  0  0  0  0  0  0  0  0  0
   60.9747   28.9851   45.8186 H   0  0  0  0  0  0  0  0  0  0  0  0
   61.2121   28.0466   44.3055 H   0  0  0  0  0  0  0  0  0  0  0  0
   60.1535   29.4978   44.3055 H   0  0  0  0  0  0  0  0  0  0  0  0
   59.1010   27.5903   43.1432 H   0  0  0  0  0  0  0  0  0  0  0  0
   57.9935   26.5783   44.1427 H   0  0  0  0  0  0  0  0  0  0  0  0
   56.7368   28.4162   43.1089 H   0  0  0  0  0  0  0  0  0  0  0  0
   56.8318   28.6517   44.8988 H   0  0  0  0  0  0  0  0  0  0  0  0
   58.9020   30.0540   43.2440 H   0  0  0  0  0  0  0  0  0  0  0  0
   59.0843   32.4060   44.2434 H   0  0  0  0  0  0  0  0  0  0  0  0
   57.8466   32.7896   42.9770 H   0  0  0  0  0  0  0  0  0  0  0  0
   57.0159   34.3845   44.3052 H   0  0  0  0  0  0  0  0  0  0  0  0
   56.5867   33.1070   45.5119 H   0  0  0  0  0  0  0  0  0  0  0  0
   61.1192   34.8476   49.2113 H   0  0  0  0  0  0  0  0  0  0  0  0
   60.1640   32.9849   50.6215 H   0  0  0  0  0  0  0  0  0  0  0  0
   58.3160   31.5484   49.7290 H   0  0  0  0  0  0  0  0  0  0  0  0
   57.3695   31.9837   47.4308 H   0  0  0  0  0  0  0  0  0  0  0  0
  1  2  1  0
  2  3  1  0
  2  4  1  0
  4  5  1  0
  5  6  1  0
  6  7  1  0
  7  8  2  0
  7  9  1  0
  9 10  1  0
 10 11  1  0
 11 12  1  0
 12 13  2  0
 12 14  1  0
 14 15  1  0
 15 16  2  0
 16 17  1  0
 17 18  2  0
 18 19  1  0
 19 20  2  0
 20 11  1  0
 20 15  1  0
  1 21  1  0
  1 22  1  0
  1 23  1  0
  3 24  1  0
  3 25  1  0
  3 26  1  0
  4 27  1  0
  4 28  1  0
  5 29  1  0
  5 30  1  0
  6 31  1  0
  9 32  1  0
  9 33  1  0
 10 34  1  0
 10 35  1  0
 16 36  1  0
 17 37  1  0
 18 38  1  0
 19 39  1  0
M  END
>  <UniqueID>  (34) 
31

>  <SMILES>  (34) 
CN(C)CCNC(=O)CCn1c(=O)oc2ccccc21

>  <Energy>  (34) 
68.36325145243129

>  <Genealogy>  (34) 
CN(C)CCNC(=O)CCn1c(=O)oc2ccccc21 (3D coordinates assigned)
CN(C)CCNC(=O)CCn1c(=O)oc2ccccc21 (optimized conformer: 68.36325145243129 kcal/mol)

>  <smiles>  (34) 
CN(C)CCNC(=O)CCn1c(=O)oc2ccccc21

>  <score_type>  (34) 
oracle

>  <origin>  (34) 
adg

>  <m_score__min__energy>  (34) 
-6.3099999999999996

>  <m_primary>  (34) 
energy

$$$$
34:0
     RDKit          3D

 22 22  0  0  0  0  0  0  0  0999 V2000
   61.7433   33.7944   48.3712 H   0  0  0  0  0  0  0  0  0  0  0  0
   60.8370   33.8140   47.7480 C   0  0  0  0  0  0  0  0  0  0  0  0
   60.9180   34.2080   46.4090 C   0  0  0  0  0  0  0  0  0  0  0  0
   61.8888   34.4928   45.9773 H   0  0  0  0  0  0  0  0  0  0  0  0
   59.7640   34.2400   45.6180 C   0  0  0  0  0  0  0  0  0  0  0  0
   59.8305   34.5414   44.5622 H   0  0  0  0  0  0  0  0  0  0  0  0
   58.5240   33.8890   46.1680 C   0  0  0  0  0  0  0  0  0  0  0  0
   57.0430   33.9200   45.1540 S   0  0  0  0  0  0  0  0  0  0  0  0
   57.3910   32.3250   44.3730 C   0  0  0  0  0  0  0  0  0  0  0  0
   56.9940   31.2060   44.8820 N   0  0  0  0  0  0  0  0  0  0  0  0
   56.9630   29.9510   44.1680 C   0  0  0  0  0  0  0  0  0  0  0  0
   56.9425   29.1198   44.8882 H   0  0  0  0  0  0  0  0  0  0  0  0
   56.0636   29.9108   43.5360 H   0  0  0  0  0  0  0  0  0  0  0  0
   57.8593   29.8665   43.5360 H   0  0  0  0  0  0  0  0  0  0  0  0
   58.1110   32.3000   43.0600 C   0  0  0  0  0  0  0  0  0  0  0  0
   59.1959   32.2623   43.2374 H   0  0  0  0  0  0  0  0  0  0  0  0
   57.8018   31.4121   42.4891 H   0  0  0  0  0  0  0  0  0  0  0  0
   57.8641   33.2073   42.4891 H   0  0  0  0  0  0  0  0  0  0  0  0
   58.4510   33.4760   47.5060 C   0  0  0  0  0  0  0  0  0  0  0  0
   57.4840   33.1758   47.9358 H   0  0  0  0  0  0  0  0  0  0  0  0
   59.6050   33.4450   48.2950 C   0  0  0  0  0  0  0  0  0  0  0  0
   59.5431   33.1299   49.3471 H   0  0  0  0  0  0  0  0  0  0  0  0
  1  2  1  0
  2  3  2  0
  3  4  1  0
  3  5  1  0
  5  6  1  0
  5  7  2  0
  7  8  1  0
  8  9  1  0
  9 10  2  0
 10 11  1  0
 11 12  1  0
 11 13  1  0
 11 14  1  0
  9 15  1  0
 15 16  1  0
 15 17  1  0
 15 18  1  0
  7 19  1  0
 19 20  1  0
 19 21  2  0
 21 22  1  0
 21  2  1  0
M  END
>  <UniqueID>  (35) 
32

>  <SMILES>  (35) 
C/N=C(/C)Sc1ccccc1

>  <Energy>  (35) 
12.912568494733588

>  <Genealogy>  (35) 
C/N=C(/C)Sc1ccccc1 (cis-trans isomerization)
C/N=C(/C)Sc1ccccc1 (3D coordinates assigned)
C/N=C(/C)Sc1ccccc1 (optimized conformer: 12.912568494733588 kcal/mol)

>  <smiles>  (35) 
CN=C(C)Sc1ccccc1

>  <score_type>  (35) 
oracle

>  <origin>  (35) 
adg

>  <m_score__min__energy>  (35) 
-5.29

>  <m_primary>  (35) 
energy

$$$$
35:0
     RDKit          3D

 38 41  0  0  0  0  0  0  0  0999 V2000
   52.6430   25.9100   45.2440 H   0  0  0  0  0  0  0  0  0  0  0  0
   53.2290   25.0690   45.4430 N   0  0  0  0  0  0  0  0  0  0  0  0
   54.5050   25.1700   45.6290 C   0  0  0  0  0  0  0  0  0  0  0  0
   55.3440   24.1270   45.4760 N   0  0  0  0  0  0  0  0  0  0  0  0
   56.5500   24.6500   45.7580 C   0  0  0  0  0  0  0  0  0  0  0  0
   57.5027   24.1003   45.7422 H   0  0  0  0  0  0  0  0  0  0  0  0
   56.4030   25.9840   46.0700 C   0  0  0  0  0  0  0  0  0  0  0  0
   57.4860   26.9140   46.4380 C   0  0  0  0  0  0  0  0  0  0  0  0
   57.4030   28.2220   46.0690 N   0  0  0  0  0  0  0  0  0  0  0  0
   58.3700   29.1290   46.3780 C   0  0  0  0  0  0  0  0  0  0  0  0
   58.2350   30.4650   45.9750 C   0  0  0  0  0  0  0  0  0  0  0  0
   57.0910   30.8360   45.2490 O   0  0  0  0  0  0  0  0  0  0  0  0
   56.8560   30.5000   43.8850 C   0  0  0  0  0  0  0  0  0  0  0  0
   56.2263   29.5996   43.8324 H   0  0  0  0  0  0  0  0  0  0  0  0
   56.3441   31.3352   43.3846 H   0  0  0  0  0  0  0  0  0  0  0  0
   57.8161   30.3057   43.3846 H   0  0  0  0  0  0  0  0  0  0  0  0
   59.2450   31.3890   46.3050 C   0  0  0  0  0  0  0  0  0  0  0  0
   59.1443   32.4383   45.9905 H   0  0  0  0  0  0  0  0  0  0  0  0
   60.3820   30.9880   47.0320 C   0  0  0  0  0  0  0  0  0  0  0  0
   61.4400   31.9720   47.3770 C   0  0  0  0  0  0  0  0  0  0  0  0
   61.1110   33.2170   47.9380 C   0  0  0  0  0  0  0  0  0  0  0  0
   60.0580   33.4723   48.1277 H   0  0  0  0  0  0  0  0  0  0  0  0
   62.1160   34.1300   48.2550 C   0  0  0  0  0  0  0  0  0  0  0  0
   61.8604   35.1057   48.6939 H   0  0  0  0  0  0  0  0  0  0  0  0
   63.4480   33.7960   48.0110 C   0  0  0  0  0  0  0  0  0  0  0  0
   64.2475   34.5098   48.2586 H   0  0  0  0  0  0  0  0  0  0  0  0
   63.7600   32.5880   47.4670 N   0  0  0  0  0  0  0  0  0  0  0  0
   64.7610   32.3550   47.2870 H   0  0  0  0  0  0  0  0  0  0  0  0
   62.7970   31.6800   47.1490 C   0  0  0  0  0  0  0  0  0  0  0  0
   63.0817   30.7120   46.7110 H   0  0  0  0  0  0  0  0  0  0  0  0
   60.5040   29.6450   47.4290 C   0  0  0  0  0  0  0  0  0  0  0  0
   61.3887   29.3210   47.9968 H   0  0  0  0  0  0  0  0  0  0  0  0
   59.5060   28.7170   47.1060 C   0  0  0  0  0  0  0  0  0  0  0  0
   59.6110   27.3770   47.4970 C   0  0  0  0  0  0  0  0  0  0  0  0
   60.4887   27.0374   48.0664 H   0  0  0  0  0  0  0  0  0  0  0  0
   58.6010   26.4710   47.1640 C   0  0  0  0  0  0  0  0  0  0  0  0
   58.6799   25.4172   47.4693 H   0  0  0  0  0  0  0  0  0  0  0  0
   55.1030   26.3240   45.9910 N   0  0  0  0  0  0  0  0  0  0  0  0
  1  2  1  0
  2  3  2  0
  3  4  1  0
  4  5  1  0
  5  6  1  0
  5  7  2  0
  7  8  1  0
  8  9  2  0
  9 10  1  0
 10 11  2  0
 11 12  1  0
 12 13  1  0
 13 14  1  0
 13 15  1  0
 13 16  1  0
 11 17  1  0
 17 18  1  0
 17 19  2  0
 19 20  1  0
 20 21  2  0
 21 22  1  0
 21 23  1  0
 23 24  1  0
 23 25  2  0
 25 26  1  0
 25 27  1  0
 27 28  1  0
 27 29  2  0
 29 30  1  0
 19 31  1  0
 31 32  1  0
 31 33  2  0
 33 34  1  0
 34 35  1  0
 34 36  2  0
 36 37  1  0
  7 38  1  0
 38  3  1  0
 36  8  1  0
 33 10  1  0
 29 20  1  0
M  CHG  3   4  -1  27   1  38  -1
M  END
>  <UniqueID>  (36) 
33

>  <SMILES>  (36) 
[H]/N=c1/[n-]cc(-c2ccc3cc(-c4ccc[nH+]c4)cc(OC)c3n2)[n-]1

>  <Energy>  (36) 
78.22469090936623

>  <Genealogy>  (36) 
COc1cc(-c2ccc[nH+]c2)cc2ccc(-c3c[n-]c(=N)[n-]3)nc12 (protonated)
[H]/N=c1/[n-]cc(-c2ccc3cc(-c4ccc[nH+]c4)cc(OC)c3n2)[n-]1 (cis-trans isomerization)
[H]/N=c1/[n-]cc(-c2ccc3cc(-c4ccc[nH+]c4)cc(OC)c3n2)[n-]1 (3D coordinates assigned)
[H]/N=c1/[n-]cc(-c2ccc3cc(-c4ccc[nH+]c4)cc(OC)c3n2)[n-]1 (optimized conformer: 78.22469090936623 kcal/mol)

>  <smiles>  (36) 
COc1cc(-c2cccnc2)cc2ccc(-c3c[nH]c(=N)[nH]3)nc12

>  <score_type>  (36) 
oracle

>  <origin>  (36) 
adg

>  <m_score__min__energy>  (36) 
-10.869999999999999

>  <m_primary>  (36) 
energy

$$$$
36:0
     RDKit          3D

 52 55  0  0  0  0  0  0  0  0999 V2000
   59.4030   33.9030   53.5000 C   0  0  0  0  0  0  0  0  0  0  0  0
   60.1070   33.2870   52.4280 O   0  0  0  0  0  0  0  0  0  0  0  0
   59.6550   33.2500   51.1000 C   0  0  0  0  0  0  0  0  0  0  0  0
   58.7540   32.2460   50.7320 C   0  0  0  0  0  0  0  0  0  0  0  0
   58.2840   32.1600   49.4180 C   0  0  0  0  0  0  0  0  0  0  0  0
   58.7190   33.0750   48.4500 C   0  0  0  0  0  0  0  0  0  0  0  0
   58.2470   32.9460   47.0570 C   0  0  0  0  0  0  0  0  0  0  0  0
   57.1310   33.5540   46.6060 N   0  0  0  0  0  0  0  0  0  0  0  0
   56.9840   33.1720   45.3480 N   0  0  0  0  0  0  0  0  0  0  0  0
   57.9860   32.3320   45.0450 C   0  0  0  0  0  0  0  0  0  0  0  0
   58.1960   31.5880   43.4210 S   0  0  0  0  0  0  0  0  0  0  0  0
   56.5510   30.7850   43.3690 C   0  0  0  0  0  0  0  0  0  0  0  0
   56.4520   29.7210   44.4290 C   0  0  0  0  0  0  0  0  0  0  0  0
   55.3130   29.4020   44.8680 O   0  0  0  0  0  0  0  0  0  0  0  0
   57.6520   29.0620   44.9980 C   0  0  0  0  0  0  0  0  0  0  0  0
   57.7700   28.9110   46.3920 C   0  0  0  0  0  0  0  0  0  0  0  0
   58.8860   28.2740   46.9450 C   0  0  0  0  0  0  0  0  0  0  0  0
   59.9010   27.7940   46.1140 C   0  0  0  0  0  0  0  0  0  0  0  0
   59.8010   27.9510   44.7290 C   0  0  0  0  0  0  0  0  0  0  0  0
   58.6860   28.5840   44.1710 C   0  0  0  0  0  0  0  0  0  0  0  0
   58.8040   32.1550   46.1040 N   0  0  0  0  0  0  0  0  0  0  0  0
   59.9510   31.2410   46.2110 C   0  0  0  0  0  0  0  0  0  0  0  0
   61.1570   31.9240   46.8130 C   0  0  0  0  0  0  0  0  0  0  0  0
   61.5270   33.2060   46.3740 C   0  0  0  0  0  0  0  0  0  0  0  0
   62.6470   33.8430   46.9170 C   0  0  0  0  0  0  0  0  0  0  0  0
   63.4120   33.2010   47.8940 C   0  0  0  0  0  0  0  0  0  0  0  0
   63.0620   31.9200   48.3260 C   0  0  0  0  0  0  0  0  0  0  0  0
   61.9460   31.2790   47.7830 C   0  0  0  0  0  0  0  0  0  0  0  0
   59.6020   34.1010   48.8210 C   0  0  0  0  0  0  0  0  0  0  0  0
   60.0740   34.1850   50.1350 C   0  0  0  0  0  0  0  0  0  0  0  0
   59.8096   33.5472   54.4581 H   0  0  0  0  0  0  0  0  0  0  0  0
   59.5190   34.9950   53.4353 H   0  0  0  0  0  0  0  0  0  0  0  0
   58.3361   33.6431   53.4353 H   0  0  0  0  0  0  0  0  0  0  0  0
   58.4122   31.5179   51.4824 H   0  0  0  0  0  0  0  0  0  0  0  0
   57.5694   31.3703   49.1428 H   0  0  0  0  0  0  0  0  0  0  0  0
   56.2110   33.4810   44.7170 H   0  0  0  0  0  0  0  0  0  0  0  0
   55.7724   31.5425   43.5422 H   0  0  0  0  0  0  0  0  0  0  0  0
   56.4127   30.3191   42.3822 H   0  0  0  0  0  0  0  0  0  0  0  0
   56.9789   29.2967   47.0518 H   0  0  0  0  0  0  0  0  0  0  0  0
   58.9643   28.1510   48.0353 H   0  0  0  0  0  0  0  0  0  0  0  0
   60.7781   27.2929   46.5494 H   0  0  0  0  0  0  0  0  0  0  0  0
   60.6022   27.5753   44.0755 H   0  0  0  0  0  0  0  0  0  0  0  0
   58.6165   28.7091   43.0803 H   0  0  0  0  0  0  0  0  0  0  0  0
   59.6695   30.3890   46.8473 H   0  0  0  0  0  0  0  0  0  0  0  0
   60.2175   30.9059   45.1977 H   0  0  0  0  0  0  0  0  0  0  0  0
   60.9324   33.7115   45.5988 H   0  0  0  0  0  0  0  0  0  0  0  0
   62.9260   34.8504   46.5747 H   0  0  0  0  0  0  0  0  0  0  0  0
   64.2906   33.7049   48.3232 H   0  0  0  0  0  0  0  0  0  0  0  0
   63.6657   31.4153   49.0946 H   0  0  0  0  0  0  0  0  0  0  0  0
   61.6825   30.2642   48.1157 H   0  0  0  0  0  0  0  0  0  0  0  0
   59.9243   34.8424   48.0750 H   0  0  0  0  0  0  0  0  0  0  0  0
   60.7753   34.9848   50.4152 H   0  0  0  0  0  0  0  0  0  0  0  0
  1  2  1  0
  2  3  1  0
  3  4  2  0
  4  5  1  0
  5  6  2  0
  6  7  1  0
  7  8  2  0
  8  9  1  0
  9 10  2  0
 10 11  1  0
 11 12  1  0
 12 13  1  0
 13 14  2  0
 13 15  1  0
 15 16  2  0
 16 17  1  0
 17 18  2  0
 18 19  1  0
 19 20  2  0
 10 21  1  0
 21 22  1  0
 22 23  1  0
 23 24  2  0
 24 25  1  0
 25 26  2  0
 26 27  1  0
 27 28  2  0
  6 29  1  0
 29 30  2  0
 30  3  1  0
 21  7  1  0
 28 23  1  0
 20 15  1  0
  1 31  1  0
  1 32  1  0
  1 33  1  0
  4 34  1  0
  5 35  1  0
  9 36  1  0
 12 37  1  0
 12 38  1  0
 16 39  1  0
 17 40  1  0
 18 41  1  0
 19 42  1  0
 20 43  1  0
 22 44  1  0
 22 45  1  0
 24 46  1  0
 25 47  1  0
 26 48  1  0
 27 49  1  0
 28 50  1  0
 29 51  1  0
 30 52  1  0
M  CHG  1   9   1
M  END
>  <UniqueID>  (37) 
34

>  <SMILES>  (37) 
COc1ccc(-c2n[nH+]c(SCC(=O)c3ccccc3)n2Cc2ccccc2)cc1

>  <Energy>  (37) 
90.14806783239194

>  <Genealogy>  (37) 
COc1ccc(-c2n[nH+]c(SCC(=O)c3ccccc3)n2Cc2ccccc2)cc1 (protonated)
COc1ccc(-c2n[nH+]c(SCC(=O)c3ccccc3)n2Cc2ccccc2)cc1 (3D coordinates assigned)
COc1ccc(-c2n[nH+]c(SCC(=O)c3ccccc3)n2Cc2ccccc2)cc1 (optimized conformer: 90.14806783239194 kcal/mol)

>  <smiles>  (37) 
COc1ccc(-c2nnc(SCC(=O)c3ccccc3)n2Cc2ccccc2)cc1

>  <score_type>  (37) 
oracle

>  <origin>  (37) 
adg

>  <m_score__min__energy>  (37) 
-7.7800000000000002

>  <m_primary>  (37) 
energy

$$$$
37:0
     RDKit          3D

 48 50  0  0  0  0  0  0  0  0999 V2000
   55.9315   30.4254   42.5050 H   0  0  0  0  0  0  0  0  0  0  0  0
   56.3940   30.1670   43.4690 C   0  0  0  0  0  0  0  0  0  0  0  0
   56.0680   29.0020   44.0860 N   0  0  0  0  0  0  0  0  0  0  0  0
   56.6130   28.6350   45.2760 C   0  0  0  0  0  0  0  0  0  0  0  0
   56.2500   27.4980   45.7980 N   0  0  0  0  0  0  0  0  0  0  0  0
   57.1340   26.3980   46.1840 C   0  0  0  0  0  0  0  0  0  0  0  0
   57.6698   26.6706   47.1052 H   0  0  0  0  0  0  0  0  0  0  0  0
   56.5269   25.4960   46.3507 H   0  0  0  0  0  0  0  0  0  0  0  0
   58.1580   26.1100   45.0680 C   0  0  0  0  0  0  0  0  0  0  0  0
   59.0035   26.8020   45.1957 H   0  0  0  0  0  0  0  0  0  0  0  0
   58.4351   25.0509   45.1754 H   0  0  0  0  0  0  0  0  0  0  0  0
   57.6460   26.2620   43.6820 N   0  0  0  0  0  0  0  0  0  0  0  0
   56.7430   26.7880   43.7580 H   0  0  0  0  0  0  0  0  0  0  0  0
   58.5340   27.0660   42.8240 C   0  0  0  0  0  0  0  0  0  0  0  0
   59.2026   27.6714   43.4536 H   0  0  0  0  0  0  0  0  0  0  0  0
   59.1340   26.3976   42.1889 H   0  0  0  0  0  0  0  0  0  0  0  0
   57.9283   27.7292   42.1889 H   0  0  0  0  0  0  0  0  0  0  0  0
   57.3300   24.9700   43.0470 C   0  0  0  0  0  0  0  0  0  0  0  0
   57.1452   24.2146   43.8249 H   0  0  0  0  0  0  0  0  0  0  0  0
   56.4320   25.0790   42.4211 H   0  0  0  0  0  0  0  0  0  0  0  0
   58.1769   24.6522   42.4211 H   0  0  0  0  0  0  0  0  0  0  0  0
   57.5460   29.4900   45.8980 C   0  0  0  0  0  0  0  0  0  0  0  0
   57.9968   29.2057   46.8603 H   0  0  0  0  0  0  0  0  0  0  0  0
   57.9000   30.7070   45.2870 C   0  0  0  0  0  0  0  0  0  0  0  0
   58.8770   31.6290   45.9200 C   0  0  0  0  0  0  0  0  0  0  0  0
   60.0940   31.1780   46.9960 S   0  0  0  0  0  0  0  0  0  0  0  0
   60.7440   32.7140   47.2390 C   0  0  0  0  0  0  0  0  0  0  0  0
   61.9020   33.0340   48.1160 C   0  0  0  0  0  0  0  0  0  0  0  0
   61.7470   33.8350   49.2620 C   0  0  0  0  0  0  0  0  0  0  0  0
   60.7540   34.2334   49.5175 H   0  0  0  0  0  0  0  0  0  0  0  0
   62.8430   34.1300   50.0800 C   0  0  0  0  0  0  0  0  0  0  0  0
   62.7066   34.7589   50.9721 H   0  0  0  0  0  0  0  0  0  0  0  0
   64.1190   33.6260   49.7670 C   0  0  0  0  0  0  0  0  0  0  0  0
   65.2480   33.8950   50.5550 O   0  0  0  0  0  0  0  0  0  0  0  0
   66.4130   33.0770   50.5940 C   0  0  0  0  0  0  0  0  0  0  0  0
   66.6897   32.8827   51.6407 H   0  0  0  0  0  0  0  0  0  0  0  0
   66.2085   32.1232   50.0857 H   0  0  0  0  0  0  0  0  0  0  0  0
   67.2407   33.5933   50.0857 H   0  0  0  0  0  0  0  0  0  0  0  0
   64.2740   32.8280   48.6310 C   0  0  0  0  0  0  0  0  0  0  0  0
   65.2673   32.4291   48.3775 H   0  0  0  0  0  0  0  0  0  0  0  0
   63.1800   32.5310   47.8130 C   0  0  0  0  0  0  0  0  0  0  0  0
   63.3200   31.8981   46.9242 H   0  0  0  0  0  0  0  0  0  0  0  0
   60.0060   33.6080   46.4630 C   0  0  0  0  0  0  0  0  0  0  0  0
   60.2167   34.6870   46.4274 H   0  0  0  0  0  0  0  0  0  0  0  0
   58.9720   33.0070   45.7330 C   0  0  0  0  0  0  0  0  0  0  0  0
   58.2969   33.5711   45.0727 H   0  0  0  0  0  0  0  0  0  0  0  0
   57.3130   31.0360   44.0540 C   0  0  0  0  0  0  0  0  0  0  0  0
   57.5782   31.9777   43.5512 H   0  0  0  0  0  0  0  0  0  0  0  0
  1  2  1  0
  2  3  1  0
  3  4  1  0
  4  5  2  0
  5  6  1  0
  6  7  1  0
  6  8  1  0
  6  9  1  0
  9 10  1  0
  9 11  1  0
  9 12  1  0
 12 13  1  0
 12 14  1  0
 14 15  1  0
 14 16  1  0
 14 17  1  0
 12 18  1  0
 18 19  1  0
 18 20  1  0
 18 21  1  0
  4 22  1  0
 22 23  1  0
 22 24  2  0
 24 25  1  0
 25 26  1  0
 26 27  1  0
 27 28  1  0
 28 29  2  0
 29 30  1  0
 29 31  1  0
 31 32  1  0
 31 33  2  0
 33 34  1  0
 34 35  1  0
 35 36  1  0
 35 37  1  0
 35 38  1  0
 33 39  1  0
 39 40  1  0
 39 41  2  0
 41 42  1  0
 27 43  2  0
 43 44  1  0
 43 45  1  0
 45 46  1  0
 24 47  1  0
 47 48  1  0
 47  2  2  0
 45 25  2  0
 41 28  1  0
M  CHG  2   3  -1  12   1
M  END
>  <UniqueID>  (38) 
35

>  <SMILES>  (38) 
COc1ccc(-c2ccc(-c3cc[n-]/c(=N/CC[NH+](C)C)c3)s2)cc1

>  <Energy>  (38) 
84.59896356723627

>  <Genealogy>  (38) 
COc1ccc(-c2ccc(-c3cc[n-]c(=NCC[NH+](C)C)c3)s2)cc1 (protonated)
COc1ccc(-c2ccc(-c3cc[n-]/c(=N/CC[NH+](C)C)c3)s2)cc1 (cis-trans isomerization)
COc1ccc(-c2ccc(-c3cc[n-]/c(=N/CC[NH+](C)C)c3)s2)cc1 (3D coordinates assigned)
COc1ccc(-c2ccc(-c3cc[n-]/c(=N/CC[NH+](C)C)c3)s2)cc1 (optimized conformer: 84.59896356723627 kcal/mol)

>  <smiles>  (38) 
COc1ccc(-c2ccc(-c3cc[nH]c(=NCCN(C)C)c3)s2)cc1

>  <score_type>  (38) 
oracle

>  <origin>  (38) 
adg

>  <m_score__min__energy>  (38) 
-7.5099999999999998

>  <m_primary>  (38) 
energy

$$$$
38:0
     RDKit          3D

 48 50  0  0  0  0  0  0  0  0999 V2000
   63.2200   33.8410   46.3900 C   0  0  0  0  0  0  0  0  0  0  0  0
   63.5160   32.5840   47.2040 C   0  0  0  0  0  0  0  0  0  0  0  0
   63.0750   32.7640   48.6060 N   0  0  0  0  0  0  0  0  0  0  0  0
   63.9410   32.0080   49.5410 C   0  0  0  0  0  0  0  0  0  0  0  0
   65.2700   32.7320   49.7360 C   0  0  0  0  0  0  0  0  0  0  0  0
   63.0150   34.1990   48.9690 C   0  0  0  0  0  0  0  0  0  0  0  0
   61.5800   34.5870   49.3420 C   0  0  0  0  0  0  0  0  0  0  0  0
   60.7010   33.4170   49.3140 N   0  0  0  0  0  0  0  0  0  0  0  0
   60.0220   32.9260   48.1360 C   0  0  0  0  0  0  0  0  0  0  0  0
   59.3420   33.7990   47.2640 C   0  0  0  0  0  0  0  0  0  0  0  0
   58.6860   33.3120   46.1320 C   0  0  0  0  0  0  0  0  0  0  0  0
   58.6780   31.9410   45.8390 C   0  0  0  0  0  0  0  0  0  0  0  0
   57.9580   31.4600   44.6330 C   0  0  0  0  0  0  0  0  0  0  0  0
   57.1230   30.3310   44.7090 C   0  0  0  0  0  0  0  0  0  0  0  0
   56.4510   29.8710   43.5720 C   0  0  0  0  0  0  0  0  0  0  0  0
   56.6100   30.5290   42.3500 C   0  0  0  0  0  0  0  0  0  0  0  0
   57.4430   31.6470   42.2620 C   0  0  0  0  0  0  0  0  0  0  0  0
   58.1170   32.1110   43.3970 C   0  0  0  0  0  0  0  0  0  0  0  0
   59.3590   31.0550   46.6970 C   0  0  0  0  0  0  0  0  0  0  0  0
   59.4100   29.7210   46.4270 N   0  0  0  0  0  0  0  0  0  0  0  0
   60.0700   28.8550   47.2390 C   0  0  0  0  0  0  0  0  0  0  0  0
   60.7190   29.3390   48.3750 C   0  0  0  0  0  0  0  0  0  0  0  0
   60.6860   30.6680   48.6480 N   0  0  0  0  0  0  0  0  0  0  0  0
   60.0260   31.5480   47.8430 C   0  0  0  0  0  0  0  0  0  0  0  0
   63.0221   34.6812   47.0718 H   0  0  0  0  0  0  0  0  0  0  0  0
   64.0865   34.0796   45.7558 H   0  0  0  0  0  0  0  0  0  0  0  0
   62.3380   33.6679   45.7558 H   0  0  0  0  0  0  0  0  0  0  0  0
   62.9805   31.7309   46.7618 H   0  0  0  0  0  0  0  0  0  0  0  0
   64.5998   32.3963   47.1911 H   0  0  0  0  0  0  0  0  0  0  0  0
   63.4325   31.9154   50.5120 H   0  0  0  0  0  0  0  0  0  0  0  0
   64.1357   31.0104   49.1205 H   0  0  0  0  0  0  0  0  0  0  0  0
   65.4730   32.8426   50.8114 H   0  0  0  0  0  0  0  0  0  0  0  0
   66.0772   32.1490   49.2686 H   0  0  0  0  0  0  0  0  0  0  0  0
   65.2179   33.7264   49.2686 H   0  0  0  0  0  0  0  0  0  0  0  0
   63.6773   34.3854   49.8273 H   0  0  0  0  0  0  0  0  0  0  0  0
   63.3396   34.8025   48.1085 H   0  0  0  0  0  0  0  0  0  0  0  0
   61.5745   35.0180   50.3540 H   0  0  0  0  0  0  0  0  0  0  0  0
   61.2122   35.3218   48.6107 H   0  0  0  0  0  0  0  0  0  0  0  0
   60.5620   32.9210   50.2230 H   0  0  0  0  0  0  0  0  0  0  0  0
   59.3278   34.8779   47.4778 H   0  0  0  0  0  0  0  0  0  0  0  0
   58.1685   34.0133   45.4610 H   0  0  0  0  0  0  0  0  0  0  0  0
   56.9977   29.8068   45.6679 H   0  0  0  0  0  0  0  0  0  0  0  0
   55.7962   28.9897   43.6400 H   0  0  0  0  0  0  0  0  0  0  0  0
   56.0793   30.1668   41.4571 H   0  0  0  0  0  0  0  0  0  0  0  0
   57.5692   32.1633   41.2990 H   0  0  0  0  0  0  0  0  0  0  0  0
   58.7746   32.9896   43.3219 H   0  0  0  0  0  0  0  0  0  0  0  0
   60.0925   27.7809   47.0028 H   0  0  0  0  0  0  0  0  0  0  0  0
   61.2534   28.6488   49.0444 H   0  0  0  0  0  0  0  0  0  0  0  0
  1  2  1  0
  2  3  1  0
  3  4  1  0
  4  5  1  0
  3  6  1  0
  6  7  1  0
  7  8  1  0
  8  9  1  0
  9 10  2  0
 10 11  1  0
 11 12  2  0
 12 13  1  0
 13 14  2  0
 14 15  1  0
 15 16  2  0
 16 17  1  0
 17 18  2  0
 12 19  1  0
 19 20  2  0
 20 21  1  0
 21 22  2  0
 22 23  1  0
 23 24  2  0
 24  9  1  0
 18 13  1  0
 24 19  1  0
  1 25  1  0
  1 26  1  0
  1 27  1  0
  2 28  1  0
  2 29  1  0
  4 30  1  0
  4 31  1  0
  5 32  1  0
  5 33  1  0
  5 34  1  0
  6 35  1  0
  6 36  1  0
  7 37  1  0
  7 38  1  0
  8 39  1  0
 10 40  1  0
 11 41  1  0
 14 42  1  0
 15 43  1  0
 16 44  1  0
 17 45  1  0
 18 46  1  0
 21 47  1  0
 22 48  1  0
M  END
>  <UniqueID>  (39) 
36

>  <SMILES>  (39) 
CCN(CC)CCNc1ccc(-c2ccccc2)c2nccnc12

>  <Energy>  (39) 
58.62463200642409

>  <Genealogy>  (39) 
CCN(CC)CCNc1ccc(-c2ccccc2)c2nccnc12 (3D coordinates assigned)
CCN(CC)CCNc1ccc(-c2ccccc2)c2nccnc12 (optimized conformer: 58.62463200642409 kcal/mol)

>  <smiles>  (39) 
CCN(CC)CCNc1ccc(-c2ccccc2)c2nccnc12

>  <score_type>  (39) 
oracle

>  <origin>  (39) 
adg

>  <m_score__min__energy>  (39) 
-6.79

>  <m_primary>  (39) 
energy

$$$$
39:0
     RDKit          3D

 55 57  0  0  0  0  0  0  0  0999 V2000
   60.6060   29.9040   48.0970 C   0  0  0  0  0  0  0  0  0  0  0  0
   60.8370   30.5750   46.7470 C   0  0  0  0  0  0  0  0  0  0  0  0
   59.6420   31.3070   46.3280 N   0  0  0  0  0  0  0  0  0  0  0  0
   58.4520   30.6920   45.7930 C   0  0  0  0  0  0  0  0  0  0  0  0
   58.2170   29.3100   45.9310 C   0  0  0  0  0  0  0  0  0  0  0  0
   57.0990   28.7120   45.3460 C   0  0  0  0  0  0  0  0  0  0  0  0
   56.9190   27.3280   45.5090 O   0  0  0  0  0  0  0  0  0  0  0  0
   57.6780   26.3090   44.8580 C   0  0  0  0  0  0  0  0  0  0  0  0
   58.1460   26.7770   43.4830 C   0  0  0  0  0  0  0  0  0  0  0  0
   56.2140   29.5150   44.6100 C   0  0  0  0  0  0  0  0  0  0  0  0
   56.4400   30.8470   44.4960 N   0  0  0  0  0  0  0  0  0  0  0  0
   57.5160   31.4590   45.0650 C   0  0  0  0  0  0  0  0  0  0  0  0
   57.6480   32.8880   44.9500 N   0  0  0  0  0  0  0  0  0  0  0  0
   56.9970   33.7540   45.9360 C   0  0  0  0  0  0  0  0  0  0  0  0
   58.0250   34.2170   46.9890 C   0  0  0  0  0  0  0  0  0  0  0  0
   59.4220   33.9750   46.5460 N   0  0  0  0  0  0  0  0  0  0  0  0
   60.3920   34.6570   47.4250 C   0  0  0  0  0  0  0  0  0  0  0  0
   61.5700   33.7550   47.7270 C   0  0  0  0  0  0  0  0  0  0  0  0
   62.6230   33.6660   46.8020 C   0  0  0  0  0  0  0  0  0  0  0  0
   63.7220   32.8480   47.0670 C   0  0  0  0  0  0  0  0  0  0  0  0
   63.7680   32.1260   48.2580 C   0  0  0  0  0  0  0  0  0  0  0  0
   62.7480   32.2220   49.1510 N   0  0  0  0  0  0  0  0  0  0  0  0
   61.6560   33.0040   48.9250 C   0  0  0  0  0  0  0  0  0  0  0  0
   60.5930   33.0670   49.9860 C   0  0  0  0  0  0  0  0  0  0  0  0
   59.6050   34.3830   45.1380 C   0  0  0  0  0  0  0  0  0  0  0  0
   58.7910   33.4540   44.2190 C   0  0  0  0  0  0  0  0  0  0  0  0
   60.8493   30.6107   48.9041 H   0  0  0  0  0  0  0  0  0  0  0  0
   59.5518   29.6010   48.1803 H   0  0  0  0  0  0  0  0  0  0  0  0
   61.2503   29.0163   48.1803 H   0  0  0  0  0  0  0  0  0  0  0  0
   61.6803   31.2763   46.8308 H   0  0  0  0  0  0  0  0  0  0  0  0
   61.0608   29.8007   45.9984 H   0  0  0  0  0  0  0  0  0  0  0  0
   59.6900   32.3490   46.3850 H   0  0  0  0  0  0  0  0  0  0  0  0
   58.9232   28.6940   46.5070 H   0  0  0  0  0  0  0  0  0  0  0  0
   58.5560   26.0643   45.4738 H   0  0  0  0  0  0  0  0  0  0  0  0
   57.0406   25.4217   44.7304 H   0  0  0  0  0  0  0  0  0  0  0  0
   58.9192   27.5502   43.6024 H   0  0  0  0  0  0  0  0  0  0  0  0
   58.5632   25.9240   42.9277 H   0  0  0  0  0  0  0  0  0  0  0  0
   57.2930   27.1941   42.9277 H   0  0  0  0  0  0  0  0  0  0  0  0
   55.3361   29.0632   44.1251 H   0  0  0  0  0  0  0  0  0  0  0  0
   56.5752   34.6332   45.4270 H   0  0  0  0  0  0  0  0  0  0  0  0
   56.1940   33.1929   46.4364 H   0  0  0  0  0  0  0  0  0  0  0  0
   57.8904   35.2941   47.1673 H   0  0  0  0  0  0  0  0  0  0  0  0
   57.8546   33.6375   47.9083 H   0  0  0  0  0  0  0  0  0  0  0  0
   60.7538   35.5676   46.9250 H   0  0  0  0  0  0  0  0  0  0  0  0
   59.8919   34.9127   48.3708 H   0  0  0  0  0  0  0  0  0  0  0  0
   62.5813   34.2426   45.8662 H   0  0  0  0  0  0  0  0  0  0  0  0
   64.5455   32.7737   46.3415 H   0  0  0  0  0  0  0  0  0  0  0  0
   64.6301   31.4782   48.4754 H   0  0  0  0  0  0  0  0  0  0  0  0
   61.0644   33.0391   50.9795 H   0  0  0  0  0  0  0  0  0  0  0  0
   60.0215   34.0006   49.8775 H   0  0  0  0  0  0  0  0  0  0  0  0
   59.9152   32.2074   49.8775 H   0  0  0  0  0  0  0  0  0  0  0  0
   59.2590   35.4192   45.0096 H   0  0  0  0  0  0  0  0  0  0  0  0
   60.6707   34.3142   44.8742 H   0  0  0  0  0  0  0  0  0  0  0  0
   58.4219   34.0288   43.3568 H   0  0  0  0  0  0  0  0  0  0  0  0
   59.4381   32.6335   43.8753 H   0  0  0  0  0  0  0  0  0  0  0  0
  1  2  1  0
  2  3  1  0
  3  4  1  0
  4  5  2  0
  5  6  1  0
  6  7  1  0
  7  8  1  0
  8  9  1  0
  6 10  2  0
 10 11  1  0
 11 12  2  0
 12 13  1  0
 13 14  1  0
 14 15  1  0
 15 16  1  0
 16 17  1  0
 17 18  1  0
 18 19  2  0
 19 20  1  0
 20 21  2  0
 21 22  1  0
 22 23  2  0
 23 24  1  0
 16 25  1  0
 25 26  1  0
 12  4  1  0
 26 13  1  0
 23 18  1  0
  1 27  1  0
  1 28  1  0
  1 29  1  0
  2 30  1  0
  2 31  1  0
  3 32  1  0
  5 33  1  0
  8 34  1  0
  8 35  1  0
  9 36  1  0
  9 37  1  0
  9 38  1  0
 10 39  1  0
 14 40  1  0
 14 41  1  0
 15 42  1  0
 15 43  1  0
 17 44  1  0
 17 45  1  0
 19 46  1  0
 20 47  1  0
 21 48  1  0
 24 49  1  0
 24 50  1  0
 24 51  1  0
 25 52  1  0
 25 53  1  0
 26 54  1  0
 26 55  1  0
M  END
>  <UniqueID>  (40) 
37

>  <SMILES>  (40) 
CCNc1cc(OCC)cnc1N1CCN(Cc2cccnc2C)CC1

>  <Energy>  (40) 
64.25161876366019

>  <Genealogy>  (40) 
CCNc1cc(OCC)cnc1N1CCN(Cc2cccnc2C)CC1 (3D coordinates assigned)
CCNc1cc(OCC)cnc1N1CCN(Cc2cccnc2C)CC1 (nonaromatic ring conformer: 64.25161876366019 kcal/mol)

>  <smiles>  (40) 
CCNc1cc(OCC)cnc1N1CCN(Cc2cccnc2C)CC1

>  <score_type>  (40) 
oracle

>  <origin>  (40) 
adg

>  <m_score__min__energy>  (40) 
-7.6399999999999997

>  <m_primary>  (40) 
energy

$$$$
40:0
     RDKit          3D

 45 48  0  0  0  0  0  0  0  0999 V2000
   56.9850   34.5100   44.9330 C   0  0  0  0  0  0  0  0  0  0  0  0
   57.8830   33.2950   45.2020 C   0  0  2  0  0  0  0  0  0  0  0  0
   57.3950   32.1130   44.3770 C   0  0  0  0  0  0  0  0  0  0  0  0
   57.6800   32.0680   43.1500 O   0  0  0  0  0  0  0  0  0  0  0  0
   56.7170   30.9830   44.9460 N   0  0  0  0  0  0  0  0  0  0  0  0
   57.1600   29.5950   44.9240 C   0  0  0  0  0  0  0  0  0  0  0  0
   58.3090   29.4270   45.8750 C   0  0  0  0  0  0  0  0  0  0  0  0
   59.5410   30.0480   45.6240 C   0  0  0  0  0  0  0  0  0  0  0  0
   60.5900   29.9110   46.5350 C   0  0  0  0  0  0  0  0  0  0  0  0
   60.3920   29.1630   47.6970 C   0  0  0  0  0  0  0  0  0  0  0  0
   59.1870   28.5800   47.9360 N   0  0  0  0  0  0  0  0  0  0  0  0
   58.1510   28.6980   47.0630 C   0  0  0  0  0  0  0  0  0  0  0  0
   57.9260   32.9640   46.7390 C   0  0  0  0  0  0  0  0  0  0  0  0
   59.3430   33.2510   47.1070 C   0  0  0  0  0  0  0  0  0  0  0  0
   60.0080   33.1080   48.3350 C   0  0  0  0  0  0  0  0  0  0  0  0
   59.3030   32.6820   49.5620 C   0  0  0  0  0  0  0  0  0  0  0  0
   58.6660   31.4300   49.6100 C   0  0  0  0  0  0  0  0  0  0  0  0
   58.0020   31.0200   50.7690 C   0  0  0  0  0  0  0  0  0  0  0  0
   57.9750   31.8510   51.8950 C   0  0  0  0  0  0  0  0  0  0  0  0
   57.2910   31.4280   53.0890 C   0  0  0  0  0  0  0  0  0  0  0  0
   56.7420   31.0870   54.0490 N   0  0  0  0  0  0  0  0  0  0  0  0
   58.6200   33.0930   51.8580 C   0  0  0  0  0  0  0  0  0  0  0  0
   59.2840   33.5060   50.6990 C   0  0  0  0  0  0  0  0  0  0  0  0
   61.3950   33.3600   48.3560 C   0  0  0  0  0  0  0  0  0  0  0  0
   62.0560   33.7420   47.1740 C   0  0  0  0  0  0  0  0  0  0  0  0
   61.3660   33.8500   46.0020 N   0  0  0  0  0  0  0  0  0  0  0  0
   60.0330   33.5990   45.9850 C   0  0  0  0  0  0  0  0  0  0  0  0
   59.2310   33.6320   44.8680 O   0  0  0  0  0  0  0  0  0  0  0  0
   56.6624   34.9465   45.8898 H   0  0  0  0  0  0  0  0  0  0  0  0
   57.5467   35.2610   44.3582 H   0  0  0  0  0  0  0  0  0  0  0  0
   56.1022   34.1934   44.3582 H   0  0  0  0  0  0  0  0  0  0  0  0
   56.3311   28.9396   45.2295 H   0  0  0  0  0  0  0  0  0  0  0  0
   57.4807   29.3262   43.9067 H   0  0  0  0  0  0  0  0  0  0  0  0
   59.6809   30.6430   44.7094 H   0  0  0  0  0  0  0  0  0  0  0  0
   61.5620   30.3873   46.3393 H   0  0  0  0  0  0  0  0  0  0  0  0
   61.2122   29.0450   48.4205 H   0  0  0  0  0  0  0  0  0  0  0  0
   57.1862   28.2204   47.2891 H   0  0  0  0  0  0  0  0  0  0  0  0
   57.2337   33.6080   47.3012 H   0  0  0  0  0  0  0  0  0  0  0  0
   57.6200   31.9325   46.9681 H   0  0  0  0  0  0  0  0  0  0  0  0
   58.6903   30.7696   48.7306 H   0  0  0  0  0  0  0  0  0  0  0  0
   57.4993   30.0420   50.7966 H   0  0  0  0  0  0  0  0  0  0  0  0
   58.6043   33.7457   52.7433 H   0  0  0  0  0  0  0  0  0  0  0  0
   59.7937   34.4805   50.6777 H   0  0  0  0  0  0  0  0  0  0  0  0
   61.9594   33.2582   49.2947 H   0  0  0  0  0  0  0  0  0  0  0  0
   63.1350   33.9547   47.1950 H   0  0  0  0  0  0  0  0  0  0  0  0
  2  1  1  1
  2  3  1  0
  3  4  2  0
  3  5  1  0
  5  6  1  0
  6  7  1  0
  7  8  2  0
  8  9  1  0
  9 10  2  0
 10 11  1  0
 11 12  2  0
  2 13  1  0
 13 14  1  0
 14 15  2  0
 15 16  1  0
 16 17  2  0
 17 18  1  0
 18 19  2  0
 19 20  1  0
 20 21  3  0
 19 22  1  0
 22 23  2  0
 15 24  1  0
 24 25  2  0
 25 26  1  0
 26 27  2  0
 27 28  1  0
 28  2  1  0
 12  7  1  0
 27 14  1  0
 23 16  1  0
  1 29  1  0
  1 30  1  0
  1 31  1  0
  6 32  1  0
  6 33  1  0
  8 34  1  0
  9 35  1  0
 10 36  1  0
 12 37  1  0
 13 38  1  0
 13 39  1  0
 17 40  1  0
 18 41  1  0
 22 42  1  0
 23 43  1  0
 24 44  1  0
 25 45  1  0
M  CHG  1   5  -1
M  END
>  <UniqueID>  (41) 
38

>  <SMILES>  (41) 
C[C@]1(C(=O)[N-]Cc2cccnc2)Cc2c(-c3ccc(C#N)cc3)ccnc2O1

>  <Energy>  (41) 
72.4090481067805

>  <Genealogy>  (41) 
CC1(C(=O)[N-]Cc2cccnc2)Cc2c(-c3ccc(C#N)cc3)ccnc2O1 (protonated)
C[C@]1(C(=O)[N-]Cc2cccnc2)Cc2c(-c3ccc(C#N)cc3)ccnc2O1 (chirality)
C[C@]1(C(=O)[N-]Cc2cccnc2)Cc2c(-c3ccc(C#N)cc3)ccnc2O1 (3D coordinates assigned)
C[C@]1(C(=O)[N-]Cc2cccnc2)Cc2c(-c3ccc(C#N)cc3)ccnc2O1 (nonaromatic ring conformer: 72.4090481067805 kcal/mol)

>  <smiles>  (41) 
CC1(C(=O)NCc2cccnc2)Cc2c(-c3ccc(C#N)cc3)ccnc2O1

>  <score_type>  (41) 
oracle

>  <origin>  (41) 
adg

>  <m_score__min__energy>  (41) 
-10.6

>  <m_primary>  (41) 
energy

$$$$
41:0
     RDKit          3D

 67 70  0  0  0  0  0  0  0  0999 V2000
   57.3960   33.4100   46.0760 C   0  0  0  0  0  0  0  0  0  0  0  0
   58.1700   32.2050   45.5470 C   0  0  0  0  0  0  0  0  0  0  0  0
   57.8050   31.0280   46.2440 O   0  0  0  0  0  0  0  0  0  0  0  0
   58.8690   30.0920   46.2850 C   0  0  0  0  0  0  0  0  0  0  0  0
   58.9450   29.4280   47.6630 C   0  0  0  0  0  0  0  0  0  0  0  0
   60.4010   29.2770   48.1470 C   0  0  0  0  0  0  0  0  0  0  0  0
   60.7720   30.2630   49.1950 N   0  0  2  0  0  0  0  0  0  0  0  0
   59.8430   30.1870   50.3150 C   0  0  0  0  0  0  0  0  0  0  0  0
   60.1500   29.4450   51.4100 C   0  0  0  0  0  0  0  0  0  0  0  0
   59.2090   29.2380   52.5890 C   0  0  0  0  0  0  0  0  0  0  0  0
   59.3820   27.7960   53.1050 C   0  0  0  0  0  0  0  0  0  0  0  0
   59.5790   30.2140   53.7220 C   0  0  0  0  0  0  0  0  0  0  0  0
   57.7360   29.4420   52.1670 C   0  0  0  0  0  0  0  0  0  0  0  0
   57.5820   30.6830   51.3360 C   0  0  0  0  0  0  0  0  0  0  0  0
   56.6210   31.4160   51.5130 O   0  0  0  0  0  0  0  0  0  0  0  0
   58.5310   30.9230   50.1830 C   0  0  1  0  0  0  0  0  0  0  0  0
   58.8520   32.4080   49.9380 C   0  0  1  0  0  0  0  0  0  0  0  0
   59.3000   33.1280   51.1910 C   0  0  0  0  0  0  0  0  0  0  0  0
   58.5100   33.7940   52.1090 C   0  0  0  0  0  0  0  0  0  0  0  0
   59.3760   34.2710   53.0700 C   0  0  0  0  0  0  0  0  0  0  0  0
   60.6080   33.9290   52.7670 O   0  0  0  0  0  0  0  0  0  0  0  0
   60.5990   33.2440   51.6470 C   0  0  0  0  0  0  0  0  0  0  0  0
   59.9110   32.5740   48.8570 C   0  0  0  0  0  0  0  0  0  0  0  0
   60.8380   31.6020   48.6060 C   0  0  0  0  0  0  0  0  0  0  0  0
   61.9350   31.8660   47.5810 C   0  0  0  0  0  0  0  0  0  0  0  0
   62.3910   33.3420   47.5290 C   0  0  0  0  0  0  0  0  0  0  0  0
   63.3960   33.5200   46.3730 C   0  0  0  0  0  0  0  0  0  0  0  0
   63.0890   33.7490   48.8480 C   0  0  0  0  0  0  0  0  0  0  0  0
   61.1550   34.2300   47.2680 C   0  0  0  0  0  0  0  0  0  0  0  0
   60.0290   33.9110   48.2100 C   0  0  0  0  0  0  0  0  0  0  0  0
   59.1580   34.7970   48.4270 O   0  0  0  0  0  0  0  0  0  0  0  0
   57.4043   33.3970   47.1759 H   0  0  0  0  0  0  0  0  0  0  0  0
   57.8687   34.3360   45.7166 H   0  0  0  0  0  0  0  0  0  0  0  0
   56.3573   33.3652   45.7166 H   0  0  0  0  0  0  0  0  0  0  0  0
   57.9476   32.0746   44.4776 H   0  0  0  0  0  0  0  0  0  0  0  0
   59.2452   32.3836   45.6953 H   0  0  0  0  0  0  0  0  0  0  0  0
   58.7018   29.3198   45.5196 H   0  0  0  0  0  0  0  0  0  0  0  0
   59.8148   30.6191   46.0909 H   0  0  0  0  0  0  0  0  0  0  0  0
   58.3916   30.0449   48.3864 H   0  0  0  0  0  0  0  0  0  0  0  0
   58.5057   28.4227   47.5825 H   0  0  0  0  0  0  0  0  0  0  0  0
   60.5303   28.2646   48.5573 H   0  0  0  0  0  0  0  0  0  0  0  0
   61.0549   29.4570   47.2810 H   0  0  0  0  0  0  0  0  0  0  0  0
   61.7380   30.0390   49.5310 H   0  0  0  0  0  0  0  0  0  0  0  0
   61.1387   28.9642   51.4476 H   0  0  0  0  0  0  0  0  0  0  0  0
   59.3818   27.7977   54.2050 H   0  0  0  0  0  0  0  0  0  0  0  0
   58.5521   27.1736   52.7391 H   0  0  0  0  0  0  0  0  0  0  0  0
   60.3356   27.3876   52.7391 H   0  0  0  0  0  0  0  0  0  0  0  0
   59.3967   29.7331   54.6944 H   0  0  0  0  0  0  0  0  0  0  0  0
   60.6421   30.4845   53.6403 H   0  0  0  0  0  0  0  0  0  0  0  0
   58.9624   31.1213   53.6403 H   0  0  0  0  0  0  0  0  0  0  0  0
   57.4062   28.5724   51.5796 H   0  0  0  0  0  0  0  0  0  0  0  0
   57.1229   29.5489   53.0740 H   0  0  0  0  0  0  0  0  0  0  0  0
   57.9709   30.5261   49.3235 H   0  0  0  0  0  0  0  0  0  0  0  0
   57.9091   32.8656   49.6041 H   0  0  0  0  0  0  0  0  0  0  0  0
   57.4174   33.9178   52.0791 H   0  0  0  0  0  0  0  0  0  0  0  0
   59.0801   34.8506   53.9568 H   0  0  0  0  0  0  0  0  0  0  0  0
   61.4871   32.8274   51.1493 H   0  0  0  0  0  0  0  0  0  0  0  0
   62.8048   31.2420   47.8340 H   0  0  0  0  0  0  0  0  0  0  0  0
   61.5185   31.6220   46.5926 H   0  0  0  0  0  0  0  0  0  0  0  0
   64.4005   33.6979   46.7845 H   0  0  0  0  0  0  0  0  0  0  0  0
   63.4088   32.6102   45.7549 H   0  0  0  0  0  0  0  0  0  0  0  0
   63.0956   34.3789   45.7549 H   0  0  0  0  0  0  0  0  0  0  0  0
   62.4905   33.4000   49.7024 H   0  0  0  0  0  0  0  0  0  0  0  0
   64.0889   33.2923   48.8898 H   0  0  0  0  0  0  0  0  0  0  0  0
   63.1840   34.8441   48.8898 H   0  0  0  0  0  0  0  0  0  0  0  0
   61.4403   35.2843   47.3984 H   0  0  0  0  0  0  0  0  0  0  0  0
   60.8070   34.0382   46.2423 H   0  0  0  0  0  0  0  0  0  0  0  0
  1  2  1  0
  2  3  1  0
  3  4  1  0
  4  5  1  0
  5  6  1  0
  6  7  1  0
  7  8  1  0
  8  9  2  0
  9 10  1  0
 10 11  1  0
 10 12  1  0
 10 13  1  0
 13 14  1  0
 14 15  2  0
 14 16  1  0
 16 17  1  0
 17 18  1  0
 18 19  1  0
 19 20  2  0
 20 21  1  0
 21 22  1  0
 17 23  1  0
 23 24  2  0
 24 25  1  0
 25 26  1  0
 26 27  1  0
 26 28  1  0
 26 29  1  0
 29 30  1  0
 30 31  2  0
 24  7  1  0
 16  8  1  0
 22 18  2  0
 30 23  1  0
  1 32  1  0
  1 33  1  0
  1 34  1  0
  2 35  1  0
  2 36  1  0
  4 37  1  0
  4 38  1  0
  5 39  1  0
  5 40  1  0
  6 41  1  0
  6 42  1  0
  7 43  1  1
  9 44  1  0
 11 45  1  0
 11 46  1  0
 11 47  1  0
 12 48  1  0
 12 49  1  0
 12 50  1  0
 13 51  1  0
 13 52  1  0
 16 53  1  6
 17 54  1  6
 19 55  1  0
 20 56  1  0
 22 57  1  0
 25 58  1  0
 25 59  1  0
 27 60  1  0
 27 61  1  0
 27 62  1  0
 28 63  1  0
 28 64  1  0
 28 65  1  0
 29 66  1  0
 29 67  1  0
M  CHG  1   7   1
M  END
>  <UniqueID>  (42) 
39

>  <SMILES>  (42) 
CCOCCC[N@@H+]1C2=CC(C)(C)CC(=O)[C@H]2C(c2ccoc2)C2=C1CC(C)(C)CC2=O

>  <Energy>  (42) 
98.94046328493651

>  <Genealogy>  (42) 
CCOCCC[NH+]1C2=CC(C)(C)CC(=O)C2C(c2ccoc2)C2=C1CC(C)(C)CC2=O (protonated)
CCOCCC[N@@H+]1C2=CC(C)(C)CC(=O)[C@H]2C(c2ccoc2)C2=C1CC(C)(C)CC2=O (chirality)
CCOCCC[N@@H+]1C2=CC(C)(C)CC(=O)[C@H]2C(c2ccoc2)C2=C1CC(C)(C)CC2=O (3D coordinates assigned)
CCOCCC[N@@H+]1C2=CC(C)(C)CC(=O)[C@H]2C(c2ccoc2)C2=C1CC(C)(C)CC2=O (nonaromatic ring conformer: 98.94046328493651 kcal/mol)

>  <smiles>  (42) 
CCOCCCN1C2=CC(C)(C)CC(=O)C2C(c2ccoc2)C2=C1CC(C)(C)CC2=O

>  <score_type>  (42) 
oracle

>  <origin>  (42) 
adg

>  <m_score__min__energy>  (42) 
-7.9900000000000002

>  <m_primary>  (42) 
energy

$$$$
42:0
     RDKit          3D

 47 51  0  0  0  0  0  0  0  0999 V2000
   59.2900   33.8380   51.8870 C   0  0  0  0  0  0  0  0  0  0  0  0
   60.0770   33.6550   50.7160 O   0  0  0  0  0  0  0  0  0  0  0  0
   59.5560   33.5390   49.4170 C   0  0  0  0  0  0  0  0  0  0  0  0
   59.9130   34.4300   48.3880 C   0  0  0  0  0  0  0  0  0  0  0  0
   59.3760   34.2850   47.1070 C   0  0  0  0  0  0  0  0  0  0  0  0
   59.7330   35.1520   46.1230 N   0  0  0  0  0  0  0  0  0  0  0  0
   59.2360   35.0500   44.8640 C   0  0  0  0  0  0  0  0  0  0  0  0
   58.3330   34.0370   44.5450 C   0  0  0  0  0  0  0  0  0  0  0  0
   57.9370   33.1140   45.5310 C   0  0  0  0  0  0  0  0  0  0  0  0
   57.0310   32.0730   45.2550 O   0  0  0  0  0  0  0  0  0  0  0  0
   57.1840   31.0890   44.2340 C   0  0  0  0  0  0  0  0  0  0  0  0
   57.8680   29.8740   44.7790 C   0  0  0  0  0  0  0  0  0  0  0  0
   57.4780   28.5880   44.5780 N   0  0  0  0  0  0  0  0  0  0  0  0
   58.2960   27.7730   45.2530 N   0  0  0  0  0  0  0  0  0  0  0  0
   59.1760   28.6080   45.8360 C   0  0  0  0  0  0  0  0  0  0  0  0
   60.4510   28.4130   46.9000 S   0  0  0  0  0  0  0  0  0  0  0  0
   60.6330   30.1370   46.9380 C   0  0  0  0  0  0  0  0  0  0  0  0
   61.6440   30.8660   47.7370 C   0  0  0  0  0  0  0  0  0  0  0  0
   61.7980   30.6200   49.1120 C   0  0  0  0  0  0  0  0  0  0  0  0
   62.7600   31.3260   49.8380 C   0  0  0  0  0  0  0  0  0  0  0  0
   63.5450   32.2460   49.2180 N   0  0  0  0  0  0  0  0  0  0  0  0
   63.4210   32.5070   47.8900 C   0  0  0  0  0  0  0  0  0  0  0  0
   62.4720   31.8240   47.1270 C   0  0  0  0  0  0  0  0  0  0  0  0
   59.7110   30.7700   46.1530 N   0  0  0  0  0  0  0  0  0  0  0  0
   58.9440   29.8660   45.5670 N   0  0  0  0  0  0  0  0  0  0  0  0
   58.4640   33.2420   46.8320 C   0  0  0  0  0  0  0  0  0  0  0  0
   58.1080   32.3520   47.8610 C   0  0  0  0  0  0  0  0  0  0  0  0
   58.6510   32.4980   49.1530 C   0  0  0  0  0  0  0  0  0  0  0  0
   58.3170   31.6280   50.2040 O   0  0  0  0  0  0  0  0  0  0  0  0
   58.6540   30.2440   50.2460 C   0  0  0  0  0  0  0  0  0  0  0  0
   59.9186   33.6918   52.7778 H   0  0  0  0  0  0  0  0  0  0  0  0
   58.8749   34.8566   51.8943 H   0  0  0  0  0  0  0  0  0  0  0  0
   58.4680   33.1070   51.8943 H   0  0  0  0  0  0  0  0  0  0  0  0
   60.6203   35.2468   48.5942 H   0  0  0  0  0  0  0  0  0  0  0  0
   59.5470   35.7696   44.0923 H   0  0  0  0  0  0  0  0  0  0  0  0
   57.9306   33.9592   43.5242 H   0  0  0  0  0  0  0  0  0  0  0  0
   56.1921   30.8059   43.8519 H   0  0  0  0  0  0  0  0  0  0  0  0
   57.7959   31.5091   43.4221 H   0  0  0  0  0  0  0  0  0  0  0  0
   56.6610   28.2680   44.0130 H   0  0  0  0  0  0  0  0  0  0  0  0
   61.1637   29.8747   49.6143 H   0  0  0  0  0  0  0  0  0  0  0  0
   62.8826   31.1368   50.9147 H   0  0  0  0  0  0  0  0  0  0  0  0
   64.0697   33.2579   47.4153 H   0  0  0  0  0  0  0  0  0  0  0  0
   62.3727   32.0349   46.0520 H   0  0  0  0  0  0  0  0  0  0  0  0
   57.4001   31.5355   47.6557 H   0  0  0  0  0  0  0  0  0  0  0  0
   58.7335   29.9176   51.2934 H   0  0  0  0  0  0  0  0  0  0  0  0
   57.8717   29.6606   49.7385 H   0  0  0  0  0  0  0  0  0  0  0  0
   59.6170   30.0855   49.7385 H   0  0  0  0  0  0  0  0  0  0  0  0
  1  2  1  0
  2  3  1  0
  3  4  2  0
  4  5  1  0
  5  6  2  0
  6  7  1  0
  7  8  2  0
  8  9  1  0
  9 10  1  0
 10 11  1  0
 11 12  1  0
 12 13  2  0
 13 14  1  0
 14 15  2  0
 15 16  1  0
 16 17  1  0
 17 18  1  0
 18 19  2  0
 19 20  1  0
 20 21  2  0
 21 22  1  0
 22 23  2  0
 17 24  2  0
 24 25  1  0
  9 26  2  0
 26 27  1  0
 27 28  2  0
 28 29  1  0
 29 30  1  0
 28  3  1  0
 26  5  1  0
 25 12  1  0
 25 15  1  0
 23 18  1  0
  1 31  1  0
  1 32  1  0
  1 33  1  0
  4 34  1  0
  7 35  1  0
  8 36  1  0
 11 37  1  0
 11 38  1  0
 13 39  1  0
 19 40  1  0
 20 41  1  0
 22 42  1  0
 23 43  1  0
 27 44  1  0
 30 45  1  0
 30 46  1  0
 30 47  1  0
M  CHG  1  13   1
M  END
>  <UniqueID>  (43) 
40

>  <SMILES>  (43) 
COc1cc2nccc(OCc3[nH+]nc4sc(-c5ccncc5)nn34)c2cc1OC

>  <Energy>  (43) 
150.7730875105791

>  <Genealogy>  (43) 
COc1cc2nccc(OCc3[nH+]nc4sc(-c5ccncc5)nn34)c2cc1OC (protonated)
COc1cc2nccc(OCc3[nH+]nc4sc(-c5ccncc5)nn34)c2cc1OC (3D coordinates assigned)
COc1cc2nccc(OCc3[nH+]nc4sc(-c5ccncc5)nn34)c2cc1OC (optimized conformer: 150.7730875105791 kcal/mol)

>  <smiles>  (43) 
COc1cc2nccc(OCc3nnc4sc(-c5ccncc5)nn34)c2cc1OC

>  <score_type>  (43) 
oracle

>  <origin>  (43) 
adg

>  <m_score__min__energy>  (43) 
-7.6299999999999999

>  <m_primary>  (43) 
energy

$$$$
43:0
     RDKit          3D

 54 57  0  0  0  0  0  0  0  0999 V2000
   57.7610   25.6910   43.7480 C   0  0  0  0  0  0  0  0  0  0  0  0
   58.1450   27.0640   43.2070 C   0  0  0  0  0  0  0  0  0  0  0  0
   57.9200   28.0990   44.2230 N   0  0  0  0  0  0  0  0  0  0  0  0
   58.6810   28.1080   45.4440 C   0  0  0  0  0  0  0  0  0  0  0  0
   58.0850   27.7100   46.6520 C   0  0  0  0  0  0  0  0  0  0  0  0
   58.8200   27.7260   47.8410 C   0  0  0  0  0  0  0  0  0  0  0  0
   60.1530   28.1430   47.8350 C   0  0  0  0  0  0  0  0  0  0  0  0
   60.7530   28.5440   46.6380 C   0  0  0  0  0  0  0  0  0  0  0  0
   60.0220   28.5290   45.4470 C   0  0  0  0  0  0  0  0  0  0  0  0
   56.7450   29.3460   43.9240 S   0  0  0  0  0  0  0  0  0  0  0  0
   56.2460   29.2460   42.5100 O   0  0  0  0  0  0  0  0  0  0  0  0
   55.5700   29.1680   44.8450 O   0  0  0  0  0  0  0  0  0  0  0  0
   57.4790   30.9260   44.1830 C   0  0  0  0  0  0  0  0  0  0  0  0
   57.5260   31.8540   43.1350 C   0  0  0  0  0  0  0  0  0  0  0  0
   58.1370   33.0950   43.3230 C   0  0  0  0  0  0  0  0  0  0  0  0
   58.6980   33.4210   44.5600 C   0  0  0  0  0  0  0  0  0  0  0  0
   58.6430   32.5080   45.6260 C   0  0  0  0  0  0  0  0  0  0  0  0
   59.2530   32.8510   46.9300 C   0  0  0  0  0  0  0  0  0  0  0  0
   58.5070   33.2420   47.8690 O   0  0  0  0  0  0  0  0  0  0  0  0
   60.6730   32.7480   47.1510 N   0  0  0  0  0  0  0  0  0  0  0  0
   61.5220   33.8910   46.7660 C   0  0  0  0  0  0  0  0  0  0  0  0
   63.0170   33.5620   46.8380 C   0  0  0  0  0  0  0  0  0  0  0  0
   63.3380   32.8920   48.1410 C   0  0  0  0  0  0  0  0  0  0  0  0
   64.5230   33.1810   48.8350 C   0  0  0  0  0  0  0  0  0  0  0  0
   64.8180   32.5120   50.0260 C   0  0  0  0  0  0  0  0  0  0  0  0
   63.9420   31.5410   50.5200 C   0  0  0  0  0  0  0  0  0  0  0  0
   62.7670   31.2380   49.8260 C   0  0  0  0  0  0  0  0  0  0  0  0
   62.4550   31.9190   48.6380 C   0  0  0  0  0  0  0  0  0  0  0  0
   61.2240   31.5680   47.8460 C   0  0  0  0  0  0  0  0  0  0  0  0
   58.0440   31.2540   45.4240 C   0  0  0  0  0  0  0  0  0  0  0  0
   57.7678   25.7152   44.8477 H   0  0  0  0  0  0  0  0  0  0  0  0
   56.7542   25.4256   43.3933 H   0  0  0  0  0  0  0  0  0  0  0  0
   58.4841   24.9418   43.3933 H   0  0  0  0  0  0  0  0  0  0  0  0
   59.2085   27.0578   42.9262 H   0  0  0  0  0  0  0  0  0  0  0  0
   57.5217   27.2869   42.3285 H   0  0  0  0  0  0  0  0  0  0  0  0
   57.0345   27.3840   46.6625 H   0  0  0  0  0  0  0  0  0  0  0  0
   58.3478   27.4097   48.7828 H   0  0  0  0  0  0  0  0  0  0  0  0
   60.7301   28.1558   48.7714 H   0  0  0  0  0  0  0  0  0  0  0  0
   61.8029   28.8721   46.6334 H   0  0  0  0  0  0  0  0  0  0  0  0
   60.4981   28.8480   44.5081 H   0  0  0  0  0  0  0  0  0  0  0  0
   57.0802   31.6042   42.1609 H   0  0  0  0  0  0  0  0  0  0  0  0
   58.1768   33.8180   42.4949 H   0  0  0  0  0  0  0  0  0  0  0  0
   59.1851   34.3973   44.7000 H   0  0  0  0  0  0  0  0  0  0  0  0
   61.2743   34.1829   45.7348 H   0  0  0  0  0  0  0  0  0  0  0  0
   61.3249   34.7078   47.4759 H   0  0  0  0  0  0  0  0  0  0  0  0
   63.2813   32.8893   46.0088 H   0  0  0  0  0  0  0  0  0  0  0  0
   63.5939   34.4956   46.7629 H   0  0  0  0  0  0  0  0  0  0  0  0
   65.2204   33.9349   48.4411 H   0  0  0  0  0  0  0  0  0  0  0  0
   65.7408   32.7498   50.5755 H   0  0  0  0  0  0  0  0  0  0  0  0
   64.1778   31.0144   51.4566 H   0  0  0  0  0  0  0  0  0  0  0  0
   62.0857   30.4650   50.2110 H   0  0  0  0  0  0  0  0  0  0  0  0
   61.4852   30.8033   47.0997 H   0  0  0  0  0  0  0  0  0  0  0  0
   60.4612   31.1907   48.5430 H   0  0  0  0  0  0  0  0  0  0  0  0
   58.0177   30.5232   46.2457 H   0  0  0  0  0  0  0  0  0  0  0  0
  1  2  1  0
  2  3  1  0
  3  4  1  0
  4  5  2  0
  5  6  1  0
  6  7  2  0
  7  8  1  0
  8  9  2  0
  3 10  1  0
 10 11  2  0
 10 12  2  0
 10 13  1  0
 13 14  2  0
 14 15  1  0
 15 16  2  0
 16 17  1  0
 17 18  1  0
 18 19  2  0
 18 20  1  0
 20 21  1  0
 21 22  1  0
 22 23  1  0
 23 24  2  0
 24 25  1  0
 25 26  2  0
 26 27  1  0
 27 28  2  0
 28 29  1  0
 17 30  2  0
  9  4  1  0
 30 13  1  0
 29 20  1  0
 28 23  1  0
  1 31  1  0
  1 32  1  0
  1 33  1  0
  2 34  1  0
  2 35  1  0
  5 36  1  0
  6 37  1  0
  7 38  1  0
  8 39  1  0
  9 40  1  0
 14 41  1  0
 15 42  1  0
 16 43  1  0
 21 44  1  0
 21 45  1  0
 22 46  1  0
 22 47  1  0
 24 48  1  0
 25 49  1  0
 26 50  1  0
 27 51  1  0
 29 52  1  0
 29 53  1  0
 30 54  1  0
M  END
>  <UniqueID>  (44) 
41

>  <SMILES>  (44) 
CCN(c1ccccc1)S(=O)(=O)c1cccc(C(=O)N2CCc3ccccc3C2)c1

>  <Energy>  (44) 
65.88578290211383

>  <Genealogy>  (44) 
CCN(c1ccccc1)S(=O)(=O)c1cccc(C(=O)N2CCc3ccccc3C2)c1 (3D coordinates assigned)
CCN(c1ccccc1)S(=O)(=O)c1cccc(C(=O)N2CCc3ccccc3C2)c1 (nonaromatic ring conformer: 65.88578290211383 kcal/mol)

>  <smiles>  (44) 
CCN(c1ccccc1)S(=O)(=O)c1cccc(C(=O)N2CCc3ccccc3C2)c1

>  <score_type>  (44) 
oracle

>  <origin>  (44) 
adg

>  <m_score__min__energy>  (44) 
-10.359999999999999

>  <m_primary>  (44) 
energy

$$$$
44:0
     RDKit          3D

 48 50  0  0  0  0  0  0  0  0999 V2000
   59.1270   29.8790   45.2420 C   0  0  0  0  0  0  0  0  0  0  0  0
   58.0820   30.7300   45.9570 C   0  0  0  0  0  0  0  0  0  0  0  0
   57.1220   31.2920   44.9800 N   0  0  0  0  0  0  0  0  0  0  0  0
   56.9100   30.3900   43.8210 C   0  0  0  0  0  0  0  0  0  0  0  0
   55.5290   29.7200   43.7890 C   0  0  0  0  0  0  0  0  0  0  0  0
   57.4710   32.6850   44.6120 C   0  0  0  0  0  0  0  0  0  0  0  0
   57.0540   33.6910   45.6900 C   0  0  0  0  0  0  0  0  0  0  0  0
   58.1140   34.6120   45.9370 O   0  0  0  0  0  0  0  0  0  0  0  0
   59.2860   34.3060   46.6430 C   0  0  0  0  0  0  0  0  0  0  0  0
   59.2720   34.4230   48.0360 C   0  0  0  0  0  0  0  0  0  0  0  0
   60.4130   34.1290   48.7860 C   0  0  0  0  0  0  0  0  0  0  0  0
   61.5960   33.7100   48.1520 C   0  0  0  0  0  0  0  0  0  0  0  0
   62.8090   33.3930   48.9480 C   0  0  0  0  0  0  0  0  0  0  0  0
   63.6150   32.2590   48.6250 C   0  0  0  0  0  0  0  0  0  0  0  0
   64.7350   31.9600   49.3520 N   0  0  0  0  0  0  0  0  0  0  0  0
   65.0630   32.7670   50.3870 C   0  0  0  0  0  0  0  0  0  0  0  0
   66.1070   32.6590   51.2230 N   0  0  0  0  0  0  0  0  0  0  0  0
   66.0120   33.6750   52.0770 N   0  0  0  0  0  0  0  0  0  0  0  0
   64.9410   34.4160   51.7940 N   0  0  0  0  0  0  0  0  0  0  0  0
   64.5250   35.5980   52.5350 C   0  0  0  0  0  0  0  0  0  0  0  0
   64.3340   33.8520   50.7350 C   0  0  0  0  0  0  0  0  0  0  0  0
   63.1860   34.2120   50.0410 C   0  0  0  0  0  0  0  0  0  0  0  0
   61.6090   33.5910   46.7500 C   0  0  0  0  0  0  0  0  0  0  0  0
   60.4670   33.8880   46.0020 C   0  0  0  0  0  0  0  0  0  0  0  0
   59.7550   29.3675   45.9863 H   0  0  0  0  0  0  0  0  0  0  0  0
   58.6226   29.1315   44.6121 H   0  0  0  0  0  0  0  0  0  0  0  0
   59.7569   30.5244   44.6121 H   0  0  0  0  0  0  0  0  0  0  0  0
   57.5389   30.1052   46.6814 H   0  0  0  0  0  0  0  0  0  0  0  0
   58.5883   31.5563   46.4775 H   0  0  0  0  0  0  0  0  0  0  0  0
   57.0292   30.9787   42.8995 H   0  0  0  0  0  0  0  0  0  0  0  0
   57.6512   29.5821   43.9097 H   0  0  0  0  0  0  0  0  0  0  0  0
   55.1797   29.5506   44.8182 H   0  0  0  0  0  0  0  0  0  0  0  0
   54.8169   30.3728   43.2629 H   0  0  0  0  0  0  0  0  0  0  0  0
   55.6009   28.7566   43.2629 H   0  0  0  0  0  0  0  0  0  0  0  0
   58.5595   32.7511   44.4680 H   0  0  0  0  0  0  0  0  0  0  0  0
   56.9287   32.9359   43.6885 H   0  0  0  0  0  0  0  0  0  0  0  0
   56.1652   34.2422   45.3490 H   0  0  0  0  0  0  0  0  0  0  0  0
   56.8245   33.1487   46.6191 H   0  0  0  0  0  0  0  0  0  0  0  0
   58.3538   34.7496   48.5462 H   0  0  0  0  0  0  0  0  0  0  0  0
   60.3859   34.2260   49.8814 H   0  0  0  0  0  0  0  0  0  0  0  0
   63.3310   31.6161   47.7788 H   0  0  0  0  0  0  0  0  0  0  0  0
   66.8550   31.9310   51.2250 H   0  0  0  0  0  0  0  0  0  0  0  0
   64.5955   35.3978   53.6143 H   0  0  0  0  0  0  0  0  0  0  0  0
   65.1798   36.4429   52.2753 H   0  0  0  0  0  0  0  0  0  0  0  0
   63.4854   35.8465   52.2753 H   0  0  0  0  0  0  0  0  0  0  0  0
   62.5952   35.0946   50.3275 H   0  0  0  0  0  0  0  0  0  0  0  0
   62.5256   33.2615   46.2389 H   0  0  0  0  0  0  0  0  0  0  0  0
   60.4911   33.7946   44.9062 H   0  0  0  0  0  0  0  0  0  0  0  0
  1  2  1  0
  2  3  1  0
  3  4  1  0
  4  5  1  0
  3  6  1  0
  6  7  1  0
  7  8  1  0
  8  9  1  0
  9 10  2  0
 10 11  1  0
 11 12  2  0
 12 13  1  0
 13 14  2  0
 14 15  1  0
 15 16  2  0
 16 17  1  0
 17 18  2  0
 18 19  1  0
 19 20  1  0
 19 21  1  0
 21 22  2  0
 12 23  1  0
 23 24  2  0
 24  9  1  0
 22 13  1  0
 21 16  1  0
  1 25  1  0
  1 26  1  0
  1 27  1  0
  2 28  1  0
  2 29  1  0
  4 30  1  0
  4 31  1  0
  5 32  1  0
  5 33  1  0
  5 34  1  0
  6 35  1  0
  6 36  1  0
  7 37  1  0
  7 38  1  0
 10 39  1  0
 11 40  1  0
 14 41  1  0
 17 42  1  0
 20 43  1  0
 20 44  1  0
 20 45  1  0
 22 46  1  0
 23 47  1  0
 24 48  1  0
M  CHG  1  17   1
M  END
>  <UniqueID>  (45) 
42

>  <SMILES>  (45) 
CCN(CC)CCOc1ccc(-c2cnc3[nH+]nn(C)c3c2)cc1

>  <Energy>  (45) 
102.18062336770129

>  <Genealogy>  (45) 
CCN(CC)CCOc1ccc(-c2cnc3[nH+]nn(C)c3c2)cc1 (protonated)
CCN(CC)CCOc1ccc(-c2cnc3[nH+]nn(C)c3c2)cc1 (3D coordinates assigned)
CCN(CC)CCOc1ccc(-c2cnc3[nH+]nn(C)c3c2)cc1 (optimized conformer: 102.18062336770129 kcal/mol)

>  <smiles>  (45) 
CCN(CC)CCOc1ccc(-c2cnc3nnn(C)c3c2)cc1

>  <score_type>  (45) 
oracle

>  <origin>  (45) 
adg

>  <m_score__min__energy>  (45) 
-5.7699999999999996

>  <m_primary>  (45) 
energy

$$$$
45:0
     RDKit          3D

 48 50  0  0  0  0  0  0  0  0999 V2000
   57.3140   32.1940   45.2220 C   0  0  0  0  0  0  0  0  0  0  0  0
   58.1780   33.2610   45.8310 C   0  0  0  0  0  0  0  0  0  0  0  0
   58.7830   34.2150   44.9940 C   0  0  0  0  0  0  0  0  0  0  0  0
   59.6140   35.2020   45.5300 C   0  0  0  0  0  0  0  0  0  0  0  0
   59.8460   35.2510   46.9060 C   0  0  0  0  0  0  0  0  0  0  0  0
   59.2370   34.3210   47.7500 C   0  0  0  0  0  0  0  0  0  0  0  0
   58.3860   33.3390   47.2280 C   0  0  0  0  0  0  0  0  0  0  0  0
   57.7810   32.4470   48.1180 O   0  0  0  0  0  0  0  0  0  0  0  0
   58.1840   32.3330   49.4790 C   0  0  0  0  0  0  0  0  0  0  0  0
   59.1330   31.1460   49.6430 C   0  0  0  0  0  0  0  0  0  0  0  0
   60.2040   31.1490   48.5830 C   0  0  0  0  0  0  0  0  0  0  0  0
   61.3060   31.9820   48.5840 C   0  0  0  0  0  0  0  0  0  0  0  0
   62.0640   31.5500   47.5140 C   0  0  0  0  0  0  0  0  0  0  0  0
   63.4130   32.0690   47.1310 C   0  0  0  0  0  0  0  0  0  0  0  0
   64.0910   31.1200   46.3880 F   0  0  0  0  0  0  0  0  0  0  0  0
   64.1370   32.3530   48.2730 F   0  0  0  0  0  0  0  0  0  0  0  0
   63.2790   33.2200   46.3760 F   0  0  0  0  0  0  0  0  0  0  0  0
   61.4670   30.4960   46.9230 N   0  0  0  0  0  0  0  0  0  0  0  0
   60.3320   30.2670   47.5630 N   0  0  0  0  0  0  0  0  0  0  0  0
   59.4480   29.1920   47.2070 C   0  0  0  0  0  0  0  0  0  0  0  0
   59.5250   27.9500   47.8590 C   0  0  0  0  0  0  0  0  0  0  0  0
   58.6400   26.9210   47.5230 C   0  0  0  0  0  0  0  0  0  0  0  0
   57.6630   27.1240   46.5410 C   0  0  0  0  0  0  0  0  0  0  0  0
   56.5400   25.8300   46.1340 S   0  0  0  0  0  0  0  0  0  0  0  0
   57.0420   25.0700   44.6070 C   0  0  0  0  0  0  0  0  0  0  0  0
   56.5280   24.7990   47.2270 O   0  0  0  0  0  0  0  0  0  0  0  0
   55.1530   26.3930   45.9860 O   0  0  0  0  0  0  0  0  0  0  0  0
   57.5640   28.3710   45.9100 C   0  0  0  0  0  0  0  0  0  0  0  0
   58.4490   29.4000   46.2460 C   0  0  0  0  0  0  0  0  0  0  0  0
   56.8384   31.6067   46.0213 H   0  0  0  0  0  0  0  0  0  0  0  0
   56.5374   32.6621   44.5993 H   0  0  0  0  0  0  0  0  0  0  0  0
   57.9334   31.5317   44.5993 H   0  0  0  0  0  0  0  0  0  0  0  0
   58.6008   34.1841   43.9096 H   0  0  0  0  0  0  0  0  0  0  0  0
   60.0863   35.9417   44.8669 H   0  0  0  0  0  0  0  0  0  0  0  0
   60.5088   36.0226   47.3249 H   0  0  0  0  0  0  0  0  0  0  0  0
   59.4268   34.3597   48.8328 H   0  0  0  0  0  0  0  0  0  0  0  0
   58.6979   33.2559   49.7857 H   0  0  0  0  0  0  0  0  0  0  0  0
   57.2953   32.1757   50.1078 H   0  0  0  0  0  0  0  0  0  0  0  0
   59.6090   31.2022   50.6331 H   0  0  0  0  0  0  0  0  0  0  0  0
   58.5491   30.2191   49.5432 H   0  0  0  0  0  0  0  0  0  0  0  0
   61.5292   32.8039   49.2801 H   0  0  0  0  0  0  0  0  0  0  0  0
   60.2849   27.7863   48.6373 H   0  0  0  0  0  0  0  0  0  0  0  0
   58.7116   25.9485   48.0320 H   0  0  0  0  0  0  0  0  0  0  0  0
   57.6364   24.1701   44.8234 H   0  0  0  0  0  0  0  0  0  0  0  0
   56.1507   24.7899   44.0265 H   0  0  0  0  0  0  0  0  0  0  0  0
   57.6495   25.7799   44.0265 H   0  0  0  0  0  0  0  0  0  0  0  0
   56.7884   28.5409   45.1487 H   0  0  0  0  0  0  0  0  0  0  0  0
   58.3607   30.3793   45.7529 H   0  0  0  0  0  0  0  0  0  0  0  0
  1  2  1  0
  2  3  2  0
  3  4  1  0
  4  5  2  0
  5  6  1  0
  6  7  2  0
  7  8  1  0
  8  9  1  0
  9 10  1  0
 10 11  1  0
 11 12  2  0
 12 13  1  0
 13 14  1  0
 14 15  1  0
 14 16  1  0
 14 17  1  0
 13 18  2  0
 18 19  1  0
 19 20  1  0
 20 21  2  0
 21 22  1  0
 22 23  2  0
 23 24  1  0
 24 25  1  0
 24 26  2  0
 24 27  2  0
 23 28  1  0
 28 29  2  0
  7  2  1  0
 19 11  1  0
 29 20  1  0
  1 30  1  0
  1 31  1  0
  1 32  1  0
  3 33  1  0
  4 34  1  0
  5 35  1  0
  6 36  1  0
  9 37  1  0
  9 38  1  0
 10 39  1  0
 10 40  1  0
 12 41  1  0
 21 42  1  0
 22 43  1  0
 25 44  1  0
 25 45  1  0
 25 46  1  0
 28 47  1  0
 29 48  1  0
M  END
>  <UniqueID>  (46) 
43

>  <SMILES>  (46) 
Cc1ccccc1OCCc1cc(C(F)(F)F)nn1-c1ccc(S(C)(=O)=O)cc1

>  <Energy>  (46) 
84.88376932263608

>  <Genealogy>  (46) 
Cc1ccccc1OCCc1cc(C(F)(F)F)nn1-c1ccc(S(C)(=O)=O)cc1 (3D coordinates assigned)
Cc1ccccc1OCCc1cc(C(F)(F)F)nn1-c1ccc(S(C)(=O)=O)cc1 (optimized conformer: 84.88376932263608 kcal/mol)

>  <smiles>  (46) 
Cc1ccccc1OCCc1cc(C(F)(F)F)nn1-c1ccc(S(C)(=O)=O)cc1

>  <score_type>  (46) 
oracle

>  <origin>  (46) 
adg

>  <m_score__min__energy>  (46) 
-8.2300000000000004

>  <m_primary>  (46) 
energy

$$$$
46:0
     RDKit          3D

 24 23  0  0  0  0  0  0  0  0999 V2000
   55.2630   29.7170   44.8660 N   0  0  0  0  0  0  0  0  0  0  0  0
   56.2620   29.3380   43.8670 C   0  0  0  0  0  0  0  0  0  0  0  0
   56.7220   30.5260   43.0020 C   0  0  0  0  0  0  0  0  0  0  0  0
   57.3360   31.6760   43.8180 C   0  0  0  0  0  0  0  0  0  0  0  0
   56.6450   31.8350   45.1090 N   0  0  0  0  0  0  0  0  0  0  0  0
   57.2420   32.8910   45.9470 C   0  0  0  0  0  0  0  0  0  0  0  0
   57.4170   34.2250   45.1920 C   0  0  0  0  0  0  0  0  0  0  0  0
   58.8850   34.6410   45.0330 C   0  0  0  0  0  0  0  0  0  0  0  0
   59.7140   34.9920   46.7530 Br  0  0  0  0  0  0  0  0  0  0  0  0
   54.8040   30.6120   44.5810 H   0  0  0  0  0  0  0  0  0  0  0  0
   55.7370   29.8670   45.7850 H   0  0  0  0  0  0  0  0  0  0  0  0
   57.1377   28.9215   44.3863 H   0  0  0  0  0  0  0  0  0  0  0  0
   55.7963   28.6009   43.1963 H   0  0  0  0  0  0  0  0  0  0  0  0
   57.4758   30.1650   42.2869 H   0  0  0  0  0  0  0  0  0  0  0  0
   55.8290   30.9260   42.4995 H   0  0  0  0  0  0  0  0  0  0  0  0
   58.3983   31.4586   44.0030 H   0  0  0  0  0  0  0  0  0  0  0  0
   57.2275   32.6089   43.2453 H   0  0  0  0  0  0  0  0  0  0  0  0
   56.6590   30.9200   45.6160 H   0  0  0  0  0  0  0  0  0  0  0  0
   56.5891   33.0617   46.8156 H   0  0  0  0  0  0  0  0  0  0  0  0
   58.2422   32.5479   46.2500 H   0  0  0  0  0  0  0  0  0  0  0  0
   56.9726   34.1212   44.1911 H   0  0  0  0  0  0  0  0  0  0  0  0
   56.9186   35.0050   45.7864 H   0  0  0  0  0  0  0  0  0  0  0  0
   59.4338   33.8311   44.5301 H   0  0  0  0  0  0  0  0  0  0  0  0
   58.9197   35.5653   44.4376 H   0  0  0  0  0  0  0  0  0  0  0  0
  1  2  1  0
  2  3  1  0
  3  4  1  0
  4  5  1  0
  5  6  1  0
  6  7  1  0
  7  8  1  0
  8  9  1  0
  1 10  1  0
  1 11  1  0
  2 12  1  0
  2 13  1  0
  3 14  1  0
  3 15  1  0
  4 16  1  0
  4 17  1  0
  5 18  1  0
  6 19  1  0
  6 20  1  0
  7 21  1  0
  7 22  1  0
  8 23  1  0
  8 24  1  0
M  END
>  <UniqueID>  (47) 
44

>  <SMILES>  (47) 
NCCCNCCCBr

>  <Energy>  (47) 
15.592785090906748

>  <Genealogy>  (47) 
NCCCNCCCBr (3D coordinates assigned)
NCCCNCCCBr (optimized conformer: 15.592785090906748 kcal/mol)

>  <smiles>  (47) 
NCCCNCCCBr

>  <score_type>  (47) 
oracle

>  <origin>  (47) 
adg

>  <m_score__min__energy>  (47) 
-4.6600000000000001

>  <m_primary>  (47) 
energy

$$$$
47:0
     RDKit          3D

 57 60  0  0  0  0  0  0  0  0999 V2000
   62.7260   33.3330   47.4120 C   0  0  0  0  0  0  0  0  0  0  0  0
   61.8410   33.8820   48.5290 C   0  0  0  0  0  0  0  0  0  0  0  0
   60.4180   33.5090   48.3180 N   0  0  0  0  0  0  0  0  0  0  0  0
   59.6470   34.6750   47.8170 C   0  0  0  0  0  0  0  0  0  0  0  0
   59.9220   34.8950   46.3320 C   0  0  0  0  0  0  0  0  0  0  0  0
   59.8290   32.9790   49.5740 C   0  0  0  0  0  0  0  0  0  0  0  0
   59.7310   31.4390   49.5590 C   0  0  0  0  0  0  0  0  0  0  0  0
   60.6590   30.8050   48.5950 N   0  0  0  0  0  0  0  0  0  0  0  0
   59.9840   29.8550   47.7350 C   0  0  0  0  0  0  0  0  0  0  0  0
   59.9480   28.4950   48.1150 C   0  0  0  0  0  0  0  0  0  0  0  0
   59.3760   27.5310   47.2820 C   0  0  0  0  0  0  0  0  0  0  0  0
   58.7890   27.9440   46.0920 C   0  0  0  0  0  0  0  0  0  0  0  0
   58.7040   29.2650   45.7380 C   0  0  0  0  0  0  0  0  0  0  0  0
   59.3520   30.2500   46.5110 C   0  0  0  0  0  0  0  0  0  0  0  0
   59.4200   31.6470   45.9770 C   0  0  0  0  0  0  0  0  0  0  0  0
   58.0290   32.1650   45.8250 C   0  0  0  0  0  0  0  0  0  0  0  0
   57.5150   32.7740   46.7520 O   0  0  0  0  0  0  0  0  0  0  0  0
   57.2320   31.9000   44.5780 C   0  0  1  0  0  0  0  0  0  0  0  0
   57.8240   32.5420   43.3170 C   0  0  0  0  0  0  0  0  0  0  0  0
   57.4940   31.5980   42.1680 C   0  0  0  0  0  0  0  0  0  0  0  0
   56.5890   30.5200   42.7430 C   0  0  0  0  0  0  0  0  0  0  0  0
   56.9390   30.4220   44.2390 C   0  0  1  0  0  0  0  0  0  0  0  0
   58.0410   29.4470   44.4750 N   0  0  0  0  0  0  0  0  0  0  0  0
   57.8980   28.0810   43.9230 C   0  0  0  0  0  0  0  0  0  0  0  0
   58.2300   27.0780   45.0410 C   0  0  0  0  0  0  0  0  0  0  0  0
   63.5831   32.8013   47.8511 H   0  0  0  0  0  0  0  0  0  0  0  0
   62.1427   32.6379   46.7902 H   0  0  0  0  0  0  0  0  0  0  0  0
   63.0896   34.1643   46.7902 H   0  0  0  0  0  0  0  0  0  0  0  0
   62.1810   33.4712   49.4911 H   0  0  0  0  0  0  0  0  0  0  0  0
   61.9179   34.9793   48.5276 H   0  0  0  0  0  0  0  0  0  0  0  0
   58.5727   34.4893   47.9632 H   0  0  0  0  0  0  0  0  0  0  0  0
   59.9542   35.5724   48.3740 H   0  0  0  0  0  0  0  0  0  0  0  0
   60.7760   35.5782   46.2145 H   0  0  0  0  0  0  0  0  0  0  0  0
   60.1551   33.9313   45.8556 H   0  0  0  0  0  0  0  0  0  0  0  0
   59.0330   35.3340   45.8556 H   0  0  0  0  0  0  0  0  0  0  0  0
   60.4605   33.2869   50.4204 H   0  0  0  0  0  0  0  0  0  0  0  0
   58.8110   33.3843   49.6705 H   0  0  0  0  0  0  0  0  0  0  0  0
   59.9636   31.0640   50.5666 H   0  0  0  0  0  0  0  0  0  0  0  0
   58.7084   31.1795   49.2475 H   0  0  0  0  0  0  0  0  0  0  0  0
   61.1470   31.5350   48.0260 H   0  0  0  0  0  0  0  0  0  0  0  0
   61.4220   30.3090   49.1120 H   0  0  0  0  0  0  0  0  0  0  0  0
   60.3768   28.1908   49.0812 H   0  0  0  0  0  0  0  0  0  0  0  0
   59.3898   26.4673   47.5619 H   0  0  0  0  0  0  0  0  0  0  0  0
   59.9789   32.2850   46.6774 H   0  0  0  0  0  0  0  0  0  0  0  0
   59.9326   31.6535   45.0038 H   0  0  0  0  0  0  0  0  0  0  0  0
   56.2796   32.3749   44.8562 H   0  0  0  0  0  0  0  0  0  0  0  0
   57.3709   33.5290   43.1424 H   0  0  0  0  0  0  0  0  0  0  0  0
   58.9093   32.6928   43.4143 H   0  0  0  0  0  0  0  0  0  0  0  0
   56.9745   32.1425   41.3658 H   0  0  0  0  0  0  0  0  0  0  0  0
   58.4069   31.1627   41.7354 H   0  0  0  0  0  0  0  0  0  0  0  0
   55.5329   30.8002   42.6156 H   0  0  0  0  0  0  0  0  0  0  0  0
   56.7361   29.5571   42.2319 H   0  0  0  0  0  0  0  0  0  0  0  0
   56.1589   30.0148   44.8990 H   0  0  0  0  0  0  0  0  0  0  0  0
   56.8658   27.9249   43.5762 H   0  0  0  0  0  0  0  0  0  0  0  0
   58.5785   27.9409   43.0702 H   0  0  0  0  0  0  0  0  0  0  0  0
   57.3250   26.5606   45.3922 H   0  0  0  0  0  0  0  0  0  0  0  0
   58.9145   26.2780   44.7226 H   0  0  0  0  0  0  0  0  0  0  0  0
  1  2  1  0
  2  3  1  0
  3  4  1  0
  4  5  1  0
  3  6  1  0
  6  7  1  0
  7  8  1  0
  8  9  1  0
  9 10  2  0
 10 11  1  0
 11 12  2  0
 12 13  1  0
 13 14  2  0
 14 15  1  0
 15 16  1  0
 16 17  2  0
 16 18  1  0
 18 19  1  0
 19 20  1  0
 20 21  1  0
 21 22  1  0
 22 23  1  0
 23 24  1  0
 24 25  1  0
 14  9  1  0
 22 18  1  0
 25 12  1  0
 23 13  1  0
  1 26  1  0
  1 27  1  0
  1 28  1  0
  2 29  1  0
  2 30  1  0
  4 31  1  0
  4 32  1  0
  5 33  1  0
  5 34  1  0
  5 35  1  0
  6 36  1  0
  6 37  1  0
  7 38  1  0
  7 39  1  0
  8 40  1  0
  8 41  1  0
 10 42  1  0
 11 43  1  0
 15 44  1  0
 15 45  1  0
 18 46  1  1
 19 47  1  0
 19 48  1  0
 20 49  1  0
 20 50  1  0
 21 51  1  0
 21 52  1  0
 22 53  1  1
 24 54  1  0
 24 55  1  0
 25 56  1  0
 25 57  1  0
M  CHG  1   8   1
M  END
>  <UniqueID>  (48) 
45

>  <SMILES>  (48) 
CCN(CC)CC[NH2+]c1ccc2c3c1CC(=O)[C@H]1CCC[C@H]1N3CC2

>  <Energy>  (48) 
89.88605900103921

>  <Genealogy>  (48) 
CCN(CC)CC[NH2+]c1ccc2c3c1CC(=O)C1CCCC1N3CC2 (protonated)
CCN(CC)CC[NH2+]c1ccc2c3c1CC(=O)[C@H]1CCC[C@H]1N3CC2 (chirality)
CCN(CC)CC[NH2+]c1ccc2c3c1CC(=O)[C@H]1CCC[C@H]1N3CC2 (3D coordinates assigned)
CCN(CC)CC[NH2+]c1ccc2c3c1CC(=O)[C@H]1CCC[C@H]1N3CC2 (nonaromatic ring conformer: 89.88605900103921 kcal/mol)

>  <smiles>  (48) 
CCN(CC)CCNc1ccc2c3c1CC(=O)C1CCCC1N3CC2

>  <score_type>  (48) 
oracle

>  <origin>  (48) 
adg

>  <m_score__min__energy>  (48) 
-5.4500000000000002

>  <m_primary>  (48) 
energy

$$$$
