0:0
     RDKit          3D

 66 68  0  0  0  0  0  0  0  0999 V2000
   61.9270   32.1760   48.2680 H   0  0  0  0  0  0  0  0  0  0  0  0
   62.0950   31.9730   47.3070 O   0  0  0  0  0  0  0  0  0  0  0  0
   63.0400   32.9100   46.8600 C   0  0  0  0  0  0  0  0  0  0  0  0
   62.5339   33.8690   46.6751 H   0  0  0  0  0  0  0  0  0  0  0  0
   63.4982   32.5271   45.9362 H   0  0  0  0  0  0  0  0  0  0  0  0
   64.1520   33.1230   47.9010 C   0  0  0  0  0  0  0  0  0  0  0  0
   64.2466   34.2014   48.0962 H   0  0  0  0  0  0  0  0  0  0  0  0
   65.0765   32.6965   47.4845 H   0  0  0  0  0  0  0  0  0  0  0  0
   63.8890   32.4370   49.1780 N   0  0  0  0  0  0  0  0  0  0  0  0
   62.9170   32.0460   49.1800 H   0  0  0  0  0  0  0  0  0  0  0  0
   64.0550   33.3210   50.3430 C   0  0  0  0  0  0  0  0  0  0  0  0
   64.9149   33.9855   50.1731 H   0  0  0  0  0  0  0  0  0  0  0  0
   64.2233   32.7023   51.2368 H   0  0  0  0  0  0  0  0  0  0  0  0
   62.7970   34.1700   50.5590 C   0  0  0  0  0  0  0  0  0  0  0  0
   63.0263   35.2116   50.2898 H   0  0  0  0  0  0  0  0  0  0  0  0
   62.5117   34.0733   51.6169 H   0  0  0  0  0  0  0  0  0  0  0  0
   61.6680   33.7230   49.7610 N   0  0  0  0  0  0  0  0  0  0  0  0
   60.4080   33.8100   50.0480 C   0  0  0  0  0  0  0  0  0  0  0  0
   60.1466   34.1512   51.0606 H   0  0  0  0  0  0  0  0  0  0  0  0
   59.2650   33.4840   49.1140 C   0  0  0  0  0  0  0  0  0  0  0  0
   58.9325   34.4113   48.6245 H   0  0  0  0  0  0  0  0  0  0  0  0
   58.4588   33.0346   49.7124 H   0  0  0  0  0  0  0  0  0  0  0  0
   59.6490   32.5190   48.0830 N   0  0  0  0  0  0  0  0  0  0  0  0
   60.2150   31.6980   48.3860 H   0  0  0  0  0  0  0  0  0  0  0  0
   59.2950   32.6420   46.6900 C   0  0  0  0  0  0  0  0  0  0  0  0
   59.1430   33.9230   46.1370 C   0  0  0  0  0  0  0  0  0  0  0  0
   59.4574   34.8054   46.7136 H   0  0  0  0  0  0  0  0  0  0  0  0
   58.6010   34.0880   44.8720 C   0  0  0  0  0  0  0  0  0  0  0  0
   58.5401   35.0931   44.4291 H   0  0  0  0  0  0  0  0  0  0  0  0
   58.1350   32.9910   44.1620 C   0  0  0  0  0  0  0  0  0  0  0  0
   57.6658   33.1439   43.1789 H   0  0  0  0  0  0  0  0  0  0  0  0
   58.2520   31.6790   44.6790 C   0  0  0  0  0  0  0  0  0  0  0  0
   58.9610   31.4960   45.9020 C   0  0  0  0  0  0  0  0  0  0  0  0
   59.3460   30.1820   46.2630 C   0  0  0  0  0  0  0  0  0  0  0  0
   60.3370   29.9610   47.2790 N   0  0  0  0  0  0  0  0  0  0  0  0
   61.0870   30.6810   47.3910 H   0  0  0  0  0  0  0  0  0  0  0  0
   60.0580   29.0860   48.4190 C   0  0  0  0  0  0  0  0  0  0  0  0
   60.0129   28.0438   48.0701 H   0  0  0  0  0  0  0  0  0  0  0  0
   59.0974   29.3850   48.8638 H   0  0  0  0  0  0  0  0  0  0  0  0
   61.1460   29.2100   49.4820 C   0  0  0  0  0  0  0  0  0  0  0  0
   62.0244   28.6237   49.1743 H   0  0  0  0  0  0  0  0  0  0  0  0
   60.7604   28.8298   50.4395 H   0  0  0  0  0  0  0  0  0  0  0  0
   61.5330   30.6180   49.6430 N   0  0  0  0  0  0  0  0  0  0  0  0
   62.3950   30.7760   49.0720 H   0  0  0  0  0  0  0  0  0  0  0  0
   61.8690   30.9250   51.0410 C   0  0  0  0  0  0  0  0  0  0  0  0
   61.0095   30.6780   51.6815 H   0  0  0  0  0  0  0  0  0  0  0  0
   62.1088   31.9956   51.1201 H   0  0  0  0  0  0  0  0  0  0  0  0
   63.0810   30.1160   51.4950 C   0  0  0  0  0  0  0  0  0  0  0  0
   63.1156   30.0929   52.5942 H   0  0  0  0  0  0  0  0  0  0  0  0
   63.0018   29.0890   51.1090 H   0  0  0  0  0  0  0  0  0  0  0  0
   63.9991   30.5830   51.1090 H   0  0  0  0  0  0  0  0  0  0  0  0
   58.9010   29.0880   45.4980 C   0  0  0  0  0  0  0  0  0  0  0  0
   59.2560   27.7680   45.8570 C   0  0  0  0  0  0  0  0  0  0  0  0
   59.8495   27.5935   46.7666 H   0  0  0  0  0  0  0  0  0  0  0  0
   58.8640   26.6860   45.0740 C   0  0  0  0  0  0  0  0  0  0  0  0
   59.1384   25.6633   45.3719 H   0  0  0  0  0  0  0  0  0  0  0  0
   58.1260   26.8980   43.9160 C   0  0  0  0  0  0  0  0  0  0  0  0
   57.8330   26.0433   43.2886 H   0  0  0  0  0  0  0  0  0  0  0  0
   57.7560   28.1890   43.5470 C   0  0  0  0  0  0  0  0  0  0  0  0
   57.1853   28.3434   42.6194 H   0  0  0  0  0  0  0  0  0  0  0  0
   58.1030   29.3100   44.3480 C   0  0  0  0  0  0  0  0  0  0  0  0
   57.7210   30.5930   44.0060 N   0  0  0  0  0  0  0  0  0  0  0  0
   56.7070   30.8050   42.9470 C   0  0  0  0  0  0  0  0  0  0  0  0
   55.7304   31.0092   43.4101 H   0  0  0  0  0  0  0  0  0  0  0  0
   57.0027   31.6607   42.3223 H   0  0  0  0  0  0  0  0  0  0  0  0
   56.6351   29.9025   42.3223 H   0  0  0  0  0  0  0  0  0  0  0  0
  1  2  1  0
  2  3  1  0
  3  4  1  0
  3  5  1  0
  3  6  1  0
  6  7  1  0
  6  8  1  0
  6  9  1  0
  9 10  1  0
  9 11  1  0
 11 12  1  0
 11 13  1  0
 11 14  1  0
 14 15  1  0
 14 16  1  0
 14 17  1  0
 17 18  2  0
 18 19  1  0
 18 20  1  0
 20 21  1  0
 20 22  1  0
 20 23  1  0
 23 24  1  0
 23 25  1  0
 25 26  2  0
 26 27  1  0
 26 28  1  0
 28 29  1  0
 28 30  2  0
 30 31  1  0
 30 32  1  0
 32 33  2  0
 33 34  1  0
 34 35  1  0
 35 36  1  0
 35 37  1  0
 37 38  1  0
 37 39  1  0
 37 40  1  0
 40 41  1  0
 40 42  1  0
 40 43  1  0
 43 44  1  0
 43 45  1  0
 45 46  1  0
 45 47  1  0
 45 48  1  0
 48 49  1  0
 48 50  1  0
 48 51  1  0
 34 52  2  0
 52 53  1  0
 53 54  1  0
 53 55  2  0
 55 56  1  0
 55 57  1  0
 57 58  1  0
 57 59  2  0
 59 60  1  0
 59 61  1  0
 61 62  2  0
 62 63  1  0
 63 64  1  0
 63 65  1  0
 63 66  1  0
 33 25  1  0
 61 52  1  0
 62 32  1  0
M  CHG  1  62   1
M  END
>  <UniqueID>  (1) 
1

>  <SMILES>  (1) 
CCNCCNc1c2ccccc2[n+](C)c2cccc(NC/C=N\CCNCCO)c12

>  <Energy>  (1) 
96.19372154418555

>  <Genealogy>  (1) 
CCNCCNc1c2ccccc2[n+](C)c2cccc(NC/C=N\CCNCCO)c12 (cis-trans isomerization)
CCNCCNc1c2ccccc2[n+](C)c2cccc(NC/C=N\CCNCCO)c12 (3D coordinates assigned)
CCNCCNc1c2ccccc2[n+](C)c2cccc(NC/C=N\CCNCCO)c12 (optimized conformer: 96.19372154418555 kcal/mol)

>  <smiles>  (1) 
CCNCCNc1c2ccccc2[n+](C)c2cccc(NCC=NCCNCCO)c12

>  <score_type>  (1) 
oracle

>  <origin>  (1) 
adg

>  <m_score__min__energy>  (1) 
-3.1800000000000002

>  <m_primary>  (1) 
energy

$$$$
1:0
     RDKit          3D

 50 53  0  0  0  0  0  0  0  0999 V2000
   60.1100   30.6250   49.3850 C   0  0  0  0  0  0  0  0  0  0  0  0
   60.3900   31.5100   48.2570 N   0  0  0  0  0  0  0  0  0  0  0  0
   59.4860   32.2240   47.5490 C   0  0  0  0  0  0  0  0  0  0  0  0
   60.0710   33.1520   46.7630 C   0  0  0  0  0  0  0  0  0  0  0  0
   61.4260   33.0660   46.9990 C   0  0  0  0  0  0  0  0  0  0  0  0
   62.4830   33.8910   46.6210 C   0  0  0  0  0  0  0  0  0  0  0  0
   63.7570   33.6020   47.1390 C   0  0  0  0  0  0  0  0  0  0  0  0
   63.9370   32.5350   48.0460 C   0  0  0  0  0  0  0  0  0  0  0  0
   62.8430   31.7490   48.4520 C   0  0  0  0  0  0  0  0  0  0  0  0
   61.5900   32.0330   47.9040 C   0  0  0  0  0  0  0  0  0  0  0  0
   59.1640   34.2600   46.3800 C   0  0  1  0  0  0  0  0  0  0  0  0
   58.9910   34.3470   44.8530 C   0  0  0  0  0  0  0  0  0  0  0  0
   57.6650   33.8550   44.4470 N   0  0  0  0  0  0  0  0  0  0  0  0
   57.7300   32.5690   43.7310 C   0  0  0  0  0  0  0  0  0  0  0  0
   58.5180   31.5040   44.5200 C   0  0  0  0  0  0  0  0  0  0  0  0
   58.0330   30.1390   44.2160 N   0  0  0  0  0  0  0  0  0  0  0  0
   57.8520   29.3340   45.4490 C   0  0  0  0  0  0  0  0  0  0  0  0
   56.8170   28.2160   45.2390 C   0  0  0  0  0  0  0  0  0  0  0  0
   55.5230   28.6970   44.9040 O   0  0  0  0  0  0  0  0  0  0  0  0
   55.5350   29.9420   44.2170 C   0  0  0  0  0  0  0  0  0  0  0  0
   56.8070   30.1720   43.3800 C   0  0  0  0  0  0  0  0  0  0  0  0
   57.8340   33.8600   47.0920 C   0  0  0  0  0  0  0  0  0  0  0  0
   58.0780   32.5400   47.8700 C   0  0  0  0  0  0  0  0  0  0  0  0
   60.2813   31.1664   50.3271 H   0  0  0  0  0  0  0  0  0  0  0  0
   59.0626   30.2920   49.3386 H   0  0  0  0  0  0  0  0  0  0  0  0
   60.7753   29.7502   49.3386 H   0  0  0  0  0  0  0  0  0  0  0  0
   62.3257   34.7403   45.9398 H   0  0  0  0  0  0  0  0  0  0  0  0
   64.6207   34.2118   46.8355 H   0  0  0  0  0  0  0  0  0  0  0  0
   64.9411   32.3164   48.4385 H   0  0  0  0  0  0  0  0  0  0  0  0
   62.9708   30.9343   49.1800 H   0  0  0  0  0  0  0  0  0  0  0  0
   59.5341   35.2541   46.6712 H   0  0  0  0  0  0  0  0  0  0  0  0
   59.0986   35.3952   44.5373 H   0  0  0  0  0  0  0  0  0  0  0  0
   59.7598   33.7217   44.3755 H   0  0  0  0  0  0  0  0  0  0  0  0
   57.2000   34.5720   43.8430 H   0  0  0  0  0  0  0  0  0  0  0  0
   56.7059   32.2027   43.5664 H   0  0  0  0  0  0  0  0  0  0  0  0
   58.2517   32.7386   42.7776 H   0  0  0  0  0  0  0  0  0  0  0  0
   59.5823   31.5739   44.2511 H   0  0  0  0  0  0  0  0  0  0  0  0
   58.3740   31.6916   45.5943 H   0  0  0  0  0  0  0  0  0  0  0  0
   58.8158   28.8826   45.7270 H   0  0  0  0  0  0  0  0  0  0  0  0
   57.4889   29.9981   46.2472 H   0  0  0  0  0  0  0  0  0  0  0  0
   57.1680   27.5651   44.4247 H   0  0  0  0  0  0  0  0  0  0  0  0
   56.7247   27.6773   46.1936 H   0  0  0  0  0  0  0  0  0  0  0  0
   54.6652   29.9765   43.5445 H   0  0  0  0  0  0  0  0  0  0  0  0
   55.5045   30.7325   44.9813 H   0  0  0  0  0  0  0  0  0  0  0  0
   56.8767   29.3844   42.6152 H   0  0  0  0  0  0  0  0  0  0  0  0
   56.7359   31.1679   42.9183 H   0  0  0  0  0  0  0  0  0  0  0  0
   57.5327   34.6540   47.7912 H   0  0  0  0  0  0  0  0  0  0  0  0
   57.0332   33.7214   46.3507 H   0  0  0  0  0  0  0  0  0  0  0  0
   57.9419   32.6870   48.9516 H   0  0  0  0  0  0  0  0  0  0  0  0
   57.3785   31.7371   47.5942 H   0  0  0  0  0  0  0  0  0  0  0  0
  1  2  1  0
  2  3  1  0
  3  4  2  0
  4  5  1  0
  5  6  2  0
  6  7  1  0
  7  8  2  0
  8  9  1  0
  9 10  2  0
  4 11  1  0
 11 12  1  0
 12 13  1  0
 13 14  1  0
 14 15  1  0
 15 16  1  0
 16 17  1  0
 17 18  1  0
 18 19  1  0
 19 20  1  0
 20 21  1  0
 11 22  1  0
 22 23  1  0
 10  2  1  0
 21 16  1  0
 23  3  1  0
 10  5  1  0
  1 24  1  0
  1 25  1  0
  1 26  1  0
  6 27  1  0
  7 28  1  0
  8 29  1  0
  9 30  1  0
 11 31  1  1
 12 32  1  0
 12 33  1  0
 13 34  1  0
 14 35  1  0
 14 36  1  0
 15 37  1  0
 15 38  1  0
 17 39  1  0
 17 40  1  0
 18 41  1  0
 18 42  1  0
 20 43  1  0
 20 44  1  0
 21 45  1  0
 21 46  1  0
 22 47  1  0
 22 48  1  0
 23 49  1  0
 23 50  1  0
M  END
>  <UniqueID>  (2) 
2

>  <SMILES>  (2) 
Cn1c2c(c3ccccc31)[C@@H](CNCCN1CCOCC1)CC2

>  <Energy>  (2) 
120.01228821270455

>  <Genealogy>  (2) 
Cn1c2c(c3ccccc31)[C@@H](CNCCN1CCOCC1)CC2 (chirality)
Cn1c2c(c3ccccc31)[C@@H](CNCCN1CCOCC1)CC2 (3D coordinates assigned)
Cn1c2c(c3ccccc31)[C@@H](CNCCN1CCOCC1)CC2 (nonaromatic ring conformer: 120.01228821270455 kcal/mol)

>  <smiles>  (2) 
Cn1c2c(c3ccccc31)C(CNCCN1CCOCC1)CC2

>  <score_type>  (2) 
oracle

>  <origin>  (2) 
adg

>  <m_score__min__energy>  (2) 
-7.9100000000000001

>  <m_primary>  (2) 
energy

$$$$
2:0
     RDKit          3D

 70 72  0  0  0  0  0  0  0  0999 V2000
   64.1100   32.0090   49.1450 C   0  0  0  0  0  0  0  0  0  0  0  0
   63.1060   33.1350   49.3750 C   0  0  0  0  0  0  0  0  0  0  0  0
   61.9450   32.9800   48.4660 N   0  0  0  0  0  0  0  0  0  0  0  0
   62.3810   32.5720   47.1090 C   0  0  0  0  0  0  0  0  0  0  0  0
   63.0630   33.7400   46.3990 C   0  0  0  0  0  0  0  0  0  0  0  0
   61.1350   34.2180   48.4150 C   0  0  0  0  0  0  0  0  0  0  0  0
   60.0540   34.1920   49.5030 C   0  0  0  0  0  0  0  0  0  0  0  0
   59.5700   32.8750   49.6890 O   0  0  0  0  0  0  0  0  0  0  0  0
   59.6010   32.5000   51.0550 C   0  0  0  0  0  0  0  0  0  0  0  0
   60.8780   31.7160   51.3660 C   0  0  0  0  0  0  0  0  0  0  0  0
   61.1990   30.8730   50.2750 O   0  0  0  0  0  0  0  0  0  0  0  0
   60.4210   29.6940   50.3130 C   0  0  0  0  0  0  0  0  0  0  0  0
   59.3510   29.7590   49.2250 C   0  0  0  0  0  0  0  0  0  0  0  0
   59.7800   30.6060   48.1130 N   0  0  0  0  0  0  0  0  0  0  0  0
   59.1280   30.5070   46.8390 C   0  0  0  0  0  0  0  0  0  0  0  0
   58.6670   31.6610   46.1950 C   0  0  0  0  0  0  0  0  0  0  0  0
   58.0950   31.5680   44.9130 C   0  0  0  0  0  0  0  0  0  0  0  0
   57.8730   30.3340   44.3250 N   0  0  0  0  0  0  0  0  0  0  0  0
   57.0740   30.2470   43.0800 C   0  0  0  0  0  0  0  0  0  0  0  0
   55.6610   29.7400   43.3690 C   0  0  0  0  0  0  0  0  0  0  0  0
   58.3710   29.1870   44.9270 C   0  0  0  0  0  0  0  0  0  0  0  0
   58.3120   27.9160   44.2940 C   0  0  0  0  0  0  0  0  0  0  0  0
   58.7970   26.7710   44.9260 C   0  0  0  0  0  0  0  0  0  0  0  0
   59.3670   26.8540   46.1900 C   0  0  0  0  0  0  0  0  0  0  0  0
   59.4720   28.0880   46.8250 C   0  0  0  0  0  0  0  0  0  0  0  0
   58.9890   29.2610   46.2080 C   0  0  0  0  0  0  0  0  0  0  0  0
   57.8270   32.8980   44.2190 C   0  0  0  0  0  0  0  0  0  0  0  0
   57.0240   33.8410   45.1270 C   0  0  0  0  0  0  0  0  0  0  0  0
   57.4870   33.8340   46.6030 C   0  0  0  0  0  0  0  0  0  0  0  0
   58.7740   33.0290   46.8410 C   0  0  0  0  0  0  0  0  0  0  0  0
   64.4553   31.6218   50.1150 H   0  0  0  0  0  0  0  0  0  0  0  0
   63.6289   31.1991   48.5771 H   0  0  0  0  0  0  0  0  0  0  0  0
   64.9696   32.3945   48.5771 H   0  0  0  0  0  0  0  0  0  0  0  0
   62.7576   33.1036   50.4179 H   0  0  0  0  0  0  0  0  0  0  0  0
   63.5951   34.0989   49.1711 H   0  0  0  0  0  0  0  0  0  0  0  0
   63.0889   31.7341   47.1917 H   0  0  0  0  0  0  0  0  0  0  0  0
   61.4998   32.2641   46.5270 H   0  0  0  0  0  0  0  0  0  0  0  0
   63.4698   34.4366   47.1468 H   0  0  0  0  0  0  0  0  0  0  0  0
   63.8808   33.3594   45.7694 H   0  0  0  0  0  0  0  0  0  0  0  0
   62.3296   34.2651   45.7694 H   0  0  0  0  0  0  0  0  0  0  0  0
   61.7900   35.0871   48.5750 H   0  0  0  0  0  0  0  0  0  0  0  0
   60.6499   34.2880   47.4302 H   0  0  0  0  0  0  0  0  0  0  0  0
   60.4826   34.5571   50.4480 H   0  0  0  0  0  0  0  0  0  0  0  0
   59.2195   34.8372   49.1911 H   0  0  0  0  0  0  0  0  0  0  0  0
   59.5704   33.4049   51.6797 H   0  0  0  0  0  0  0  0  0  0  0  0
   58.7306   31.8623   51.2690 H   0  0  0  0  0  0  0  0  0  0  0  0
   61.7055   32.4195   51.5401 H   0  0  0  0  0  0  0  0  0  0  0  0
   60.7186   31.1027   52.2651 H   0  0  0  0  0  0  0  0  0  0  0  0
   61.0680   28.8213   50.1402 H   0  0  0  0  0  0  0  0  0  0  0  0
   59.9396   29.6022   51.2978 H   0  0  0  0  0  0  0  0  0  0  0  0
   59.1589   28.7432   48.8492 H   0  0  0  0  0  0  0  0  0  0  0  0
   58.4372   30.1904   49.6597 H   0  0  0  0  0  0  0  0  0  0  0  0
   60.4080   31.4240   48.2850 H   0  0  0  0  0  0  0  0  0  0  0  0
   57.0112   31.2454   42.6226 H   0  0  0  0  0  0  0  0  0  0  0  0
   57.5667   29.5398   42.3966 H   0  0  0  0  0  0  0  0  0  0  0  0
   55.5066   29.6846   44.4567 H   0  0  0  0  0  0  0  0  0  0  0  0
   54.9265   30.4307   42.9291 H   0  0  0  0  0  0  0  0  0  0  0  0
   55.5332   28.7399   42.9291 H   0  0  0  0  0  0  0  0  0  0  0  0
   57.8760   27.8337   43.2875 H   0  0  0  0  0  0  0  0  0  0  0  0
   58.7277   25.7965   44.4204 H   0  0  0  0  0  0  0  0  0  0  0  0
   59.7351   25.9452   46.6886 H   0  0  0  0  0  0  0  0  0  0  0  0
   59.9372   28.1494   47.8199 H   0  0  0  0  0  0  0  0  0  0  0  0
   58.7871   33.3722   43.9673 H   0  0  0  0  0  0  0  0  0  0  0  0
   57.2413   32.7060   43.3079 H   0  0  0  0  0  0  0  0  0  0  0  0
   57.1235   34.8649   44.7376 H   0  0  0  0  0  0  0  0  0  0  0  0
   55.9833   33.4849   45.1169 H   0  0  0  0  0  0  0  0  0  0  0  0
   57.6641   34.8733   46.9167 H   0  0  0  0  0  0  0  0  0  0  0  0
   56.6912   33.3498   47.1880 H   0  0  0  0  0  0  0  0  0  0  0  0
   59.6264   33.5704   46.4049 H   0  0  0  0  0  0  0  0  0  0  0  0
   58.9216   32.9026   47.9237 H   0  0  0  0  0  0  0  0  0  0  0  0
  1  2  1  0
  2  3  1  0
  3  4  1  0
  4  5  1  0
  3  6  1  0
  6  7  1  0
  7  8  1  0
  8  9  1  0
  9 10  1  0
 10 11  1  0
 11 12  1  0
 12 13  1  0
 13 14  1  0
 14 15  1  0
 15 16  2  0
 16 17  1  0
 17 18  2  0
 18 19  1  0
 19 20  1  0
 18 21  1  0
 21 22  2  0
 22 23  1  0
 23 24  2  0
 24 25  1  0
 25 26  2  0
 17 27  1  0
 27 28  1  0
 28 29  1  0
 29 30  1  0
 26 15  1  0
 30 16  1  0
 26 21  1  0
  1 31  1  0
  1 32  1  0
  1 33  1  0
  2 34  1  0
  2 35  1  0
  4 36  1  0
  4 37  1  0
  5 38  1  0
  5 39  1  0
  5 40  1  0
  6 41  1  0
  6 42  1  0
  7 43  1  0
  7 44  1  0
  9 45  1  0
  9 46  1  0
 10 47  1  0
 10 48  1  0
 12 49  1  0
 12 50  1  0
 13 51  1  0
 13 52  1  0
 14 53  1  0
 19 54  1  0
 19 55  1  0
 20 56  1  0
 20 57  1  0
 20 58  1  0
 22 59  1  0
 23 60  1  0
 24 61  1  0
 25 62  1  0
 27 63  1  0
 27 64  1  0
 28 65  1  0
 28 66  1  0
 29 67  1  0
 29 68  1  0
 30 69  1  0
 30 70  1  0
M  CHG  1  18   1
M  END
>  <UniqueID>  (3) 
3

>  <SMILES>  (3) 
CCN(CC)CCOCCOCCNc1c2c([n+](CC)c3ccccc13)CCCC2

>  <Energy>  (3) 
92.9883869731824

>  <Genealogy>  (3) 
CCN(CC)CCOCCOCCNc1c2c([n+](CC)c3ccccc13)CCCC2 (3D coordinates assigned)
CCN(CC)CCOCCOCCNc1c2c([n+](CC)c3ccccc13)CCCC2 (nonaromatic ring conformer: 92.9883869731824 kcal/mol)

>  <smiles>  (3) 
CCN(CC)CCOCCOCCNc1c2c([n+](CC)c3ccccc13)CCCC2

>  <score_type>  (3) 
oracle

>  <origin>  (3) 
adg

>  <m_score__min__energy>  (3) 
-5.1900000000000004

>  <m_primary>  (3) 
energy

$$$$
3:0
     RDKit          3D

 49 52  0  0  0  0  0  0  0  0999 V2000
   56.2850   29.7700   42.9390 C   0  0  0  0  0  0  0  0  0  0  0  0
   57.3840   30.0890   43.9400 C   0  0  0  0  0  0  0  0  0  0  0  0
   56.8590   30.9120   44.9590 O   0  0  0  0  0  0  0  0  0  0  0  0
   57.7350   31.9910   45.2280 C   0  0  0  0  0  0  0  0  0  0  0  0
   56.9380   33.2650   45.5280 C   0  0  0  0  0  0  0  0  0  0  0  0
   57.7480   34.2300   46.2020 O   0  0  0  0  0  0  0  0  0  0  0  0
   59.0380   34.0090   46.7130 C   0  0  0  0  0  0  0  0  0  0  0  0
   60.1250   34.3690   45.9190 C   0  0  0  0  0  0  0  0  0  0  0  0
   61.4280   34.1780   46.3700 C   0  0  0  0  0  0  0  0  0  0  0  0
   61.6750   33.6180   47.6340 C   0  0  0  0  0  0  0  0  0  0  0  0
   60.5810   33.2330   48.4640 C   0  0  0  0  0  0  0  0  0  0  0  0
   59.2700   33.4360   47.9760 C   0  0  0  0  0  0  0  0  0  0  0  0
   60.7780   32.6080   49.8680 C   0  0  0  0  0  0  0  0  0  0  0  0
   60.1500   31.2000   49.8990 C   0  0  0  0  0  0  0  0  0  0  0  0
   60.1110   33.5080   50.9300 C   0  0  0  0  0  0  0  0  0  0  0  0
   62.2470   32.4700   50.2300 C   0  0  0  0  0  0  0  0  0  0  0  0
   62.7270   31.9610   51.3910 N   0  0  0  0  0  0  0  0  0  0  0  0
   64.0680   32.0240   51.2910 C   0  0  0  0  0  0  0  0  0  0  0  0
   65.0030   31.6150   52.2410 C   0  0  0  0  0  0  0  0  0  0  0  0
   66.3660   31.7710   51.9320 C   0  0  0  0  0  0  0  0  0  0  0  0
   66.7610   32.3270   50.6950 C   0  0  0  0  0  0  0  0  0  0  0  0
   65.7970   32.7310   49.7530 C   0  0  0  0  0  0  0  0  0  0  0  0
   64.4520   32.5640   50.0880 C   0  0  0  0  0  0  0  0  0  0  0  0
   63.2860   32.8510   49.4060 C   0  0  0  0  0  0  0  0  0  0  0  0
   63.0700   33.4330   48.0880 C   0  0  0  0  0  0  0  0  0  0  0  0
   64.0460   33.7660   47.3650 O   0  0  0  0  0  0  0  0  0  0  0  0
   55.3642   29.5027   43.4782 H   0  0  0  0  0  0  0  0  0  0  0  0
   56.0975   30.6508   42.3073 H   0  0  0  0  0  0  0  0  0  0  0  0
   56.5982   28.9257   42.3073 H   0  0  0  0  0  0  0  0  0  0  0  0
   57.7631   29.1549   44.3802 H   0  0  0  0  0  0  0  0  0  0  0  0
   58.2074   30.6112   43.4308 H   0  0  0  0  0  0  0  0  0  0  0  0
   58.3605   31.7417   46.0978 H   0  0  0  0  0  0  0  0  0  0  0  0
   58.3672   32.1656   44.3449 H   0  0  0  0  0  0  0  0  0  0  0  0
   56.5785   33.6954   44.5817 H   0  0  0  0  0  0  0  0  0  0  0  0
   56.0910   33.0029   46.1791 H   0  0  0  0  0  0  0  0  0  0  0  0
   59.9517   34.8086   44.9257 H   0  0  0  0  0  0  0  0  0  0  0  0
   62.2735   34.4689   45.7293 H   0  0  0  0  0  0  0  0  0  0  0  0
   58.4125   33.1392   48.5978 H   0  0  0  0  0  0  0  0  0  0  0  0
   60.0092   30.8842   50.9433 H   0  0  0  0  0  0  0  0  0  0  0  0
   59.1762   31.2215   49.3879 H   0  0  0  0  0  0  0  0  0  0  0  0
   60.8167   30.4898   49.3879 H   0  0  0  0  0  0  0  0  0  0  0  0
   60.3774   33.1485   51.9349 H   0  0  0  0  0  0  0  0  0  0  0  0
   60.4617   34.5432   50.8060 H   0  0  0  0  0  0  0  0  0  0  0  0
   59.0186   33.4736   50.8060 H   0  0  0  0  0  0  0  0  0  0  0  0
   62.1770   31.5940   52.1990 H   0  0  0  0  0  0  0  0  0  0  0  0
   64.6846   31.1840   53.2017 H   0  0  0  0  0  0  0  0  0  0  0  0
   67.1300   31.4578   52.6588 H   0  0  0  0  0  0  0  0  0  0  0  0
   67.8305   32.4451   50.4664 H   0  0  0  0  0  0  0  0  0  0  0  0
   66.0929   33.1635   48.7859 H   0  0  0  0  0  0  0  0  0  0  0  0
  1  2  1  0
  2  3  1  0
  3  4  1  0
  4  5  1  0
  5  6  1  0
  6  7  1  0
  7  8  2  0
  8  9  1  0
  9 10  2  0
 10 11  1  0
 11 12  2  0
 11 13  1  0
 13 14  1  0
 13 15  1  0
 13 16  1  0
 16 17  1  0
 17 18  1  0
 18 19  2  0
 19 20  1  0
 20 21  2  0
 21 22  1  0
 22 23  2  0
 23 24  1  0
 24 25  1  0
 25 26  2  0
 12  7  1  0
 24 16  2  0
 25 10  1  0
 23 18  1  0
  1 27  1  0
  1 28  1  0
  1 29  1  0
  2 30  1  0
  2 31  1  0
  4 32  1  0
  4 33  1  0
  5 34  1  0
  5 35  1  0
  8 36  1  0
  9 37  1  0
 12 38  1  0
 14 39  1  0
 14 40  1  0
 14 41  1  0
 15 42  1  0
 15 43  1  0
 15 44  1  0
 17 45  1  0
 19 46  1  0
 20 47  1  0
 21 48  1  0
 22 49  1  0
M  END
>  <UniqueID>  (4) 
4

>  <SMILES>  (4) 
CCOCCOc1ccc2c(c1)C(C)(C)c1[nH]c3ccccc3c1C2=O

>  <Energy>  (4) 
88.9987383867622

>  <Genealogy>  (4) 
CCOCCOc1ccc2c(c1)C(C)(C)c1[nH]c3ccccc3c1C2=O (3D coordinates assigned)
CCOCCOc1ccc2c(c1)C(C)(C)c1[nH]c3ccccc3c1C2=O (nonaromatic ring conformer: 88.9987383867622 kcal/mol)

>  <smiles>  (4) 
CCOCCOc1ccc2c(c1)C(C)(C)c1[nH]c3ccccc3c1C2=O

>  <score_type>  (4) 
oracle

>  <origin>  (4) 
adg

>  <m_score__min__energy>  (4) 
-7.9500000000000002

>  <m_primary>  (4) 
energy

$$$$
4:0
     RDKit          3D

 54 56  0  0  0  0  0  0  0  0999 V2000
   57.6426   29.8694   53.9670 H   0  0  0  0  0  0  0  0  0  0  0  0
   57.8950   29.2120   53.1220 C   0  0  0  0  0  0  0  0  0  0  0  0
   57.2410   29.3420   52.0090 N   0  0  0  0  0  0  0  0  0  0  0  0
   57.4000   30.4410   51.1950 O   0  0  0  0  0  0  0  0  0  0  0  0
   56.9840   31.7250   51.6270 C   0  0  0  0  0  0  0  0  0  0  0  0
   56.4908   31.6406   52.6066 H   0  0  0  0  0  0  0  0  0  0  0  0
   56.2779   32.1472   50.8968 H   0  0  0  0  0  0  0  0  0  0  0  0
   58.1940   32.6340   51.7460 C   0  0  0  0  0  0  0  0  0  0  0  0
   58.4213   32.8047   52.8086 H   0  0  0  0  0  0  0  0  0  0  0  0
   59.0582   32.1599   51.2578 H   0  0  0  0  0  0  0  0  0  0  0  0
   57.9793   33.5961   51.2578 H   0  0  0  0  0  0  0  0  0  0  0  0
   58.9860   28.1930   53.2950 C   0  0  0  0  0  0  0  0  0  0  0  0
   59.4893   28.3644   54.2580 H   0  0  0  0  0  0  0  0  0  0  0  0
   58.5364   27.1894   53.2693 H   0  0  0  0  0  0  0  0  0  0  0  0
   60.0210   28.2970   52.1600 C   0  0  0  0  0  0  0  0  0  0  0  0
   60.9900   28.5902   52.5901 H   0  0  0  0  0  0  0  0  0  0  0  0
   60.0818   27.3152   51.6677 H   0  0  0  0  0  0  0  0  0  0  0  0
   59.6330   29.2920   51.1400 N   0  0  0  0  0  0  0  0  0  0  0  0
   58.8270   28.9240   50.5820 H   0  0  0  0  0  0  0  0  0  0  0  0
   59.2920   30.1560   51.6230 H   0  0  0  0  0  0  0  0  0  0  0  0
   60.7280   29.6470   50.2160 C   0  0  0  0  0  0  0  0  0  0  0  0
   61.6584   29.7493   50.7939 H   0  0  0  0  0  0  0  0  0  0  0  0
   60.8051   28.8469   49.4651 H   0  0  0  0  0  0  0  0  0  0  0  0
   60.4630   30.9650   49.4700 C   0  0  0  0  0  0  0  0  0  0  0  0
   60.5952   31.8082   50.1640 H   0  0  0  0  0  0  0  0  0  0  0  0
   61.1717   31.0525   48.6333 H   0  0  0  0  0  0  0  0  0  0  0  0
   59.1000   30.9820   48.9440 N   0  0  0  0  0  0  0  0  0  0  0  0
   58.3330   30.6180   49.5550 H   0  0  0  0  0  0  0  0  0  0  0  0
   58.8490   31.1430   47.5370 C   0  0  0  0  0  0  0  0  0  0  0  0
   58.5720   30.0230   46.7350 C   0  0  0  0  0  0  0  0  0  0  0  0
   58.6370   28.7180   47.2680 C   0  0  0  0  0  0  0  0  0  0  0  0
   58.8876   28.5769   48.3297 H   0  0  0  0  0  0  0  0  0  0  0  0
   58.3880   27.6070   46.4670 C   0  0  0  0  0  0  0  0  0  0  0  0
   58.4200   26.5972   46.9022 H   0  0  0  0  0  0  0  0  0  0  0  0
   58.0990   27.7730   45.1180 C   0  0  0  0  0  0  0  0  0  0  0  0
   57.9160   26.8925   44.4845 H   0  0  0  0  0  0  0  0  0  0  0  0
   58.0400   29.0520   44.5640 C   0  0  0  0  0  0  0  0  0  0  0  0
   57.8274   29.1679   43.4910 H   0  0  0  0  0  0  0  0  0  0  0  0
   58.2500   30.2060   45.3630 C   0  0  0  0  0  0  0  0  0  0  0  0
   58.1580   31.4800   44.8360 N   0  0  0  0  0  0  0  0  0  0  0  0
   57.5420   31.6880   43.5070 C   0  0  0  0  0  0  0  0  0  0  0  0
   56.5067   32.0376   43.6334 H   0  0  0  0  0  0  0  0  0  0  0  0
   58.1180   32.4415   42.9498 H   0  0  0  0  0  0  0  0  0  0  0  0
   57.5433   30.7396   42.9498 H   0  0  0  0  0  0  0  0  0  0  0  0
   58.6190   32.5630   45.5630 C   0  0  0  0  0  0  0  0  0  0  0  0
   58.8010   33.8380   44.9680 C   0  0  0  0  0  0  0  0  0  0  0  0
   58.6214   33.9627   43.8899 H   0  0  0  0  0  0  0  0  0  0  0  0
   59.2040   34.9360   45.7280 C   0  0  0  0  0  0  0  0  0  0  0  0
   59.3282   35.9184   45.2489 H   0  0  0  0  0  0  0  0  0  0  0  0
   59.4490   34.7930   47.0880 C   0  0  0  0  0  0  0  0  0  0  0  0
   59.7437   35.6667   47.6878 H   0  0  0  0  0  0  0  0  0  0  0  0
   59.3220   33.5450   47.6930 C   0  0  0  0  0  0  0  0  0  0  0  0
   59.5262   33.4389   48.7687 H   0  0  0  0  0  0  0  0  0  0  0  0
   58.9340   32.4140   46.9410 C   0  0  0  0  0  0  0  0  0  0  0  0
  1  2  1  0
  2  3  2  0
  3  4  1  0
  4  5  1  0
  5  6  1  0
  5  7  1  0
  5  8  1  0
  8  9  1  0
  8 10  1  0
  8 11  1  0
  2 12  1  0
 12 13  1  0
 12 14  1  0
 12 15  1  0
 15 16  1  0
 15 17  1  0
 15 18  1  0
 18 19  1  0
 18 20  1  0
 18 21  1  0
 21 22  1  0
 21 23  1  0
 21 24  1  0
 24 25  1  0
 24 26  1  0
 24 27  1  0
 27 28  1  0
 27 29  1  0
 29 30  2  0
 30 31  1  0
 31 32  1  0
 31 33  2  0
 33 34  1  0
 33 35  1  0
 35 36  1  0
 35 37  2  0
 37 38  1  0
 37 39  1  0
 39 40  2  0
 40 41  1  0
 41 42  1  0
 41 43  1  0
 41 44  1  0
 40 45  1  0
 45 46  2  0
 46 47  1  0
 46 48  1  0
 48 49  1  0
 48 50  2  0
 50 51  1  0
 50 52  1  0
 52 53  1  0
 52 54  2  0
 54 29  1  0
 39 30  1  0
 54 45  1  0
M  CHG  2  18   1  40   1
M  END
>  <UniqueID>  (5) 
5

>  <SMILES>  (5) 
CCO/N=C\CC[NH2+]CCNc1c2ccccc2[n+](C)c2ccccc12

>  <Energy>  (5) 
67.53848444030933

>  <Genealogy>  (5) 
CCON=CCC[NH2+]CCNc1c2ccccc2[n+](C)c2ccccc12 (protonated)
CCO/N=C\CC[NH2+]CCNc1c2ccccc2[n+](C)c2ccccc12 (cis-trans isomerization)
CCO/N=C\CC[NH2+]CCNc1c2ccccc2[n+](C)c2ccccc12 (3D coordinates assigned)
CCO/N=C\CC[NH2+]CCNc1c2ccccc2[n+](C)c2ccccc12 (optimized conformer: 67.53848444030933 kcal/mol)

>  <smiles>  (5) 
CCON=CCCNCCNc1c2ccccc2[n+](C)c2ccccc12

>  <score_type>  (5) 
oracle

>  <origin>  (5) 
adg

>  <m_score__min__energy>  (5) 
-3.9900000000000002

>  <m_primary>  (5) 
energy

$$$$
5:0
     RDKit          3D

 54 56  0  0  0  0  0  0  0  0999 V2000
   56.7720   33.4530   46.0550 C   0  0  0  0  0  0  0  0  0  0  0  0
   57.7840   32.8290   45.1930 N   0  0  0  0  0  0  0  0  0  0  0  0
   57.7670   33.1100   43.7450 C   0  0  0  0  0  0  0  0  0  0  0  0
   58.2360   31.8970   42.9280 C   0  0  0  0  0  0  0  0  0  0  0  0
   57.0570   31.1420   42.2950 C   0  0  0  0  0  0  0  0  0  0  0  0
   56.4740   30.0690   43.2290 C   0  0  0  0  0  0  0  0  0  0  0  0
   57.4000   28.9530   43.4360 N   0  0  0  0  0  0  0  0  0  0  0  0
   58.7630   31.9530   45.8040 C   0  0  0  0  0  0  0  0  0  0  0  0
   59.9220   32.4470   46.4320 C   0  0  0  0  0  0  0  0  0  0  0  0
   60.8390   31.5570   47.0150 C   0  0  0  0  0  0  0  0  0  0  0  0
   62.0630   32.0660   47.6840 C   0  0  0  0  0  0  0  0  0  0  0  0
   62.7200   33.2120   47.1970 C   0  0  0  0  0  0  0  0  0  0  0  0
   63.8730   33.6910   47.8290 C   0  0  0  0  0  0  0  0  0  0  0  0
   64.3810   33.0320   48.9500 C   0  0  0  0  0  0  0  0  0  0  0  0
   63.7400   31.8940   49.4420 C   0  0  0  0  0  0  0  0  0  0  0  0
   62.5870   31.4110   48.8160 C   0  0  0  0  0  0  0  0  0  0  0  0
   60.5800   30.1800   46.9620 C   0  0  0  0  0  0  0  0  0  0  0  0
   59.4200   29.7090   46.3270 C   0  0  0  0  0  0  0  0  0  0  0  0
   59.1010   28.2600   46.2550 C   0  0  0  0  0  0  0  0  0  0  0  0
   57.7640   27.8350   46.3510 C   0  0  0  0  0  0  0  0  0  0  0  0
   57.4420   26.4770   46.2780 C   0  0  0  0  0  0  0  0  0  0  0  0
   58.4470   25.5160   46.0810 C   0  0  0  0  0  0  0  0  0  0  0  0
   58.1070   24.0470   46.0510 C   0  0  0  0  0  0  0  0  0  0  0  0
   57.4720   23.7020   47.2290 F   0  0  0  0  0  0  0  0  0  0  0  0
   57.2690   23.7580   44.9860 F   0  0  0  0  0  0  0  0  0  0  0  0
   59.2530   23.2830   45.9160 F   0  0  0  0  0  0  0  0  0  0  0  0
   59.7840   25.9370   45.9980 C   0  0  0  0  0  0  0  0  0  0  0  0
   60.1070   27.2940   46.0720 C   0  0  0  0  0  0  0  0  0  0  0  0
   58.5550   30.6060   45.7830 N   0  0  0  0  0  0  0  0  0  0  0  0
   57.0375   33.2893   47.1099 H   0  0  0  0  0  0  0  0  0  0  0  0
   56.7316   34.5331   45.8504 H   0  0  0  0  0  0  0  0  0  0  0  0
   55.7888   33.0041   45.8504 H   0  0  0  0  0  0  0  0  0  0  0  0
   56.7411   33.3683   43.4435 H   0  0  0  0  0  0  0  0  0  0  0  0
   58.4562   33.9445   43.5484 H   0  0  0  0  0  0  0  0  0  0  0  0
   58.9063   32.2447   42.1281 H   0  0  0  0  0  0  0  0  0  0  0  0
   58.7559   31.2075   43.6094 H   0  0  0  0  0  0  0  0  0  0  0  0
   56.2650   31.8655   42.0515 H   0  0  0  0  0  0  0  0  0  0  0  0
   57.4314   30.6330   41.3946 H   0  0  0  0  0  0  0  0  0  0  0  0
   56.2515   30.5299   44.2027 H   0  0  0  0  0  0  0  0  0  0  0  0
   55.5639   29.6696   42.7577 H   0  0  0  0  0  0  0  0  0  0  0  0
   56.8780   28.0480   43.4710 H   0  0  0  0  0  0  0  0  0  0  0  0
   58.1130   28.9260   42.6740 H   0  0  0  0  0  0  0  0  0  0  0  0
   57.8960   29.0890   44.3460 H   0  0  0  0  0  0  0  0  0  0  0  0
   60.1096   33.5304   46.4662 H   0  0  0  0  0  0  0  0  0  0  0  0
   62.3243   33.7345   46.3136 H   0  0  0  0  0  0  0  0  0  0  0  0
   64.3795   34.5876   47.4422 H   0  0  0  0  0  0  0  0  0  0  0  0
   65.2872   33.4100   49.4459 H   0  0  0  0  0  0  0  0  0  0  0  0
   64.1431   31.3758   50.3246 H   0  0  0  0  0  0  0  0  0  0  0  0
   62.0860   30.5143   49.2096 H   0  0  0  0  0  0  0  0  0  0  0  0
   61.2852   29.4693   47.4177 H   0  0  0  0  0  0  0  0  0  0  0  0
   56.9642   28.5783   46.4848 H   0  0  0  0  0  0  0  0  0  0  0  0
   56.3937   26.1585   46.3756 H   0  0  0  0  0  0  0  0  0  0  0  0
   60.5837   25.1920   45.8737 H   0  0  0  0  0  0  0  0  0  0  0  0
   61.1572   27.6099   45.9864 H   0  0  0  0  0  0  0  0  0  0  0  0
  1  2  1  0
  2  3  1  0
  3  4  1  0
  4  5  1  0
  5  6  1  0
  6  7  1  0
  2  8  1  0
  8  9  2  0
  9 10  1  0
 10 11  1  0
 11 12  2  0
 12 13  1  0
 13 14  2  0
 14 15  1  0
 15 16  2  0
 10 17  2  0
 17 18  1  0
 18 19  1  0
 19 20  2  0
 20 21  1  0
 21 22  2  0
 22 23  1  0
 23 24  1  0
 23 25  1  0
 23 26  1  0
 22 27  1  0
 27 28  2  0
 18 29  2  0
 29  8  1  0
 16 11  1  0
 28 19  1  0
  1 30  1  0
  1 31  1  0
  1 32  1  0
  3 33  1  0
  3 34  1  0
  4 35  1  0
  4 36  1  0
  5 37  1  0
  5 38  1  0
  6 39  1  0
  6 40  1  0
  7 41  1  0
  7 42  1  0
  7 43  1  0
  9 44  1  0
 12 45  1  0
 13 46  1  0
 14 47  1  0
 15 48  1  0
 16 49  1  0
 17 50  1  0
 20 51  1  0
 21 52  1  0
 27 53  1  0
 28 54  1  0
M  CHG  1   7   1
M  END
>  <UniqueID>  (6) 
6

>  <SMILES>  (6) 
CN(CCCC[NH3+])c1cc(-c2ccccc2)cc(-c2ccc(C(F)(F)F)cc2)n1

>  <Energy>  (6) 
59.545301344723285

>  <Genealogy>  (6) 
CN(CCCC[NH3+])c1cc(-c2ccccc2)cc(-c2ccc(C(F)(F)F)cc2)n1 (protonated)
CN(CCCC[NH3+])c1cc(-c2ccccc2)cc(-c2ccc(C(F)(F)F)cc2)n1 (3D coordinates assigned)
CN(CCCC[NH3+])c1cc(-c2ccccc2)cc(-c2ccc(C(F)(F)F)cc2)n1 (optimized conformer: 59.545301344723285 kcal/mol)

>  <smiles>  (6) 
CN(CCCCN)c1cc(-c2ccccc2)cc(-c2ccc(C(F)(F)F)cc2)n1

>  <score_type>  (6) 
oracle

>  <origin>  (6) 
adg

>  <m_score__min__energy>  (6) 
-6.4100000000000001

>  <m_primary>  (6) 
energy

$$$$
6:0
     RDKit          3D

 49 51  0  0  0  0  0  0  0  0999 V2000
   59.9890   34.9950   46.0950 C   0  0  0  0  0  0  0  0  0  0  0  0
   59.0130   34.7360   47.2390 C   0  0  0  0  0  0  0  0  0  0  0  0
   58.0190   33.8110   46.8380 O   0  0  0  0  0  0  0  0  0  0  0  0
   57.9860   33.6630   45.4300 C   0  0  0  0  0  0  0  0  0  0  0  0
   57.0270   32.5380   45.0280 C   0  0  0  0  0  0  0  0  0  0  0  0
   57.4610   31.2990   45.5600 O   0  0  0  0  0  0  0  0  0  0  0  0
   58.8250   31.0580   45.2660 C   0  0  0  0  0  0  0  0  0  0  0  0
   59.3470   29.8870   46.1050 C   0  0  0  0  0  0  0  0  0  0  0  0
   58.9800   30.0560   47.5820 C   0  0  0  0  0  0  0  0  0  0  0  0
   58.9170   31.4730   47.9430 N   0  0  0  0  0  0  0  0  0  0  0  0
   59.7800   32.0120   48.9540 C   0  0  0  0  0  0  0  0  0  0  0  0
   61.1160   32.3570   48.6730 C   0  0  0  0  0  0  0  0  0  0  0  0
   61.6620   32.1330   47.3930 C   0  0  0  0  0  0  0  0  0  0  0  0
   62.9970   32.4270   47.1290 C   0  0  0  0  0  0  0  0  0  0  0  0
   63.8140   32.9320   48.1360 C   0  0  0  0  0  0  0  0  0  0  0  0
   63.3000   33.1630   49.4130 C   0  0  0  0  0  0  0  0  0  0  0  0
   61.9390   32.9060   49.7110 C   0  0  0  0  0  0  0  0  0  0  0  0
   61.4070   33.1540   50.9690 N   0  0  0  0  0  0  0  0  0  0  0  0
   62.2040   33.8450   52.0030 C   0  0  0  0  0  0  0  0  0  0  0  0
   60.1230   32.7410   51.2430 C   0  0  0  0  0  0  0  0  0  0  0  0
   59.4630   32.8100   52.4900 C   0  0  0  0  0  0  0  0  0  0  0  0
   58.1510   32.3520   52.4450 C   0  0  0  0  0  0  0  0  0  0  0  0
   57.8020   31.8470   50.8770 S   0  0  0  0  0  0  0  0  0  0  0  0
   59.3220   32.1970   50.2510 C   0  0  0  0  0  0  0  0  0  0  0  0
   60.9750   35.2567   46.5064 H   0  0  0  0  0  0  0  0  0  0  0  0
   60.0781   34.0894   45.4770 H   0  0  0  0  0  0  0  0  0  0  0  0
   59.6174   35.8256   45.4770 H   0  0  0  0  0  0  0  0  0  0  0  0
   59.5630   34.3272   48.0995 H   0  0  0  0  0  0  0  0  0  0  0  0
   58.5283   35.6836   47.5168 H   0  0  0  0  0  0  0  0  0  0  0  0
   57.6479   34.6058   44.9753 H   0  0  0  0  0  0  0  0  0  0  0  0
   58.9966   33.4106   45.0763 H   0  0  0  0  0  0  0  0  0  0  0  0
   56.0220   32.7647   45.4134 H   0  0  0  0  0  0  0  0  0  0  0  0
   57.0062   32.4649   43.9306 H   0  0  0  0  0  0  0  0  0  0  0  0
   58.9294   30.8152   44.1982 H   0  0  0  0  0  0  0  0  0  0  0  0
   59.4088   31.9593   45.5044 H   0  0  0  0  0  0  0  0  0  0  0  0
   58.9048   28.9521   45.7303 H   0  0  0  0  0  0  0  0  0  0  0  0
   60.4434   29.8594   46.0198 H   0  0  0  0  0  0  0  0  0  0  0  0
   57.9990   29.5932   47.7651 H   0  0  0  0  0  0  0  0  0  0  0  0
   59.7531   29.5699   48.1953 H   0  0  0  0  0  0  0  0  0  0  0  0
   58.4010   32.1440   47.3290 H   0  0  0  0  0  0  0  0  0  0  0  0
   61.0269   31.7217   46.5946 H   0  0  0  0  0  0  0  0  0  0  0  0
   63.4069   32.2597   46.1220 H   0  0  0  0  0  0  0  0  0  0  0  0
   64.8711   33.1504   47.9244 H   0  0  0  0  0  0  0  0  0  0  0  0
   63.9624   33.5509   50.2008 H   0  0  0  0  0  0  0  0  0  0  0  0
   61.8533   33.5410   53.0003 H   0  0  0  0  0  0  0  0  0  0  0  0
   63.2645   33.5757   51.8894 H   0  0  0  0  0  0  0  0  0  0  0  0
   62.0877   34.9329   51.8894 H   0  0  0  0  0  0  0  0  0  0  0  0
   59.9399   33.1886   53.4061 H   0  0  0  0  0  0  0  0  0  0  0  0
   57.4541   32.3241   53.2956 H   0  0  0  0  0  0  0  0  0  0  0  0
  1  2  1  0
  2  3  1  0
  3  4  1  0
  4  5  1  0
  5  6  1  0
  6  7  1  0
  7  8  1  0
  8  9  1  0
  9 10  1  0
 10 11  1  0
 11 12  2  0
 12 13  1  0
 13 14  2  0
 14 15  1  0
 15 16  2  0
 16 17  1  0
 17 18  2  0
 18 19  1  0
 18 20  1  0
 20 21  1  0
 21 22  2  0
 22 23  1  0
 23 24  1  0
 24 11  1  0
 17 12  1  0
 24 20  2  0
  1 25  1  0
  1 26  1  0
  1 27  1  0
  2 28  1  0
  2 29  1  0
  4 30  1  0
  4 31  1  0
  5 32  1  0
  5 33  1  0
  7 34  1  0
  7 35  1  0
  8 36  1  0
  8 37  1  0
  9 38  1  0
  9 39  1  0
 10 40  1  0
 13 41  1  0
 14 42  1  0
 15 43  1  0
 16 44  1  0
 19 45  1  0
 19 46  1  0
 19 47  1  0
 21 48  1  0
 22 49  1  0
M  CHG  1  18   1
M  END
>  <UniqueID>  (7) 
7

>  <SMILES>  (7) 
CCOCCOCCCNc1c2ccccc2[n+](C)c2ccsc12

>  <Energy>  (7) 
96.83315786844058

>  <Genealogy>  (7) 
CCOCCOCCCNc1c2ccccc2[n+](C)c2ccsc12 (3D coordinates assigned)
CCOCCOCCCNc1c2ccccc2[n+](C)c2ccsc12 (optimized conformer: 96.83315786844058 kcal/mol)

>  <smiles>  (7) 
CCOCCOCCCNc1c2ccccc2[n+](C)c2ccsc12

>  <score_type>  (7) 
oracle

>  <origin>  (7) 
adg

>  <m_score__min__energy>  (7) 
-6.1699999999999999

>  <m_primary>  (7) 
energy

$$$$
7:0
     RDKit          3D

 61 65  0  0  0  0  0  0  0  0999 V2000
   56.2810   29.7660   42.6390 C   0  0  0  0  0  0  0  0  0  0  0  0
   57.0920   30.7360   43.4920 C   0  0  0  0  0  0  0  0  0  0  0  0
   57.0350   30.3750   44.9160 N   0  0  0  0  0  0  0  0  0  0  0  0
   56.2880   29.1300   45.1290 C   0  0  0  0  0  0  0  0  0  0  0  0
   57.2190   28.0170   45.6140 C   0  0  0  0  0  0  0  0  0  0  0  0
   58.2430   28.5560   46.4340 O   0  0  0  0  0  0  0  0  0  0  0  0
   59.0830   27.5530   46.9690 C   0  0  0  0  0  0  0  0  0  0  0  0
   59.9910   28.1240   48.0650 C   0  0  0  0  0  0  0  0  0  0  0  0
   59.3510   29.2300   48.7890 N   0  0  0  0  0  0  0  0  0  0  0  0
   60.1690   30.4230   48.7010 C   0  0  0  0  0  0  0  0  0  0  0  0
   61.3730   30.5950   49.4490 C   0  0  0  0  0  0  0  0  0  0  0  0
   61.8320   29.5980   50.3350 C   0  0  0  0  0  0  0  0  0  0  0  0
   63.0100   29.7600   51.0540 C   0  0  0  0  0  0  0  0  0  0  0  0
   63.8380   30.8570   50.8190 C   0  0  0  0  0  0  0  0  0  0  0  0
   65.0920   30.9270   51.4550 C   0  0  0  0  0  0  0  0  0  0  0  0
   66.0060   31.9190   51.1030 C   0  0  0  0  0  0  0  0  0  0  0  0
   65.6900   32.8250   50.0930 C   0  0  0  0  0  0  0  0  0  0  0  0
   64.4380   32.7810   49.4710 C   0  0  0  0  0  0  0  0  0  0  0  0
   63.4510   31.8540   49.8820 C   0  0  0  0  0  0  0  0  0  0  0  0
   62.1390   31.8080   49.3020 C   0  0  0  0  0  0  0  0  0  0  0  0
   61.5840   32.8800   48.6110 N   0  0  0  0  0  0  0  0  0  0  0  0
   61.9080   34.2790   48.9450 C   0  0  0  0  0  0  0  0  0  0  0  0
   60.5230   32.6300   47.7810 C   0  0  0  0  0  0  0  0  0  0  0  0
   59.8270   31.4440   47.8100 C   0  0  0  0  0  0  0  0  0  0  0  0
   58.7890   31.4650   46.9440 N   0  0  0  0  0  0  0  0  0  0  0  0
   58.8300   32.6820   46.3640 C   0  0  0  0  0  0  0  0  0  0  0  0
   57.9620   33.1670   45.3850 C   0  0  0  0  0  0  0  0  0  0  0  0
   58.1900   34.4560   44.8780 C   0  0  0  0  0  0  0  0  0  0  0  0
   59.2750   35.2250   45.3460 C   0  0  0  0  0  0  0  0  0  0  0  0
   60.1370   34.7190   46.3370 C   0  0  0  0  0  0  0  0  0  0  0  0
   59.8790   33.4390   46.8470 C   0  0  0  0  0  0  0  0  0  0  0  0
   55.7140   29.0878   43.2937 H   0  0  0  0  0  0  0  0  0  0  0  0
   55.5830   30.3314   42.0041 H   0  0  0  0  0  0  0  0  0  0  0  0
   56.9611   29.1792   42.0041 H   0  0  0  0  0  0  0  0  0  0  0  0
   58.1402   30.7150   43.1592 H   0  0  0  0  0  0  0  0  0  0  0  0
   56.6646   31.7425   43.3727 H   0  0  0  0  0  0  0  0  0  0  0  0
   58.0180   30.2100   45.2290 H   0  0  0  0  0  0  0  0  0  0  0  0
   55.5070   29.3022   45.8843 H   0  0  0  0  0  0  0  0  0  0  0  0
   55.8351   28.8217   44.1751 H   0  0  0  0  0  0  0  0  0  0  0  0
   56.6380   27.2842   46.1932 H   0  0  0  0  0  0  0  0  0  0  0  0
   57.6781   27.5284   44.7420 H   0  0  0  0  0  0  0  0  0  0  0  0
   58.4608   26.7535   47.3976 H   0  0  0  0  0  0  0  0  0  0  0  0
   59.7155   27.1574   46.1606 H   0  0  0  0  0  0  0  0  0  0  0  0
   60.2312   27.3233   48.7800 H   0  0  0  0  0  0  0  0  0  0  0  0
   60.9002   28.5139   47.5840 H   0  0  0  0  0  0  0  0  0  0  0  0
   58.4080   29.4160   48.3780 H   0  0  0  0  0  0  0  0  0  0  0  0
   59.1680   28.9740   49.7840 H   0  0  0  0  0  0  0  0  0  0  0  0
   61.2465   28.6751   50.4591 H   0  0  0  0  0  0  0  0  0  0  0  0
   63.2916   29.0169   51.8146 H   0  0  0  0  0  0  0  0  0  0  0  0
   65.3520   30.1950   52.2339 H   0  0  0  0  0  0  0  0  0  0  0  0
   66.9739   31.9862   51.6212 H   0  0  0  0  0  0  0  0  0  0  0  0
   66.4288   33.5787   49.7831 H   0  0  0  0  0  0  0  0  0  0  0  0
   64.2171   33.4781   48.6493 H   0  0  0  0  0  0  0  0  0  0  0  0
   61.9356   34.3980   50.0382 H   0  0  0  0  0  0  0  0  0  0  0  0
   62.8901   34.5387   48.5230 H   0  0  0  0  0  0  0  0  0  0  0  0
   61.1401   34.9440   48.5230 H   0  0  0  0  0  0  0  0  0  0  0  0
   58.0960   30.7100   46.7440 H   0  0  0  0  0  0  0  0  0  0  0  0
   57.1227   32.5564   45.0208 H   0  0  0  0  0  0  0  0  0  0  0  0
   57.5181   34.8685   44.1110 H   0  0  0  0  0  0  0  0  0  0  0  0
   59.4495   36.2295   44.9330 H   0  0  0  0  0  0  0  0  0  0  0  0
   60.9893   35.3114   46.7011 H   0  0  0  0  0  0  0  0  0  0  0  0
  1  2  1  0
  2  3  1  0
  3  4  1  0
  4  5  1  0
  5  6  1  0
  6  7  1  0
  7  8  1  0
  8  9  1  0
  9 10  1  0
 10 11  2  0
 11 12  1  0
 12 13  2  0
 13 14  1  0
 14 15  2  0
 15 16  1  0
 16 17  2  0
 17 18  1  0
 18 19  2  0
 19 20  1  0
 20 21  2  0
 21 22  1  0
 21 23  1  0
 23 24  2  0
 24 25  1  0
 25 26  1  0
 26 27  2  0
 27 28  1  0
 28 29  2  0
 29 30  1  0
 30 31  2  0
 24 10  1  0
 31 26  1  0
 20 11  1  0
 31 23  1  0
 19 14  1  0
  1 32  1  0
  1 33  1  0
  1 34  1  0
  2 35  1  0
  2 36  1  0
  3 37  1  0
  4 38  1  0
  4 39  1  0
  5 40  1  0
  5 41  1  0
  7 42  1  0
  7 43  1  0
  8 44  1  0
  8 45  1  0
  9 46  1  0
  9 47  1  0
 12 48  1  0
 13 49  1  0
 15 50  1  0
 16 51  1  0
 17 52  1  0
 18 53  1  0
 22 54  1  0
 22 55  1  0
 22 56  1  0
 25 57  1  0
 27 58  1  0
 28 59  1  0
 29 60  1  0
 30 61  1  0
M  CHG  2   9   1  21   1
M  END
>  <UniqueID>  (8) 
8

>  <SMILES>  (8) 
CCNCCOCC[NH2+]c1c2ccc3ccccc3c2[n+](C)c2c1[nH]c1ccccc12

>  <Energy>  (8) 
139.80272182596045

>  <Genealogy>  (8) 
CCNCCOCC[NH2+]c1c2ccc3ccccc3c2[n+](C)c2c1[nH]c1ccccc12 (protonated)
CCNCCOCC[NH2+]c1c2ccc3ccccc3c2[n+](C)c2c1[nH]c1ccccc12 (3D coordinates assigned)
CCNCCOCC[NH2+]c1c2ccc3ccccc3c2[n+](C)c2c1[nH]c1ccccc12 (optimized conformer: 139.80272182596045 kcal/mol)

>  <smiles>  (8) 
CCNCCOCCNc1c2ccc3ccccc3c2[n+](C)c2c1[nH]c1ccccc12

>  <score_type>  (8) 
oracle

>  <origin>  (8) 
adg

>  <m_score__min__energy>  (8) 
-5.3300000000000001

>  <m_primary>  (8) 
energy

$$$$
8:0
     RDKit          3D

 53 57  0  0  0  0  0  0  0  0999 V2000
   66.5590   32.2840   51.0250 C   0  0  0  0  0  0  0  0  0  0  0  0
   65.3470   33.0970   51.0300 N   0  0  0  0  0  0  0  0  0  0  0  0
   65.0470   34.0040   51.9520 N   0  0  0  0  0  0  0  0  0  0  0  0
   63.8630   34.5830   51.6430 C   0  0  0  0  0  0  0  0  0  0  0  0
   63.4110   34.0090   50.4730 C   0  0  0  0  0  0  0  0  0  0  0  0
   62.2650   34.2230   49.7150 C   0  0  0  0  0  0  0  0  0  0  0  0
   62.0930   33.4400   48.5520 C   0  0  0  0  0  0  0  0  0  0  0  0
   60.8930   33.6220   47.7280 C   0  0  0  0  0  0  0  0  0  0  0  0
   60.9710   34.1990   46.5010 N   0  0  0  0  0  0  0  0  0  0  0  0
   59.7040   34.1560   46.0630 C   0  0  0  0  0  0  0  0  0  0  0  0
   59.2220   34.5960   44.8320 C   0  0  0  0  0  0  0  0  0  0  0  0
   57.8530   34.4210   44.5620 C   0  0  0  0  0  0  0  0  0  0  0  0
   57.0110   33.8100   45.5170 C   0  0  0  0  0  0  0  0  0  0  0  0
   57.5280   33.3740   46.7500 C   0  0  0  0  0  0  0  0  0  0  0  0
   58.8920   33.5730   46.9940 C   0  0  0  0  0  0  0  0  0  0  0  0
   59.6250   33.2430   48.0780 N   0  0  0  0  0  0  0  0  0  0  0  0
   59.1280   32.5420   49.2810 C   0  0  0  0  0  0  0  0  0  0  0  0
   59.2990   33.3470   50.5790 C   0  0  0  0  0  0  0  0  0  0  0  0
   58.6000   32.6240   51.7530 C   0  0  0  0  0  0  0  0  0  0  0  0
   58.5220   31.1480   51.5660 N   0  0  0  0  0  0  0  0  0  0  0  0
   58.3320   30.4450   52.8550 C   0  0  0  0  0  0  0  0  0  0  0  0
   56.8710   30.0330   53.0740 C   0  0  0  0  0  0  0  0  0  0  0  0
   56.0950   30.4470   52.0070 F   0  0  0  0  0  0  0  0  0  0  0  0
   56.7940   28.6560   53.1760 F   0  0  0  0  0  0  0  0  0  0  0  0
   56.3800   30.5860   54.2430 F   0  0  0  0  0  0  0  0  0  0  0  0
   59.7170   30.6270   50.8660 C   0  0  0  0  0  0  0  0  0  0  0  0
   59.7680   31.1470   49.4170 C   0  0  0  0  0  0  0  0  0  0  0  0
   63.0860   32.5030   48.1720 C   0  0  0  0  0  0  0  0  0  0  0  0
   64.2340   32.3130   48.9630 C   0  0  0  0  0  0  0  0  0  0  0  0
   64.3580   33.0870   50.1160 C   0  0  0  0  0  0  0  0  0  0  0  0
   66.8664   32.0778   52.0608 H   0  0  0  0  0  0  0  0  0  0  0  0
   66.3617   31.3349   50.5052 H   0  0  0  0  0  0  0  0  0  0  0  0
   67.3624   32.8266   50.5052 H   0  0  0  0  0  0  0  0  0  0  0  0
   65.6400   34.2310   52.7820 H   0  0  0  0  0  0  0  0  0  0  0  0
   63.3537   35.3687   52.2203 H   0  0  0  0  0  0  0  0  0  0  0  0
   61.5189   34.9753   50.0106 H   0  0  0  0  0  0  0  0  0  0  0  0
   59.8906   35.0651   44.0952 H   0  0  0  0  0  0  0  0  0  0  0  0
   57.4362   34.7616   43.6027 H   0  0  0  0  0  0  0  0  0  0  0  0
   55.9423   33.6740   45.2947 H   0  0  0  0  0  0  0  0  0  0  0  0
   56.8816   32.8923   47.4984 H   0  0  0  0  0  0  0  0  0  0  0  0
   58.0444   32.4257   49.1314 H   0  0  0  0  0  0  0  0  0  0  0  0
   60.3709   33.4511   50.8032 H   0  0  0  0  0  0  0  0  0  0  0  0
   58.8440   34.3398   50.4476 H   0  0  0  0  0  0  0  0  0  0  0  0
   59.1615   32.8309   52.6760 H   0  0  0  0  0  0  0  0  0  0  0  0
   57.5688   33.0034   51.8050 H   0  0  0  0  0  0  0  0  0  0  0  0
   58.9607   29.5424   52.8635 H   0  0  0  0  0  0  0  0  0  0  0  0
   58.6157   31.1347   53.6636 H   0  0  0  0  0  0  0  0  0  0  0  0
   60.6206   30.9562   51.4000 H   0  0  0  0  0  0  0  0  0  0  0  0
   59.6648   29.5284   50.8462 H   0  0  0  0  0  0  0  0  0  0  0  0
   60.8190   31.2059   49.0977 H   0  0  0  0  0  0  0  0  0  0  0  0
   59.1986   30.4491   48.7856 H   0  0  0  0  0  0  0  0  0  0  0  0
   62.9579   31.9182   47.2492 H   0  0  0  0  0  0  0  0  0  0  0  0
   65.0053   31.5807   48.6821 H   0  0  0  0  0  0  0  0  0  0  0  0
  1  2  1  0
  2  3  1  0
  3  4  2  0
  4  5  1  0
  5  6  2  0
  6  7  1  0
  7  8  1  0
  8  9  2  0
  9 10  1  0
 10 11  2  0
 11 12  1  0
 12 13  2  0
 13 14  1  0
 14 15  2  0
 15 16  1  0
 16 17  1  0
 17 18  1  0
 18 19  1  0
 19 20  1  0
 20 21  1  0
 21 22  1  0
 22 23  1  0
 22 24  1  0
 22 25  1  0
 20 26  1  0
 26 27  1  0
  7 28  2  0
 28 29  1  0
 29 30  2  0
 30  2  1  0
 30  5  1  0
 16  8  1  0
 27 17  1  0
 15 10  1  0
  1 31  1  0
  1 32  1  0
  1 33  1  0
  3 34  1  0
  4 35  1  0
  6 36  1  0
 11 37  1  0
 12 38  1  0
 13 39  1  0
 14 40  1  0
 17 41  1  0
 18 42  1  0
 18 43  1  0
 19 44  1  0
 19 45  1  0
 21 46  1  0
 21 47  1  0
 26 48  1  0
 26 49  1  0
 27 50  1  0
 27 51  1  0
 28 52  1  0
 29 53  1  0
M  CHG  1   3   1
M  END
>  <UniqueID>  (9) 
9

>  <SMILES>  (9) 
Cn1[nH+]cc2cc(-c3nc4ccccc4n3C3CCN(CC(F)(F)F)CC3)ccc21

>  <Energy>  (9) 
148.933237007364

>  <Genealogy>  (9) 
Cn1[nH+]cc2cc(-c3nc4ccccc4n3C3CCN(CC(F)(F)F)CC3)ccc21 (protonated)
Cn1[nH+]cc2cc(-c3nc4ccccc4n3C3CCN(CC(F)(F)F)CC3)ccc21 (3D coordinates assigned)
Cn1[nH+]cc2cc(-c3nc4ccccc4n3C3CCN(CC(F)(F)F)CC3)ccc21 (nonaromatic ring conformer: 148.933237007364 kcal/mol)

>  <smiles>  (9) 
Cn1ncc2cc(-c3nc4ccccc4n3C3CCN(CC(F)(F)F)CC3)ccc21

>  <score_type>  (9) 
oracle

>  <origin>  (9) 
adg

>  <m_score__min__energy>  (9) 
-6.6299999999999999

>  <m_primary>  (9) 
energy

$$$$
9:0
     RDKit          3D

 46 48  0  0  0  0  0  0  0  0999 V2000
   57.3890   31.5010   43.0850 C   0  0  0  0  0  0  0  0  0  0  0  0
   58.0300   31.3980   44.4150 N   0  0  0  0  0  0  0  0  0  0  0  0
   58.5550   32.5260   45.0190 C   0  0  0  0  0  0  0  0  0  0  0  0
   58.2470   33.8310   44.5560 C   0  0  0  0  0  0  0  0  0  0  0  0
   58.8040   34.9590   45.1580 C   0  0  0  0  0  0  0  0  0  0  0  0
   59.6590   34.8210   46.2440 C   0  0  0  0  0  0  0  0  0  0  0  0
   59.9520   33.5560   46.7460 C   0  0  0  0  0  0  0  0  0  0  0  0
   59.4070   32.3980   46.1490 C   0  0  0  0  0  0  0  0  0  0  0  0
   59.6670   31.1230   46.6800 C   0  0  0  0  0  0  0  0  0  0  0  0
   60.5880   30.9650   47.7750 N   0  0  0  0  0  0  0  0  0  0  0  0
   60.1750   31.1780   49.1610 C   0  0  0  0  0  0  0  0  0  0  0  0
   60.9690   32.3280   49.8020 C   0  0  0  0  0  0  0  0  0  0  0  0
   62.3990   32.3130   49.4140 N   0  0  0  0  0  0  0  0  0  0  0  0
   62.8150   33.5010   48.6420 C   0  0  0  0  0  0  0  0  0  0  0  0
   63.4060   33.1460   47.2670 C   0  0  0  0  0  0  0  0  0  0  0  0
   63.5570   31.7030   47.1130 N   0  0  0  0  0  0  0  0  0  0  0  0
   58.9760   30.0090   46.1690 C   0  0  0  0  0  0  0  0  0  0  0  0
   59.1330   28.7300   46.7470 C   0  0  0  0  0  0  0  0  0  0  0  0
   58.4200   27.6350   46.2610 C   0  0  0  0  0  0  0  0  0  0  0  0
   58.6240   26.0560   46.9980 Cl  0  0  0  0  0  0  0  0  0  0  0  0
   57.5310   27.8000   45.2040 C   0  0  0  0  0  0  0  0  0  0  0  0
   57.3760   29.0490   44.6060 C   0  0  0  0  0  0  0  0  0  0  0  0
   58.1230   30.1710   45.0460 C   0  0  0  0  0  0  0  0  0  0  0  0
   56.3100   31.6744   43.2104 H   0  0  0  0  0  0  0  0  0  0  0  0
   57.8328   32.3394   42.5280 H   0  0  0  0  0  0  0  0  0  0  0  0
   57.5478   30.5658   42.5280 H   0  0  0  0  0  0  0  0  0  0  0  0
   57.5574   33.9553   43.7081 H   0  0  0  0  0  0  0  0  0  0  0  0
   58.5655   35.9609   44.7717 H   0  0  0  0  0  0  0  0  0  0  0  0
   60.1053   35.7128   46.7082 H   0  0  0  0  0  0  0  0  0  0  0  0
   60.6156   33.4573   47.6177 H   0  0  0  0  0  0  0  0  0  0  0  0
   61.6090   30.8880   47.5690 H   0  0  0  0  0  0  0  0  0  0  0  0
   59.1033   31.4247   49.1831 H   0  0  0  0  0  0  0  0  0  0  0  0
   60.3703   30.2573   49.7303 H   0  0  0  0  0  0  0  0  0  0  0  0
   60.5266   33.2833   49.4831 H   0  0  0  0  0  0  0  0  0  0  0  0
   60.9167   32.2036   50.8937 H   0  0  0  0  0  0  0  0  0  0  0  0
   62.9710   32.2990   50.2910 H   0  0  0  0  0  0  0  0  0  0  0  0
   62.6530   31.4490   48.8820 H   0  0  0  0  0  0  0  0  0  0  0  0
   61.9369   34.1460   48.4904 H   0  0  0  0  0  0  0  0  0  0  0  0
   63.6024   34.0092   49.2179 H   0  0  0  0  0  0  0  0  0  0  0  0
   62.7354   33.5223   46.4805 H   0  0  0  0  0  0  0  0  0  0  0  0
   64.3998   33.6104   47.1851 H   0  0  0  0  0  0  0  0  0  0  0  0
   62.8820   31.3780   46.3830 H   0  0  0  0  0  0  0  0  0  0  0  0
   64.5150   31.5200   46.7350 H   0  0  0  0  0  0  0  0  0  0  0  0
   59.8261   28.5962   47.5907 H   0  0  0  0  0  0  0  0  0  0  0  0
   56.9483   26.9415   44.8389 H   0  0  0  0  0  0  0  0  0  0  0  0
   56.6615   29.1666   43.7780 H   0  0  0  0  0  0  0  0  0  0  0  0
  1  2  1  0
  2  3  2  0
  3  4  1  0
  4  5  2  0
  5  6  1  0
  6  7  2  0
  7  8  1  0
  8  9  2  0
  9 10  1  0
 10 11  1  0
 11 12  1  0
 12 13  1  0
 13 14  1  0
 14 15  1  0
 15 16  1  0
  9 17  1  0
 17 18  2  0
 18 19  1  0
 19 20  1  0
 19 21  2  0
 21 22  1  0
 22 23  2  0
 23  2  1  0
  8  3  1  0
 23 17  1  0
  1 24  1  0
  1 25  1  0
  1 26  1  0
  4 27  1  0
  5 28  1  0
  6 29  1  0
  7 30  1  0
 10 31  1  0
 11 32  1  0
 11 33  1  0
 12 34  1  0
 12 35  1  0
 13 36  1  0
 13 37  1  0
 14 38  1  0
 14 39  1  0
 15 40  1  0
 15 41  1  0
 16 42  1  0
 16 43  1  0
 18 44  1  0
 21 45  1  0
 22 46  1  0
M  CHG  2   2   1  13   1
M  END
>  <UniqueID>  (10) 
10

>  <SMILES>  (10) 
C[n+]1c2ccccc2c(NCC[NH2+]CCN)c2cc(Cl)ccc21

>  <Energy>  (10) 
72.0496246536066

>  <Genealogy>  (10) 
C[n+]1c2ccccc2c(NCC[NH2+]CCN)c2cc(Cl)ccc21 (protonated)
C[n+]1c2ccccc2c(NCC[NH2+]CCN)c2cc(Cl)ccc21 (3D coordinates assigned)
C[n+]1c2ccccc2c(NCC[NH2+]CCN)c2cc(Cl)ccc21 (optimized conformer: 72.0496246536066 kcal/mol)

>  <smiles>  (10) 
C[n+]1c2ccccc2c(NCCNCCN)c2cc(Cl)ccc21

>  <score_type>  (10) 
oracle

>  <origin>  (10) 
adg

>  <m_score__min__energy>  (10) 
-5

>  <m_primary>  (10) 
energy

$$$$
10:0
     RDKit          3D

 40 40  0  0  0  0  0  0  0  0999 V2000
   56.7400   28.4150   45.0730 C   0  0  0  0  0  0  0  0  0  0  0  0
   55.5480   29.2620   45.0050 N   0  0  0  0  0  0  0  0  0  0  0  0
   55.3470   29.7480   43.6330 C   0  0  0  0  0  0  0  0  0  0  0  0
   56.6880   30.1290   42.9920 C   0  0  0  0  0  0  0  0  0  0  0  0
   57.2090   31.4900   43.4740 C   0  0  0  0  0  0  0  0  0  0  0  0
   56.9860   31.6690   44.8730 O   0  0  0  0  0  0  0  0  0  0  0  0
   57.9840   31.7540   45.8580 C   0  0  0  0  0  0  0  0  0  0  0  0
   58.6000   30.5730   46.2720 C   0  0  0  0  0  0  0  0  0  0  0  0
   59.6010   30.5860   47.2490 C   0  0  0  0  0  0  0  0  0  0  0  0
   60.2890   29.0390   47.7390 Cl  0  0  0  0  0  0  0  0  0  0  0  0
   60.0200   31.8090   47.8200 C   0  0  0  0  0  0  0  0  0  0  0  0
   61.0860   31.8310   48.8970 C   0  0  0  0  0  0  0  0  0  0  0  0
   62.4870   31.7900   48.2700 C   0  0  0  0  0  0  0  0  0  0  0  0
   63.1550   33.1770   48.2120 C   0  0  2  0  0  0  0  0  0  0  0  0
   63.4070   33.6400   46.7740 C   0  0  0  0  0  0  0  0  0  0  0  0
   64.7480   33.1220   49.0990 S   0  0  0  0  0  0  0  0  0  0  0  0
   59.3850   33.0040   47.4110 C   0  0  0  0  0  0  0  0  0  0  0  0
   59.7970   34.5690   48.1080 Cl  0  0  0  0  0  0  0  0  0  0  0  0
   58.3850   32.9720   46.4320 C   0  0  0  0  0  0  0  0  0  0  0  0
   56.9993   28.2308   46.1260 H   0  0  0  0  0  0  0  0  0  0  0  0
   56.5380   27.4568   44.5720 H   0  0  0  0  0  0  0  0  0  0  0  0
   57.5784   28.9210   44.5720 H   0  0  0  0  0  0  0  0  0  0  0  0
   55.7170   30.0910   45.6220 H   0  0  0  0  0  0  0  0  0  0  0  0
   54.8728   28.9559   43.0349 H   0  0  0  0  0  0  0  0  0  0  0  0
   54.7032   30.6394   43.6638 H   0  0  0  0  0  0  0  0  0  0  0  0
   57.4307   29.3581   43.2450 H   0  0  0  0  0  0  0  0  0  0  0  0
   56.5291   30.1996   41.9058 H   0  0  0  0  0  0  0  0  0  0  0  0
   58.2888   31.5511   43.2733 H   0  0  0  0  0  0  0  0  0  0  0  0
   56.6656   32.2791   42.9337 H   0  0  0  0  0  0  0  0  0  0  0  0
   58.2938   29.6165   45.8232 H   0  0  0  0  0  0  0  0  0  0  0  0
   60.9820   32.7515   49.4902 H   0  0  0  0  0  0  0  0  0  0  0  0
   60.9589   30.9479   49.5405 H   0  0  0  0  0  0  0  0  0  0  0  0
   63.1207   31.1193   48.8688 H   0  0  0  0  0  0  0  0  0  0  0  0
   62.3771   31.4314   47.2359 H   0  0  0  0  0  0  0  0  0  0  0  0
   62.4665   33.8928   48.6849 H   0  0  0  0  0  0  0  0  0  0  0  0
   63.9328   34.6061   46.7867 H   0  0  0  0  0  0  0  0  0  0  0  0
   64.0234   32.8939   46.2513 H   0  0  0  0  0  0  0  0  0  0  0  0
   62.4457   33.7526   46.2513 H   0  0  0  0  0  0  0  0  0  0  0  0
   65.5060   33.1200   47.9110 H   0  0  0  0  0  0  0  0  0  0  0  0
   57.9086   33.9094   46.1090 H   0  0  0  0  0  0  0  0  0  0  0  0
  1  2  1  0
  2  3  1  0
  3  4  1  0
  4  5  1  0
  5  6  1  0
  6  7  1  0
  7  8  2  0
  8  9  1  0
  9 10  1  0
  9 11  2  0
 11 12  1  0
 12 13  1  0
 13 14  1  0
 14 15  1  0
 14 16  1  0
 11 17  1  0
 17 18  1  0
 17 19  2  0
 19  7  1  0
  1 20  1  0
  1 21  1  0
  1 22  1  0
  2 23  1  0
  3 24  1  0
  3 25  1  0
  4 26  1  0
  4 27  1  0
  5 28  1  0
  5 29  1  0
  8 30  1  0
 12 31  1  0
 12 32  1  0
 13 33  1  0
 13 34  1  0
 14 35  1  1
 15 36  1  0
 15 37  1  0
 15 38  1  0
 16 39  1  0
 19 40  1  0
M  END
>  <UniqueID>  (11) 
11

>  <SMILES>  (11) 
CNCCCOc1cc(Cl)c(CC[C@H](C)S)c(Cl)c1

>  <Energy>  (11) 
27.899909909003853

>  <Genealogy>  (11) 
CNCCCOc1cc(Cl)c(CC[C@H](C)S)c(Cl)c1 (chirality)
CNCCCOc1cc(Cl)c(CC[C@H](C)S)c(Cl)c1 (3D coordinates assigned)
CNCCCOc1cc(Cl)c(CC[C@H](C)S)c(Cl)c1 (optimized conformer: 27.899909909003853 kcal/mol)

>  <smiles>  (11) 
CNCCCOc1cc(Cl)c(CCC(C)S)c(Cl)c1

>  <score_type>  (11) 
oracle

>  <origin>  (11) 
adg

>  <m_score__min__energy>  (11) 
-7.2000000000000002

>  <m_primary>  (11) 
energy

$$$$
11:0
     RDKit          3D

 87 90  0  0  0  0  0  0  0  0999 V2000
   53.9370   30.4120   51.6460 C   0  0  0  0  0  0  0  0  0  0  0  0
   55.3070   31.0000   51.9810 C   0  0  0  0  0  0  0  0  0  0  0  0
   56.3360   29.9370   52.0370 N   0  0  0  0  0  0  0  0  0  0  0  0
   55.9820   28.9590   53.0850 C   0  0  0  0  0  0  0  0  0  0  0  0
   57.6760   30.5150   52.2920 C   0  0  0  0  0  0  0  0  0  0  0  0
   58.0980   31.4630   51.1630 C   0  0  0  0  0  0  0  0  0  0  0  0
   58.7490   30.7120   50.1610 O   0  0  0  0  0  0  0  0  0  0  0  0
   60.1510   30.9160   50.1910 C   0  0  0  0  0  0  0  0  0  0  0  0
   60.8410   29.7820   49.4220 C   0  0  0  0  0  0  0  0  0  0  0  0
   60.1920   29.5100   48.0450 C   0  0  0  0  0  0  0  0  0  0  0  0
   58.7770   29.9400   47.9280 N   0  0  0  0  0  0  0  0  0  0  0  0
   58.3440   30.0870   46.5490 C   0  0  0  0  0  0  0  0  0  0  0  0
   58.2070   28.9070   45.7360 C   0  0  0  0  0  0  0  0  0  0  0  0
   58.4530   27.5900   46.2260 C   0  0  0  0  0  0  0  0  0  0  0  0
   58.3990   26.4760   45.3920 C   0  0  0  0  0  0  0  0  0  0  0  0
   58.1090   26.6260   44.0490 C   0  0  0  0  0  0  0  0  0  0  0  0
   57.8210   27.8850   43.5440 C   0  0  0  0  0  0  0  0  0  0  0  0
   57.8150   29.0330   44.3790 C   0  0  0  0  0  0  0  0  0  0  0  0
   57.4470   30.2510   43.8780 N   0  0  0  0  0  0  0  0  0  0  0  0
   56.6590   30.3190   42.6220 C   0  0  0  0  0  0  0  0  0  0  0  0
   57.7640   31.4090   44.5520 C   0  0  0  0  0  0  0  0  0  0  0  0
   57.7390   32.6310   43.8450 C   0  0  0  0  0  0  0  0  0  0  0  0
   57.9110   33.8340   44.4810 C   0  0  0  0  0  0  0  0  0  0  0  0
   58.1100   33.8690   45.8380 C   0  0  0  0  0  0  0  0  0  0  0  0
   58.2180   32.6990   46.6170 C   0  0  0  0  0  0  0  0  0  0  0  0
   58.3810   32.9080   48.0470 N   0  0  0  0  0  0  0  0  0  0  0  0
   59.2920   33.8740   48.6750 C   0  0  0  0  0  0  0  0  0  0  0  0
   60.5050   34.2020   47.7710 C   0  0  0  0  0  0  0  0  0  0  0  0
   61.4440   32.9860   47.5400 C   0  0  0  0  0  0  0  0  0  0  0  0
   62.8810   33.1800   47.9280 N   0  0  0  0  0  0  0  0  0  0  0  0
   63.6980   33.5120   46.7280 C   0  0  0  0  0  0  0  0  0  0  0  0
   63.3780   31.8700   48.4810 C   0  0  0  0  0  0  0  0  0  0  0  0
   64.5290   32.0340   49.4870 C   0  0  0  0  0  0  0  0  0  0  0  0
   64.0770   32.8460   50.7130 C   0  0  0  0  0  0  0  0  0  0  0  0
   62.9250   33.8100   50.3870 C   0  0  0  0  0  0  0  0  0  0  0  0
   63.0090   34.2960   48.9300 C   0  0  0  0  0  0  0  0  0  0  0  0
   58.1250   31.3940   45.9480 C   0  0  0  0  0  0  0  0  0  0  0  0
   53.3993   30.1812   52.5775 H   0  0  0  0  0  0  0  0  0  0  0  0
   53.3585   31.1411   51.0597 H   0  0  0  0  0  0  0  0  0  0  0  0
   54.0670   29.4904   51.0597 H   0  0  0  0  0  0  0  0  0  0  0  0
   55.5849   31.7305   51.2070 H   0  0  0  0  0  0  0  0  0  0  0  0
   55.2502   31.4879   52.9653 H   0  0  0  0  0  0  0  0  0  0  0  0
   56.1446   29.4083   54.0758 H   0  0  0  0  0  0  0  0  0  0  0  0
   54.9243   28.6757   52.9800 H   0  0  0  0  0  0  0  0  0  0  0  0
   56.6133   28.0644   52.9800 H   0  0  0  0  0  0  0  0  0  0  0  0
   57.6507   31.0743   53.2388 H   0  0  0  0  0  0  0  0  0  0  0  0
   58.4045   29.6925   52.3452 H   0  0  0  0  0  0  0  0  0  0  0  0
   57.2089   31.9530   50.7394 H   0  0  0  0  0  0  0  0  0  0  0  0
   58.7781   32.2335   51.5552 H   0  0  0  0  0  0  0  0  0  0  0  0
   60.3929   31.8804   49.7203 H   0  0  0  0  0  0  0  0  0  0  0  0
   60.5017   30.9231   51.2336 H   0  0  0  0  0  0  0  0  0  0  0  0
   61.8954   30.0539   49.2660 H   0  0  0  0  0  0  0  0  0  0  0  0
   60.7403   28.8657   50.0223 H   0  0  0  0  0  0  0  0  0  0  0  0
   60.7759   30.0431   47.2803 H   0  0  0  0  0  0  0  0  0  0  0  0
   60.1958   28.4182   47.9113 H   0  0  0  0  0  0  0  0  0  0  0  0
   58.5670   30.8200   48.4400 H   0  0  0  0  0  0  0  0  0  0  0  0
   58.1920   29.3030   48.4970 H   0  0  0  0  0  0  0  0  0  0  0  0
   58.6916   27.4507   47.2907 H   0  0  0  0  0  0  0  0  0  0  0  0
   58.5878   25.4735   45.8035 H   0  0  0  0  0  0  0  0  0  0  0  0
   58.1067   25.7502   43.3834 H   0  0  0  0  0  0  0  0  0  0  0  0
   57.5924   27.9965   42.4738 H   0  0  0  0  0  0  0  0  0  0  0  0
   55.5900   30.4112   42.8644 H   0  0  0  0  0  0  0  0  0  0  0  0
   56.9787   31.1929   42.0354 H   0  0  0  0  0  0  0  0  0  0  0  0
   56.8243   29.4033   42.0354 H   0  0  0  0  0  0  0  0  0  0  0  0
   57.5775   32.6179   42.7570 H   0  0  0  0  0  0  0  0  0  0  0  0
   57.8894   34.7700   43.9035 H   0  0  0  0  0  0  0  0  0  0  0  0
   58.1882   34.8463   46.3367 H   0  0  0  0  0  0  0  0  0  0  0  0
   58.1050   32.2060   48.7450 H   0  0  0  0  0  0  0  0  0  0  0  0
   58.7391   34.8031   48.8778 H   0  0  0  0  0  0  0  0  0  0  0  0
   59.6732   33.4258   49.6044 H   0  0  0  0  0  0  0  0  0  0  0  0
   60.1309   34.5449   46.7951 H   0  0  0  0  0  0  0  0  0  0  0  0
   61.0942   34.9766   48.2836 H   0  0  0  0  0  0  0  0  0  0  0  0
   61.0494   32.1408   48.1230 H   0  0  0  0  0  0  0  0  0  0  0  0
   61.4508   32.8195   46.4527 H   0  0  0  0  0  0  0  0  0  0  0  0
   64.6734   33.9084   47.0467 H   0  0  0  0  0  0  0  0  0  0  0  0
   63.8502   32.6044   46.1255 H   0  0  0  0  0  0  0  0  0  0  0  0
   63.1739   34.2685   46.1255 H   0  0  0  0  0  0  0  0  0  0  0  0
   62.5419   31.3642   48.9860 H   0  0  0  0  0  0  0  0  0  0  0  0
   63.7653   31.2841   47.6344 H   0  0  0  0  0  0  0  0  0  0  0  0
   64.8628   31.0393   49.8173 H   0  0  0  0  0  0  0  0  0  0  0  0
   65.3520   32.5720   48.9938 H   0  0  0  0  0  0  0  0  0  0  0  0
   63.7428   32.1482   51.4949 H   0  0  0  0  0  0  0  0  0  0  0  0
   64.9332   33.4492   51.0492 H   0  0  0  0  0  0  0  0  0  0  0  0
   61.9673   33.2904   50.5383 H   0  0  0  0  0  0  0  0  0  0  0  0
   62.9991   34.6827   51.0525 H   0  0  0  0  0  0  0  0  0  0  0  0
   62.1986   35.0189   48.7546 H   0  0  0  0  0  0  0  0  0  0  0  0
   64.0017   34.7493   48.7917 H   0  0  0  0  0  0  0  0  0  0  0  0
  1  2  1  0
  2  3  1  0
  3  4  1  0
  3  5  1  0
  5  6  1  0
  6  7  1  0
  7  8  1  0
  8  9  1  0
  9 10  1  0
 10 11  1  0
 11 12  1  0
 12 13  2  0
 13 14  1  0
 14 15  2  0
 15 16  1  0
 16 17  2  0
 17 18  1  0
 18 19  2  0
 19 20  1  0
 19 21  1  0
 21 22  2  0
 22 23  1  0
 23 24  2  0
 24 25  1  0
 25 26  1  0
 26 27  1  0
 27 28  1  0
 28 29  1  0
 29 30  1  0
 30 31  1  0
 30 32  1  0
 32 33  1  0
 33 34  1  0
 34 35  1  0
 35 36  1  0
 25 37  2  0
 37 12  1  0
 18 13  1  0
 37 21  1  0
 36 30  1  0
  1 38  1  0
  1 39  1  0
  1 40  1  0
  2 41  1  0
  2 42  1  0
  4 43  1  0
  4 44  1  0
  4 45  1  0
  5 46  1  0
  5 47  1  0
  6 48  1  0
  6 49  1  0
  8 50  1  0
  8 51  1  0
  9 52  1  0
  9 53  1  0
 10 54  1  0
 10 55  1  0
 11 56  1  0
 11 57  1  0
 14 58  1  0
 15 59  1  0
 16 60  1  0
 17 61  1  0
 20 62  1  0
 20 63  1  0
 20 64  1  0
 22 65  1  0
 23 66  1  0
 24 67  1  0
 26 68  1  0
 27 69  1  0
 27 70  1  0
 28 71  1  0
 28 72  1  0
 29 73  1  0
 29 74  1  0
 31 75  1  0
 31 76  1  0
 31 77  1  0
 32 78  1  0
 32 79  1  0
 33 80  1  0
 33 81  1  0
 34 82  1  0
 34 83  1  0
 35 84  1  0
 35 85  1  0
 36 86  1  0
 36 87  1  0
M  CHG  3  11   1  19   1  30   1
M  END
>  <UniqueID>  (12) 
12

>  <SMILES>  (12) 
CCN(C)CCOCCC[NH2+]c1c2ccccc2[n+](C)c2cccc(NCCC[N+]3(C)CCCCC3)c12

>  <Energy>  (12) 
155.89779686611433

>  <Genealogy>  (12) 
CCN(C)CCOCCC[NH2+]c1c2ccccc2[n+](C)c2cccc(NCCC[N+]3(C)CCCCC3)c12 (protonated)
CCN(C)CCOCCC[NH2+]c1c2ccccc2[n+](C)c2cccc(NCCC[N+]3(C)CCCCC3)c12 (3D coordinates assigned)
CCN(C)CCOCCC[NH2+]c1c2ccccc2[n+](C)c2cccc(NCCC[N+]3(C)CCCCC3)c12 (nonaromatic ring conformer: 155.89779686611433 kcal/mol)

>  <smiles>  (12) 
CCN(C)CCOCCCNc1c2ccccc2[n+](C)c2cccc(NCCC[N+]3(C)CCCCC3)c12

>  <score_type>  (12) 
oracle

>  <origin>  (12) 
adg

>  <m_score__min__energy>  (12) 
-4.3300000000000001

>  <m_primary>  (12) 
energy

$$$$
12:0
     RDKit          3D

 47 49  0  0  0  0  0  0  0  0999 V2000
   60.0160   31.7260   50.4430 C   0  0  0  0  0  0  0  0  0  0  0  0
   61.0520   30.8860   50.5240 C   0  0  0  0  0  0  0  0  0  0  0  0
   61.7020   30.3020   49.2980 C   0  0  0  0  0  0  0  0  0  0  0  0
   60.7700   30.2960   48.1470 N   0  0  0  0  0  0  0  0  0  0  0  0
   60.8130   31.2820   47.1770 C   0  0  0  0  0  0  0  0  0  0  0  0
   61.8520   32.3920   47.1800 C   0  0  0  0  0  0  0  0  0  0  0  0
   61.2070   33.9220   47.9490 S   0  0  0  0  0  0  0  0  0  0  0  0
   59.7030   33.9760   46.9690 C   0  0  0  0  0  0  0  0  0  0  0  0
   58.4990   33.4970   47.5020 C   0  0  0  0  0  0  0  0  0  0  0  0
   57.3250   33.5590   46.7440 C   0  0  0  0  0  0  0  0  0  0  0  0
   57.3500   34.1070   45.4580 C   0  0  0  0  0  0  0  0  0  0  0  0
   58.5500   34.5910   44.9270 C   0  0  0  0  0  0  0  0  0  0  0  0
   59.7260   34.5270   45.6820 C   0  0  0  0  0  0  0  0  0  0  0  0
   59.8690   31.3040   46.1920 N   0  0  0  0  0  0  0  0  0  0  0  0
   58.9330   30.3280   46.0720 C   0  0  0  0  0  0  0  0  0  0  0  0
   58.0040   30.3610   45.0210 C   0  0  0  0  0  0  0  0  0  0  0  0
   57.0400   29.3440   44.8870 C   0  0  0  0  0  0  0  0  0  0  0  0
   56.0980   29.3460   43.8460 O   0  0  0  0  0  0  0  0  0  0  0  0
   56.2760   30.0030   42.5950 C   0  0  0  0  0  0  0  0  0  0  0  0
   57.0080   28.2920   45.8110 C   0  0  0  0  0  0  0  0  0  0  0  0
   56.0340   27.2930   45.6480 O   0  0  0  0  0  0  0  0  0  0  0  0
   56.2650   25.9000   45.8300 C   0  0  0  0  0  0  0  0  0  0  0  0
   57.9380   28.2630   46.8670 C   0  0  0  0  0  0  0  0  0  0  0  0
   58.9020   29.2790   47.0000 C   0  0  0  0  0  0  0  0  0  0  0  0
   59.8360   29.2890   48.0490 C   0  0  0  0  0  0  0  0  0  0  0  0
   59.8060   28.3620   48.9080 O   0  0  0  0  0  0  0  0  0  0  0  0
   59.5655   32.1337   51.3600 H   0  0  0  0  0  0  0  0  0  0  0  0
   59.6136   32.0098   49.4594 H   0  0  0  0  0  0  0  0  0  0  0  0
   61.4415   30.6131   51.5159 H   0  0  0  0  0  0  0  0  0  0  0  0
   62.5863   30.9033   49.0401 H   0  0  0  0  0  0  0  0  0  0  0  0
   61.9891   29.2632   49.5182 H   0  0  0  0  0  0  0  0  0  0  0  0
   62.7333   32.0536   47.7446 H   0  0  0  0  0  0  0  0  0  0  0  0
   62.1150   32.6179   46.1361 H   0  0  0  0  0  0  0  0  0  0  0  0
   58.4770   33.0722   48.5164 H   0  0  0  0  0  0  0  0  0  0  0  0
   56.3814   33.1763   47.1600 H   0  0  0  0  0  0  0  0  0  0  0  0
   56.4257   34.1575   44.8637 H   0  0  0  0  0  0  0  0  0  0  0  0
   58.5691   35.0222   43.9152 H   0  0  0  0  0  0  0  0  0  0  0  0
   60.6690   34.9096   45.2645 H   0  0  0  0  0  0  0  0  0  0  0  0
   59.8720   32.0880   45.4980 H   0  0  0  0  0  0  0  0  0  0  0  0
   58.0292   31.1880   44.2961 H   0  0  0  0  0  0  0  0  0  0  0  0
   56.5600   31.0514   42.7686 H   0  0  0  0  0  0  0  0  0  0  0  0
   57.0696   29.4976   42.0251 H   0  0  0  0  0  0  0  0  0  0  0  0
   55.3358   29.9674   42.0251 H   0  0  0  0  0  0  0  0  0  0  0  0
   56.3028   25.6720   46.9055 H   0  0  0  0  0  0  0  0  0  0  0  0
   55.4493   25.3289   45.3626 H   0  0  0  0  0  0  0  0  0  0  0  0
   57.2214   25.6228   45.3626 H   0  0  0  0  0  0  0  0  0  0  0  0
   57.9109   27.4386   47.5948 H   0  0  0  0  0  0  0  0  0  0  0  0
  1  2  2  0
  2  3  1  0
  3  4  1  0
  4  5  1  0
  5  6  1  0
  6  7  1  0
  7  8  1  0
  8  9  2  0
  9 10  1  0
 10 11  2  0
 11 12  1  0
 12 13  2  0
  5 14  2  0
 14 15  1  0
 15 16  2  0
 16 17  1  0
 17 18  1  0
 18 19  1  0
 17 20  2  0
 20 21  1  0
 21 22  1  0
 20 23  1  0
 23 24  2  0
 24 25  1  0
 25 26  2  0
 25  4  1  0
 13  8  1  0
 24 15  1  0
  1 27  1  0
  1 28  1  0
  2 29  1  0
  3 30  1  0
  3 31  1  0
  6 32  1  0
  6 33  1  0
  9 34  1  0
 10 35  1  0
 11 36  1  0
 12 37  1  0
 13 38  1  0
 14 39  1  0
 16 40  1  0
 19 41  1  0
 19 42  1  0
 19 43  1  0
 22 44  1  0
 22 45  1  0
 22 46  1  0
 23 47  1  0
M  CHG  1  14   1
M  END
>  <UniqueID>  (13) 
13

>  <SMILES>  (13) 
C=CCn1c(CSc2ccccc2)[nH+]c2cc(OC)c(OC)cc2c1=O

>  <Energy>  (13) 
49.88359110675991

>  <Genealogy>  (13) 
C=CCn1c(CSc2ccccc2)[nH+]c2cc(OC)c(OC)cc2c1=O (protonated)
C=CCn1c(CSc2ccccc2)[nH+]c2cc(OC)c(OC)cc2c1=O (3D coordinates assigned)
C=CCn1c(CSc2ccccc2)[nH+]c2cc(OC)c(OC)cc2c1=O (optimized conformer: 49.88359110675991 kcal/mol)

>  <smiles>  (13) 
C=CCn1c(CSc2ccccc2)nc2cc(OC)c(OC)cc2c1=O

>  <score_type>  (13) 
oracle

>  <origin>  (13) 
adg

>  <m_score__min__energy>  (13) 
-5.8899999999999997

>  <m_primary>  (13) 
energy

$$$$
13:0
     RDKit          3D

 55 57  0  0  0  0  0  0  0  0999 V2000
   62.6470   33.8720   46.4260 C   0  0  0  0  0  0  0  0  0  0  0  0
   63.7950   33.0960   47.0510 C   0  0  0  0  0  0  0  0  0  0  0  0
   63.2810   31.9490   47.7000 O   0  0  0  0  0  0  0  0  0  0  0  0
   63.6460   31.9550   49.0240 N   0  0  0  0  0  0  0  0  0  0  0  0
   62.7180   31.1150   49.8010 C   0  0  0  0  0  0  0  0  0  0  0  0
   61.3060   31.7210   49.9140 C   0  0  0  0  0  0  0  0  0  0  0  0
   60.2750   31.0050   49.0350 C   0  0  0  0  0  0  0  0  0  0  0  0
   60.6910   31.0250   47.6320 N   0  0  0  0  0  0  0  0  0  0  0  0
   59.7460   30.8690   46.5600 C   0  0  0  0  0  0  0  0  0  0  0  0
   59.1470   31.9990   45.9880 C   0  0  0  0  0  0  0  0  0  0  0  0
   58.3020   31.8560   44.8730 C   0  0  0  0  0  0  0  0  0  0  0  0
   57.9570   30.6000   44.4030 N   0  0  0  0  0  0  0  0  0  0  0  0
   56.9000   30.4660   43.3710 C   0  0  0  0  0  0  0  0  0  0  0  0
   55.5800   30.0090   43.9910 C   0  0  0  0  0  0  0  0  0  0  0  0
   58.5700   29.4750   44.9340 C   0  0  0  0  0  0  0  0  0  0  0  0
   58.3680   28.1770   44.3900 C   0  0  0  0  0  0  0  0  0  0  0  0
   58.9460   27.0500   44.9740 C   0  0  0  0  0  0  0  0  0  0  0  0
   59.7400   27.1780   46.1060 C   0  0  0  0  0  0  0  0  0  0  0  0
   59.9900   28.4370   46.6420 C   0  0  0  0  0  0  0  0  0  0  0  0
   59.4450   29.5950   46.0500 C   0  0  0  0  0  0  0  0  0  0  0  0
   57.8920   33.1560   44.1890 C   0  0  0  0  0  0  0  0  0  0  0  0
   57.3350   34.1620   45.2080 C   0  0  0  0  0  0  0  0  0  0  0  0
   58.1410   34.2300   46.5260 C   0  0  0  0  0  0  0  0  0  0  0  0
   59.4300   33.3960   46.5050 C   0  0  0  0  0  0  0  0  0  0  0  0
   62.0168   34.2980   47.2206 H   0  0  0  0  0  0  0  0  0  0  0  0
   63.0497   34.6839   45.8026 H   0  0  0  0  0  0  0  0  0  0  0  0
   62.0437   33.1957   45.8026 H   0  0  0  0  0  0  0  0  0  0  0  0
   64.5021   32.7891   46.2663 H   0  0  0  0  0  0  0  0  0  0  0  0
   64.3169   33.7317   47.7814 H   0  0  0  0  0  0  0  0  0  0  0  0
   64.6370   31.6460   49.1900 H   0  0  0  0  0  0  0  0  0  0  0  0
   63.5900   32.9460   49.3570 H   0  0  0  0  0  0  0  0  0  0  0  0
   62.6397   30.1335   49.3105 H   0  0  0  0  0  0  0  0  0  0  0  0
   63.1233   31.0343   50.8204 H   0  0  0  0  0  0  0  0  0  0  0  0
   60.9791   31.6550   50.9622 H   0  0  0  0  0  0  0  0  0  0  0  0
   61.3666   32.7633   49.5676 H   0  0  0  0  0  0  0  0  0  0  0  0
   60.1784   29.9612   49.3685 H   0  0  0  0  0  0  0  0  0  0  0  0
   59.3098   31.5247   49.1259 H   0  0  0  0  0  0  0  0  0  0  0  0
   61.7010   31.1550   47.3980 H   0  0  0  0  0  0  0  0  0  0  0  0
   56.7493   31.4401   42.8826 H   0  0  0  0  0  0  0  0  0  0  0  0
   57.2213   29.7114   42.6380 H   0  0  0  0  0  0  0  0  0  0  0  0
   55.6609   30.0370   45.0877 H   0  0  0  0  0  0  0  0  0  0  0  0
   54.7707   30.6793   43.6658 H   0  0  0  0  0  0  0  0  0  0  0  0
   55.3584   28.9818   43.6658 H   0  0  0  0  0  0  0  0  0  0  0  0
   57.7442   28.0594   43.4917 H   0  0  0  0  0  0  0  0  0  0  0  0
   58.7722   26.0560   44.5362 H   0  0  0  0  0  0  0  0  0  0  0  0
   60.1714   26.2835   46.5790 H   0  0  0  0  0  0  0  0  0  0  0  0
   60.6205   28.5304   47.5385 H   0  0  0  0  0  0  0  0  0  0  0  0
   58.7708   33.5947   43.6938 H   0  0  0  0  0  0  0  0  0  0  0  0
   57.1065   32.9319   43.4522 H   0  0  0  0  0  0  0  0  0  0  0  0
   57.3400   35.1607   44.7470 H   0  0  0  0  0  0  0  0  0  0  0  0
   56.3219   33.8231   45.4703 H   0  0  0  0  0  0  0  0  0  0  0  0
   58.4097   35.2798   46.7150 H   0  0  0  0  0  0  0  0  0  0  0  0
   57.5004   33.8118   47.3165 H   0  0  0  0  0  0  0  0  0  0  0  0
   60.1663   33.8831   45.8488 H   0  0  0  0  0  0  0  0  0  0  0  0
   59.8255   33.3243   47.5289 H   0  0  0  0  0  0  0  0  0  0  0  0
  1  2  1  0
  2  3  1  0
  3  4  1  0
  4  5  1  0
  5  6  1  0
  6  7  1  0
  7  8  1  0
  8  9  1  0
  9 10  2  0
 10 11  1  0
 11 12  2  0
 12 13  1  0
 13 14  1  0
 12 15  1  0
 15 16  2  0
 16 17  1  0
 17 18  2  0
 18 19  1  0
 19 20  2  0
 11 21  1  0
 21 22  1  0
 22 23  1  0
 23 24  1  0
 20  9  1  0
 24 10  1  0
 20 15  1  0
  1 25  1  0
  1 26  1  0
  1 27  1  0
  2 28  1  0
  2 29  1  0
  4 30  1  0
  4 31  1  0
  5 32  1  0
  5 33  1  0
  6 34  1  0
  6 35  1  0
  7 36  1  0
  7 37  1  0
  8 38  1  0
 13 39  1  0
 13 40  1  0
 14 41  1  0
 14 42  1  0
 14 43  1  0
 16 44  1  0
 17 45  1  0
 18 46  1  0
 19 47  1  0
 21 48  1  0
 21 49  1  0
 22 50  1  0
 22 51  1  0
 23 52  1  0
 23 53  1  0
 24 54  1  0
 24 55  1  0
M  CHG  2   4   1  12   1
M  END
>  <UniqueID>  (14) 
14

>  <SMILES>  (14) 
CCO[NH2+]CCCNc1c2c([n+](CC)c3ccccc13)CCCC2

>  <Energy>  (14) 
78.54491776189109

>  <Genealogy>  (14) 
CCO[NH2+]CCCNc1c2c([n+](CC)c3ccccc13)CCCC2 (protonated)
CCO[NH2+]CCCNc1c2c([n+](CC)c3ccccc13)CCCC2 (3D coordinates assigned)
CCO[NH2+]CCCNc1c2c([n+](CC)c3ccccc13)CCCC2 (nonaromatic ring conformer: 78.54491776189109 kcal/mol)

>  <smiles>  (14) 
CCONCCCNc1c2c([n+](CC)c3ccccc13)CCCC2

>  <score_type>  (14) 
oracle

>  <origin>  (14) 
adg

>  <m_score__min__energy>  (14) 
-5.0099999999999998

>  <m_primary>  (14) 
energy

$$$$
14:0
     RDKit          3D

 47 49  0  0  0  0  0  0  0  0999 V2000
   60.9320   28.6140   44.8820 C   0  0  0  0  0  0  0  0  0  0  0  0
   59.6780   28.5510   45.7480 C   0  0  0  0  0  0  0  0  0  0  0  0
   58.5920   29.4230   45.1750 C   0  0  0  0  0  0  0  0  0  0  0  0
   57.3970   28.8520   44.7110 C   0  0  0  0  0  0  0  0  0  0  0  0
   56.4070   29.6570   44.1430 C   0  0  0  0  0  0  0  0  0  0  0  0
   56.6030   31.0350   44.0270 C   0  0  0  0  0  0  0  0  0  0  0  0
   57.7930   31.6210   44.4860 C   0  0  0  0  0  0  0  0  0  0  0  0
   58.0260   33.0990   44.3200 C   0  0  0  0  0  0  0  0  0  0  0  0
   57.0410   33.8990   45.1900 C   0  0  0  0  0  0  0  0  0  0  0  0
   57.2400   33.6530   46.6300 N   0  0  0  0  0  0  0  0  0  0  0  0
   58.5150   34.2040   47.1160 C   0  0  0  0  0  0  0  0  0  0  0  0
   59.4190   33.1010   47.5840 C   0  0  0  0  0  0  0  0  0  0  0  0
   59.0270   31.9140   48.1960 C   0  0  0  0  0  0  0  0  0  0  0  0
   60.1050   31.1200   48.4030 N   0  0  0  0  0  0  0  0  0  0  0  0
   60.0900   29.7790   48.9800 C   0  0  0  0  0  0  0  0  0  0  0  0
   61.1680   31.7820   47.9060 C   0  0  0  0  0  0  0  0  0  0  0  0
   62.4980   31.3560   47.8510 C   0  0  0  0  0  0  0  0  0  0  0  0
   63.4410   32.2160   47.2570 C   0  0  0  0  0  0  0  0  0  0  0  0
   63.0410   33.4640   46.7300 C   0  0  0  0  0  0  0  0  0  0  0  0
   61.6940   33.8650   46.7930 C   0  0  0  0  0  0  0  0  0  0  0  0
   60.7830   32.9960   47.3950 C   0  0  0  0  0  0  0  0  0  0  0  0
   58.7920   30.8060   45.0460 C   0  0  0  0  0  0  0  0  0  0  0  0
   61.8215   28.6587   45.5275 H   0  0  0  0  0  0  0  0  0  0  0  0
   60.9845   27.7174   44.2470 H   0  0  0  0  0  0  0  0  0  0  0  0
   60.8943   29.5114   44.2470 H   0  0  0  0  0  0  0  0  0  0  0  0
   59.3211   27.5114   45.7918 H   0  0  0  0  0  0  0  0  0  0  0  0
   59.9262   28.9118   46.7571 H   0  0  0  0  0  0  0  0  0  0  0  0
   57.2394   27.7666   44.7949 H   0  0  0  0  0  0  0  0  0  0  0  0
   55.4702   29.2044   43.7860 H   0  0  0  0  0  0  0  0  0  0  0  0
   55.8219   31.6634   43.5742 H   0  0  0  0  0  0  0  0  0  0  0  0
   59.0555   33.3398   44.6234 H   0  0  0  0  0  0  0  0  0  0  0  0
   57.8697   33.3683   43.2650 H   0  0  0  0  0  0  0  0  0  0  0  0
   57.1837   34.9714   44.9912 H   0  0  0  0  0  0  0  0  0  0  0  0
   56.0224   33.5747   44.9306 H   0  0  0  0  0  0  0  0  0  0  0  0
   57.1930   32.6250   46.8290 H   0  0  0  0  0  0  0  0  0  0  0  0
   56.4580   34.1200   47.1490 H   0  0  0  0  0  0  0  0  0  0  0  0
   59.0067   34.7534   46.2997 H   0  0  0  0  0  0  0  0  0  0  0  0
   58.3122   34.8803   47.9595 H   0  0  0  0  0  0  0  0  0  0  0  0
   57.9932   31.6580   48.4713 H   0  0  0  0  0  0  0  0  0  0  0  0
   60.0908   29.8521   50.0776 H   0  0  0  0  0  0  0  0  0  0  0  0
   59.1859   29.2473   48.6486 H   0  0  0  0  0  0  0  0  0  0  0  0
   60.9820   29.2272   48.6486 H   0  0  0  0  0  0  0  0  0  0  0  0
   62.7984   30.3796   48.2590 H   0  0  0  0  0  0  0  0  0  0  0  0
   64.4973   31.9139   47.2028 H   0  0  0  0  0  0  0  0  0  0  0  0
   63.7874   34.1265   46.2674 H   0  0  0  0  0  0  0  0  0  0  0  0
   61.3694   34.8320   46.3812 H   0  0  0  0  0  0  0  0  0  0  0  0
   59.7369   31.2553   45.3854 H   0  0  0  0  0  0  0  0  0  0  0  0
  1  2  1  0
  2  3  1  0
  3  4  2  0
  4  5  1  0
  5  6  2  0
  6  7  1  0
  7  8  1  0
  8  9  1  0
  9 10  1  0
 10 11  1  0
 11 12  1  0
 12 13  2  0
 13 14  1  0
 14 15  1  0
 14 16  1  0
 16 17  2  0
 17 18  1  0
 18 19  2  0
 19 20  1  0
 20 21  2  0
  7 22  2  0
 22  3  1  0
 21 12  1  0
 21 16  1  0
  1 23  1  0
  1 24  1  0
  1 25  1  0
  2 26  1  0
  2 27  1  0
  4 28  1  0
  5 29  1  0
  6 30  1  0
  8 31  1  0
  8 32  1  0
  9 33  1  0
  9 34  1  0
 10 35  1  0
 10 36  1  0
 11 37  1  0
 11 38  1  0
 13 39  1  0
 15 40  1  0
 15 41  1  0
 15 42  1  0
 17 43  1  0
 18 44  1  0
 19 45  1  0
 20 46  1  0
 22 47  1  0
M  CHG  1  10   1
M  END
>  <UniqueID>  (15) 
15

>  <SMILES>  (15) 
CCc1cccc(CC[NH2+]Cc2cn(C)c3ccccc23)c1

>  <Energy>  (15) 
75.14272651713208

>  <Genealogy>  (15) 
CCc1cccc(CC[NH2+]Cc2cn(C)c3ccccc23)c1 (protonated)
CCc1cccc(CC[NH2+]Cc2cn(C)c3ccccc23)c1 (3D coordinates assigned)
CCc1cccc(CC[NH2+]Cc2cn(C)c3ccccc23)c1 (optimized conformer: 75.14272651713208 kcal/mol)

>  <smiles>  (15) 
CCc1cccc(CCNCc2cn(C)c3ccccc23)c1

>  <score_type>  (15) 
oracle

>  <origin>  (15) 
adg

>  <m_score__min__energy>  (15) 
-5.7199999999999998

>  <m_primary>  (15) 
energy

$$$$
15:0
     RDKit          3D

 82 85  0  0  0  0  0  0  0  0999 V2000
   59.7060   33.8080   50.6390 C   0  0  0  0  0  0  0  0  0  0  0  0
   58.5780   32.9840   51.2650 C   0  0  0  0  0  0  0  0  0  0  0  0
   58.4390   33.2740   52.7670 C   0  0  0  0  0  0  0  0  0  0  0  0
   58.7060   31.4700   50.9540 C   0  0  0  0  0  0  0  0  0  0  0  0
   59.4820   31.1540   49.7280 N   0  0  0  0  0  0  0  0  0  0  0  0
   59.2890   29.7620   49.2840 C   0  0  0  0  0  0  0  0  0  0  0  0
   60.4690   29.2560   48.4340 C   0  0  0  0  0  0  0  0  0  0  0  0
   60.8490   30.2040   47.3820 N   0  0  0  0  0  0  0  0  0  0  0  0
   59.8980   30.7740   46.4670 C   0  0  0  0  0  0  0  0  0  0  0  0
   59.1000   29.9260   45.6770 C   0  0  0  0  0  0  0  0  0  0  0  0
   59.0570   28.5350   45.9190 C   0  0  0  0  0  0  0  0  0  0  0  0
   58.2450   27.7020   45.1540 C   0  0  0  0  0  0  0  0  0  0  0  0
   57.4440   28.2400   44.1520 C   0  0  0  0  0  0  0  0  0  0  0  0
   57.4550   29.6130   43.9070 C   0  0  0  0  0  0  0  0  0  0  0  0
   58.2970   30.4820   44.6490 C   0  0  0  0  0  0  0  0  0  0  0  0
   58.3290   31.8410   44.4070 N   0  0  0  0  0  0  0  0  0  0  0  0
   57.7650   32.3800   43.1490 C   0  0  0  0  0  0  0  0  0  0  0  0
   58.8960   32.6930   45.3350 C   0  0  0  0  0  0  0  0  0  0  0  0
   58.6750   34.0900   45.2760 C   0  0  0  0  0  0  0  0  0  0  0  0
   59.2700   34.9520   46.1850 C   0  0  0  0  0  0  0  0  0  0  0  0
   60.0930   34.4570   47.1850 C   0  0  0  0  0  0  0  0  0  0  0  0
   60.3280   33.0780   47.3030 C   0  0  0  0  0  0  0  0  0  0  0  0
   61.1600   32.5770   48.3200 O   0  0  0  0  0  0  0  0  0  0  0  0
   62.5720   32.7320   48.4260 C   0  0  0  0  0  0  0  0  0  0  0  0
   63.0230   33.5810   49.6480 C   0  0  0  0  0  0  0  0  0  0  0  0
   64.0370   32.9880   50.5920 N   0  0  0  0  0  0  0  0  0  0  0  0
   63.3490   32.0420   51.5180 C   0  0  0  0  0  0  0  0  0  0  0  0
   64.5660   34.1250   51.4120 C   0  0  0  0  0  0  0  0  0  0  0  0
   65.7880   33.7590   52.2920 C   0  0  0  0  0  0  0  0  0  0  0  0
   66.8700   33.0120   51.5650 N   0  0  0  0  0  0  0  0  0  0  0  0
   67.0720   31.6710   52.1760 C   0  0  0  0  0  0  0  0  0  0  0  0
   68.1520   33.7520   51.6850 C   0  0  0  0  0  0  0  0  0  0  0  0
   66.5630   32.8620   50.1170 C   0  0  0  0  0  0  0  0  0  0  0  0
   65.1510   32.2930   49.8530 C   0  0  0  0  0  0  0  0  0  0  0  0
   59.7140   32.1770   46.3840 C   0  0  0  0  0  0  0  0  0  0  0  0
   60.3187   34.2555   51.4355 H   0  0  0  0  0  0  0  0  0  0  0  0
   60.3347   33.1550   50.0158 H   0  0  0  0  0  0  0  0  0  0  0  0
   59.2752   34.6055   50.0158 H   0  0  0  0  0  0  0  0  0  0  0  0
   57.6390   33.3049   50.7905 H   0  0  0  0  0  0  0  0  0  0  0  0
   58.8441   32.4287   53.3427 H   0  0  0  0  0  0  0  0  0  0  0  0
   58.9966   34.1887   53.0170 H   0  0  0  0  0  0  0  0  0  0  0  0
   57.3767   33.4123   53.0170 H   0  0  0  0  0  0  0  0  0  0  0  0
   59.2014   30.9850   51.8081 H   0  0  0  0  0  0  0  0  0  0  0  0
   57.6847   31.1001   50.7804 H   0  0  0  0  0  0  0  0  0  0  0  0
   60.4970   31.3020   49.9400 H   0  0  0  0  0  0  0  0  0  0  0  0
   59.2340   31.7970   48.9480 H   0  0  0  0  0  0  0  0  0  0  0  0
   59.1882   29.1179   50.1700 H   0  0  0  0  0  0  0  0  0  0  0  0
   58.3834   29.7279   48.6605 H   0  0  0  0  0  0  0  0  0  0  0  0
   61.3348   29.0942   49.0929 H   0  0  0  0  0  0  0  0  0  0  0  0
   60.1534   28.3225   47.9452 H   0  0  0  0  0  0  0  0  0  0  0  0
   61.8070   30.6180   47.4140 H   0  0  0  0  0  0  0  0  0  0  0  0
   59.6730   28.1044   46.7222 H   0  0  0  0  0  0  0  0  0  0  0  0
   58.2369   26.6182   45.3420 H   0  0  0  0  0  0  0  0  0  0  0  0
   56.8002   27.5808   43.5512 H   0  0  0  0  0  0  0  0  0  0  0  0
   56.8009   30.0289   43.1265 H   0  0  0  0  0  0  0  0  0  0  0  0
   56.9881   33.1225   43.3840 H   0  0  0  0  0  0  0  0  0  0  0  0
   58.5644   32.8584   42.5641 H   0  0  0  0  0  0  0  0  0  0  0  0
   57.3234   31.5597   42.5641 H   0  0  0  0  0  0  0  0  0  0  0  0
   58.0187   34.4997   44.4941 H   0  0  0  0  0  0  0  0  0  0  0  0
   59.0880   36.0344   46.1122 H   0  0  0  0  0  0  0  0  0  0  0  0
   60.5669   35.1523   47.8935 H   0  0  0  0  0  0  0  0  0  0  0  0
   63.0245   31.7331   48.5124 H   0  0  0  0  0  0  0  0  0  0  0  0
   62.9026   33.2691   47.5248 H   0  0  0  0  0  0  0  0  0  0  0  0
   63.4501   34.5158   49.2559 H   0  0  0  0  0  0  0  0  0  0  0  0
   62.1131   33.6869   50.2569 H   0  0  0  0  0  0  0  0  0  0  0  0
   63.5585   32.3301   52.5587 H   0  0  0  0  0  0  0  0  0  0  0  0
   62.2642   32.0775   51.3390 H   0  0  0  0  0  0  0  0  0  0  0  0
   63.7170   31.0209   51.3390 H   0  0  0  0  0  0  0  0  0  0  0  0
   64.8630   34.9342   50.7287 H   0  0  0  0  0  0  0  0  0  0  0  0
   63.7595   34.4215   52.0987 H   0  0  0  0  0  0  0  0  0  0  0  0
   66.2186   34.6903   52.6885 H   0  0  0  0  0  0  0  0  0  0  0  0
   65.4185   33.0893   53.0825 H   0  0  0  0  0  0  0  0  0  0  0  0
   67.0583   31.7617   53.2722 H   0  0  0  0  0  0  0  0  0  0  0  0
   66.2654   30.9960   51.8538 H   0  0  0  0  0  0  0  0  0  0  0  0
   68.0416   31.2636   51.8538 H   0  0  0  0  0  0  0  0  0  0  0  0
   68.3959   33.8928   52.7483 H   0  0  0  0  0  0  0  0  0  0  0  0
   68.9538   33.1778   51.1978 H   0  0  0  0  0  0  0  0  0  0  0  0
   68.0558   34.7335   51.1978 H   0  0  0  0  0  0  0  0  0  0  0  0
   66.6374   33.8500   49.6391 H   0  0  0  0  0  0  0  0  0  0  0  0
   67.2880   32.1474   49.7001 H   0  0  0  0  0  0  0  0  0  0  0  0
   64.9471   32.3722   48.7750 H   0  0  0  0  0  0  0  0  0  0  0  0
   65.1635   31.2560   50.2196 H   0  0  0  0  0  0  0  0  0  0  0  0
  1  2  1  0
  2  3  1  0
  2  4  1  0
  4  5  1  0
  5  6  1  0
  6  7  1  0
  7  8  1  0
  8  9  1  0
  9 10  2  0
 10 11  1  0
 11 12  2  0
 12 13  1  0
 13 14  2  0
 14 15  1  0
 15 16  2  0
 16 17  1  0
 16 18  1  0
 18 19  2  0
 19 20  1  0
 20 21  2  0
 21 22  1  0
 22 23  1  0
 23 24  1  0
 24 25  1  0
 25 26  1  0
 26 27  1  0
 26 28  1  0
 28 29  1  0
 29 30  1  0
 30 31  1  0
 30 32  1  0
 30 33  1  0
 33 34  1  0
 22 35  2  0
 35  9  1  0
 15 10  1  0
 35 18  1  0
 34 26  1  0
  1 36  1  0
  1 37  1  0
  1 38  1  0
  2 39  1  0
  3 40  1  0
  3 41  1  0
  3 42  1  0
  4 43  1  0
  4 44  1  0
  5 45  1  0
  5 46  1  0
  6 47  1  0
  6 48  1  0
  7 49  1  0
  7 50  1  0
  8 51  1  0
 11 52  1  0
 12 53  1  0
 13 54  1  0
 14 55  1  0
 17 56  1  0
 17 57  1  0
 17 58  1  0
 19 59  1  0
 20 60  1  0
 21 61  1  0
 24 62  1  0
 24 63  1  0
 25 64  1  0
 25 65  1  0
 27 66  1  0
 27 67  1  0
 27 68  1  0
 28 69  1  0
 28 70  1  0
 29 71  1  0
 29 72  1  0
 31 73  1  0
 31 74  1  0
 31 75  1  0
 32 76  1  0
 32 77  1  0
 32 78  1  0
 33 79  1  0
 33 80  1  0
 34 81  1  0
 34 82  1  0
M  CHG  4   5   1  16   1  26   1  30   1
M  END
>  <UniqueID>  (16) 
16

>  <SMILES>  (16) 
CC(C)C[NH2+]CCNc1c2ccccc2[n+](C)c2cccc(OCC[N+]3(C)CC[N+](C)(C)CC3)c12

>  <Energy>  (16) 
141.774849019609

>  <Genealogy>  (16) 
CC(C)C[NH2+]CCNc1c2ccccc2[n+](C)c2cccc(OCC[N+]3(C)CC[N+](C)(C)CC3)c12 (protonated)
CC(C)C[NH2+]CCNc1c2ccccc2[n+](C)c2cccc(OCC[N+]3(C)CC[N+](C)(C)CC3)c12 (3D coordinates assigned)
CC(C)C[NH2+]CCNc1c2ccccc2[n+](C)c2cccc(OCC[N+]3(C)CC[N+](C)(C)CC3)c12 (nonaromatic ring conformer: 141.774849019609 kcal/mol)

>  <smiles>  (16) 
CC(C)CNCCNc1c2ccccc2[n+](C)c2cccc(OCC[N+]3(C)CC[N+](C)(C)CC3)c12

>  <score_type>  (16) 
oracle

>  <origin>  (16) 
adg

>  <m_score__min__energy>  (16) 
-2.4399999999999999

>  <m_primary>  (16) 
energy

$$$$
16:0
     RDKit          3D

 54 56  0  0  0  0  0  0  0  0999 V2000
   63.3240   33.8350   46.3690 C   0  0  0  0  0  0  0  0  0  0  0  0
   62.6630   33.6020   47.7190 C   0  0  0  0  0  0  0  0  0  0  0  0
   62.6150   32.2150   47.9800 O   0  0  0  0  0  0  0  0  0  0  0  0
   63.3850   31.8930   49.1240 C   0  0  0  0  0  0  0  0  0  0  0  0
   62.6250   30.9000   50.0020 C   0  0  0  0  0  0  0  0  0  0  0  0
   61.1730   31.1130   49.8650 N   0  0  0  0  0  0  0  0  0  0  0  0
   60.4010   29.8630   49.9220 C   0  0  0  0  0  0  0  0  0  0  0  0
   60.0240   29.3860   48.5160 C   0  0  0  0  0  0  0  0  0  0  0  0
   60.2590   30.4390   47.5280 N   0  0  0  0  0  0  0  0  0  0  0  0
   59.3550   30.6590   46.4340 C   0  0  0  0  0  0  0  0  0  0  0  0
   58.9290   29.5620   45.6660 C   0  0  0  0  0  0  0  0  0  0  0  0
   59.2490   28.2430   46.0520 C   0  0  0  0  0  0  0  0  0  0  0  0
   58.7960   27.1550   45.3090 C   0  0  0  0  0  0  0  0  0  0  0  0
   58.0100   27.3620   44.1820 C   0  0  0  0  0  0  0  0  0  0  0  0
   57.6970   28.6580   43.7720 C   0  0  0  0  0  0  0  0  0  0  0  0
   58.1780   29.7870   44.4860 C   0  0  0  0  0  0  0  0  0  0  0  0
   57.9310   31.0760   44.0600 N   0  0  0  0  0  0  0  0  0  0  0  0
   57.4490   31.3170   42.6800 C   0  0  0  0  0  0  0  0  0  0  0  0
   58.1500   32.1420   44.9130 C   0  0  0  0  0  0  0  0  0  0  0  0
   57.6420   33.4300   44.6220 C   0  0  0  0  0  0  0  0  0  0  0  0
   57.8860   34.5070   45.4630 C   0  0  0  0  0  0  0  0  0  0  0  0
   58.6060   34.3330   46.6360 C   0  0  0  0  0  0  0  0  0  0  0  0
   59.0850   33.0650   47.0000 C   0  0  0  0  0  0  0  0  0  0  0  0
   59.7320   32.8800   48.2350 O   0  0  0  0  0  0  0  0  0  0  0  0
   59.7030   33.7990   49.3230 C   0  0  0  0  0  0  0  0  0  0  0  0
   58.8800   31.9570   46.1260 C   0  0  0  0  0  0  0  0  0  0  0  0
   64.3514   34.1972   46.5214 H   0  0  0  0  0  0  0  0  0  0  0  0
   63.3479   32.8911   45.8046 H   0  0  0  0  0  0  0  0  0  0  0  0
   62.7507   34.5852   45.8046 H   0  0  0  0  0  0  0  0  0  0  0  0
   63.2456   34.1043   48.5053 H   0  0  0  0  0  0  0  0  0  0  0  0
   61.6419   34.0108   47.7057 H   0  0  0  0  0  0  0  0  0  0  0  0
   64.3381   31.4442   48.8073 H   0  0  0  0  0  0  0  0  0  0  0  0
   63.5780   32.8103   49.6996 H   0  0  0  0  0  0  0  0  0  0  0  0
   62.8735   29.8746   49.6910 H   0  0  0  0  0  0  0  0  0  0  0  0
   62.9143   31.0523   51.0523 H   0  0  0  0  0  0  0  0  0  0  0  0
   60.9930   31.5490   48.9290 H   0  0  0  0  0  0  0  0  0  0  0  0
   61.0069   29.0881   50.4143 H   0  0  0  0  0  0  0  0  0  0  0  0
   59.4767   30.0475   50.4891 H   0  0  0  0  0  0  0  0  0  0  0  0
   60.6335   28.5074   48.2581 H   0  0  0  0  0  0  0  0  0  0  0  0
   58.9549   29.1274   48.5071 H   0  0  0  0  0  0  0  0  0  0  0  0
   61.0930   31.0600   47.6300 H   0  0  0  0  0  0  0  0  0  0  0  0
   59.8625   28.0720   46.9489 H   0  0  0  0  0  0  0  0  0  0  0  0
   59.0606   26.1320   45.6146 H   0  0  0  0  0  0  0  0  0  0  0  0
   57.6332   26.5006   43.6110 H   0  0  0  0  0  0  0  0  0  0  0  0
   57.0680   28.8076   42.8821 H   0  0  0  0  0  0  0  0  0  0  0  0
   56.4656   31.8087   42.7157 H   0  0  0  0  0  0  0  0  0  0  0  0
   58.1634   31.9640   42.1498 H   0  0  0  0  0  0  0  0  0  0  0  0
   57.3601   30.3573   42.1498 H   0  0  0  0  0  0  0  0  0  0  0  0
   57.0424   33.5808   43.7122 H   0  0  0  0  0  0  0  0  0  0  0  0
   57.5061   35.5047   45.1977 H   0  0  0  0  0  0  0  0  0  0  0  0
   58.8034   35.1973   47.2872 H   0  0  0  0  0  0  0  0  0  0  0  0
   59.7205   33.2438   50.2725 H   0  0  0  0  0  0  0  0  0  0  0  0
   60.5807   34.4597   49.2684 H   0  0  0  0  0  0  0  0  0  0  0  0
   58.7853   34.4031   49.2684 H   0  0  0  0  0  0  0  0  0  0  0  0
  1  2  1  0
  2  3  1  0
  3  4  1  0
  4  5  1  0
  5  6  1  0
  6  7  1  0
  7  8  1  0
  8  9  1  0
  9 10  1  0
 10 11  2  0
 11 12  1  0
 12 13  2  0
 13 14  1  0
 14 15  2  0
 15 16  1  0
 16 17  2  0
 17 18  1  0
 17 19  1  0
 19 20  2  0
 20 21  1  0
 21 22  2  0
 22 23  1  0
 23 24  1  0
 24 25  1  0
 23 26  2  0
 26 10  1  0
 16 11  1  0
 26 19  1  0
  1 27  1  0
  1 28  1  0
  1 29  1  0
  2 30  1  0
  2 31  1  0
  4 32  1  0
  4 33  1  0
  5 34  1  0
  5 35  1  0
  6 36  1  0
  7 37  1  0
  7 38  1  0
  8 39  1  0
  8 40  1  0
  9 41  1  0
 12 42  1  0
 13 43  1  0
 14 44  1  0
 15 45  1  0
 18 46  1  0
 18 47  1  0
 18 48  1  0
 20 49  1  0
 21 50  1  0
 22 51  1  0
 25 52  1  0
 25 53  1  0
 25 54  1  0
M  CHG  1  17   1
M  END
>  <UniqueID>  (17) 
17

>  <SMILES>  (17) 
CCOCCNCCNc1c2ccccc2[n+](C)c2cccc(OC)c12

>  <Energy>  (17) 
80.7136925477943

>  <Genealogy>  (17) 
CCOCCNCCNc1c2ccccc2[n+](C)c2cccc(OC)c12 (3D coordinates assigned)
CCOCCNCCNc1c2ccccc2[n+](C)c2cccc(OC)c12 (optimized conformer: 80.7136925477943 kcal/mol)

>  <smiles>  (17) 
CCOCCNCCNc1c2ccccc2[n+](C)c2cccc(OC)c12

>  <score_type>  (17) 
oracle

>  <origin>  (17) 
adg

>  <m_score__min__energy>  (17) 
-4.3499999999999996

>  <m_primary>  (17) 
energy

$$$$
17:0
     RDKit          3D

 77 79  0  0  0  0  0  0  0  0999 V2000
   64.1810   34.3700   52.1610 C   0  0  0  0  0  0  0  0  0  0  0  0
   64.0390   32.8860   52.5290 C   0  0  0  0  0  0  0  0  0  0  0  0
   63.7460   32.0270   51.3510 N   0  0  2  0  0  0  0  0  0  0  0  0
   63.0050   30.8190   51.7600 C   0  0  0  0  0  0  0  0  0  0  0  0
   64.9470   31.7090   50.5240 C   0  0  0  0  0  0  0  0  0  0  0  0
   65.2850   32.7130   49.4010 C   0  0  0  0  0  0  0  0  0  0  0  0
   64.1770   33.5390   49.1150 O   0  0  0  0  0  0  0  0  0  0  0  0
   63.7280   33.3040   47.7970 C   0  0  0  0  0  0  0  0  0  0  0  0
   62.5030   32.4020   47.8370 C   0  0  0  0  0  0  0  0  0  0  0  0
   62.1060   32.2070   49.1710 O   0  0  0  0  0  0  0  0  0  0  0  0
   61.4260   33.3270   49.5310 N   0  0  0  0  0  0  0  0  0  0  0  0
   60.7100   33.4040   50.7650 C   0  0  0  0  0  0  0  0  0  0  0  0
   61.3130   33.1470   51.8410 O   0  0  0  0  0  0  0  0  0  0  0  0
   59.3300   33.7980   50.7840 N   0  0  0  0  0  0  0  0  0  0  0  0
   58.6240   34.1410   52.0180 C   0  0  0  0  0  0  0  0  0  0  0  0
   57.9410   32.9080   52.6160 C   0  0  0  0  0  0  0  0  0  0  0  0
   58.9390   31.8890   52.9750 N   0  0  0  0  0  0  0  0  0  0  0  0
   58.8600   30.6610   52.1590 C   0  0  0  0  0  0  0  0  0  0  0  0
   58.2570   30.8930   50.7520 C   0  0  0  0  0  0  0  0  0  0  0  0
   58.8920   30.0250   49.6580 C   0  0  0  0  0  0  0  0  0  0  0  0
   59.6430   30.8350   48.6980 N   0  0  0  0  0  0  0  0  0  0  0  0
   59.2380   30.8830   47.3220 C   0  0  0  0  0  0  0  0  0  0  0  0
   58.9800   32.1160   46.7050 C   0  0  0  0  0  0  0  0  0  0  0  0
   59.1870   33.3270   47.3990 C   0  0  0  0  0  0  0  0  0  0  0  0
   58.9820   34.5520   46.7670 C   0  0  0  0  0  0  0  0  0  0  0  0
   58.5810   34.5890   45.4360 C   0  0  0  0  0  0  0  0  0  0  0  0
   58.3510   33.4040   44.7370 C   0  0  0  0  0  0  0  0  0  0  0  0
   58.5090   32.1420   45.3650 C   0  0  0  0  0  0  0  0  0  0  0  0
   58.2280   30.9580   44.7060 N   0  0  0  0  0  0  0  0  0  0  0  0
   57.4630   30.9800   43.4390 C   0  0  0  0  0  0  0  0  0  0  0  0
   58.6420   29.7530   45.2440 C   0  0  0  0  0  0  0  0  0  0  0  0
   58.6050   28.5470   44.4980 C   0  0  0  0  0  0  0  0  0  0  0  0
   58.9950   27.3350   45.0690 C   0  0  0  0  0  0  0  0  0  0  0  0
   59.4620   27.2960   46.3770 C   0  0  0  0  0  0  0  0  0  0  0  0
   59.5490   28.4680   47.1210 C   0  0  0  0  0  0  0  0  0  0  0  0
   59.1390   29.7000   46.5740 C   0  0  0  0  0  0  0  0  0  0  0  0
   64.2386   34.9718   53.0800 H   0  0  0  0  0  0  0  0  0  0  0  0
   65.0971   34.5151   51.5697 H   0  0  0  0  0  0  0  0  0  0  0  0
   63.3090   34.6862   51.5697 H   0  0  0  0  0  0  0  0  0  0  0  0
   64.9794   32.5457   52.9872 H   0  0  0  0  0  0  0  0  0  0  0  0
   63.1912   32.7962   53.2242 H   0  0  0  0  0  0  0  0  0  0  0  0
   63.0910   32.5620   50.7310 H   0  0  0  0  0  0  0  0  0  0  0  0
   62.9712   30.7638   52.8581 H   0  0  0  0  0  0  0  0  0  0  0  0
   61.9800   30.8658   51.3635 H   0  0  0  0  0  0  0  0  0  0  0  0
   63.5112   29.9265   51.3635 H   0  0  0  0  0  0  0  0  0  0  0  0
   65.8144   31.6548   51.1983 H   0  0  0  0  0  0  0  0  0  0  0  0
   64.7116   30.7636   50.0134 H   0  0  0  0  0  0  0  0  0  0  0  0
   66.1295   33.3410   49.7212 H   0  0  0  0  0  0  0  0  0  0  0  0
   65.5480   32.1502   48.4932 H   0  0  0  0  0  0  0  0  0  0  0  0
   63.4647   34.2607   47.3223 H   0  0  0  0  0  0  0  0  0  0  0  0
   64.5258   32.8170   47.2170 H   0  0  0  0  0  0  0  0  0  0  0  0
   61.6826   32.8732   47.2758 H   0  0  0  0  0  0  0  0  0  0  0  0
   62.7488   31.4308   47.3827 H   0  0  0  0  0  0  0  0  0  0  0  0
   58.8330   33.9600   49.8780 H   0  0  0  0  0  0  0  0  0  0  0  0
   59.3446   34.5423   52.7458 H   0  0  0  0  0  0  0  0  0  0  0  0
   57.8544   34.8919   51.7861 H   0  0  0  0  0  0  0  0  0  0  0  0
   57.3853   33.2039   53.5180 H   0  0  0  0  0  0  0  0  0  0  0  0
   57.2537   32.4848   51.8687 H   0  0  0  0  0  0  0  0  0  0  0  0
   59.9030   32.2980   52.9460 H   0  0  0  0  0  0  0  0  0  0  0  0
   59.8757   30.2558   52.0401 H   0  0  0  0  0  0  0  0  0  0  0  0
   58.1923   29.9640   52.6866 H   0  0  0  0  0  0  0  0  0  0  0  0
   57.1812   30.6672   50.7937 H   0  0  0  0  0  0  0  0  0  0  0  0
   58.4558   31.9417   50.4860 H   0  0  0  0  0  0  0  0  0  0  0  0
   59.5754   29.3020   50.1273 H   0  0  0  0  0  0  0  0  0  0  0  0
   58.0859   29.5081   49.1168 H   0  0  0  0  0  0  0  0  0  0  0  0
   60.3910   31.4910   49.0210 H   0  0  0  0  0  0  0  0  0  0  0  0
   59.5134   33.3039   48.4492 H   0  0  0  0  0  0  0  0  0  0  0  0
   59.1374   35.4896   47.3209 H   0  0  0  0  0  0  0  0  0  0  0  0
   58.4445   35.5572   44.9320 H   0  0  0  0  0  0  0  0  0  0  0  0
   58.0422   33.4489   43.6822 H   0  0  0  0  0  0  0  0  0  0  0  0
   56.3862   31.0110   43.6614 H   0  0  0  0  0  0  0  0  0  0  0  0
   57.7430   31.8705   42.8570 H   0  0  0  0  0  0  0  0  0  0  0  0
   57.6914   30.0749   42.8570 H   0  0  0  0  0  0  0  0  0  0  0  0
   58.2634   28.5676   43.4526 H   0  0  0  0  0  0  0  0  0  0  0  0
   58.9325   26.4071   44.4815 H   0  0  0  0  0  0  0  0  0  0  0  0
   59.7632   26.3374   46.8246 H   0  0  0  0  0  0  0  0  0  0  0  0
   59.9422   28.4326   48.1477 H   0  0  0  0  0  0  0  0  0  0  0  0
  1  2  1  0
  2  3  1  0
  3  4  1  0
  3  5  1  0
  5  6  1  0
  6  7  1  0
  7  8  1  0
  8  9  1  0
  9 10  1  0
 10 11  1  0
 11 12  1  0
 12 13  2  0
 12 14  1  0
 14 15  1  0
 15 16  1  0
 16 17  1  0
 17 18  1  0
 18 19  1  0
 19 20  1  0
 20 21  1  0
 21 22  1  0
 22 23  2  0
 23 24  1  0
 24 25  2  0
 25 26  1  0
 26 27  2  0
 27 28  1  0
 28 29  2  0
 29 30  1  0
 29 31  1  0
 31 32  2  0
 32 33  1  0
 33 34  2  0
 34 35  1  0
 35 36  2  0
 36 22  1  0
 28 23  1  0
 36 31  1  0
  1 37  1  0
  1 38  1  0
  1 39  1  0
  2 40  1  0
  2 41  1  0
  3 42  1  6
  4 43  1  0
  4 44  1  0
  4 45  1  0
  5 46  1  0
  5 47  1  0
  6 48  1  0
  6 49  1  0
  8 50  1  0
  8 51  1  0
  9 52  1  0
  9 53  1  0
 14 54  1  0
 15 55  1  0
 15 56  1  0
 16 57  1  0
 16 58  1  0
 17 59  1  0
 18 60  1  0
 18 61  1  0
 19 62  1  0
 19 63  1  0
 20 64  1  0
 20 65  1  0
 21 66  1  0
 24 67  1  0
 25 68  1  0
 26 69  1  0
 27 70  1  0
 30 71  1  0
 30 72  1  0
 30 73  1  0
 32 74  1  0
 33 75  1  0
 34 76  1  0
 35 77  1  0
M  CHG  3   3   1  11  -1  29   1
M  END
>  <UniqueID>  (18) 
18

>  <SMILES>  (18) 
CC[N@H+](C)CCOCCO[N-]C(=O)NCCNCCCNc1c2ccccc2[n+](C)c2ccccc12

>  <Energy>  (18) 
98.23841154717304

>  <Genealogy>  (18) 
CC[NH+](C)CCOCCO[N-]C(=O)NCCNCCCNc1c2ccccc2[n+](C)c2ccccc12 (protonated)
CC[N@H+](C)CCOCCO[N-]C(=O)NCCNCCCNc1c2ccccc2[n+](C)c2ccccc12 (chirality)
CC[N@H+](C)CCOCCO[N-]C(=O)NCCNCCCNc1c2ccccc2[n+](C)c2ccccc12 (3D coordinates assigned)
CC[N@H+](C)CCOCCO[N-]C(=O)NCCNCCCNc1c2ccccc2[n+](C)c2ccccc12 (optimized conformer: 98.23841154717304 kcal/mol)

>  <smiles>  (18) 
CCN(C)CCOCCONC(=O)NCCNCCCNc1c2ccccc2[n+](C)c2ccccc12

>  <score_type>  (18) 
oracle

>  <origin>  (18) 
adg

>  <m_score__min__energy>  (18) 
-6.4199999999999999

>  <m_primary>  (18) 
energy

$$$$
18:0
     RDKit          3D

 36 37  0  0  0  0  0  0  0  0999 V2000
   58.1910   20.3200   44.7050 H   0  0  0  0  0  0  0  0  0  0  0  0
   57.6180   21.1010   45.0960 N   0  0  0  0  0  0  0  0  0  0  0  0
   56.9770   21.9110   44.3170 C   0  0  0  0  0  0  0  0  0  0  0  0
   56.3870   21.5510   43.1600 N   0  0  0  0  0  0  0  0  0  0  0  0
   55.9020   22.6870   42.6640 N   0  0  0  0  0  0  0  0  0  0  0  0
   56.1820   23.6890   43.4870 N   0  0  0  0  0  0  0  0  0  0  0  0
   55.9730   24.6920   43.2900 H   0  0  0  0  0  0  0  0  0  0  0  0
   56.8290   23.2220   44.5400 N   0  0  0  0  0  0  0  0  0  0  0  0
   57.4820   23.9910   45.5210 N   0  0  0  0  0  0  0  0  0  0  0  0
   58.4050   24.8760   45.2810 C   0  0  0  0  0  0  0  0  0  0  0  0
   59.3692   24.5217   44.8875 H   0  0  0  0  0  0  0  0  0  0  0  0
   58.2390   26.3280   45.5040 C   0  0  0  0  0  0  0  0  0  0  0  0
   59.2980   27.1200   45.9720 C   0  0  0  0  0  0  0  0  0  0  0  0
   60.2684   26.6553   46.2009 H   0  0  0  0  0  0  0  0  0  0  0  0
   59.1280   28.4940   46.1490 C   0  0  0  0  0  0  0  0  0  0  0  0
   59.9609   29.1032   46.5299 H   0  0  0  0  0  0  0  0  0  0  0  0
   57.8970   29.1050   45.8430 C   0  0  0  0  0  0  0  0  0  0  0  0
   57.6780   30.4850   46.0080 O   0  0  0  0  0  0  0  0  0  0  0  0
   58.4010   31.5270   45.3530 C   0  0  0  0  0  0  0  0  0  0  0  0
   59.3237   31.7346   45.9148 H   0  0  0  0  0  0  0  0  0  0  0  0
   58.6420   31.2014   44.3303 H   0  0  0  0  0  0  0  0  0  0  0  0
   57.5630   32.8000   45.2780 C   0  0  0  0  0  0  0  0  0  0  0  0
   57.3336   33.1485   46.2958 H   0  0  0  0  0  0  0  0  0  0  0  0
   58.1258   33.5784   44.7421 H   0  0  0  0  0  0  0  0  0  0  0  0
   56.6255   32.5908   44.7421 H   0  0  0  0  0  0  0  0  0  0  0  0
   56.8440   28.3250   45.3400 C   0  0  0  0  0  0  0  0  0  0  0  0
   55.6330   28.9640   45.0280 O   0  0  0  0  0  0  0  0  0  0  0  0
   55.5000   30.0340   44.0960 C   0  0  0  0  0  0  0  0  0  0  0  0
   54.4442   30.1383   43.8055 H   0  0  0  0  0  0  0  0  0  0  0  0
   55.8466   30.9695   44.5594 H   0  0  0  0  0  0  0  0  0  0  0  0
   56.3380   29.7380   42.8630 C   0  0  0  0  0  0  0  0  0  0  0  0
   57.3334   29.3864   43.1720 H   0  0  0  0  0  0  0  0  0  0  0  0
   55.8444   28.9598   42.2623 H   0  0  0  0  0  0  0  0  0  0  0  0
   56.4427   30.6536   42.2623 H   0  0  0  0  0  0  0  0  0  0  0  0
   57.0250   26.9390   45.1640 C   0  0  0  0  0  0  0  0  0  0  0  0
   56.2048   26.3304   44.7555 H   0  0  0  0  0  0  0  0  0  0  0  0
  1  2  1  0
  2  3  2  0
  3  4  1  0
  4  5  1  0
  5  6  2  0
  6  7  1  0
  6  8  1  0
  8  9  1  0
  9 10  2  0
 10 11  1  0
 10 12  1  0
 12 13  2  0
 13 14  1  0
 13 15  1  0
 15 16  1  0
 15 17  2  0
 17 18  1  0
 18 19  1  0
 19 20  1  0
 19 21  1  0
 19 22  1  0
 22 23  1  0
 22 24  1  0
 22 25  1  0
 17 26  1  0
 26 27  1  0
 27 28  1  0
 28 29  1  0
 28 30  1  0
 28 31  1  0
 31 32  1  0
 31 33  1  0
 31 34  1  0
 26 35  2  0
 35 36  1  0
  8  3  1  0
 35 12  1  0
M  CHG  2   4  -1   6   1
M  END
>  <UniqueID>  (19) 
19

>  <SMILES>  (19) 
[H]/N=c1\[n-]n[nH+]n1/N=C\c1ccc(OCC)c(OCC)c1

>  <Energy>  (19) 
83.15246038260526

>  <Genealogy>  (19) 
CCOc1ccc(C=Nn2[nH+]n[n-]c2=N)cc1OCC (protonated)
[H]/N=c1\[n-]n[nH+]n1/N=C\c1ccc(OCC)c(OCC)c1 (cis-trans isomerization)
[H]/N=c1\[n-]n[nH+]n1/N=C\c1ccc(OCC)c(OCC)c1 (3D coordinates assigned)
[H]/N=c1\[n-]n[nH+]n1/N=C\c1ccc(OCC)c(OCC)c1 (optimized conformer: 83.15246038260526 kcal/mol)

>  <smiles>  (19) 
CCOc1ccc(C=Nn2nn[nH]c2=N)cc1OCC

>  <score_type>  (19) 
oracle

>  <origin>  (19) 
adg

>  <m_score__min__energy>  (19) 
-7.1299999999999999

>  <m_primary>  (19) 
energy

$$$$
19:0
     RDKit          3D

 60 64  0  0  0  0  0  0  0  0999 V2000
   59.2940   32.9530   49.8620 C   0  0  0  0  0  0  0  0  0  0  0  0
   59.6750   34.3380   49.3640 C   0  0  0  0  0  0  0  0  0  0  0  0
   60.1240   34.2420   48.0280 O   0  0  0  0  0  0  0  0  0  0  0  0
   59.2190   34.8890   47.1510 C   0  0  0  0  0  0  0  0  0  0  0  0
   58.1200   33.9240   46.7120 C   0  0  0  0  0  0  0  0  0  0  0  0
   57.6130   34.3320   45.4590 O   0  0  0  0  0  0  0  0  0  0  0  0
   58.0840   33.4880   44.4240 C   0  0  0  0  0  0  0  0  0  0  0  0
   57.7130   32.0280   44.7030 C   0  0  0  0  0  0  0  0  0  0  0  0
   58.8820   31.2460   44.9480 O   0  0  0  0  0  0  0  0  0  0  0  0
   59.0720   30.5420   46.1430 C   0  0  0  0  0  0  0  0  0  0  0  0
   58.1630   29.5250   46.4830 C   0  0  0  0  0  0  0  0  0  0  0  0
   57.0850   29.2750   45.6220 O   0  0  0  0  0  0  0  0  0  0  0  0
   57.2070   28.7820   44.2920 C   0  0  0  0  0  0  0  0  0  0  0  0
   58.3590   28.7860   47.6650 C   0  0  0  0  0  0  0  0  0  0  0  0
   59.4410   29.0610   48.5000 C   0  0  0  0  0  0  0  0  0  0  0  0
   60.3370   30.0910   48.1820 C   0  0  0  0  0  0  0  0  0  0  0  0
   61.4110   30.3810   49.0280 C   0  0  0  0  0  0  0  0  0  0  0  0
   62.2940   31.4280   48.7130 C   0  0  0  0  0  0  0  0  0  0  0  0
   62.0590   32.1990   47.5970 N   0  0  0  0  0  0  0  0  0  0  0  0
   61.0260   31.9110   46.7480 C   0  0  0  0  0  0  0  0  0  0  0  0
   60.1480   30.8480   47.0080 C   0  0  0  0  0  0  0  0  0  0  0  0
   62.9750   33.2980   47.2450 C   0  0  0  0  0  0  0  0  0  0  0  0
   63.4610   34.0350   48.4960 C   0  0  0  0  0  0  0  0  0  0  0  0
   64.0290   33.0570   49.4840 C   0  0  0  0  0  0  0  0  0  0  0  0
   65.1000   33.4360   50.3220 C   0  0  0  0  0  0  0  0  0  0  0  0
   65.5800   32.4990   51.2280 C   0  0  0  0  0  0  0  0  0  0  0  0
   65.0500   31.2560   51.3260 C   0  0  0  0  0  0  0  0  0  0  0  0
   63.9840   30.8410   50.5340 C   0  0  0  0  0  0  0  0  0  0  0  0
   63.4420   31.7650   49.6050 C   0  0  0  0  0  0  0  0  0  0  0  0
   65.7300   30.5420   52.2940 O   0  0  0  0  0  0  0  0  0  0  0  0
   66.7470   31.3910   52.8410 C   0  0  0  0  0  0  0  0  0  0  0  0
   66.6170   32.6310   52.1320 O   0  0  0  0  0  0  0  0  0  0  0  0
   59.2922   32.9465   50.9620 H   0  0  0  0  0  0  0  0  0  0  0  0
   58.2911   32.6934   49.4922 H   0  0  0  0  0  0  0  0  0  0  0  0
   60.0230   32.2170   49.4922 H   0  0  0  0  0  0  0  0  0  0  0  0
   58.7981   35.0004   49.4111 H   0  0  0  0  0  0  0  0  0  0  0  0
   60.4756   34.7512   49.9950 H   0  0  0  0  0  0  0  0  0  0  0  0
   58.7632   35.7460   47.6684 H   0  0  0  0  0  0  0  0  0  0  0  0
   59.7681   35.2322   46.2618 H   0  0  0  0  0  0  0  0  0  0  0  0
   58.5349   32.9087   46.6275 H   0  0  0  0  0  0  0  0  0  0  0  0
   57.3094   33.9262   47.4556 H   0  0  0  0  0  0  0  0  0  0  0  0
   57.6320   33.7993   43.4707 H   0  0  0  0  0  0  0  0  0  0  0  0
   59.1797   33.5702   44.3725 H   0  0  0  0  0  0  0  0  0  0  0  0
   57.0585   31.9846   45.5860 H   0  0  0  0  0  0  0  0  0  0  0  0
   57.1949   31.6213   43.8220 H   0  0  0  0  0  0  0  0  0  0  0  0
   57.4712   27.7145   44.3194 H   0  0  0  0  0  0  0  0  0  0  0  0
   56.2502   28.9095   43.7645 H   0  0  0  0  0  0  0  0  0  0  0  0
   57.9939   29.3410   43.7645 H   0  0  0  0  0  0  0  0  0  0  0  0
   57.6532   27.9856   47.9318 H   0  0  0  0  0  0  0  0  0  0  0  0
   59.5924   28.4666   49.4131 H   0  0  0  0  0  0  0  0  0  0  0  0
   61.5654   29.7887   49.9420 H   0  0  0  0  0  0  0  0  0  0  0  0
   60.8811   32.5234   45.8458 H   0  0  0  0  0  0  0  0  0  0  0  0
   63.8437   32.8844   46.7119 H   0  0  0  0  0  0  0  0  0  0  0  0
   62.4335   34.0126   46.6077 H   0  0  0  0  0  0  0  0  0  0  0  0
   64.2392   34.7589   48.2124 H   0  0  0  0  0  0  0  0  0  0  0  0
   62.6113   34.5598   48.9572 H   0  0  0  0  0  0  0  0  0  0  0  0
   65.5406   34.4420   50.2594 H   0  0  0  0  0  0  0  0  0  0  0  0
   63.5733   29.8247   50.6259 H   0  0  0  0  0  0  0  0  0  0  0  0
   66.5854   31.5430   53.9184 H   0  0  0  0  0  0  0  0  0  0  0  0
   67.7513   30.9559   52.7313 H   0  0  0  0  0  0  0  0  0  0  0  0
  1  2  1  0
  2  3  1  0
  3  4  1  0
  4  5  1  0
  5  6  1  0
  6  7  1  0
  7  8  1  0
  8  9  1  0
  9 10  1  0
 10 11  2  0
 11 12  1  0
 12 13  1  0
 11 14  1  0
 14 15  2  0
 15 16  1  0
 16 17  2  0
 17 18  1  0
 18 19  2  0
 19 20  1  0
 20 21  2  0
 19 22  1  0
 22 23  1  0
 23 24  1  0
 24 25  2  0
 25 26  1  0
 26 27  2  0
 27 28  1  0
 28 29  2  0
 27 30  1  0
 30 31  1  0
 31 32  1  0
 21 10  1  0
 29 24  1  0
 21 16  1  0
 32 26  1  0
 29 18  1  0
  1 33  1  0
  1 34  1  0
  1 35  1  0
  2 36  1  0
  2 37  1  0
  4 38  1  0
  4 39  1  0
  5 40  1  0
  5 41  1  0
  7 42  1  0
  7 43  1  0
  8 44  1  0
  8 45  1  0
 13 46  1  0
 13 47  1  0
 13 48  1  0
 14 49  1  0
 15 50  1  0
 17 51  1  0
 20 52  1  0
 22 53  1  0
 22 54  1  0
 23 55  1  0
 23 56  1  0
 25 57  1  0
 28 58  1  0
 31 59  1  0
 31 60  1  0
M  CHG  1  19   1
M  END
>  <UniqueID>  (20) 
20

>  <SMILES>  (20) 
CCOCCOCCOc1c(OC)ccc2cc3[n+](cc12)CCc1cc2c(cc1-3)OCO2

>  <Energy>  (20) 
106.4662366115619

>  <Genealogy>  (20) 
CCOCCOCCOc1c(OC)ccc2cc3[n+](cc12)CCc1cc2c(cc1-3)OCO2 (3D coordinates assigned)
CCOCCOCCOc1c(OC)ccc2cc3[n+](cc12)CCc1cc2c(cc1-3)OCO2 (nonaromatic ring conformer: 106.4662366115619 kcal/mol)

>  <smiles>  (20) 
CCOCCOCCOc1c(OC)ccc2cc3[n+](cc12)CCc1cc2c(cc1-3)OCO2

>  <score_type>  (20) 
oracle

>  <origin>  (20) 
adg

>  <m_score__min__energy>  (20) 
-6.21

>  <m_primary>  (20) 
energy

$$$$
20:0
     RDKit          3D

 69 71  0  0  0  0  0  0  0  0999 V2000
   64.8910   32.3410   49.7170 C   0  0  0  0  0  0  0  0  0  0  0  0
   63.5890   31.6270   49.3560 C   0  0  0  0  0  0  0  0  0  0  0  0
   62.7980   32.4430   48.4040 N   0  0  0  0  0  0  0  0  0  0  0  0
   63.6160   32.8190   47.2270 C   0  0  0  0  0  0  0  0  0  0  0  0
   62.8730   33.8420   46.3730 C   0  0  0  0  0  0  0  0  0  0  0  0
   62.2330   33.6390   49.0710 C   0  0  0  0  0  0  0  0  0  0  0  0
   61.7880   33.2870   50.4280 N   0  0  0  0  0  0  0  0  0  0  0  0
   60.3940   33.6940   50.6760 C   0  0  0  0  0  0  0  0  0  0  0  0
   59.7370   34.0780   49.3470 C   0  0  0  0  0  0  0  0  0  0  0  0
   58.8260   33.0840   48.9180 O   0  0  0  0  0  0  0  0  0  0  0  0
   58.8370   31.9560   49.7730 C   0  0  0  0  0  0  0  0  0  0  0  0
   59.6240   30.8130   49.1240 C   0  0  0  0  0  0  0  0  0  0  0  0
   60.4370   31.2990   47.9970 N   0  0  0  0  0  0  0  0  0  0  0  0
   59.7700   31.0510   46.7300 C   0  0  0  0  0  0  0  0  0  0  0  0
   59.2910   32.1250   45.9420 C   0  0  0  0  0  0  0  0  0  0  0  0
   58.4780   31.8650   44.8170 C   0  0  0  0  0  0  0  0  0  0  0  0
   58.1330   30.5710   44.4790 N   0  0  0  0  0  0  0  0  0  0  0  0
   57.0770   30.3280   43.4660 C   0  0  0  0  0  0  0  0  0  0  0  0
   55.7270   30.0380   44.1280 C   0  0  0  0  0  0  0  0  0  0  0  0
   58.7600   29.5060   45.1080 C   0  0  0  0  0  0  0  0  0  0  0  0
   58.6140   28.1710   44.6370 C   0  0  0  0  0  0  0  0  0  0  0  0
   59.2340   27.1030   45.2820 C   0  0  0  0  0  0  0  0  0  0  0  0
   60.0310   27.3290   46.3930 C   0  0  0  0  0  0  0  0  0  0  0  0
   60.2140   28.6220   46.8720 C   0  0  0  0  0  0  0  0  0  0  0  0
   59.5850   29.7290   46.2490 C   0  0  0  0  0  0  0  0  0  0  0  0
   58.0710   33.0840   43.9880 C   0  0  0  0  0  0  0  0  0  0  0  0
   57.5270   34.2070   44.8880 C   0  0  0  0  0  0  0  0  0  0  0  0
   58.3630   34.4380   46.1690 C   0  0  0  0  0  0  0  0  0  0  0  0
   59.6350   33.5820   46.2220 C   0  0  0  0  0  0  0  0  0  0  0  0
   64.9886   32.3945   50.8114 H   0  0  0  0  0  0  0  0  0  0  0  0
   65.7427   31.7837   49.2997 H   0  0  0  0  0  0  0  0  0  0  0  0
   64.8789   33.3587   49.2997 H   0  0  0  0  0  0  0  0  0  0  0  0
   63.8239   30.6570   48.8935 H   0  0  0  0  0  0  0  0  0  0  0  0
   62.9991   31.4764   50.2722 H   0  0  0  0  0  0  0  0  0  0  0  0
   64.5667   33.2536   47.5693 H   0  0  0  0  0  0  0  0  0  0  0  0
   63.8094   31.9203   46.6229 H   0  0  0  0  0  0  0  0  0  0  0  0
   62.3533   34.5575   47.0272 H   0  0  0  0  0  0  0  0  0  0  0  0
   63.5917   34.3808   45.7381 H   0  0  0  0  0  0  0  0  0  0  0  0
   62.1383   33.3252   45.7381 H   0  0  0  0  0  0  0  0  0  0  0  0
   63.0030   34.4223   49.1305 H   0  0  0  0  0  0  0  0  0  0  0  0
   61.3744   34.0078   48.4907 H   0  0  0  0  0  0  0  0  0  0  0  0
   61.8480   32.2500   50.5390 H   0  0  0  0  0  0  0  0  0  0  0  0
   59.8422   32.8583   51.1312 H   0  0  0  0  0  0  0  0  0  0  0  0
   60.3769   34.5560   51.3592 H   0  0  0  0  0  0  0  0  0  0  0  0
   59.1969   35.0277   49.4754 H   0  0  0  0  0  0  0  0  0  0  0  0
   60.5251   34.1784   48.5862 H   0  0  0  0  0  0  0  0  0  0  0  0
   59.3104   32.2277   50.7281 H   0  0  0  0  0  0  0  0  0  0  0  0
   57.8023   31.6269   49.9492 H   0  0  0  0  0  0  0  0  0  0  0  0
   60.2873   30.3616   49.8765 H   0  0  0  0  0  0  0  0  0  0  0  0
   58.9082   30.0701   48.7422 H   0  0  0  0  0  0  0  0  0  0  0  0
   61.3840   30.8600   48.0050 H   0  0  0  0  0  0  0  0  0  0  0  0
   60.6470   32.3170   48.1100 H   0  0  0  0  0  0  0  0  0  0  0  0
   56.9796   31.2195   42.8290 H   0  0  0  0  0  0  0  0  0  0  0  0
   57.3654   29.4515   42.8672 H   0  0  0  0  0  0  0  0  0  0  0  0
   55.8421   30.0627   45.2217 H   0  0  0  0  0  0  0  0  0  0  0  0
   54.9959   30.7996   43.8189 H   0  0  0  0  0  0  0  0  0  0  0  0
   55.3732   29.0434   43.8189 H   0  0  0  0  0  0  0  0  0  0  0  0
   57.9991   27.9784   43.7455 H   0  0  0  0  0  0  0  0  0  0  0  0
   59.0906   26.0783   44.9087 H   0  0  0  0  0  0  0  0  0  0  0  0
   60.5205   26.4830   46.8977 H   0  0  0  0  0  0  0  0  0  0  0  0
   60.8574   28.7882   47.7486 H   0  0  0  0  0  0  0  0  0  0  0  0
   58.9494   33.4559   43.4402 H   0  0  0  0  0  0  0  0  0  0  0  0
   57.2787   32.7822   43.2872 H   0  0  0  0  0  0  0  0  0  0  0  0
   57.5150   35.1416   44.3080 H   0  0  0  0  0  0  0  0  0  0  0  0
   56.5213   33.9006   45.2116 H   0  0  0  0  0  0  0  0  0  0  0  0
   58.6529   35.4983   46.2110 H   0  0  0  0  0  0  0  0  0  0  0  0
   57.7368   34.1471   47.0253 H   0  0  0  0  0  0  0  0  0  0  0  0
   60.3478   33.9405   45.4648 H   0  0  0  0  0  0  0  0  0  0  0  0
   60.0842   33.6623   47.2229 H   0  0  0  0  0  0  0  0  0  0  0  0
  1  2  1  0
  2  3  1  0
  3  4  1  0
  4  5  1  0
  3  6  1  0
  6  7  1  0
  7  8  1  0
  8  9  1  0
  9 10  1  0
 10 11  1  0
 11 12  1  0
 12 13  1  0
 13 14  1  0
 14 15  2  0
 15 16  1  0
 16 17  2  0
 17 18  1  0
 18 19  1  0
 17 20  1  0
 20 21  2  0
 21 22  1  0
 22 23  2  0
 23 24  1  0
 24 25  2  0
 16 26  1  0
 26 27  1  0
 27 28  1  0
 28 29  1  0
 25 14  1  0
 29 15  1  0
 25 20  1  0
  1 30  1  0
  1 31  1  0
  1 32  1  0
  2 33  1  0
  2 34  1  0
  4 35  1  0
  4 36  1  0
  5 37  1  0
  5 38  1  0
  5 39  1  0
  6 40  1  0
  6 41  1  0
  7 42  1  0
  8 43  1  0
  8 44  1  0
  9 45  1  0
  9 46  1  0
 11 47  1  0
 11 48  1  0
 12 49  1  0
 12 50  1  0
 13 51  1  0
 13 52  1  0
 18 53  1  0
 18 54  1  0
 19 55  1  0
 19 56  1  0
 19 57  1  0
 21 58  1  0
 22 59  1  0
 23 60  1  0
 24 61  1  0
 26 62  1  0
 26 63  1  0
 27 64  1  0
 27 65  1  0
 28 66  1  0
 28 67  1  0
 29 68  1  0
 29 69  1  0
M  CHG  2  13   1  17   1
M  END
>  <UniqueID>  (21) 
21

>  <SMILES>  (21) 
CCN(CC)CNCCOCC[NH2+]c1c2c([n+](CC)c3ccccc13)CCCC2

>  <Energy>  (21) 
96.23489890150537

>  <Genealogy>  (21) 
CCN(CC)CNCCOCC[NH2+]c1c2c([n+](CC)c3ccccc13)CCCC2 (protonated)
CCN(CC)CNCCOCC[NH2+]c1c2c([n+](CC)c3ccccc13)CCCC2 (3D coordinates assigned)
CCN(CC)CNCCOCC[NH2+]c1c2c([n+](CC)c3ccccc13)CCCC2 (nonaromatic ring conformer: 96.23489890150537 kcal/mol)

>  <smiles>  (21) 
CCN(CC)CNCCOCCNc1c2c([n+](CC)c3ccccc13)CCCC2

>  <score_type>  (21) 
oracle

>  <origin>  (21) 
adg

>  <m_score__min__energy>  (21) 
-3.8500000000000001

>  <m_primary>  (21) 
energy

$$$$
21:0
     RDKit          3D

 64 66  0  0  0  0  0  0  0  0999 V2000
   66.7680   31.9050   50.4980 C   0  0  0  0  0  0  0  0  0  0  0  0
   65.2440   31.9020   50.6750 C   0  0  0  0  0  0  0  0  0  0  0  0
   64.6170   33.2480   50.7380 N   0  0  2  0  0  0  0  0  0  0  0  0
   65.3860   34.1920   51.5730 C   0  0  0  0  0  0  0  0  0  0  0  0
   63.1490   33.2240   51.0140 C   0  0  0  0  0  0  0  0  0  0  0  0
   62.2580   33.9640   49.9880 C   0  0  0  0  0  0  0  0  0  0  0  0
   63.0170   34.3920   48.8600 O   0  0  0  0  0  0  0  0  0  0  0  0
   63.3480   33.5500   47.7930 C   0  0  0  0  0  0  0  0  0  0  0  0
   64.1210   32.5690   47.9630 O   0  0  0  0  0  0  0  0  0  0  0  0
   62.7960   33.8390   46.4310 C   0  0  0  0  0  0  0  0  0  0  0  0
   61.2990   33.5220   46.3590 C   0  0  0  0  0  0  0  0  0  0  0  0
   60.5490   34.4260   47.2410 N   0  0  0  0  0  0  0  0  0  0  0  0
   59.6500   35.3270   46.4980 C   0  0  0  0  0  0  0  0  0  0  0  0
   58.5490   34.5800   45.7210 C   0  0  0  0  0  0  0  0  0  0  0  0
   57.7960   33.6780   46.5880 N   0  0  0  0  0  0  0  0  0  0  0  0
   58.1930   32.2990   46.7040 C   0  0  0  0  0  0  0  0  0  0  0  0
   58.7610   31.8230   47.9020 C   0  0  0  0  0  0  0  0  0  0  0  0
   58.9380   32.6800   49.0090 C   0  0  0  0  0  0  0  0  0  0  0  0
   59.4180   32.1890   50.2240 C   0  0  0  0  0  0  0  0  0  0  0  0
   59.7180   30.8360   50.3600 C   0  0  0  0  0  0  0  0  0  0  0  0
   59.5740   29.9740   49.2720 C   0  0  0  0  0  0  0  0  0  0  0  0
   59.1290   30.4520   48.0090 C   0  0  0  0  0  0  0  0  0  0  0  0
   59.0160   29.6190   46.9110 N   0  0  0  0  0  0  0  0  0  0  0  0
   59.6630   28.2860   46.9180 C   0  0  0  0  0  0  0  0  0  0  0  0
   58.3260   30.0400   45.7860 C   0  0  0  0  0  0  0  0  0  0  0  0
   57.9770   29.1410   44.7470 C   0  0  0  0  0  0  0  0  0  0  0  0
   57.3390   29.5920   43.5930 C   0  0  0  0  0  0  0  0  0  0  0  0
   57.0210   30.9370   43.4450 C   0  0  0  0  0  0  0  0  0  0  0  0
   57.3050   31.8360   44.4660 C   0  0  0  0  0  0  0  0  0  0  0  0
   57.9360   31.4000   45.6530 C   0  0  0  0  0  0  0  0  0  0  0  0
   67.2519   31.9060   51.4859 H   0  0  0  0  0  0  0  0  0  0  0  0
   67.0742   31.0075   49.9406 H   0  0  0  0  0  0  0  0  0  0  0  0
   67.0706   32.8037   49.9406 H   0  0  0  0  0  0  0  0  0  0  0  0
   64.8028   31.3593   49.8260 H   0  0  0  0  0  0  0  0  0  0  0  0
   65.0480   31.4255   51.6469 H   0  0  0  0  0  0  0  0  0  0  0  0
   64.7060   33.6210   49.7610 H   0  0  0  0  0  0  0  0  0  0  0  0
   65.2065   33.9717   52.6357 H   0  0  0  0  0  0  0  0  0  0  0  0
   66.4586   34.0866   51.3527 H   0  0  0  0  0  0  0  0  0  0  0  0
   65.0659   35.2211   51.3527 H   0  0  0  0  0  0  0  0  0  0  0  0
   62.8283   32.1722   51.0427 H   0  0  0  0  0  0  0  0  0  0  0  0
   63.0155   33.7590   51.9658 H   0  0  0  0  0  0  0  0  0  0  0  0
   61.4622   33.2849   49.6482 H   0  0  0  0  0  0  0  0  0  0  0  0
   61.8286   34.8515   50.4758 H   0  0  0  0  0  0  0  0  0  0  0  0
   62.9483   34.9039   46.2011 H   0  0  0  0  0  0  0  0  0  0  0  0
   63.3209   33.2047   45.7016 H   0  0  0  0  0  0  0  0  0  0  0  0
   60.9492   33.6503   45.3240 H   0  0  0  0  0  0  0  0  0  0  0  0
   61.1346   32.4839   46.6834 H   0  0  0  0  0  0  0  0  0  0  0  0
   61.2200   34.9770   47.8210 H   0  0  0  0  0  0  0  0  0  0  0  0
   59.1703   36.0106   47.2139 H   0  0  0  0  0  0  0  0  0  0  0  0
   60.2631   35.8653   45.7602 H   0  0  0  0  0  0  0  0  0  0  0  0
   57.8575   35.3163   45.2854 H   0  0  0  0  0  0  0  0  0  0  0  0
   59.0301   33.9794   44.9350 H   0  0  0  0  0  0  0  0  0  0  0  0
   56.8060   33.9170   46.8270 H   0  0  0  0  0  0  0  0  0  0  0  0
   58.6946   33.7484   48.9131 H   0  0  0  0  0  0  0  0  0  0  0  0
   59.5595   32.8714   51.0750 H   0  0  0  0  0  0  0  0  0  0  0  0
   60.0691   30.4460   51.3267 H   0  0  0  0  0  0  0  0  0  0  0  0
   59.8088   28.9063   49.3936 H   0  0  0  0  0  0  0  0  0  0  0  0
   59.8210   27.9606   47.9568 H   0  0  0  0  0  0  0  0  0  0  0  0
   59.0162   27.5618   46.4012 H   0  0  0  0  0  0  0  0  0  0  0  0
   60.6322   28.3461   46.4012 H   0  0  0  0  0  0  0  0  0  0  0  0
   58.2132   28.0719   44.8532 H   0  0  0  0  0  0  0  0  0  0  0  0
   57.0855   28.8793   42.7944 H   0  0  0  0  0  0  0  0  0  0  0  0
   56.5441   31.2902   42.5188 H   0  0  0  0  0  0  0  0  0  0  0  0
   57.0363   32.8963   44.3492 H   0  0  0  0  0  0  0  0  0  0  0  0
  1  2  1  0
  2  3  1  0
  3  4  1  0
  3  5  1  0
  5  6  1  0
  6  7  1  0
  7  8  1  0
  8  9  2  0
  8 10  1  0
 10 11  1  0
 11 12  1  0
 12 13  1  0
 13 14  1  0
 14 15  1  0
 15 16  1  0
 16 17  2  0
 17 18  1  0
 18 19  2  0
 19 20  1  0
 20 21  2  0
 21 22  1  0
 22 23  2  0
 23 24  1  0
 23 25  1  0
 25 26  2  0
 26 27  1  0
 27 28  2  0
 28 29  1  0
 29 30  2  0
 30 16  1  0
 22 17  1  0
 30 25  1  0
  1 31  1  0
  1 32  1  0
  1 33  1  0
  2 34  1  0
  2 35  1  0
  3 36  1  6
  4 37  1  0
  4 38  1  0
  4 39  1  0
  5 40  1  0
  5 41  1  0
  6 42  1  0
  6 43  1  0
 10 44  1  0
 10 45  1  0
 11 46  1  0
 11 47  1  0
 12 48  1  0
 13 49  1  0
 13 50  1  0
 14 51  1  0
 14 52  1  0
 15 53  1  0
 18 54  1  0
 19 55  1  0
 20 56  1  0
 21 57  1  0
 24 58  1  0
 24 59  1  0
 24 60  1  0
 26 61  1  0
 27 62  1  0
 28 63  1  0
 29 64  1  0
M  CHG  2   3   1  23   1
M  END
>  <UniqueID>  (22) 
22

>  <SMILES>  (22) 
CC[N@H+](C)CCOC(=O)CCNCCNc1c2ccccc2[n+](C)c2ccccc12

>  <Energy>  (22) 
94.28123525773394

>  <Genealogy>  (22) 
CC[NH+](C)CCOC(=O)CCNCCNc1c2ccccc2[n+](C)c2ccccc12 (protonated)
CC[N@H+](C)CCOC(=O)CCNCCNc1c2ccccc2[n+](C)c2ccccc12 (chirality)
CC[N@H+](C)CCOC(=O)CCNCCNc1c2ccccc2[n+](C)c2ccccc12 (3D coordinates assigned)
CC[N@H+](C)CCOC(=O)CCNCCNc1c2ccccc2[n+](C)c2ccccc12 (optimized conformer: 94.28123525773394 kcal/mol)

>  <smiles>  (22) 
CCN(C)CCOC(=O)CCNCCNc1c2ccccc2[n+](C)c2ccccc12

>  <score_type>  (22) 
oracle

>  <origin>  (22) 
adg

>  <m_score__min__energy>  (22) 
-5.1500000000000004

>  <m_primary>  (22) 
energy

$$$$
22:0
     RDKit          3D

 84 87  0  0  0  0  0  0  0  0999 V2000
   63.4380   33.0590   46.7650 C   0  0  0  0  0  0  0  0  0  0  0  0
   63.2830   31.7410   47.5160 C   0  0  0  0  0  0  0  0  0  0  0  0
   63.3290   31.9850   48.9630 N   0  0  0  0  0  0  0  0  0  0  0  0
   63.5860   33.3990   49.2920 C   0  0  0  0  0  0  0  0  0  0  0  0
   62.7020   33.9350   50.4340 C   0  0  0  0  0  0  0  0  0  0  0  0
   61.5600   33.0420   50.6680 N   0  0  0  0  0  0  0  0  0  0  0  0
   60.2890   33.7520   50.4740 C   0  0  0  0  0  0  0  0  0  0  0  0
   59.5790   33.2300   49.2190 C   0  0  0  0  0  0  0  0  0  0  0  0
   60.5090   32.5410   48.3060 N   0  0  0  0  0  0  0  0  0  0  0  0
   59.7790   31.6850   47.3800 C   0  0  0  0  0  0  0  0  0  0  0  0
   59.0430   32.2770   46.3140 C   0  0  0  0  0  0  0  0  0  0  0  0
   58.8720   33.6830   46.2130 C   0  0  0  0  0  0  0  0  0  0  0  0
   58.2150   34.2550   45.1280 C   0  0  0  0  0  0  0  0  0  0  0  0
   57.7140   33.4530   44.1170 C   0  0  0  0  0  0  0  0  0  0  0  0
   57.8330   32.0700   44.2020 C   0  0  0  0  0  0  0  0  0  0  0  0
   58.4570   31.4500   45.3170 C   0  0  0  0  0  0  0  0  0  0  0  0
   58.5180   30.0790   45.4270 N   0  0  0  0  0  0  0  0  0  0  0  0
   57.6630   29.2340   44.5610 C   0  0  0  0  0  0  0  0  0  0  0  0
   59.3280   29.4900   46.3750 C   0  0  0  0  0  0  0  0  0  0  0  0
   59.6500   28.1140   46.2890 C   0  0  0  0  0  0  0  0  0  0  0  0
   60.3700   27.4810   47.2880 C   0  0  0  0  0  0  0  0  0  0  0  0
   60.7580   28.1810   48.4150 C   0  0  0  0  0  0  0  0  0  0  0  0
   60.4880   29.5540   48.5410 C   0  0  0  0  0  0  0  0  0  0  0  0
   60.8090   30.2230   49.7350 O   0  0  0  0  0  0  0  0  0  0  0  0
   60.5990   29.7750   51.0770 C   0  0  0  0  0  0  0  0  0  0  0  0
   61.7030   28.7760   51.5170 C   0  0  0  0  0  0  0  0  0  0  0  0
   62.9040   29.3480   52.2180 N   0  0  0  0  0  0  0  0  0  0  0  0
   62.4570   30.2150   53.3460 C   0  0  0  0  0  0  0  0  0  0  0  0
   63.6050   30.2160   51.2190 C   0  0  0  0  0  0  0  0  0  0  0  0
   65.0160   30.6670   51.6640 C   0  0  0  0  0  0  0  0  0  0  0  0
   65.9000   29.5430   52.1240 N   0  0  0  0  0  0  0  0  0  0  0  0
   66.3710   29.8000   53.5090 C   0  0  0  0  0  0  0  0  0  0  0  0
   67.0990   29.4650   51.2520 C   0  0  0  0  0  0  0  0  0  0  0  0
   65.2050   28.2270   52.0660 C   0  0  0  0  0  0  0  0  0  0  0  0
   63.8090   28.2560   52.7200 C   0  0  0  0  0  0  0  0  0  0  0  0
   59.8740   30.2570   47.4480 C   0  0  0  0  0  0  0  0  0  0  0  0
   63.5349   33.8832   47.4870 H   0  0  0  0  0  0  0  0  0  0  0  0
   64.3374   33.0174   46.1331 H   0  0  0  0  0  0  0  0  0  0  0  0
   62.5534   33.2272   46.1331 H   0  0  0  0  0  0  0  0  0  0  0  0
   62.3183   31.2823   47.2535 H   0  0  0  0  0  0  0  0  0  0  0  0
   64.1036   31.0643   47.2354 H   0  0  0  0  0  0  0  0  0  0  0  0
   62.4230   31.6840   49.3910 H   0  0  0  0  0  0  0  0  0  0  0  0
   64.6398   33.5010   49.5903 H   0  0  0  0  0  0  0  0  0  0  0  0
   63.3474   33.9884   48.3944 H   0  0  0  0  0  0  0  0  0  0  0  0
   63.3017   34.0031   51.3536 H   0  0  0  0  0  0  0  0  0  0  0  0
   62.3228   34.9283   50.1518 H   0  0  0  0  0  0  0  0  0  0  0  0
   61.6090   32.7200   51.6630 H   0  0  0  0  0  0  0  0  0  0  0  0
   59.6444   33.5899   51.3505 H   0  0  0  0  0  0  0  0  0  0  0  0
   60.4921   34.8262   50.3518 H   0  0  0  0  0  0  0  0  0  0  0  0
   58.7920   32.5244   49.5235 H   0  0  0  0  0  0  0  0  0  0  0  0
   59.1542   34.0926   48.6847 H   0  0  0  0  0  0  0  0  0  0  0  0
   61.2430   32.0100   48.8240 H   0  0  0  0  0  0  0  0  0  0  0  0
   61.0840   33.2340   47.7810 H   0  0  0  0  0  0  0  0  0  0  0  0
   59.2667   34.3327   47.0081 H   0  0  0  0  0  0  0  0  0  0  0  0
   58.0934   35.3469   45.0735 H   0  0  0  0  0  0  0  0  0  0  0  0
   57.2215   33.9099   43.2459 H   0  0  0  0  0  0  0  0  0  0  0  0
   57.4359   31.4438   43.3894 H   0  0  0  0  0  0  0  0  0  0  0  0
   57.0202   28.5988   45.1882 H   0  0  0  0  0  0  0  0  0  0  0  0
   57.0356   29.8767   43.9259 H   0  0  0  0  0  0  0  0  0  0  0  0
   58.2983   28.5991   43.9259 H   0  0  0  0  0  0  0  0  0  0  0  0
   59.3220   27.5369   45.4119 H   0  0  0  0  0  0  0  0  0  0  0  0
   60.6340   26.4182   47.1845 H   0  0  0  0  0  0  0  0  0  0  0  0
   61.2856   27.6556   49.2247 H   0  0  0  0  0  0  0  0  0  0  0  0
   60.6126   30.6440   51.7512 H   0  0  0  0  0  0  0  0  0  0  0  0
   59.6273   29.2616   51.1238 H   0  0  0  0  0  0  0  0  0  0  0  0
   61.2383   28.0469   52.1971 H   0  0  0  0  0  0  0  0  0  0  0  0
   62.0947   28.3536   50.5799 H   0  0  0  0  0  0  0  0  0  0  0  0
   62.7066   29.7309   54.3017 H   0  0  0  0  0  0  0  0  0  0  0  0
   62.9656   31.1884   53.2842 H   0  0  0  0  0  0  0  0  0  0  0  0
   61.3691   30.3652   53.2842 H   0  0  0  0  0  0  0  0  0  0  0  0
   63.7013   29.6538   50.2784 H   0  0  0  0  0  0  0  0  0  0  0  0
   62.9989   31.1269   51.1053 H   0  0  0  0  0  0  0  0  0  0  0  0
   65.5042   31.1651   50.8134 H   0  0  0  0  0  0  0  0  0  0  0  0
   64.8789   31.3371   52.5255 H   0  0  0  0  0  0  0  0  0  0  0  0
   65.6384   29.4002   54.2255 H   0  0  0  0  0  0  0  0  0  0  0  0
   67.3419   29.3066   53.6636 H   0  0  0  0  0  0  0  0  0  0  0  0
   66.4815   30.8835   53.6636 H   0  0  0  0  0  0  0  0  0  0  0  0
   68.0030   29.4062   51.8760 H   0  0  0  0  0  0  0  0  0  0  0  0
   67.0329   28.5693   50.6170 H   0  0  0  0  0  0  0  0  0  0  0  0
   67.1495   30.3618   50.6170 H   0  0  0  0  0  0  0  0  0  0  0  0
   65.0924   27.9358   51.0112 H   0  0  0  0  0  0  0  0  0  0  0  0
   65.8172   27.5055   52.6269 H   0  0  0  0  0  0  0  0  0  0  0  0
   63.3199   27.2897   52.5275 H   0  0  0  0  0  0  0  0  0  0  0  0
   63.9705   28.4527   53.7902 H   0  0  0  0  0  0  0  0  0  0  0  0
  1  2  1  0
  2  3  1  0
  3  4  1  0
  4  5  1  0
  5  6  1  0
  6  7  1  0
  7  8  1  0
  8  9  1  0
  9 10  1  0
 10 11  2  0
 11 12  1  0
 12 13  2  0
 13 14  1  0
 14 15  2  0
 15 16  1  0
 16 17  2  0
 17 18  1  0
 17 19  1  0
 19 20  2  0
 20 21  1  0
 21 22  2  0
 22 23  1  0
 23 24  1  0
 24 25  1  0
 25 26  1  0
 26 27  1  0
 27 28  1  0
 27 29  1  0
 29 30  1  0
 30 31  1  0
 31 32  1  0
 31 33  1  0
 31 34  1  0
 34 35  1  0
 23 36  2  0
 36 10  1  0
 16 11  1  0
 36 19  1  0
 35 27  1  0
  1 37  1  0
  1 38  1  0
  1 39  1  0
  2 40  1  0
  2 41  1  0
  3 42  1  0
  4 43  1  0
  4 44  1  0
  5 45  1  0
  5 46  1  0
  6 47  1  0
  7 48  1  0
  7 49  1  0
  8 50  1  0
  8 51  1  0
  9 52  1  0
  9 53  1  0
 12 54  1  0
 13 55  1  0
 14 56  1  0
 15 57  1  0
 18 58  1  0
 18 59  1  0
 18 60  1  0
 20 61  1  0
 21 62  1  0
 22 63  1  0
 25 64  1  0
 25 65  1  0
 26 66  1  0
 26 67  1  0
 28 68  1  0
 28 69  1  0
 28 70  1  0
 29 71  1  0
 29 72  1  0
 30 73  1  0
 30 74  1  0
 32 75  1  0
 32 76  1  0
 32 77  1  0
 33 78  1  0
 33 79  1  0
 33 80  1  0
 34 81  1  0
 34 82  1  0
 35 83  1  0
 35 84  1  0
M  CHG  4   9   1  17   1  27   1  31   1
M  END
>  <UniqueID>  (23) 
23

>  <SMILES>  (23) 
CCNCCNCC[NH2+]c1c2ccccc2[n+](C)c2cccc(OCC[N+]3(C)CC[N+](C)(C)CC3)c12

>  <Energy>  (23) 
148.32440672205487

>  <Genealogy>  (23) 
CCNCCNCC[NH2+]c1c2ccccc2[n+](C)c2cccc(OCC[N+]3(C)CC[N+](C)(C)CC3)c12 (protonated)
CCNCCNCC[NH2+]c1c2ccccc2[n+](C)c2cccc(OCC[N+]3(C)CC[N+](C)(C)CC3)c12 (3D coordinates assigned)
CCNCCNCC[NH2+]c1c2ccccc2[n+](C)c2cccc(OCC[N+]3(C)CC[N+](C)(C)CC3)c12 (nonaromatic ring conformer: 148.32440672205487 kcal/mol)

>  <smiles>  (23) 
CCNCCNCCNc1c2ccccc2[n+](C)c2cccc(OCC[N+]3(C)CC[N+](C)(C)CC3)c12

>  <score_type>  (23) 
oracle

>  <origin>  (23) 
adg

>  <m_score__min__energy>  (23) 
-2.7599999999999998

>  <m_primary>  (23) 
energy

$$$$
23:0
     RDKit          3D

 46 46  0  0  0  0  0  0  0  0999 V2000
   59.9720   29.7260   45.9990 C   0  0  0  0  0  0  0  0  0  0  0  0
   58.4540   29.8340   45.9410 C   0  0  0  0  0  0  0  0  0  0  0  0
   58.0520   31.2410   46.0400 N   0  0  0  0  0  0  0  0  0  0  0  0
   57.3690   31.7160   44.8270 C   0  0  0  0  0  0  0  0  0  0  0  0
   57.9410   33.0490   44.3110 C   0  0  0  0  0  0  0  0  0  0  0  0
   57.6770   34.1850   45.3050 C   0  0  0  0  0  0  0  0  0  0  0  0
   58.0610   33.7710   46.6030 O   0  0  0  0  0  0  0  0  0  0  0  0
   58.9190   34.7210   47.1990 C   0  0  0  0  0  0  0  0  0  0  0  0
   60.3200   34.5670   46.6160 C   0  0  0  0  0  0  0  0  0  0  0  0
   60.5220   33.2300   46.1960 O   0  0  0  0  0  0  0  0  0  0  0  0
   61.6680   32.6790   46.8110 C   0  0  0  0  0  0  0  0  0  0  0  0
   61.3170   32.2120   48.2220 C   0  0  0  0  0  0  0  0  0  0  0  0
   59.8630   32.1580   48.3930 N   0  0  0  0  0  0  0  0  0  0  0  0
   59.1990   32.2810   49.6640 C   0  0  0  0  0  0  0  0  0  0  0  0
   59.3480   33.4320   50.4640 C   0  0  0  0  0  0  0  0  0  0  0  0
   60.1180   34.4720   50.0580 F   0  0  0  0  0  0  0  0  0  0  0  0
   58.7480   33.4940   51.7250 C   0  0  0  0  0  0  0  0  0  0  0  0
   58.9030   34.6010   52.4940 F   0  0  0  0  0  0  0  0  0  0  0  0
   58.0040   32.4130   52.2070 C   0  0  0  0  0  0  0  0  0  0  0  0
   57.4290   32.4900   53.4360 F   0  0  0  0  0  0  0  0  0  0  0  0
   57.8620   31.2590   51.4280 C   0  0  0  0  0  0  0  0  0  0  0  0
   57.1120   30.1350   51.9320 C   0  0  0  0  0  0  0  0  0  0  0  0
   56.5110   29.2340   52.3360 N   0  0  0  0  0  0  0  0  0  0  0  0
   58.4620   31.1920   50.1620 C   0  0  0  0  0  0  0  0  0  0  0  0
   58.3290   30.0680   49.4110 F   0  0  0  0  0  0  0  0  0  0  0  0
   60.2981   29.7028   47.0493 H   0  0  0  0  0  0  0  0  0  0  0  0
   60.2934   28.8027   45.4948 H   0  0  0  0  0  0  0  0  0  0  0  0
   60.4209   30.5945   45.4948 H   0  0  0  0  0  0  0  0  0  0  0  0
   58.0944   29.4176   44.9885 H   0  0  0  0  0  0  0  0  0  0  0  0
   58.0175   29.2717   46.7796 H   0  0  0  0  0  0  0  0  0  0  0  0
   58.9000   31.8280   46.2160 H   0  0  0  0  0  0  0  0  0  0  0  0
   57.4801   30.9562   44.0394 H   0  0  0  0  0  0  0  0  0  0  0  0
   56.3122   31.8828   45.0825 H   0  0  0  0  0  0  0  0  0  0  0  0
   59.0264   32.9425   44.1674 H   0  0  0  0  0  0  0  0  0  0  0  0
   57.4472   33.2958   43.3596 H   0  0  0  0  0  0  0  0  0  0  0  0
   58.2611   35.0706   45.0142 H   0  0  0  0  0  0  0  0  0  0  0  0
   56.6061   34.4363   45.3007 H   0  0  0  0  0  0  0  0  0  0  0  0
   58.5445   35.7347   46.9938 H   0  0  0  0  0  0  0  0  0  0  0  0
   58.9514   34.5587   48.2865 H   0  0  0  0  0  0  0  0  0  0  0  0
   60.4327   35.2412   45.7542 H   0  0  0  0  0  0  0  0  0  0  0  0
   61.0631   34.8213   47.3862 H   0  0  0  0  0  0  0  0  0  0  0  0
   62.0248   31.8226   46.2200 H   0  0  0  0  0  0  0  0  0  0  0  0
   62.4572   33.4434   46.8647 H   0  0  0  0  0  0  0  0  0  0  0  0
   61.7393   31.2100   48.3881 H   0  0  0  0  0  0  0  0  0  0  0  0
   61.7365   32.9231   48.9489 H   0  0  0  0  0  0  0  0  0  0  0  0
   59.2860   32.2320   47.5250 H   0  0  0  0  0  0  0  0  0  0  0  0
  1  2  1  0
  2  3  1  0
  3  4  1  0
  4  5  1  0
  5  6  1  0
  6  7  1  0
  7  8  1  0
  8  9  1  0
  9 10  1  0
 10 11  1  0
 11 12  1  0
 12 13  1  0
 13 14  1  0
 14 15  2  0
 15 16  1  0
 15 17  1  0
 17 18  1  0
 17 19  2  0
 19 20  1  0
 19 21  1  0
 21 22  1  0
 22 23  3  0
 21 24  2  0
 24 25  1  0
 24 14  1  0
  1 26  1  0
  1 27  1  0
  1 28  1  0
  2 29  1  0
  2 30  1  0
  3 31  1  0
  4 32  1  0
  4 33  1  0
  5 34  1  0
  5 35  1  0
  6 36  1  0
  6 37  1  0
  8 38  1  0
  8 39  1  0
  9 40  1  0
  9 41  1  0
 11 42  1  0
 11 43  1  0
 12 44  1  0
 12 45  1  0
 13 46  1  0
M  END
>  <UniqueID>  (24) 
24

>  <SMILES>  (24) 
CCNCCCOCCOCCNc1c(F)c(F)c(F)c(C#N)c1F

>  <Energy>  (24) 
36.18514162444289

>  <Genealogy>  (24) 
CCNCCCOCCOCCNc1c(F)c(F)c(F)c(C#N)c1F (3D coordinates assigned)
CCNCCCOCCOCCNc1c(F)c(F)c(F)c(C#N)c1F (optimized conformer: 36.18514162444289 kcal/mol)

>  <smiles>  (24) 
CCNCCCOCCOCCNc1c(F)c(F)c(F)c(C#N)c1F

>  <score_type>  (24) 
oracle

>  <origin>  (24) 
adg

>  <m_score__min__energy>  (24) 
-4.8700000000000001

>  <m_primary>  (24) 
energy

$$$$
24:0
     RDKit          3D

 69 72  0  0  0  0  0  0  0  0999 V2000
   63.3310   33.5980   46.7480 C   0  0  0  0  0  0  0  0  0  0  0  0
   62.0690   33.8180   47.5690 C   0  0  0  0  0  0  0  0  0  0  0  0
   61.0540   34.3770   46.7400 O   0  0  0  0  0  0  0  0  0  0  0  0
   59.9360   33.6720   46.2710 C   0  0  0  0  0  0  0  0  0  0  0  0
   58.8260   34.3130   45.7000 C   0  0  0  0  0  0  0  0  0  0  0  0
   57.7420   33.5660   45.2380 C   0  0  0  0  0  0  0  0  0  0  0  0
   57.7560   32.1600   45.3180 C   0  0  0  0  0  0  0  0  0  0  0  0
   56.6910   31.3830   44.8350 O   0  0  0  0  0  0  0  0  0  0  0  0
   56.6660   30.7430   43.5620 C   0  0  0  0  0  0  0  0  0  0  0  0
   57.3980   31.6070   42.5480 C   0  0  0  0  0  0  0  0  0  0  0  0
   58.8750   31.5090   45.8770 C   0  0  0  0  0  0  0  0  0  0  0  0
   58.9180   30.0670   45.9080 N   0  0  0  0  0  0  0  0  0  0  0  0
   59.3320   29.2210   44.7830 C   0  0  0  0  0  0  0  0  0  0  0  0
   58.7640   27.7990   44.8920 C   0  0  0  0  0  0  0  0  0  0  0  0
   57.7470   27.7230   45.9490 N   0  0  0  0  0  0  0  0  0  0  0  0
   58.2480   27.0120   47.1360 C   0  0  0  0  0  0  0  0  0  0  0  0
   59.4390   27.7410   47.7710 C   0  0  0  0  0  0  0  0  0  0  0  0
   59.0050   28.5800   48.8850 N   0  0  0  0  0  0  0  0  0  0  0  0
   59.9560   29.2420   49.7350 C   0  0  0  0  0  0  0  0  0  0  0  0
   60.8920   28.4900   50.4660 C   0  0  0  0  0  0  0  0  0  0  0  0
   60.8350   27.0790   50.4750 C   0  0  0  0  0  0  0  0  0  0  0  0
   61.7390   26.3360   51.2300 C   0  0  0  0  0  0  0  0  0  0  0  0
   62.6970   26.9810   52.0030 C   0  0  0  0  0  0  0  0  0  0  0  0
   62.7670   28.3750   52.0150 C   0  0  0  0  0  0  0  0  0  0  0  0
   61.8850   29.1600   51.2290 C   0  0  0  0  0  0  0  0  0  0  0  0
   61.9640   30.5400   51.2050 N   0  0  0  0  0  0  0  0  0  0  0  0
   63.1580   31.2220   51.7520 C   0  0  0  0  0  0  0  0  0  0  0  0
   60.9360   31.2810   50.6510 C   0  0  0  0  0  0  0  0  0  0  0  0
   60.8440   32.6840   50.8350 C   0  0  0  0  0  0  0  0  0  0  0  0
   59.8410   33.4270   50.2150 C   0  0  0  0  0  0  0  0  0  0  0  0
   58.8940   32.7960   49.4180 C   0  0  0  0  0  0  0  0  0  0  0  0
   58.9250   31.4150   49.2600 C   0  0  0  0  0  0  0  0  0  0  0  0
   59.9290   30.6410   49.8800 C   0  0  0  0  0  0  0  0  0  0  0  0
   59.9430   32.2790   46.3760 C   0  0  0  0  0  0  0  0  0  0  0  0
   64.1864   33.4489   47.4233 H   0  0  0  0  0  0  0  0  0  0  0  0
   63.2052   32.7082   46.1136 H   0  0  0  0  0  0  0  0  0  0  0  0
   63.5137   34.4778   46.1136 H   0  0  0  0  0  0  0  0  0  0  0  0
   61.7228   32.8557   47.9740 H   0  0  0  0  0  0  0  0  0  0  0  0
   62.2865   34.5079   48.3977 H   0  0  0  0  0  0  0  0  0  0  0  0
   58.8104   35.4097   45.6162 H   0  0  0  0  0  0  0  0  0  0  0  0
   56.8694   34.0793   44.8078 H   0  0  0  0  0  0  0  0  0  0  0  0
   57.1605   29.7631   43.6341 H   0  0  0  0  0  0  0  0  0  0  0  0
   55.6231   30.6037   43.2412 H   0  0  0  0  0  0  0  0  0  0  0  0
   58.0218   32.3433   43.0760 H   0  0  0  0  0  0  0  0  0  0  0  0
   58.0362   30.9709   41.9171 H   0  0  0  0  0  0  0  0  0  0  0  0
   56.6657   32.1321   41.9171 H   0  0  0  0  0  0  0  0  0  0  0  0
   58.5590   29.5720   46.7550 H   0  0  0  0  0  0  0  0  0  0  0  0
   58.9747   29.6752   43.8470 H   0  0  0  0  0  0  0  0  0  0  0  0
   60.4296   29.1500   44.7977 H   0  0  0  0  0  0  0  0  0  0  0  0
   58.3073   27.5185   43.9314 H   0  0  0  0  0  0  0  0  0  0  0  0
   59.5843   27.1100   45.1418 H   0  0  0  0  0  0  0  0  0  0  0  0
   57.5180   28.7030   46.2390 H   0  0  0  0  0  0  0  0  0  0  0  0
   57.4380   26.9393   47.8767 H   0  0  0  0  0  0  0  0  0  0  0  0
   58.5844   26.0129   46.8217 H   0  0  0  0  0  0  0  0  0  0  0  0
   60.1606   26.9975   48.1404 H   0  0  0  0  0  0  0  0  0  0  0  0
   59.9040   28.3833   47.0086 H   0  0  0  0  0  0  0  0  0  0  0  0
   58.0050   28.8710   48.9310 H   0  0  0  0  0  0  0  0  0  0  0  0
   60.0686   26.5614   49.8794 H   0  0  0  0  0  0  0  0  0  0  0  0
   61.6947   25.2370   51.2145 H   0  0  0  0  0  0  0  0  0  0  0  0
   63.4021   26.3913   52.6071 H   0  0  0  0  0  0  0  0  0  0  0  0
   63.5189   28.8732   52.6446 H   0  0  0  0  0  0  0  0  0  0  0  0
   63.1210   31.2008   52.8512 H   0  0  0  0  0  0  0  0  0  0  0  0
   64.0657   30.7062   51.4057 H   0  0  0  0  0  0  0  0  0  0  0  0
   63.1748   32.2659   51.4057 H   0  0  0  0  0  0  0  0  0  0  0  0
   61.5764   33.1944   51.4777 H   0  0  0  0  0  0  0  0  0  0  0  0
   59.7990   34.5170   50.3572 H   0  0  0  0  0  0  0  0  0  0  0  0
   58.1188   33.3897   48.9114 H   0  0  0  0  0  0  0  0  0  0  0  0
   58.1587   30.9204   48.6451 H   0  0  0  0  0  0  0  0  0  0  0  0
   60.7957   31.7761   46.8557 H   0  0  0  0  0  0  0  0  0  0  0  0
  1  2  1  0
  2  3  1  0
  3  4  1  0
  4  5  2  0
  5  6  1  0
  6  7  2  0
  7  8  1  0
  8  9  1  0
  9 10  1  0
  7 11  1  0
 11 12  1  0
 12 13  1  0
 13 14  1  0
 14 15  1  0
 15 16  1  0
 16 17  1  0
 17 18  1  0
 18 19  1  0
 19 20  1  0
 20 21  2  0
 21 22  1  0
 22 23  2  0
 23 24  1  0
 24 25  2  0
 25 26  1  0
 26 27  1  0
 26 28  2  0
 28 29  1  0
 29 30  2  0
 30 31  1  0
 31 32  2  0
 32 33  1  0
 11 34  2  0
 34  4  1  0
 33 19  2  0
 25 20  1  0
 33 28  1  0
  1 35  1  0
  1 36  1  0
  1 37  1  0
  2 38  1  0
  2 39  1  0
  5 40  1  0
  6 41  1  0
  9 42  1  0
  9 43  1  0
 10 44  1  0
 10 45  1  0
 10 46  1  0
 12 47  1  0
 13 48  1  0
 13 49  1  0
 14 50  1  0
 14 51  1  0
 15 52  1  0
 16 53  1  0
 16 54  1  0
 17 55  1  0
 17 56  1  0
 18 57  1  0
 21 58  1  0
 22 59  1  0
 23 60  1  0
 24 61  1  0
 27 62  1  0
 27 63  1  0
 27 64  1  0
 29 65  1  0
 30 66  1  0
 31 67  1  0
 32 68  1  0
 34 69  1  0
M  CHG  1  26   1
M  END
>  <UniqueID>  (25) 
25

>  <SMILES>  (25) 
CCOc1ccc(OCC)c(NCCNCCNc2c3ccccc3[n+](C)c3ccccc23)c1

>  <Energy>  (25) 
83.09471998465716

>  <Genealogy>  (25) 
CCOc1ccc(OCC)c(NCCNCCNc2c3ccccc3[n+](C)c3ccccc23)c1 (3D coordinates assigned)
CCOc1ccc(OCC)c(NCCNCCNc2c3ccccc3[n+](C)c3ccccc23)c1 (optimized conformer: 83.09471998465716 kcal/mol)

>  <smiles>  (25) 
CCOc1ccc(OCC)c(NCCNCCNc2c3ccccc3[n+](C)c3ccccc23)c1

>  <score_type>  (25) 
oracle

>  <origin>  (25) 
adg

>  <m_score__min__energy>  (25) 
-6.5300000000000002

>  <m_primary>  (25) 
energy

$$$$
