0:0
     RDKit          3D

 41 44  0  0  0  0  0  0  0  0999 V2000
   59.3393   35.2506   46.8576 H   0  0  0  0  0  0  0  0  0  0  0  0
   58.8940   34.4230   46.2860 C   0  0  0  0  0  0  0  0  0  0  0  0
   58.8720   34.4710   44.8900 C   0  0  0  0  0  0  0  0  0  0  0  0
   59.2935   35.3401   44.3636 H   0  0  0  0  0  0  0  0  0  0  0  0
   58.3150   33.4160   44.1610 C   0  0  0  0  0  0  0  0  0  0  0  0
   58.2826   33.4672   43.0627 H   0  0  0  0  0  0  0  0  0  0  0  0
   57.7960   32.2900   44.8240 C   0  0  0  0  0  0  0  0  0  0  0  0
   57.1560   31.1780   44.0240 C   0  0  0  0  0  0  0  0  0  0  0  0
   57.9140   30.7374   43.3597 H   0  0  0  0  0  0  0  0  0  0  0  0
   56.3239   31.6101   43.4487 H   0  0  0  0  0  0  0  0  0  0  0  0
   56.6120   30.1260   44.8820 N   0  0  0  0  0  0  0  0  0  0  0  0
   57.0720   28.9540   45.2320 C   0  0  0  0  0  0  0  0  0  0  0  0
   56.1590   27.9630   45.4120 N   0  0  0  0  0  0  0  0  0  0  0  0
   56.4920   26.7090   45.8200 C   0  0  0  0  0  0  0  0  0  0  0  0
   55.4900   25.7500   45.9860 C   0  0  0  0  0  0  0  0  0  0  0  0
   54.4417   26.0112   45.7791 H   0  0  0  0  0  0  0  0  0  0  0  0
   55.8140   24.4630   46.4130 C   0  0  0  0  0  0  0  0  0  0  0  0
   55.0203   23.7122   46.5407 H   0  0  0  0  0  0  0  0  0  0  0  0
   57.1510   24.1210   46.6810 C   0  0  0  0  0  0  0  0  0  0  0  0
   57.5230   22.8400   47.1170 O   0  0  0  0  0  0  0  0  0  0  0  0
   56.6360   21.9090   47.7300 C   0  0  0  0  0  0  0  0  0  0  0  0
   56.7155   21.9925   48.8239 H   0  0  0  0  0  0  0  0  0  0  0  0
   55.6035   22.1273   47.4197 H   0  0  0  0  0  0  0  0  0  0  0  0
   56.9040   20.8883   47.4197 H   0  0  0  0  0  0  0  0  0  0  0  0
   58.1570   25.0820   46.5140 C   0  0  0  0  0  0  0  0  0  0  0  0
   59.2031   24.8154   46.7253 H   0  0  0  0  0  0  0  0  0  0  0  0
   57.8450   26.3880   46.0780 C   0  0  0  0  0  0  0  0  0  0  0  0
   58.7740   27.3820   45.8810 N   0  0  0  0  0  0  0  0  0  0  0  0
   60.1310   27.4470   45.9810 C   0  0  0  0  0  0  0  0  0  0  0  0
   61.0710   26.3580   46.3900 C   0  0  0  0  0  0  0  0  0  0  0  0
   61.1161   26.3057   47.4878 H   0  0  0  0  0  0  0  0  0  0  0  0
   60.7142   25.3968   45.9915 H   0  0  0  0  0  0  0  0  0  0  0  0
   62.0740   26.5705   45.9915 H   0  0  0  0  0  0  0  0  0  0  0  0
   60.5850   28.6670   45.6310 N   0  0  0  0  0  0  0  0  0  0  0  0
   59.5300   29.3950   45.3110 N   0  0  0  0  0  0  0  0  0  0  0  0
   59.6170   30.3690   44.9730 H   0  0  0  0  0  0  0  0  0  0  0  0
   58.4320   28.6260   45.4670 C   0  0  0  0  0  0  0  0  0  0  0  0
   57.7930   32.2670   46.2320 C   0  0  0  0  0  0  0  0  0  0  0  0
   57.3496   31.4128   46.7647 H   0  0  0  0  0  0  0  0  0  0  0  0
   58.3510   33.3250   46.9560 C   0  0  0  0  0  0  0  0  0  0  0  0
   58.3622   33.2922   48.0555 H   0  0  0  0  0  0  0  0  0  0  0  0
  1  2  1  0
  2  3  2  0
  3  4  1  0
  3  5  1  0
  5  6  1  0
  5  7  2  0
  7  8  1  0
  8  9  1  0
  8 10  1  0
  8 11  1  0
 11 12  2  0
 12 13  1  0
 13 14  1  0
 14 15  2  0
 15 16  1  0
 15 17  1  0
 17 18  1  0
 17 19  2  0
 19 20  1  0
 20 21  1  0
 21 22  1  0
 21 23  1  0
 21 24  1  0
 19 25  1  0
 25 26  1  0
 25 27  2  0
 27 28  1  0
 28 29  1  0
 29 30  1  0
 30 31  1  0
 30 32  1  0
 30 33  1  0
 29 34  2  0
 34 35  1  0
 35 36  1  0
 35 37  2  0
  7 38  1  0
 38 39  1  0
 38 40  2  0
 40 41  1  0
 40  2  1  0
 37 12  1  0
 27 14  1  0
 37 28  1  0
M  CHG  2  13  -1  35   1
M  END
>  <UniqueID>  (1) 
1

>  <SMILES>  (1) 
COc1ccc2[n-]/c(=N/Cc3ccccc3)c3[nH+]nc(C)n3c2c1

>  <Energy>  (1) 
104.16890629681703

>  <Genealogy>  (1) 
COc1ccc2[n-]c(=NCc3ccccc3)c3[nH+]nc(C)n3c2c1 (protonated)
COc1ccc2[n-]/c(=N/Cc3ccccc3)c3[nH+]nc(C)n3c2c1 (cis-trans isomerization)
COc1ccc2[n-]/c(=N/Cc3ccccc3)c3[nH+]nc(C)n3c2c1 (3D coordinates assigned)
COc1ccc2[n-]/c(=N/Cc3ccccc3)c3[nH+]nc(C)n3c2c1 (optimized conformer: 104.16890629681703 kcal/mol)

>  <smiles>  (1) 
COc1ccc2[nH]c(=NCc3ccccc3)c3nnc(C)n3c2c1

>  <score_type>  (1) 
oracle

>  <origin>  (1) 
adg

>  <m_score__min__energy>  (1) 
-7.9800000000000004

>  <m_primary>  (1) 
energy

$$$$
1:0
     RDKit          3D

 36 38  0  0  1  0  0  0  0  0999 V2000
   59.2700   35.3170   44.8930 C   0  0  0  0  0  0  0  0  0  0  0  0
   58.4120   34.2330   45.1620 N   0  0  0  0  0  0  0  0  0  0  0  0
   58.8810   33.1120   45.5790 C   0  0  0  0  0  0  0  0  0  0  0  0
   60.0320   33.2180   46.2970 N   0  0  0  0  0  0  0  0  0  0  0  0
   60.6130   32.1160   46.7750 C   0  0  0  0  0  0  0  0  0  0  0  0
   61.8530   32.3080   47.5420 C   0  0  0  0  0  0  0  0  0  0  0  0
   62.7900   33.2730   47.1780 C   0  0  0  0  0  0  0  0  0  0  0  0
   63.9590   33.4720   47.8800 C   0  0  0  0  0  0  0  0  0  0  0  0
   64.2450   32.7050   48.9880 C   0  0  0  0  0  0  0  0  0  0  0  0
   65.4890   32.8690   49.7890 C   0  0  0  0  0  0  0  0  0  0  0  0
   63.3410   31.7410   49.3770 C   0  0  0  0  0  0  0  0  0  0  0  0
   62.1640   31.5560   48.6520 C   0  0  0  0  0  0  0  0  0  0  0  0
   60.0810   30.9030   46.5580 N   0  0  0  0  0  0  0  0  0  0  0  0
   58.9440   30.7820   45.8500 C   0  0  0  0  0  0  0  0  0  0  0  0
   58.2790   31.8930   45.3190 C   0  0  0  0  0  0  0  0  0  0  0  0
   57.0430   31.8070   44.5440 C   0  0  0  0  0  0  0  0  0  0  0  0
   56.5990   30.4680   44.8480 O   0  0  0  0  0  0  0  0  0  0  0  0
   57.5490   29.5560   44.4110 C   0  0  0  0  0  0  0  0  0  0  0  0
   58.4370   29.3910   45.6560 C   0  0  0  0  0  0  0  0  0  0  0  0
   59.6163   35.7545   45.8410 H   0  0  0  0  0  0  0  0  0  0  0  0
   60.1361   34.9641   44.3140 H   0  0  0  0  0  0  0  0  0  0  0  0
   58.7277   36.0790   44.3140 H   0  0  0  0  0  0  0  0  0  0  0  0
   62.5889   33.8998   46.2967 H   0  0  0  0  0  0  0  0  0  0  0  0
   64.6676   34.2475   47.5539 H   0  0  0  0  0  0  0  0  0  0  0  0
   65.2422   32.8365   50.8605 H   0  0  0  0  0  0  0  0  0  0  0  0
   66.1894   32.0554   49.5492 H   0  0  0  0  0  0  0  0  0  0  0  0
   65.9546   33.8363   49.5492 H   0  0  0  0  0  0  0  0  0  0  0  0
   63.5474   31.1173   50.2593 H   0  0  0  0  0  0  0  0  0  0  0  0
   61.4573   30.7794   48.9798 H   0  0  0  0  0  0  0  0  0  0  0  0
   60.5400   30.0460   46.9350 H   0  0  0  0  0  0  0  0  0  0  0  0
   56.3096   32.5573   44.8745 H   0  0  0  0  0  0  0  0  0  0  0  0
   57.1758   32.0000   43.4692 H   0  0  0  0  0  0  0  0  0  0  0  0
   57.0834   28.6017   44.1238 H   0  0  0  0  0  0  0  0  0  0  0  0
   58.0987   29.8849   43.5168 H   0  0  0  0  0  0  0  0  0  0  0  0
   57.8523   29.0522   46.5240 H   0  0  0  0  0  0  0  0  0  0  0  0
   59.2303   28.6374   45.5430 H   0  0  0  0  0  0  0  0  0  0  0  0
  1  2  1  0
  2  3  2  0
  3  4  1  0
  4  5  2  0
  5  6  1  0
  6  7  2  0
  7  8  1  0
  8  9  2  0
  9 10  1  0
  9 11  1  0
 11 12  2  0
  5 13  1  0
 13 14  1  0
 14 15  2  0
 15 16  1  0
 16 17  1  0
 17 18  1  0
 18 19  1  0
 15  3  1  0
 12  6  1  0
 19 14  1  0
  1 20  1  0
  1 21  1  0
  1 22  1  0
  7 23  1  0
  8 24  1  0
 10 25  1  0
 10 26  1  0
 10 27  1  0
 11 28  1  0
 12 29  1  0
 13 30  1  0
 16 31  1  0
 16 32  1  0
 18 33  1  0
 18 34  1  0
 19 35  1  0
 19 36  1  0
M  END
>  <smiles>  (2) 
CN=c1nc(-c2ccc(C)cc2)[nH]c2c1COCC2

>  <score_type>  (2) 
oracle

>  <origin>  (2) 
adg

>  <m_score__min__energy>  (2) 
-6.6500000000000004

>  <m_primary>  (2) 
energy

$$$$
2:0
     RDKit          3D

 40 41  0  0  0  0  0  0  0  0999 V2000
   58.4360   27.4710   43.8180 C   0  0  0  0  0  0  0  0  0  0  0  0
   59.7080   28.2190   44.2110 C   0  0  0  0  0  0  0  0  0  0  0  0
   59.4760   29.0740   45.3810 N   0  0  0  0  0  0  0  0  0  0  0  0
   60.5290   29.2550   46.3880 C   0  0  0  0  0  0  0  0  0  0  0  0
   60.0800   28.7420   47.7530 C   0  0  0  0  0  0  0  0  0  0  0  0
   58.2080   29.7210   45.5550 C   0  0  0  0  0  0  0  0  0  0  0  0
   57.3730   29.2360   46.3640 O   0  0  0  0  0  0  0  0  0  0  0  0
   57.9300   31.0470   44.8980 C   0  0  1  0  0  0  0  0  0  0  0  0
   58.2860   32.2840   45.6790 C   0  0  0  0  0  0  0  0  0  0  0  0
   58.4450   32.2140   47.0710 C   0  0  0  0  0  0  0  0  0  0  0  0
   58.8210   33.3480   47.7950 C   0  0  0  0  0  0  0  0  0  0  0  0
   59.0540   34.5560   47.1320 C   0  0  0  0  0  0  0  0  0  0  0  0
   58.9160   34.6300   45.7430 C   0  0  0  0  0  0  0  0  0  0  0  0
   58.5390   33.4970   45.0170 C   0  0  0  0  0  0  0  0  0  0  0  0
   58.1380   31.1270   43.3840 C   0  0  0  0  0  0  0  0  0  0  0  0
   56.7250   31.1920   43.9530 C   0  0  1  0  0  0  0  0  0  0  0  0
   55.8660   29.9640   43.6130 C   0  0  0  0  0  0  0  0  0  0  0  0
   55.3150   29.3940   44.8370 N   0  0  0  0  0  0  0  0  0  0  0  0
   57.9005   27.1561   44.7258 H   0  0  0  0  0  0  0  0  0  0  0  0
   57.7903   28.1332   43.2226 H   0  0  0  0  0  0  0  0  0  0  0  0
   58.7009   26.5848   43.2226 H   0  0  0  0  0  0  0  0  0  0  0  0
   60.4953   27.4888   44.4497 H   0  0  0  0  0  0  0  0  0  0  0  0
   60.0147   28.8552   43.3677 H   0  0  0  0  0  0  0  0  0  0  0  0
   61.4256   28.7008   46.0734 H   0  0  0  0  0  0  0  0  0  0  0  0
   60.7481   30.3295   46.4742 H   0  0  0  0  0  0  0  0  0  0  0  0
   60.5832   29.3169   48.5444 H   0  0  0  0  0  0  0  0  0  0  0  0
   58.9907   28.8612   47.8493 H   0  0  0  0  0  0  0  0  0  0  0  0
   60.3424   27.6781   47.8493 H   0  0  0  0  0  0  0  0  0  0  0  0
   58.2729   31.2621   47.5947 H   0  0  0  0  0  0  0  0  0  0  0  0
   58.9338   33.2901   48.8877 H   0  0  0  0  0  0  0  0  0  0  0  0
   59.3462   35.4492   47.7036 H   0  0  0  0  0  0  0  0  0  0  0  0
   59.1041   35.5800   45.2214 H   0  0  0  0  0  0  0  0  0  0  0  0
   58.4400   33.5552   43.9230 H   0  0  0  0  0  0  0  0  0  0  0  0
   58.5923   32.0247   42.9392 H   0  0  0  0  0  0  0  0  0  0  0  0
   58.6446   30.4983   42.6369 H   0  0  0  0  0  0  0  0  0  0  0  0
   55.8716   31.8859   43.9382 H   0  0  0  0  0  0  0  0  0  0  0  0
   55.0435   30.2662   42.9481 H   0  0  0  0  0  0  0  0  0  0  0  0
   56.4907   29.2110   43.1102 H   0  0  0  0  0  0  0  0  0  0  0  0
   55.5270   30.0540   45.6200 H   0  0  0  0  0  0  0  0  0  0  0  0
   55.8300   28.5070   45.0460 H   0  0  0  0  0  0  0  0  0  0  0  0
  1  2  1  0
  2  3  1  0
  3  4  1  0
  4  5  1  0
  3  6  1  0
  6  7  2  0
  8  6  1  1
  8  9  1  0
  9 10  2  0
 10 11  1  0
 11 12  2  0
 12 13  1  0
 13 14  2  0
  8 15  1  0
 15 16  1  0
 16 17  1  0
 17 18  1  0
 16  8  1  0
 14  9  1  0
  1 19  1  0
  1 20  1  0
  1 21  1  0
  2 22  1  0
  2 23  1  0
  4 24  1  0
  4 25  1  0
  5 26  1  0
  5 27  1  0
  5 28  1  0
 10 29  1  0
 11 30  1  0
 12 31  1  0
 13 32  1  0
 14 33  1  0
 15 34  1  0
 15 35  1  0
 16 36  1  1
 17 37  1  0
 17 38  1  0
 18 39  1  0
 18 40  1  0
M  END
>  <UniqueID>  (3) 
2

>  <SMILES>  (3) 
CCN(CC)C(=O)[C@@]1(c2ccccc2)C[C@H]1CN

>  <Energy>  (3) 
303.949769184681

>  <Genealogy>  (3) 
CCN(CC)C(=O)[C@@]1(c2ccccc2)C[C@H]1CN (chirality)
CCN(CC)C(=O)[C@@]1(c2ccccc2)C[C@H]1CN (3D coordinates assigned)
CCN(CC)C(=O)[C@@]1(c2ccccc2)C[C@H]1CN (nonaromatic ring conformer: 303.949769184681 kcal/mol)

>  <smiles>  (3) 
CCN(CC)C(=O)C1(c2ccccc2)CC1CN

>  <score_type>  (3) 
oracle

>  <origin>  (3) 
adg

>  <m_score__min__energy>  (3) 
-6.7199999999999998

>  <m_primary>  (3) 
energy

$$$$
3:0
     RDKit          3D

  9  8  0  0  0  0  0  0  0  0999 V2000
   57.7400   32.3370   41.5810 C   0  0  0  0  0  0  0  0  0  0  0  0
   57.4160   31.5860   42.4660 C   0  0  0  0  0  0  0  0  0  0  0  0
   57.0190   30.6670   43.5490 C   0  0  0  0  0  0  0  0  0  0  0  0
   56.9910   31.3020   44.8710 N   0  0  0  0  0  0  0  0  0  0  0  0
   57.3680   32.4950   45.1180 C   0  0  0  0  0  0  0  0  0  0  0  0
   57.8460   34.0020   45.4280 S   0  0  0  0  0  0  0  0  0  0  0  0
   58.0358   33.0225   40.7732 H   0  0  0  0  0  0  0  0  0  0  0  0
   56.0136   30.2799   43.3268 H   0  0  0  0  0  0  0  0  0  0  0  0
   57.7731   29.8672   43.5889 H   0  0  0  0  0  0  0  0  0  0  0  0
  1  2  3  0
  2  3  1  0
  3  4  1  0
  4  5  2  0
  5  6  2  0
  1  7  1  0
  3  8  1  0
  3  9  1  0
M  END
>  <UniqueID>  (4) 
3

>  <SMILES>  (4) 
C#CCN=C=S

>  <Energy>  (4) 
4.208770310069697

>  <Genealogy>  (4) 
C#CCN=C=S (3D coordinates assigned)
C#CCN=C=S (optimized conformer: 4.208770310069697 kcal/mol)

>  <smiles>  (4) 
C#CCN=C=S

>  <score_type>  (4) 
oracle

>  <origin>  (4) 
adg

>  <m_score__min__energy>  (4) 
-3.0600000000000001

>  <m_primary>  (4) 
energy

$$$$
4:0
     RDKit          3D

 48 51  0  0  0  0  0  0  0  0999 V2000
   68.0580   29.8460   52.6740 C   0  0  0  0  0  0  0  0  0  0  0  0
   67.5710   31.1780   52.5420 O   0  0  0  0  0  0  0  0  0  0  0  0
   66.6150   31.5830   51.5960 C   0  0  0  0  0  0  0  0  0  0  0  0
   65.3580   30.9580   51.4750 C   0  0  0  0  0  0  0  0  0  0  0  0
   64.4380   31.4030   50.5210 C   0  0  0  0  0  0  0  0  0  0  0  0
   64.7600   32.4690   49.6670 C   0  0  0  0  0  0  0  0  0  0  0  0
   63.8100   32.9150   48.6820 N   0  0  0  0  0  0  0  0  0  0  0  0
   64.0160   32.8950   47.3680 N   0  0  0  0  0  0  0  0  0  0  0  0
   62.9140   33.3580   46.7290 C   0  0  0  0  0  0  0  0  0  0  0  0
   61.9830   33.6830   47.6950 C   0  0  0  0  0  0  0  0  0  0  0  0
   60.6800   34.1650   47.6610 C   0  0  0  0  0  0  0  0  0  0  0  0
   59.8140   34.4460   46.1160 S   0  0  0  0  0  0  0  0  0  0  0  0
   58.3300   33.4860   46.5920 C   0  0  0  0  0  0  0  0  0  0  0  0
   58.3470   32.1170   45.9580 C   0  0  0  0  0  0  0  0  0  0  0  0
   57.4010   31.8000   44.9670 C   0  0  0  0  0  0  0  0  0  0  0  0
   57.3240   30.5040   44.4310 C   0  0  0  0  0  0  0  0  0  0  0  0
   56.3190   30.1710   43.4560 N   0  0  0  0  0  0  0  0  0  0  0  0
   56.5130   30.3850   42.2430 O   0  0  0  0  0  0  0  0  0  0  0  0
   55.1020   29.6660   43.8540 O   0  0  0  0  0  0  0  0  0  0  0  0
   58.2310   29.5310   44.8770 C   0  0  0  0  0  0  0  0  0  0  0  0
   59.1830   29.8380   45.8530 C   0  0  0  0  0  0  0  0  0  0  0  0
   59.2460   31.1300   46.4080 C   0  0  0  0  0  0  0  0  0  0  0  0
   60.1760   31.4650   47.4070 O   0  0  0  0  0  0  0  0  0  0  0  0
   60.6210   30.5790   48.4290 C   0  0  0  0  0  0  0  0  0  0  0  0
   60.0530   34.3780   48.8560 N   0  0  0  0  0  0  0  0  0  0  0  0
   60.6780   34.1160   50.0490 C   0  0  0  0  0  0  0  0  0  0  0  0
   61.9490   33.6160   50.0720 N   0  0  0  0  0  0  0  0  0  0  0  0
   62.5720   33.3980   48.8850 C   0  0  0  0  0  0  0  0  0  0  0  0
   66.0100   33.0970   49.7960 C   0  0  0  0  0  0  0  0  0  0  0  0
   66.9270   32.6550   50.7530 C   0  0  0  0  0  0  0  0  0  0  0  0
   68.1504   29.5934   53.7406 H   0  0  0  0  0  0  0  0  0  0  0  0
   67.3563   29.1496   52.1917 H   0  0  0  0  0  0  0  0  0  0  0  0
   69.0434   29.7664   52.1917 H   0  0  0  0  0  0  0  0  0  0  0  0
   65.0994   30.1162   52.1341 H   0  0  0  0  0  0  0  0  0  0  0  0
   63.4558   30.9146   50.4393 H   0  0  0  0  0  0  0  0  0  0  0  0
   64.8850   32.5520   46.9010 H   0  0  0  0  0  0  0  0  0  0  0  0
   62.7852   33.4566   45.6410 H   0  0  0  0  0  0  0  0  0  0  0  0
   58.3083   33.3757   47.6862 H   0  0  0  0  0  0  0  0  0  0  0  0
   57.4367   34.0240   46.2418 H   0  0  0  0  0  0  0  0  0  0  0  0
   56.7117   32.5778   44.6066 H   0  0  0  0  0  0  0  0  0  0  0  0
   58.1924   28.5162   44.4542 H   0  0  0  0  0  0  0  0  0  0  0  0
   59.8884   29.0641   46.1900 H   0  0  0  0  0  0  0  0  0  0  0  0
   60.4015   31.0160   49.4143 H   0  0  0  0  0  0  0  0  0  0  0  0
   60.1000   29.6151   48.3311 H   0  0  0  0  0  0  0  0  0  0  0  0
   61.7052   30.4214   48.3311 H   0  0  0  0  0  0  0  0  0  0  0  0
   60.1511   34.3102   50.9949 H   0  0  0  0  0  0  0  0  0  0  0  0
   66.2682   33.9414   49.1400 H   0  0  0  0  0  0  0  0  0  0  0  0
   67.9029   33.1543   50.8444 H   0  0  0  0  0  0  0  0  0  0  0  0
  1  2  1  0
  2  3  1  0
  3  4  2  0
  4  5  1  0
  5  6  2  0
  6  7  1  0
  7  8  1  0
  8  9  2  0
  9 10  1  0
 10 11  2  0
 11 12  1  0
 12 13  1  0
 13 14  1  0
 14 15  2  0
 15 16  1  0
 16 17  1  0
 17 18  2  0
 17 19  1  0
 16 20  2  0
 20 21  1  0
 21 22  2  0
 22 23  1  0
 23 24  1  0
 11 25  1  0
 25 26  2  0
 26 27  1  0
 27 28  2  0
  6 29  1  0
 29 30  2  0
 30  3  1  0
 28  7  1  0
 28 10  1  0
 22 14  1  0
  1 31  1  0
  1 32  1  0
  1 33  1  0
  4 34  1  0
  5 35  1  0
  8 36  1  0
  9 37  1  0
 13 38  1  0
 13 39  1  0
 15 40  1  0
 20 41  1  0
 21 42  1  0
 24 43  1  0
 24 44  1  0
 24 45  1  0
 26 46  1  0
 29 47  1  0
 30 48  1  0
M  CHG  3   8   1  17   1  19  -1
M  END
>  <UniqueID>  (5) 
4

>  <SMILES>  (5) 
COc1ccc(-n2[nH+]cc3c(SCc4cc([N+](=O)[O-])ccc4OC)ncnc32)cc1

>  <Energy>  (5) 
92.97030157433976

>  <Genealogy>  (5) 
COc1ccc(-n2[nH+]cc3c(SCc4cc([N+](=O)[O-])ccc4OC)ncnc32)cc1 (protonated)
COc1ccc(-n2[nH+]cc3c(SCc4cc([N+](=O)[O-])ccc4OC)ncnc32)cc1 (3D coordinates assigned)
COc1ccc(-n2[nH+]cc3c(SCc4cc([N+](=O)[O-])ccc4OC)ncnc32)cc1 (optimized conformer: 92.97030157433976 kcal/mol)

>  <smiles>  (5) 
COc1ccc(-n2ncc3c(SCc4cc([N+](=O)[O-])ccc4OC)ncnc32)cc1

>  <score_type>  (5) 
oracle

>  <origin>  (5) 
adg

>  <m_score__min__energy>  (5) 
-7.1600000000000001

>  <m_primary>  (5) 
energy

$$$$
5:0
     RDKit          3D

 36 36  0  0  0  0  0  0  0  0999 V2000
   59.2250   30.3260   45.8500 C   0  0  0  0  0  0  0  0  0  0  0  0
   57.7860   29.8310   45.6980 C   0  0  0  0  0  0  0  0  0  0  0  0
   56.9350   30.7210   44.8780 N   0  0  0  0  0  0  0  0  0  0  0  0
   55.8930   30.0260   44.0790 C   0  0  0  0  0  0  0  0  0  0  0  0
   56.2810   29.7300   42.6230 C   0  0  0  0  0  0  0  0  0  0  0  0
   57.6710   31.8200   44.2140 C   0  0  0  0  0  0  0  0  0  0  0  0
   57.3760   33.1710   44.8740 C   0  0  0  0  0  0  0  0  0  0  0  0
   58.8480   34.2610   44.8570 S   0  0  0  0  0  0  0  0  0  0  0  0
   58.8830   34.6300   46.6490 C   0  0  0  0  0  0  0  0  0  0  0  0
   60.1990   34.2200   47.2520 C   0  0  0  0  0  0  0  0  0  0  0  0
   61.2690   33.8460   46.4200 C   0  0  0  0  0  0  0  0  0  0  0  0
   62.4910   33.4560   46.9760 C   0  0  0  0  0  0  0  0  0  0  0  0
   62.6560   33.4390   48.3640 C   0  0  0  0  0  0  0  0  0  0  0  0
   64.3260   32.9060   49.1210 Br  0  0  0  0  0  0  0  0  0  0  0  0
   61.5970   33.8110   49.1980 C   0  0  0  0  0  0  0  0  0  0  0  0
   60.3730   34.2020   48.6460 C   0  0  0  0  0  0  0  0  0  0  0  0
   59.4725   30.4112   46.9184 H   0  0  0  0  0  0  0  0  0  0  0  0
   59.9109   29.6121   45.3705 H   0  0  0  0  0  0  0  0  0  0  0  0
   59.3266   31.3107   45.3705 H   0  0  0  0  0  0  0  0  0  0  0  0
   57.8083   28.8384   45.2244 H   0  0  0  0  0  0  0  0  0  0  0  0
   57.3466   29.8049   46.7061 H   0  0  0  0  0  0  0  0  0  0  0  0
   55.6659   29.0696   44.5727 H   0  0  0  0  0  0  0  0  0  0  0  0
   55.0327   30.7100   44.0347 H   0  0  0  0  0  0  0  0  0  0  0  0
   57.1554   29.0629   42.6049 H   0  0  0  0  0  0  0  0  0  0  0  0
   55.4380   29.2435   42.1105 H   0  0  0  0  0  0  0  0  0  0  0  0
   56.5275   30.6716   42.1105 H   0  0  0  0  0  0  0  0  0  0  0  0
   58.7504   31.6182   44.2792 H   0  0  0  0  0  0  0  0  0  0  0  0
   57.3452   31.8696   43.1645 H   0  0  0  0  0  0  0  0  0  0  0  0
   56.5589   33.6650   44.3278 H   0  0  0  0  0  0  0  0  0  0  0  0
   57.0927   32.9894   45.9213 H   0  0  0  0  0  0  0  0  0  0  0  0
   58.7388   35.7103   46.7979 H   0  0  0  0  0  0  0  0  0  0  0  0
   58.0777   34.0654   47.1416 H   0  0  0  0  0  0  0  0  0  0  0  0
   61.1441   33.8603   45.3272 H   0  0  0  0  0  0  0  0  0  0  0  0
   63.3239   33.1621   46.3203 H   0  0  0  0  0  0  0  0  0  0  0  0
   61.7269   33.7961   50.2902 H   0  0  0  0  0  0  0  0  0  0  0  0
   59.5435   34.4965   49.3056 H   0  0  0  0  0  0  0  0  0  0  0  0
  1  2  1  0
  2  3  1  0
  3  4  1  0
  4  5  1  0
  3  6  1  0
  6  7  1  0
  7  8  1  0
  8  9  1  0
  9 10  1  0
 10 11  2  0
 11 12  1  0
 12 13  2  0
 13 14  1  0
 13 15  1  0
 15 16  2  0
 16 10  1  0
  1 17  1  0
  1 18  1  0
  1 19  1  0
  2 20  1  0
  2 21  1  0
  4 22  1  0
  4 23  1  0
  5 24  1  0
  5 25  1  0
  5 26  1  0
  6 27  1  0
  6 28  1  0
  7 29  1  0
  7 30  1  0
  9 31  1  0
  9 32  1  0
 11 33  1  0
 12 34  1  0
 15 35  1  0
 16 36  1  0
M  END
>  <UniqueID>  (6) 
5

>  <SMILES>  (6) 
CCN(CC)CCSCc1ccc(Br)cc1

>  <Energy>  (6) 
34.83457919799444

>  <Genealogy>  (6) 
CCN(CC)CCSCc1ccc(Br)cc1 (3D coordinates assigned)
CCN(CC)CCSCc1ccc(Br)cc1 (optimized conformer: 34.83457919799444 kcal/mol)

>  <smiles>  (6) 
CCN(CC)CCSCc1ccc(Br)cc1

>  <score_type>  (6) 
oracle

>  <origin>  (6) 
adg

>  <m_score__min__energy>  (6) 
-6.4100000000000001

>  <m_primary>  (6) 
energy

$$$$
6:0
     RDKit          3D

 26 26  0  0  0  0  0  0  0  0999 V2000
   55.6900   29.7510   43.7530 C   0  0  0  0  0  0  0  0  0  0  0  0
   56.6180   29.3900   44.9070 C   0  0  0  0  0  0  0  0  0  0  0  0
   57.9020   30.0880   44.7710 N   0  0  0  0  0  0  0  0  0  0  0  0
   59.1300   29.3280   44.5050 C   0  0  0  0  0  0  0  0  0  0  0  0
   58.7970   27.8900   44.1290 C   0  0  0  0  0  0  0  0  0  0  0  0
   57.9880   31.4790   45.1220 C   0  0  0  0  0  0  0  0  0  0  0  0
   58.1370   31.8500   46.4680 C   0  0  0  0  0  0  0  0  0  0  0  0
   58.2140   33.1980   46.8240 C   0  0  0  0  0  0  0  0  0  0  0  0
   58.1450   34.1860   45.8380 C   0  0  0  0  0  0  0  0  0  0  0  0
   58.0010   33.8270   44.4950 C   0  0  0  0  0  0  0  0  0  0  0  0
   57.9220   32.4770   44.1310 C   0  0  0  0  0  0  0  0  0  0  0  0
   57.7660   32.0320   42.2750 Br  0  0  0  0  0  0  0  0  0  0  0  0
   54.7350   30.1225   44.1529 H   0  0  0  0  0  0  0  0  0  0  0  0
   56.1583   30.5326   43.1366 H   0  0  0  0  0  0  0  0  0  0  0  0
   55.5070   28.8585   43.1366 H   0  0  0  0  0  0  0  0  0  0  0  0
   56.1457   29.6823   45.8565 H   0  0  0  0  0  0  0  0  0  0  0  0
   56.7992   28.3051   44.8921 H   0  0  0  0  0  0  0  0  0  0  0  0
   59.6763   29.8016   43.6760 H   0  0  0  0  0  0  0  0  0  0  0  0
   59.7493   29.3235   45.4141 H   0  0  0  0  0  0  0  0  0  0  0  0
   58.6591   27.2944   45.0435 H   0  0  0  0  0  0  0  0  0  0  0  0
   57.8707   27.8712   43.5360 H   0  0  0  0  0  0  0  0  0  0  0  0
   59.6207   27.4659   43.5360 H   0  0  0  0  0  0  0  0  0  0  0  0
   58.1934   31.0746   47.2462 H   0  0  0  0  0  0  0  0  0  0  0  0
   58.3290   33.4822   47.8804 H   0  0  0  0  0  0  0  0  0  0  0  0
   58.2041   35.2478   46.1194 H   0  0  0  0  0  0  0  0  0  0  0  0
   57.9495   34.6073   43.7214 H   0  0  0  0  0  0  0  0  0  0  0  0
  1  2  1  0
  2  3  1  0
  3  4  1  0
  4  5  1  0
  3  6  1  0
  6  7  2  0
  7  8  1  0
  8  9  2  0
  9 10  1  0
 10 11  2  0
 11 12  1  0
 11  6  1  0
  1 13  1  0
  1 14  1  0
  1 15  1  0
  2 16  1  0
  2 17  1  0
  4 18  1  0
  4 19  1  0
  5 20  1  0
  5 21  1  0
  5 22  1  0
  7 23  1  0
  8 24  1  0
  9 25  1  0
 10 26  1  0
M  END
>  <UniqueID>  (7) 
6

>  <SMILES>  (7) 
CCN(CC)c1ccccc1Br

>  <Energy>  (7) 
22.285675898506902

>  <Genealogy>  (7) 
CCN(CC)c1ccccc1Br (3D coordinates assigned)
CCN(CC)c1ccccc1Br (optimized conformer: 22.285675898506902 kcal/mol)

>  <smiles>  (7) 
CCN(CC)c1ccccc1Br

>  <score_type>  (7) 
oracle

>  <origin>  (7) 
adg

>  <m_score__min__energy>  (7) 
-5.0499999999999998

>  <m_primary>  (7) 
energy

$$$$
7:0
     RDKit          3D

 33 33  0  0  0  0  0  0  0  0999 V2000
   62.4720   34.2250   49.1240 C   0  0  0  0  0  0  0  0  0  0  0  0
   63.8000   33.5390   48.7700 C   0  0  0  0  0  0  0  0  0  0  0  0
   63.8630   32.9950   47.3910 N   0  0  2  0  0  0  0  0  0  0  0  0
   63.1300   33.8450   46.4300 C   0  0  0  0  0  0  0  0  0  0  0  0
   63.4080   31.5850   47.3290 C   0  0  0  0  0  0  0  0  0  0  0  0
   61.9430   31.4950   47.2280 C   0  0  0  0  0  0  0  0  0  0  0  0
   60.7420   31.4250   47.1420 C   0  0  0  0  0  0  0  0  0  0  0  0
   59.2840   31.3330   47.0350 C   0  0  0  0  0  0  0  0  0  0  0  0
   58.7710   32.4480   46.2430 N   0  0  0  0  0  0  0  0  0  0  0  0
   59.3750   33.7670   46.1900 C   0  0  0  0  0  0  0  0  0  0  0  0
   58.5040   34.5950   45.2230 C   0  0  0  0  0  0  0  0  0  0  0  0
   57.4520   33.6470   44.6220 C   0  0  0  0  0  0  0  0  0  0  0  0
   57.6920   32.3760   45.3330 C   0  0  0  0  0  0  0  0  0  0  0  0
   57.0160   31.3300   45.1450 O   0  0  0  0  0  0  0  0  0  0  0  0
   62.3674   34.2791   50.2177 H   0  0  0  0  0  0  0  0  0  0  0  0
   62.4610   35.2416   48.7039 H   0  0  0  0  0  0  0  0  0  0  0  0
   61.6366   33.6456   48.7039 H   0  0  0  0  0  0  0  0  0  0  0  0
   64.6088   34.2755   48.8861 H   0  0  0  0  0  0  0  0  0  0  0  0
   63.8995   32.6801   49.4500 H   0  0  0  0  0  0  0  0  0  0  0  0
   64.8760   33.0240   47.1160 H   0  0  0  0  0  0  0  0  0  0  0  0
   62.5076   34.5667   46.9793 H   0  0  0  0  0  0  0  0  0  0  0  0
   63.8485   34.3871   45.7976 H   0  0  0  0  0  0  0  0  0  0  0  0
   62.4882   33.2140   45.7976 H   0  0  0  0  0  0  0  0  0  0  0  0
   63.8573   31.1029   46.4483 H   0  0  0  0  0  0  0  0  0  0  0  0
   63.7217   31.0801   48.2546 H   0  0  0  0  0  0  0  0  0  0  0  0
   59.0134   30.3848   46.5475 H   0  0  0  0  0  0  0  0  0  0  0  0
   58.8443   31.3726   48.0425 H   0  0  0  0  0  0  0  0  0  0  0  0
   59.3786   34.2262   47.1896 H   0  0  0  0  0  0  0  0  0  0  0  0
   60.4199   33.7182   45.8497 H   0  0  0  0  0  0  0  0  0  0  0  0
   58.0068   35.4099   45.7695 H   0  0  0  0  0  0  0  0  0  0  0  0
   59.1221   35.0410   44.4298 H   0  0  0  0  0  0  0  0  0  0  0  0
   56.4339   34.0179   44.8113 H   0  0  0  0  0  0  0  0  0  0  0  0
   57.5348   33.5505   43.5294 H   0  0  0  0  0  0  0  0  0  0  0  0
  1  2  1  0
  2  3  1  0
  3  4  1  0
  3  5  1  0
  5  6  1  0
  6  7  3  0
  7  8  1  0
  8  9  1  0
  9 10  1  0
 10 11  1  0
 11 12  1  0
 12 13  1  0
 13 14  2  0
 13  9  1  0
  1 15  1  0
  1 16  1  0
  1 17  1  0
  2 18  1  0
  2 19  1  0
  3 20  1  6
  4 21  1  0
  4 22  1  0
  4 23  1  0
  5 24  1  0
  5 25  1  0
  8 26  1  0
  8 27  1  0
 10 28  1  0
 10 29  1  0
 11 30  1  0
 11 31  1  0
 12 32  1  0
 12 33  1  0
M  CHG  1   3   1
M  END
>  <UniqueID>  (8) 
7

>  <SMILES>  (8) 
CC[N@H+](C)CC#CCN1CCCC1=O

>  <Energy>  (8) 
30.914655128952543

>  <Genealogy>  (8) 
CC[NH+](C)CC#CCN1CCCC1=O (protonated)
CC[N@H+](C)CC#CCN1CCCC1=O (chirality)
CC[N@H+](C)CC#CCN1CCCC1=O (3D coordinates assigned)
CC[N@H+](C)CC#CCN1CCCC1=O (nonaromatic ring conformer: 30.914655128952543 kcal/mol)

>  <smiles>  (8) 
CCN(C)CC#CCN1CCCC1=O

>  <score_type>  (8) 
oracle

>  <origin>  (8) 
adg

>  <m_score__min__energy>  (8) 
-3.5

>  <m_primary>  (8) 
energy

$$$$
8:0
     RDKit          3D

 41 44  0  0  0  0  0  0  0  0999 V2000
   56.8120   21.2470   45.8220 C   0  0  0  0  0  0  0  0  0  0  0  0
   57.5310   22.1080   46.7000 O   0  0  0  0  0  0  0  0  0  0  0  0
   57.6170   23.5020   46.5520 C   0  0  0  0  0  0  0  0  0  0  0  0
   56.5760   24.3610   46.9470 C   0  0  0  0  0  0  0  0  0  0  0  0
   56.6970   25.7400   46.7830 C   0  0  0  0  0  0  0  0  0  0  0  0
   57.8520   26.2940   46.2100 C   0  0  0  0  0  0  0  0  0  0  0  0
   57.9550   27.7680   46.0540 C   0  0  0  0  0  0  0  0  0  0  0  0
   57.0210   28.4980   45.3120 C   0  0  0  0  0  0  0  0  0  0  0  0
   57.1610   29.8810   45.1940 C   0  0  0  0  0  0  0  0  0  0  0  0
   56.2600   30.5030   44.5760 O   0  0  0  0  0  0  0  0  0  0  0  0
   58.2690   30.5410   45.7950 C   0  0  0  0  0  0  0  0  0  0  0  0
   59.1350   29.7210   46.5720 C   0  0  0  0  0  0  0  0  0  0  0  0
   60.2020   30.2720   47.2760 C   0  0  0  0  0  0  0  0  0  0  0  0
   60.4450   31.6370   47.2390 C   0  0  0  0  0  0  0  0  0  0  0  0
   59.6450   32.4780   46.4600 C   0  0  0  0  0  0  0  0  0  0  0  0
   59.9410   33.8500   46.4240 C   0  0  0  0  0  0  0  0  0  0  0  0
   59.1950   34.7120   45.6270 C   0  0  0  0  0  0  0  0  0  0  0  0
   58.1600   34.2120   44.8440 C   0  0  0  0  0  0  0  0  0  0  0  0
   57.8460   32.8510   44.8680 C   0  0  0  0  0  0  0  0  0  0  0  0
   58.5580   31.9480   45.7000 C   0  0  0  0  0  0  0  0  0  0  0  0
   58.9470   28.4080   46.6570 O   0  0  0  0  0  0  0  0  0  0  0  0
   58.9000   25.4360   45.8280 C   0  0  0  0  0  0  0  0  0  0  0  0
   58.7860   24.0410   45.9930 C   0  0  0  0  0  0  0  0  0  0  0  0
   59.8100   23.1590   45.6170 O   0  0  0  0  0  0  0  0  0  0  0  0
   59.7140   22.2120   44.5560 C   0  0  0  0  0  0  0  0  0  0  0  0
   56.2172   20.5347   46.4127 H   0  0  0  0  0  0  0  0  0  0  0  0
   56.1424   21.8464   45.1877 H   0  0  0  0  0  0  0  0  0  0  0  0
   57.5212   20.6950   45.1877 H   0  0  0  0  0  0  0  0  0  0  0  0
   55.6598   23.9418   47.3885 H   0  0  0  0  0  0  0  0  0  0  0  0
   55.8789   26.4006   47.1060 H   0  0  0  0  0  0  0  0  0  0  0  0
   56.1799   27.9841   44.8237 H   0  0  0  0  0  0  0  0  0  0  0  0
   60.8593   29.6180   47.8678 H   0  0  0  0  0  0  0  0  0  0  0  0
   61.2728   32.0607   47.8266 H   0  0  0  0  0  0  0  0  0  0  0  0
   60.7688   34.2461   47.0305 H   0  0  0  0  0  0  0  0  0  0  0  0
   59.4234   35.7880   45.6160 H   0  0  0  0  0  0  0  0  0  0  0  0
   57.5841   34.8936   44.2007 H   0  0  0  0  0  0  0  0  0  0  0  0
   57.0329   32.4726   44.2311 H   0  0  0  0  0  0  0  0  0  0  0  0
   59.8188   25.8590   45.3956 H   0  0  0  0  0  0  0  0  0  0  0  0
   59.6114   21.2004   44.9756 H   0  0  0  0  0  0  0  0  0  0  0  0
   58.8347   22.4430   43.9368 H   0  0  0  0  0  0  0  0  0  0  0  0
   60.6218   22.2618   43.9368 H   0  0  0  0  0  0  0  0  0  0  0  0
  1  2  1  0
  2  3  1  0
  3  4  2  0
  4  5  1  0
  5  6  2  0
  6  7  1  0
  7  8  2  0
  8  9  1  0
  9 10  2  0
  9 11  1  0
 11 12  2  0
 12 13  1  0
 13 14  2  0
 14 15  1  0
 15 16  2  0
 16 17  1  0
 17 18  2  0
 18 19  1  0
 19 20  2  0
 12 21  1  0
  6 22  1  0
 22 23  2  0
 23 24  1  0
 24 25  1  0
 23  3  1  0
 21  7  1  0
 20 11  1  0
 20 15  1  0
  1 26  1  0
  1 27  1  0
  1 28  1  0
  4 29  1  0
  5 30  1  0
  8 31  1  0
 13 32  1  0
 14 33  1  0
 16 34  1  0
 17 35  1  0
 18 36  1  0
 19 37  1  0
 22 38  1  0
 25 39  1  0
 25 40  1  0
 25 41  1  0
M  END
>  <UniqueID>  (9) 
8

>  <SMILES>  (9) 
COc1ccc(-c2cc(=O)c3c(ccc4ccccc43)o2)cc1OC

>  <Energy>  (9) 
65.65188645513672

>  <Genealogy>  (9) 
COc1ccc(-c2cc(=O)c3c(ccc4ccccc43)o2)cc1OC (3D coordinates assigned)
COc1ccc(-c2cc(=O)c3c(ccc4ccccc43)o2)cc1OC (optimized conformer: 65.65188645513672 kcal/mol)

>  <smiles>  (9) 
COc1ccc(-c2cc(=O)c3c(ccc4ccccc43)o2)cc1OC

>  <score_type>  (9) 
oracle

>  <origin>  (9) 
adg

>  <m_score__min__energy>  (9) 
-7.9500000000000002

>  <m_primary>  (9) 
energy

$$$$
9:0
     RDKit          3D

 45 46  0  0  1  0  0  0  0  0999 V2000
   60.7560   28.9830   49.3550 C   0  0  0  0  0  0  0  0  0  0  0  0
   60.8280   30.3720   49.9100 C   0  0  0  0  0  0  0  0  0  0  0  0
   60.9870   31.4020   48.9060 N   0  0  0  0  0  0  0  0  0  0  0  0
   62.2040   31.7750   48.4960 N   0  0  0  0  0  0  0  0  0  0  0  0
   62.3600   32.7250   47.5690 C   0  0  0  0  0  0  0  0  0  0  0  0
   63.7510   33.1020   47.1490 C   0  0  0  0  0  0  0  0  0  0  0  0
   61.2500   33.3240   47.0310 C   0  0  0  0  0  0  0  0  0  0  0  0
   57.3380   30.0900   45.2820 C   0  0  0  0  0  0  0  0  0  0  0  0
   56.6640   30.8610   44.5120 N   0  0  0  0  0  0  0  0  0  0  0  0
   57.4190   31.8680   43.7440 C   0  0  0  0  0  0  0  0  0  0  0  0
   57.3810   33.1420   44.5090 C   0  0  0  0  0  0  0  0  0  0  0  0
   58.6400   33.9190   44.5980 C   0  0  0  0  0  0  0  0  0  0  0  0
   58.9880   34.4650   45.9430 C   0  0  0  0  0  0  0  0  0  0  0  0
   58.9020   33.4780   46.9750 N   0  0  0  0  0  0  0  0  0  0  0  0
   59.9920   32.9640   47.4300 C   0  0  0  0  0  0  0  0  0  0  0  0
   57.5780   28.7720   45.2190 N   0  0  0  0  0  0  0  0  0  0  0  0
   58.3440   28.4450   46.2690 C   0  0  0  0  0  0  0  0  0  0  0  0
   58.8830   27.1140   46.6530 C   0  0  0  0  0  0  0  0  0  0  0  0
   58.5880   29.5560   46.9940 N   0  0  0  0  0  0  0  0  0  0  0  0
   57.9730   30.5460   46.3860 N   0  0  0  0  0  0  0  0  0  0  0  0
   59.8710   31.9760   48.3930 C   0  0  0  0  0  0  0  0  0  0  0  0
   58.7350   31.6200   48.7830 O   0  0  0  0  0  0  0  0  0  0  0  0
   60.7185   28.2591   50.1823 H   0  0  0  0  0  0  0  0  0  0  0  0
   59.8514   28.8813   48.7375 H   0  0  0  0  0  0  0  0  0  0  0  0
   61.6453   28.7883   48.7375 H   0  0  0  0  0  0  0  0  0  0  0  0
   59.8992   30.5709   50.4648 H   0  0  0  0  0  0  0  0  0  0  0  0
   61.7219   30.4120   50.5497 H   0  0  0  0  0  0  0  0  0  0  0  0
   63.0400   31.2990   48.9240 H   0  0  0  0  0  0  0  0  0  0  0  0
   64.3708   33.2700   48.0421 H   0  0  0  0  0  0  0  0  0  0  0  0
   64.1857   32.2893   46.5486 H   0  0  0  0  0  0  0  0  0  0  0  0
   63.7158   34.0230   46.5486 H   0  0  0  0  0  0  0  0  0  0  0  0
   61.3730   34.1058   46.2670 H   0  0  0  0  0  0  0  0  0  0  0  0
   56.9562   32.0102   42.7563 H   0  0  0  0  0  0  0  0  0  0  0  0
   58.4580   31.5392   43.5948 H   0  0  0  0  0  0  0  0  0  0  0  0
   57.0677   32.9017   45.5357 H   0  0  0  0  0  0  0  0  0  0  0  0
   56.6895   33.7878   43.9480 H   0  0  0  0  0  0  0  0  0  0  0  0
   58.5597   34.7675   43.9026 H   0  0  0  0  0  0  0  0  0  0  0  0
   59.4417   33.2061   44.3551 H   0  0  0  0  0  0  0  0  0  0  0  0
   58.2945   35.2851   46.1808 H   0  0  0  0  0  0  0  0  0  0  0  0
   60.0300   34.8149   45.9018 H   0  0  0  0  0  0  0  0  0  0  0  0
   58.9154   27.0340   47.7496 H   0  0  0  0  0  0  0  0  0  0  0  0
   58.2338   26.3244   46.2468 H   0  0  0  0  0  0  0  0  0  0  0  0
   59.8987   26.9986   46.2468 H   0  0  0  0  0  0  0  0  0  0  0  0
   59.1540   29.6530   47.8780 H   0  0  0  0  0  0  0  0  0  0  0  0
   57.9890   31.5280   46.7270 H   0  0  0  0  0  0  0  0  0  0  0  0
  1  2  1  0
  2  3  1  0
  3  4  1  0
  4  5  1  0
  5  6  1  0
  5  7  2  0
  7  8  1  0
  8  9  2  0
  9 10  1  0
 10 11  1  0
 11 12  1  0
 12 13  1  0
 13 14  1  0
 14 15  2  0
 15 16  1  0
 16 17  2  0
 17 18  1  0
 17 19  1  0
 19 20  1  0
  8 21  1  0
 21 22  2  0
 21  3  1  0
 20 15  1  0
  1 23  1  0
  1 24  1  0
  1 25  1  0
  2 26  1  0
  2 27  1  0
  4 28  1  0
  6 29  1  0
  6 30  1  0
  6 31  1  0
  7 32  1  0
 10 33  1  0
 10 34  1  0
 11 35  1  0
 11 36  1  0
 12 37  1  0
 12 38  1  0
 13 39  1  0
 13 40  1  0
 18 41  1  0
 18 42  1  0
 18 43  1  0
 19 44  1  0
 20 45  1  0
M  END
>  <smiles>  (10) 
CCn1[nH]c(C)cc(=NCCCCN=c2nc(C)[nH][nH]2)c1=O

>  <score_type>  (10) 
oracle

>  <origin>  (10) 
adg

>  <m_score__min__energy>  (10) 
-6.4699999999999998

>  <m_primary>  (10) 
energy

$$$$
10:0
     RDKit          3D

 47 49  0  0  0  0  0  0  0  0999 V2000
   55.5210   30.0610   43.7200 C   0  0  0  0  0  0  0  0  0  0  0  0
   56.2500   29.8850   44.9290 O   0  0  0  0  0  0  0  0  0  0  0  0
   57.5010   29.2530   45.0260 C   0  0  0  0  0  0  0  0  0  0  0  0
   57.7960   28.0840   44.2960 C   0  0  0  0  0  0  0  0  0  0  0  0
   59.0470   27.4760   44.4100 C   0  0  0  0  0  0  0  0  0  0  0  0
   60.0180   28.0210   45.2500 C   0  0  0  0  0  0  0  0  0  0  0  0
   59.7410   29.1790   45.9780 C   0  0  0  0  0  0  0  0  0  0  0  0
   58.4860   29.8050   45.8750 C   0  0  0  0  0  0  0  0  0  0  0  0
   58.2280   31.0740   46.6630 C   0  0  0  0  0  0  0  0  0  0  0  0
   57.4380   32.0680   45.8890 N   0  0  0  0  0  0  0  0  0  0  0  0
   58.1230   32.4570   44.6250 C   0  0  0  0  0  0  0  0  0  0  0  0
   59.0720   33.6650   44.7810 C   0  0  0  0  0  0  0  0  0  0  0  0
   59.4390   33.8450   46.1920 N   0  0  0  0  0  0  0  0  0  0  0  0
   60.5820   34.7630   46.3990 C   0  0  0  0  0  0  0  0  0  0  0  0
   61.7160   34.1660   47.2100 C   0  0  0  0  0  0  0  0  0  0  0  0
   62.8660   33.6840   46.5620 C   0  0  0  0  0  0  0  0  0  0  0  0
   63.9160   33.1330   47.3020 C   0  0  0  0  0  0  0  0  0  0  0  0
   63.8260   33.0510   48.6940 C   0  0  0  0  0  0  0  0  0  0  0  0
   64.8450   32.5150   49.4090 F   0  0  0  0  0  0  0  0  0  0  0  0
   62.6810   33.5140   49.3470 C   0  0  0  0  0  0  0  0  0  0  0  0
   61.6260   34.0660   48.6120 C   0  0  0  0  0  0  0  0  0  0  0  0
   60.5210   34.5010   49.2700 F   0  0  0  0  0  0  0  0  0  0  0  0
   58.2600   34.1810   47.0100 C   0  0  0  0  0  0  0  0  0  0  0  0
   57.0600   33.2640   46.6810 C   0  0  0  0  0  0  0  0  0  0  0  0
   54.4764   30.3132   43.9551 H   0  0  0  0  0  0  0  0  0  0  0  0
   55.9722   30.8760   43.1351 H   0  0  0  0  0  0  0  0  0  0  0  0
   55.5507   29.1299   43.1351 H   0  0  0  0  0  0  0  0  0  0  0  0
   57.0351   27.6480   43.6320 H   0  0  0  0  0  0  0  0  0  0  0  0
   59.2679   26.5642   43.8357 H   0  0  0  0  0  0  0  0  0  0  0  0
   61.0023   27.5380   45.3387 H   0  0  0  0  0  0  0  0  0  0  0  0
   60.5108   29.6056   46.6379 H   0  0  0  0  0  0  0  0  0  0  0  0
   57.6735   30.8161   47.5773 H   0  0  0  0  0  0  0  0  0  0  0  0
   59.2020   31.5279   46.8984 H   0  0  0  0  0  0  0  0  0  0  0  0
   56.5450   31.5960   45.6070 H   0  0  0  0  0  0  0  0  0  0  0  0
   58.7101   31.5975   44.2692 H   0  0  0  0  0  0  0  0  0  0  0  0
   57.3394   32.7532   43.9121 H   0  0  0  0  0  0  0  0  0  0  0  0
   59.9822   33.4905   44.1885 H   0  0  0  0  0  0  0  0  0  0  0  0
   58.5597   34.5712   44.4257 H   0  0  0  0  0  0  0  0  0  0  0  0
   60.9765   35.0513   45.4135 H   0  0  0  0  0  0  0  0  0  0  0  0
   60.2002   35.6214   46.9712 H   0  0  0  0  0  0  0  0  0  0  0  0
   62.9403   33.7407   45.4660 H   0  0  0  0  0  0  0  0  0  0  0  0
   64.8151   32.7631   46.7874 H   0  0  0  0  0  0  0  0  0  0  0  0
   62.6086   33.4444   50.4424 H   0  0  0  0  0  0  0  0  0  0  0  0
   58.5178   34.0642   48.0730 H   0  0  0  0  0  0  0  0  0  0  0  0
   57.9713   35.2189   46.7879 H   0  0  0  0  0  0  0  0  0  0  0  0
   56.6069   32.9288   47.6256 H   0  0  0  0  0  0  0  0  0  0  0  0
   56.3576   33.8512   46.0711 H   0  0  0  0  0  0  0  0  0  0  0  0
  1  2  1  0
  2  3  1  0
  3  4  2  0
  4  5  1  0
  5  6  2  0
  6  7  1  0
  7  8  2  0
  8  9  1  0
  9 10  1  0
 10 11  1  0
 11 12  1  0
 12 13  1  0
 13 14  1  0
 14 15  1  0
 15 16  2  0
 16 17  1  0
 17 18  2  0
 18 19  1  0
 18 20  1  0
 20 21  2  0
 21 22  1  0
 13 23  1  0
 23 24  1  0
  8  3  1  0
 24 10  1  0
 21 15  1  0
  1 25  1  0
  1 26  1  0
  1 27  1  0
  4 28  1  0
  5 29  1  0
  6 30  1  0
  7 31  1  0
  9 32  1  0
  9 33  1  0
 10 34  1  0
 11 35  1  0
 11 36  1  0
 12 37  1  0
 12 38  1  0
 14 39  1  0
 14 40  1  0
 16 41  1  0
 17 42  1  0
 20 43  1  0
 23 44  1  0
 23 45  1  0
 24 46  1  0
 24 47  1  0
M  CHG  1  10   1
M  END
>  <UniqueID>  (11) 
9

>  <SMILES>  (11) 
COc1ccccc1C[NH+]1CCN(Cc2ccc(F)cc2F)CC1

>  <Energy>  (11) 
63.62765126232104

>  <Genealogy>  (11) 
COc1ccccc1C[NH+]1CCN(Cc2ccc(F)cc2F)CC1 (protonated)
COc1ccccc1C[NH+]1CCN(Cc2ccc(F)cc2F)CC1 (3D coordinates assigned)
COc1ccccc1C[NH+]1CCN(Cc2ccc(F)cc2F)CC1 (nonaromatic ring conformer: 63.62765126232104 kcal/mol)

>  <smiles>  (11) 
COc1ccccc1CN1CCN(Cc2ccc(F)cc2F)CC1

>  <score_type>  (11) 
oracle

>  <origin>  (11) 
adg

>  <m_score__min__energy>  (11) 
-5.9100000000000001

>  <m_primary>  (11) 
energy

$$$$
11:0
     RDKit          3D

 59 61  0  0  0  0  0  0  0  0999 V2000
   65.2690   32.5280   50.1950 C   0  0  0  0  0  0  0  0  0  0  0  0
   63.8670   32.6820   49.9950 O   0  0  0  0  0  0  0  0  0  0  0  0
   63.2730   33.0770   48.7850 C   0  0  0  0  0  0  0  0  0  0  0  0
   63.9880   33.0720   47.5710 C   0  0  0  0  0  0  0  0  0  0  0  0
   63.3650   33.4570   46.3810 C   0  0  0  0  0  0  0  0  0  0  0  0
   62.0270   33.8460   46.3860 C   0  0  0  0  0  0  0  0  0  0  0  0
   61.3060   33.8580   47.5820 C   0  0  0  0  0  0  0  0  0  0  0  0
   61.9230   33.4900   48.7890 C   0  0  0  0  0  0  0  0  0  0  0  0
   61.1110   33.4700   50.0630 C   0  0  0  0  0  0  0  0  0  0  0  0
   61.2610   32.1770   50.7450 N   0  0  0  0  0  0  0  0  0  0  0  0
   60.0100   31.4080   50.6910 C   0  0  0  0  0  0  0  0  0  0  0  0
   59.4720   31.3840   49.2840 C   0  0  0  0  0  0  0  0  0  0  0  0
   58.5450   32.3520   48.8690 C   0  0  0  0  0  0  0  0  0  0  0  0
   58.0940   32.3760   47.5470 C   0  0  0  0  0  0  0  0  0  0  0  0
   58.5730   31.4390   46.6170 C   0  0  0  0  0  0  0  0  0  0  0  0
   58.1230   31.4870   45.2060 C   0  0  0  0  0  0  0  0  0  0  0  0
   58.4980   32.5690   44.3810 C   0  0  0  0  0  0  0  0  0  0  0  0
   59.3190   33.5780   44.9130 O   0  0  0  0  0  0  0  0  0  0  0  0
   58.9090   34.9240   45.1330 C   0  0  0  0  0  0  0  0  0  0  0  0
   58.0530   32.6050   43.0470 C   0  0  0  0  0  0  0  0  0  0  0  0
   57.2590   31.5790   42.5400 C   0  0  0  0  0  0  0  0  0  0  0  0
   56.8910   30.5070   43.3510 C   0  0  0  0  0  0  0  0  0  0  0  0
   57.3110   30.4510   44.6930 C   0  0  0  0  0  0  0  0  0  0  0  0
   56.9440   29.3960   45.5490 O   0  0  0  0  0  0  0  0  0  0  0  0
   57.6710   28.1840   45.7550 C   0  0  0  0  0  0  0  0  0  0  0  0
   56.6720   27.0360   45.8890 C   0  0  0  0  0  0  0  0  0  0  0  0
   58.6180   27.9270   44.5770 C   0  0  0  0  0  0  0  0  0  0  0  0
   59.5030   30.4720   47.0330 C   0  0  0  0  0  0  0  0  0  0  0  0
   59.9540   30.4490   48.3550 C   0  0  0  0  0  0  0  0  0  0  0  0
   65.4851   32.5043   51.2733 H   0  0  0  0  0  0  0  0  0  0  0  0
   65.6042   31.5876   49.7331 H   0  0  0  0  0  0  0  0  0  0  0  0
   65.8003   33.3732   49.7331 H   0  0  0  0  0  0  0  0  0  0  0  0
   65.0436   32.7630   47.5599 H   0  0  0  0  0  0  0  0  0  0  0  0
   63.9319   33.4530   45.4384 H   0  0  0  0  0  0  0  0  0  0  0  0
   61.5380   34.1440   45.4468 H   0  0  0  0  0  0  0  0  0  0  0  0
   60.2476   34.1577   47.5788 H   0  0  0  0  0  0  0  0  0  0  0  0
   61.4602   34.2735   50.7282 H   0  0  0  0  0  0  0  0  0  0  0  0
   60.0505   33.6210   49.8130 H   0  0  0  0  0  0  0  0  0  0  0  0
   62.0230   31.6290   50.2800 H   0  0  0  0  0  0  0  0  0  0  0  0
   61.5180   32.3450   51.7470 H   0  0  0  0  0  0  0  0  0  0  0  0
   60.2028   30.3773   51.0235 H   0  0  0  0  0  0  0  0  0  0  0  0
   59.2686   31.8837   51.3498 H   0  0  0  0  0  0  0  0  0  0  0  0
   58.1715   33.0958   49.5882 H   0  0  0  0  0  0  0  0  0  0  0  0
   57.3600   33.1327   47.2329 H   0  0  0  0  0  0  0  0  0  0  0  0
   58.8501   35.1173   46.2143 H   0  0  0  0  0  0  0  0  0  0  0  0
   59.6393   35.6089   44.6773 H   0  0  0  0  0  0  0  0  0  0  0  0
   57.9209   35.0855   44.6773 H   0  0  0  0  0  0  0  0  0  0  0  0
   58.3339   33.4490   42.3999 H   0  0  0  0  0  0  0  0  0  0  0  0
   56.9206   31.6150   41.4940 H   0  0  0  0  0  0  0  0  0  0  0  0
   56.2681   29.6992   42.9394 H   0  0  0  0  0  0  0  0  0  0  0  0
   58.2760   28.2622   46.6703 H   0  0  0  0  0  0  0  0  0  0  0  0
   56.4919   26.8291   46.9543 H   0  0  0  0  0  0  0  0  0  0  0  0
   55.7248   27.3157   45.4046 H   0  0  0  0  0  0  0  0  0  0  0  0
   57.0799   26.1366   45.4046 H   0  0  0  0  0  0  0  0  0  0  0  0
   59.6135   27.6568   44.9590 H   0  0  0  0  0  0  0  0  0  0  0  0
   58.2247   27.1031   43.9634 H   0  0  0  0  0  0  0  0  0  0  0  0
   58.6952   28.8367   43.9634 H   0  0  0  0  0  0  0  0  0  0  0  0
   59.8782   29.7289   46.3140 H   0  0  0  0  0  0  0  0  0  0  0  0
   60.6903   29.6946   48.6692 H   0  0  0  0  0  0  0  0  0  0  0  0
  1  2  1  0
  2  3  1  0
  3  4  2  0
  4  5  1  0
  5  6  2  0
  6  7  1  0
  7  8  2  0
  8  9  1  0
  9 10  1  0
 10 11  1  0
 11 12  1  0
 12 13  2  0
 13 14  1  0
 14 15  2  0
 15 16  1  0
 16 17  2  0
 17 18  1  0
 18 19  1  0
 17 20  1  0
 20 21  2  0
 21 22  1  0
 22 23  2  0
 23 24  1  0
 24 25  1  0
 25 26  1  0
 25 27  1  0
 15 28  1  0
 28 29  2  0
  8  3  1  0
 29 12  1  0
 23 16  1  0
  1 30  1  0
  1 31  1  0
  1 32  1  0
  4 33  1  0
  5 34  1  0
  6 35  1  0
  7 36  1  0
  9 37  1  0
  9 38  1  0
 10 39  1  0
 10 40  1  0
 11 41  1  0
 11 42  1  0
 13 43  1  0
 14 44  1  0
 19 45  1  0
 19 46  1  0
 19 47  1  0
 20 48  1  0
 21 49  1  0
 22 50  1  0
 25 51  1  0
 26 52  1  0
 26 53  1  0
 26 54  1  0
 27 55  1  0
 27 56  1  0
 27 57  1  0
 28 58  1  0
 29 59  1  0
M  CHG  1  10   1
M  END
>  <UniqueID>  (12) 
10

>  <SMILES>  (12) 
COc1ccccc1C[NH2+]Cc1ccc(-c2c(OC)cccc2OC(C)C)cc1

>  <Energy>  (12) 
61.0061228902372

>  <Genealogy>  (12) 
COc1ccccc1C[NH2+]Cc1ccc(-c2c(OC)cccc2OC(C)C)cc1 (protonated)
COc1ccccc1C[NH2+]Cc1ccc(-c2c(OC)cccc2OC(C)C)cc1 (3D coordinates assigned)
COc1ccccc1C[NH2+]Cc1ccc(-c2c(OC)cccc2OC(C)C)cc1 (optimized conformer: 61.0061228902372 kcal/mol)

>  <smiles>  (12) 
COc1ccccc1CNCc1ccc(-c2c(OC)cccc2OC(C)C)cc1

>  <score_type>  (12) 
oracle

>  <origin>  (12) 
adg

>  <m_score__min__energy>  (12) 
-6.46

>  <m_primary>  (12) 
energy

$$$$
12:0
     RDKit          3D

 46 47  0  0  0  0  0  0  0  0999 V2000
   57.7850   27.9340   44.1970 C   0  0  0  0  0  0  0  0  0  0  0  0
   56.7210   28.0890   45.2770 C   0  0  0  0  0  0  0  0  0  0  0  0
   56.1230   29.4280   45.1990 N   0  0  0  0  0  0  0  0  0  0  0  0
   56.1630   29.9820   43.8350 C   0  0  0  0  0  0  0  0  0  0  0  0
   57.0550   31.2380   43.6990 C   0  0  0  0  0  0  0  0  0  0  0  0
   57.3990   31.8440   45.0050 N   0  0  0  0  0  0  0  0  0  0  0  0
   57.4690   33.3160   44.9260 C   0  0  0  0  0  0  0  0  0  0  0  0
   58.8850   33.8130   44.5750 C   0  0  0  0  0  0  0  0  0  0  0  0
   59.2670   35.1320   45.2620 C   0  0  0  0  0  0  0  0  0  0  0  0
   59.0800   35.0490   46.7190 N   0  0  0  0  0  0  0  0  0  0  0  0
   60.3120   34.6230   47.3960 C   0  0  0  0  0  0  0  0  0  0  0  0
   60.4290   33.1210   47.3450 C   0  0  0  0  0  0  0  0  0  0  0  0
   59.2540   32.3460   47.2200 C   0  0  0  0  0  0  0  0  0  0  0  0
   59.3750   30.9610   47.2180 C   0  0  0  0  0  0  0  0  0  0  0  0
   60.5770   30.3450   47.3350 C   0  0  0  0  0  0  0  0  0  0  0  0
   61.7610   31.0600   47.4720 C   0  0  0  0  0  0  0  0  0  0  0  0
   61.6900   32.4670   47.4860 C   0  0  0  0  0  0  0  0  0  0  0  0
   63.3250   33.4430   47.7030 Br  0  0  0  0  0  0  0  0  0  0  0  0
   60.3970   28.9760   47.3070 O   0  0  0  0  0  0  0  0  0  0  0  0
   58.9920   28.7150   47.1720 C   0  0  0  0  0  0  0  0  0  0  0  0
   58.3780   30.0110   47.1110 O   0  0  0  0  0  0  0  0  0  0  0  0
   58.7683   27.7908   44.6689 H   0  0  0  0  0  0  0  0  0  0  0  0
   57.5479   27.0609   43.5713 H   0  0  0  0  0  0  0  0  0  0  0  0
   57.8068   28.8384   43.5713 H   0  0  0  0  0  0  0  0  0  0  0  0
   55.9381   27.3305   45.1296 H   0  0  0  0  0  0  0  0  0  0  0  0
   57.1852   27.9560   46.2653 H   0  0  0  0  0  0  0  0  0  0  0  0
   56.6080   30.0710   45.8660 H   0  0  0  0  0  0  0  0  0  0  0  0
   56.5492   29.2069   43.1567 H   0  0  0  0  0  0  0  0  0  0  0  0
   55.1370   30.2880   43.5826 H   0  0  0  0  0  0  0  0  0  0  0  0
   57.9865   30.9534   43.1878 H   0  0  0  0  0  0  0  0  0  0  0  0
   56.4867   31.9863   43.1272 H   0  0  0  0  0  0  0  0  0  0  0  0
   58.2990   31.4590   45.3760 H   0  0  0  0  0  0  0  0  0  0  0  0
   56.6460   31.5920   45.6880 H   0  0  0  0  0  0  0  0  0  0  0  0
   56.7695   33.6629   44.1512 H   0  0  0  0  0  0  0  0  0  0  0  0
   57.2042   33.7204   45.9141 H   0  0  0  0  0  0  0  0  0  0  0  0
   59.6083   33.0418   44.8784 H   0  0  0  0  0  0  0  0  0  0  0  0
   58.8991   34.0005   43.4912 H   0  0  0  0  0  0  0  0  0  0  0  0
   60.3228   35.3548   45.0483 H   0  0  0  0  0  0  0  0  0  0  0  0
   58.6151   35.9279   44.8728 H   0  0  0  0  0  0  0  0  0  0  0  0
   58.3510   34.3190   46.9040 H   0  0  0  0  0  0  0  0  0  0  0  0
   61.1799   35.0743   46.8930 H   0  0  0  0  0  0  0  0  0  0  0  0
   60.2812   34.9496   48.4459 H   0  0  0  0  0  0  0  0  0  0  0  0
   58.2688   32.8263   47.1267 H   0  0  0  0  0  0  0  0  0  0  0  0
   62.7266   30.5417   47.5669 H   0  0  0  0  0  0  0  0  0  0  0  0
   58.7907   28.1480   46.2511 H   0  0  0  0  0  0  0  0  0  0  0  0
   58.6018   28.1115   48.0048 H   0  0  0  0  0  0  0  0  0  0  0  0
  1  2  1  0
  2  3  1  0
  3  4  1  0
  4  5  1  0
  5  6  1  0
  6  7  1  0
  7  8  1  0
  8  9  1  0
  9 10  1  0
 10 11  1  0
 11 12  1  0
 12 13  2  0
 13 14  1  0
 14 15  2  0
 15 16  1  0
 16 17  2  0
 17 18  1  0
 15 19  1  0
 19 20  1  0
 20 21  1  0
 17 12  1  0
 21 14  1  0
  1 22  1  0
  1 23  1  0
  1 24  1  0
  2 25  1  0
  2 26  1  0
  3 27  1  0
  4 28  1  0
  4 29  1  0
  5 30  1  0
  5 31  1  0
  6 32  1  0
  6 33  1  0
  7 34  1  0
  7 35  1  0
  8 36  1  0
  8 37  1  0
  9 38  1  0
  9 39  1  0
 10 40  1  0
 11 41  1  0
 11 42  1  0
 13 43  1  0
 16 44  1  0
 20 45  1  0
 20 46  1  0
M  CHG  1   6   1
M  END
>  <UniqueID>  (13) 
11

>  <SMILES>  (13) 
CCNCC[NH2+]CCCNCc1cc2c(cc1Br)OCO2

>  <Energy>  (13) 
68.30586874364153

>  <Genealogy>  (13) 
CCNCC[NH2+]CCCNCc1cc2c(cc1Br)OCO2 (protonated)
CCNCC[NH2+]CCCNCc1cc2c(cc1Br)OCO2 (3D coordinates assigned)
CCNCC[NH2+]CCCNCc1cc2c(cc1Br)OCO2 (nonaromatic ring conformer: 68.30586874364153 kcal/mol)

>  <smiles>  (13) 
CCNCCNCCCNCc1cc2c(cc1Br)OCO2

>  <score_type>  (13) 
oracle

>  <origin>  (13) 
adg

>  <m_score__min__energy>  (13) 
-4.7000000000000002

>  <m_primary>  (13) 
energy

$$$$
13:0
     RDKit          3D

 48 50  0  0  0  0  0  0  0  0999 V2000
   57.9517   23.7034   46.9963 H   0  0  0  0  0  0  0  0  0  0  0  0
   57.7370   24.7430   46.7080 C   0  0  0  0  0  0  0  0  0  0  0  0
   58.6210   25.7290   47.0170 N   0  0  0  0  0  0  0  0  0  0  0  0
   58.3930   27.0280   46.6800 C   0  0  0  0  0  0  0  0  0  0  0  0
   59.3290   28.0080   47.0170 C   0  0  0  0  0  0  0  0  0  0  0  0
   60.2498   27.7332   47.5523 H   0  0  0  0  0  0  0  0  0  0  0  0
   59.0870   29.3470   46.6680 C   0  0  0  0  0  0  0  0  0  0  0  0
   60.0520   30.4280   47.0000 C   0  0  0  0  0  0  0  0  0  0  0  0
   61.1280   30.2050   47.8760 C   0  0  0  0  0  0  0  0  0  0  0  0
   61.2699   29.2102   48.3234 H   0  0  0  0  0  0  0  0  0  0  0  0
   62.0180   31.2350   48.1830 C   0  0  0  0  0  0  0  0  0  0  0  0
   62.8587   31.0439   48.8661 H   0  0  0  0  0  0  0  0  0  0  0  0
   61.8490   32.5160   47.6260 C   0  0  0  0  0  0  0  0  0  0  0  0
   62.7250   33.5740   47.9110 O   0  0  0  0  0  0  0  0  0  0  0  0
   64.1450   33.4610   47.9470 C   0  0  0  0  0  0  0  0  0  0  0  0
   64.5967   34.4282   47.6814 H   0  0  0  0  0  0  0  0  0  0  0  0
   64.4703   32.6947   47.2280 H   0  0  0  0  0  0  0  0  0  0  0  0
   64.5860   33.0630   49.3460 C   0  0  0  0  0  0  0  0  0  0  0  0
   63.9837   33.6066   50.0888 H   0  0  0  0  0  0  0  0  0  0  0  0
   64.4450   31.9804   49.4808 H   0  0  0  0  0  0  0  0  0  0  0  0
   65.6485   33.3140   49.4808 H   0  0  0  0  0  0  0  0  0  0  0  0
   60.7730   32.7550   46.7590 C   0  0  0  0  0  0  0  0  0  0  0  0
   60.6260   34.0440   46.2210 O   0  0  0  0  0  0  0  0  0  0  0  0
   59.6340   34.9820   46.6270 C   0  0  0  0  0  0  0  0  0  0  0  0
   59.5934   35.0204   47.7256 H   0  0  0  0  0  0  0  0  0  0  0  0
   59.8883   35.9776   46.2345 H   0  0  0  0  0  0  0  0  0  0  0  0
   58.6542   34.6724   46.2345 H   0  0  0  0  0  0  0  0  0  0  0  0
   59.8780   31.7110   46.4520 C   0  0  0  0  0  0  0  0  0  0  0  0
   59.0324   31.9022   45.7750 H   0  0  0  0  0  0  0  0  0  0  0  0
   57.9480   29.6610   45.9910 N   0  0  0  0  0  0  0  0  0  0  0  0
   57.0120   28.7330   45.6420 C   0  0  0  0  0  0  0  0  0  0  0  0
   55.9420   29.0950   44.9950 N   0  0  0  0  0  0  0  0  0  0  0  0
   55.9530   29.7190   43.6730 C   0  0  0  0  0  0  0  0  0  0  0  0
   56.3225   28.9959   42.9310 H   0  0  0  0  0  0  0  0  0  0  0  0
   54.9314   30.0307   43.4102 H   0  0  0  0  0  0  0  0  0  0  0  0
   56.8650   30.9420   43.6860 C   0  0  0  0  0  0  0  0  0  0  0  0
   57.9150   30.6146   43.7039 H   0  0  0  0  0  0  0  0  0  0  0  0
   56.6801   31.5432   42.7836 H   0  0  0  0  0  0  0  0  0  0  0  0
   56.5970   31.7270   44.8350 O   0  0  0  0  0  0  0  0  0  0  0  0
   57.3970   32.8880   44.8400 C   0  0  0  0  0  0  0  0  0  0  0  0
   57.6030   33.1869   45.8784 H   0  0  0  0  0  0  0  0  0  0  0  0
   58.3457   32.6818   44.3228 H   0  0  0  0  0  0  0  0  0  0  0  0
   56.8665   33.7011   44.3228 H   0  0  0  0  0  0  0  0  0  0  0  0
   57.2160   27.3820   45.9860 C   0  0  0  0  0  0  0  0  0  0  0  0
   56.2960   26.3690   45.6630 C   0  0  0  0  0  0  0  0  0  0  0  0
   55.3699   26.6183   45.1243 H   0  0  0  0  0  0  0  0  0  0  0  0
   56.5580   25.0470   46.0260 C   0  0  0  0  0  0  0  0  0  0  0  0
   55.8409   24.2511   45.7765 H   0  0  0  0  0  0  0  0  0  0  0  0
  1  2  1  0
  2  3  2  0
  3  4  1  0
  4  5  1  0
  5  6  1  0
  5  7  2  0
  7  8  1  0
  8  9  2  0
  9 10  1  0
  9 11  1  0
 11 12  1  0
 11 13  2  0
 13 14  1  0
 14 15  1  0
 15 16  1  0
 15 17  1  0
 15 18  1  0
 18 19  1  0
 18 20  1  0
 18 21  1  0
 13 22  1  0
 22 23  1  0
 23 24  1  0
 24 25  1  0
 24 26  1  0
 24 27  1  0
 22 28  2  0
 28 29  1  0
  7 30  1  0
 30 31  1  0
 31 32  2  0
 32 33  1  0
 33 34  1  0
 33 35  1  0
 33 36  1  0
 36 37  1  0
 36 38  1  0
 36 39  1  0
 39 40  1  0
 40 41  1  0
 40 42  1  0
 40 43  1  0
 31 44  1  0
 44 45  1  0
 45 46  1  0
 45 47  2  0
 47 48  1  0
 47  2  1  0
 44  4  2  0
 28  8  1  0
M  CHG  1  30  -1
M  END
>  <UniqueID>  (14) 
12

>  <SMILES>  (14) 
CCOc1ccc(-c2cc3ncccc3/c(=N/CCOC)[n-]2)cc1OC

>  <Energy>  (14) 
54.04481197245569

>  <Genealogy>  (14) 
CCOc1ccc(-c2cc3ncccc3c(=NCCOC)[n-]2)cc1OC (protonated)
CCOc1ccc(-c2cc3ncccc3/c(=N/CCOC)[n-]2)cc1OC (cis-trans isomerization)
CCOc1ccc(-c2cc3ncccc3/c(=N/CCOC)[n-]2)cc1OC (3D coordinates assigned)
CCOc1ccc(-c2cc3ncccc3/c(=N/CCOC)[n-]2)cc1OC (optimized conformer: 54.04481197245569 kcal/mol)

>  <smiles>  (14) 
CCOc1ccc(-c2cc3ncccc3c(=NCCOC)[nH]2)cc1OC

>  <score_type>  (14) 
oracle

>  <origin>  (14) 
adg

>  <m_score__min__energy>  (14) 
-8.4600000000000009

>  <m_primary>  (14) 
energy

$$$$
14:0
     RDKit          3D

 63 66  0  0  0  0  0  0  0  0999 V2000
   56.0340   23.5920   47.8320 C   0  0  0  0  0  0  0  0  0  0  0  0
   57.4180   23.8300   47.6010 O   0  0  0  0  0  0  0  0  0  0  0  0
   57.9300   24.9370   46.9060 C   0  0  0  0  0  0  0  0  0  0  0  0
   58.7490   25.8960   47.5300 C   0  0  0  0  0  0  0  0  0  0  0  0
   59.2410   26.9960   46.8140 C   0  0  0  0  0  0  0  0  0  0  0  0
   58.9300   27.1310   45.4470 C   0  0  0  0  0  0  0  0  0  0  0  0
   58.1020   26.1800   44.8290 C   0  0  0  0  0  0  0  0  0  0  0  0
   57.6000   25.0830   45.5520 C   0  0  0  0  0  0  0  0  0  0  0  0
   56.7620   24.1220   44.9620 O   0  0  0  0  0  0  0  0  0  0  0  0
   57.2060   23.0800   44.0930 C   0  0  0  0  0  0  0  0  0  0  0  0
   59.4230   28.3100   44.6430 C   0  0  1  0  0  0  0  0  0  0  0  0
   58.3210   29.3390   44.4570 C   0  0  0  0  0  0  0  0  0  0  0  0
   57.0980   28.9590   43.8590 C   0  0  0  0  0  0  0  0  0  0  0  0
   56.0720   29.8930   43.6790 C   0  0  0  0  0  0  0  0  0  0  0  0
   56.2580   31.2180   44.0890 C   0  0  0  0  0  0  0  0  0  0  0  0
   57.4610   31.6070   44.6860 C   0  0  0  0  0  0  0  0  0  0  0  0
   58.4870   30.6760   44.8740 C   0  0  0  0  0  0  0  0  0  0  0  0
   60.6860   28.9290   45.2590 C   0  0  0  0  0  0  0  0  0  0  0  0
   60.5100   29.1400   46.7020 N   0  0  0  0  0  0  0  0  0  0  0  0
   60.9890   30.3400   47.3440 C   0  0  0  0  0  0  0  0  0  0  0  0
   62.2300   30.5750   47.3660 O   0  0  0  0  0  0  0  0  0  0  0  0
   60.0410   31.3040   48.0160 C   0  0  0  0  0  0  0  0  0  0  0  0
   59.8800   32.6120   47.2160 C   0  0  0  0  0  0  0  0  0  0  0  0
   60.9560   33.6890   47.5050 C   0  0  0  0  0  0  0  0  0  0  0  0
   61.9790   33.8460   46.3490 C   0  0  0  0  0  0  0  0  0  0  0  0
   63.4260   33.8800   46.8490 C   0  0  0  0  0  0  0  0  0  0  0  0
   63.6930   32.7160   47.7010 N   0  0  0  0  0  0  0  0  0  0  0  0
   62.9030   32.7150   48.9510 C   0  0  0  0  0  0  0  0  0  0  0  0
   61.6090   33.5630   48.9040 C   0  0  0  0  0  0  0  0  0  0  0  0
   60.0890   28.0120   47.5480 C   0  0  0  0  0  0  0  0  0  0  0  0
   55.8433   23.5592   48.9149 H   0  0  0  0  0  0  0  0  0  0  0  0
   55.4423   24.4016   47.3798 H   0  0  0  0  0  0  0  0  0  0  0  0
   55.7467   22.6313   47.3798 H   0  0  0  0  0  0  0  0  0  0  0  0
   59.0064   25.7810   48.5932 H   0  0  0  0  0  0  0  0  0  0  0  0
   57.8428   26.2944   43.7661 H   0  0  0  0  0  0  0  0  0  0  0  0
   57.5675   22.2316   44.6926 H   0  0  0  0  0  0  0  0  0  0  0  0
   56.3700   22.7507   43.4584 H   0  0  0  0  0  0  0  0  0  0  0  0
   58.0226   23.4548   43.4584 H   0  0  0  0  0  0  0  0  0  0  0  0
   59.7050   27.9417   43.6456 H   0  0  0  0  0  0  0  0  0  0  0  0
   56.9515   27.9190   43.5320 H   0  0  0  0  0  0  0  0  0  0  0  0
   55.1220   29.5868   43.2166 H   0  0  0  0  0  0  0  0  0  0  0  0
   55.4555   31.9556   43.9412 H   0  0  0  0  0  0  0  0  0  0  0  0
   57.6007   32.6492   45.0089 H   0  0  0  0  0  0  0  0  0  0  0  0
   59.4285   30.9879   45.3496 H   0  0  0  0  0  0  0  0  0  0  0  0
   61.5372   28.2520   45.0942 H   0  0  0  0  0  0  0  0  0  0  0  0
   60.8733   29.9012   44.7797 H   0  0  0  0  0  0  0  0  0  0  0  0
   59.0561   30.8237   48.1124 H   0  0  0  0  0  0  0  0  0  0  0  0
   60.4590   31.5588   49.0011 H   0  0  0  0  0  0  0  0  0  0  0  0
   59.9224   32.3651   46.1449 H   0  0  0  0  0  0  0  0  0  0  0  0
   58.9176   33.0463   47.5244 H   0  0  0  0  0  0  0  0  0  0  0  0
   60.4099   34.6430   47.5451 H   0  0  0  0  0  0  0  0  0  0  0  0
   61.8640   32.9977   45.6582 H   0  0  0  0  0  0  0  0  0  0  0  0
   61.7749   34.8043   45.8490 H   0  0  0  0  0  0  0  0  0  0  0  0
   64.1092   33.8642   45.9870 H   0  0  0  0  0  0  0  0  0  0  0  0
   63.5829   34.7980   47.4344 H   0  0  0  0  0  0  0  0  0  0  0  0
   63.5000   31.8390   47.1600 H   0  0  0  0  0  0  0  0  0  0  0  0
   64.7120   32.7110   47.9470 H   0  0  0  0  0  0  0  0  0  0  0  0
   62.6226   31.6757   49.1773 H   0  0  0  0  0  0  0  0  0  0  0  0
   63.5429   33.1705   49.7211 H   0  0  0  0  0  0  0  0  0  0  0  0
   60.8753   33.1029   49.5823 H   0  0  0  0  0  0  0  0  0  0  0  0
   61.8998   34.5820   49.1990 H   0  0  0  0  0  0  0  0  0  0  0  0
   60.9887   27.5061   47.9282 H   0  0  0  0  0  0  0  0  0  0  0  0
   59.4718   28.4260   48.3589 H   0  0  0  0  0  0  0  0  0  0  0  0
  1  2  1  0
  2  3  1  0
  3  4  2  0
  4  5  1  0
  5  6  2  0
  6  7  1  0
  7  8  2  0
  8  9  1  0
  9 10  1  0
  6 11  1  0
 11 12  1  0
 12 13  2  0
 13 14  1  0
 14 15  2  0
 15 16  1  0
 16 17  2  0
 11 18  1  0
 18 19  1  0
 19 20  1  0
 20 21  2  0
 20 22  1  0
 22 23  1  0
 23 24  1  0
 24 25  1  0
 25 26  1  0
 26 27  1  0
 27 28  1  0
 28 29  1  0
 19 30  1  0
  8  3  1  0
 17 12  1  0
 29 24  1  0
 30  5  1  0
  1 31  1  0
  1 32  1  0
  1 33  1  0
  4 34  1  0
  7 35  1  0
 10 36  1  0
 10 37  1  0
 10 38  1  0
 11 39  1  6
 13 40  1  0
 14 41  1  0
 15 42  1  0
 16 43  1  0
 17 44  1  0
 18 45  1  0
 18 46  1  0
 22 47  1  0
 22 48  1  0
 23 49  1  0
 23 50  1  0
 24 51  1  0
 25 52  1  0
 25 53  1  0
 26 54  1  0
 26 55  1  0
 27 56  1  0
 27 57  1  0
 28 58  1  0
 28 59  1  0
 29 60  1  0
 29 61  1  0
 30 62  1  0
 30 63  1  0
M  CHG  1  27   1
M  END
>  <UniqueID>  (15) 
13

>  <SMILES>  (15) 
COc1cc2c(cc1OC)[C@@H](c1ccccc1)CN(C(=O)CCC1CC[NH2+]CC1)C2

>  <Energy>  (15) 
75.59305379200393

>  <Genealogy>  (15) 
COc1cc2c(cc1OC)C(c1ccccc1)CN(C(=O)CCC1CC[NH2+]CC1)C2 (protonated)
COc1cc2c(cc1OC)[C@@H](c1ccccc1)CN(C(=O)CCC1CC[NH2+]CC1)C2 (chirality)
COc1cc2c(cc1OC)[C@@H](c1ccccc1)CN(C(=O)CCC1CC[NH2+]CC1)C2 (3D coordinates assigned)
COc1cc2c(cc1OC)[C@@H](c1ccccc1)CN(C(=O)CCC1CC[NH2+]CC1)C2 (nonaromatic ring conformer: 75.59305379200393 kcal/mol)

>  <smiles>  (15) 
COc1cc2c(cc1OC)C(c1ccccc1)CN(C(=O)CCC1CCNCC1)C2

>  <score_type>  (15) 
oracle

>  <origin>  (15) 
adg

>  <m_score__min__energy>  (15) 
-7.25

>  <m_primary>  (15) 
energy

$$$$
15:0
     RDKit          3D

 48 50  0  0  0  0  0  0  0  0999 V2000
   57.1330   30.4840   43.4820 C   0  0  0  0  0  0  0  0  0  0  0  0
   56.8200   30.6930   44.8560 O   0  0  0  0  0  0  0  0  0  0  0  0
   57.7710   30.8910   45.8720 C   0  0  0  0  0  0  0  0  0  0  0  0
   58.2820   29.8150   46.6210 C   0  0  0  0  0  0  0  0  0  0  0  0
   59.2290   30.0380   47.6160 C   0  0  0  0  0  0  0  0  0  0  0  0
   59.6570   31.3310   47.9020 C   0  0  0  0  0  0  0  0  0  0  0  0
   59.1240   32.4340   47.2120 C   0  0  0  0  0  0  0  0  0  0  0  0
   58.2210   32.2020   46.1400 C   0  0  0  0  0  0  0  0  0  0  0  0
   57.6970   33.3480   45.3040 C   0  0  0  0  0  0  0  0  0  0  0  0
   58.6420   34.5490   45.3220 C   0  0  0  0  0  0  0  0  0  0  0  0
   58.9160   34.9630   46.7630 C   0  0  0  0  0  0  0  0  0  0  0  0
   59.6350   33.8400   47.5380 C   0  0  1  0  0  0  0  0  0  0  0  0
   59.6420   34.1510   48.9850 N   0  0  0  0  0  0  0  0  0  0  0  0
   60.9240   33.9000   49.6640 C   0  0  0  0  0  0  0  0  0  0  0  0
   60.7350   33.0380   50.9330 C   0  0  0  0  0  0  0  0  0  0  0  0
   59.5220   32.1760   50.9800 N   0  0  0  0  0  0  0  0  0  0  0  0
   59.8420   30.7350   51.1150 C   0  0  0  0  0  0  0  0  0  0  0  0
   58.5810   29.9080   51.4430 C   0  0  0  0  0  0  0  0  0  0  0  0
   57.4120   30.5950   51.0450 O   0  0  0  0  0  0  0  0  0  0  0  0
   57.2320   31.7530   51.8430 C   0  0  0  0  0  0  0  0  0  0  0  0
   58.5240   32.5920   51.9870 C   0  0  0  0  0  0  0  0  0  0  0  0
   58.0454   29.8748   43.4023 H   0  0  0  0  0  0  0  0  0  0  0  0
   56.2989   29.9610   42.9914 H   0  0  0  0  0  0  0  0  0  0  0  0
   57.2964   31.4549   42.9914 H   0  0  0  0  0  0  0  0  0  0  0  0
   57.9311   28.7922   46.4190 H   0  0  0  0  0  0  0  0  0  0  0  0
   59.6414   29.1879   48.1793 H   0  0  0  0  0  0  0  0  0  0  0  0
   60.4211   31.4919   48.6768 H   0  0  0  0  0  0  0  0  0  0  0  0
   57.5785   33.0049   44.2656 H   0  0  0  0  0  0  0  0  0  0  0  0
   56.7343   33.6669   45.7301 H   0  0  0  0  0  0  0  0  0  0  0  0
   59.5890   34.2769   44.8330 H   0  0  0  0  0  0  0  0  0  0  0  0
   58.1768   35.3877   44.7833 H   0  0  0  0  0  0  0  0  0  0  0  0
   59.5496   35.8622   46.7638 H   0  0  0  0  0  0  0  0  0  0  0  0
   57.9541   35.1664   47.2563 H   0  0  0  0  0  0  0  0  0  0  0  0
   60.6794   33.8138   47.1936 H   0  0  0  0  0  0  0  0  0  0  0  0
   59.3820   35.1560   49.1240 H   0  0  0  0  0  0  0  0  0  0  0  0
   61.5978   33.3738   48.9718 H   0  0  0  0  0  0  0  0  0  0  0  0
   61.3497   34.8684   49.9655 H   0  0  0  0  0  0  0  0  0  0  0  0
   61.6137   32.3826   51.0249 H   0  0  0  0  0  0  0  0  0  0  0  0
   60.6111   33.7574   51.7559 H   0  0  0  0  0  0  0  0  0  0  0  0
   59.0650   32.2890   50.0420 H   0  0  0  0  0  0  0  0  0  0  0  0
   60.2715   30.3733   50.1691 H   0  0  0  0  0  0  0  0  0  0  0  0
   60.5597   30.6149   51.9399 H   0  0  0  0  0  0  0  0  0  0  0  0
   58.6324   28.9462   50.9117 H   0  0  0  0  0  0  0  0  0  0  0  0
   58.5403   29.7438   52.5299 H   0  0  0  0  0  0  0  0  0  0  0  0
   56.4557   32.3805   51.3808 H   0  0  0  0  0  0  0  0  0  0  0  0
   56.9420   31.4181   52.8499 H   0  0  0  0  0  0  0  0  0  0  0  0
   58.2838   33.6556   51.8417 H   0  0  0  0  0  0  0  0  0  0  0  0
   58.9428   32.4335   52.9917 H   0  0  0  0  0  0  0  0  0  0  0  0
  1  2  1  0
  2  3  1  0
  3  4  2  0
  4  5  1  0
  5  6  2  0
  6  7  1  0
  7  8  2  0
  8  9  1  0
  9 10  1  0
 10 11  1  0
 11 12  1  0
 12 13  1  0
 13 14  1  0
 14 15  1  0
 15 16  1  0
 16 17  1  0
 17 18  1  0
 18 19  1  0
 19 20  1  0
 20 21  1  0
  8  3  1  0
 21 16  1  0
 12  7  1  0
  1 22  1  0
  1 23  1  0
  1 24  1  0
  4 25  1  0
  5 26  1  0
  6 27  1  0
  9 28  1  0
  9 29  1  0
 10 30  1  0
 10 31  1  0
 11 32  1  0
 11 33  1  0
 12 34  1  6
 13 35  1  0
 14 36  1  0
 14 37  1  0
 15 38  1  0
 15 39  1  0
 16 40  1  0
 17 41  1  0
 17 42  1  0
 18 43  1  0
 18 44  1  0
 20 45  1  0
 20 46  1  0
 21 47  1  0
 21 48  1  0
M  CHG  1  16   1
M  END
>  <UniqueID>  (16) 
14

>  <SMILES>  (16) 
COc1cccc2c1CCC[C@H]2NCC[NH+]1CCOCC1

>  <Energy>  (16) 
66.2648630595657

>  <Genealogy>  (16) 
COc1cccc2c1CCCC2NCC[NH+]1CCOCC1 (protonated)
COc1cccc2c1CCC[C@H]2NCC[NH+]1CCOCC1 (chirality)
COc1cccc2c1CCC[C@H]2NCC[NH+]1CCOCC1 (3D coordinates assigned)
COc1cccc2c1CCC[C@H]2NCC[NH+]1CCOCC1 (nonaromatic ring conformer: 66.2648630595657 kcal/mol)

>  <smiles>  (16) 
COc1cccc2c1CCCC2NCCN1CCOCC1

>  <score_type>  (16) 
oracle

>  <origin>  (16) 
adg

>  <m_score__min__energy>  (16) 
-5.4900000000000002

>  <m_primary>  (16) 
energy

$$$$
16:0
     RDKit          3D

 49 51  0  0  0  0  0  0  0  0999 V2000
   56.3130   29.3760   42.6250 C   0  0  0  0  0  0  0  0  0  0  0  0
   56.1930   30.2030   43.9080 C   0  0  0  0  0  0  0  0  0  0  0  0
   57.2040   29.8330   44.9330 N   0  0  0  0  0  0  0  0  0  0  0  0
   57.7760   31.0220   45.6340 C   0  0  0  0  0  0  0  0  0  0  0  0
   57.4670   32.3360   44.9050 C   0  0  0  0  0  0  0  0  0  0  0  0
   58.2650   28.9630   44.3530 C   0  0  0  0  0  0  0  0  0  0  0  0
   58.9900   28.0450   45.3590 C   0  0  0  0  0  0  0  0  0  0  0  0
   58.1270   27.6820   46.4340 O   0  0  0  0  0  0  0  0  0  0  0  0
   57.3150   26.5390   46.4560 C   0  0  0  0  0  0  0  0  0  0  0  0
   57.7760   25.2990   46.9380 C   0  0  0  0  0  0  0  0  0  0  0  0
   56.9340   24.1810   46.9390 C   0  0  0  0  0  0  0  0  0  0  0  0
   57.3870   23.0250   47.4120 O   0  0  0  0  0  0  0  0  0  0  0  0
   56.6450   21.9250   47.4510 C   0  0  0  0  0  0  0  0  0  0  0  0
   57.1330   20.8600   47.9110 O   0  0  0  0  0  0  0  0  0  0  0  0
   55.3310   21.9400   46.9780 C   0  0  0  0  0  0  0  0  0  0  0  0
   54.8050   23.1270   46.4500 C   0  0  0  0  0  0  0  0  0  0  0  0
   53.4330   23.1090   45.8960 C   0  0  0  0  0  0  0  0  0  0  0  0
   53.1630   23.7090   44.6540 C   0  0  0  0  0  0  0  0  0  0  0  0
   51.8610   23.7060   44.1420 C   0  0  0  0  0  0  0  0  0  0  0  0
   50.8230   23.1160   44.8700 C   0  0  0  0  0  0  0  0  0  0  0  0
   51.0840   22.5280   46.1110 C   0  0  0  0  0  0  0  0  0  0  0  0
   52.3840   22.5240   46.6250 C   0  0  0  0  0  0  0  0  0  0  0  0
   55.6140   24.2850   46.4400 C   0  0  0  0  0  0  0  0  0  0  0  0
   55.1550   25.5330   45.9760 C   0  0  0  0  0  0  0  0  0  0  0  0
   56.0010   26.6460   45.9820 C   0  0  0  0  0  0  0  0  0  0  0  0
   55.5310   27.8670   45.5120 O   0  0  0  0  0  0  0  0  0  0  0  0
   56.4665   28.3180   42.8838 H   0  0  0  0  0  0  0  0  0  0  0  0
   55.3905   29.4790   42.0347 H   0  0  0  0  0  0  0  0  0  0  0  0
   57.1682   29.7369   42.0347 H   0  0  0  0  0  0  0  0  0  0  0  0
   56.3236   31.2653   43.6540 H   0  0  0  0  0  0  0  0  0  0  0  0
   55.2002   30.0030   44.3373 H   0  0  0  0  0  0  0  0  0  0  0  0
   56.7210   29.2240   45.6370 H   0  0  0  0  0  0  0  0  0  0  0  0
   57.3517   31.0723   46.6476 H   0  0  0  0  0  0  0  0  0  0  0  0
   58.8691   30.9021   45.6598 H   0  0  0  0  0  0  0  0  0  0  0  0
   57.2803   33.1298   45.6433 H   0  0  0  0  0  0  0  0  0  0  0  0
   58.3238   32.6158   44.2745 H   0  0  0  0  0  0  0  0  0  0  0  0
   56.5753   32.2046   44.2745 H   0  0  0  0  0  0  0  0  0  0  0  0
   57.8002   28.3261   43.5860 H   0  0  0  0  0  0  0  0  0  0  0  0
   59.0323   29.6438   43.9559 H   0  0  0  0  0  0  0  0  0  0  0  0
   59.3211   27.1334   44.8400 H   0  0  0  0  0  0  0  0  0  0  0  0
   59.8527   28.5891   45.7709 H   0  0  0  0  0  0  0  0  0  0  0  0
   58.8049   25.2083   47.3163 H   0  0  0  0  0  0  0  0  0  0  0  0
   54.7152   21.0295   47.0194 H   0  0  0  0  0  0  0  0  0  0  0  0
   53.9764   24.1815   44.0838 H   0  0  0  0  0  0  0  0  0  0  0  0
   51.6536   24.1683   43.1656 H   0  0  0  0  0  0  0  0  0  0  0  0
   49.8000   23.1146   44.4656 H   0  0  0  0  0  0  0  0  0  0  0  0
   50.2654   22.0678   46.6839 H   0  0  0  0  0  0  0  0  0  0  0  0
   52.5861   22.0618   47.6025 H   0  0  0  0  0  0  0  0  0  0  0  0
   54.1238   25.6327   45.6063 H   0  0  0  0  0  0  0  0  0  0  0  0
  1  2  1  0
  2  3  1  0
  3  4  1  0
  4  5  1  0
  3  6  1  0
  6  7  1  0
  7  8  1  0
  8  9  1  0
  9 10  2  0
 10 11  1  0
 11 12  1  0
 12 13  1  0
 13 14  2  0
 13 15  1  0
 15 16  2  0
 16 17  1  0
 17 18  2  0
 18 19  1  0
 19 20  2  0
 20 21  1  0
 21 22  2  0
 16 23  1  0
 23 24  1  0
 24 25  2  0
 25 26  1  0
 25  9  1  0
 23 11  2  0
 22 17  1  0
  1 27  1  0
  1 28  1  0
  1 29  1  0
  2 30  1  0
  2 31  1  0
  3 32  1  0
  4 33  1  0
  4 34  1  0
  5 35  1  0
  5 36  1  0
  5 37  1  0
  6 38  1  0
  6 39  1  0
  7 40  1  0
  7 41  1  0
 10 42  1  0
 15 43  1  0
 18 44  1  0
 19 45  1  0
 20 46  1  0
 21 47  1  0
 22 48  1  0
 24 49  1  0
M  CHG  2   3   1  26  -1
M  END
>  <UniqueID>  (17) 
15

>  <SMILES>  (17) 
CC[NH+](CC)CCOc1cc2oc(=O)cc(-c3ccccc3)c2cc1[O-]

>  <Energy>  (17) 
67.07278030500632

>  <Genealogy>  (17) 
CC[NH+](CC)CCOc1cc2oc(=O)cc(-c3ccccc3)c2cc1[O-] (protonated)
CC[NH+](CC)CCOc1cc2oc(=O)cc(-c3ccccc3)c2cc1[O-] (3D coordinates assigned)
CC[NH+](CC)CCOc1cc2oc(=O)cc(-c3ccccc3)c2cc1[O-] (optimized conformer: 67.07278030500632 kcal/mol)

>  <smiles>  (17) 
CCN(CC)CCOc1cc2oc(=O)cc(-c3ccccc3)c2cc1O

>  <score_type>  (17) 
oracle

>  <origin>  (17) 
adg

>  <m_score__min__energy>  (17) 
-8.9000000000000004

>  <m_primary>  (17) 
energy

$$$$
17:0
     RDKit          3D

 55 58  0  0  0  0  0  0  0  0999 V2000
   56.3980   30.0210   52.8400 C   0  0  0  0  0  0  0  0  0  0  0  0
   57.3780   29.4650   51.9700 O   0  0  0  0  0  0  0  0  0  0  0  0
   58.0980   30.2010   51.0170 C   0  0  0  0  0  0  0  0  0  0  0  0
   58.3110   31.5870   51.1350 C   0  0  0  0  0  0  0  0  0  0  0  0
   59.0350   32.2760   50.1580 C   0  0  0  0  0  0  0  0  0  0  0  0
   59.5610   31.5920   49.0500 C   0  0  0  0  0  0  0  0  0  0  0  0
   60.3200   32.3360   47.9760 C   0  0  0  0  0  0  0  0  0  0  0  0
   59.4590   32.6480   46.8090 N   0  0  2  0  0  0  0  0  0  0  0  0
   60.0170   33.7940   46.0620 C   0  0  0  0  0  0  0  0  0  0  0  0
   59.2740   34.0040   44.7280 C   0  0  0  0  0  0  0  0  0  0  0  0
   57.7440   33.7500   44.8250 C   0  0  1  0  0  0  0  0  0  0  0  0
   57.3420   32.4110   44.1490 C   0  0  0  0  0  0  0  0  0  0  0  0
   58.5040   31.4210   43.9510 C   0  0  0  0  0  0  0  0  0  0  0  0
   58.3490   30.2330   44.7880 N   0  0  0  0  0  0  0  0  0  0  0  0
   59.3740   29.5550   45.5190 C   0  0  0  0  0  0  0  0  0  0  0  0
   60.5460   29.9900   45.6690 O   0  0  0  0  0  0  0  0  0  0  0  0
   58.8590   28.2960   46.0480 C   0  0  0  0  0  0  0  0  0  0  0  0
   59.4780   27.3080   46.8110 C   0  0  0  0  0  0  0  0  0  0  0  0
   58.7190   26.1800   47.1700 C   0  0  0  0  0  0  0  0  0  0  0  0
   57.3730   26.0630   46.7630 C   0  0  0  0  0  0  0  0  0  0  0  0
   56.7700   27.0740   45.9910 C   0  0  0  0  0  0  0  0  0  0  0  0
   57.5430   28.1830   45.6490 C   0  0  0  0  0  0  0  0  0  0  0  0
   57.2130   29.3680   44.8650 C   0  0  0  0  0  0  0  0  0  0  0  0
   56.1000   29.6050   44.3250 O   0  0  0  0  0  0  0  0  0  0  0  0
   57.2750   33.8480   46.2900 C   0  0  0  0  0  0  0  0  0  0  0  0
   58.0500   32.8970   47.2290 C   0  0  0  0  0  0  0  0  0  0  0  0
   59.3460   30.2100   48.9320 C   0  0  0  0  0  0  0  0  0  0  0  0
   58.6210   29.5220   49.9100 C   0  0  0  0  0  0  0  0  0  0  0  0
   56.6969   29.8514   53.8850 H   0  0  0  0  0  0  0  0  0  0  0  0
   56.3131   31.1018   52.6537 H   0  0  0  0  0  0  0  0  0  0  0  0
   55.4267   29.5394   52.6537 H   0  0  0  0  0  0  0  0  0  0  0  0
   57.9055   32.1310   52.0008 H   0  0  0  0  0  0  0  0  0  0  0  0
   59.1937   33.3599   50.2575 H   0  0  0  0  0  0  0  0  0  0  0  0
   60.7031   33.2770   48.3976 H   0  0  0  0  0  0  0  0  0  0  0  0
   61.1434   31.6932   47.6314 H   0  0  0  0  0  0  0  0  0  0  0  0
   59.4830   31.8160   46.1730 H   0  0  0  0  0  0  0  0  0  0  0  0
   59.9198   34.7029   46.6739 H   0  0  0  0  0  0  0  0  0  0  0  0
   61.0746   33.5856   45.8429 H   0  0  0  0  0  0  0  0  0  0  0  0
   59.4347   35.0414   44.3993 H   0  0  0  0  0  0  0  0  0  0  0  0
   59.6791   33.2728   44.0130 H   0  0  0  0  0  0  0  0  0  0  0  0
   57.2211   34.5381   44.2633 H   0  0  0  0  0  0  0  0  0  0  0  0
   56.5798   31.9250   44.7759 H   0  0  0  0  0  0  0  0  0  0  0  0
   56.9742   32.6662   43.1442 H   0  0  0  0  0  0  0  0  0  0  0  0
   58.5338   31.1124   42.8956 H   0  0  0  0  0  0  0  0  0  0  0  0
   59.4379   31.9253   44.2401 H   0  0  0  0  0  0  0  0  0  0  0  0
   60.5282   27.4074   47.1229 H   0  0  0  0  0  0  0  0  0  0  0  0
   59.1781   25.3826   47.7728 H   0  0  0  0  0  0  0  0  0  0  0  0
   56.7907   25.1754   47.0510 H   0  0  0  0  0  0  0  0  0  0  0  0
   55.7218   26.9917   45.6677 H   0  0  0  0  0  0  0  0  0  0  0  0
   57.4204   34.8814   46.6377 H   0  0  0  0  0  0  0  0  0  0  0  0
   56.2155   33.5540   46.3200 H   0  0  0  0  0  0  0  0  0  0  0  0
   58.0619   33.3388   48.2363 H   0  0  0  0  0  0  0  0  0  0  0  0
   57.5320   31.9270   47.1990 H   0  0  0  0  0  0  0  0  0  0  0  0
   59.7499   29.6654   48.0658 H   0  0  0  0  0  0  0  0  0  0  0  0
   58.4603   28.4385   49.8087 H   0  0  0  0  0  0  0  0  0  0  0  0
  1  2  1  0
  2  3  1  0
  3  4  2  0
  4  5  1  0
  5  6  2  0
  6  7  1  0
  7  8  1  0
  8  9  1  0
  9 10  1  0
 10 11  1  0
 11 12  1  0
 12 13  1  0
 13 14  1  0
 14 15  1  0
 15 16  2  0
 15 17  1  0
 17 18  2  0
 18 19  1  0
 19 20  2  0
 20 21  1  0
 21 22  2  0
 22 23  1  0
 23 24  2  0
 11 25  1  0
 25 26  1  0
  6 27  1  0
 27 28  2  0
 28  3  1  0
 26  8  1  0
 23 14  1  0
 22 17  1  0
  1 29  1  0
  1 30  1  0
  1 31  1  0
  4 32  1  0
  5 33  1  0
  7 34  1  0
  7 35  1  0
  8 36  1  6
  9 37  1  0
  9 38  1  0
 10 39  1  0
 10 40  1  0
 11 41  1  6
 12 42  1  0
 12 43  1  0
 13 44  1  0
 13 45  1  0
 18 46  1  0
 19 47  1  0
 20 48  1  0
 21 49  1  0
 25 50  1  0
 25 51  1  0
 26 52  1  0
 26 53  1  0
 27 54  1  0
 28 55  1  0
M  CHG  1   8   1
M  END
>  <UniqueID>  (18) 
16

>  <SMILES>  (18) 
COc1ccc(C[NH+]2CCC(CCN3C(=O)c4ccccc4C3=O)CC2)cc1

>  <Energy>  (18) 
94.98897474106691

>  <Genealogy>  (18) 
COc1ccc(C[NH+]2CCC(CCN3C(=O)c4ccccc4C3=O)CC2)cc1 (protonated)
COc1ccc(C[NH+]2CCC(CCN3C(=O)c4ccccc4C3=O)CC2)cc1 (3D coordinates assigned)
COc1ccc(C[NH+]2CCC(CCN3C(=O)c4ccccc4C3=O)CC2)cc1 (nonaromatic ring conformer: 94.98897474106691 kcal/mol)

>  <smiles>  (18) 
COc1ccc(CN2CCC(CCN3C(=O)c4ccccc4C3=O)CC2)cc1

>  <score_type>  (18) 
oracle

>  <origin>  (18) 
adg

>  <m_score__min__energy>  (18) 
-7.4500000000000002

>  <m_primary>  (18) 
energy

$$$$
18:0
     RDKit          3D

 76 81  0  0  0  0  0  0  0  0999 V2000
   61.3610   26.4030   51.2760 H   0  0  0  0  0  0  0  0  0  0  0  0
   61.0330   26.3070   50.3200 O   0  0  0  0  0  0  0  0  0  0  0  0
   60.7730   27.4180   49.5190 C   0  0  0  0  0  0  0  0  0  0  0  0
   60.8490   28.7140   50.0430 C   0  0  0  0  0  0  0  0  0  0  0  0
   61.1265   28.8641   51.0968 H   0  0  0  0  0  0  0  0  0  0  0  0
   60.5730   29.8190   49.2300 C   0  0  0  0  0  0  0  0  0  0  0  0
   60.6219   30.8333   49.6528 H   0  0  0  0  0  0  0  0  0  0  0  0
   60.2340   29.6430   47.8780 C   0  0  0  0  0  0  0  0  0  0  0  0
   59.9470   30.7930   47.0580 N   0  0  0  0  0  0  0  0  0  0  0  0
   58.7990   30.9520   46.4190 N   0  0  0  0  0  0  0  0  0  0  0  0
   58.8230   32.1500   45.7950 C   0  0  0  0  0  0  0  0  0  0  0  0
   57.7360   32.6130   44.8410 C   0  0  0  0  0  0  0  0  0  0  0  0
   56.9650   33.7670   45.5040 C   0  0  0  0  0  0  0  0  0  0  0  0
   57.0295   33.6704   46.5978 H   0  0  0  0  0  0  0  0  0  0  0  0
   57.4038   34.7269   45.1942 H   0  0  0  0  0  0  0  0  0  0  0  0
   55.9102   33.7290   45.1942 H   0  0  0  0  0  0  0  0  0  0  0  0
   56.7600   31.4650   44.5080 C   0  0  0  0  0  0  0  0  0  0  0  0
   56.3831   31.0217   45.4415 H   0  0  0  0  0  0  0  0  0  0  0  0
   55.9163   31.8592   43.9225 H   0  0  0  0  0  0  0  0  0  0  0  0
   57.2848   30.6957   43.9225 H   0  0  0  0  0  0  0  0  0  0  0  0
   58.3720   33.1130   43.5290 C   0  0  0  0  0  0  0  0  0  0  0  0
   59.2173   33.7775   43.7612 H   0  0  0  0  0  0  0  0  0  0  0  0
   58.7314   32.2531   42.9447 H   0  0  0  0  0  0  0  0  0  0  0  0
   57.6212   33.6652   42.9447 H   0  0  0  0  0  0  0  0  0  0  0  0
   60.0390   32.7750   46.0380 C   0  0  0  0  0  0  0  0  0  0  0  0
   60.3782   33.7585   45.6808 H   0  0  0  0  0  0  0  0  0  0  0  0
   60.7250   31.8750   46.8330 C   0  0  0  0  0  0  0  0  0  0  0  0
   61.9120   32.0340   47.3450 N   0  0  0  0  0  0  0  0  0  0  0  0
   62.7170   33.2230   47.3550 C   0  0  0  0  0  0  0  0  0  0  0  0
   62.8240   33.8870   46.2900 O   0  0  0  0  0  0  0  0  0  0  0  0
   63.3620   33.7240   48.5360 N   0  0  0  0  0  0  0  0  0  0  0  0
   63.9320   32.9970   49.6370 C   0  0  0  0  0  0  0  0  0  0  0  0
   65.2870   32.6700   49.5420 C   0  0  0  0  0  0  0  0  0  0  0  0
   65.8808   33.0590   48.7017 H   0  0  0  0  0  0  0  0  0  0  0  0
   65.8950   31.8610   50.4930 C   0  0  0  0  0  0  0  0  0  0  0  0
   66.9658   31.6254   50.4044 H   0  0  0  0  0  0  0  0  0  0  0  0
   65.1570   31.3430   51.5630 C   0  0  0  0  0  0  0  0  0  0  0  0
   65.7730   30.4910   52.4880 O   0  0  0  0  0  0  0  0  0  0  0  0
   66.2120   29.2140   52.1320 C   0  0  0  0  0  0  0  0  0  0  0  0
   67.5450   29.0340   51.7500 C   0  0  0  0  0  0  0  0  0  0  0  0
   68.2397   29.8869   51.7485 H   0  0  0  0  0  0  0  0  0  0  0  0
   67.9890   27.7680   51.3710 C   0  0  0  0  0  0  0  0  0  0  0  0
   69.0396   27.6195   51.0808 H   0  0  0  0  0  0  0  0  0  0  0  0
   67.1280   26.7170   51.3590 N   0  0  0  0  0  0  0  0  0  0  0  0
   65.8230   26.8560   51.7160 C   0  0  0  0  0  0  0  0  0  0  0  0
   64.9680   25.7510   51.6570 C   0  0  0  0  0  0  0  0  0  0  0  0
   65.3592   24.7734   51.3387 H   0  0  0  0  0  0  0  0  0  0  0  0
   63.6120   25.8820   52.0020 C   0  0  0  0  0  0  0  0  0  0  0  0
   62.7240   24.7930   51.9390 O   0  0  0  0  0  0  0  0  0  0  0  0
   62.2350   24.0850   53.0700 C   0  0  0  0  0  0  0  0  0  0  0  0
   62.5779   24.5815   53.9898 H   0  0  0  0  0  0  0  0  0  0  0  0
   61.1353   24.0732   53.0478 H   0  0  0  0  0  0  0  0  0  0  0  0
   62.6133   23.0523   53.0478 H   0  0  0  0  0  0  0  0  0  0  0  0
   63.1170   27.1290   52.4160 C   0  0  0  0  0  0  0  0  0  0  0  0
   61.7540   27.2210   52.7360 O   0  0  0  0  0  0  0  0  0  0  0  0
   61.1860   28.2410   53.5470 C   0  0  0  0  0  0  0  0  0  0  0  0
   61.3274   27.9872   54.6079 H   0  0  0  0  0  0  0  0  0  0  0  0
   61.6802   29.1995   53.3303 H   0  0  0  0  0  0  0  0  0  0  0  0
   60.1109   28.3256   53.3303 H   0  0  0  0  0  0  0  0  0  0  0  0
   63.9790   28.2420   52.4850 C   0  0  0  0  0  0  0  0  0  0  0  0
   63.5909   29.2156   52.8189 H   0  0  0  0  0  0  0  0  0  0  0  0
   65.3320   28.1130   52.1290 C   0  0  0  0  0  0  0  0  0  0  0  0
   63.7970   31.6860   51.7010 C   0  0  0  0  0  0  0  0  0  0  0  0
   63.0380   31.1890   52.7780 C   0  0  0  0  0  0  0  0  0  0  0  0
   63.4835   30.4590   53.4698 H   0  0  0  0  0  0  0  0  0  0  0  0
   61.7240   31.6170   52.9730 C   0  0  0  0  0  0  0  0  0  0  0  0
   61.1300   31.2067   53.8029 H   0  0  0  0  0  0  0  0  0  0  0  0
   61.1640   32.5630   52.1180 C   0  0  0  0  0  0  0  0  0  0  0  0
   60.1440   32.9315   52.3018 H   0  0  0  0  0  0  0  0  0  0  0  0
   61.8920   33.0460   51.0280 C   0  0  0  0  0  0  0  0  0  0  0  0
   61.4430   33.7993   50.3639 H   0  0  0  0  0  0  0  0  0  0  0  0
   63.1950   32.5780   50.7710 C   0  0  0  0  0  0  0  0  0  0  0  0
   60.1550   28.3380   47.3610 C   0  0  0  0  0  0  0  0  0  0  0  0
   59.8799   28.1834   46.3072 H   0  0  0  0  0  0  0  0  0  0  0  0
   60.4240   27.2350   48.1780 C   0  0  0  0  0  0  0  0  0  0  0  0
   60.3606   26.2183   47.7630 H   0  0  0  0  0  0  0  0  0  0  0  0
  1  2  1  0
  2  3  1  0
  3  4  2  0
  4  5  1  0
  4  6  1  0
  6  7  1  0
  6  8  2  0
  8  9  1  0
  9 10  1  0
 10 11  1  0
 11 12  1  0
 12 13  1  0
 13 14  1  0
 13 15  1  0
 13 16  1  0
 12 17  1  0
 17 18  1  0
 17 19  1  0
 17 20  1  0
 12 21  1  0
 21 22  1  0
 21 23  1  0
 21 24  1  0
 11 25  2  0
 25 26  1  0
 25 27  1  0
 27 28  2  0
 28 29  1  0
 29 30  2  0
 29 31  1  0
 31 32  1  0
 32 33  2  0
 33 34  1  0
 33 35  1  0
 35 36  1  0
 35 37  2  0
 37 38  1  0
 38 39  1  0
 39 40  2  0
 40 41  1  0
 40 42  1  0
 42 43  1  0
 42 44  2  0
 44 45  1  0
 45 46  2  0
 46 47  1  0
 46 48  1  0
 48 49  1  0
 49 50  1  0
 50 51  1  0
 50 52  1  0
 50 53  1  0
 48 54  2  0
 54 55  1  0
 55 56  1  0
 56 57  1  0
 56 58  1  0
 56 59  1  0
 54 60  1  0
 60 61  1  0
 60 62  2  0
 37 63  1  0
 63 64  2  0
 64 65  1  0
 64 66  1  0
 66 67  1  0
 66 68  2  0
 68 69  1  0
 68 70  1  0
 70 71  1  0
 70 72  2  0
  8 73  1  0
 73 74  1  0
 73 75  2  0
 75 76  1  0
 75  3  1  0
 27  9  1  0
 72 32  1  0
 62 39  1  0
 72 63  1  0
 62 45  1  0
M  CHG  2  10  -1  31  -1
M  END
>  <UniqueID>  (19) 
17

>  <SMILES>  (19) 
COc1cc2nccc(Oc3ccc([N-]C(=O)/N=c4\cc(C(C)(C)C)[n-]n4-c4ccc(O)cc4)c4ccccc34)c2cc1OC

>  <Energy>  (19) 
143.56971061689745

>  <Genealogy>  (19) 
COc1cc2nccc(Oc3ccc([N-]C(=O)N=c4cc(C(C)(C)C)[n-]n4-c4ccc(O)cc4)c4ccccc34)c2cc1OC (protonated)
COc1cc2nccc(Oc3ccc([N-]C(=O)/N=c4\cc(C(C)(C)C)[n-]n4-c4ccc(O)cc4)c4ccccc34)c2cc1OC (cis-trans isomerization)
COc1cc2nccc(Oc3ccc([N-]C(=O)/N=c4\cc(C(C)(C)C)[n-]n4-c4ccc(O)cc4)c4ccccc34)c2cc1OC (3D coordinates assigned)
COc1cc2nccc(Oc3ccc([N-]C(=O)/N=c4\cc(C(C)(C)C)[n-]n4-c4ccc(O)cc4)c4ccccc34)c2cc1OC (optimized conformer: 143.56971061689745 kcal/mol)

>  <smiles>  (19) 
COc1cc2nccc(Oc3ccc(NC(=O)N=c4cc(C(C)(C)C)[nH]n4-c4ccc(O)cc4)c4ccccc34)c2cc1OC

>  <score_type>  (19) 
oracle

>  <origin>  (19) 
adg

>  <m_score__min__energy>  (19) 
-11.140000000000001

>  <m_primary>  (19) 
energy

$$$$
19:0
     RDKit          3D

 41 43  0  0  0  0  0  0  0  0999 V2000
   59.2290   34.9830   45.2780 C   0  0  0  0  0  0  0  0  0  0  0  0
   58.8720   33.6650   45.9650 C   0  0  1  0  0  0  0  0  0  0  0  0
   57.3990   33.5400   46.3470 C   0  0  0  0  0  0  0  0  0  0  0  0
   57.9510   32.7430   45.1650 C   0  0  2  0  0  0  0  0  0  0  0  0
   57.9890   31.2650   45.3530 N   0  0  2  0  0  0  0  0  0  0  0  0
   59.3950   30.7980   45.4540 C   0  0  0  0  0  0  0  0  0  0  0  0
   59.5560   29.6060   46.3750 C   0  0  0  0  0  0  0  0  0  0  0  0
   60.2340   28.4510   45.9460 C   0  0  0  0  0  0  0  0  0  0  0  0
   60.3880   27.3600   46.8070 C   0  0  0  0  0  0  0  0  0  0  0  0
   59.8810   27.4170   48.1080 C   0  0  0  0  0  0  0  0  0  0  0  0
   60.0340   26.3590   48.9410 F   0  0  0  0  0  0  0  0  0  0  0  0
   59.2290   28.5690   48.5520 C   0  0  0  0  0  0  0  0  0  0  0  0
   59.0720   29.6620   47.6940 C   0  0  0  0  0  0  0  0  0  0  0  0
   57.0070   30.2510   44.2900 S   0  0  0  0  0  0  0  0  0  0  0  0
   57.2770   30.6540   42.8660 O   0  0  0  0  0  0  0  0  0  0  0  0
   55.5530   30.5270   44.5540 O   0  0  0  0  0  0  0  0  0  0  0  0
   57.2460   28.5000   44.4540 C   0  0  0  0  0  0  0  0  0  0  0  0
   57.9260   27.7810   43.4600 C   0  0  0  0  0  0  0  0  0  0  0  0
   58.1320   26.4050   43.5940 C   0  0  0  0  0  0  0  0  0  0  0  0
   57.6830   25.7360   44.7370 C   0  0  0  0  0  0  0  0  0  0  0  0
   57.9450   24.0110   44.9060 Cl  0  0  0  0  0  0  0  0  0  0  0  0
   57.0440   26.4520   45.7540 C   0  0  0  0  0  0  0  0  0  0  0  0
   56.8390   27.8280   45.6200 C   0  0  0  0  0  0  0  0  0  0  0  0
   59.4365   35.7491   46.0397 H   0  0  0  0  0  0  0  0  0  0  0  0
   60.1206   34.8394   44.6500 H   0  0  0  0  0  0  0  0  0  0  0  0
   58.3868   35.3090   44.6500 H   0  0  0  0  0  0  0  0  0  0  0  0
   59.8326   33.5372   46.4854 H   0  0  0  0  0  0  0  0  0  0  0  0
   57.1135   33.0217   47.2743 H   0  0  0  0  0  0  0  0  0  0  0  0
   56.5694   34.2485   46.4873 H   0  0  0  0  0  0  0  0  0  0  0  0
   57.7491   32.6426   44.0883 H   0  0  0  0  0  0  0  0  0  0  0  0
   57.5490   31.1340   46.2920 H   0  0  0  0  0  0  0  0  0  0  0  0
   59.7438   30.5152   44.4498 H   0  0  0  0  0  0  0  0  0  0  0  0
   59.9873   31.6233   45.8760 H   0  0  0  0  0  0  0  0  0  0  0  0
   60.6457   28.4055   44.9270 H   0  0  0  0  0  0  0  0  0  0  0  0
   60.9090   26.4556   46.4597 H   0  0  0  0  0  0  0  0  0  0  0  0
   58.8379   28.6169   49.5790 H   0  0  0  0  0  0  0  0  0  0  0  0
   58.5669   30.5709   48.0530 H   0  0  0  0  0  0  0  0  0  0  0  0
   58.3002   28.3043   42.5677 H   0  0  0  0  0  0  0  0  0  0  0  0
   58.6483   25.8473   42.7988 H   0  0  0  0  0  0  0  0  0  0  0  0
   56.7022   25.9315   46.6608 H   0  0  0  0  0  0  0  0  0  0  0  0
   56.3555   28.3895   46.4330 H   0  0  0  0  0  0  0  0  0  0  0  0
  1  2  1  0
  2  3  1  0
  3  4  1  0
  4  5  1  0
  5  6  1  0
  6  7  1  0
  7  8  2  0
  8  9  1  0
  9 10  2  0
 10 11  1  0
 10 12  1  0
 12 13  2  0
  5 14  1  0
 14 15  2  0
 14 16  2  0
 14 17  1  0
 17 18  2  0
 18 19  1  0
 19 20  2  0
 20 21  1  0
 20 22  1  0
 22 23  2  0
  4  2  1  0
 13  7  1  0
 23 17  1  0
  1 24  1  0
  1 25  1  0
  1 26  1  0
  2 27  1  1
  3 28  1  0
  3 29  1  0
  4 30  1  6
  5 31  1  1
  6 32  1  0
  6 33  1  0
  8 34  1  0
  9 35  1  0
 12 36  1  0
 13 37  1  0
 18 38  1  0
 19 39  1  0
 22 40  1  0
 23 41  1  0
M  CHG  1   5   1
M  END
>  <UniqueID>  (20) 
18

>  <SMILES>  (20) 
C[C@H]1C[C@@H]1[NH+](Cc1ccc(F)cc1)S(=O)(=O)c1ccc(Cl)cc1

>  <Energy>  (20) 
323.00214097567556

>  <Genealogy>  (20) 
CC1CC1[NH+](Cc1ccc(F)cc1)S(=O)(=O)c1ccc(Cl)cc1 (protonated)
C[C@H]1C[C@@H]1[NH+](Cc1ccc(F)cc1)S(=O)(=O)c1ccc(Cl)cc1 (chirality)
C[C@H]1C[C@@H]1[NH+](Cc1ccc(F)cc1)S(=O)(=O)c1ccc(Cl)cc1 (3D coordinates assigned)
C[C@H]1C[C@@H]1[NH+](Cc1ccc(F)cc1)S(=O)(=O)c1ccc(Cl)cc1 (nonaromatic ring conformer: 323.00214097567556 kcal/mol)

>  <smiles>  (20) 
CC1CC1N(Cc1ccc(F)cc1)S(=O)(=O)c1ccc(Cl)cc1

>  <score_type>  (20) 
oracle

>  <origin>  (20) 
adg

>  <m_score__min__energy>  (20) 
-6.4699999999999998

>  <m_primary>  (20) 
energy

$$$$
20:0
     RDKit          3D

 55 58  0  0  0  0  0  0  0  0999 V2000
   59.2193   26.4184   47.3625 H   0  0  0  0  0  0  0  0  0  0  0  0
   58.3740   26.8620   46.8160 C   0  0  0  0  0  0  0  0  0  0  0  0
   57.1930   26.1990   46.7400 N   0  0  0  0  0  0  0  0  0  0  0  0
   56.1340   26.7280   46.0670 C   0  0  0  0  0  0  0  0  0  0  0  0
   55.0040   26.0910   45.9920 N   0  0  0  0  0  0  0  0  0  0  0  0
   54.8820   24.6860   45.6180 C   0  0  0  0  0  0  0  0  0  0  0  0
   54.8283   24.0681   46.5265 H   0  0  0  0  0  0  0  0  0  0  0  0
   53.9681   24.5430   45.0228 H   0  0  0  0  0  0  0  0  0  0  0  0
   55.7576   24.3876   45.0228 H   0  0  0  0  0  0  0  0  0  0  0  0
   56.2580   27.9390   45.4630 N   0  0  0  0  0  0  0  0  0  0  0  0
   57.4180   28.6490   45.5160 C   0  0  0  0  0  0  0  0  0  0  0  0
   57.4990   29.9630   44.8240 C   0  0  0  0  0  0  0  0  0  0  0  0
   57.2820   30.0350   43.4360 C   0  0  0  0  0  0  0  0  0  0  0  0
   57.0426   29.1207   42.8732 H   0  0  0  0  0  0  0  0  0  0  0  0
   57.3680   31.2570   42.7670 C   0  0  0  0  0  0  0  0  0  0  0  0
   57.1925   31.3019   41.6820 H   0  0  0  0  0  0  0  0  0  0  0  0
   57.6760   32.4220   43.4710 C   0  0  0  0  0  0  0  0  0  0  0  0
   57.7463   33.3817   42.9381 H   0  0  0  0  0  0  0  0  0  0  0  0
   57.8960   32.3740   44.8540 C   0  0  0  0  0  0  0  0  0  0  0  0
   58.2800   33.6280   45.5960 C   0  0  0  0  0  0  0  0  0  0  0  0
   58.7148   34.3480   44.8871 H   0  0  0  0  0  0  0  0  0  0  0  0
   57.3794   34.0504   46.0656 H   0  0  0  0  0  0  0  0  0  0  0  0
   59.2730   33.3280   46.6550 N   0  0  0  0  0  0  0  0  0  0  0  0
   58.6480   32.9150   47.9350 C   0  0  0  0  0  0  0  0  0  0  0  0
   58.8012   33.7086   48.6811 H   0  0  0  0  0  0  0  0  0  0  0  0
   57.5750   32.7479   47.7596 H   0  0  0  0  0  0  0  0  0  0  0  0
   59.2510   31.6340   48.4500 C   0  0  0  0  0  0  0  0  0  0  0  0
   58.8520   31.1020   49.6880 C   0  0  0  0  0  0  0  0  0  0  0  0
   58.1099   31.6359   50.2997 H   0  0  0  0  0  0  0  0  0  0  0  0
   59.3940   29.8970   50.1460 C   0  0  0  0  0  0  0  0  0  0  0  0
   59.0722   29.4815   51.1123 H   0  0  0  0  0  0  0  0  0  0  0  0
   60.3450   29.2200   49.3760 C   0  0  0  0  0  0  0  0  0  0  0  0
   60.7633   28.2671   49.7322 H   0  0  0  0  0  0  0  0  0  0  0  0
   60.7640   29.7530   48.1550 C   0  0  0  0  0  0  0  0  0  0  0  0
   61.5172   29.2229   47.5537 H   0  0  0  0  0  0  0  0  0  0  0  0
   60.2270   30.9600   47.6960 C   0  0  0  0  0  0  0  0  0  0  0  0
   60.5700   31.3837   46.7406 H   0  0  0  0  0  0  0  0  0  0  0  0
   60.2350   34.4410   46.8440 C   0  0  0  0  0  0  0  0  0  0  0  0
   60.4703   34.8690   45.8584 H   0  0  0  0  0  0  0  0  0  0  0  0
   59.7569   35.1719   47.5128 H   0  0  0  0  0  0  0  0  0  0  0  0
   61.5320   34.0140   47.5040 C   0  0  0  0  0  0  0  0  0  0  0  0
   62.5920   33.5090   46.7310 C   0  0  0  0  0  0  0  0  0  0  0  0
   62.4843   33.4321   45.6390 H   0  0  0  0  0  0  0  0  0  0  0  0
   63.7820   33.1040   47.3420 C   0  0  0  0  0  0  0  0  0  0  0  0
   64.6054   32.7059   46.7308 H   0  0  0  0  0  0  0  0  0  0  0  0
   63.9270   33.2040   48.7270 C   0  0  0  0  0  0  0  0  0  0  0  0
   64.8625   32.8804   49.2067 H   0  0  0  0  0  0  0  0  0  0  0  0
   62.8840   33.7150   49.5040 C   0  0  0  0  0  0  0  0  0  0  0  0
   63.0008   33.7974   50.5947 H   0  0  0  0  0  0  0  0  0  0  0  0
   61.6910   34.1220   48.8960 C   0  0  0  0  0  0  0  0  0  0  0  0
   60.8741   34.5283   49.5105 H   0  0  0  0  0  0  0  0  0  0  0  0
   57.7860   31.1480   45.5290 C   0  0  0  0  0  0  0  0  0  0  0  0
   57.9254   31.1125   46.6196 H   0  0  0  0  0  0  0  0  0  0  0  0
   58.5170   28.1050   46.2020 C   0  0  0  0  0  0  0  0  0  0  0  0
   59.4714   28.6494   46.2534 H   0  0  0  0  0  0  0  0  0  0  0  0
  1  2  1  0
  2  3  1  0
  3  4  1  0
  4  5  2  0
  5  6  1  0
  6  7  1  0
  6  8  1  0
  6  9  1  0
  4 10  1  0
 10 11  2  0
 11 12  1  0
 12 13  2  0
 13 14  1  0
 13 15  1  0
 15 16  1  0
 15 17  2  0
 17 18  1  0
 17 19  1  0
 19 20  1  0
 20 21  1  0
 20 22  1  0
 20 23  1  0
 23 24  1  0
 24 25  1  0
 24 26  1  0
 24 27  1  0
 27 28  2  0
 28 29  1  0
 28 30  1  0
 30 31  1  0
 30 32  2  0
 32 33  1  0
 32 34  1  0
 34 35  1  0
 34 36  2  0
 36 37  1  0
 23 38  1  0
 38 39  1  0
 38 40  1  0
 38 41  1  0
 41 42  2  0
 42 43  1  0
 42 44  1  0
 44 45  1  0
 44 46  2  0
 46 47  1  0
 46 48  1  0
 48 49  1  0
 48 50  2  0
 50 51  1  0
 19 52  2  0
 52 53  1  0
 11 54  1  0
 54 55  1  0
 54  2  2  0
 52 12  1  0
 36 27  1  0
 50 41  1  0
M  CHG  1   3  -1
M  END
>  <UniqueID>  (21) 
19

>  <SMILES>  (21) 
C/N=c1/nc(-c2cccc(CN(Cc3ccccc3)Cc3ccccc3)c2)cc[n-]1

>  <Energy>  (21) 
62.68356012501651

>  <Genealogy>  (21) 
CN=c1nc(-c2cccc(CN(Cc3ccccc3)Cc3ccccc3)c2)cc[n-]1 (protonated)
C/N=c1/nc(-c2cccc(CN(Cc3ccccc3)Cc3ccccc3)c2)cc[n-]1 (cis-trans isomerization)
C/N=c1/nc(-c2cccc(CN(Cc3ccccc3)Cc3ccccc3)c2)cc[n-]1 (3D coordinates assigned)
C/N=c1/nc(-c2cccc(CN(Cc3ccccc3)Cc3ccccc3)c2)cc[n-]1 (optimized conformer: 62.68356012501651 kcal/mol)

>  <smiles>  (21) 
CN=c1nc(-c2cccc(CN(Cc3ccccc3)Cc3ccccc3)c2)cc[nH]1

>  <score_type>  (21) 
oracle

>  <origin>  (21) 
adg

>  <m_score__min__energy>  (21) 
-11.51

>  <m_primary>  (21) 
energy

$$$$
21:0
     RDKit          3D

 49 50  0  0  0  0  0  0  0  0999 V2000
   57.6868   33.9420   45.7462 H   0  0  0  0  0  0  0  0  0  0  0  0
   58.0580   32.9080   45.6900 C   0  0  0  0  0  0  0  0  0  0  0  0
   58.9580   32.5210   46.6190 C   0  0  0  0  0  0  0  0  0  0  0  0
   59.6500   33.5270   47.4580 C   0  0  0  0  0  0  0  0  0  0  0  0
   60.2050   34.5350   46.9370 O   0  0  0  0  0  0  0  0  0  0  0  0
   59.6880   33.3420   48.8430 O   0  0  0  0  0  0  0  0  0  0  0  0
   60.4640   34.1470   49.7230 C   0  0  0  0  0  0  0  0  0  0  0  0
   60.0102   34.1367   50.7250 H   0  0  0  0  0  0  0  0  0  0  0  0
   60.4943   35.1791   49.3438 H   0  0  0  0  0  0  0  0  0  0  0  0
   61.8930   33.5900   49.8030 C   0  0  0  0  0  0  0  0  0  0  0  0
   61.9224   32.8075   50.5755 H   0  0  0  0  0  0  0  0  0  0  0  0
   62.5621   34.4287   50.0458 H   0  0  0  0  0  0  0  0  0  0  0  0
   62.3570   33.0050   48.5160 N   0  0  0  0  0  0  0  0  0  0  0  0
   61.5330   32.9800   47.8690 H   0  0  0  0  0  0  0  0  0  0  0  0
   62.7700   31.5950   48.7330 C   0  0  0  0  0  0  0  0  0  0  0  0
   63.8176   31.5801   49.0682 H   0  0  0  0  0  0  0  0  0  0  0  0
   62.6470   31.0563   47.7819 H   0  0  0  0  0  0  0  0  0  0  0  0
   61.9030   30.8940   49.7880 C   0  0  0  0  0  0  0  0  0  0  0  0
   62.2502   31.1747   50.7933 H   0  0  0  0  0  0  0  0  0  0  0  0
   60.8541   31.2009   49.6634 H   0  0  0  0  0  0  0  0  0  0  0  0
   61.9834   29.8040   49.6634 H   0  0  0  0  0  0  0  0  0  0  0  0
   63.4700   33.8090   47.9210 C   0  0  0  0  0  0  0  0  0  0  0  0
   63.4251   34.8315   48.3241 H   0  0  0  0  0  0  0  0  0  0  0  0
   64.4207   33.3213   48.1825 H   0  0  0  0  0  0  0  0  0  0  0  0
   63.3740   33.8740   46.3950 C   0  0  0  0  0  0  0  0  0  0  0  0
   62.4947   34.4694   46.1080 H   0  0  0  0  0  0  0  0  0  0  0  0
   64.2827   34.3434   45.9901 H   0  0  0  0  0  0  0  0  0  0  0  0
   63.2756   32.8560   45.9901 H   0  0  0  0  0  0  0  0  0  0  0  0
   59.2600   31.0950   46.8860 C   0  0  0  0  0  0  0  0  0  0  0  0
   58.8860   30.5040   48.1040 C   0  0  0  0  0  0  0  0  0  0  0  0
   58.3272   31.0894   48.8490 H   0  0  0  0  0  0  0  0  0  0  0  0
   59.2220   29.1740   48.3720 C   0  0  0  0  0  0  0  0  0  0  0  0
   58.9183   28.7120   49.3230 H   0  0  0  0  0  0  0  0  0  0  0  0
   59.9440   28.4290   47.4330 C   0  0  0  0  0  0  0  0  0  0  0  0
   60.3760   26.7640   47.7770 Cl  0  0  0  0  0  0  0  0  0  0  0  0
   60.3250   29.0150   46.2220 C   0  0  0  0  0  0  0  0  0  0  0  0
   60.8937   28.4307   45.4837 H   0  0  0  0  0  0  0  0  0  0  0  0
   59.9840   30.3420   45.9490 C   0  0  0  0  0  0  0  0  0  0  0  0
   60.2846   30.7989   44.9946 H   0  0  0  0  0  0  0  0  0  0  0  0
   57.5290   32.0530   44.6000 C   0  0  0  0  0  0  0  0  0  0  0  0
   56.7950   30.9370   44.8720 N   0  0  0  0  0  0  0  0  0  0  0  0
   56.3260   30.1230   43.8900 C   0  0  0  0  0  0  0  0  0  0  0  0
   55.7279   29.2369   44.1491 H   0  0  0  0  0  0  0  0  0  0  0  0
   56.6030   30.4110   42.5530 C   0  0  0  0  0  0  0  0  0  0  0  0
   56.2222   29.7592   41.7529 H   0  0  0  0  0  0  0  0  0  0  0  0
   57.3690   31.5360   42.2430 C   0  0  0  0  0  0  0  0  0  0  0  0
   57.6003   31.7728   41.1940 H   0  0  0  0  0  0  0  0  0  0  0  0
   57.8410   32.3600   43.2660 C   0  0  0  0  0  0  0  0  0  0  0  0
   58.4526   33.2430   43.0289 H   0  0  0  0  0  0  0  0  0  0  0  0
  1  2  1  0
  2  3  2  0
  3  4  1  0
  4  5  2  0
  4  6  1  0
  6  7  1  0
  7  8  1  0
  7  9  1  0
  7 10  1  0
 10 11  1  0
 10 12  1  0
 10 13  1  0
 13 14  1  0
 13 15  1  0
 15 16  1  0
 15 17  1  0
 15 18  1  0
 18 19  1  0
 18 20  1  0
 18 21  1  0
 13 22  1  0
 22 23  1  0
 22 24  1  0
 22 25  1  0
 25 26  1  0
 25 27  1  0
 25 28  1  0
  3 29  1  0
 29 30  2  0
 30 31  1  0
 30 32  1  0
 32 33  1  0
 32 34  2  0
 34 35  1  0
 34 36  1  0
 36 37  1  0
 36 38  2  0
 38 39  1  0
  2 40  1  0
 40 41  2  0
 41 42  1  0
 42 43  1  0
 42 44  2  0
 44 45  1  0
 44 46  1  0
 46 47  1  0
 46 48  2  0
 48 49  1  0
 38 29  1  0
 48 40  1  0
M  CHG  1  13   1
M  END
>  <UniqueID>  (22) 
20

>  <SMILES>  (22) 
CC[NH+](CC)CCOC(=O)/C(=C/c1ccccn1)c1ccc(Cl)cc1

>  <Energy>  (22) 
55.98117396770203

>  <Genealogy>  (22) 
CC[NH+](CC)CCOC(=O)C(=Cc1ccccn1)c1ccc(Cl)cc1 (protonated)
CC[NH+](CC)CCOC(=O)/C(=C/c1ccccn1)c1ccc(Cl)cc1 (cis-trans isomerization)
CC[NH+](CC)CCOC(=O)/C(=C/c1ccccn1)c1ccc(Cl)cc1 (3D coordinates assigned)
CC[NH+](CC)CCOC(=O)/C(=C/c1ccccn1)c1ccc(Cl)cc1 (optimized conformer: 55.98117396770203 kcal/mol)

>  <smiles>  (22) 
CCN(CC)CCOC(=O)C(=Cc1ccccn1)c1ccc(Cl)cc1

>  <score_type>  (22) 
oracle

>  <origin>  (22) 
adg

>  <m_score__min__energy>  (22) 
-6.3399999999999999

>  <m_primary>  (22) 
energy

$$$$
22:0
     RDKit          3D

 40 40  0  0  0  0  0  0  0  0999 V2000
   60.0610   33.8630   49.8740 C   0  0  0  0  0  0  0  0  0  0  0  0
   61.2750   34.1970   49.0090 C   0  0  0  0  0  0  0  0  0  0  0  0
   61.0700   33.7990   47.5990 N   0  0  0  0  0  0  0  0  0  0  0  0
   62.2930   33.8370   46.7610 C   0  0  0  0  0  0  0  0  0  0  0  0
   63.4820   33.0480   47.3340 C   0  0  0  0  0  0  0  0  0  0  0  0
   59.8540   34.3400   46.9400 C   0  0  0  0  0  0  0  0  0  0  0  0
   59.1780   33.3660   46.0040 C   0  0  0  0  0  0  0  0  0  0  0  0
   58.3980   33.8380   44.9360 C   0  0  0  0  0  0  0  0  0  0  0  0
   57.7670   32.9410   44.0720 C   0  0  0  0  0  0  0  0  0  0  0  0
   57.8990   31.5560   44.2590 C   0  0  0  0  0  0  0  0  0  0  0  0
   57.2400   30.6120   43.2890 C   0  0  0  0  0  0  0  0  0  0  0  0
   55.7300   29.7460   44.1350 Br  0  0  0  0  0  0  0  0  0  0  0  0
   58.7080   31.0770   45.3110 C   0  0  0  0  0  0  0  0  0  0  0  0
   58.8890   29.6690   45.5150 N   0  0  0  0  0  0  0  0  0  0  0  0
   58.3780   29.0730   46.7490 C   0  0  0  0  0  0  0  0  0  0  0  0
   59.9630   28.9850   44.7990 C   0  0  0  0  0  0  0  0  0  0  0  0
   59.3440   31.9840   46.1710 C   0  0  0  0  0  0  0  0  0  0  0  0
   60.3358   33.9386   50.9364 H   0  0  0  0  0  0  0  0  0  0  0  0
   59.2483   34.5709   49.6542 H   0  0  0  0  0  0  0  0  0  0  0  0
   59.7247   32.8390   49.6542 H   0  0  0  0  0  0  0  0  0  0  0  0
   61.4545   35.2815   49.0505 H   0  0  0  0  0  0  0  0  0  0  0  0
   62.1382   33.6386   49.4003 H   0  0  0  0  0  0  0  0  0  0  0  0
   62.0465   33.4188   45.7739 H   0  0  0  0  0  0  0  0  0  0  0  0
   62.6086   34.8897   46.7148 H   0  0  0  0  0  0  0  0  0  0  0  0
   63.4435   33.0735   48.4330 H   0  0  0  0  0  0  0  0  0  0  0  0
   63.4299   32.0047   46.9894 H   0  0  0  0  0  0  0  0  0  0  0  0
   64.4231   33.5014   46.9894 H   0  0  0  0  0  0  0  0  0  0  0  0
   59.1344   34.6247   47.7218 H   0  0  0  0  0  0  0  0  0  0  0  0
   60.1769   35.1963   46.3296 H   0  0  0  0  0  0  0  0  0  0  0  0
   58.2835   34.9207   44.7792 H   0  0  0  0  0  0  0  0  0  0  0  0
   57.1610   33.3230   43.2372 H   0  0  0  0  0  0  0  0  0  0  0  0
   56.8921   31.1757   42.4108 H   0  0  0  0  0  0  0  0  0  0  0  0
   57.9671   29.8481   42.9765 H   0  0  0  0  0  0  0  0  0  0  0  0
   58.8194   29.5879   47.6151 H   0  0  0  0  0  0  0  0  0  0  0  0
   57.2833   29.1760   46.7800 H   0  0  0  0  0  0  0  0  0  0  0  0
   58.6470   28.0068   46.7800 H   0  0  0  0  0  0  0  0  0  0  0  0
   60.6613   28.5403   45.5233 H   0  0  0  0  0  0  0  0  0  0  0  0
   59.5357   28.1923   44.1673 H   0  0  0  0  0  0  0  0  0  0  0  0
   60.5007   29.7074   44.1673 H   0  0  0  0  0  0  0  0  0  0  0  0
   59.9800   31.6069   46.9854 H   0  0  0  0  0  0  0  0  0  0  0  0
  1  2  1  0
  2  3  1  0
  3  4  1  0
  4  5  1  0
  3  6  1  0
  6  7  1  0
  7  8  2  0
  8  9  1  0
  9 10  2  0
 10 11  1  0
 11 12  1  0
 10 13  1  0
 13 14  1  0
 14 15  1  0
 14 16  1  0
 13 17  2  0
 17  7  1  0
  1 18  1  0
  1 19  1  0
  1 20  1  0
  2 21  1  0
  2 22  1  0
  4 23  1  0
  4 24  1  0
  5 25  1  0
  5 26  1  0
  5 27  1  0
  6 28  1  0
  6 29  1  0
  8 30  1  0
  9 31  1  0
 11 32  1  0
 11 33  1  0
 15 34  1  0
 15 35  1  0
 15 36  1  0
 16 37  1  0
 16 38  1  0
 16 39  1  0
 17 40  1  0
M  END
>  <UniqueID>  (23) 
21

>  <SMILES>  (23) 
CCN(CC)Cc1ccc(CBr)c(N(C)C)c1

>  <Energy>  (23) 
45.199948489620446

>  <Genealogy>  (23) 
CCN(CC)Cc1ccc(CBr)c(N(C)C)c1 (3D coordinates assigned)
CCN(CC)Cc1ccc(CBr)c(N(C)C)c1 (optimized conformer: 45.199948489620446 kcal/mol)

>  <smiles>  (23) 
CCN(CC)Cc1ccc(CBr)c(N(C)C)c1

>  <score_type>  (23) 
oracle

>  <origin>  (23) 
adg

>  <m_score__min__energy>  (23) 
-5.9699999999999998

>  <m_primary>  (23) 
energy

$$$$
23:0
     RDKit          3D

 41 42  0  0  1  0  0  0  0  0999 V2000
   56.6460   22.2150   42.9940 C   0  0  0  0  0  0  0  0  0  0  0  0
   55.6090   22.9020   43.5810 O   0  0  0  0  0  0  0  0  0  0  0  0
   56.0450   24.0910   44.1260 C   0  0  0  0  0  0  0  0  0  0  0  0
   55.1760   24.4990   45.2580 C   0  0  0  0  0  0  0  0  0  0  0  0
   55.5200   25.5620   46.0740 N   0  0  0  0  0  0  0  0  0  0  0  0
   56.5090   26.3590   45.9640 C   0  0  0  0  0  0  0  0  0  0  0  0
   57.7580   25.7770   46.2340 C   0  0  0  0  0  0  0  0  0  0  0  0
   58.8520   26.5600   46.1130 C   0  0  0  0  0  0  0  0  0  0  0  0
   60.2020   25.9870   46.3890 C   0  0  0  0  0  0  0  0  0  0  0  0
   58.6800   27.8450   45.7430 N   0  0  0  0  0  0  0  0  0  0  0  0
   57.4860   28.4060   45.4830 C   0  0  0  0  0  0  0  0  0  0  0  0
   57.4220   29.7970   44.9940 C   0  0  0  0  0  0  0  0  0  0  0  0
   56.9380   30.2440   43.7710 C   0  0  0  0  0  0  0  0  0  0  0  0
   56.2880   29.4860   42.6790 C   0  0  0  0  0  0  0  0  0  0  0  0
   57.1250   31.5900   43.6830 N   0  0  0  0  0  0  0  0  0  0  0  0
   57.7000   32.0210   44.7820 N   0  0  0  0  0  0  0  0  0  0  0  0
   58.0530   33.4030   45.0500 C   0  0  0  0  0  0  0  0  0  0  0  0
   57.8950   30.9390   45.6090 C   0  0  0  0  0  0  0  0  0  0  0  0
   58.5670   31.1220   46.9190 C   0  0  0  0  0  0  0  0  0  0  0  0
   56.3790   27.6410   45.5990 N   0  0  0  0  0  0  0  0  0  0  0  0
   57.2914   21.7874   43.7754 H   0  0  0  0  0  0  0  0  0  0  0  0
   56.2419   21.4053   42.3686 H   0  0  0  0  0  0  0  0  0  0  0  0
   57.2340   22.9028   42.3686 H   0  0  0  0  0  0  0  0  0  0  0  0
   57.0757   23.9654   44.4891 H   0  0  0  0  0  0  0  0  0  0  0  0
   56.0058   24.8707   43.3511 H   0  0  0  0  0  0  0  0  0  0  0  0
   54.1937   24.7413   44.8264 H   0  0  0  0  0  0  0  0  0  0  0  0
   55.2470   23.6384   45.9395 H   0  0  0  0  0  0  0  0  0  0  0  0
   57.8425   24.7218   46.5332 H   0  0  0  0  0  0  0  0  0  0  0  0
   60.3571   25.9212   47.4760 H   0  0  0  0  0  0  0  0  0  0  0  0
   60.2711   24.9820   45.9472 H   0  0  0  0  0  0  0  0  0  0  0  0
   60.9729   26.6355   45.9472 H   0  0  0  0  0  0  0  0  0  0  0  0
   59.5910   28.3900   45.7020 H   0  0  0  0  0  0  0  0  0  0  0  0
   55.6287   28.7172   43.1083 H   0  0  0  0  0  0  0  0  0  0  0  0
   55.6942   30.1733   42.0585 H   0  0  0  0  0  0  0  0  0  0  0  0
   57.0578   29.0040   42.0585 H   0  0  0  0  0  0  0  0  0  0  0  0
   58.0948   33.5666   46.1370 H   0  0  0  0  0  0  0  0  0  0  0  0
   59.0361   33.6227   44.6081 H   0  0  0  0  0  0  0  0  0  0  0  0
   57.2957   34.0672   44.6081 H   0  0  0  0  0  0  0  0  0  0  0  0
   57.8495   30.9266   47.7296 H   0  0  0  0  0  0  0  0  0  0  0  0
   59.4108   30.4209   46.9993 H   0  0  0  0  0  0  0  0  0  0  0  0
   58.9389   32.1541   46.9993 H   0  0  0  0  0  0  0  0  0  0  0  0
  1  2  1  0
  2  3  1  0
  3  4  1  0
  4  5  1  0
  5  6  2  0
  6  7  1  0
  7  8  2  0
  8  9  1  0
  8 10  1  0
 10 11  1  0
 11 12  1  0
 12 13  1  0
 13 14  1  0
 13 15  2  0
 15 16  1  0
 16 17  1  0
 16 18  1  0
 18 19  1  0
 11 20  2  0
 20  6  1  0
 18 12  2  0
  1 21  1  0
  1 22  1  0
  1 23  1  0
  3 24  1  0
  3 25  1  0
  4 26  1  0
  4 27  1  0
  7 28  1  0
  9 29  1  0
  9 30  1  0
  9 31  1  0
 10 32  1  0
 14 33  1  0
 14 34  1  0
 14 35  1  0
 17 36  1  0
 17 37  1  0
 17 38  1  0
 19 39  1  0
 19 40  1  0
 19 41  1  0
M  END
>  <smiles>  (24) 
COCCN=c1cc(C)[nH]c(-c2c(C)nn(C)c2C)n1

>  <score_type>  (24) 
oracle

>  <origin>  (24) 
adg

>  <m_score__min__energy>  (24) 
-7.2999999999999998

>  <m_primary>  (24) 
energy

$$$$
24:0
     RDKit          3D

 49 52  0  0  0  0  0  0  0  0999 V2000
   56.7140   30.4000   43.3420 C   0  0  0  0  0  0  0  0  0  0  0  0
   56.4670   31.1280   44.5410 O   0  0  0  0  0  0  0  0  0  0  0  0
   57.3930   31.9880   45.1480 C   0  0  0  0  0  0  0  0  0  0  0  0
   57.3760   33.3940   44.9370 C   0  0  0  0  0  0  0  0  0  0  0  0
   58.3250   34.2230   45.5590 C   0  0  0  0  0  0  0  0  0  0  0  0
   59.2690   33.6250   46.3890 C   0  0  0  0  0  0  0  0  0  0  0  0
   60.3150   34.1840   47.0870 C   0  0  0  0  0  0  0  0  0  0  0  0
   60.9390   33.1170   47.7300 C   0  0  0  0  0  0  0  0  0  0  0  0
   62.1680   33.2610   48.5420 C   0  0  0  0  0  0  0  0  0  0  0  0
   62.1180   33.9530   49.7640 C   0  0  0  0  0  0  0  0  0  0  0  0
   63.2650   34.0780   50.5530 C   0  0  0  0  0  0  0  0  0  0  0  0
   64.4680   33.5040   50.1360 C   0  0  0  0  0  0  0  0  0  0  0  0
   64.5240   32.7980   48.9320 C   0  0  0  0  0  0  0  0  0  0  0  0
   63.3780   32.6710   48.1400 C   0  0  0  0  0  0  0  0  0  0  0  0
   60.3060   31.9440   47.4400 N   0  0  0  0  0  0  0  0  0  0  0  0
   60.6980   30.5820   47.8280 C   0  0  0  0  0  0  0  0  0  0  0  0
   60.6720   30.4050   49.3280 C   0  0  0  0  0  0  0  0  0  0  0  0
   61.7340   30.4390   49.9370 O   0  0  0  0  0  0  0  0  0  0  0  0
   59.4220   30.2600   50.0530 N   0  0  0  0  0  0  0  0  0  0  0  0
   59.5980   29.3920   51.2380 C   0  0  0  0  0  0  0  0  0  0  0  0
   58.4040   29.5160   52.2080 C   0  0  0  0  0  0  0  0  0  0  0  0
   57.2850   30.0910   51.5630 O   0  0  0  0  0  0  0  0  0  0  0  0
   57.5680   31.4360   51.2150 C   0  0  0  0  0  0  0  0  0  0  0  0
   58.9030   31.5820   50.4480 C   0  0  0  0  0  0  0  0  0  0  0  0
   59.2930   32.2740   46.6090 C   0  0  0  0  0  0  0  0  0  0  0  0
   58.3710   31.4240   45.9900 C   0  0  0  0  0  0  0  0  0  0  0  0
   57.0581   29.3858   43.5931 H   0  0  0  0  0  0  0  0  0  0  0  0
   55.7868   30.3374   42.7534 H   0  0  0  0  0  0  0  0  0  0  0  0
   57.4879   30.9145   42.7534 H   0  0  0  0  0  0  0  0  0  0  0  0
   56.6126   33.8371   44.2805 H   0  0  0  0  0  0  0  0  0  0  0  0
   58.3220   35.3107   45.3951 H   0  0  0  0  0  0  0  0  0  0  0  0
   60.5980   35.2462   47.1284 H   0  0  0  0  0  0  0  0  0  0  0  0
   61.1708   34.3989   50.1016 H   0  0  0  0  0  0  0  0  0  0  0  0
   63.2201   34.6293   51.5038 H   0  0  0  0  0  0  0  0  0  0  0  0
   65.3710   33.6078   50.7555 H   0  0  0  0  0  0  0  0  0  0  0  0
   65.4703   32.3414   48.6063 H   0  0  0  0  0  0  0  0  0  0  0  0
   63.4244   32.1061   47.1973 H   0  0  0  0  0  0  0  0  0  0  0  0
   59.9997   29.8652   47.3713 H   0  0  0  0  0  0  0  0  0  0  0  0
   61.7255   30.4052   47.4772 H   0  0  0  0  0  0  0  0  0  0  0  0
   58.7130   29.8090   49.4300 H   0  0  0  0  0  0  0  0  0  0  0  0
   59.6830   28.3466   50.9066 H   0  0  0  0  0  0  0  0  0  0  0  0
   60.5089   29.7085   51.7673 H   0  0  0  0  0  0  0  0  0  0  0  0
   58.1328   28.5150   52.5746 H   0  0  0  0  0  0  0  0  0  0  0  0
   58.6985   30.1661   53.0450 H   0  0  0  0  0  0  0  0  0  0  0  0
   56.7534   31.8148   50.5802 H   0  0  0  0  0  0  0  0  0  0  0  0
   57.6548   32.0112   52.1486 H   0  0  0  0  0  0  0  0  0  0  0  0
   58.7371   32.1894   49.5460 H   0  0  0  0  0  0  0  0  0  0  0  0
   59.6380   32.0695   51.1053 H   0  0  0  0  0  0  0  0  0  0  0  0
   58.4088   30.3375   46.1573 H   0  0  0  0  0  0  0  0  0  0  0  0
  1  2  1  0
  2  3  1  0
  3  4  2  0
  4  5  1  0
  5  6  2  0
  6  7  1  0
  7  8  2  0
  8  9  1  0
  9 10  2  0
 10 11  1  0
 11 12  2  0
 12 13  1  0
 13 14  2  0
  8 15  1  0
 15 16  1  0
 16 17  1  0
 17 18  2  0
 17 19  1  0
 19 20  1  0
 20 21  1  0
 21 22  1  0
 22 23  1  0
 23 24  1  0
 15 25  1  0
 25 26  2  0
 26  3  1  0
 25  6  1  0
 14  9  1  0
 24 19  1  0
  1 27  1  0
  1 28  1  0
  1 29  1  0
  4 30  1  0
  5 31  1  0
  7 32  1  0
 10 33  1  0
 11 34  1  0
 12 35  1  0
 13 36  1  0
 14 37  1  0
 16 38  1  0
 16 39  1  0
 19 40  1  0
 20 41  1  0
 20 42  1  0
 21 43  1  0
 21 44  1  0
 23 45  1  0
 23 46  1  0
 24 47  1  0
 24 48  1  0
 26 49  1  0
M  CHG  1  19   1
M  END
>  <UniqueID>  (25) 
22

>  <SMILES>  (25) 
COc1ccc2cc(-c3ccccc3)n(CC(=O)[NH+]3CCOCC3)c2c1

>  <Energy>  (25) 
98.59159076701073

>  <Genealogy>  (25) 
COc1ccc2cc(-c3ccccc3)n(CC(=O)[NH+]3CCOCC3)c2c1 (protonated)
COc1ccc2cc(-c3ccccc3)n(CC(=O)[NH+]3CCOCC3)c2c1 (3D coordinates assigned)
COc1ccc2cc(-c3ccccc3)n(CC(=O)[NH+]3CCOCC3)c2c1 (nonaromatic ring conformer: 98.59159076701073 kcal/mol)

>  <smiles>  (25) 
COc1ccc2cc(-c3ccccc3)n(CC(=O)N3CCOCC3)c2c1

>  <score_type>  (25) 
oracle

>  <origin>  (25) 
adg

>  <m_score__min__energy>  (25) 
-6.5099999999999998

>  <m_primary>  (25) 
energy

$$$$
25:0
     RDKit          3D

 44 46  0  0  0  0  0  0  0  0999 V2000
   60.0030   28.3270   46.3060 C   0  0  0  0  0  0  0  0  0  0  0  0
   58.6890   28.8740   46.3220 O   0  0  0  0  0  0  0  0  0  0  0  0
   58.2800   29.9810   45.5600 C   0  0  0  0  0  0  0  0  0  0  0  0
   57.4350   29.8480   44.4430 C   0  0  0  0  0  0  0  0  0  0  0  0
   57.0510   30.9720   43.7120 C   0  0  0  0  0  0  0  0  0  0  0  0
   57.4980   32.2410   44.0790 C   0  0  0  0  0  0  0  0  0  0  0  0
   58.3450   32.4040   45.1940 C   0  0  0  0  0  0  0  0  0  0  0  0
   58.8190   33.6710   45.6080 C   0  0  0  0  0  0  0  0  0  0  0  0
   58.4410   34.9380   44.8820 C   0  0  0  0  0  0  0  0  0  0  0  0
   59.6590   33.7550   46.7290 C   0  0  0  0  0  0  0  0  0  0  0  0
   60.0310   32.5940   47.4250 C   0  0  0  0  0  0  0  0  0  0  0  0
   60.8850   32.6510   48.5900 N   0  0  0  0  0  0  0  0  0  0  0  0
   60.8890   33.8390   49.4580 C   0  0  0  0  0  0  0  0  0  0  0  0
   62.2760   34.4870   49.4720 C   0  0  0  0  0  0  0  0  0  0  0  0
   63.4090   33.4640   49.6180 C   0  0  0  0  0  0  0  0  0  0  0  0
   63.8110   32.9010   48.3100 N   0  0  0  0  0  0  0  0  0  0  0  0
   63.5190   33.8740   47.2430 C   0  0  0  0  0  0  0  0  0  0  0  0
   63.1210   31.6180   48.0350 C   0  0  0  0  0  0  0  0  0  0  0  0
   61.8080   31.5280   48.8240 C   0  0  0  0  0  0  0  0  0  0  0  0
   59.5490   31.3920   47.0090 N   0  0  0  0  0  0  0  0  0  0  0  0
   58.7320   31.2590   45.9310 C   0  0  0  0  0  0  0  0  0  0  0  0
   60.3522   28.1816   47.3389 H   0  0  0  0  0  0  0  0  0  0  0  0
   59.9909   27.3592   45.7834 H   0  0  0  0  0  0  0  0  0  0  0  0
   60.6813   29.0175   45.7834 H   0  0  0  0  0  0  0  0  0  0  0  0
   57.0753   28.8522   44.1446 H   0  0  0  0  0  0  0  0  0  0  0  0
   56.3908   30.8567   42.8397 H   0  0  0  0  0  0  0  0  0  0  0  0
   57.1878   33.1200   43.4949 H   0  0  0  0  0  0  0  0  0  0  0  0
   58.2064   35.7243   45.6146 H   0  0  0  0  0  0  0  0  0  0  0  0
   59.2811   35.2636   44.2510 H   0  0  0  0  0  0  0  0  0  0  0  0
   57.5598   34.7501   44.2510 H   0  0  0  0  0  0  0  0  0  0  0  0
   60.0279   34.7356   47.0641 H   0  0  0  0  0  0  0  0  0  0  0  0
   60.1537   34.5653   49.0813 H   0  0  0  0  0  0  0  0  0  0  0  0
   60.6286   33.5328   50.4819 H   0  0  0  0  0  0  0  0  0  0  0  0
   62.4171   35.0354   48.5289 H   0  0  0  0  0  0  0  0  0  0  0  0
   62.3199   35.1561   50.3440 H   0  0  0  0  0  0  0  0  0  0  0  0
   64.2786   33.9583   50.0756 H   0  0  0  0  0  0  0  0  0  0  0  0
   63.0466   32.6392   50.2491 H   0  0  0  0  0  0  0  0  0  0  0  0
   63.2304   34.8356   47.6926 H   0  0  0  0  0  0  0  0  0  0  0  0
   64.4145   34.0146   46.6199 H   0  0  0  0  0  0  0  0  0  0  0  0
   62.6940   33.4983   46.6199 H   0  0  0  0  0  0  0  0  0  0  0  0
   62.9013   31.5496   46.9593 H   0  0  0  0  0  0  0  0  0  0  0  0
   63.7766   30.7906   48.3441 H   0  0  0  0  0  0  0  0  0  0  0  0
   61.2972   30.5965   48.5387 H   0  0  0  0  0  0  0  0  0  0  0  0
   62.0773   31.5571   49.8901 H   0  0  0  0  0  0  0  0  0  0  0  0
  1  2  1  0
  2  3  1  0
  3  4  2  0
  4  5  1  0
  5  6  2  0
  6  7  1  0
  7  8  2  0
  8  9  1  0
  8 10  1  0
 10 11  2  0
 11 12  1  0
 12 13  1  0
 13 14  1  0
 14 15  1  0
 15 16  1  0
 16 17  1  0
 16 18  1  0
 18 19  1  0
 11 20  1  0
 20 21  2  0
 21  3  1  0
 21  7  1  0
 19 12  1  0
  1 22  1  0
  1 23  1  0
  1 24  1  0
  4 25  1  0
  5 26  1  0
  6 27  1  0
  9 28  1  0
  9 29  1  0
  9 30  1  0
 10 31  1  0
 13 32  1  0
 13 33  1  0
 14 34  1  0
 14 35  1  0
 15 36  1  0
 15 37  1  0
 17 38  1  0
 17 39  1  0
 17 40  1  0
 18 41  1  0
 18 42  1  0
 19 43  1  0
 19 44  1  0
M  END
>  <UniqueID>  (26) 
23

>  <SMILES>  (26) 
COc1cccc2c(C)cc(N3CCCN(C)CC3)nc12

>  <Energy>  (26) 
54.88423318272312

>  <Genealogy>  (26) 
COc1cccc2c(C)cc(N3CCCN(C)CC3)nc12 (3D coordinates assigned)
COc1cccc2c(C)cc(N3CCCN(C)CC3)nc12 (nonaromatic ring conformer: 54.88423318272312 kcal/mol)

>  <smiles>  (26) 
COc1cccc2c(C)cc(N3CCCN(C)CC3)nc12

>  <score_type>  (26) 
oracle

>  <origin>  (26) 
adg

>  <m_score__min__energy>  (26) 
-5.4800000000000004

>  <m_primary>  (26) 
energy

$$$$
26:0
     RDKit          3D

 59 59  0  0  0  0  0  0  0  0999 V2000
   58.7050   34.6770   45.3110 C   0  0  0  0  0  0  0  0  0  0  0  0
   58.1820   33.2860   45.7380 C   0  0  0  0  0  0  0  0  0  0  0  0
   57.4780   33.4660   47.1010 C   0  0  0  0  0  0  0  0  0  0  0  0
   57.1300   32.6800   44.7260 C   0  0  0  0  0  0  0  0  0  0  0  0
   56.8900   31.2310   44.8710 N   0  0  0  0  0  0  0  0  0  0  0  0
   56.7340   30.5730   43.5680 C   0  0  0  0  0  0  0  0  0  0  0  0
   56.6220   29.0530   43.7150 C   0  0  0  0  0  0  0  0  0  0  0  0
   56.0770   28.7060   45.0380 N   0  0  0  0  0  0  0  0  0  0  0  0
   56.9930   27.8410   45.8030 C   0  0  0  0  0  0  0  0  0  0  0  0
   56.5090   26.4190   45.8530 C   0  0  0  0  0  0  0  0  0  0  0  0
   55.2780   26.1840   45.9700 O   0  0  0  0  0  0  0  0  0  0  0  0
   57.4450   25.3360   45.8580 N   0  0  0  0  0  0  0  0  0  0  0  0
   57.3300   24.1740   45.0190 C   0  0  0  0  0  0  0  0  0  0  0  0
   58.1830   23.0600   45.1760 C   0  0  0  0  0  0  0  0  0  0  0  0
   58.0120   21.9230   44.3770 C   0  0  0  0  0  0  0  0  0  0  0  0
   56.9970   21.8820   43.4200 C   0  0  0  0  0  0  0  0  0  0  0  0
   56.8420   20.7820   42.6420 F   0  0  0  0  0  0  0  0  0  0  0  0
   56.1300   22.9720   43.2750 C   0  0  0  0  0  0  0  0  0  0  0  0
   55.1520   22.9420   42.3400 F   0  0  0  0  0  0  0  0  0  0  0  0
   56.2900   24.1090   44.0760 C   0  0  0  0  0  0  0  0  0  0  0  0
   59.3590   32.2920   45.9670 C   0  0  0  0  0  0  0  0  0  0  0  0
   59.0010   31.1480   46.7510 O   0  0  0  0  0  0  0  0  0  0  0  0
   59.4180   29.8460   46.4480 C   0  0  0  0  0  0  0  0  0  0  0  0
   59.4260   29.4560   45.2480 O   0  0  0  0  0  0  0  0  0  0  0  0
   59.8850   28.9300   47.5660 C   0  0  0  0  0  0  0  0  0  0  0  0
   58.7360   28.6190   48.5520 C   0  0  0  0  0  0  0  0  0  0  0  0
   60.3860   27.6040   46.9590 C   0  0  0  0  0  0  0  0  0  0  0  0
   61.0360   29.5970   48.3480 C   0  0  0  0  0  0  0  0  0  0  0  0
   58.9298   35.2749   46.2065 H   0  0  0  0  0  0  0  0  0  0  0  0
   59.6193   34.5567   44.7114 H   0  0  0  0  0  0  0  0  0  0  0  0
   57.9379   35.1889   44.7114 H   0  0  0  0  0  0  0  0  0  0  0  0
   58.1975   33.2820   47.9124 H   0  0  0  0  0  0  0  0  0  0  0  0
   57.0900   34.4922   47.1806 H   0  0  0  0  0  0  0  0  0  0  0  0
   56.6451   32.7519   47.1806 H   0  0  0  0  0  0  0  0  0  0  0  0
   56.1730   33.2013   44.8754 H   0  0  0  0  0  0  0  0  0  0  0  0
   57.5522   32.8232   43.7204 H   0  0  0  0  0  0  0  0  0  0  0  0
   57.7490   30.8340   45.3200 H   0  0  0  0  0  0  0  0  0  0  0  0
   55.8228   30.9530   43.0828 H   0  0  0  0  0  0  0  0  0  0  0  0
   57.6239   30.7957   42.9609 H   0  0  0  0  0  0  0  0  0  0  0  0
   55.9544   28.6611   42.9335 H   0  0  0  0  0  0  0  0  0  0  0  0
   57.6233   28.6091   43.6130 H   0  0  0  0  0  0  0  0  0  0  0  0
   55.1710   28.2010   44.9060 H   0  0  0  0  0  0  0  0  0  0  0  0
   57.9842   27.8629   45.3264 H   0  0  0  0  0  0  0  0  0  0  0  0
   57.0406   28.2217   46.8339 H   0  0  0  0  0  0  0  0  0  0  0  0
   58.2310   25.3890   46.5500 H   0  0  0  0  0  0  0  0  0  0  0  0
   58.9848   23.0854   45.9287 H   0  0  0  0  0  0  0  0  0  0  0  0
   58.6803   21.0586   44.5041 H   0  0  0  0  0  0  0  0  0  0  0  0
   55.5975   24.9566   43.9666 H   0  0  0  0  0  0  0  0  0  0  0  0
   59.7153   31.9435   44.9864 H   0  0  0  0  0  0  0  0  0  0  0  0
   60.1350   32.8353   46.5261 H   0  0  0  0  0  0  0  0  0  0  0  0
   59.1020   28.7181   49.5846 H   0  0  0  0  0  0  0  0  0  0  0  0
   57.9095   29.3257   48.3866 H   0  0  0  0  0  0  0  0  0  0  0  0
   58.3788   27.5919   48.3866 H   0  0  0  0  0  0  0  0  0  0  0  0
   60.6494   26.9068   47.7680 H   0  0  0  0  0  0  0  0  0  0  0  0
   59.5928   27.1622   46.3380 H   0  0  0  0  0  0  0  0  0  0  0  0
   61.2732   27.7971   46.3380 H   0  0  0  0  0  0  0  0  0  0  0  0
   60.8548   29.4920   49.4279 H   0  0  0  0  0  0  0  0  0  0  0  0
   61.9872   29.1102   48.0868 H   0  0  0  0  0  0  0  0  0  0  0  0
   61.0865   30.6643   48.0868 H   0  0  0  0  0  0  0  0  0  0  0  0
  1  2  1  0
  2  3  1  0
  2  4  1  0
  4  5  1  0
  5  6  1  0
  6  7  1  0
  7  8  1  0
  8  9  1  0
  9 10  1  0
 10 11  2  0
 10 12  1  0
 12 13  1  0
 13 14  2  0
 14 15  1  0
 15 16  2  0
 16 17  1  0
 16 18  1  0
 18 19  1  0
 18 20  2  0
  2 21  1  0
 21 22  1  0
 22 23  1  0
 23 24  2  0
 23 25  1  0
 25 26  1  0
 25 27  1  0
 25 28  1  0
 20 13  1  0
  1 29  1  0
  1 30  1  0
  1 31  1  0
  3 32  1  0
  3 33  1  0
  3 34  1  0
  4 35  1  0
  4 36  1  0
  5 37  1  0
  6 38  1  0
  6 39  1  0
  7 40  1  0
  7 41  1  0
  8 42  1  0
  9 43  1  0
  9 44  1  0
 12 45  1  0
 14 46  1  0
 15 47  1  0
 20 48  1  0
 21 49  1  0
 21 50  1  0
 26 51  1  0
 26 52  1  0
 26 53  1  0
 27 54  1  0
 27 55  1  0
 27 56  1  0
 28 57  1  0
 28 58  1  0
 28 59  1  0
M  END
>  <UniqueID>  (27) 
24

>  <SMILES>  (27) 
CC(C)(CNCCNCC(=O)Nc1ccc(F)c(F)c1)COC(=O)C(C)(C)C

>  <Energy>  (27) 
58.132002572990224

>  <Genealogy>  (27) 
CC(C)(CNCCNCC(=O)Nc1ccc(F)c(F)c1)COC(=O)C(C)(C)C (3D coordinates assigned)
CC(C)(CNCCNCC(=O)Nc1ccc(F)c(F)c1)COC(=O)C(C)(C)C (optimized conformer: 58.132002572990224 kcal/mol)

>  <smiles>  (27) 
CC(C)(CNCCNCC(=O)Nc1ccc(F)c(F)c1)COC(=O)C(C)(C)C

>  <score_type>  (27) 
oracle

>  <origin>  (27) 
adg

>  <m_score__min__energy>  (27) 
-8.1699999999999999

>  <m_primary>  (27) 
energy

$$$$
27:0
     RDKit          3D

 54 56  0  0  0  0  0  0  0  0999 V2000
   59.6820   33.2970   50.7050 C   0  0  0  0  0  0  0  0  0  0  0  0
   60.3980   34.2350   49.9080 O   0  0  0  0  0  0  0  0  0  0  0  0
   61.5180   33.9210   49.1240 C   0  0  0  0  0  0  0  0  0  0  0  0
   62.7990   33.7380   49.6840 C   0  0  0  0  0  0  0  0  0  0  0  0
   63.8870   33.4240   48.8640 C   0  0  0  0  0  0  0  0  0  0  0  0
   63.7120   33.2910   47.4850 C   0  0  0  0  0  0  0  0  0  0  0  0
   62.4460   33.4710   46.9210 C   0  0  0  0  0  0  0  0  0  0  0  0
   61.3510   33.7850   47.7340 C   0  0  0  0  0  0  0  0  0  0  0  0
   60.0610   33.9740   47.1450 N   0  0  0  0  0  0  0  0  0  0  0  0
   59.0880   32.8820   47.1850 C   0  0  0  0  0  0  0  0  0  0  0  0
   57.7250   33.3470   46.6440 C   0  0  0  0  0  0  0  0  0  0  0  0
   57.8100   34.0180   45.3150 N   0  0  0  0  0  0  0  0  0  0  0  0
   57.4130   33.1370   44.1830 C   0  0  0  0  0  0  0  0  0  0  0  0
   57.4870   31.6500   44.4830 C   0  0  0  0  0  0  0  0  0  0  0  0
   56.3280   30.8640   44.4950 C   0  0  0  0  0  0  0  0  0  0  0  0
   56.4010   29.5400   44.7800 N   0  0  0  0  0  0  0  0  0  0  0  0
   57.5760   28.9180   45.0640 C   0  0  0  0  0  0  0  0  0  0  0  0
   57.5560   27.5170   45.3740 N   0  0  0  0  0  0  0  0  0  0  0  0
   57.8640   26.5250   44.3440 C   0  0  0  0  0  0  0  0  0  0  0  0
   57.3850   27.0980   46.7630 C   0  0  0  0  0  0  0  0  0  0  0  0
   58.7810   29.6590   45.0580 C   0  0  0  0  0  0  0  0  0  0  0  0
   60.1220   29.0190   45.3520 C   0  0  0  0  0  0  0  0  0  0  0  0
   60.7350   28.5940   44.1840 F   0  0  0  0  0  0  0  0  0  0  0  0
   60.9460   29.9380   45.9730 F   0  0  0  0  0  0  0  0  0  0  0  0
   59.9710   27.9150   46.1700 F   0  0  0  0  0  0  0  0  0  0  0  0
   58.7070   31.0410   44.8120 C   0  0  0  0  0  0  0  0  0  0  0  0
   59.0880   34.7400   45.0540 C   0  0  0  0  0  0  0  0  0  0  0  0
   59.7860   35.1680   46.3460 C   0  0  0  0  0  0  0  0  0  0  0  0
   59.8498   33.5169   51.7697 H   0  0  0  0  0  0  0  0  0  0  0  0
   58.6076   33.3697   50.4805 H   0  0  0  0  0  0  0  0  0  0  0  0
   60.0355   32.2798   50.4805 H   0  0  0  0  0  0  0  0  0  0  0  0
   62.9428   33.8426   50.7695 H   0  0  0  0  0  0  0  0  0  0  0  0
   64.8839   33.2813   49.3065 H   0  0  0  0  0  0  0  0  0  0  0  0
   64.5704   33.0446   46.8428 H   0  0  0  0  0  0  0  0  0  0  0  0
   62.3098   33.3655   45.8346 H   0  0  0  0  0  0  0  0  0  0  0  0
   59.4556   32.0483   46.5687 H   0  0  0  0  0  0  0  0  0  0  0  0
   58.9622   32.5589   48.2289 H   0  0  0  0  0  0  0  0  0  0  0  0
   57.0699   32.4684   46.5492 H   0  0  0  0  0  0  0  0  0  0  0  0
   57.3300   34.0871   47.3554 H   0  0  0  0  0  0  0  0  0  0  0  0
   57.0730   34.7630   45.3380 H   0  0  0  0  0  0  0  0  0  0  0  0
   56.3765   33.3800   43.9063 H   0  0  0  0  0  0  0  0  0  0  0  0
   58.1320   33.3277   43.3726 H   0  0  0  0  0  0  0  0  0  0  0  0
   55.3534   31.3228   44.2721 H   0  0  0  0  0  0  0  0  0  0  0  0
   58.1577   25.5790   44.8222 H   0  0  0  0  0  0  0  0  0  0  0  0
   56.9752   26.3587   43.7176 H   0  0  0  0  0  0  0  0  0  0  0  0
   58.6907   26.8914   43.7176 H   0  0  0  0  0  0  0  0  0  0  0  0
   57.7147   27.9058   47.4329 H   0  0  0  0  0  0  0  0  0  0  0  0
   56.3242   26.8757   46.9510 H   0  0  0  0  0  0  0  0  0  0  0  0
   57.9873   26.1970   46.9510 H   0  0  0  0  0  0  0  0  0  0  0  0
   59.6184   31.6533   44.8784 H   0  0  0  0  0  0  0  0  0  0  0  0
   59.7609   34.0763   44.4913 H   0  0  0  0  0  0  0  0  0  0  0  0
   58.8507   35.6492   44.4821 H   0  0  0  0  0  0  0  0  0  0  0  0
   60.7302   35.6786   46.1056 H   0  0  0  0  0  0  0  0  0  0  0  0
   59.1417   35.8580   46.9106 H   0  0  0  0  0  0  0  0  0  0  0  0
  1  2  1  0
  2  3  1  0
  3  4  2  0
  4  5  1  0
  5  6  2  0
  6  7  1  0
  7  8  2  0
  8  9  1  0
  9 10  1  0
 10 11  1  0
 11 12  1  0
 12 13  1  0
 13 14  1  0
 14 15  2  0
 15 16  1  0
 16 17  2  0
 17 18  1  0
 18 19  1  0
 18 20  1  0
 17 21  1  0
 21 22  1  0
 22 23  1  0
 22 24  1  0
 22 25  1  0
 21 26  2  0
 12 27  1  0
 27 28  1  0
  8  3  1  0
 28  9  1  0
 26 14  1  0
  1 29  1  0
  1 30  1  0
  1 31  1  0
  4 32  1  0
  5 33  1  0
  6 34  1  0
  7 35  1  0
 10 36  1  0
 10 37  1  0
 11 38  1  0
 11 39  1  0
 12 40  1  0
 13 41  1  0
 13 42  1  0
 15 43  1  0
 19 44  1  0
 19 45  1  0
 19 46  1  0
 20 47  1  0
 20 48  1  0
 20 49  1  0
 26 50  1  0
 27 51  1  0
 27 52  1  0
 28 53  1  0
 28 54  1  0
M  CHG  1  12   1
M  END
>  <UniqueID>  (28) 
25

>  <SMILES>  (28) 
COc1ccccc1N1CC[NH+](Cc2cnc(N(C)C)c(C(F)(F)F)c2)CC1

>  <Energy>  (28) 
74.85756811948916

>  <Genealogy>  (28) 
COc1ccccc1N1CC[NH+](Cc2cnc(N(C)C)c(C(F)(F)F)c2)CC1 (protonated)
COc1ccccc1N1CC[NH+](Cc2cnc(N(C)C)c(C(F)(F)F)c2)CC1 (3D coordinates assigned)
COc1ccccc1N1CC[NH+](Cc2cnc(N(C)C)c(C(F)(F)F)c2)CC1 (nonaromatic ring conformer: 74.85756811948916 kcal/mol)

>  <smiles>  (28) 
COc1ccccc1N1CCN(Cc2cnc(N(C)C)c(C(F)(F)F)c2)CC1

>  <score_type>  (28) 
oracle

>  <origin>  (28) 
adg

>  <m_score__min__energy>  (28) 
-5.7599999999999998

>  <m_primary>  (28) 
energy

$$$$
28:0
     RDKit          3D

 56 60  0  0  0  0  0  0  0  0999 V2000
   55.8740   30.4980   52.6000 C   0  0  0  0  0  0  0  0  0  0  0  0
   56.7750   29.9420   51.6490 O   0  0  0  0  0  0  0  0  0  0  0  0
   57.8380   30.6440   51.0620 C   0  0  0  0  0  0  0  0  0  0  0  0
   58.9320   29.9200   50.5880 C   0  0  0  0  0  0  0  0  0  0  0  0
   60.0230   30.5770   50.0120 C   0  0  0  0  0  0  0  0  0  0  0  0
   60.0920   31.9900   49.9790 C   0  0  0  0  0  0  0  0  0  0  0  0
   61.2310   32.7410   49.2720 C   0  0  1  0  0  0  0  0  0  0  0  0
   62.6890   32.5300   49.6720 C   0  0  0  0  0  0  0  0  0  0  0  0
   63.4440   33.0270   48.6390 C   0  0  0  0  0  0  0  0  0  0  0  0
   64.7640   33.1330   48.6820 O   0  0  0  0  0  0  0  0  0  0  0  0
   65.4400   32.7260   49.7560 C   0  0  0  0  0  0  0  0  0  0  0  0
   66.8310   32.8630   49.7910 C   0  0  0  0  0  0  0  0  0  0  0  0
   67.5530   32.4140   50.9000 C   0  0  0  0  0  0  0  0  0  0  0  0
   66.8910   31.8210   51.9790 C   0  0  0  0  0  0  0  0  0  0  0  0
   65.4990   31.6770   51.9610 C   0  0  0  0  0  0  0  0  0  0  0  0
   64.7560   32.1330   50.8560 C   0  0  0  0  0  0  0  0  0  0  0  0
   63.3480   32.0120   50.8000 C   0  0  0  0  0  0  0  0  0  0  0  0
   62.7220   31.4220   51.7170 O   0  0  0  0  0  0  0  0  0  0  0  0
   62.5600   33.2810   47.5310 C   0  0  0  0  0  0  0  0  0  0  0  0
   62.8990   33.8220   46.4440 O   0  0  0  0  0  0  0  0  0  0  0  0
   61.2590   32.7130   47.7750 N   0  0  1  0  0  0  0  0  0  0  0  0
   61.2650   31.3380   47.1830 C   0  0  0  0  0  0  0  0  0  0  0  0
   59.8790   30.9600   46.6320 C   0  0  0  0  0  0  0  0  0  0  0  0
   59.1920   32.1540   46.0940 N   0  0  0  0  0  0  0  0  0  0  0  0
   58.5120   31.8590   44.8150 C   0  0  0  0  0  0  0  0  0  0  0  0
   57.7930   33.1200   44.2890 C   0  0  0  0  0  0  0  0  0  0  0  0
   57.8940   34.2050   45.1920 O   0  0  0  0  0  0  0  0  0  0  0  0
   57.3830   33.8210   46.4540 C   0  0  0  0  0  0  0  0  0  0  0  0
   58.2080   32.6680   47.0670 C   0  0  0  0  0  0  0  0  0  0  0  0
   58.9210   32.6910   50.3290 C   0  0  0  0  0  0  0  0  0  0  0  0
   57.8290   32.0390   50.9070 C   0  0  0  0  0  0  0  0  0  0  0  0
   56.2316   30.2773   53.6166 H   0  0  0  0  0  0  0  0  0  0  0  0
   55.8186   31.5876   52.4593 H   0  0  0  0  0  0  0  0  0  0  0  0
   54.8753   30.0589   52.4593 H   0  0  0  0  0  0  0  0  0  0  0  0
   58.9362   28.8229   50.6682 H   0  0  0  0  0  0  0  0  0  0  0  0
   60.8420   29.9855   49.5769 H   0  0  0  0  0  0  0  0  0  0  0  0
   60.8854   33.7004   49.6844 H   0  0  0  0  0  0  0  0  0  0  0  0
   67.3583   33.3253   48.9435 H   0  0  0  0  0  0  0  0  0  0  0  0
   68.6468   32.5277   50.9240 H   0  0  0  0  0  0  0  0  0  0  0  0
   67.4669   31.4659   52.8463 H   0  0  0  0  0  0  0  0  0  0  0  0
   64.9847   31.2066   52.8120 H   0  0  0  0  0  0  0  0  0  0  0  0
   60.5110   33.3320   47.3800 H   0  0  0  0  0  0  0  0  0  0  0  0
   61.9978   31.3041   46.3633 H   0  0  0  0  0  0  0  0  0  0  0  0
   61.5315   30.6210   47.9735 H   0  0  0  0  0  0  0  0  0  0  0  0
   59.9989   30.2186   45.8283 H   0  0  0  0  0  0  0  0  0  0  0  0
   59.2741   30.5395   47.4489 H   0  0  0  0  0  0  0  0  0  0  0  0
   59.2567   31.5303   44.0751 H   0  0  0  0  0  0  0  0  0  0  0  0
   57.7689   31.0647   44.9789 H   0  0  0  0  0  0  0  0  0  0  0  0
   58.2459   33.4128   43.3303 H   0  0  0  0  0  0  0  0  0  0  0  0
   56.7269   32.8771   44.1685 H   0  0  0  0  0  0  0  0  0  0  0  0
   57.4171   34.6861   47.1326 H   0  0  0  0  0  0  0  0  0  0  0  0
   56.3483   33.4732   46.3181 H   0  0  0  0  0  0  0  0  0  0  0  0
   58.7393   33.0376   47.9565 H   0  0  0  0  0  0  0  0  0  0  0  0
   57.5239   31.8517   47.3420 H   0  0  0  0  0  0  0  0  0  0  0  0
   58.8655   33.7738   50.1433 H   0  0  0  0  0  0  0  0  0  0  0  0
   56.9582   32.6215   51.2422 H   0  0  0  0  0  0  0  0  0  0  0  0
  1  2  1  0
  2  3  1  0
  3  4  2  0
  4  5  1  0
  5  6  2  0
  6  7  1  0
  7  8  1  0
  8  9  2  0
  9 10  1  0
 10 11  1  0
 11 12  2  0
 12 13  1  0
 13 14  2  0
 14 15  1  0
 15 16  2  0
 16 17  1  0
 17 18  2  0
  9 19  1  0
 19 20  2  0
 19 21  1  0
 21 22  1  0
 22 23  1  0
 23 24  1  0
 24 25  1  0
 25 26  1  0
 26 27  1  0
 27 28  1  0
 28 29  1  0
  6 30  1  0
 30 31  2  0
 31  3  1  0
 21  7  1  0
 29 24  1  0
 17  8  1  0
 16 11  1  0
  1 32  1  0
  1 33  1  0
  1 34  1  0
  4 35  1  0
  5 36  1  0
  7 37  1  6
 12 38  1  0
 13 39  1  0
 14 40  1  0
 15 41  1  0
 21 42  1  6
 22 43  1  0
 22 44  1  0
 23 45  1  0
 23 46  1  0
 25 47  1  0
 25 48  1  0
 26 49  1  0
 26 50  1  0
 28 51  1  0
 28 52  1  0
 29 53  1  0
 29 54  1  0
 30 55  1  0
 31 56  1  0
M  CHG  1  21   1
M  END
>  <UniqueID>  (29) 
26

>  <SMILES>  (29) 
COc1ccc([C@H]2c3c(oc4ccccc4c3=O)C(=O)[N@H+]2CCN2CCOCC2)cc1

>  <Energy>  (29) 
127.72608317649353

>  <Genealogy>  (29) 
COc1ccc(C2c3c(oc4ccccc4c3=O)C(=O)[NH+]2CCN2CCOCC2)cc1 (protonated)
COc1ccc([C@H]2c3c(oc4ccccc4c3=O)C(=O)[N@H+]2CCN2CCOCC2)cc1 (chirality)
COc1ccc([C@H]2c3c(oc4ccccc4c3=O)C(=O)[N@H+]2CCN2CCOCC2)cc1 (3D coordinates assigned)
COc1ccc([C@H]2c3c(oc4ccccc4c3=O)C(=O)[N@H+]2CCN2CCOCC2)cc1 (nonaromatic ring conformer: 127.72608317649353 kcal/mol)

>  <smiles>  (29) 
COc1ccc(C2c3c(oc4ccccc4c3=O)C(=O)N2CCN2CCOCC2)cc1

>  <score_type>  (29) 
oracle

>  <origin>  (29) 
adg

>  <m_score__min__energy>  (29) 
-6.0800000000000001

>  <m_primary>  (29) 
energy

$$$$
29:0
     RDKit          3D

 42 44  0  0  0  0  0  0  0  0999 V2000
   56.9790   23.4940   48.4880 C   0  0  0  0  0  0  0  0  0  0  0  0
   57.8050   24.1070   47.5040 O   0  0  0  0  0  0  0  0  0  0  0  0
   57.5220   25.3320   46.8780 C   0  0  0  0  0  0  0  0  0  0  0  0
   58.4780   26.3620   46.7860 C   0  0  0  0  0  0  0  0  0  0  0  0
   58.1680   27.5710   46.1500 C   0  0  0  0  0  0  0  0  0  0  0  0
   56.8750   27.7710   45.6270 C   0  0  0  0  0  0  0  0  0  0  0  0
   55.9280   26.7390   45.7020 C   0  0  0  0  0  0  0  0  0  0  0  0
   56.2450   25.5200   46.3300 C   0  0  0  0  0  0  0  0  0  0  0  0
   55.3170   24.4700   46.4300 O   0  0  0  0  0  0  0  0  0  0  0  0
   55.0910   23.4940   45.4180 C   0  0  0  0  0  0  0  0  0  0  0  0
   56.5320   29.0410   44.8860 C   0  0  0  0  0  0  0  0  0  0  0  0
   57.4220   30.1460   45.2940 N   0  0  0  0  0  0  0  0  0  0  0  0
   57.0760   31.4300   44.6420 C   0  0  0  0  0  0  0  0  0  0  0  0
   57.8210   32.6240   45.2020 C   0  0  0  0  0  0  0  0  0  0  0  0
   57.8150   32.8850   46.5840 C   0  0  0  0  0  0  0  0  0  0  0  0
   58.5070   33.9850   47.0970 C   0  0  0  0  0  0  0  0  0  0  0  0
   59.2070   34.8370   46.2380 C   0  0  0  0  0  0  0  0  0  0  0  0
   59.8780   35.9030   46.7390 F   0  0  0  0  0  0  0  0  0  0  0  0
   59.2110   34.5920   44.8620 C   0  0  0  0  0  0  0  0  0  0  0  0
   58.5190   33.4930   44.3440 C   0  0  0  0  0  0  0  0  0  0  0  0
   58.8350   29.7730   45.1180 C   0  0  0  0  0  0  0  0  0  0  0  0
   59.1980   28.6740   46.1200 C   0  0  0  0  0  0  0  0  0  0  0  0
   57.3419   23.7633   49.4909 H   0  0  0  0  0  0  0  0  0  0  0  0
   55.9431   23.8437   48.3668 H   0  0  0  0  0  0  0  0  0  0  0  0
   57.0136   22.4013   48.3668 H   0  0  0  0  0  0  0  0  0  0  0  0
   59.4789   26.2156   47.2182 H   0  0  0  0  0  0  0  0  0  0  0  0
   54.9285   26.8837   45.2660 H   0  0  0  0  0  0  0  0  0  0  0  0
   54.8665   22.5247   45.8870 H   0  0  0  0  0  0  0  0  0  0  0  0
   54.2409   23.8043   44.7926 H   0  0  0  0  0  0  0  0  0  0  0  0
   55.9909   23.3991   44.7926 H   0  0  0  0  0  0  0  0  0  0  0  0
   56.6439   28.8688   43.8053 H   0  0  0  0  0  0  0  0  0  0  0  0
   55.4949   29.3184   45.1256 H   0  0  0  0  0  0  0  0  0  0  0  0
   57.3094   31.3479   43.5702 H   0  0  0  0  0  0  0  0  0  0  0  0
   56.0063   31.6049   44.8296 H   0  0  0  0  0  0  0  0  0  0  0  0
   57.2628   32.2199   47.2643 H   0  0  0  0  0  0  0  0  0  0  0  0
   58.5009   34.1810   48.1794 H   0  0  0  0  0  0  0  0  0  0  0  0
   59.7592   35.2645   44.1858 H   0  0  0  0  0  0  0  0  0  0  0  0
   58.5205   33.3070   43.2598 H   0  0  0  0  0  0  0  0  0  0  0  0
   58.9924   29.4030   44.0941 H   0  0  0  0  0  0  0  0  0  0  0  0
   59.4721   30.6530   45.2902 H   0  0  0  0  0  0  0  0  0  0  0  0
   60.1704   28.2439   45.8380 H   0  0  0  0  0  0  0  0  0  0  0  0
   59.2379   29.1278   47.1212 H   0  0  0  0  0  0  0  0  0  0  0  0
  1  2  1  0
  2  3  1  0
  3  4  2  0
  4  5  1  0
  5  6  2  0
  6  7  1  0
  7  8  2  0
  8  9  1  0
  9 10  1  0
  6 11  1  0
 11 12  1  0
 12 13  1  0
 13 14  1  0
 14 15  2  0
 15 16  1  0
 16 17  2  0
 17 18  1  0
 17 19  1  0
 19 20  2  0
 12 21  1  0
 21 22  1  0
  8  3  1  0
 20 14  1  0
 22  5  1  0
  1 23  1  0
  1 24  1  0
  1 25  1  0
  4 26  1  0
  7 27  1  0
 10 28  1  0
 10 29  1  0
 10 30  1  0
 11 31  1  0
 11 32  1  0
 13 33  1  0
 13 34  1  0
 15 35  1  0
 16 36  1  0
 19 37  1  0
 20 38  1  0
 21 39  1  0
 21 40  1  0
 22 41  1  0
 22 42  1  0
M  END
>  <UniqueID>  (30) 
27

>  <SMILES>  (30) 
COc1cc2c(cc1OC)CN(Cc1ccc(F)cc1)CC2

>  <Energy>  (30) 
47.7139111402453

>  <Genealogy>  (30) 
COc1cc2c(cc1OC)CN(Cc1ccc(F)cc1)CC2 (3D coordinates assigned)
COc1cc2c(cc1OC)CN(Cc1ccc(F)cc1)CC2 (nonaromatic ring conformer: 47.7139111402453 kcal/mol)

>  <smiles>  (30) 
COc1cc2c(cc1OC)CN(Cc1ccc(F)cc1)CC2

>  <score_type>  (30) 
oracle

>  <origin>  (30) 
adg

>  <m_score__min__energy>  (30) 
-7.0899999999999999

>  <m_primary>  (30) 
energy

$$$$
30:0
     RDKit          3D

 48 49  0  0  0  0  0  0  0  0999 V2000
   60.9940   28.6790   44.8880 C   0  0  0  0  0  0  0  0  0  0  0  0
   60.7620   29.7130   45.9890 C   0  0  0  0  0  0  0  0  0  0  0  0
   59.3250   30.0490   46.1130 N   0  0  0  0  0  0  0  0  0  0  0  0
   58.7210   29.3240   47.2530 C   0  0  0  0  0  0  0  0  0  0  0  0
   59.6580   29.3270   48.4620 C   0  0  0  0  0  0  0  0  0  0  0  0
   58.5880   29.7980   44.8470 C   0  0  0  0  0  0  0  0  0  0  0  0
   57.0970   29.6350   45.1480 C   0  0  0  0  0  0  0  0  0  0  0  0
   56.3920   30.8320   44.8290 O   0  0  0  0  0  0  0  0  0  0  0  0
   57.0200   31.9950   44.3710 C   0  0  0  0  0  0  0  0  0  0  0  0
   57.5250   32.0450   43.2170 O   0  0  0  0  0  0  0  0  0  0  0  0
   57.0370   33.2080   45.2420 C   0  0  0  0  0  0  0  0  0  0  0  0
   58.2940   33.2210   46.0660 C   0  0  0  0  0  0  0  0  0  0  0  0
   59.4750   33.7720   45.5470 C   0  0  0  0  0  0  0  0  0  0  0  0
   60.6320   33.8280   46.3290 C   0  0  0  0  0  0  0  0  0  0  0  0
   60.6250   33.3410   47.6470 C   0  0  0  0  0  0  0  0  0  0  0  0
   61.8480   33.4120   48.4830 C   0  0  0  0  0  0  0  0  0  0  0  0
   61.8660   34.2230   49.6340 C   0  0  0  0  0  0  0  0  0  0  0  0
   63.0150   34.3020   50.4270 C   0  0  0  0  0  0  0  0  0  0  0  0
   64.1540   33.5720   50.0840 C   0  0  0  0  0  0  0  0  0  0  0  0
   64.1470   32.7580   48.9480 C   0  0  0  0  0  0  0  0  0  0  0  0
   63.0020   32.6750   48.1490 C   0  0  0  0  0  0  0  0  0  0  0  0
   63.0120   31.8470   47.0720 F   0  0  0  0  0  0  0  0  0  0  0  0
   59.4350   32.8070   48.1710 C   0  0  0  0  0  0  0  0  0  0  0  0
   58.2800   32.7490   47.3870 C   0  0  0  0  0  0  0  0  0  0  0  0
   61.2133   27.7018   45.3430 H   0  0  0  0  0  0  0  0  0  0  0  0
   60.0915   28.5988   44.2642 H   0  0  0  0  0  0  0  0  0  0  0  0
   61.8442   28.9921   44.2642 H   0  0  0  0  0  0  0  0  0  0  0  0
   61.1190   29.3046   46.9460 H   0  0  0  0  0  0  0  0  0  0  0  0
   61.3130   30.6288   45.7289 H   0  0  0  0  0  0  0  0  0  0  0  0
   57.7751   29.8125   47.5296 H   0  0  0  0  0  0  0  0  0  0  0  0
   58.5420   28.2817   46.9506 H   0  0  0  0  0  0  0  0  0  0  0  0
   59.0629   29.3251   49.3871 H   0  0  0  0  0  0  0  0  0  0  0  0
   60.2954   28.4309   48.4342 H   0  0  0  0  0  0  0  0  0  0  0  0
   60.2896   30.2272   48.4342 H   0  0  0  0  0  0  0  0  0  0  0  0
   58.7333   30.6477   44.1636 H   0  0  0  0  0  0  0  0  0  0  0  0
   58.9695   28.8796   44.3768 H   0  0  0  0  0  0  0  0  0  0  0  0
   56.6944   28.8062   44.5472 H   0  0  0  0  0  0  0  0  0  0  0  0
   56.9706   29.4212   46.2196 H   0  0  0  0  0  0  0  0  0  0  0  0
   57.0021   34.1102   44.6136 H   0  0  0  0  0  0  0  0  0  0  0  0
   56.1632   33.1898   45.9099 H   0  0  0  0  0  0  0  0  0  0  0  0
   59.4906   34.1622   44.5187 H   0  0  0  0  0  0  0  0  0  0  0  0
   61.5544   34.2563   45.9098 H   0  0  0  0  0  0  0  0  0  0  0  0
   60.9703   34.7982   49.9111 H   0  0  0  0  0  0  0  0  0  0  0  0
   63.0212   34.9406   51.3227 H   0  0  0  0  0  0  0  0  0  0  0  0
   65.0575   33.6374   50.7080 H   0  0  0  0  0  0  0  0  0  0  0  0
   65.0447   32.1808   48.6814 H   0  0  0  0  0  0  0  0  0  0  0  0
   59.4130   32.4324   49.2050 H   0  0  0  0  0  0  0  0  0  0  0  0
   57.3539   32.3306   47.8082 H   0  0  0  0  0  0  0  0  0  0  0  0
  1  2  1  0
  2  3  1  0
  3  4  1  0
  4  5  1  0
  3  6  1  0
  6  7  1  0
  7  8  1  0
  8  9  1  0
  9 10  2  0
  9 11  1  0
 11 12  1  0
 12 13  2  0
 13 14  1  0
 14 15  2  0
 15 16  1  0
 16 17  2  0
 17 18  1  0
 18 19  2  0
 19 20  1  0
 20 21  2  0
 21 22  1  0
 15 23  1  0
 23 24  2  0
 24 12  1  0
 21 16  1  0
  1 25  1  0
  1 26  1  0
  1 27  1  0
  2 28  1  0
  2 29  1  0
  4 30  1  0
  4 31  1  0
  5 32  1  0
  5 33  1  0
  5 34  1  0
  6 35  1  0
  6 36  1  0
  7 37  1  0
  7 38  1  0
 11 39  1  0
 11 40  1  0
 13 41  1  0
 14 42  1  0
 17 43  1  0
 18 44  1  0
 19 45  1  0
 20 46  1  0
 23 47  1  0
 24 48  1  0
M  END
>  <UniqueID>  (31) 
28

>  <SMILES>  (31) 
CCN(CC)CCOC(=O)Cc1ccc(-c2ccccc2F)cc1

>  <Energy>  (31) 
48.15197323073722

>  <Genealogy>  (31) 
CCN(CC)CCOC(=O)Cc1ccc(-c2ccccc2F)cc1 (3D coordinates assigned)
CCN(CC)CCOC(=O)Cc1ccc(-c2ccccc2F)cc1 (optimized conformer: 48.15197323073722 kcal/mol)

>  <smiles>  (31) 
CCN(CC)CCOC(=O)Cc1ccc(-c2ccccc2F)cc1

>  <score_type>  (31) 
oracle

>  <origin>  (31) 
adg

>  <m_score__min__energy>  (31) 
-7.2699999999999996

>  <m_primary>  (31) 
energy

$$$$
31:0
     RDKit          3D

 48 50  0  0  0  0  0  0  0  0999 V2000
   57.6710   33.3280   45.5220 C   0  0  0  0  0  0  0  0  0  0  0  0
   58.7640   34.2190   46.1040 C   0  0  0  0  0  0  0  0  0  0  0  0
   59.6370   33.4490   47.0200 N   0  0  0  0  0  0  0  0  0  0  0  0
   58.8990   33.0700   48.2480 C   0  0  0  0  0  0  0  0  0  0  0  0
   59.6670   33.5320   49.4820 C   0  0  0  0  0  0  0  0  0  0  0  0
   60.8730   34.2000   47.3440 C   0  0  0  0  0  0  0  0  0  0  0  0
   62.0060   33.8560   46.3600 C   0  0  0  0  0  0  0  0  0  0  0  0
   63.3910   33.8590   47.0230 C   0  0  0  0  0  0  0  0  0  0  0  0
   63.7690   32.5100   47.4450 N   0  0  0  0  0  0  0  0  0  0  0  0
   63.1410   31.8280   48.5430 C   0  0  0  0  0  0  0  0  0  0  0  0
   63.6560   31.9750   49.8470 C   0  0  0  0  0  0  0  0  0  0  0  0
   65.2130   33.0360   50.1950 Br  0  0  0  0  0  0  0  0  0  0  0  0
   63.0580   31.3060   50.9200 C   0  0  0  0  0  0  0  0  0  0  0  0
   61.9400   30.4970   50.7160 C   0  0  0  0  0  0  0  0  0  0  0  0
   61.3960   30.3590   49.4340 C   0  0  0  0  0  0  0  0  0  0  0  0
   60.2920   29.5840   49.2250 N   0  0  0  0  0  0  0  0  0  0  0  0
   59.7450   29.4640   47.9820 C   0  0  0  0  0  0  0  0  0  0  0  0
   58.6100   28.6680   47.7640 C   0  0  0  0  0  0  0  0  0  0  0  0
   58.0660   28.5630   46.4800 C   0  0  0  0  0  0  0  0  0  0  0  0
   58.6480   29.2510   45.4100 C   0  0  0  0  0  0  0  0  0  0  0  0
   59.7780   30.0470   45.6180 C   0  0  0  0  0  0  0  0  0  0  0  0
   60.3280   30.1560   46.8990 C   0  0  0  0  0  0  0  0  0  0  0  0
   61.4290   30.9220   47.1100 N   0  0  0  0  0  0  0  0  0  0  0  0
   61.9910   31.0350   48.3430 C   0  0  0  0  0  0  0  0  0  0  0  0
   57.1016   32.8639   46.3408 H   0  0  0  0  0  0  0  0  0  0  0  0
   56.9941   33.9350   44.9028 H   0  0  0  0  0  0  0  0  0  0  0  0
   58.1291   32.5427   44.9028 H   0  0  0  0  0  0  0  0  0  0  0  0
   59.3725   34.6264   45.2832 H   0  0  0  0  0  0  0  0  0  0  0  0
   58.2903   35.0345   46.6702 H   0  0  0  0  0  0  0  0  0  0  0  0
   57.9067   33.5446   48.2377 H   0  0  0  0  0  0  0  0  0  0  0  0
   58.7891   31.9760   48.2799 H   0  0  0  0  0  0  0  0  0  0  0  0
   59.1326   33.2105   50.3881 H   0  0  0  0  0  0  0  0  0  0  0  0
   60.6741   33.0897   49.4739 H   0  0  0  0  0  0  0  0  0  0  0  0
   59.7482   34.6290   49.4739 H   0  0  0  0  0  0  0  0  0  0  0  0
   60.6632   35.2783   47.2872 H   0  0  0  0  0  0  0  0  0  0  0  0
   61.1950   33.9210   48.3581 H   0  0  0  0  0  0  0  0  0  0  0  0
   61.8180   32.8555   45.9433 H   0  0  0  0  0  0  0  0  0  0  0  0
   62.0115   34.6293   45.5777 H   0  0  0  0  0  0  0  0  0  0  0  0
   64.1342   34.2331   46.3035 H   0  0  0  0  0  0  0  0  0  0  0  0
   63.3554   34.5085   47.9101 H   0  0  0  0  0  0  0  0  0  0  0  0
   64.3700   31.9550   46.7950 H   0  0  0  0  0  0  0  0  0  0  0  0
   63.4726   31.4187   51.9326 H   0  0  0  0  0  0  0  0  0  0  0  0
   61.4848   29.9661   51.5651 H   0  0  0  0  0  0  0  0  0  0  0  0
   59.8550   29.0790   50.0310 H   0  0  0  0  0  0  0  0  0  0  0  0
   58.1483   28.1267   48.6030 H   0  0  0  0  0  0  0  0  0  0  0  0
   57.1773   27.9372   46.3108 H   0  0  0  0  0  0  0  0  0  0  0  0
   58.2152   29.1653   44.4023 H   0  0  0  0  0  0  0  0  0  0  0  0
   60.2340   30.5870   44.7751 H   0  0  0  0  0  0  0  0  0  0  0  0
  1  2  1  0
  2  3  1  0
  3  4  1  0
  4  5  1  0
  3  6  1  0
  6  7  1  0
  7  8  1  0
  8  9  1  0
  9 10  1  0
 10 11  2  0
 11 12  1  0
 11 13  1  0
 13 14  2  0
 14 15  1  0
 15 16  2  0
 16 17  1  0
 17 18  2  0
 18 19  1  0
 19 20  2  0
 20 21  1  0
 21 22  2  0
 22 23  1  0
 23 24  2  0
 24 10  1  0
 24 15  1  0
 22 17  1  0
  1 25  1  0
  1 26  1  0
  1 27  1  0
  2 28  1  0
  2 29  1  0
  4 30  1  0
  4 31  1  0
  5 32  1  0
  5 33  1  0
  5 34  1  0
  6 35  1  0
  6 36  1  0
  7 37  1  0
  7 38  1  0
  8 39  1  0
  8 40  1  0
  9 41  1  0
 13 42  1  0
 14 43  1  0
 16 44  1  0
 18 45  1  0
 19 46  1  0
 20 47  1  0
 21 48  1  0
M  CHG  1  16   1
M  END
>  <UniqueID>  (32) 
29

>  <SMILES>  (32) 
CCN(CC)CCCNc1c(Br)ccc2[nH+]c3ccccc3nc12

>  <Energy>  (32) 
53.12276991769192

>  <Genealogy>  (32) 
CCN(CC)CCCNc1c(Br)ccc2[nH+]c3ccccc3nc12 (protonated)
CCN(CC)CCCNc1c(Br)ccc2[nH+]c3ccccc3nc12 (3D coordinates assigned)
CCN(CC)CCCNc1c(Br)ccc2[nH+]c3ccccc3nc12 (optimized conformer: 53.12276991769192 kcal/mol)

>  <smiles>  (32) 
CCN(CC)CCCNc1c(Br)ccc2nc3ccccc3nc12

>  <score_type>  (32) 
oracle

>  <origin>  (32) 
adg

>  <m_score__min__energy>  (32) 
-5.8600000000000003

>  <m_primary>  (32) 
energy

$$$$
32:0
     RDKit          3D

 48 50  0  0  0  0  0  0  0  0999 V2000
   55.8950   25.6640   45.9100 C   0  0  0  0  0  0  0  0  0  0  0  0
   55.6560   27.0490   45.6800 O   0  0  0  0  0  0  0  0  0  0  0  0
   56.6400   27.9670   45.2850 C   0  0  0  0  0  0  0  0  0  0  0  0
   57.9470   27.5720   44.9420 C   0  0  0  0  0  0  0  0  0  0  0  0
   58.8900   28.5280   44.5560 C   0  0  0  0  0  0  0  0  0  0  0  0
   58.5430   29.8800   44.5070 C   0  0  0  0  0  0  0  0  0  0  0  0
   57.2400   30.2890   44.8500 C   0  0  0  0  0  0  0  0  0  0  0  0
   56.8380   31.6350   44.8240 O   0  0  0  0  0  0  0  0  0  0  0  0
   57.4920   32.6770   44.0990 C   0  0  0  0  0  0  0  0  0  0  0  0
   58.4560   33.4110   44.9780 C   0  0  0  0  0  0  0  0  0  0  0  0
   59.1520   32.8980   46.0520 C   0  0  0  0  0  0  0  0  0  0  0  0
   59.8580   33.9210   46.5710 N   0  0  0  0  0  0  0  0  0  0  0  0
   60.7460   33.8760   47.7050 C   0  0  0  0  0  0  0  0  0  0  0  0
   62.1400   33.8330   47.5200 C   0  0  0  0  0  0  0  0  0  0  0  0
   62.9990   33.7910   48.6210 C   0  0  0  0  0  0  0  0  0  0  0  0
   62.4820   33.7910   49.9220 C   0  0  0  0  0  0  0  0  0  0  0  0
   63.5710   33.7470   51.3120 S   0  0  0  0  0  0  0  0  0  0  0  0
   64.1730   35.1110   51.5100 O   0  0  0  0  0  0  0  0  0  0  0  0
   62.7850   33.4040   52.5460 O   0  0  0  0  0  0  0  0  0  0  0  0
   64.8480   32.5760   51.0920 N   0  0  0  0  0  0  0  0  0  0  0  0
   65.8310   33.0850   50.1270 C   0  0  0  0  0  0  0  0  0  0  0  0
   64.2830   31.3070   50.6190 C   0  0  0  0  0  0  0  0  0  0  0  0
   61.0960   33.8350   50.1140 C   0  0  0  0  0  0  0  0  0  0  0  0
   60.2340   33.8780   49.0150 C   0  0  0  0  0  0  0  0  0  0  0  0
   59.5890   34.9980   45.8470 N   0  0  0  0  0  0  0  0  0  0  0  0
   58.7360   34.7250   44.8710 N   0  0  0  0  0  0  0  0  0  0  0  0
   56.3000   29.3240   45.2340 C   0  0  0  0  0  0  0  0  0  0  0  0
   55.9281   25.4725   46.9927 H   0  0  0  0  0  0  0  0  0  0  0  0
   55.0857   25.0722   45.4575 H   0  0  0  0  0  0  0  0  0  0  0  0
   56.8558   25.3776   45.4575 H   0  0  0  0  0  0  0  0  0  0  0  0
   58.2264   26.5087   44.9780 H   0  0  0  0  0  0  0  0  0  0  0  0
   59.9101   28.2145   44.2895 H   0  0  0  0  0  0  0  0  0  0  0  0
   59.2895   30.6272   44.1997 H   0  0  0  0  0  0  0  0  0  0  0  0
   58.0388   32.2384   43.2513 H   0  0  0  0  0  0  0  0  0  0  0  0
   56.7326   33.3864   43.7385 H   0  0  0  0  0  0  0  0  0  0  0  0
   59.1342   31.8592   46.4134 H   0  0  0  0  0  0  0  0  0  0  0  0
   62.5563   33.8324   46.5018 H   0  0  0  0  0  0  0  0  0  0  0  0
   64.0873   33.7578   48.4648 H   0  0  0  0  0  0  0  0  0  0  0  0
   66.6816   33.5254   50.6678 H   0  0  0  0  0  0  0  0  0  0  0  0
   66.1868   32.2578   49.4952 H   0  0  0  0  0  0  0  0  0  0  0  0
   65.3609   33.8530   49.4952 H   0  0  0  0  0  0  0  0  0  0  0  0
   64.0059   30.6845   51.4825 H   0  0  0  0  0  0  0  0  0  0  0  0
   63.3893   31.5079   50.0099 H   0  0  0  0  0  0  0  0  0  0  0  0
   65.0303   30.7773   50.0099 H   0  0  0  0  0  0  0  0  0  0  0  0
   60.6839   33.8357   51.1339 H   0  0  0  0  0  0  0  0  0  0  0  0
   59.1464   33.9137   49.1757 H   0  0  0  0  0  0  0  0  0  0  0  0
   60.0060   35.9430   45.9980 H   0  0  0  0  0  0  0  0  0  0  0  0
   55.2795   29.6372   45.4994 H   0  0  0  0  0  0  0  0  0  0  0  0
  1  2  1  0
  2  3  1  0
  3  4  2  0
  4  5  1  0
  5  6  2  0
  6  7  1  0
  7  8  1  0
  8  9  1  0
  9 10  1  0
 10 11  2  0
 11 12  1  0
 12 13  1  0
 13 14  2  0
 14 15  1  0
 15 16  2  0
 16 17  1  0
 17 18  2  0
 17 19  2  0
 17 20  1  0
 20 21  1  0
 20 22  1  0
 16 23  1  0
 23 24  2  0
 12 25  1  0
 25 26  2  0
  7 27  2  0
 27  3  1  0
 26 10  1  0
 24 13  1  0
  1 28  1  0
  1 29  1  0
  1 30  1  0
  4 31  1  0
  5 32  1  0
  6 33  1  0
  9 34  1  0
  9 35  1  0
 11 36  1  0
 14 37  1  0
 15 38  1  0
 21 39  1  0
 21 40  1  0
 21 41  1  0
 22 42  1  0
 22 43  1  0
 22 44  1  0
 23 45  1  0
 24 46  1  0
 25 47  1  0
 27 48  1  0
M  CHG  1  25   1
M  END
>  <UniqueID>  (33) 
30

>  <SMILES>  (33) 
COc1cccc(OCc2cn(-c3ccc(S(=O)(=O)N(C)C)cc3)[nH+]n2)c1

>  <Energy>  (33) 
84.4081839431458

>  <Genealogy>  (33) 
COc1cccc(OCc2cn(-c3ccc(S(=O)(=O)N(C)C)cc3)[nH+]n2)c1 (protonated)
COc1cccc(OCc2cn(-c3ccc(S(=O)(=O)N(C)C)cc3)[nH+]n2)c1 (3D coordinates assigned)
COc1cccc(OCc2cn(-c3ccc(S(=O)(=O)N(C)C)cc3)[nH+]n2)c1 (optimized conformer: 84.4081839431458 kcal/mol)

>  <smiles>  (33) 
COc1cccc(OCc2cn(-c3ccc(S(=O)(=O)N(C)C)cc3)nn2)c1

>  <score_type>  (33) 
oracle

>  <origin>  (33) 
adg

>  <m_score__min__energy>  (33) 
-6.8700000000000001

>  <m_primary>  (33) 
energy

$$$$
33:0
     RDKit          3D

 44 48  0  0  0  0  0  0  0  0999 V2000
   55.9750   25.1740   45.5930 C   0  0  0  0  0  0  0  0  0  0  0  0
   55.7320   26.5770   45.6490 O   0  0  0  0  0  0  0  0  0  0  0  0
   56.6880   27.5370   46.0190 C   0  0  0  0  0  0  0  0  0  0  0  0
   57.6840   27.2710   46.9700 C   0  0  0  0  0  0  0  0  0  0  0  0
   58.6220   28.2520   47.3210 C   0  0  0  0  0  0  0  0  0  0  0  0
   59.6090   27.9400   48.2520 C   0  0  0  0  0  0  0  0  0  0  0  0
   60.5690   28.8750   48.6100 C   0  0  0  0  0  0  0  0  0  0  0  0
   60.5690   30.1780   48.0620 C   0  0  0  0  0  0  0  0  0  0  0  0
   59.5360   30.5300   47.1460 C   0  0  0  0  0  0  0  0  0  0  0  0
   59.4810   31.8640   46.6890 C   0  0  0  0  0  0  0  0  0  0  0  0
   60.4060   32.7990   47.0540 N   0  0  0  0  0  0  0  0  0  0  0  0
   60.2510   34.1660   46.5200 C   0  0  0  0  0  0  0  0  0  0  0  0
   61.4500   32.4740   47.8870 C   0  0  0  0  0  0  0  0  0  0  0  0
   62.4290   33.4460   48.2430 C   0  0  0  0  0  0  0  0  0  0  0  0
   63.4680   33.0740   49.0780 C   0  0  0  0  0  0  0  0  0  0  0  0
   63.5810   31.8230   49.5650 C   0  0  0  0  0  0  0  0  0  0  0  0
   62.6640   30.8280   49.2620 C   0  0  0  0  0  0  0  0  0  0  0  0
   61.5590   31.1410   48.4140 C   0  0  0  0  0  0  0  0  0  0  0  0
   64.7090   31.7350   50.3570 O   0  0  0  0  0  0  0  0  0  0  0  0
   65.3420   33.0220   50.3700 C   0  0  0  0  0  0  0  0  0  0  0  0
   64.5160   33.8480   49.5390 O   0  0  0  0  0  0  0  0  0  0  0  0
   58.5750   29.5430   46.7380 C   0  0  0  0  0  0  0  0  0  0  0  0
   57.5760   29.7820   45.7590 C   0  0  0  0  0  0  0  0  0  0  0  0
   56.6380   28.7920   45.4080 C   0  0  0  0  0  0  0  0  0  0  0  0
   55.6360   29.0180   44.4480 O   0  0  0  0  0  0  0  0  0  0  0  0
   55.8170   29.7430   43.2360 C   0  0  0  0  0  0  0  0  0  0  0  0
   56.0445   24.7728   46.6149 H   0  0  0  0  0  0  0  0  0  0  0  0
   55.1491   24.6798   45.0604 H   0  0  0  0  0  0  0  0  0  0  0  0
   56.9190   24.9863   45.0604 H   0  0  0  0  0  0  0  0  0  0  0  0
   57.7297   26.2805   47.4463 H   0  0  0  0  0  0  0  0  0  0  0  0
   59.6278   26.9397   48.7093 H   0  0  0  0  0  0  0  0  0  0  0  0
   61.3471   28.5965   49.3360 H   0  0  0  0  0  0  0  0  0  0  0  0
   58.6640   32.1608   46.0149 H   0  0  0  0  0  0  0  0  0  0  0  0
   60.1702   34.8785   47.3541 H   0  0  0  0  0  0  0  0  0  0  0  0
   61.1261   34.4204   45.9039 H   0  0  0  0  0  0  0  0  0  0  0  0
   59.3412   34.2180   45.9039 H   0  0  0  0  0  0  0  0  0  0  0  0
   62.3601   34.4750   47.8605 H   0  0  0  0  0  0  0  0  0  0  0  0
   62.7861   29.8133   49.6687 H   0  0  0  0  0  0  0  0  0  0  0  0
   65.3840   33.4223   51.3937 H   0  0  0  0  0  0  0  0  0  0  0  0
   66.3796   32.9767   50.0077 H   0  0  0  0  0  0  0  0  0  0  0  0
   57.5333   30.7629   45.2630 H   0  0  0  0  0  0  0  0  0  0  0  0
   56.0774   30.7862   43.4682 H   0  0  0  0  0  0  0  0  0  0  0  0
   56.6281   29.2839   42.6517 H   0  0  0  0  0  0  0  0  0  0  0  0
   54.8853   29.7190   42.6517 H   0  0  0  0  0  0  0  0  0  0  0  0
  1  2  1  0
  2  3  1  0
  3  4  2  0
  4  5  1  0
  5  6  2  0
  6  7  1  0
  7  8  2  0
  8  9  1  0
  9 10  1  0
 10 11  2  0
 11 12  1  0
 11 13  1  0
 13 14  2  0
 14 15  1  0
 15 16  2  0
 16 17  1  0
 17 18  2  0
 16 19  1  0
 19 20  1  0
 20 21  1  0
  9 22  2  0
 22 23  1  0
 23 24  2  0
 24 25  1  0
 25 26  1  0
 24  3  1  0
 22  5  1  0
 18  8  1  0
 18 13  1  0
 21 15  1  0
  1 27  1  0
  1 28  1  0
  1 29  1  0
  4 30  1  0
  6 31  1  0
  7 32  1  0
 10 33  1  0
 12 34  1  0
 12 35  1  0
 12 36  1  0
 14 37  1  0
 17 38  1  0
 20 39  1  0
 20 40  1  0
 23 41  1  0
 26 42  1  0
 26 43  1  0
 26 44  1  0
M  CHG  1  11   1
M  END
>  <UniqueID>  (34) 
31

>  <SMILES>  (34) 
COc1cc2ccc3c(c[n+](C)c4cc5c(cc34)OCO5)c2cc1OC

>  <Energy>  (34) 
102.29173972908963

>  <Genealogy>  (34) 
COc1cc2ccc3c(c[n+](C)c4cc5c(cc34)OCO5)c2cc1OC (3D coordinates assigned)
COc1cc2ccc3c(c[n+](C)c4cc5c(cc34)OCO5)c2cc1OC (nonaromatic ring conformer: 102.29173972908963 kcal/mol)

>  <smiles>  (34) 
COc1cc2ccc3c(c[n+](C)c4cc5c(cc34)OCO5)c2cc1OC

>  <score_type>  (34) 
oracle

>  <origin>  (34) 
adg

>  <m_score__min__energy>  (34) 
-5.6699999999999999

>  <m_primary>  (34) 
energy

$$$$
34:0
     RDKit          3D

 43 44  0  0  0  0  0  0  0  0999 V2000
   65.6380   33.8310   50.8500 C   0  0  0  0  0  0  0  0  0  0  0  0
   65.8640   32.6720   49.9690 N   0  0  0  0  0  0  0  0  0  0  0  0
   66.9570   31.8420   50.5100 C   0  0  0  0  0  0  0  0  0  0  0  0
   64.6130   31.8910   49.8310 C   0  0  0  0  0  0  0  0  0  0  0  0
   63.4950   32.7360   49.3810 C   0  0  0  0  0  0  0  0  0  0  0  0
   62.5790   33.4280   49.0130 C   0  0  0  0  0  0  0  0  0  0  0  0
   61.4630   34.2680   48.5650 C   0  0  0  0  0  0  0  0  0  0  0  0
   60.5460   33.4860   47.7140 N   0  0  0  0  0  0  0  0  0  0  0  0
   60.5380   34.0230   46.3340 C   0  0  0  0  0  0  0  0  0  0  0  0
   59.3400   33.5280   45.4900 C   0  0  0  0  0  0  0  0  0  0  0  0
   58.6580   32.3910   46.1200 N   0  0  0  0  0  0  0  0  0  0  0  0
   58.1180   31.3460   45.3010 C   0  0  0  0  0  0  0  0  0  0  0  0
   57.0020   31.6110   44.4960 C   0  0  0  0  0  0  0  0  0  0  0  0
   56.4580   30.6050   43.6930 C   0  0  0  0  0  0  0  0  0  0  0  0
   57.0270   29.3290   43.6880 C   0  0  0  0  0  0  0  0  0  0  0  0
   58.1430   29.0590   44.4850 C   0  0  0  0  0  0  0  0  0  0  0  0
   58.6940   30.0610   45.2920 C   0  0  0  0  0  0  0  0  0  0  0  0
   60.2370   29.6510   46.3500 Br  0  0  0  0  0  0  0  0  0  0  0  0
   58.3800   32.3780   47.5590 C   0  0  0  0  0  0  0  0  0  0  0  0
   59.1830   33.4630   48.2730 C   0  0  0  0  0  0  0  0  0  0  0  0
   65.7004   33.5107   51.9005 H   0  0  0  0  0  0  0  0  0  0  0  0
   66.4039   34.5957   50.6536 H   0  0  0  0  0  0  0  0  0  0  0  0
   64.6409   34.2519   50.6536 H   0  0  0  0  0  0  0  0  0  0  0  0
   66.1530   33.0360   49.0280 H   0  0  0  0  0  0  0  0  0  0  0  0
   66.9258   31.8657   51.6093 H   0  0  0  0  0  0  0  0  0  0  0  0
   66.8369   30.8054   50.1620 H   0  0  0  0  0  0  0  0  0  0  0  0
   67.9233   32.2360   50.1620 H   0  0  0  0  0  0  0  0  0  0  0  0
   64.7723   31.0882   49.0961 H   0  0  0  0  0  0  0  0  0  0  0  0
   64.3558   31.4753   50.8164 H   0  0  0  0  0  0  0  0  0  0  0  0
   60.9146   34.6418   49.4423 H   0  0  0  0  0  0  0  0  0  0  0  0
   61.8606   35.1123   47.9827 H   0  0  0  0  0  0  0  0  0  0  0  0
   60.4973   35.1210   46.3872 H   0  0  0  0  0  0  0  0  0  0  0  0
   61.4535   33.6647   45.8405 H   0  0  0  0  0  0  0  0  0  0  0  0
   58.6220   34.3532   45.3738 H   0  0  0  0  0  0  0  0  0  0  0  0
   59.7248   33.1962   44.5144 H   0  0  0  0  0  0  0  0  0  0  0  0
   56.5524   32.6149   44.4962 H   0  0  0  0  0  0  0  0  0  0  0  0
   55.5809   30.8180   43.0642 H   0  0  0  0  0  0  0  0  0  0  0  0
   56.5969   28.5372   43.0571 H   0  0  0  0  0  0  0  0  0  0  0  0
   58.5904   28.0541   44.4780 H   0  0  0  0  0  0  0  0  0  0  0  0
   57.3069   32.5571   47.7212 H   0  0  0  0  0  0  0  0  0  0  0  0
   58.6689   31.3979   47.9665 H   0  0  0  0  0  0  0  0  0  0  0  0
   58.7031   34.4407   48.1189 H   0  0  0  0  0  0  0  0  0  0  0  0
   59.2235   33.2511   49.3516 H   0  0  0  0  0  0  0  0  0  0  0  0
  1  2  1  0
  2  3  1  0
  2  4  1  0
  4  5  1  0
  5  6  3  0
  6  7  1  0
  7  8  1  0
  8  9  1  0
  9 10  1  0
 10 11  1  0
 11 12  1  0
 12 13  2  0
 13 14  1  0
 14 15  2  0
 15 16  1  0
 16 17  2  0
 17 18  1  0
 11 19  1  0
 19 20  1  0
 20  8  1  0
 17 12  1  0
  1 21  1  0
  1 22  1  0
  1 23  1  0
  2 24  1  0
  3 25  1  0
  3 26  1  0
  3 27  1  0
  4 28  1  0
  4 29  1  0
  7 30  1  0
  7 31  1  0
  9 32  1  0
  9 33  1  0
 10 34  1  0
 10 35  1  0
 13 36  1  0
 14 37  1  0
 15 38  1  0
 16 39  1  0
 19 40  1  0
 19 41  1  0
 20 42  1  0
 20 43  1  0
M  CHG  1   2   1
M  END
>  <UniqueID>  (35) 
32

>  <SMILES>  (35) 
C[NH+](C)CC#CCN1CCN(c2ccccc2Br)CC1

>  <Energy>  (35) 
49.288193974688625

>  <Genealogy>  (35) 
C[NH+](C)CC#CCN1CCN(c2ccccc2Br)CC1 (protonated)
C[NH+](C)CC#CCN1CCN(c2ccccc2Br)CC1 (3D coordinates assigned)
C[NH+](C)CC#CCN1CCN(c2ccccc2Br)CC1 (nonaromatic ring conformer: 49.288193974688625 kcal/mol)

>  <smiles>  (35) 
CN(C)CC#CCN1CCN(c2ccccc2Br)CC1

>  <score_type>  (35) 
oracle

>  <origin>  (35) 
adg

>  <m_score__min__energy>  (35) 
-5.0099999999999998

>  <m_primary>  (35) 
energy

$$$$
35:0
     RDKit          3D

 46 48  0  0  0  0  0  0  0  0999 V2000
   56.6010   30.0460   43.3020 C   0  0  0  0  0  0  0  0  0  0  0  0
   56.4290   30.7930   44.5030 O   0  0  0  0  0  0  0  0  0  0  0  0
   57.3100   31.7910   44.9510 C   0  0  0  0  0  0  0  0  0  0  0  0
   57.3930   33.0490   44.3270 C   0  0  0  0  0  0  0  0  0  0  0  0
   58.2790   34.0170   44.8020 C   0  0  0  0  0  0  0  0  0  0  0  0
   59.0890   33.7520   45.9150 C   0  0  0  0  0  0  0  0  0  0  0  0
   60.0470   34.7980   46.4320 C   0  0  0  0  0  0  0  0  0  0  0  0
   61.2300   34.1650   47.1270 C   0  0  0  0  0  0  0  0  0  0  0  0
   62.3330   33.9000   46.3750 N   0  0  0  0  0  0  0  0  0  0  0  0
   63.4400   33.3050   46.8840 C   0  0  0  0  0  0  0  0  0  0  0  0
   63.4800   32.9330   48.2250 C   0  0  0  0  0  0  0  0  0  0  0  0
   62.3700   33.1770   49.0420 C   0  0  0  0  0  0  0  0  0  0  0  0
   62.3940   32.7990   50.3920 C   0  0  0  0  0  0  0  0  0  0  0  0
   61.2830   33.0330   51.2210 C   0  0  0  0  0  0  0  0  0  0  0  0
   61.2730   32.6620   52.5750 O   0  0  0  0  0  0  0  0  0  0  0  0
   61.7290   33.4860   53.6430 C   0  0  0  0  0  0  0  0  0  0  0  0
   60.1420   33.6540   50.6940 C   0  0  0  0  0  0  0  0  0  0  0  0
   59.0490   33.8660   51.5490 O   0  0  0  0  0  0  0  0  0  0  0  0
   58.1570   32.8460   51.9920 C   0  0  0  0  0  0  0  0  0  0  0  0
   60.1180   34.0430   49.3430 C   0  0  0  0  0  0  0  0  0  0  0  0
   61.2220   33.8040   48.5010 C   0  0  0  0  0  0  0  0  0  0  0  0
   59.0210   32.4910   46.5290 C   0  0  0  0  0  0  0  0  0  0  0  0
   58.1290   31.5090   46.0560 C   0  0  0  0  0  0  0  0  0  0  0  0
   58.0280   30.2440   46.6550 O   0  0  0  0  0  0  0  0  0  0  0  0
   59.1180   29.5380   47.2400 C   0  0  0  0  0  0  0  0  0  0  0  0
   56.8414   29.0018   43.5509 H   0  0  0  0  0  0  0  0  0  0  0  0
   55.6719   30.0782   42.7139 H   0  0  0  0  0  0  0  0  0  0  0  0
   57.4224   30.4812   42.7139 H   0  0  0  0  0  0  0  0  0  0  0  0
   56.7552   33.2712   43.4588 H   0  0  0  0  0  0  0  0  0  0  0  0
   58.3421   34.9938   44.3000 H   0  0  0  0  0  0  0  0  0  0  0  0
   60.4091   35.4012   45.5864 H   0  0  0  0  0  0  0  0  0  0  0  0
   59.5135   35.4274   47.1595 H   0  0  0  0  0  0  0  0  0  0  0  0
   64.3084   33.1158   46.2359 H   0  0  0  0  0  0  0  0  0  0  0  0
   64.3776   32.4507   48.6395 H   0  0  0  0  0  0  0  0  0  0  0  0
   63.2906   32.3148   50.8063 H   0  0  0  0  0  0  0  0  0  0  0  0
   61.4698   33.0176   54.6039 H   0  0  0  0  0  0  0  0  0  0  0  0
   62.8206   33.6036   53.5751 H   0  0  0  0  0  0  0  0  0  0  0  0
   61.2489   34.4734   53.5751 H   0  0  0  0  0  0  0  0  0  0  0  0
   58.1397   32.8263   53.0917 H   0  0  0  0  0  0  0  0  0  0  0  0
   57.1454   33.0536   51.6131 H   0  0  0  0  0  0  0  0  0  0  0  0
   58.4976   31.8711   51.6131 H   0  0  0  0  0  0  0  0  0  0  0  0
   59.2247   34.5409   48.9378 H   0  0  0  0  0  0  0  0  0  0  0  0
   59.6709   32.2679   47.3880 H   0  0  0  0  0  0  0  0  0  0  0  0
   59.0411   29.5878   48.3362 H   0  0  0  0  0  0  0  0  0  0  0  0
   59.0891   28.4866   46.9178 H   0  0  0  0  0  0  0  0  0  0  0  0
   60.0656   29.9943   46.9178 H   0  0  0  0  0  0  0  0  0  0  0  0
  1  2  1  0
  2  3  1  0
  3  4  2  0
  4  5  1  0
  5  6  2  0
  6  7  1  0
  7  8  1  0
  8  9  2  0
  9 10  1  0
 10 11  2  0
 11 12  1  0
 12 13  2  0
 13 14  1  0
 14 15  1  0
 15 16  1  0
 14 17  2  0
 17 18  1  0
 18 19  1  0
 17 20  1  0
 20 21  2  0
  6 22  1  0
 22 23  2  0
 23 24  1  0
 24 25  1  0
 23  3  1  0
 21  8  1  0
 21 12  1  0
  1 26  1  0
  1 27  1  0
  1 28  1  0
  4 29  1  0
  5 30  1  0
  7 31  1  0
  7 32  1  0
 10 33  1  0
 11 34  1  0
 13 35  1  0
 16 36  1  0
 16 37  1  0
 16 38  1  0
 19 39  1  0
 19 40  1  0
 19 41  1  0
 20 42  1  0
 22 43  1  0
 25 44  1  0
 25 45  1  0
 25 46  1  0
M  END
>  <UniqueID>  (36) 
33

>  <SMILES>  (36) 
COc1ccc(Cc2nccc3cc(OC)c(OC)cc23)cc1OC

>  <Energy>  (36) 
50.46564396803542

>  <Genealogy>  (36) 
COc1ccc(Cc2nccc3cc(OC)c(OC)cc23)cc1OC (3D coordinates assigned)
COc1ccc(Cc2nccc3cc(OC)c(OC)cc23)cc1OC (optimized conformer: 50.46564396803542 kcal/mol)

>  <smiles>  (36) 
COc1ccc(Cc2nccc3cc(OC)c(OC)cc23)cc1OC

>  <score_type>  (36) 
oracle

>  <origin>  (36) 
adg

>  <m_score__min__energy>  (36) 
-7.2000000000000002

>  <m_primary>  (36) 
energy

$$$$
36:0
     RDKit          3D

 50 52  0  0  0  0  0  0  0  0999 V2000
   58.3980   32.1270   47.4290 O   0  0  0  0  0  0  0  0  0  0  0  0
   59.1450   32.9560   46.8430 C   0  0  0  0  0  0  0  0  0  0  0  0
   58.5310   34.2030   46.2640 C   0  0  0  0  0  0  0  0  0  0  0  0
   57.0600   33.8120   45.2530 S   0  0  0  0  0  0  0  0  0  0  0  0
   57.9160   32.6910   44.0930 C   0  0  0  0  0  0  0  0  0  0  0  0
   57.4090   31.2840   44.3070 C   0  0  0  0  0  0  0  0  0  0  0  0
   56.3020   31.1530   44.8170 O   0  0  0  0  0  0  0  0  0  0  0  0
   58.1490   30.0870   43.9280 N   0  0  0  0  0  0  0  0  0  0  0  0
   59.2420   29.6880   44.8240 C   0  0  0  0  0  0  0  0  0  0  0  0
   59.5000   28.2200   44.5360 C   0  0  0  0  0  0  0  0  0  0  0  0
   58.1540   27.6790   44.0760 C   0  0  0  0  0  0  0  0  0  0  0  0
   57.2720   28.9090   43.8700 C   0  0  0  0  0  0  0  0  0  0  0  0
   60.5720   32.7330   46.8120 N   0  0  0  0  0  0  0  0  0  0  0  0
   61.1250   31.4010   47.1000 C   0  0  0  0  0  0  0  0  0  0  0  0
   62.1000   31.4940   48.2800 C   0  0  0  0  0  0  0  0  0  0  0  0
   62.9880   32.6620   48.1480 N   0  0  0  0  0  0  0  0  0  0  0  0
   63.7830   33.0810   49.2760 C   0  0  0  0  0  0  0  0  0  0  0  0
   65.1290   32.6890   49.3720 C   0  0  0  0  0  0  0  0  0  0  0  0
   65.9030   33.0820   50.4670 C   0  0  0  0  0  0  0  0  0  0  0  0
   65.3420   33.8760   51.4700 C   0  0  0  0  0  0  0  0  0  0  0  0
   64.0090   34.2770   51.3830 C   0  0  0  0  0  0  0  0  0  0  0  0
   63.2270   33.8830   50.2930 C   0  0  0  0  0  0  0  0  0  0  0  0
   61.9220   34.2490   50.2520 F   0  0  0  0  0  0  0  0  0  0  0  0
   62.9480   33.4770   46.9250 C   0  0  0  0  0  0  0  0  0  0  0  0
   61.4970   33.8610   46.5990 C   0  0  0  0  0  0  0  0  0  0  0  0
   58.2335   34.8707   47.0860 H   0  0  0  0  0  0  0  0  0  0  0  0
   59.2768   34.6890   45.6178 H   0  0  0  0  0  0  0  0  0  0  0  0
   57.7112   33.0038   43.0585 H   0  0  0  0  0  0  0  0  0  0  0  0
   59.0007   32.7272   44.2722 H   0  0  0  0  0  0  0  0  0  0  0  0
   58.5490   30.2480   42.9710 H   0  0  0  0  0  0  0  0  0  0  0  0
   60.1436   30.2830   44.6165 H   0  0  0  0  0  0  0  0  0  0  0  0
   58.9800   29.8529   45.8795 H   0  0  0  0  0  0  0  0  0  0  0  0
   60.2557   28.1061   43.7448 H   0  0  0  0  0  0  0  0  0  0  0  0
   59.8880   27.6836   45.4144 H   0  0  0  0  0  0  0  0  0  0  0  0
   58.2645   27.1224   43.1337 H   0  0  0  0  0  0  0  0  0  0  0  0
   57.7206   26.9827   44.8090 H   0  0  0  0  0  0  0  0  0  0  0  0
   56.7753   28.8568   42.8899 H   0  0  0  0  0  0  0  0  0  0  0  0
   56.4920   28.9643   44.6436 H   0  0  0  0  0  0  0  0  0  0  0  0
   60.3064   30.7118   47.3547 H   0  0  0  0  0  0  0  0  0  0  0  0
   61.6583   31.0269   46.2136 H   0  0  0  0  0  0  0  0  0  0  0  0
   61.5254   31.5841   49.2137 H   0  0  0  0  0  0  0  0  0  0  0  0
   62.7198   30.5853   48.2915 H   0  0  0  0  0  0  0  0  0  0  0  0
   65.5759   32.0692   48.5807 H   0  0  0  0  0  0  0  0  0  0  0  0
   66.9542   32.7661   50.5391 H   0  0  0  0  0  0  0  0  0  0  0  0
   65.9531   34.1858   52.3306 H   0  0  0  0  0  0  0  0  0  0  0  0
   63.5720   34.9046   52.1736 H   0  0  0  0  0  0  0  0  0  0  0  0
   63.5418   34.3906   47.0761 H   0  0  0  0  0  0  0  0  0  0  0  0
   63.3650   32.8960   46.0892 H   0  0  0  0  0  0  0  0  0  0  0  0
   61.1953   34.6965   47.2478 H   0  0  0  0  0  0  0  0  0  0  0  0
   61.4489   34.1475   45.5381 H   0  0  0  0  0  0  0  0  0  0  0  0
  1  2  2  0
  2  3  1  0
  3  4  1  0
  4  5  1  0
  5  6  1  0
  6  7  2  0
  6  8  1  0
  8  9  1  0
  9 10  1  0
 10 11  1  0
 11 12  1  0
  2 13  1  0
 13 14  1  0
 14 15  1  0
 15 16  1  0
 16 17  1  0
 17 18  2  0
 18 19  1  0
 19 20  2  0
 20 21  1  0
 21 22  2  0
 22 23  1  0
 16 24  1  0
 24 25  1  0
 12  8  1  0
 25 13  1  0
 22 17  1  0
  3 26  1  0
  3 27  1  0
  5 28  1  0
  5 29  1  0
  8 30  1  0
  9 31  1  0
  9 32  1  0
 10 33  1  0
 10 34  1  0
 11 35  1  0
 11 36  1  0
 12 37  1  0
 12 38  1  0
 14 39  1  0
 14 40  1  0
 15 41  1  0
 15 42  1  0
 18 43  1  0
 19 44  1  0
 20 45  1  0
 21 46  1  0
 24 47  1  0
 24 48  1  0
 25 49  1  0
 25 50  1  0
M  CHG  1   8   1
M  END
>  <UniqueID>  (37) 
34

>  <SMILES>  (37) 
O=C(CSCC(=O)[NH+]1CCCC1)N1CCN(c2ccccc2F)CC1

>  <Energy>  (37) 
59.18799306468012

>  <Genealogy>  (37) 
O=C(CSCC(=O)[NH+]1CCCC1)N1CCN(c2ccccc2F)CC1 (protonated)
O=C(CSCC(=O)[NH+]1CCCC1)N1CCN(c2ccccc2F)CC1 (3D coordinates assigned)
O=C(CSCC(=O)[NH+]1CCCC1)N1CCN(c2ccccc2F)CC1 (nonaromatic ring conformer: 59.18799306468012 kcal/mol)

>  <smiles>  (37) 
O=C(CSCC(=O)N1CCN(c2ccccc2F)CC1)N1CCCC1

>  <score_type>  (37) 
oracle

>  <origin>  (37) 
adg

>  <m_score__min__energy>  (37) 
-6.6299999999999999

>  <m_primary>  (37) 
energy

$$$$
37:0
     RDKit          3D

 31 33  0  0  0  0  0  0  0  0999 V2000
   56.7110   30.8926   41.4275 H   0  0  0  0  0  0  0  0  0  0  0  0
   56.7940   30.8380   42.5230 C   0  0  0  0  0  0  0  0  0  0  0  0
   56.2990   29.7630   43.1880 N   0  0  0  0  0  0  0  0  0  0  0  0
   56.4010   29.6680   44.5420 C   0  0  0  0  0  0  0  0  0  0  0  0
   55.9110   28.6500   45.1870 N   0  0  0  0  0  0  0  0  0  0  0  0
   56.6270   27.4900   45.6450 C   0  0  0  0  0  0  0  0  0  0  0  0
   58.0280   27.5260   45.6570 C   0  0  0  0  0  0  0  0  0  0  0  0
   58.5537   28.4405   45.3450 H   0  0  0  0  0  0  0  0  0  0  0  0
   58.7620   26.4070   46.0630 C   0  0  0  0  0  0  0  0  0  0  0  0
   59.8610   26.4493   46.0849 H   0  0  0  0  0  0  0  0  0  0  0  0
   58.1010   25.2350   46.4410 C   0  0  0  0  0  0  0  0  0  0  0  0
   58.6784   24.3582   46.7694 H   0  0  0  0  0  0  0  0  0  0  0  0
   56.7040   25.1790   46.4010 C   0  0  0  0  0  0  0  0  0  0  0  0
   56.1834   24.2538   46.6889 H   0  0  0  0  0  0  0  0  0  0  0  0
   55.9680   26.2960   45.9960 C   0  0  0  0  0  0  0  0  0  0  0  0
   54.8702   26.2423   45.9513 H   0  0  0  0  0  0  0  0  0  0  0  0
   56.9860   30.6750   45.2410 N   0  0  0  0  0  0  0  0  0  0  0  0
   57.4920   31.7800   44.6250 C   0  0  0  0  0  0  0  0  0  0  0  0
   58.1290   32.8430   45.4440 C   0  0  0  0  0  0  0  0  0  0  0  0
   58.6880   33.9930   44.8590 C   0  0  0  0  0  0  0  0  0  0  0  0
   58.6648   34.1189   43.7665 H   0  0  0  0  0  0  0  0  0  0  0  0
   59.2720   34.9750   45.6600 C   0  0  0  0  0  0  0  0  0  0  0  0
   59.7136   35.8731   45.2034 H   0  0  0  0  0  0  0  0  0  0  0  0
   59.2910   34.8080   47.0440 C   0  0  0  0  0  0  0  0  0  0  0  0
   59.7530   35.5749   47.6831 H   0  0  0  0  0  0  0  0  0  0  0  0
   58.7400   33.7000   47.6050 N   0  0  0  0  0  0  0  0  0  0  0  0
   58.7590   33.5900   48.6440 H   0  0  0  0  0  0  0  0  0  0  0  0
   58.1640   32.7280   46.8450 C   0  0  0  0  0  0  0  0  0  0  0  0
   57.7224   31.8455   47.3310 H   0  0  0  0  0  0  0  0  0  0  0  0
   57.4070   31.8720   43.2270 C   0  0  0  0  0  0  0  0  0  0  0  0
   57.8169   32.7445   42.6971 H   0  0  0  0  0  0  0  0  0  0  0  0
  1  2  1  0
  2  3  1  0
  3  4  1  0
  4  5  2  0
  5  6  1  0
  6  7  2  0
  7  8  1  0
  7  9  1  0
  9 10  1  0
  9 11  2  0
 11 12  1  0
 11 13  1  0
 13 14  1  0
 13 15  2  0
 15 16  1  0
  4 17  1  0
 17 18  2  0
 18 19  1  0
 19 20  2  0
 20 21  1  0
 20 22  1  0
 22 23  1  0
 22 24  2  0
 24 25  1  0
 24 26  1  0
 26 27  1  0
 26 28  2  0
 28 29  1  0
 18 30  1  0
 30 31  1  0
 30  2  2  0
 15  6  1  0
 28 19  1  0
M  CHG  2   3  -1  26   1
M  END
>  <UniqueID>  (38) 
35

>  <SMILES>  (38) 
c1ccc(/N=c2/nc(-c3ccc[nH+]c3)cc[n-]2)cc1

>  <Energy>  (38) 
45.109324201221504

>  <Genealogy>  (38) 
c1ccc(N=c2nc(-c3ccc[nH+]c3)cc[n-]2)cc1 (protonated)
c1ccc(/N=c2/nc(-c3ccc[nH+]c3)cc[n-]2)cc1 (cis-trans isomerization)
c1ccc(/N=c2/nc(-c3ccc[nH+]c3)cc[n-]2)cc1 (3D coordinates assigned)
c1ccc(/N=c2/nc(-c3ccc[nH+]c3)cc[n-]2)cc1 (optimized conformer: 45.109324201221504 kcal/mol)

>  <smiles>  (38) 
c1ccc(N=c2nc(-c3cccnc3)cc[nH]2)cc1

>  <score_type>  (38) 
oracle

>  <origin>  (38) 
adg

>  <m_score__min__energy>  (38) 
-7.3700000000000001

>  <m_primary>  (38) 
energy

$$$$
38:0
     RDKit          3D

 39 41  0  0  0  0  0  0  0  0999 V2000
   56.5600   30.2020   43.0820 C   0  0  0  0  0  0  0  0  0  0  0  0
   57.6090   31.1680   43.6220 C   0  0  0  0  0  0  0  0  0  0  0  0
   57.4040   31.4290   45.1180 C   0  0  0  0  0  0  0  0  0  0  0  0
   58.3920   32.3970   45.6050 N   0  0  0  0  0  0  0  0  0  0  0  0
   58.3030   33.7500   45.5460 C   0  0  0  0  0  0  0  0  0  0  0  0
   57.1970   34.5060   44.8750 C   0  0  0  0  0  0  0  0  0  0  0  0
   59.3750   34.3370   46.2020 C   0  0  0  0  0  0  0  0  0  0  0  0
   60.1280   33.2880   46.6900 C   0  0  0  0  0  0  0  0  0  0  0  0
   59.5160   32.1270   46.3030 C   0  0  0  0  0  0  0  0  0  0  0  0
   60.0040   30.7850   46.7470 C   0  0  0  0  0  0  0  0  0  0  0  0
   61.4920   30.8860   47.1300 C   0  0  0  0  0  0  0  0  0  0  0  0
   61.7480   32.0120   48.0700 N   0  0  1  0  0  0  0  0  0  0  0  0
   63.1880   32.1280   48.3550 C   0  0  0  0  0  0  0  0  0  0  0  0
   63.7750   33.1430   47.3750 C   0  0  0  0  0  0  0  0  0  0  0  0
   62.5830   33.8430   46.7400 C   0  0  0  0  0  0  0  0  0  0  0  0
   61.3780   33.3380   47.5230 C   0  0  1  0  0  0  0  0  0  0  0  0
   56.0376   29.7209   43.9220 H   0  0  0  0  0  0  0  0  0  0  0  0
   55.8344   30.7548   42.4672 H   0  0  0  0  0  0  0  0  0  0  0  0
   57.0512   29.4334   42.4672 H   0  0  0  0  0  0  0  0  0  0  0  0
   58.6085   30.7357   43.4669 H   0  0  0  0  0  0  0  0  0  0  0  0
   57.5120   32.1232   43.0852 H   0  0  0  0  0  0  0  0  0  0  0  0
   56.3925   31.8292   45.2814 H   0  0  0  0  0  0  0  0  0  0  0  0
   57.5280   30.4838   45.6668 H   0  0  0  0  0  0  0  0  0  0  0  0
   56.5429   34.9531   45.6381 H   0  0  0  0  0  0  0  0  0  0  0  0
   57.6249   35.3014   44.2472 H   0  0  0  0  0  0  0  0  0  0  0  0
   56.6112   33.8185   44.2472 H   0  0  0  0  0  0  0  0  0  0  0  0
   59.5816   35.4120   46.3105 H   0  0  0  0  0  0  0  0  0  0  0  0
   59.4218   30.4523   47.6190 H   0  0  0  0  0  0  0  0  0  0  0  0
   59.8823   30.0595   45.9292 H   0  0  0  0  0  0  0  0  0  0  0  0
   61.8005   29.9453   47.6095 H   0  0  0  0  0  0  0  0  0  0  0  0
   62.0687   31.0706   46.2117 H   0  0  0  0  0  0  0  0  0  0  0  0
   61.2270   31.8360   48.9620 H   0  0  0  0  0  0  0  0  0  0  0  0
   63.3388   32.4742   49.3882 H   0  0  0  0  0  0  0  0  0  0  0  0
   63.6831   31.1522   48.2419 H   0  0  0  0  0  0  0  0  0  0  0  0
   64.4064   33.8692   47.9080 H   0  0  0  0  0  0  0  0  0  0  0  0
   64.4086   32.6562   46.6190 H   0  0  0  0  0  0  0  0  0  0  0  0
   62.6780   34.9347   46.8352 H   0  0  0  0  0  0  0  0  0  0  0  0
   62.4996   33.6307   45.6639 H   0  0  0  0  0  0  0  0  0  0  0  0
   61.1339   34.0345   48.3387 H   0  0  0  0  0  0  0  0  0  0  0  0
  1  2  1  0
  2  3  1  0
  3  4  1  0
  4  5  1  0
  5  6  1  0
  5  7  2  0
  7  8  1  0
  8  9  2  0
  9 10  1  0
 10 11  1  0
 11 12  1  0
 12 13  1  0
 13 14  1  0
 14 15  1  0
 15 16  1  0
  9  4  1  0
 16 12  1  0
 16  8  1  0
  1 17  1  0
  1 18  1  0
  1 19  1  0
  2 20  1  0
  2 21  1  0
  3 22  1  0
  3 23  1  0
  6 24  1  0
  6 25  1  0
  6 26  1  0
  7 27  1  0
 10 28  1  0
 10 29  1  0
 11 30  1  0
 11 31  1  0
 12 32  1  1
 13 33  1  0
 13 34  1  0
 14 35  1  0
 14 36  1  0
 15 37  1  0
 15 38  1  0
 16 39  1  1
M  CHG  1  12   1
M  END
>  <UniqueID>  (39) 
36

>  <SMILES>  (39) 
CCCn1c(C)cc2c1CC[N@H+]1CCC[C@@H]21

>  <Energy>  (39) 
66.18477977642353

>  <Genealogy>  (39) 
CCCn1c(C)cc2c1CC[NH+]1CCCC21 (protonated)
CCCn1c(C)cc2c1CC[N@H+]1CCC[C@@H]21 (chirality)
CCCn1c(C)cc2c1CC[N@H+]1CCC[C@@H]21 (3D coordinates assigned)
CCCn1c(C)cc2c1CC[N@H+]1CCC[C@@H]21 (nonaromatic ring conformer: 66.18477977642353 kcal/mol)

>  <smiles>  (39) 
CCCn1c(C)cc2c1CCN1CCCC21

>  <score_type>  (39) 
oracle

>  <origin>  (39) 
adg

>  <m_score__min__energy>  (39) 
-4.9699999999999998

>  <m_primary>  (39) 
energy

$$$$
39:0
     RDKit          3D

 55 59  0  0  0  0  0  0  0  0999 V2000
   63.3820   32.2310   49.8360 C   0  0  0  0  0  0  0  0  0  0  0  0
   63.0770   33.0540   48.6530 N   0  0  0  0  0  0  0  0  0  0  0  0
   63.1730   32.2540   47.4240 C   0  0  0  0  0  0  0  0  0  0  0  0
   61.7950   31.6810   47.1230 C   0  0  0  0  0  0  0  0  0  0  0  0
   60.8210   32.5440   47.9210 C   0  0  2  0  0  0  0  0  0  0  0  0
   59.8330   33.2190   47.0520 N   0  0  0  0  0  0  0  0  0  0  0  0
   59.7130   34.6860   47.0390 C   0  0  0  0  0  0  0  0  0  0  0  0
   59.6480   35.1900   45.5970 C   0  0  0  0  0  0  0  0  0  0  0  0
   58.4330   34.5880   44.8830 C   0  0  0  0  0  0  0  0  0  0  0  0
   58.3420   33.0950   45.0780 C   0  0  0  0  0  0  0  0  0  0  0  0
   57.5310   32.3300   44.2310 C   0  0  0  0  0  0  0  0  0  0  0  0
   57.4050   30.9560   44.4300 C   0  0  0  0  0  0  0  0  0  0  0  0
   58.0930   30.3420   45.4900 C   0  0  0  0  0  0  0  0  0  0  0  0
   57.9920   28.8830   45.7500 C   0  0  0  0  0  0  0  0  0  0  0  0
   56.8340   28.1830   45.3700 C   0  0  0  0  0  0  0  0  0  0  0  0
   56.7160   26.8130   45.6140 C   0  0  0  0  0  0  0  0  0  0  0  0
   57.7490   26.1060   46.2530 C   0  0  0  0  0  0  0  0  0  0  0  0
   57.6240   24.6480   46.5130 C   0  0  0  0  0  0  0  0  0  0  0  0
   57.0840   24.0290   47.6330 C   0  0  0  0  0  0  0  0  0  0  0  0
   57.1670   22.6920   47.4890 N   0  0  0  0  0  0  0  0  0  0  0  0
   57.7240   22.4490   46.3150 N   0  0  0  0  0  0  0  0  0  0  0  0
   58.0380   21.1140   45.8250 C   0  0  0  0  0  0  0  0  0  0  0  0
   58.0280   23.6040   45.6980 C   0  0  0  0  0  0  0  0  0  0  0  0
   58.9040   26.8080   46.6450 C   0  0  0  0  0  0  0  0  0  0  0  0
   59.0220   28.1780   46.4000 C   0  0  0  0  0  0  0  0  0  0  0  0
   58.8550   31.1120   46.3140 N   0  0  0  0  0  0  0  0  0  0  0  0
   58.9990   32.4560   46.1490 C   0  0  0  0  0  0  0  0  0  0  0  0
   61.6900   33.5380   48.6960 C   0  0  0  0  0  0  0  0  0  0  0  0
   63.1685   32.8071   50.7484 H   0  0  0  0  0  0  0  0  0  0  0  0
   62.7605   31.3235   49.8215 H   0  0  0  0  0  0  0  0  0  0  0  0
   64.4448   31.9478   49.8215 H   0  0  0  0  0  0  0  0  0  0  0  0
   63.5023   32.8907   46.5896 H   0  0  0  0  0  0  0  0  0  0  0  0
   63.9030   31.4416   47.5545 H   0  0  0  0  0  0  0  0  0  0  0  0
   61.5764   31.7466   46.0469 H   0  0  0  0  0  0  0  0  0  0  0  0
   61.7225   30.6180   47.3966 H   0  0  0  0  0  0  0  0  0  0  0  0
   60.2130   31.9329   48.6043 H   0  0  0  0  0  0  0  0  0  0  0  0
   58.7964   34.9817   47.5704 H   0  0  0  0  0  0  0  0  0  0  0  0
   60.5898   35.1255   47.5371 H   0  0  0  0  0  0  0  0  0  0  0  0
   59.5627   36.2867   45.5984 H   0  0  0  0  0  0  0  0  0  0  0  0
   60.5634   34.8865   45.0679 H   0  0  0  0  0  0  0  0  0  0  0  0
   57.5201   35.0541   45.2823 H   0  0  0  0  0  0  0  0  0  0  0  0
   58.5424   34.7827   43.8059 H   0  0  0  0  0  0  0  0  0  0  0  0
   56.9908   32.8154   43.4048 H   0  0  0  0  0  0  0  0  0  0  0  0
   56.7706   30.3560   43.7610 H   0  0  0  0  0  0  0  0  0  0  0  0
   56.0116   28.7201   44.8749 H   0  0  0  0  0  0  0  0  0  0  0  0
   55.8046   26.2815   45.3027 H   0  0  0  0  0  0  0  0  0  0  0  0
   56.6553   24.5493   48.5022 H   0  0  0  0  0  0  0  0  0  0  0  0
   58.1969   20.4382   46.6783 H   0  0  0  0  0  0  0  0  0  0  0  0
   57.2028   20.7421   45.2133 H   0  0  0  0  0  0  0  0  0  0  0  0
   58.9514   21.1534   45.2133 H   0  0  0  0  0  0  0  0  0  0  0  0
   58.5135   23.7027   44.7159 H   0  0  0  0  0  0  0  0  0  0  0  0
   59.7219   26.2725   47.1493 H   0  0  0  0  0  0  0  0  0  0  0  0
   59.9297   28.7116   46.7185 H   0  0  0  0  0  0  0  0  0  0  0  0
   61.6265   34.5325   48.2302 H   0  0  0  0  0  0  0  0  0  0  0  0
   61.3443   33.6189   49.7371 H   0  0  0  0  0  0  0  0  0  0  0  0
  1  2  1  0
  2  3  1  0
  3  4  1  0
  4  5  1  0
  5  6  1  0
  6  7  1  0
  7  8  1  0
  8  9  1  0
  9 10  1  0
 10 11  2  0
 11 12  1  0
 12 13  2  0
 13 14  1  0
 14 15  2  0
 15 16  1  0
 16 17  2  0
 17 18  1  0
 18 19  1  0
 19 20  2  0
 20 21  1  0
 21 22  1  0
 21 23  1  0
 17 24  1  0
 24 25  2  0
 13 26  1  0
 26 27  2  0
  5 28  1  0
 28  2  1  0
 27  6  1  0
 27 10  1  0
 25 14  1  0
 23 18  2  0
  1 29  1  0
  1 30  1  0
  1 31  1  0
  3 32  1  0
  3 33  1  0
  4 34  1  0
  4 35  1  0
  5 36  1  1
  7 37  1  0
  7 38  1  0
  8 39  1  0
  8 40  1  0
  9 41  1  0
  9 42  1  0
 11 43  1  0
 12 44  1  0
 15 45  1  0
 16 46  1  0
 19 47  1  0
 22 48  1  0
 22 49  1  0
 22 50  1  0
 23 51  1  0
 24 52  1  0
 25 53  1  0
 28 54  1  0
 28 55  1  0
M  END
>  <UniqueID>  (40) 
37

>  <SMILES>  (40) 
CN1CC[C@H](N2CCCc3ccc(-c4ccc(-c5cnn(C)c5)cc4)nc32)C1

>  <Energy>  (40) 
98.63416043052108

>  <Genealogy>  (40) 
CN1CC[C@H](N2CCCc3ccc(-c4ccc(-c5cnn(C)c5)cc4)nc32)C1 (chirality)
CN1CC[C@H](N2CCCc3ccc(-c4ccc(-c5cnn(C)c5)cc4)nc32)C1 (3D coordinates assigned)
CN1CC[C@H](N2CCCc3ccc(-c4ccc(-c5cnn(C)c5)cc4)nc32)C1 (nonaromatic ring conformer: 98.63416043052108 kcal/mol)

>  <smiles>  (40) 
CN1CCC(N2CCCc3ccc(-c4ccc(-c5cnn(C)c5)cc4)nc32)C1

>  <score_type>  (40) 
oracle

>  <origin>  (40) 
adg

>  <m_score__min__energy>  (40) 
-8.9000000000000004

>  <m_primary>  (40) 
energy

$$$$
40:0
     RDKit          3D

 65 69  0  0  0  0  0  0  0  0999 V2000
   56.1730   25.3470   46.1090 C   0  0  0  0  0  0  0  0  0  0  0  0
   57.2930   25.2210   47.1300 C   0  0  0  0  0  0  0  0  0  0  0  0
   58.2920   26.2810   46.8840 N   0  0  0  0  0  0  0  0  0  0  0  0
   59.2940   26.4060   47.9720 C   0  0  0  0  0  0  0  0  0  0  0  0
   60.7170   26.7110   47.4810 C   0  0  0  0  0  0  0  0  0  0  0  0
   58.8550   26.2450   45.5140 C   0  0  0  0  0  0  0  0  0  0  0  0
   58.9750   27.6510   44.9170 C   0  0  0  0  0  0  0  0  0  0  0  0
   58.2440   28.6320   45.7240 N   0  0  0  0  0  0  0  0  0  0  0  0
   58.5780   30.0240   45.6530 C   0  0  0  0  0  0  0  0  0  0  0  0
   59.3610   30.6130   46.6620 C   0  0  0  0  0  0  0  0  0  0  0  0
   59.7080   31.9840   46.5610 C   0  0  0  0  0  0  0  0  0  0  0  0
   59.1620   32.7650   45.5600 N   0  0  0  0  0  0  0  0  0  0  0  0
   59.2680   34.2390   45.6310 C   0  0  0  0  0  0  0  0  0  0  0  0
   58.4930   32.1740   44.5040 C   0  0  0  0  0  0  0  0  0  0  0  0
   58.1280   32.9070   43.3460 C   0  0  0  0  0  0  0  0  0  0  0  0
   57.3960   32.3130   42.3190 C   0  0  0  0  0  0  0  0  0  0  0  0
   57.0070   30.9820   42.4160 C   0  0  0  0  0  0  0  0  0  0  0  0
   57.3810   30.2260   43.5250 C   0  0  0  0  0  0  0  0  0  0  0  0
   58.1550   30.7960   44.5580 C   0  0  0  0  0  0  0  0  0  0  0  0
   60.6690   32.5650   47.5940 C   0  0  0  0  0  0  0  0  0  0  0  0
   59.9870   32.7240   48.9250 C   0  0  0  0  0  0  0  0  0  0  0  0
   59.9880   33.9620   49.6050 C   0  0  0  0  0  0  0  0  0  0  0  0
   59.3640   34.0900   50.8660 C   0  0  0  0  0  0  0  0  0  0  0  0
   58.7290   32.9880   51.4630 C   0  0  0  0  0  0  0  0  0  0  0  0
   58.7340   31.7780   50.7730 C   0  0  0  0  0  0  0  0  0  0  0  0
   58.2040   30.5410   51.1000 C   0  0  0  0  0  0  0  0  0  0  0  0
   57.5390   30.1440   52.3850 C   0  0  0  0  0  0  0  0  0  0  0  0
   56.3740   29.4060   52.1300 O   0  0  0  0  0  0  0  0  0  0  0  0
   58.5500   29.6940   50.0540 C   0  0  0  0  0  0  0  0  0  0  0  0
   59.2330   30.3750   49.1030 N   0  0  0  0  0  0  0  0  0  0  0  0
   59.3490   31.6430   49.5520 C   0  0  0  0  0  0  0  0  0  0  0  0
   59.7970   29.8040   47.8760 C   0  0  0  0  0  0  0  0  0  0  0  0
   55.2111   25.4552   46.6314 H   0  0  0  0  0  0  0  0  0  0  0  0
   56.3493   26.2310   45.4785 H   0  0  0  0  0  0  0  0  0  0  0  0
   56.1485   24.4459   45.4785 H   0  0  0  0  0  0  0  0  0  0  0  0
   56.8812   25.3309   48.1441 H   0  0  0  0  0  0  0  0  0  0  0  0
   57.7694   24.2338   47.0379 H   0  0  0  0  0  0  0  0  0  0  0  0
   58.9776   27.2195   48.6414 H   0  0  0  0  0  0  0  0  0  0  0  0
   59.3353   25.4308   48.4792 H   0  0  0  0  0  0  0  0  0  0  0  0
   61.3809   26.8533   48.3465 H   0  0  0  0  0  0  0  0  0  0  0  0
   61.0829   25.8709   46.8724 H   0  0  0  0  0  0  0  0  0  0  0  0
   60.7064   27.6273   46.8724 H   0  0  0  0  0  0  0  0  0  0  0  0
   59.8540   25.7861   45.5504 H   0  0  0  0  0  0  0  0  0  0  0  0
   58.1762   25.6577   44.8781 H   0  0  0  0  0  0  0  0  0  0  0  0
   60.0368   27.9360   44.8801 H   0  0  0  0  0  0  0  0  0  0  0  0
   58.5421   27.6389   43.9058 H   0  0  0  0  0  0  0  0  0  0  0  0
   57.6190   28.3190   46.5010 H   0  0  0  0  0  0  0  0  0  0  0  0
   59.2907   34.5547   46.6845 H   0  0  0  0  0  0  0  0  0  0  0  0
   60.1919   34.5647   45.1306 H   0  0  0  0  0  0  0  0  0  0  0  0
   58.4002   34.6935   45.1306 H   0  0  0  0  0  0  0  0  0  0  0  0
   58.4275   33.9617   43.2568 H   0  0  0  0  0  0  0  0  0  0  0  0
   57.1253   32.8996   41.4287 H   0  0  0  0  0  0  0  0  0  0  0  0
   56.4039   30.5256   41.6172 H   0  0  0  0  0  0  0  0  0  0  0  0
   57.0695   29.1734   43.5960 H   0  0  0  0  0  0  0  0  0  0  0  0
   61.5290   31.8886   47.7076 H   0  0  0  0  0  0  0  0  0  0  0  0
   61.0040   33.5540   47.2481 H   0  0  0  0  0  0  0  0  0  0  0  0
   60.4790   34.8342   49.1487 H   0  0  0  0  0  0  0  0  0  0  0  0
   59.3754   35.0601   51.3845 H   0  0  0  0  0  0  0  0  0  0  0  0
   58.2426   33.0780   52.4455 H   0  0  0  0  0  0  0  0  0  0  0  0
   58.2337   29.5300   52.9770 H   0  0  0  0  0  0  0  0  0  0  0  0
   57.2681   31.0541   52.9402 H   0  0  0  0  0  0  0  0  0  0  0  0
   56.1640   28.9110   52.9650 H   0  0  0  0  0  0  0  0  0  0  0  0
   58.3042   28.6229   50.0053 H   0  0  0  0  0  0  0  0  0  0  0  0
   60.8949   29.8149   47.9430 H   0  0  0  0  0  0  0  0  0  0  0  0
   59.4342   28.7716   47.7645 H   0  0  0  0  0  0  0  0  0  0  0  0
  1  2  1  0
  2  3  1  0
  3  4  1  0
  4  5  1  0
  3  6  1  0
  6  7  1  0
  7  8  1  0
  8  9  1  0
  9 10  2  0
 10 11  1  0
 11 12  2  0
 12 13  1  0
 12 14  1  0
 14 15  2  0
 15 16  1  0
 16 17  2  0
 17 18  1  0
 18 19  2  0
 11 20  1  0
 20 21  1  0
 21 22  1  0
 22 23  2  0
 23 24  1  0
 24 25  2  0
 25 26  1  0
 26 27  1  0
 27 28  1  0
 26 29  2  0
 29 30  1  0
 30 31  1  0
 30 32  1  0
 19  9  1  0
 31 21  2  0
 32 10  1  0
 19 14  1  0
 31 25  1  0
  1 33  1  0
  1 34  1  0
  1 35  1  0
  2 36  1  0
  2 37  1  0
  4 38  1  0
  4 39  1  0
  5 40  1  0
  5 41  1  0
  5 42  1  0
  6 43  1  0
  6 44  1  0
  7 45  1  0
  7 46  1  0
  8 47  1  0
 13 48  1  0
 13 49  1  0
 13 50  1  0
 15 51  1  0
 16 52  1  0
 17 53  1  0
 18 54  1  0
 20 55  1  0
 20 56  1  0
 22 57  1  0
 23 58  1  0
 24 59  1  0
 27 60  1  0
 27 61  1  0
 28 62  1  0
 29 63  1  0
 32 64  1  0
 32 65  1  0
M  CHG  1  12   1
M  END
>  <UniqueID>  (41) 
38

>  <SMILES>  (41) 
CCN(CC)CCNc1c2c([n+](C)c3ccccc13)Cc1cccc3c(CO)cn(c13)C2

>  <Energy>  (41) 
130.45380414470597

>  <Genealogy>  (41) 
CCN(CC)CCNc1c2c([n+](C)c3ccccc13)Cc1cccc3c(CO)cn(c13)C2 (3D coordinates assigned)
CCN(CC)CCNc1c2c([n+](C)c3ccccc13)Cc1cccc3c(CO)cn(c13)C2 (nonaromatic ring conformer: 130.45380414470597 kcal/mol)

>  <smiles>  (41) 
CCN(CC)CCNc1c2c([n+](C)c3ccccc13)Cc1cccc3c(CO)cn(c13)C2

>  <score_type>  (41) 
oracle

>  <origin>  (41) 
adg

>  <m_score__min__energy>  (41) 
-7.1100000000000003

>  <m_primary>  (41) 
energy

$$$$
41:0
     RDKit          3D

 47 46  0  0  0  0  0  0  0  0999 V2000
   62.8790   33.8320   46.6110 C   0  0  0  0  0  0  0  0  0  0  0  0
   61.8440   33.2840   47.6040 C   0  0  0  0  0  0  0  0  0  0  0  0
   60.4420   33.4470   47.1560 N   0  0  0  0  0  0  0  0  0  0  0  0
   59.5240   33.8100   48.2570 C   0  0  0  0  0  0  0  0  0  0  0  0
   58.5000   32.7020   48.4910 C   0  0  0  0  0  0  0  0  0  0  0  0
   60.3120   34.3200   45.9640 C   0  0  0  0  0  0  0  0  0  0  0  0
   58.8690   34.2950   45.4690 C   0  0  0  0  0  0  0  0  0  0  0  0
   58.7180   33.2610   44.5030 O   0  0  0  0  0  0  0  0  0  0  0  0
   57.5920   32.4370   44.4360 C   0  0  0  0  0  0  0  0  0  0  0  0
   56.6360   32.5820   45.2460 O   0  0  0  0  0  0  0  0  0  0  0  0
   57.5190   31.4000   43.3640 C   0  0  0  0  0  0  0  0  0  0  0  0
   56.2840   30.5070   43.5560 C   0  0  0  0  0  0  0  0  0  0  0  0
   56.2620   29.8810   44.8920 N   0  0  0  0  0  0  0  0  0  0  0  0
   56.9320   28.5710   44.9370 C   0  0  0  0  0  0  0  0  0  0  0  0
   58.3590   28.6300   45.5220 C   0  0  0  0  0  0  0  0  0  0  0  0
   58.5560   29.7900   46.4190 N   0  0  0  0  0  0  0  0  0  0  0  0
   58.6590   29.3670   47.8260 C   0  0  0  0  0  0  0  0  0  0  0  0
   59.7830   30.5090   46.0360 C   0  0  0  0  0  0  0  0  0  0  0  0
   63.7189   34.2767   47.1649 H   0  0  0  0  0  0  0  0  0  0  0  0
   63.2501   33.0122   45.9784 H   0  0  0  0  0  0  0  0  0  0  0  0
   62.4095   34.5997   45.9784 H   0  0  0  0  0  0  0  0  0  0  0  0
   62.0386   32.2114   47.7514 H   0  0  0  0  0  0  0  0  0  0  0  0
   61.9531   33.8629   48.5329 H   0  0  0  0  0  0  0  0  0  0  0  0
   60.1065   33.9640   49.1773 H   0  0  0  0  0  0  0  0  0  0  0  0
   58.9913   34.7331   47.9845 H   0  0  0  0  0  0  0  0  0  0  0  0
   58.3620   32.5526   49.5720 H   0  0  0  0  0  0  0  0  0  0  0  0
   57.5405   32.9871   48.0348 H   0  0  0  0  0  0  0  0  0  0  0  0
   58.8597   31.7679   48.0348 H   0  0  0  0  0  0  0  0  0  0  0  0
   60.5897   35.3501   46.2321 H   0  0  0  0  0  0  0  0  0  0  0  0
   60.9785   33.9553   45.1685 H   0  0  0  0  0  0  0  0  0  0  0  0
   58.1936   34.1068   46.3166 H   0  0  0  0  0  0  0  0  0  0  0  0
   58.6209   35.2641   45.0115 H   0  0  0  0  0  0  0  0  0  0  0  0
   57.4567   31.8968   42.3846 H   0  0  0  0  0  0  0  0  0  0  0  0
   58.4209   30.7725   43.4168 H   0  0  0  0  0  0  0  0  0  0  0  0
   55.3790   31.1205   43.4354 H   0  0  0  0  0  0  0  0  0  0  0  0
   56.3218   29.7054   42.8037 H   0  0  0  0  0  0  0  0  0  0  0  0
   56.6470   30.5120   45.6330 H   0  0  0  0  0  0  0  0  0  0  0  0
   56.3288   27.8924   45.5580 H   0  0  0  0  0  0  0  0  0  0  0  0
   57.0217   28.2173   43.8993 H   0  0  0  0  0  0  0  0  0  0  0  0
   58.5450   27.7077   46.0919 H   0  0  0  0  0  0  0  0  0  0  0  0
   59.0608   28.7344   44.6814 H   0  0  0  0  0  0  0  0  0  0  0  0
   58.4502   30.2243   48.4828 H   0  0  0  0  0  0  0  0  0  0  0  0
   57.9292   28.5679   48.0230 H   0  0  0  0  0  0  0  0  0  0  0  0
   59.6745   28.9929   48.0230 H   0  0  0  0  0  0  0  0  0  0  0  0
   60.3212   30.8243   46.9421 H   0  0  0  0  0  0  0  0  0  0  0  0
   60.4262   29.8449   45.4399 H   0  0  0  0  0  0  0  0  0  0  0  0
   59.5181   31.3947   45.4399 H   0  0  0  0  0  0  0  0  0  0  0  0
  1  2  1  0
  2  3  1  0
  3  4  1  0
  4  5  1  0
  3  6  1  0
  6  7  1  0
  7  8  1  0
  8  9  1  0
  9 10  2  0
  9 11  1  0
 11 12  1  0
 12 13  1  0
 13 14  1  0
 14 15  1  0
 15 16  1  0
 16 17  1  0
 16 18  1  0
  1 19  1  0
  1 20  1  0
  1 21  1  0
  2 22  1  0
  2 23  1  0
  4 24  1  0
  4 25  1  0
  5 26  1  0
  5 27  1  0
  5 28  1  0
  6 29  1  0
  6 30  1  0
  7 31  1  0
  7 32  1  0
 11 33  1  0
 11 34  1  0
 12 35  1  0
 12 36  1  0
 13 37  1  0
 14 38  1  0
 14 39  1  0
 15 40  1  0
 15 41  1  0
 17 42  1  0
 17 43  1  0
 17 44  1  0
 18 45  1  0
 18 46  1  0
 18 47  1  0
M  END
>  <UniqueID>  (42) 
39

>  <SMILES>  (42) 
CCN(CC)CCOC(=O)CCNCCN(C)C

>  <Energy>  (42) 
36.67097195523325

>  <Genealogy>  (42) 
CCN(CC)CCOC(=O)CCNCCN(C)C (3D coordinates assigned)
CCN(CC)CCOC(=O)CCNCCN(C)C (optimized conformer: 36.67097195523325 kcal/mol)

>  <smiles>  (42) 
CCN(CC)CCOC(=O)CCNCCN(C)C

>  <score_type>  (42) 
oracle

>  <origin>  (42) 
adg

>  <m_score__min__energy>  (42) 
-4.5899999999999999

>  <m_primary>  (42) 
energy

$$$$
42:0
     RDKit          3D

 40 42  0  0  0  0  0  0  0  0999 V2000
   54.1970   26.7150   45.2680 H   0  0  0  0  0  0  0  0  0  0  0  0
   54.7230   26.1730   45.9460 O   0  0  0  0  0  0  0  0  0  0  0  0
   56.0990   26.3250   46.1080 C   0  0  0  0  0  0  0  0  0  0  0  0
   56.8260   25.2840   46.6950 C   0  0  0  0  0  0  0  0  0  0  0  0
   56.3096   24.3642   47.0070 H   0  0  0  0  0  0  0  0  0  0  0  0
   58.2030   25.4060   46.8870 C   0  0  0  0  0  0  0  0  0  0  0  0
   58.7655   24.5858   47.3570 H   0  0  0  0  0  0  0  0  0  0  0  0
   58.8720   26.5700   46.4830 C   0  0  0  0  0  0  0  0  0  0  0  0
   60.3300   26.7170   46.6720 C   0  0  0  0  0  0  0  0  0  0  0  0
   61.0044   26.4686   45.8392 H   0  0  0  0  0  0  0  0  0  0  0  0
   60.8540   27.1440   47.8280 C   0  0  0  0  0  0  0  0  0  0  0  0
   61.7406   26.6399   48.2401 H   0  0  0  0  0  0  0  0  0  0  0  0
   60.2620   28.2760   48.5540 C   0  0  0  0  0  0  0  0  0  0  0  0
   59.8250   28.0800   49.7250 O   0  0  0  0  0  0  0  0  0  0  0  0
   60.1310   29.6180   47.9300 C   0  0  0  0  0  0  0  0  0  0  0  0
   61.2600   30.4300   47.7060 C   0  0  0  0  0  0  0  0  0  0  0  0
   62.2621   30.0473   47.9496 H   0  0  0  0  0  0  0  0  0  0  0  0
   61.1210   31.7180   47.1770 C   0  0  0  0  0  0  0  0  0  0  0  0
   62.0135   32.3382   47.0071 H   0  0  0  0  0  0  0  0  0  0  0  0
   59.8470   32.2250   46.8610 C   0  0  0  0  0  0  0  0  0  0  0  0
   59.6950   33.5660   46.3450 N   0  0  0  0  0  0  0  0  0  0  0  0
   59.9440   34.7270   46.9870 C   0  0  0  0  0  0  0  0  0  0  0  0
   60.3087   34.7846   48.0232 H   0  0  0  0  0  0  0  0  0  0  0  0
   59.6970   35.8090   46.2200 N   0  0  0  0  0  0  0  0  0  0  0  0
   59.2750   35.2990   45.0450 C   0  0  0  0  0  0  0  0  0  0  0  0
   58.9764   35.8898   44.1665 H   0  0  0  0  0  0  0  0  0  0  0  0
   59.2760   33.9220   45.1160 C   0  0  0  0  0  0  0  0  0  0  0  0
   58.9850   33.2338   44.3087 H   0  0  0  0  0  0  0  0  0  0  0  0
   58.7240   31.4130   47.0720 C   0  0  0  0  0  0  0  0  0  0  0  0
   57.7232   31.7917   46.8170 H   0  0  0  0  0  0  0  0  0  0  0  0
   58.8620   30.1270   47.6030 C   0  0  0  0  0  0  0  0  0  0  0  0
   57.9682   29.5070   47.7666 H   0  0  0  0  0  0  0  0  0  0  0  0
   58.1470   27.6060   45.8770 C   0  0  0  0  0  0  0  0  0  0  0  0
   58.6718   28.5107   45.5363 H   0  0  0  0  0  0  0  0  0  0  0  0
   56.7530   27.5000   45.7000 C   0  0  0  0  0  0  0  0  0  0  0  0
   55.9890   28.5320   45.1220 O   0  0  0  0  0  0  0  0  0  0  0  0
   56.4960   29.5170   44.2280 C   0  0  0  0  0  0  0  0  0  0  0  0
   56.9247   30.3498   44.8048 H   0  0  0  0  0  0  0  0  0  0  0  0
   57.2761   29.0701   43.5942 H   0  0  0  0  0  0  0  0  0  0  0  0
   55.6790   29.8922   43.5942 H   0  0  0  0  0  0  0  0  0  0  0  0
  1  2  1  0
  2  3  1  0
  3  4  2  0
  4  5  1  0
  4  6  1  0
  6  7  1  0
  6  8  2  0
  8  9  1  0
  9 10  1  0
  9 11  2  0
 11 12  1  0
 11 13  1  0
 13 14  2  0
 13 15  1  0
 15 16  2  0
 16 17  1  0
 16 18  1  0
 18 19  1  0
 18 20  2  0
 20 21  1  0
 21 22  1  0
 22 23  1  0
 22 24  2  0
 24 25  1  0
 25 26  1  0
 25 27  2  0
 27 28  1  0
 20 29  1  0
 29 30  1  0
 29 31  2  0
 31 32  1  0
  8 33  1  0
 33 34  1  0
 33 35  2  0
 35 36  1  0
 36 37  1  0
 37 38  1  0
 37 39  1  0
 37 40  1  0
 35  3  1  0
 31 15  1  0
 27 21  1  0
M  END
>  <UniqueID>  (43) 
40

>  <SMILES>  (43) 
COc1cc(/C=C/C(=O)c2ccc(-n3ccnc3)cc2)ccc1O

>  <Energy>  (43) 
84.71360250729677

>  <Genealogy>  (43) 
COc1cc(/C=C/C(=O)c2ccc(-n3ccnc3)cc2)ccc1O (cis-trans isomerization)
COc1cc(/C=C/C(=O)c2ccc(-n3ccnc3)cc2)ccc1O (3D coordinates assigned)
COc1cc(/C=C/C(=O)c2ccc(-n3ccnc3)cc2)ccc1O (optimized conformer: 84.71360250729677 kcal/mol)

>  <smiles>  (43) 
COc1cc(C=CC(=O)c2ccc(-n3ccnc3)cc2)ccc1O

>  <score_type>  (43) 
oracle

>  <origin>  (43) 
adg

>  <m_score__min__energy>  (43) 
-7.7999999999999998

>  <m_primary>  (43) 
energy

$$$$
