0:0
     RDKit          3D

 61 62  0  0  1  0  0  0  0  0999 V2000
   60.3550   28.5910   45.0610 C   0  0  0  0  0  0  0  0  0  0  0  0
   59.2470   29.4220   44.5070 C   0  0  0  0  0  0  0  0  0  0  0  0
   57.9440   28.6510   44.5350 N   0  0  0  0  0  0  0  0  0  0  0  0
   58.3870   27.3500   44.0340 C   0  0  0  0  0  0  0  0  0  0  0  0
   58.1320   27.0430   42.6190 C   0  0  0  0  0  0  0  0  0  0  0  0
   57.1380   29.3500   43.5870 C   0  0  0  0  0  0  0  0  0  0  0  0
   56.2960   30.4550   44.1150 C   0  0  0  0  0  0  0  0  0  0  0  0
   56.8590   31.2530   45.0740 O   0  0  0  0  0  0  0  0  0  0  0  0
   57.5980   32.3220   44.6900 C   0  0  0  0  0  0  0  0  0  0  0  0
   57.1590   33.5690   45.4780 C   0  0  0  0  0  0  0  0  0  0  0  0
   57.6980   33.5850   46.7580 O   0  0  0  0  0  0  0  0  0  0  0  0
   58.9340   34.0920   47.1330 C   0  0  0  0  0  0  0  0  0  0  0  0
   59.1830   35.3150   46.9780 O   0  0  0  0  0  0  0  0  0  0  0  0
   59.9070   33.1270   47.7060 C   0  0  2  0  0  0  0  0  0  0  0  0
   59.3660   32.6170   48.9730 C   0  0  0  0  0  0  0  0  0  0  0  0
   59.2650   33.4700   50.0790 C   0  0  0  0  0  0  0  0  0  0  0  0
   58.7720   33.0550   51.2880 C   0  0  0  0  0  0  0  0  0  0  0  0
   58.3460   31.7550   51.4670 C   0  0  0  0  0  0  0  0  0  0  0  0
   57.7150   31.2210   53.0070 Cl  0  0  0  0  0  0  0  0  0  0  0  0
   58.4300   30.8890   50.4000 C   0  0  0  0  0  0  0  0  0  0  0  0
   58.9340   31.3250   49.1780 C   0  0  0  0  0  0  0  0  0  0  0  0
   59.0060   30.1660   47.8770 Cl  0  0  0  0  0  0  0  0  0  0  0  0
   61.2830   33.7140   47.8440 C   0  0  0  0  0  0  0  0  0  0  0  0
   62.0600   32.8250   48.7860 C   0  0  0  0  0  0  0  0  0  0  0  0
   63.4090   33.5400   48.9500 C   0  0  0  0  0  0  0  0  0  0  0  0
   64.1370   33.3740   47.6600 C   0  0  0  0  0  0  0  0  0  0  0  0
   63.3830   33.5990   46.4180 C   0  0  0  0  0  0  0  0  0  0  0  0
   61.9230   33.8610   46.5070 C   0  0  0  0  0  0  0  0  0  0  0  0
   60.3192   28.6178   46.1601 H   0  0  0  0  0  0  0  0  0  0  0  0
   60.2425   27.5527   44.7157 H   0  0  0  0  0  0  0  0  0  0  0  0
   61.3203   28.9897   44.7157 H   0  0  0  0  0  0  0  0  0  0  0  0
   59.1412   30.3347   45.1118 H   0  0  0  0  0  0  0  0  0  0  0  0
   59.4841   29.6842   43.4654 H   0  0  0  0  0  0  0  0  0  0  0  0
   59.4736   27.2885   44.1935 H   0  0  0  0  0  0  0  0  0  0  0  0
   57.7863   26.6165   44.5917 H   0  0  0  0  0  0  0  0  0  0  0  0
   57.4306   26.1986   42.5476 H   0  0  0  0  0  0  0  0  0  0  0  0
   57.6964   27.9242   42.1253 H   0  0  0  0  0  0  0  0  0  0  0  0
   59.0782   26.7765   42.1253 H   0  0  0  0  0  0  0  0  0  0  0  0
   57.8101   29.7763   42.8276 H   0  0  0  0  0  0  0  0  0  0  0  0
   56.4280   28.6026   43.2033 H   0  0  0  0  0  0  0  0  0  0  0  0
   56.0197   31.0981   43.2664 H   0  0  0  0  0  0  0  0  0  0  0  0
   55.4484   29.9603   44.6119 H   0  0  0  0  0  0  0  0  0  0  0  0
   58.6613   32.1208   44.8874 H   0  0  0  0  0  0  0  0  0  0  0  0
   57.4480   32.5001   43.6149 H   0  0  0  0  0  0  0  0  0  0  0  0
   57.4942   34.4674   44.9390 H   0  0  0  0  0  0  0  0  0  0  0  0
   56.0629   33.5488   45.5682 H   0  0  0  0  0  0  0  0  0  0  0  0
   60.0379   32.2825   47.0134 H   0  0  0  0  0  0  0  0  0  0  0  0
   59.5944   34.5141   49.9729 H   0  0  0  0  0  0  0  0  0  0  0  0
   58.7152   33.7661   52.1253 H   0  0  0  0  0  0  0  0  0  0  0  0
   58.0970   29.8468   50.5139 H   0  0  0  0  0  0  0  0  0  0  0  0
   61.2505   34.7294   48.2658 H   0  0  0  0  0  0  0  0  0  0  0  0
   61.5447   32.7369   49.7538 H   0  0  0  0  0  0  0  0  0  0  0  0
   62.1699   31.7994   48.4038 H   0  0  0  0  0  0  0  0  0  0  0  0
   63.2497   34.6077   49.1615 H   0  0  0  0  0  0  0  0  0  0  0  0
   63.9834   33.1174   49.7875 H   0  0  0  0  0  0  0  0  0  0  0  0
   64.9805   34.0800   47.6652 H   0  0  0  0  0  0  0  0  0  0  0  0
   64.4124   32.3094   47.6301 H   0  0  0  0  0  0  0  0  0  0  0  0
   63.8375   34.4658   45.9159 H   0  0  0  0  0  0  0  0  0  0  0  0
   63.4500   32.6379   45.8871 H   0  0  0  0  0  0  0  0  0  0  0  0
   61.7515   34.8941   46.1703 H   0  0  0  0  0  0  0  0  0  0  0  0
   61.4579   33.0828   45.8841 H   0  0  0  0  0  0  0  0  0  0  0  0
  1  2  1  0
  2  3  1  0
  3  4  1  0
  4  5  1  0
  3  6  1  0
  6  7  1  0
  7  8  1  0
  8  9  1  0
  9 10  1  0
 10 11  1  0
 11 12  1  0
 12 13  2  0
 12 14  1  0
 14 15  1  0
 15 16  2  0
 16 17  1  0
 17 18  2  0
 18 19  1  0
 18 20  1  0
 20 21  2  0
 21 22  1  0
 14 23  1  0
 23 24  1  0
 24 25  1  0
 25 26  1  0
 26 27  1  0
 27 28  1  0
 21 15  1  0
 28 23  1  0
  1 29  1  0
  1 30  1  0
  1 31  1  0
  2 32  1  0
  2 33  1  0
  4 34  1  0
  4 35  1  0
  5 36  1  0
  5 37  1  0
  5 38  1  0
  6 39  1  0
  6 40  1  0
  7 41  1  0
  7 42  1  0
  9 43  1  0
  9 44  1  0
 10 45  1  0
 10 46  1  0
 14 47  1  6
 16 48  1  0
 17 49  1  0
 20 50  1  0
 23 51  1  0
 24 52  1  0
 24 53  1  0
 25 54  1  0
 25 55  1  0
 26 56  1  0
 26 57  1  0
 27 58  1  0
 27 59  1  0
 28 60  1  0
 28 61  1  0
M  END
>  <smiles>  (1) 
CCN(CC)CCOCCOC(=O)C(c1ccc(Cl)cc1Cl)C1CCCCC1

>  <score_type>  (1) 
oracle

>  <origin>  (1) 
adg

>  <m_score__min__energy>  (1) 
-7.9299999999999997

>  <m_primary>  (1) 
energy

$$$$
1:0
     RDKit          3D

 38 39  0  0  0  0  0  0  0  0999 V2000
   60.3440   27.3980   48.6780 C   0  0  0  0  0  0  0  0  0  0  0  0
   59.5500   26.4260   47.8770 C   0  0  0  0  0  0  0  0  0  0  0  0
   59.3790   26.8210   46.4540 N   0  0  0  0  0  0  0  0  0  0  0  0
   59.5790   28.2150   46.3830 C   0  0  0  0  0  0  0  0  0  0  0  0
   60.5220   28.4690   45.1730 C   0  0  0  0  0  0  0  0  0  0  0  0
   58.2440   26.1740   45.9800 C   0  0  0  0  0  0  0  0  0  0  0  0
   56.8580   26.5370   46.3970 C   0  0  0  0  0  0  0  0  0  0  0  0
   56.1880   27.4750   45.5980 N   0  0  0  0  0  0  0  0  0  0  0  0
   56.8170   28.6120   44.9430 C   0  0  0  0  0  0  0  0  0  0  0  0
   56.7650   29.8060   45.4290 O   0  0  0  0  0  0  0  0  0  0  0  0
   57.4060   30.6610   44.6470 C   0  0  0  0  0  0  0  0  0  0  0  0
   57.5150   32.0870   44.9370 C   0  0  0  0  0  0  0  0  0  0  0  0
   58.7060   32.8040   44.8260 C   0  0  0  0  0  0  0  0  0  0  0  0
   58.3780   34.1110   45.1960 C   0  0  0  0  0  0  0  0  0  0  0  0
   57.0180   34.1110   45.5090 C   0  0  0  0  0  0  0  0  0  0  0  0
   56.5680   32.9030   45.3380 O   0  0  0  0  0  0  0  0  0  0  0  0
   57.8850   29.9420   43.6190 N   0  0  0  0  0  0  0  0  0  0  0  0
   57.5310   28.6470   43.7770 C   0  0  0  0  0  0  0  0  0  0  0  0
   57.8210   27.5230   42.9260 C   0  0  0  0  0  0  0  0  0  0  0  0
   58.0340   26.6270   42.2490 N   0  0  0  0  0  0  0  0  0  0  0  0
   60.1866   27.2053   49.7495 H   0  0  0  0  0  0  0  0  0  0  0  0
   61.4116   27.2852   48.4382 H   0  0  0  0  0  0  0  0  0  0  0  0
   60.0205   28.4216   48.4382 H   0  0  0  0  0  0  0  0  0  0  0  0
   60.0604   25.4521   47.9079 H   0  0  0  0  0  0  0  0  0  0  0  0
   58.5450   26.3883   48.3225 H   0  0  0  0  0  0  0  0  0  0  0  0
   58.6185   28.7286   46.2296 H   0  0  0  0  0  0  0  0  0  0  0  0
   60.0182   28.6001   47.3151 H   0  0  0  0  0  0  0  0  0  0  0  0
   61.5236   28.7388   45.5390 H   0  0  0  0  0  0  0  0  0  0  0  0
   60.5883   27.5567   44.5620 H   0  0  0  0  0  0  0  0  0  0  0  0
   60.1211   29.2912   44.5620 H   0  0  0  0  0  0  0  0  0  0  0  0
   58.2684   26.2856   44.8859 H   0  0  0  0  0  0  0  0  0  0  0  0
   58.3543   25.1803   46.4388 H   0  0  0  0  0  0  0  0  0  0  0  0
   56.2587   25.6146   46.4028 H   0  0  0  0  0  0  0  0  0  0  0  0
   56.9672   27.0182   47.3801 H   0  0  0  0  0  0  0  0  0  0  0  0
   55.1510   27.4810   45.4160 H   0  0  0  0  0  0  0  0  0  0  0  0
   59.6900   32.4233   44.5148 H   0  0  0  0  0  0  0  0  0  0  0  0
   59.0600   34.9732   45.2333 H   0  0  0  0  0  0  0  0  0  0  0  0
   56.4305   34.9794   45.8416 H   0  0  0  0  0  0  0  0  0  0  0  0
  1  2  1  0
  2  3  1  0
  3  4  1  0
  4  5  1  0
  3  6  1  0
  6  7  1  0
  7  8  1  0
  8  9  1  0
  9 10  1  0
 10 11  1  0
 11 12  1  0
 12 13  2  0
 13 14  1  0
 14 15  2  0
 15 16  1  0
 11 17  2  0
 17 18  1  0
 18 19  1  0
 19 20  3  0
 18  9  2  0
 16 12  1  0
  1 21  1  0
  1 22  1  0
  1 23  1  0
  2 24  1  0
  2 25  1  0
  4 26  1  0
  4 27  1  0
  5 28  1  0
  5 29  1  0
  5 30  1  0
  6 31  1  0
  6 32  1  0
  7 33  1  0
  7 34  1  0
  8 35  1  0
 13 36  1  0
 14 37  1  0
 15 38  1  0
M  END
>  <smiles>  (2) 
CCN(CC)CCNc1oc(-c2ccco2)nc1C#N

>  <score_type>  (2) 
oracle

>  <origin>  (2) 
adg

>  <m_score__min__energy>  (2) 
-6.0199999999999996

>  <m_primary>  (2) 
energy

$$$$
2:0
     RDKit          3D

 74 77  0  0  0  0  0  0  0  0999 V2000
   62.9580   33.8440   46.3870 C   0  0  0  0  0  0  0  0  0  0  0  0
   63.3770   32.7150   47.2630 C   0  0  0  0  0  0  0  0  0  0  0  0
   63.3660   32.8960   48.6460 N   0  0  0  0  0  0  0  0  0  0  0  0
   64.2080   32.0910   49.4570 C   0  0  0  0  0  0  0  0  0  0  0  0
   65.5060   32.7760   49.8320 C   0  0  0  0  0  0  0  0  0  0  0  0
   62.9340   34.0770   49.2480 C   0  0  0  0  0  0  0  0  0  0  0  0
   62.3090   33.9270   50.6460 C   0  0  0  0  0  0  0  0  0  0  0  0
   61.0120   33.3320   50.5230 N   0  0  0  0  0  0  0  0  0  0  0  0
   60.6770   32.1860   49.7910 C   0  0  0  0  0  0  0  0  0  0  0  0
   61.0900   30.9720   50.3800 C   0  0  0  0  0  0  0  0  0  0  0  0
   61.7080   31.0000   51.6150 C   0  0  0  0  0  0  0  0  0  0  0  0
   62.1260   29.8740   52.2880 C   0  0  0  0  0  0  0  0  0  0  0  0
   62.9700   29.9240   53.9750 Br  0  0  0  0  0  0  0  0  0  0  0  0
   61.9110   28.6590   51.6850 C   0  0  0  0  0  0  0  0  0  0  0  0
   61.2890   28.6330   50.4420 C   0  0  0  0  0  0  0  0  0  0  0  0
   60.8750   29.7590   49.7740 C   0  0  0  0  0  0  0  0  0  0  0  0
   60.2500   29.7410   48.5830 N   0  0  0  0  0  0  0  0  0  0  0  0
   60.1410   28.4920   47.8970 C   0  0  0  0  0  0  0  0  0  0  0  0
   59.8300   30.8930   47.9840 C   0  0  0  0  0  0  0  0  0  0  0  0
   59.1980   30.8960   46.7800 C   0  0  0  0  0  0  0  0  0  0  0  0
   58.7700   29.6880   46.0900 N   0  0  0  0  0  0  0  0  0  0  0  0
   59.6930   29.2840   45.0450 C   0  0  0  0  0  0  0  0  0  0  0  0
   59.2900   28.2210   44.1260 C   0  0  0  0  0  0  0  0  0  0  0  0
   57.9130   27.8970   43.9770 N   0  0  0  0  0  0  0  0  0  0  0  0
   57.8270   26.9340   42.8490 C   0  0  0  0  0  0  0  0  0  0  0  0
   57.1290   29.0600   43.5530 C   0  0  0  0  0  0  0  0  0  0  0  0
   58.7760   32.0630   46.1360 C   0  0  0  0  0  0  0  0  0  0  0  0
   58.1690   32.0100   44.9040 C   0  0  0  0  0  0  0  0  0  0  0  0
   57.7830   33.1690   44.2700 C   0  0  0  0  0  0  0  0  0  0  0  0
   58.0140   34.3740   44.8810 C   0  0  0  0  0  0  0  0  0  0  0  0
   58.6320   34.4040   46.1340 C   0  0  0  0  0  0  0  0  0  0  0  0
   59.0240   33.2510   46.7880 C   0  0  0  0  0  0  0  0  0  0  0  0
   59.6490   33.2990   48.0080 N   0  0  0  0  0  0  0  0  0  0  0  0
   59.7660   34.5920   48.6010 C   0  0  0  0  0  0  0  0  0  0  0  0
   60.0380   32.1420   48.5780 C   0  0  0  0  0  0  0  0  0  0  0  0
   62.6426   34.6939   47.0100 H   0  0  0  0  0  0  0  0  0  0  0  0
   63.8030   34.1485   45.7520 H   0  0  0  0  0  0  0  0  0  0  0  0
   62.1189   33.5235   45.7520 H   0  0  0  0  0  0  0  0  0  0  0  0
   62.7084   31.8698   47.0425 H   0  0  0  0  0  0  0  0  0  0  0  0
   64.4410   32.5732   47.0224 H   0  0  0  0  0  0  0  0  0  0  0  0
   63.6664   31.8381   50.3805 H   0  0  0  0  0  0  0  0  0  0  0  0
   64.4672   31.1960   48.8724 H   0  0  0  0  0  0  0  0  0  0  0  0
   65.5931   32.8220   50.9276 H   0  0  0  0  0  0  0  0  0  0  0  0
   66.3529   32.2074   49.4204 H   0  0  0  0  0  0  0  0  0  0  0  0
   65.5145   33.7960   49.4204 H   0  0  0  0  0  0  0  0  0  0  0  0
   63.8015   34.7475   49.3365 H   0  0  0  0  0  0  0  0  0  0  0  0
   62.1321   34.4650   48.6026 H   0  0  0  0  0  0  0  0  0  0  0  0
   62.9502   33.2854   51.2683 H   0  0  0  0  0  0  0  0  0  0  0  0
   62.2173   34.9169   51.1169 H   0  0  0  0  0  0  0  0  0  0  0  0
   60.1940   33.7670   51.0870 H   0  0  0  0  0  0  0  0  0  0  0  0
   61.8759   31.9787   52.0883 H   0  0  0  0  0  0  0  0  0  0  0  0
   62.2245   27.7256   52.1755 H   0  0  0  0  0  0  0  0  0  0  0  0
   61.1189   27.6556   49.9669 H   0  0  0  0  0  0  0  0  0  0  0  0
   60.0698   27.6756   48.6308 H   0  0  0  0  0  0  0  0  0  0  0  0
   59.2399   28.4976   47.2661 H   0  0  0  0  0  0  0  0  0  0  0  0
   61.0294   28.3414   47.2661 H   0  0  0  0  0  0  0  0  0  0  0  0
   57.9220   29.1730   46.3690 H   0  0  0  0  0  0  0  0  0  0  0  0
   59.9037   30.1757   44.4364 H   0  0  0  0  0  0  0  0  0  0  0  0
   60.5456   28.8555   45.5922 H   0  0  0  0  0  0  0  0  0  0  0  0
   59.6596   28.5049   43.1296 H   0  0  0  0  0  0  0  0  0  0  0  0
   59.7161   27.3154   44.5825 H   0  0  0  0  0  0  0  0  0  0  0  0
   57.7357   25.9120   43.2455 H   0  0  0  0  0  0  0  0  0  0  0  0
   56.9462   27.1684   42.2331 H   0  0  0  0  0  0  0  0  0  0  0  0
   58.7354   27.0086   42.2331 H   0  0  0  0  0  0  0  0  0  0  0  0
   56.7651   29.5999   44.4396 H   0  0  0  0  0  0  0  0  0  0  0  0
   57.7614   29.7286   42.9505 H   0  0  0  0  0  0  0  0  0  0  0  0
   56.2720   28.7246   42.9505 H   0  0  0  0  0  0  0  0  0  0  0  0
   57.9909   31.0371   44.4226 H   0  0  0  0  0  0  0  0  0  0  0  0
   57.2951   33.1288   43.2850 H   0  0  0  0  0  0  0  0  0  0  0  0
   57.7150   35.3110   44.3884 H   0  0  0  0  0  0  0  0  0  0  0  0
   58.8123   35.3765   46.6154 H   0  0  0  0  0  0  0  0  0  0  0  0
   59.7572   34.4950   49.6967 H   0  0  0  0  0  0  0  0  0  0  0  0
   60.7100   35.0578   48.2817 H   0  0  0  0  0  0  0  0  0  0  0  0
   58.9210   35.2197   48.2817 H   0  0  0  0  0  0  0  0  0  0  0  0
  1  2  1  0
  2  3  1  0
  3  4  1  0
  4  5  1  0
  3  6  1  0
  6  7  1  0
  7  8  1  0
  8  9  1  0
  9 10  2  0
 10 11  1  0
 11 12  2  0
 12 13  1  0
 12 14  1  0
 14 15  2  0
 15 16  1  0
 16 17  2  0
 17 18  1  0
 17 19  1  0
 19 20  2  0
 20 21  1  0
 21 22  1  0
 22 23  1  0
 23 24  1  0
 24 25  1  0
 24 26  1  0
 20 27  1  0
 27 28  2  0
 28 29  1  0
 29 30  2  0
 30 31  1  0
 31 32  2  0
 32 33  1  0
 33 34  1  0
 33 35  2  0
 35  9  1  0
 16 10  1  0
 35 19  1  0
 32 27  1  0
  1 36  1  0
  1 37  1  0
  1 38  1  0
  2 39  1  0
  2 40  1  0
  4 41  1  0
  4 42  1  0
  5 43  1  0
  5 44  1  0
  5 45  1  0
  6 46  1  0
  6 47  1  0
  7 48  1  0
  7 49  1  0
  8 50  1  0
 11 51  1  0
 14 52  1  0
 15 53  1  0
 18 54  1  0
 18 55  1  0
 18 56  1  0
 21 57  1  0
 22 58  1  0
 22 59  1  0
 23 60  1  0
 23 61  1  0
 25 62  1  0
 25 63  1  0
 25 64  1  0
 26 65  1  0
 26 66  1  0
 26 67  1  0
 28 68  1  0
 29 69  1  0
 30 70  1  0
 31 71  1  0
 34 72  1  0
 34 73  1  0
 34 74  1  0
M  CHG  2  17   1  33   1
M  END
>  <smiles>  (3) 
CCN(CC)CCNc1c2cc(Br)ccc2[n+](C)c2c(NCCN(C)C)c3ccccc3[n+](C)c12

>  <score_type>  (3) 
oracle

>  <origin>  (3) 
adg

>  <m_score__min__energy>  (3) 
-5.2000000000000002

>  <m_primary>  (3) 
energy

$$$$
3:0
     RDKit          3D

 46 48  0  0  0  0  0  0  0  0999 V2000
   56.5810   30.1050   42.8200 C   0  0  0  0  0  0  0  0  0  0  0  0
   55.9050   30.5000   44.1250 C   0  0  0  0  0  0  0  0  0  0  0  0
   56.5080   29.8070   45.2260 N   0  0  0  0  0  0  0  0  0  0  0  0
   56.9740   28.5170   44.8540 C   0  0  0  0  0  0  0  0  0  0  0  0
   58.2680   28.1430   45.5660 C   0  0  0  0  0  0  0  0  0  0  0  0
   59.0700   29.3920   45.7710 C   0  0  0  0  0  0  0  0  0  0  0  0
   58.4520   30.2520   46.7950 N   0  0  0  0  0  0  0  0  0  0  0  0
   59.2740   31.3170   47.2650 C   0  0  0  0  0  0  0  0  0  0  0  0
   59.2760   32.5770   46.7120 C   0  0  0  0  0  0  0  0  0  0  0  0
   58.4160   32.8480   45.6700 C   0  0  0  0  0  0  0  0  0  0  0  0
   58.4360   34.1320   45.1400 C   0  0  0  0  0  0  0  0  0  0  0  0
   59.2830   35.0970   45.6360 C   0  0  0  0  0  0  0  0  0  0  0  0
   60.1230   34.7680   46.6810 C   0  0  0  0  0  0  0  0  0  0  0  0
   60.1470   33.5010   47.2520 C   0  0  0  0  0  0  0  0  0  0  0  0
   60.9820   33.2050   48.2900 N   0  0  0  0  0  0  0  0  0  0  0  0
   61.8310   34.2540   48.7500 C   0  0  0  0  0  0  0  0  0  0  0  0
   60.9830   31.9820   48.8290 C   0  0  0  0  0  0  0  0  0  0  0  0
   61.7950   31.6210   49.8750 C   0  0  0  0  0  0  0  0  0  0  0  0
   61.7690   30.3540   50.4090 C   0  0  0  0  0  0  0  0  0  0  0  0
   60.9340   29.3690   49.9370 C   0  0  0  0  0  0  0  0  0  0  0  0
   60.9140   27.6370   50.6970 Br  0  0  0  0  0  0  0  0  0  0  0  0
   60.1090   29.7370   48.8730 C   0  0  0  0  0  0  0  0  0  0  0  0
   60.1220   31.0020   48.3260 C   0  0  0  0  0  0  0  0  0  0  0  0
   57.5117   29.5612   43.0391 H   0  0  0  0  0  0  0  0  0  0  0  0
   55.9068   29.4587   42.2388 H   0  0  0  0  0  0  0  0  0  0  0  0
   56.8131   31.0096   42.2388 H   0  0  0  0  0  0  0  0  0  0  0  0
   56.0123   31.5843   44.2758 H   0  0  0  0  0  0  0  0  0  0  0  0
   54.8397   30.2311   44.0725 H   0  0  0  0  0  0  0  0  0  0  0  0
   55.7760   29.7220   45.9900 H   0  0  0  0  0  0  0  0  0  0  0  0
   56.2028   27.7751   45.1086 H   0  0  0  0  0  0  0  0  0  0  0  0
   57.1762   28.5307   43.7728 H   0  0  0  0  0  0  0  0  0  0  0  0
   58.0380   27.6847   46.5392 H   0  0  0  0  0  0  0  0  0  0  0  0
   58.8379   27.4214   44.9623 H   0  0  0  0  0  0  0  0  0  0  0  0
   60.0851   29.1189   46.0950 H   0  0  0  0  0  0  0  0  0  0  0  0
   59.1055   29.9464   44.8216 H   0  0  0  0  0  0  0  0  0  0  0  0
   57.5030   30.1070   47.1530 H   0  0  0  0  0  0  0  0  0  0  0  0
   57.7394   32.0770   45.2729 H   0  0  0  0  0  0  0  0  0  0  0  0
   57.7618   34.3824   44.3077 H   0  0  0  0  0  0  0  0  0  0  0  0
   59.2904   36.1104   45.2082 H   0  0  0  0  0  0  0  0  0  0  0  0
   60.8001   35.5390   47.0774 H   0  0  0  0  0  0  0  0  0  0  0  0
   61.8388   34.2637   49.8499 H   0  0  0  0  0  0  0  0  0  0  0  0
   62.8527   34.0888   48.3775 H   0  0  0  0  0  0  0  0  0  0  0  0
   61.4565   35.2189   48.3775 H   0  0  0  0  0  0  0  0  0  0  0  0
   62.4855   32.3656   50.2978 H   0  0  0  0  0  0  0  0  0  0  0  0
   62.4426   30.1195   51.2465 H   0  0  0  0  0  0  0  0  0  0  0  0
   59.4211   28.9876   48.4544 H   0  0  0  0  0  0  0  0  0  0  0  0
  1  2  1  0
  2  3  1  0
  3  4  1  0
  4  5  1  0
  5  6  1  0
  6  7  1  0
  7  8  1  0
  8  9  2  0
  9 10  1  0
 10 11  2  0
 11 12  1  0
 12 13  2  0
 13 14  1  0
 14 15  2  0
 15 16  1  0
 15 17  1  0
 17 18  2  0
 18 19  1  0
 19 20  2  0
 20 21  1  0
 20 22  1  0
 22 23  2  0
 23  8  1  0
 14  9  1  0
 23 17  1  0
  1 24  1  0
  1 25  1  0
  1 26  1  0
  2 27  1  0
  2 28  1  0
  3 29  1  0
  4 30  1  0
  4 31  1  0
  5 32  1  0
  5 33  1  0
  6 34  1  0
  6 35  1  0
  7 36  1  0
 10 37  1  0
 11 38  1  0
 12 39  1  0
 13 40  1  0
 16 41  1  0
 16 42  1  0
 16 43  1  0
 18 44  1  0
 19 45  1  0
 22 46  1  0
M  CHG  1  15   1
M  END
>  <smiles>  (4) 
CCNCCCNc1c2ccccc2[n+](C)c2ccc(Br)cc12

>  <score_type>  (4) 
oracle

>  <origin>  (4) 
adg

>  <m_score__min__energy>  (4) 
-6.3600000000000003

>  <m_primary>  (4) 
energy

$$$$
4:0
     RDKit          3D

 55 58  0  0  0  0  0  0  0  0999 V2000
   63.7260   33.1020   46.7550 C   0  0  0  0  0  0  0  0  0  0  0  0
   63.4330   33.4700   48.1930 C   0  0  0  0  0  0  0  0  0  0  0  0
   63.3480   32.2540   49.0250 N   0  0  0  0  0  0  0  0  0  0  0  0
   64.5450   32.2690   49.8470 C   0  0  0  0  0  0  0  0  0  0  0  0
   62.1790   32.3960   49.8150 C   0  0  0  0  0  0  0  0  0  0  0  0
   60.8880   31.9470   49.2360 C   0  0  0  0  0  0  0  0  0  0  0  0
   60.9990   31.4170   47.8770 N   0  0  0  0  0  0  0  0  0  0  0  0
   59.9070   31.3120   46.9870 C   0  0  0  0  0  0  0  0  0  0  0  0
   59.5520   32.5310   46.3670 C   0  0  0  0  0  0  0  0  0  0  0  0
   60.2860   33.6740   46.6420 C   0  0  0  0  0  0  0  0  0  0  0  0
   60.0180   34.9030   46.0870 C   0  0  0  0  0  0  0  0  0  0  0  0
   58.9600   34.9790   45.2130 C   0  0  0  0  0  0  0  0  0  0  0  0
   58.2200   33.8380   44.9320 C   0  0  0  0  0  0  0  0  0  0  0  0
   58.4920   32.6080   45.4930 C   0  0  0  0  0  0  0  0  0  0  0  0
   57.7760   31.5060   45.2180 N   0  0  0  0  0  0  0  0  0  0  0  0
   56.6590   31.5200   44.3200 C   0  0  0  0  0  0  0  0  0  0  0  0
   58.1110   30.3290   45.8100 C   0  0  0  0  0  0  0  0  0  0  0  0
   57.3770   29.1640   45.5610 C   0  0  0  0  0  0  0  0  0  0  0  0
   56.3910   29.1600   44.7710 O   0  0  0  0  0  0  0  0  0  0  0  0
   57.6730   27.9920   46.1430 N   0  0  0  0  0  0  0  0  0  0  0  0
   56.8950   26.9170   45.8550 C   0  0  0  0  0  0  0  0  0  0  0  0
   57.1080   25.6760   46.4160 C   0  0  0  0  0  0  0  0  0  0  0  0
   58.1550   25.5550   47.2940 C   0  0  0  0  0  0  0  0  0  0  0  0
   58.9380   26.6720   47.5700 C   0  0  0  0  0  0  0  0  0  0  0  0
   58.7060   27.9090   46.9940 C   0  0  0  0  0  0  0  0  0  0  0  0
   59.5070   29.0190   47.3080 C   0  0  0  0  0  0  0  0  0  0  0  0
   60.6330   28.7870   48.1980 C   0  0  0  0  0  0  0  0  0  0  0  0
   59.1730   30.2060   46.6970 C   0  0  0  0  0  0  0  0  0  0  0  0
   64.4110   32.2417   46.7290 H   0  0  0  0  0  0  0  0  0  0  0  0
   62.7874   32.8389   46.2453 H   0  0  0  0  0  0  0  0  0  0  0  0
   64.1927   33.9578   46.2453 H   0  0  0  0  0  0  0  0  0  0  0  0
   64.2385   34.1150   48.5740 H   0  0  0  0  0  0  0  0  0  0  0  0
   62.4715   34.0024   48.2376 H   0  0  0  0  0  0  0  0  0  0  0  0
   64.2602   32.2654   50.9095 H   0  0  0  0  0  0  0  0  0  0  0  0
   65.1520   31.3784   49.6271 H   0  0  0  0  0  0  0  0  0  0  0  0
   65.1295   33.1745   49.6271 H   0  0  0  0  0  0  0  0  0  0  0  0
   62.3386   31.8243   50.7411 H   0  0  0  0  0  0  0  0  0  0  0  0
   62.0614   33.4827   49.9390 H   0  0  0  0  0  0  0  0  0  0  0  0
   60.4743   31.1588   49.8822 H   0  0  0  0  0  0  0  0  0  0  0  0
   60.2382   32.8328   49.1806 H   0  0  0  0  0  0  0  0  0  0  0  0
   62.0000   31.1650   47.5950 H   0  0  0  0  0  0  0  0  0  0  0  0
   61.1297   33.5934   47.3432 H   0  0  0  0  0  0  0  0  0  0  0  0
   60.6243   35.7875   46.3320 H   0  0  0  0  0  0  0  0  0  0  0  0
   58.7011   35.9374   44.7392 H   0  0  0  0  0  0  0  0  0  0  0  0
   57.3777   33.9191   44.2292 H   0  0  0  0  0  0  0  0  0  0  0  0
   55.7235   31.5317   44.8986 H   0  0  0  0  0  0  0  0  0  0  0  0
   56.7094   32.4176   43.6861 H   0  0  0  0  0  0  0  0  0  0  0  0
   56.6868   30.6214   43.6861 H   0  0  0  0  0  0  0  0  0  0  0  0
   56.0626   27.0413   45.1467 H   0  0  0  0  0  0  0  0  0  0  0  0
   56.4650   24.8182   46.1698 H   0  0  0  0  0  0  0  0  0  0  0  0
   58.3726   24.5890   47.7730 H   0  0  0  0  0  0  0  0  0  0  0  0
   59.7759   26.5674   48.2750 H   0  0  0  0  0  0  0  0  0  0  0  0
   60.2952   28.8566   49.2425 H   0  0  0  0  0  0  0  0  0  0  0  0
   61.0466   27.7848   48.0124 H   0  0  0  0  0  0  0  0  0  0  0  0
   61.4091   29.5441   48.0124 H   0  0  0  0  0  0  0  0  0  0  0  0
  1  2  1  0
  2  3  1  0
  3  4  1  0
  3  5  1  0
  5  6  1  0
  6  7  1  0
  7  8  1  0
  8  9  2  0
  9 10  1  0
 10 11  2  0
 11 12  1  0
 12 13  2  0
 13 14  1  0
 14 15  2  0
 15 16  1  0
 15 17  1  0
 17 18  1  0
 18 19  2  0
 18 20  1  0
 20 21  1  0
 21 22  2  0
 22 23  1  0
 23 24  2  0
 24 25  1  0
 25 26  2  0
 26 27  1  0
 26 28  1  0
 28  8  1  0
 14  9  1  0
 28 17  2  0
 25 20  1  0
  1 29  1  0
  1 30  1  0
  1 31  1  0
  2 32  1  0
  2 33  1  0
  4 34  1  0
  4 35  1  0
  4 36  1  0
  5 37  1  0
  5 38  1  0
  6 39  1  0
  6 40  1  0
  7 41  1  0
 10 42  1  0
 11 43  1  0
 12 44  1  0
 13 45  1  0
 16 46  1  0
 16 47  1  0
 16 48  1  0
 21 49  1  0
 22 50  1  0
 23 51  1  0
 24 52  1  0
 27 53  1  0
 27 54  1  0
 27 55  1  0
M  CHG  1  15   1
M  END
>  <smiles>  (5) 
CCN(C)CCNc1c2ccccc2[n+](C)c2c(=O)n3ccccc3c(C)c12

>  <score_type>  (5) 
oracle

>  <origin>  (5) 
adg

>  <m_score__min__energy>  (5) 
-6.5099999999999998

>  <m_primary>  (5) 
energy

$$$$
5:0
     RDKit          3D

 91 93  0  0  0  0  0  0  0  0999 V2000
   60.3400   28.8850   45.1000 C   0  0  0  0  0  0  0  0  0  0  0  0
   59.2670   29.9340   45.2770 C   0  0  0  0  0  0  0  0  0  0  0  0
   57.9400   29.2290   45.6270 C   0  0  0  0  0  0  0  0  0  0  0  0
   57.0960   29.1700   44.4050 C   0  0  0  0  0  0  0  0  0  0  0  0
   56.4840   30.5390   44.0640 C   0  0  0  0  0  0  0  0  0  0  0  0
   57.0300   31.0790   42.7980 C   0  0  0  0  0  0  0  0  0  0  0  0
   57.8440   32.3060   42.8300 C   0  0  0  0  0  0  0  0  0  0  0  0
   58.2790   32.9170   44.0820 C   0  0  0  0  0  0  0  0  0  0  0  0
   57.4050   33.8300   44.8420 C   0  0  0  0  0  0  0  0  0  0  0  0
   57.2220   33.4680   46.3060 C   0  0  0  0  0  0  0  0  0  0  0  0
   58.5530   33.1760   46.9640 C   0  0  0  0  0  0  0  0  0  0  0  0
   59.4740   34.3620   46.8440 C   0  0  0  0  0  0  0  0  0  0  0  0
   60.7960   34.1800   47.5430 C   0  0  0  0  0  0  0  0  0  0  0  0
   61.8950   33.8420   46.5920 C   0  0  0  0  0  0  0  0  0  0  0  0
   63.0650   33.1750   47.2510 C   0  0  0  0  0  0  0  0  0  0  0  0
   62.6490   32.0740   48.1420 C   0  0  0  0  0  0  0  0  0  0  0  0
   62.0950   31.0220   47.7970 O   0  0  0  0  0  0  0  0  0  0  0  0
   62.9090   32.2390   49.5050 O   0  0  0  0  0  0  0  0  0  0  0  0
   64.1820   32.0640   50.0300 C   0  0  0  0  0  0  0  0  0  0  0  0
   65.1020   33.0620   49.6820 C   0  0  0  0  0  0  0  0  0  0  0  0
   66.3980   33.0090   50.1260 C   0  0  0  0  0  0  0  0  0  0  0  0
   66.7530   31.9420   50.9210 C   0  0  0  0  0  0  0  0  0  0  0  0
   65.8470   30.9380   51.2770 C   0  0  0  0  0  0  0  0  0  0  0  0
   64.5440   31.0010   50.8270 C   0  0  0  0  0  0  0  0  0  0  0  0
   63.6100   30.0020   51.1230 C   0  0  0  0  0  0  0  0  0  0  0  0
   62.2610   30.0790   50.7120 N   0  0  0  0  0  0  0  0  0  0  0  0
   61.0970   29.9960   51.5380 C   0  0  0  0  0  0  0  0  0  0  0  0
   59.8290   30.5890   51.0240 C   0  0  0  0  0  0  0  0  0  0  0  0
   59.8960   31.1930   49.7340 N   0  0  0  0  0  0  0  0  0  0  0  0
   59.2320   30.4100   48.7090 C   0  0  0  0  0  0  0  0  0  0  0  0
   59.7100   28.9910   48.6630 C   0  0  0  0  0  0  0  0  0  0  0  0
   64.1030   28.9540   51.8890 C   0  0  0  0  0  0  0  0  0  0  0  0
   63.3080   27.8820   52.2220 C   0  0  0  0  0  0  0  0  0  0  0  0
   63.7180   26.7970   52.9490 C   0  0  0  0  0  0  0  0  0  0  0  0
   65.0200   26.7710   53.3790 C   0  0  0  0  0  0  0  0  0  0  0  0
   65.8600   27.8400   53.0610 C   0  0  0  0  0  0  0  0  0  0  0  0
   65.4260   28.9230   52.3270 C   0  0  0  0  0  0  0  0  0  0  0  0
   66.2990   29.8950   52.0350 N   0  0  0  0  0  0  0  0  0  0  0  0
   67.6660   29.9510   52.4440 C   0  0  0  0  0  0  0  0  0  0  0  0
   60.6873   28.5455   46.0870 H   0  0  0  0  0  0  0  0  0  0  0  0
   59.9291   28.0307   44.5421 H   0  0  0  0  0  0  0  0  0  0  0  0
   61.1848   29.3151   44.5421 H   0  0  0  0  0  0  0  0  0  0  0  0
   59.5487   30.6182   46.0910 H   0  0  0  0  0  0  0  0  0  0  0  0
   59.1510   30.5123   44.3485 H   0  0  0  0  0  0  0  0  0  0  0  0
   58.1455   28.2093   45.9847 H   0  0  0  0  0  0  0  0  0  0  0  0
   57.4165   29.7860   46.4180 H   0  0  0  0  0  0  0  0  0  0  0  0
   57.7166   28.8375   43.5599 H   0  0  0  0  0  0  0  0  0  0  0  0
   56.2722   28.4658   44.5934 H   0  0  0  0  0  0  0  0  0  0  0  0
   55.3941   30.4282   43.9644 H   0  0  0  0  0  0  0  0  0  0  0  0
   56.7348   31.2398   44.8739 H   0  0  0  0  0  0  0  0  0  0  0  0
   57.6560   30.2899   42.3560 H   0  0  0  0  0  0  0  0  0  0  0  0
   56.1339   31.3752   42.2329 H   0  0  0  0  0  0  0  0  0  0  0  0
   58.7597   32.0820   42.2631 H   0  0  0  0  0  0  0  0  0  0  0  0
   57.1416   33.0574   42.4401 H   0  0  0  0  0  0  0  0  0  0  0  0
   58.5264   32.0881   44.7615 H   0  0  0  0  0  0  0  0  0  0  0  0
   59.0853   33.5869   43.7487 H   0  0  0  0  0  0  0  0  0  0  0  0
   57.8386   34.8397   44.7911 H   0  0  0  0  0  0  0  0  0  0  0  0
   56.4092   33.7605   44.3798 H   0  0  0  0  0  0  0  0  0  0  0  0
   56.7403   34.3087   46.8267 H   0  0  0  0  0  0  0  0  0  0  0  0
   56.5956   32.5659   46.3678 H   0  0  0  0  0  0  0  0  0  0  0  0
   58.3889   32.9517   48.0283 H   0  0  0  0  0  0  0  0  0  0  0  0
   59.0163   32.3143   46.4612 H   0  0  0  0  0  0  0  0  0  0  0  0
   59.6684   34.5432   45.7766 H   0  0  0  0  0  0  0  0  0  0  0  0
   58.9690   35.2095   47.3305 H   0  0  0  0  0  0  0  0  0  0  0  0
   61.0530   35.1143   48.0636 H   0  0  0  0  0  0  0  0  0  0  0  0
   60.6919   33.3434   48.2496 H   0  0  0  0  0  0  0  0  0  0  0  0
   61.4951   33.1652   45.8225 H   0  0  0  0  0  0  0  0  0  0  0  0
   62.2579   34.7880   46.1637 H   0  0  0  0  0  0  0  0  0  0  0  0
   63.7269   32.7694   46.4717 H   0  0  0  0  0  0  0  0  0  0  0  0
   63.5827   33.9281   47.8632 H   0  0  0  0  0  0  0  0  0  0  0  0
   64.7803   33.8987   49.0444 H   0  0  0  0  0  0  0  0  0  0  0  0
   67.1261   33.7886   49.8576 H   0  0  0  0  0  0  0  0  0  0  0  0
   67.7874   31.8771   51.2896 H   0  0  0  0  0  0  0  0  0  0  0  0
   62.1120   30.2120   49.6710 H   0  0  0  0  0  0  0  0  0  0  0  0
   60.9059   28.9294   51.7273 H   0  0  0  0  0  0  0  0  0  0  0  0
   61.3444   30.6017   52.4223 H   0  0  0  0  0  0  0  0  0  0  0  0
   59.0766   29.7878   50.9811 H   0  0  0  0  0  0  0  0  0  0  0  0
   59.5814   31.4046   51.7193 H   0  0  0  0  0  0  0  0  0  0  0  0
   60.8360   31.5050   49.4540 H   0  0  0  0  0  0  0  0  0  0  0  0
   58.1508   30.4104   48.9114 H   0  0  0  0  0  0  0  0  0  0  0  0
   59.4649   30.8700   47.7374 H   0  0  0  0  0  0  0  0  0  0  0  0
   59.8372   28.6135   49.6883 H   0  0  0  0  0  0  0  0  0  0  0  0
   58.9708   28.3721   48.1334 H   0  0  0  0  0  0  0  0  0  0  0  0
   60.6731   28.9455   48.1334 H   0  0  0  0  0  0  0  0  0  0  0  0
   62.2633   27.8978   51.8779 H   0  0  0  0  0  0  0  0  0  0  0  0
   63.0263   25.9736   53.1805 H   0  0  0  0  0  0  0  0  0  0  0  0
   65.3970   25.9204   53.9658 H   0  0  0  0  0  0  0  0  0  0  0  0
   66.9036   27.8172   53.4080 H   0  0  0  0  0  0  0  0  0  0  0  0
   67.7202   29.9532   53.5427 H   0  0  0  0  0  0  0  0  0  0  0  0
   68.2022   29.0741   52.0522 H   0  0  0  0  0  0  0  0  0  0  0  0
   68.1286   30.8689   52.0522 H   0  0  0  0  0  0  0  0  0  0  0  0
  1  2  1  0
  2  3  1  0
  3  4  1  0
  4  5  1  0
  5  6  1  0
  6  7  1  0
  7  8  1  0
  8  9  1  0
  9 10  1  0
 10 11  1  0
 11 12  1  0
 12 13  1  0
 13 14  1  0
 14 15  1  0
 15 16  1  0
 16 17  2  0
 16 18  1  0
 18 19  1  0
 19 20  2  0
 20 21  1  0
 21 22  2  0
 22 23  1  0
 23 24  2  0
 24 25  1  0
 25 26  1  0
 26 27  1  0
 27 28  1  0
 28 29  1  0
 29 30  1  0
 30 31  1  0
 25 32  2  0
 32 33  1  0
 33 34  2  0
 34 35  1  0
 35 36  2  0
 36 37  1  0
 37 38  2  0
 38 39  1  0
 24 19  1  0
 37 32  1  0
 38 23  1  0
  1 40  1  0
  1 41  1  0
  1 42  1  0
  2 43  1  0
  2 44  1  0
  3 45  1  0
  3 46  1  0
  4 47  1  0
  4 48  1  0
  5 49  1  0
  5 50  1  0
  6 51  1  0
  6 52  1  0
  7 53  1  0
  7 54  1  0
  8 55  1  0
  8 56  1  0
  9 57  1  0
  9 58  1  0
 10 59  1  0
 10 60  1  0
 11 61  1  0
 11 62  1  0
 12 63  1  0
 12 64  1  0
 13 65  1  0
 13 66  1  0
 14 67  1  0
 14 68  1  0
 15 69  1  0
 15 70  1  0
 20 71  1  0
 21 72  1  0
 22 73  1  0
 26 74  1  0
 27 75  1  0
 27 76  1  0
 28 77  1  0
 28 78  1  0
 29 79  1  0
 30 80  1  0
 30 81  1  0
 31 82  1  0
 31 83  1  0
 31 84  1  0
 33 85  1  0
 34 86  1  0
 35 87  1  0
 36 88  1  0
 39 89  1  0
 39 90  1  0
 39 91  1  0
M  CHG  1  38   1
M  END
>  <smiles>  (6) 
CCCCCCCCCCCCCCCC(=O)Oc1cccc2c1c(NCCNCC)c1ccccc1[n+]2C

>  <score_type>  (6) 
oracle

>  <origin>  (6) 
adg

>  <m_score__min__energy>  (6) 
-6.6799999999999997

>  <m_primary>  (6) 
energy

$$$$
6:0
     RDKit          3D

 27 28  0  0  0  0  0  0  0  0999 V2000
   56.4890   29.6110   42.6180 C   0  0  0  0  0  0  0  0  0  0  0  0
   56.8160   30.6370   43.6320 C   0  0  0  0  0  0  0  0  0  0  0  0
   57.4100   31.8100   43.3230 N   0  0  0  0  0  0  0  0  0  0  0  0
   57.5820   32.5360   44.4430 C   0  0  0  0  0  0  0  0  0  0  0  0
   58.1920   33.8720   44.5350 C   0  0  0  0  0  0  0  0  0  0  0  0
   59.4910   33.8660   45.1610 N   0  0  0  0  0  0  0  0  0  0  0  0
   59.5740   33.8280   46.5780 C   0  0  0  0  0  0  0  0  0  0  0  0
   58.4560   33.8030   47.1950 O   0  0  0  0  0  0  0  0  0  0  0  0
   60.8380   33.8190   47.3050 C   0  0  0  0  0  0  0  0  0  0  0  0
   62.0410   33.4630   46.7260 C   0  0  0  0  0  0  0  0  0  0  0  0
   63.2260   33.4630   47.4420 C   0  0  0  0  0  0  0  0  0  0  0  0
   63.2270   33.8280   48.7780 C   0  0  0  0  0  0  0  0  0  0  0  0
   64.3900   33.8260   49.4660 F   0  0  0  0  0  0  0  0  0  0  0  0
   62.0180   34.1790   49.3330 C   0  0  0  0  0  0  0  0  0  0  0  0
   60.8290   34.1830   48.6340 C   0  0  0  0  0  0  0  0  0  0  0  0
   57.0670   31.7520   45.4320 N   0  0  0  0  0  0  0  0  0  0  0  0
   56.6350   30.6600   44.9170 O   0  0  0  0  0  0  0  0  0  0  0  0
   56.1920   28.6793   43.1217 H   0  0  0  0  0  0  0  0  0  0  0  0
   55.6602   29.9681   41.9891 H   0  0  0  0  0  0  0  0  0  0  0  0
   57.3716   29.4226   41.9891 H   0  0  0  0  0  0  0  0  0  0  0  0
   58.2967   34.2784   43.5182 H   0  0  0  0  0  0  0  0  0  0  0  0
   57.5316   34.4882   45.1628 H   0  0  0  0  0  0  0  0  0  0  0  0
   60.3610   33.8870   44.5870 H   0  0  0  0  0  0  0  0  0  0  0  0
   62.0577   33.1712   45.6656 H   0  0  0  0  0  0  0  0  0  0  0  0
   64.1662   33.1733   46.9500 H   0  0  0  0  0  0  0  0  0  0  0  0
   61.9986   34.4727   50.3929 H   0  0  0  0  0  0  0  0  0  0  0  0
   59.8899   34.4717   49.1288 H   0  0  0  0  0  0  0  0  0  0  0  0
  1  2  1  0
  2  3  2  0
  3  4  1  0
  4  5  1  0
  5  6  1  0
  6  7  1  0
  7  8  2  0
  7  9  1  0
  9 10  2  0
 10 11  1  0
 11 12  2  0
 12 13  1  0
 12 14  1  0
 14 15  2  0
  4 16  2  0
 16 17  1  0
 17  2  1  0
 15  9  1  0
  1 18  1  0
  1 19  1  0
  1 20  1  0
  5 21  1  0
  5 22  1  0
  6 23  1  0
 10 24  1  0
 11 25  1  0
 14 26  1  0
 15 27  1  0
M  END
>  <smiles>  (7) 
Cc1nc(CNC(=O)c2ccc(F)cc2)no1

>  <score_type>  (7) 
oracle

>  <origin>  (7) 
adg

>  <m_score__min__energy>  (7) 
-6.3600000000000003

>  <m_primary>  (7) 
energy

$$$$
7:0
     RDKit          3D

 62 64  0  0  0  0  0  0  0  0999 V2000
   60.6790   28.5960   44.9530 C   0  0  0  0  0  0  0  0  0  0  0  0
   60.1350   29.7290   45.7920 C   0  0  0  0  0  0  0  0  0  0  0  0
   58.8500   29.4990   46.2910 N   0  0  0  0  0  0  0  0  0  0  0  0
   58.7080   29.1080   47.6520 C   0  0  0  0  0  0  0  0  0  0  0  0
   59.9740   29.1620   48.4670 C   0  0  0  0  0  0  0  0  0  0  0  0
   57.8110   29.1350   45.4350 C   0  0  0  0  0  0  0  0  0  0  0  0
   57.6300   29.8770   44.1550 C   0  0  0  0  0  0  0  0  0  0  0  0
   56.9040   31.2110   44.4390 C   0  0  0  0  0  0  0  0  0  0  0  0
   57.8800   32.0490   45.0500 N   0  0  0  0  0  0  0  0  0  0  0  0
   57.4130   33.2400   45.6740 C   0  0  0  0  0  0  0  0  0  0  0  0
   57.8010   33.3840   47.1320 C   0  0  0  0  0  0  0  0  0  0  0  0
   58.7990   32.3610   47.4930 N   0  0  0  0  0  0  0  0  0  0  0  0
   59.7370   32.6080   48.5260 C   0  0  0  0  0  0  0  0  0  0  0  0
   60.9830   33.0950   48.1130 C   0  0  0  0  0  0  0  0  0  0  0  0
   61.2320   33.2990   46.7610 C   0  0  0  0  0  0  0  0  0  0  0  0
   62.4590   33.7780   46.3640 C   0  0  0  0  0  0  0  0  0  0  0  0
   63.4300   34.0530   47.3000 C   0  0  0  0  0  0  0  0  0  0  0  0
   63.1560   33.8400   48.6500 C   0  0  0  0  0  0  0  0  0  0  0  0
   61.9310   33.3580   49.0830 C   0  0  0  0  0  0  0  0  0  0  0  0
   61.6790   33.1550   50.4090 N   0  0  0  0  0  0  0  0  0  0  0  0
   62.7530   33.4630   51.3180 C   0  0  0  0  0  0  0  0  0  0  0  0
   60.4800   32.6880   50.7700 C   0  0  0  0  0  0  0  0  0  0  0  0
   60.1990   32.4770   52.0980 C   0  0  0  0  0  0  0  0  0  0  0  0
   58.9560   31.9960   52.4780 C   0  0  0  0  0  0  0  0  0  0  0  0
   57.9550   31.7060   51.5800 C   0  0  0  0  0  0  0  0  0  0  0  0
   56.6880   31.2080   52.0080 N   0  0  0  0  0  0  0  0  0  0  0  0
   55.8260   32.0120   52.3610 O   0  0  0  0  0  0  0  0  0  0  0  0
   56.4930   29.8340   51.9990 O   0  0  0  0  0  0  0  0  0  0  0  0
   58.2410   31.9210   50.2400 C   0  0  0  0  0  0  0  0  0  0  0  0
   59.4780   32.4000   49.8620 C   0  0  0  0  0  0  0  0  0  0  0  0
   61.0602   27.8020   45.6120 H   0  0  0  0  0  0  0  0  0  0  0  0
   59.8767   28.1919   44.3181 H   0  0  0  0  0  0  0  0  0  0  0  0
   61.4960   28.9694   44.3181 H   0  0  0  0  0  0  0  0  0  0  0  0
   60.8138   29.8863   46.6431 H   0  0  0  0  0  0  0  0  0  0  0  0
   60.0692   30.6090   45.1353 H   0  0  0  0  0  0  0  0  0  0  0  0
   57.9706   29.7746   48.1231 H   0  0  0  0  0  0  0  0  0  0  0  0
   58.3975   28.0528   47.6372 H   0  0  0  0  0  0  0  0  0  0  0  0
   59.7216   29.1512   49.5376 H   0  0  0  0  0  0  0  0  0  0  0  0
   60.6006   28.2898   48.2292 H   0  0  0  0  0  0  0  0  0  0  0  0
   60.5241   30.0844   48.2292 H   0  0  0  0  0  0  0  0  0  0  0  0
   57.9647   28.0774   45.1745 H   0  0  0  0  0  0  0  0  0  0  0  0
   56.9034   29.3759   46.0078 H   0  0  0  0  0  0  0  0  0  0  0  0
   58.6132   30.0816   43.7062 H   0  0  0  0  0  0  0  0  0  0  0  0
   57.0314   29.2716   43.4585 H   0  0  0  0  0  0  0  0  0  0  0  0
   56.5432   31.6601   43.5019 H   0  0  0  0  0  0  0  0  0  0  0  0
   56.0244   31.0692   45.0841 H   0  0  0  0  0  0  0  0  0  0  0  0
   58.5360   31.5360   45.6400 H   0  0  0  0  0  0  0  0  0  0  0  0
   57.8237   34.0992   45.1235 H   0  0  0  0  0  0  0  0  0  0  0  0
   56.3142   33.1949   45.6475 H   0  0  0  0  0  0  0  0  0  0  0  0
   58.2283   34.3839   47.2979 H   0  0  0  0  0  0  0  0  0  0  0  0
   56.9062   33.2513   47.7579 H   0  0  0  0  0  0  0  0  0  0  0  0
   58.7860   31.4620   46.9670 H   0  0  0  0  0  0  0  0  0  0  0  0
   60.4545   33.0793   46.0146 H   0  0  0  0  0  0  0  0  0  0  0  0
   62.6646   33.9416   45.2958 H   0  0  0  0  0  0  0  0  0  0  0  0
   64.4119   34.4368   46.9860 H   0  0  0  0  0  0  0  0  0  0  0  0
   63.9355   34.0611   49.3940 H   0  0  0  0  0  0  0  0  0  0  0  0
   62.3973   33.3610   52.3539 H   0  0  0  0  0  0  0  0  0  0  0  0
   63.5886   32.7683   51.1472 H   0  0  0  0  0  0  0  0  0  0  0  0
   63.0934   34.4950   51.1472 H   0  0  0  0  0  0  0  0  0  0  0  0
   60.9619   32.6902   52.8612 H   0  0  0  0  0  0  0  0  0  0  0  0
   58.7605   31.8386   53.5490 H   0  0  0  0  0  0  0  0  0  0  0  0
   57.4786   31.7088   49.4760 H   0  0  0  0  0  0  0  0  0  0  0  0
  1  2  1  0
  2  3  1  0
  3  4  1  0
  4  5  1  0
  3  6  1  0
  6  7  1  0
  7  8  1  0
  8  9  1  0
  9 10  1  0
 10 11  1  0
 11 12  1  0
 12 13  1  0
 13 14  2  0
 14 15  1  0
 15 16  2  0
 16 17  1  0
 17 18  2  0
 18 19  1  0
 19 20  2  0
 20 21  1  0
 20 22  1  0
 22 23  2  0
 23 24  1  0
 24 25  2  0
 25 26  1  0
 26 27  2  0
 26 28  1  0
 25 29  1  0
 29 30  2  0
 30 13  1  0
 19 14  1  0
 30 22  1  0
  1 31  1  0
  1 32  1  0
  1 33  1  0
  2 34  1  0
  2 35  1  0
  4 36  1  0
  4 37  1  0
  5 38  1  0
  5 39  1  0
  5 40  1  0
  6 41  1  0
  6 42  1  0
  7 43  1  0
  7 44  1  0
  8 45  1  0
  8 46  1  0
  9 47  1  0
 10 48  1  0
 10 49  1  0
 11 50  1  0
 11 51  1  0
 12 52  1  0
 15 53  1  0
 16 54  1  0
 17 55  1  0
 18 56  1  0
 21 57  1  0
 21 58  1  0
 21 59  1  0
 23 60  1  0
 24 61  1  0
 29 62  1  0
M  CHG  3  20   1  26   1  28  -1
M  END
>  <smiles>  (8) 
CCN(CC)CCCNCCNc1c2ccccc2[n+](C)c2ccc([N+](=O)[O-])cc12

>  <score_type>  (8) 
oracle

>  <origin>  (8) 
adg

>  <m_score__min__energy>  (8) 
-6.5099999999999998

>  <m_primary>  (8) 
energy

$$$$
8:0
     RDKit          3D

 41 43  0  0  0  0  0  0  0  0999 V2000
   58.2100   25.2870   46.1790 C   0  0  0  0  0  0  0  0  0  0  0  0
   58.3090   26.7380   45.8060 C   0  0  0  0  0  0  0  0  0  0  0  0
   57.7800   27.2190   44.6280 C   0  0  0  0  0  0  0  0  0  0  0  0
   57.8780   28.5500   44.3030 C   0  0  0  0  0  0  0  0  0  0  0  0
   58.5270   29.3850   45.2010 C   0  0  0  0  0  0  0  0  0  0  0  0
   58.6820   30.7780   44.9610 N   0  0  0  0  0  0  0  0  0  0  0  0
   57.5370   31.5980   44.7870 C   0  0  0  0  0  0  0  0  0  0  0  0
   56.3630   31.1160   44.8430 O   0  0  0  0  0  0  0  0  0  0  0  0
   57.7470   33.0440   44.5390 C   0  0  0  0  0  0  0  0  0  0  0  0
   58.4410   33.7100   45.6230 N   0  0  0  0  0  0  0  0  0  0  0  0
   59.1360   34.9690   45.5370 C   0  0  0  0  0  0  0  0  0  0  0  0
   59.2480   35.6920   44.4940 O   0  0  0  0  0  0  0  0  0  0  0  0
   59.6790   35.2570   46.8420 N   0  0  0  0  0  0  0  0  0  0  0  0
   59.8160   33.9620   47.4700 C   0  0  0  0  0  0  0  0  0  0  0  0
   59.9320   34.0100   48.9640 C   0  0  0  0  0  0  0  0  0  0  0  0
   61.4070   34.0860   49.2400 C   0  0  0  0  0  0  0  0  0  0  0  0
   62.1030   33.4590   48.0690 C   0  0  0  0  0  0  0  0  0  0  0  0
   61.0510   33.2270   46.9960 C   0  0  0  0  0  0  0  0  0  0  0  0
   58.5880   33.2740   46.9870 C   0  0  0  0  0  0  0  0  0  0  0  0
   57.8120   32.4920   47.5640 O   0  0  0  0  0  0  0  0  0  0  0  0
   59.0550   28.8940   46.3820 C   0  0  0  0  0  0  0  0  0  0  0  0
   59.9430   30.0680   47.6030 Br  0  0  0  0  0  0  0  0  0  0  0  0
   58.9570   27.5500   46.7160 C   0  0  0  0  0  0  0  0  0  0  0  0
   58.2034   25.1897   47.2747 H   0  0  0  0  0  0  0  0  0  0  0  0
   57.2810   24.8653   45.7678 H   0  0  0  0  0  0  0  0  0  0  0  0
   59.0731   24.7430   45.7678 H   0  0  0  0  0  0  0  0  0  0  0  0
   57.2725   26.5280   43.9388 H   0  0  0  0  0  0  0  0  0  0  0  0
   57.4570   28.9398   43.3645 H   0  0  0  0  0  0  0  0  0  0  0  0
   59.6570   31.1810   44.9150 H   0  0  0  0  0  0  0  0  0  0  0  0
   58.3402   33.1594   43.6199 H   0  0  0  0  0  0  0  0  0  0  0  0
   56.7545   33.5097   44.4487 H   0  0  0  0  0  0  0  0  0  0  0  0
   59.9020   36.2130   47.2010 H   0  0  0  0  0  0  0  0  0  0  0  0
   59.4183   34.8971   49.3629 H   0  0  0  0  0  0  0  0  0  0  0  0
   59.4680   33.1345   49.4417 H   0  0  0  0  0  0  0  0  0  0  0  0
   61.7181   35.1357   49.3471 H   0  0  0  0  0  0  0  0  0  0  0  0
   61.6599   33.5630   50.1741 H   0  0  0  0  0  0  0  0  0  0  0  0
   62.8860   34.1325   47.6905 H   0  0  0  0  0  0  0  0  0  0  0  0
   62.5821   32.5122   48.3591 H   0  0  0  0  0  0  0  0  0  0  0  0
   61.3913   33.6309   46.0311 H   0  0  0  0  0  0  0  0  0  0  0  0
   60.8536   32.1555   46.8449 H   0  0  0  0  0  0  0  0  0  0  0  0
   59.3727   27.1536   47.6541 H   0  0  0  0  0  0  0  0  0  0  0  0
  1  2  1  0
  2  3  2  0
  3  4  1  0
  4  5  2  0
  5  6  1  0
  6  7  1  0
  7  8  2  0
  7  9  1  0
  9 10  1  0
 10 11  1  0
 11 12  2  0
 11 13  1  0
 13 14  1  0
 14 15  1  0
 15 16  1  0
 16 17  1  0
 17 18  1  0
 14 19  1  0
 19 20  2  0
  5 21  1  0
 21 22  1  0
 21 23  2  0
 23  2  1  0
 19 10  1  0
 18 14  1  0
  1 24  1  0
  1 25  1  0
  1 26  1  0
  3 27  1  0
  4 28  1  0
  6 29  1  0
  9 30  1  0
  9 31  1  0
 13 32  1  0
 15 33  1  0
 15 34  1  0
 16 35  1  0
 16 36  1  0
 17 37  1  0
 17 38  1  0
 18 39  1  0
 18 40  1  0
 23 41  1  0
M  END
>  <smiles>  (9) 
Cc1ccc(NC(=O)CN2C(=O)NC3(CCCC3)C2=O)c(Br)c1

>  <score_type>  (9) 
oracle

>  <origin>  (9) 
adg

>  <m_score__min__energy>  (9) 
-8.2100000000000009

>  <m_primary>  (9) 
energy

$$$$
9:0
     RDKit          3D

 60 63  0  0  0  0  0  0  0  0999 V2000
   63.2150   33.8570   46.3850 C   0  0  0  0  0  0  0  0  0  0  0  0
   63.1150   32.5680   47.1340 C   0  0  0  0  0  0  0  0  0  0  0  0
   62.9200   32.6740   48.5510 N   0  0  0  0  0  0  0  0  0  0  0  0
   64.2710   32.3580   49.1210 C   0  0  0  0  0  0  0  0  0  0  0  0
   64.1420   31.5910   50.3940 C   0  0  0  0  0  0  0  0  0  0  0  0
   62.6480   34.0270   48.9760 C   0  0  0  0  0  0  0  0  0  0  0  0
   61.7010   34.1450   50.0970 C   0  0  0  0  0  0  0  0  0  0  0  0
   61.3160   32.9030   50.6570 O   0  0  0  0  0  0  0  0  0  0  0  0
   59.9960   32.8460   51.0140 C   0  0  0  0  0  0  0  0  0  0  0  0
   59.0740   32.4880   49.8410 C   0  0  0  0  0  0  0  0  0  0  0  0
   59.9290   32.0660   48.7530 N   0  0  0  0  0  0  0  0  0  0  0  0
   59.4480   31.9070   47.4210 C   0  0  0  0  0  0  0  0  0  0  0  0
   59.0340   30.6910   46.9110 C   0  0  0  0  0  0  0  0  0  0  0  0
   58.5730   30.6300   45.6130 C   0  0  0  0  0  0  0  0  0  0  0  0
   58.5100   31.7290   44.8110 N   0  0  0  0  0  0  0  0  0  0  0  0
   58.0100   31.6080   43.4410 C   0  0  0  0  0  0  0  0  0  0  0  0
   58.9080   32.9260   45.2870 C   0  0  0  0  0  0  0  0  0  0  0  0
   58.8630   34.0700   44.5120 C   0  0  0  0  0  0  0  0  0  0  0  0
   59.2690   35.3100   44.9900 C   0  0  0  0  0  0  0  0  0  0  0  0
   59.7290   35.3500   46.2980 C   0  0  0  0  0  0  0  0  0  0  0  0
   59.7850   34.2230   47.0930 C   0  0  0  0  0  0  0  0  0  0  0  0
   59.3780   33.0100   46.5950 C   0  0  0  0  0  0  0  0  0  0  0  0
   58.2130   29.2460   45.3220 C   0  0  0  0  0  0  0  0  0  0  0  0
   57.7420   28.4480   44.3940 O   0  0  0  0  0  0  0  0  0  0  0  0
   57.6650   27.2140   44.8400 C   0  0  0  0  0  0  0  0  0  0  0  0
   58.1090   27.1550   46.1540 C   0  0  0  0  0  0  0  0  0  0  0  0
   58.2020   25.9970   47.0470 C   0  0  0  0  0  0  0  0  0  0  0  0
   58.4620   28.4730   46.4630 C   0  0  0  0  0  0  0  0  0  0  0  0
   58.9930   29.3660   47.5120 C   0  0  0  0  0  0  0  0  0  0  0  0
   59.3360   29.0410   48.6790 O   0  0  0  0  0  0  0  0  0  0  0  0
   63.2798   34.6916   47.0986 H   0  0  0  0  0  0  0  0  0  0  0  0
   64.1149   33.8447   45.7525 H   0  0  0  0  0  0  0  0  0  0  0  0
   62.3240   33.9836   45.7525 H   0  0  0  0  0  0  0  0  0  0  0  0
   62.2667   32.0036   46.7195 H   0  0  0  0  0  0  0  0  0  0  0  0
   64.0907   32.0762   47.0064 H   0  0  0  0  0  0  0  0  0  0  0  0
   64.8378   31.7578   48.3941 H   0  0  0  0  0  0  0  0  0  0  0  0
   64.7956   33.3021   49.3295 H   0  0  0  0  0  0  0  0  0  0  0  0
   64.2571   32.2752   51.2476 H   0  0  0  0  0  0  0  0  0  0  0  0
   63.1512   31.1151   50.4365 H   0  0  0  0  0  0  0  0  0  0  0  0
   64.9226   30.8171   50.4365 H   0  0  0  0  0  0  0  0  0  0  0  0
   63.5992   34.4870   49.2821 H   0  0  0  0  0  0  0  0  0  0  0  0
   62.1770   34.5312   48.1193 H   0  0  0  0  0  0  0  0  0  0  0  0
   62.1723   34.7493   50.8861 H   0  0  0  0  0  0  0  0  0  0  0  0
   60.7886   34.6105   49.6960 H   0  0  0  0  0  0  0  0  0  0  0  0
   59.8774   32.0842   51.7986 H   0  0  0  0  0  0  0  0  0  0  0  0
   59.7066   33.8467   51.3672 H   0  0  0  0  0  0  0  0  0  0  0  0
   58.3951   31.6715   50.1281 H   0  0  0  0  0  0  0  0  0  0  0  0
   58.4559   33.3491   49.5469 H   0  0  0  0  0  0  0  0  0  0  0  0
   60.9580   31.8510   48.8860 H   0  0  0  0  0  0  0  0  0  0  0  0
   56.9411   31.3493   43.4623 H   0  0  0  0  0  0  0  0  0  0  0  0
   58.1453   32.5648   42.9154 H   0  0  0  0  0  0  0  0  0  0  0  0
   58.5678   30.8189   42.9154 H   0  0  0  0  0  0  0  0  0  0  0  0
   58.4922   33.9959   43.4790 H   0  0  0  0  0  0  0  0  0  0  0  0
   59.2277   36.2132   44.3635 H   0  0  0  0  0  0  0  0  0  0  0  0
   60.0603   36.3122   46.7157 H   0  0  0  0  0  0  0  0  0  0  0  0
   60.1559   34.2967   48.1260 H   0  0  0  0  0  0  0  0  0  0  0  0
   57.3021   26.3543   44.2576 H   0  0  0  0  0  0  0  0  0  0  0  0
   58.1747   26.3372   48.0927 H   0  0  0  0  0  0  0  0  0  0  0  0
   57.3553   25.3203   46.8593 H   0  0  0  0  0  0  0  0  0  0  0  0
   59.1458   25.4641   46.8593 H   0  0  0  0  0  0  0  0  0  0  0  0
  1  2  1  0
  2  3  1  0
  3  4  1  0
  4  5  1  0
  3  6  1  0
  6  7  1  0
  7  8  1  0
  8  9  1  0
  9 10  1  0
 10 11  1  0
 11 12  1  0
 12 13  2  0
 13 14  1  0
 14 15  2  0
 15 16  1  0
 15 17  1  0
 17 18  2  0
 18 19  1  0
 19 20  2  0
 20 21  1  0
 21 22  2  0
 14 23  1  0
 23 24  1  0
 24 25  1  0
 25 26  2  0
 26 27  1  0
 26 28  1  0
 28 29  1  0
 29 30  2  0
 22 12  1  0
 28 23  2  0
 29 13  1  0
 22 17  1  0
  1 31  1  0
  1 32  1  0
  1 33  1  0
  2 34  1  0
  2 35  1  0
  4 36  1  0
  4 37  1  0
  5 38  1  0
  5 39  1  0
  5 40  1  0
  6 41  1  0
  6 42  1  0
  7 43  1  0
  7 44  1  0
  9 45  1  0
  9 46  1  0
 10 47  1  0
 10 48  1  0
 11 49  1  0
 16 50  1  0
 16 51  1  0
 16 52  1  0
 18 53  1  0
 19 54  1  0
 20 55  1  0
 21 56  1  0
 25 57  1  0
 27 58  1  0
 27 59  1  0
 27 60  1  0
M  CHG  1  15   1
M  END
>  <smiles>  (10) 
CCN(CC)CCOCCNc1c2c([n+](C)c3ccccc13)-c1occ(C)c1C2=O

>  <score_type>  (10) 
oracle

>  <origin>  (10) 
adg

>  <m_score__min__energy>  (10) 
-5.6500000000000004

>  <m_primary>  (10) 
energy

$$$$
10:0
     RDKit          3D

 55 57  0  0  0  0  0  0  0  0999 V2000
   56.4770   26.1200   46.3350 C   0  0  0  0  0  0  0  0  0  0  0  0
   57.4170   26.0110   45.1390 C   0  0  0  0  0  0  0  0  0  0  0  0
   57.7030   27.2870   44.5700 N   0  0  0  0  0  0  0  0  0  0  0  0
   59.0760   27.5020   44.1860 C   0  0  0  0  0  0  0  0  0  0  0  0
   59.8380   28.3510   45.1540 C   0  0  0  0  0  0  0  0  0  0  0  0
   59.1990   28.2680   46.5120 C   0  0  0  0  0  0  0  0  0  0  0  0
   58.1790   29.2970   46.6230 N   0  0  0  0  0  0  0  0  0  0  0  0
   58.5070   30.6350   46.9490 C   0  0  0  0  0  0  0  0  0  0  0  0
   58.9430   30.8070   48.2760 C   0  0  0  0  0  0  0  0  0  0  0  0
   59.0200   29.7310   49.1400 C   0  0  0  0  0  0  0  0  0  0  0  0
   59.4430   29.8240   50.4450 C   0  0  0  0  0  0  0  0  0  0  0  0
   59.8100   31.0630   50.9110 C   0  0  0  0  0  0  0  0  0  0  0  0
   59.7340   32.1400   50.0510 C   0  0  0  0  0  0  0  0  0  0  0  0
   59.3110   32.0420   48.7500 C   0  0  0  0  0  0  0  0  0  0  0  0
   59.2550   33.1280   47.9150 N   0  0  0  0  0  0  0  0  0  0  0  0
   59.6600   34.3680   48.5360 C   0  0  0  0  0  0  0  0  0  0  0  0
   58.8440   32.9670   46.6630 C   0  0  0  0  0  0  0  0  0  0  0  0
   58.8190   34.0910   45.8580 C   0  0  0  0  0  0  0  0  0  0  0  0
   58.4090   33.9570   44.5520 C   0  0  0  0  0  0  0  0  0  0  0  0
   58.0340   32.7280   44.0670 C   0  0  0  0  0  0  0  0  0  0  0  0
   58.0430   31.5660   44.8360 C   0  0  0  0  0  0  0  0  0  0  0  0
   57.5430   30.3850   44.2610 N   0  0  0  0  0  0  0  0  0  0  0  0
   56.4260   30.5220   43.2980 C   0  0  0  0  0  0  0  0  0  0  0  0
   55.2470   29.7010   43.7480 C   0  0  0  0  0  0  0  0  0  0  0  0
   55.6630   28.9750   44.9030 O   0  0  0  0  0  0  0  0  0  0  0  0
   58.4580   31.7200   46.1380 C   0  0  0  0  0  0  0  0  0  0  0  0
   57.0589   26.0525   47.2660 H   0  0  0  0  0  0  0  0  0  0  0  0
   55.9505   27.0852   46.3008 H   0  0  0  0  0  0  0  0  0  0  0  0
   55.7436   25.3009   46.3008 H   0  0  0  0  0  0  0  0  0  0  0  0
   58.3594   25.5490   45.4682 H   0  0  0  0  0  0  0  0  0  0  0  0
   56.9223   25.3982   44.3711 H   0  0  0  0  0  0  0  0  0  0  0  0
   57.0110   27.6190   43.8820 H   0  0  0  0  0  0  0  0  0  0  0  0
   59.5746   26.5243   44.1122 H   0  0  0  0  0  0  0  0  0  0  0  0
   59.0643   28.0365   43.2247 H   0  0  0  0  0  0  0  0  0  0  0  0
   60.8763   27.9931   45.2159 H   0  0  0  0  0  0  0  0  0  0  0  0
   59.8275   29.3956   44.8095 H   0  0  0  0  0  0  0  0  0  0  0  0
   58.7384   27.2776   46.6421 H   0  0  0  0  0  0  0  0  0  0  0  0
   59.9622   28.4183   47.2897 H   0  0  0  0  0  0  0  0  0  0  0  0
   57.1400   29.1040   46.5050 H   0  0  0  0  0  0  0  0  0  0  0  0
   58.7253   28.7413   48.7611 H   0  0  0  0  0  0  0  0  0  0  0  0
   59.4860   28.9366   51.0936 H   0  0  0  0  0  0  0  0  0  0  0  0
   60.1568   31.1940   51.9466 H   0  0  0  0  0  0  0  0  0  0  0  0
   60.0285   33.1300   50.4294 H   0  0  0  0  0  0  0  0  0  0  0  0
   59.6244   34.2590   49.6300 H   0  0  0  0  0  0  0  0  0  0  0  0
   60.6857   34.6157   48.2254 H   0  0  0  0  0  0  0  0  0  0  0  0
   58.9782   35.1734   48.2254 H   0  0  0  0  0  0  0  0  0  0  0  0
   59.1207   35.0719   46.2539 H   0  0  0  0  0  0  0  0  0  0  0  0
   58.3813   34.8376   43.8934 H   0  0  0  0  0  0  0  0  0  0  0  0
   57.7101   32.6574   43.0182 H   0  0  0  0  0  0  0  0  0  0  0  0
   57.7940   29.4090   44.4090 H   0  0  0  0  0  0  0  0  0  0  0  0
   56.1292   31.5793   43.2340 H   0  0  0  0  0  0  0  0  0  0  0  0
   56.7568   30.1641   42.3118 H   0  0  0  0  0  0  0  0  0  0  0  0
   54.4019   30.3589   43.9991 H   0  0  0  0  0  0  0  0  0  0  0  0
   54.9168   29.0176   42.9518 H   0  0  0  0  0  0  0  0  0  0  0  0
   56.0030   28.0680   44.6260 H   0  0  0  0  0  0  0  0  0  0  0  0
  1  2  1  0
  2  3  1  0
  3  4  1  0
  4  5  1  0
  5  6  1  0
  6  7  1  0
  7  8  1  0
  8  9  2  0
  9 10  1  0
 10 11  2  0
 11 12  1  0
 12 13  2  0
 13 14  1  0
 14 15  2  0
 15 16  1  0
 15 17  1  0
 17 18  2  0
 18 19  1  0
 19 20  2  0
 20 21  1  0
 21 22  1  0
 22 23  1  0
 23 24  1  0
 24 25  1  0
 21 26  2  0
 26  8  1  0
 14  9  1  0
 26 17  1  0
  1 27  1  0
  1 28  1  0
  1 29  1  0
  2 30  1  0
  2 31  1  0
  3 32  1  0
  4 33  1  0
  4 34  1  0
  5 35  1  0
  5 36  1  0
  6 37  1  0
  6 38  1  0
  7 39  1  0
 10 40  1  0
 11 41  1  0
 12 42  1  0
 13 43  1  0
 16 44  1  0
 16 45  1  0
 16 46  1  0
 18 47  1  0
 19 48  1  0
 20 49  1  0
 22 50  1  0
 23 51  1  0
 23 52  1  0
 24 53  1  0
 24 54  1  0
 25 55  1  0
M  CHG  1  15   1
M  END
>  <smiles>  (11) 
CCNCCCNc1c2ccccc2[n+](C)c2cccc(NCCO)c12

>  <score_type>  (11) 
oracle

>  <origin>  (11) 
adg

>  <m_score__min__energy>  (11) 
-6.3300000000000001

>  <m_primary>  (11) 
energy

$$$$
11:0
     RDKit          3D

 60 62  0  0  0  0  0  0  0  0999 V2000
   64.5700   31.2890   50.8970 C   0  0  0  0  0  0  0  0  0  0  0  0
   65.7240   32.1230   50.3700 C   0  0  0  0  0  0  0  0  0  0  0  0
   65.1930   33.3360   49.9110 O   0  0  0  0  0  0  0  0  0  0  0  0
   63.9160   33.3630   49.3370 C   0  0  0  0  0  0  0  0  0  0  0  0
   62.9480   33.9580   49.8850 O   0  0  0  0  0  0  0  0  0  0  0  0
   63.7410   32.6880   48.0900 N   0  0  0  0  0  0  0  0  0  0  0  0
   62.4910   32.6530   47.4150 C   0  0  0  0  0  0  0  0  0  0  0  0
   61.9640   33.8760   47.0350 C   0  0  0  0  0  0  0  0  0  0  0  0
   60.7510   33.9380   46.3760 C   0  0  0  0  0  0  0  0  0  0  0  0
   60.0210   32.8010   46.0720 C   0  0  0  0  0  0  0  0  0  0  0  0
   60.5740   31.6010   46.4640 C   0  0  0  0  0  0  0  0  0  0  0  0
   61.7930   31.5180   47.1280 C   0  0  0  0  0  0  0  0  0  0  0  0
   59.9370   30.4100   46.2040 C   0  0  0  0  0  0  0  0  0  0  0  0
   60.4480   29.1370   46.5750 N   0  0  0  0  0  0  0  0  0  0  0  0
   60.2780   28.7630   47.9790 C   0  0  0  0  0  0  0  0  0  0  0  0
   58.9220   29.2260   48.4880 C   0  0  0  0  0  0  0  0  0  0  0  0
   59.1700   29.9470   49.8170 C   0  0  0  0  0  0  0  0  0  0  0  0
   59.8510   31.1940   49.5060 N   0  0  0  0  0  0  0  0  0  0  0  0
   60.9050   31.4310   50.4770 C   0  0  0  0  0  0  0  0  0  0  0  0
   58.8930   32.2870   49.4920 C   0  0  0  0  0  0  0  0  0  0  0  0
   59.6750   33.5730   49.6380 C   0  0  0  0  0  0  0  0  0  0  0  0
   58.7310   30.4820   45.5370 C   0  0  0  0  0  0  0  0  0  0  0  0
   58.0890   29.2950   45.2660 C   0  0  0  0  0  0  0  0  0  0  0  0
   56.8820   29.2640   44.6000 C   0  0  0  0  0  0  0  0  0  0  0  0
   56.3340   30.4680   44.2110 C   0  0  0  0  0  0  0  0  0  0  0  0
   56.9890   31.6550   44.4890 C   0  0  0  0  0  0  0  0  0  0  0  0
   58.1980   31.7010   45.1560 C   0  0  0  0  0  0  0  0  0  0  0  0
   58.8300   32.8790   45.4160 N   0  0  0  0  0  0  0  0  0  0  0  0
   58.2610   34.1330   45.0350 C   0  0  0  0  0  0  0  0  0  0  0  0
   64.5831   31.2984   51.9969 H   0  0  0  0  0  0  0  0  0  0  0  0
   63.6193   31.7101   50.5380 H   0  0  0  0  0  0  0  0  0  0  0  0
   64.6715   30.2542   50.5380 H   0  0  0  0  0  0  0  0  0  0  0  0
   66.4494   32.3115   51.1752 H   0  0  0  0  0  0  0  0  0  0  0  0
   66.2431   31.5952   49.5564 H   0  0  0  0  0  0  0  0  0  0  0  0
   64.5390   32.1880   47.6260 H   0  0  0  0  0  0  0  0  0  0  0  0
   62.5135   34.8023   47.2588 H   0  0  0  0  0  0  0  0  0  0  0  0
   60.3529   34.9209   46.0838 H   0  0  0  0  0  0  0  0  0  0  0  0
   62.1939   30.5366   47.4215 H   0  0  0  0  0  0  0  0  0  0  0  0
   60.9050   28.5390   45.8730 H   0  0  0  0  0  0  0  0  0  0  0  0
   60.3472   27.6693   48.0741 H   0  0  0  0  0  0  0  0  0  0  0  0
   61.0673   29.2438   48.5755 H   0  0  0  0  0  0  0  0  0  0  0  0
   58.4608   29.9141   47.7643 H   0  0  0  0  0  0  0  0  0  0  0  0
   58.2394   28.3740   48.6228 H   0  0  0  0  0  0  0  0  0  0  0  0
   58.2130   30.1544   50.3181 H   0  0  0  0  0  0  0  0  0  0  0  0
   59.7779   29.3264   50.4918 H   0  0  0  0  0  0  0  0  0  0  0  0
   60.4947   31.3387   51.4934 H   0  0  0  0  0  0  0  0  0  0  0  0
   61.7063   30.6906   50.3365 H   0  0  0  0  0  0  0  0  0  0  0  0
   61.3122   32.4431   50.3365 H   0  0  0  0  0  0  0  0  0  0  0  0
   58.3387   32.2894   48.5419 H   0  0  0  0  0  0  0  0  0  0  0  0
   58.1664   32.1782   50.3107 H   0  0  0  0  0  0  0  0  0  0  0  0
   59.8126   33.7993   50.7056 H   0  0  0  0  0  0  0  0  0  0  0  0
   60.6580   33.4610   49.1573 H   0  0  0  0  0  0  0  0  0  0  0  0
   59.1232   34.3943   49.1573 H   0  0  0  0  0  0  0  0  0  0  0  0
   58.5494   28.3493   45.5881 H   0  0  0  0  0  0  0  0  0  0  0  0
   56.3740   28.3120   44.3865 H   0  0  0  0  0  0  0  0  0  0  0  0
   55.3722   30.4851   43.6775 H   0  0  0  0  0  0  0  0  0  0  0  0
   56.5283   32.6002   44.1658 H   0  0  0  0  0  0  0  0  0  0  0  0
   58.0007   34.7066   45.9368 H   0  0  0  0  0  0  0  0  0  0  0  0
   58.9900   34.7000   44.4375 H   0  0  0  0  0  0  0  0  0  0  0  0
   57.3542   33.9578   44.4375 H   0  0  0  0  0  0  0  0  0  0  0  0
  1  2  1  0
  2  3  1  0
  3  4  1  0
  4  5  2  0
  4  6  1  0
  6  7  1  0
  7  8  2  0
  8  9  1  0
  9 10  2  0
 10 11  1  0
 11 12  2  0
 11 13  1  0
 13 14  1  0
 14 15  1  0
 15 16  1  0
 16 17  1  0
 17 18  1  0
 18 19  1  0
 18 20  1  0
 20 21  1  0
 13 22  2  0
 22 23  1  0
 23 24  2  0
 24 25  1  0
 25 26  2  0
 26 27  1  0
 27 28  2  0
 28 29  1  0
 12  7  1  0
 27 22  1  0
 28 10  1  0
  1 30  1  0
  1 31  1  0
  1 32  1  0
  2 33  1  0
  2 34  1  0
  6 35  1  0
  8 36  1  0
  9 37  1  0
 12 38  1  0
 14 39  1  0
 15 40  1  0
 15 41  1  0
 16 42  1  0
 16 43  1  0
 17 44  1  0
 17 45  1  0
 19 46  1  0
 19 47  1  0
 19 48  1  0
 20 49  1  0
 20 50  1  0
 21 51  1  0
 21 52  1  0
 21 53  1  0
 23 54  1  0
 24 55  1  0
 25 56  1  0
 26 57  1  0
 29 58  1  0
 29 59  1  0
 29 60  1  0
M  CHG  1  28   1
M  END
>  <smiles>  (12) 
CCOC(=O)Nc1ccc2c(c1)c(NCCCN(C)CC)c1ccccc1[n+]2C

>  <score_type>  (12) 
oracle

>  <origin>  (12) 
adg

>  <m_score__min__energy>  (12) 
-6.9699999999999998

>  <m_primary>  (12) 
energy

$$$$
12:0
     RDKit          3D

 95 98  0  0  0  0  0  0  0  0999 V2000
   58.5210   32.6150   49.2150 C   0  0  0  0  0  0  0  0  0  0  0  0
   59.3790   33.2410   50.3150 C   0  0  0  0  0  0  0  0  0  0  0  0
   59.0810   32.5750   51.5460 N   0  0  0  0  0  0  0  0  0  0  0  0
   59.6320   33.3070   52.6760 C   0  0  0  0  0  0  0  0  0  0  0  0
   58.8540   34.5250   53.0490 C   0  0  0  0  0  0  0  0  0  0  0  0
   57.6430   32.3920   51.7850 C   0  0  0  0  0  0  0  0  0  0  0  0
   57.3580   30.9870   52.1850 C   0  0  0  0  0  0  0  0  0  0  0  0
   57.6140   30.0550   51.2730 O   0  0  0  0  0  0  0  0  0  0  0  0
   58.7820   29.6140   50.8480 C   0  0  0  0  0  0  0  0  0  0  0  0
   59.1060   29.4740   49.4060 C   0  0  0  0  0  0  0  0  0  0  0  0
   60.4120   29.0000   49.2290 O   0  0  0  0  0  0  0  0  0  0  0  0
   60.5110   27.9160   48.3880 C   0  0  0  0  0  0  0  0  0  0  0  0
   60.3860   28.2530   46.9570 C   0  0  0  0  0  0  0  0  0  0  0  0
   60.6480   29.5340   46.4470 N   0  0  0  0  0  0  0  0  0  0  0  0
   59.7300   30.5250   46.0430 C   0  0  0  0  0  0  0  0  0  0  0  0
   58.5920   30.3500   45.3110 C   0  0  0  0  0  0  0  0  0  0  0  0
   58.2240   29.0610   44.9930 C   0  0  0  0  0  0  0  0  0  0  0  0
   57.0590   28.8670   44.2880 C   0  0  0  0  0  0  0  0  0  0  0  0
   56.2550   29.9120   43.8940 C   0  0  0  0  0  0  0  0  0  0  0  0
   56.6390   31.2140   44.2230 C   0  0  0  0  0  0  0  0  0  0  0  0
   57.7960   31.4420   44.9270 C   0  0  0  0  0  0  0  0  0  0  0  0
   58.1070   32.7030   45.2560 N   0  0  0  0  0  0  0  0  0  0  0  0
   57.3670   33.8710   44.8980 C   0  0  0  0  0  0  0  0  0  0  0  0
   59.2400   32.9060   45.9940 C   0  0  0  0  0  0  0  0  0  0  0  0
   59.5830   34.2100   46.3720 C   0  0  0  0  0  0  0  0  0  0  0  0
   60.7010   34.4820   47.1300 C   0  0  0  0  0  0  0  0  0  0  0  0
   61.4870   33.4190   47.5120 C   0  0  0  0  0  0  0  0  0  0  0  0
   62.6300   33.6810   48.2870 O   0  0  0  0  0  0  0  0  0  0  0  0
   63.7630   32.7990   48.1780 C   0  0  0  0  0  0  0  0  0  0  0  0
   64.4940   32.6290   49.4720 C   0  0  0  0  0  0  0  0  0  0  0  0
   63.6740   32.6520   50.6340 N   0  0  0  0  0  0  0  0  0  0  0  0
   63.4650   34.0570   51.0380 C   0  0  0  0  0  0  0  0  0  0  0  0
   62.3800   32.0740   50.5370 C   0  0  0  0  0  0  0  0  0  0  0  0
   62.2850   30.6030   50.7470 C   0  0  0  0  0  0  0  0  0  0  0  0
   62.9870   30.1360   51.9200 N   0  0  0  0  0  0  0  0  0  0  0  0
   62.4720   30.6290   53.1620 C   0  0  0  0  0  0  0  0  0  0  0  0
   62.9760   28.6880   51.8570 C   0  0  0  0  0  0  0  0  0  0  0  0
   64.3630   30.5750   51.7930 C   0  0  0  0  0  0  0  0  0  0  0  0
   64.4140   32.0640   51.7300 C   0  0  0  0  0  0  0  0  0  0  0  0
   61.1800   32.1260   47.1580 C   0  0  0  0  0  0  0  0  0  0  0  0
   60.0460   31.8450   46.3880 C   0  0  0  0  0  0  0  0  0  0  0  0
   57.7125   32.0252   49.6716 H   0  0  0  0  0  0  0  0  0  0  0  0
   58.0872   33.4103   48.5910 H   0  0  0  0  0  0  0  0  0  0  0  0
   59.1460   31.9592   48.5910 H   0  0  0  0  0  0  0  0  0  0  0  0
   60.4447   33.1166   50.0725 H   0  0  0  0  0  0  0  0  0  0  0  0
   59.1620   34.3159   50.4016 H   0  0  0  0  0  0  0  0  0  0  0  0
   59.6573   32.6333   53.5452 H   0  0  0  0  0  0  0  0  0  0  0  0
   60.6333   33.6491   52.3754 H   0  0  0  0  0  0  0  0  0  0  0  0
   58.8024   34.6058   54.1448 H   0  0  0  0  0  0  0  0  0  0  0  0
   59.3500   35.4169   52.6385 H   0  0  0  0  0  0  0  0  0  0  0  0
   57.8362   34.4499   52.6385 H   0  0  0  0  0  0  0  0  0  0  0  0
   57.3200   33.0702   52.5885 H   0  0  0  0  0  0  0  0  0  0  0  0
   57.0958   32.6169   50.8576 H   0  0  0  0  0  0  0  0  0  0  0  0
   57.9641   30.7616   53.0748 H   0  0  0  0  0  0  0  0  0  0  0  0
   56.2721   30.9432   52.3547 H   0  0  0  0  0  0  0  0  0  0  0  0
   59.5365   30.2969   51.2655 H   0  0  0  0  0  0  0  0  0  0  0  0
   58.7594   28.5645   51.1765 H   0  0  0  0  0  0  0  0  0  0  0  0
   58.4009   28.7661   48.9459 H   0  0  0  0  0  0  0  0  0  0  0  0
   59.0245   30.4627   48.9308 H   0  0  0  0  0  0  0  0  0  0  0  0
   61.4911   27.4429   48.5476 H   0  0  0  0  0  0  0  0  0  0  0  0
   59.6727   27.2467   48.6316 H   0  0  0  0  0  0  0  0  0  0  0  0
   61.0647   27.5704   46.4247 H   0  0  0  0  0  0  0  0  0  0  0  0
   59.2991   28.1749   46.8071 H   0  0  0  0  0  0  0  0  0  0  0  0
   61.6790   29.8260   46.3410 H   0  0  0  0  0  0  0  0  0  0  0  0
   58.8474   28.2068   45.2959 H   0  0  0  0  0  0  0  0  0  0  0  0
   56.7595   27.8405   44.0301 H   0  0  0  0  0  0  0  0  0  0  0  0
   55.3284   29.7257   43.3312 H   0  0  0  0  0  0  0  0  0  0  0  0
   56.0103   32.0628   43.9161 H   0  0  0  0  0  0  0  0  0  0  0  0
   57.0379   34.3904   45.8101 H   0  0  0  0  0  0  0  0  0  0  0  0
   58.0053   34.5417   44.3041 H   0  0  0  0  0  0  0  0  0  0  0  0
   56.4879   33.5804   44.3041 H   0  0  0  0  0  0  0  0  0  0  0  0
   58.9396   35.0435   46.0537 H   0  0  0  0  0  0  0  0  0  0  0  0
   60.9562   35.5121   47.4195 H   0  0  0  0  0  0  0  0  0  0  0  0
   63.4094   31.8130   47.8423 H   0  0  0  0  0  0  0  0  0  0  0  0
   64.4638   33.2486   47.4592 H   0  0  0  0  0  0  0  0  0  0  0  0
   65.0179   31.6622   49.4433 H   0  0  0  0  0  0  0  0  0  0  0  0
   65.1718   33.4912   49.5574 H   0  0  0  0  0  0  0  0  0  0  0  0
   63.4549   34.1252   52.1358 H   0  0  0  0  0  0  0  0  0  0  0  0
   64.2806   34.6783   50.6395 H   0  0  0  0  0  0  0  0  0  0  0  0
   62.5039   34.4140   50.6395 H   0  0  0  0  0  0  0  0  0  0  0  0
   61.7412   32.5596   51.2894 H   0  0  0  0  0  0  0  0  0  0  0  0
   62.0691   32.2369   49.4945 H   0  0  0  0  0  0  0  0  0  0  0  0
   61.2230   30.3348   50.8484 H   0  0  0  0  0  0  0  0  0  0  0  0
   62.7585   30.1235   49.8776 H   0  0  0  0  0  0  0  0  0  0  0  0
   62.9899   30.1333   53.9963 H   0  0  0  0  0  0  0  0  0  0  0  0
   62.6364   31.7150   53.2219 H   0  0  0  0  0  0  0  0  0  0  0  0
   61.3942   30.4174   53.2219 H   0  0  0  0  0  0  0  0  0  0  0  0
   62.9729   28.2766   52.8772 H   0  0  0  0  0  0  0  0  0  0  0  0
   62.0753   28.3510   51.3230 H   0  0  0  0  0  0  0  0  0  0  0  0
   63.8715   28.3374   51.3230 H   0  0  0  0  0  0  0  0  0  0  0  0
   64.9394   30.2263   52.6626 H   0  0  0  0  0  0  0  0  0  0  0  0
   64.7940   30.1573   50.8712 H   0  0  0  0  0  0  0  0  0  0  0  0
   64.0043   32.4603   52.6708 H   0  0  0  0  0  0  0  0  0  0  0  0
   65.4690   32.3306   51.5689 H   0  0  0  0  0  0  0  0  0  0  0  0
   61.8334   31.3033   47.4839 H   0  0  0  0  0  0  0  0  0  0  0  0
  1  2  1  0
  2  3  1  0
  3  4  1  0
  4  5  1  0
  3  6  1  0
  6  7  1  0
  7  8  1  0
  8  9  1  0
  9 10  1  0
 10 11  1  0
 11 12  1  0
 12 13  1  0
 13 14  1  0
 14 15  1  0
 15 16  2  0
 16 17  1  0
 17 18  2  0
 18 19  1  0
 19 20  2  0
 20 21  1  0
 21 22  2  0
 22 23  1  0
 22 24  1  0
 24 25  2  0
 25 26  1  0
 26 27  2  0
 27 28  1  0
 28 29  1  0
 29 30  1  0
 30 31  1  0
 31 32  1  0
 31 33  1  0
 33 34  1  0
 34 35  1  0
 35 36  1  0
 35 37  1  0
 35 38  1  0
 38 39  1  0
 27 40  1  0
 40 41  2  0
 41 15  1  0
 21 16  1  0
 41 24  1  0
 39 31  1  0
  1 42  1  0
  1 43  1  0
  1 44  1  0
  2 45  1  0
  2 46  1  0
  4 47  1  0
  4 48  1  0
  5 49  1  0
  5 50  1  0
  5 51  1  0
  6 52  1  0
  6 53  1  0
  7 54  1  0
  7 55  1  0
  9 56  1  0
  9 57  1  0
 10 58  1  0
 10 59  1  0
 12 60  1  0
 12 61  1  0
 13 62  1  0
 13 63  1  0
 14 64  1  0
 17 65  1  0
 18 66  1  0
 19 67  1  0
 20 68  1  0
 23 69  1  0
 23 70  1  0
 23 71  1  0
 25 72  1  0
 26 73  1  0
 29 74  1  0
 29 75  1  0
 30 76  1  0
 30 77  1  0
 32 78  1  0
 32 79  1  0
 32 80  1  0
 33 81  1  0
 33 82  1  0
 34 83  1  0
 34 84  1  0
 36 85  1  0
 36 86  1  0
 36 87  1  0
 37 88  1  0
 37 89  1  0
 37 90  1  0
 38 91  1  0
 38 92  1  0
 39 93  1  0
 39 94  1  0
 40 95  1  0
M  CHG  3  22   1  31   1  35   1
M  END
>  <smiles>  (13) 
CCN(CC)CCOCCOCCNc1c2ccccc2[n+](C)c2ccc(OCC[N+]3(C)CC[N+](C)(C)CC3)cc12

>  <score_type>  (13) 
oracle

>  <origin>  (13) 
adg

>  <m_score__min__energy>  (13) 
-4.8300000000000001

>  <m_primary>  (13) 
energy

$$$$
13:0
     RDKit          3D

 42 43  0  0  0  0  0  0  0  0999 V2000
   59.5410   31.7050   46.6140 C   0  0  0  0  0  0  0  0  0  0  0  0
   60.6240   30.6550   46.7800 C   0  0  0  0  0  0  0  0  0  0  0  0
   60.4300   29.6680   45.7990 O   0  0  0  0  0  0  0  0  0  0  0  0
   59.4120   28.7260   45.8430 C   0  0  0  0  0  0  0  0  0  0  0  0
   59.5080   27.7340   46.7810 C   0  0  0  0  0  0  0  0  0  0  0  0
   58.5570   26.7430   46.9200 C   0  0  0  0  0  0  0  0  0  0  0  0
   57.4850   26.8010   46.0480 C   0  0  0  0  0  0  0  0  0  0  0  0
   56.2450   25.5720   46.1730 S   0  0  0  0  0  0  0  0  0  0  0  0
   56.2480   24.9430   47.5200 O   0  0  0  0  0  0  0  0  0  0  0  0
   54.9130   26.2550   45.9990 O   0  0  0  0  0  0  0  0  0  0  0  0
   56.3900   24.4080   44.9100 N   0  0  0  0  0  0  0  0  0  0  0  0
   55.7280   23.2050   45.3200 C   0  0  0  0  0  0  0  0  0  0  0  0
   56.4320   22.3770   46.3130 C   0  0  0  0  0  0  0  0  0  0  0  0
   57.7800   22.4120   46.3770 O   0  0  0  0  0  0  0  0  0  0  0  0
   58.4720   23.2690   45.6090 C   0  0  0  0  0  0  0  0  0  0  0  0
   57.7450   24.0780   44.6150 C   0  0  0  0  0  0  0  0  0  0  0  0
   57.3890   27.8080   45.0980 C   0  0  0  0  0  0  0  0  0  0  0  0
   58.3440   28.7890   44.9710 C   0  0  0  0  0  0  0  0  0  0  0  0
   58.3130   29.8410   44.0300 N   0  0  0  0  0  0  0  0  0  0  0  0
   57.3060   30.7990   43.8760 C   0  0  0  0  0  0  0  0  0  0  0  0
   57.4210   31.8660   42.8180 C   0  0  0  0  0  0  0  0  0  0  0  0
   56.2730   30.8430   44.5780 O   0  0  0  0  0  0  0  0  0  0  0  0
   59.1979   32.0377   47.6048 H   0  0  0  0  0  0  0  0  0  0  0  0
   59.9452   32.5640   46.0585 H   0  0  0  0  0  0  0  0  0  0  0  0
   58.6949   31.2744   46.0585 H   0  0  0  0  0  0  0  0  0  0  0  0
   61.6140   31.1173   46.6529 H   0  0  0  0  0  0  0  0  0  0  0  0
   60.5715   30.2092   47.7843 H   0  0  0  0  0  0  0  0  0  0  0  0
   60.3794   27.7260   47.4522 H   0  0  0  0  0  0  0  0  0  0  0  0
   58.6466   25.9530   47.6802 H   0  0  0  0  0  0  0  0  0  0  0  0
   54.7553   23.4877   45.7489 H   0  0  0  0  0  0  0  0  0  0  0  0
   55.6630   22.5838   44.4145 H   0  0  0  0  0  0  0  0  0  0  0  0
   56.0576   22.6780   47.3026 H   0  0  0  0  0  0  0  0  0  0  0  0
   56.2173   21.3483   45.9878 H   0  0  0  0  0  0  0  0  0  0  0  0
   58.9820   23.9703   46.2859 H   0  0  0  0  0  0  0  0  0  0  0  0
   59.1184   22.6188   45.0011 H   0  0  0  0  0  0  0  0  0  0  0  0
   58.2958   25.0218   44.4896 H   0  0  0  0  0  0  0  0  0  0  0  0
   57.6940   23.4453   43.7166 H   0  0  0  0  0  0  0  0  0  0  0  0
   56.5198   27.8219   44.4240 H   0  0  0  0  0  0  0  0  0  0  0  0
   59.1380   29.9280   43.3580 H   0  0  0  0  0  0  0  0  0  0  0  0
   57.5270   32.8495   43.2991 H   0  0  0  0  0  0  0  0  0  0  0  0
   58.3029   31.6674   42.1913 H   0  0  0  0  0  0  0  0  0  0  0  0
   56.5170   31.8599   42.1913 H   0  0  0  0  0  0  0  0  0  0  0  0
  1  2  1  0
  2  3  1  0
  3  4  1  0
  4  5  2  0
  5  6  1  0
  6  7  2  0
  7  8  1  0
  8  9  2  0
  8 10  2  0
  8 11  1  0
 11 12  1  0
 12 13  1  0
 13 14  1  0
 14 15  1  0
 15 16  1  0
  7 17  1  0
 17 18  2  0
 18 19  1  0
 19 20  1  0
 20 21  1  0
 20 22  2  0
 18  4  1  0
 16 11  1  0
  1 23  1  0
  1 24  1  0
  1 25  1  0
  2 26  1  0
  2 27  1  0
  5 28  1  0
  6 29  1  0
 12 30  1  0
 12 31  1  0
 13 32  1  0
 13 33  1  0
 15 34  1  0
 15 35  1  0
 16 36  1  0
 16 37  1  0
 17 38  1  0
 19 39  1  0
 21 40  1  0
 21 41  1  0
 21 42  1  0
M  END
>  <smiles>  (14) 
CCOc1ccc(S(=O)(=O)N2CCOCC2)cc1NC(C)=O

>  <score_type>  (14) 
oracle

>  <origin>  (14) 
adg

>  <m_score__min__energy>  (14) 
-7.1699999999999999

>  <m_primary>  (14) 
energy

$$$$
14:0
     RDKit          3D

 63 65  0  0  0  0  0  0  0  0999 V2000
   59.6510   33.9950   49.6230 C   0  0  0  0  0  0  0  0  0  0  0  0
   58.9210   32.7300   49.3530 C   0  0  0  0  0  0  0  0  0  0  0  0
   59.4000   31.6000   50.0790 N   0  0  0  0  0  0  0  0  0  0  0  0
   58.6990   31.7180   51.4090 C   0  0  0  0  0  0  0  0  0  0  0  0
   58.8700   30.3240   49.5410 C   0  0  0  0  0  0  0  0  0  0  0  0
   59.6910   29.1340   49.7390 C   0  0  0  0  0  0  0  0  0  0  0  0
   61.0220   29.1560   49.6570 O   0  0  0  0  0  0  0  0  0  0  0  0
   61.9140   29.4020   50.5850 C   0  0  0  0  0  0  0  0  0  0  0  0
   62.3860   30.7990   50.8400 C   0  0  0  0  0  0  0  0  0  0  0  0
   62.1500   31.6850   49.8340 O   0  0  0  0  0  0  0  0  0  0  0  0
   63.1530   32.4810   49.3880 C   0  0  0  0  0  0  0  0  0  0  0  0
   62.8820   32.7780   47.9110 C   0  0  0  0  0  0  0  0  0  0  0  0
   62.4990   31.5370   47.1420 C   0  0  0  0  0  0  0  0  0  0  0  0
   61.1230   31.2190   47.4760 N   0  0  0  0  0  0  0  0  0  0  0  0
   60.0910   31.1870   46.5030 C   0  0  0  0  0  0  0  0  0  0  0  0
   59.4670   32.2870   45.9800 C   0  0  0  0  0  0  0  0  0  0  0  0
   59.8480   33.5450   46.4240 C   0  0  0  0  0  0  0  0  0  0  0  0
   59.1980   34.6160   45.8760 C   0  0  0  0  0  0  0  0  0  0  0  0
   58.2110   34.5470   44.9340 C   0  0  0  0  0  0  0  0  0  0  0  0
   57.8460   33.2720   44.5050 C   0  0  0  0  0  0  0  0  0  0  0  0
   58.4700   32.1460   45.0250 C   0  0  0  0  0  0  0  0  0  0  0  0
   58.0870   30.9010   44.5820 N   0  0  0  0  0  0  0  0  0  0  0  0
   57.0680   30.8440   43.6210 C   0  0  0  0  0  0  0  0  0  0  0  0
   58.7070   29.8160   45.1020 C   0  0  0  0  0  0  0  0  0  0  0  0
   58.3690   28.5590   44.7000 C   0  0  0  0  0  0  0  0  0  0  0  0
   58.9450   27.3940   45.1730 C   0  0  0  0  0  0  0  0  0  0  0  0
   59.9520   27.5380   46.1370 C   0  0  0  0  0  0  0  0  0  0  0  0
   60.3360   28.7990   46.5830 C   0  0  0  0  0  0  0  0  0  0  0  0
   59.7050   29.9310   46.0560 C   0  0  0  0  0  0  0  0  0  0  0  0
   59.7370   34.1440   50.7095 H   0  0  0  0  0  0  0  0  0  0  0  0
   60.6562   33.9400   49.1798 H   0  0  0  0  0  0  0  0  0  0  0  0
   59.1004   34.8378   49.1798 H   0  0  0  0  0  0  0  0  0  0  0  0
   57.8633   32.8821   49.6142 H   0  0  0  0  0  0  0  0  0  0  0  0
   59.0749   32.5033   48.2877 H   0  0  0  0  0  0  0  0  0  0  0  0
   59.4305   31.5949   52.2212 H   0  0  0  0  0  0  0  0  0  0  0  0
   58.2267   32.7083   51.4879 H   0  0  0  0  0  0  0  0  0  0  0  0
   57.9285   30.9369   51.4879 H   0  0  0  0  0  0  0  0  0  0  0  0
   57.8968   30.1400   50.0195 H   0  0  0  0  0  0  0  0  0  0  0  0
   58.8288   30.4667   48.4511 H   0  0  0  0  0  0  0  0  0  0  0  0
   59.4539   28.7647   50.7477 H   0  0  0  0  0  0  0  0  0  0  0  0
   59.4228   28.5285   48.8607 H   0  0  0  0  0  0  0  0  0  0  0  0
   61.4914   29.0354   51.5321 H   0  0  0  0  0  0  0  0  0  0  0  0
   62.8155   28.9058   50.1962 H   0  0  0  0  0  0  0  0  0  0  0  0
   61.8805   31.1689   51.7443 H   0  0  0  0  0  0  0  0  0  0  0  0
   63.4796   30.7372   50.9408 H   0  0  0  0  0  0  0  0  0  0  0  0
   63.1719   33.4189   49.9624 H   0  0  0  0  0  0  0  0  0  0  0  0
   64.1264   31.9837   49.5111 H   0  0  0  0  0  0  0  0  0  0  0  0
   62.0605   33.5061   47.8408 H   0  0  0  0  0  0  0  0  0  0  0  0
   63.8080   33.1764   47.4707 H   0  0  0  0  0  0  0  0  0  0  0  0
   62.5891   31.7229   46.0616 H   0  0  0  0  0  0  0  0  0  0  0  0
   63.1629   30.7002   47.4049 H   0  0  0  0  0  0  0  0  0  0  0  0
   60.8270   30.9970   48.4720 H   0  0  0  0  0  0  0  0  0  0  0  0
   60.6356   33.6747   47.1809 H   0  0  0  0  0  0  0  0  0  0  0  0
   59.4947   35.6169   46.2227 H   0  0  0  0  0  0  0  0  0  0  0  0
   57.7289   35.4514   44.5345 H   0  0  0  0  0  0  0  0  0  0  0  0
   57.0565   33.1569   43.7477 H   0  0  0  0  0  0  0  0  0  0  0  0
   56.0916   30.7894   44.1247 H   0  0  0  0  0  0  0  0  0  0  0  0
   57.1062   31.7457   42.9921 H   0  0  0  0  0  0  0  0  0  0  0  0
   57.2066   29.9522   42.9921 H   0  0  0  0  0  0  0  0  0  0  0  0
   57.5779   28.4634   43.9417 H   0  0  0  0  0  0  0  0  0  0  0  0
   58.6288   26.4046   44.8109 H   0  0  0  0  0  0  0  0  0  0  0  0
   60.4447   26.6436   46.5460 H   0  0  0  0  0  0  0  0  0  0  0  0
   61.1262   28.9045   47.3409 H   0  0  0  0  0  0  0  0  0  0  0  0
  1  2  1  0
  2  3  1  0
  3  4  1  0
  3  5  1  0
  5  6  1  0
  6  7  1  0
  7  8  1  0
  8  9  1  0
  9 10  1  0
 10 11  1  0
 11 12  1  0
 12 13  1  0
 13 14  1  0
 14 15  1  0
 15 16  2  0
 16 17  1  0
 17 18  2  0
 18 19  1  0
 19 20  2  0
 20 21  1  0
 21 22  2  0
 22 23  1  0
 22 24  1  0
 24 25  2  0
 25 26  1  0
 26 27  2  0
 27 28  1  0
 28 29  2  0
 29 15  1  0
 21 16  1  0
 29 24  1  0
  1 30  1  0
  1 31  1  0
  1 32  1  0
  2 33  1  0
  2 34  1  0
  4 35  1  0
  4 36  1  0
  4 37  1  0
  5 38  1  0
  5 39  1  0
  6 40  1  0
  6 41  1  0
  8 42  1  0
  8 43  1  0
  9 44  1  0
  9 45  1  0
 11 46  1  0
 11 47  1  0
 12 48  1  0
 12 49  1  0
 13 50  1  0
 13 51  1  0
 14 52  1  0
 17 53  1  0
 18 54  1  0
 19 55  1  0
 20 56  1  0
 23 57  1  0
 23 58  1  0
 23 59  1  0
 25 60  1  0
 26 61  1  0
 27 62  1  0
 28 63  1  0
M  CHG  1  22   1
M  END
>  <smiles>  (15) 
CCN(C)CCOCCOCCCNc1c2ccccc2[n+](C)c2ccccc12

>  <score_type>  (15) 
oracle

>  <origin>  (15) 
adg

>  <m_score__min__energy>  (15) 
-5.9800000000000004

>  <m_primary>  (15) 
energy

$$$$
15:0
     RDKit          3D

 45 47  0  0  0  0  0  0  0  0999 V2000
   63.5790   32.5900   49.5530 C   0  0  0  0  0  0  0  0  0  0  0  0
   63.8660   32.6140   48.1490 N   0  0  0  0  0  0  0  0  0  0  0  0
   63.1560   31.6560   47.3690 C   0  0  0  0  0  0  0  0  0  0  0  0
   61.6510   31.9760   47.2600 C   0  0  0  0  0  0  0  0  0  0  0  0
   61.4840   33.2610   46.6970 N   0  0  0  0  0  0  0  0  0  0  0  0
   60.6410   34.1960   47.3280 C   0  0  0  0  0  0  0  0  0  0  0  0
   59.6400   34.9080   46.4900 C   0  0  0  0  0  0  0  0  0  0  0  0
   59.3600   34.3270   45.1500 C   0  0  0  0  0  0  0  0  0  0  0  0
   57.9850   33.6480   45.0760 C   0  0  0  0  0  0  0  0  0  0  0  0
   58.1130   32.2490   44.7630 N   0  0  0  0  0  0  0  0  0  0  0  0
   58.0060   31.6150   43.5730 C   0  0  0  0  0  0  0  0  0  0  0  0
   57.7220   32.3220   42.1100 S   0  0  0  0  0  0  0  0  0  0  0  0
   58.1840   30.2890   43.7450 N   0  0  0  0  0  0  0  0  0  0  0  0
   58.4090   30.0510   45.0440 C   0  0  0  0  0  0  0  0  0  0  0  0
   58.6500   28.9000   45.7590 C   0  0  0  0  0  0  0  0  0  0  0  0
   58.8470   28.9710   47.1210 C   0  0  0  0  0  0  0  0  0  0  0  0
   58.8090   30.1840   47.7920 C   0  0  0  0  0  0  0  0  0  0  0  0
   58.5650   31.3160   47.0370 C   0  0  0  0  0  0  0  0  0  0  0  0
   58.3620   31.2900   45.6750 C   0  0  0  0  0  0  0  0  0  0  0  0
   62.7520   33.8580   46.3750 C   0  0  0  0  0  0  0  0  0  0  0  0
   63.6710   33.9220   47.5860 C   0  0  0  0  0  0  0  0  0  0  0  0
   64.5180   32.6685   50.1206 H   0  0  0  0  0  0  0  0  0  0  0  0
   62.9245   33.4366   49.8080 H   0  0  0  0  0  0  0  0  0  0  0  0
   63.0742   31.6465   49.8080 H   0  0  0  0  0  0  0  0  0  0  0  0
   63.5862   31.6376   46.3568 H   0  0  0  0  0  0  0  0  0  0  0  0
   63.2534   30.6814   47.8697 H   0  0  0  0  0  0  0  0  0  0  0  0
   61.1623   31.2279   46.6185 H   0  0  0  0  0  0  0  0  0  0  0  0
   61.1968   31.9518   48.2615 H   0  0  0  0  0  0  0  0  0  0  0  0
   60.0884   33.6605   48.1140 H   0  0  0  0  0  0  0  0  0  0  0  0
   61.3203   34.9873   47.6778 H   0  0  0  0  0  0  0  0  0  0  0  0
   58.6926   34.9307   47.0486 H   0  0  0  0  0  0  0  0  0  0  0  0
   60.0785   35.8971   46.2916 H   0  0  0  0  0  0  0  0  0  0  0  0
   59.3955   35.1330   44.4022 H   0  0  0  0  0  0  0  0  0  0  0  0
   60.1220   33.5581   44.9546 H   0  0  0  0  0  0  0  0  0  0  0  0
   57.4795   33.7539   46.0472 H   0  0  0  0  0  0  0  0  0  0  0  0
   57.3995   34.1315   44.2801 H   0  0  0  0  0  0  0  0  0  0  0  0
   58.1470   29.5940   42.9650 H   0  0  0  0  0  0  0  0  0  0  0  0
   58.6852   27.9278   45.2456 H   0  0  0  0  0  0  0  0  0  0  0  0
   59.0381   28.0474   47.6871 H   0  0  0  0  0  0  0  0  0  0  0  0
   58.9664   30.2429   48.8791 H   0  0  0  0  0  0  0  0  0  0  0  0
   58.5312   32.2881   47.5507 H   0  0  0  0  0  0  0  0  0  0  0  0
   63.2382   33.2596   45.5905 H   0  0  0  0  0  0  0  0  0  0  0  0
   62.5679   34.8865   46.0312 H   0  0  0  0  0  0  0  0  0  0  0  0
   64.6447   34.3310   47.2784 H   0  0  0  0  0  0  0  0  0  0  0  0
   63.2073   34.5674   48.3465 H   0  0  0  0  0  0  0  0  0  0  0  0
  1  2  1  0
  2  3  1  0
  3  4  1  0
  4  5  1  0
  5  6  1  0
  6  7  1  0
  7  8  1  0
  8  9  1  0
  9 10  1  0
 10 11  1  0
 11 12  2  0
 11 13  1  0
 13 14  1  0
 14 15  2  0
 15 16  1  0
 16 17  2  0
 17 18  1  0
 18 19  2  0
  5 20  1  0
 20 21  1  0
 21  2  1  0
 19 10  1  0
 19 14  1  0
  1 22  1  0
  1 23  1  0
  1 24  1  0
  3 25  1  0
  3 26  1  0
  4 27  1  0
  4 28  1  0
  6 29  1  0
  6 30  1  0
  7 31  1  0
  7 32  1  0
  8 33  1  0
  8 34  1  0
  9 35  1  0
  9 36  1  0
 13 37  1  0
 15 38  1  0
 16 39  1  0
 17 40  1  0
 18 41  1  0
 20 42  1  0
 20 43  1  0
 21 44  1  0
 21 45  1  0
M  END
>  <smiles>  (16) 
CN1CCN(CCCCn2c(=S)[nH]c3ccccc32)CC1

>  <score_type>  (16) 
oracle

>  <origin>  (16) 
adg

>  <m_score__min__energy>  (16) 
-7.21

>  <m_primary>  (16) 
energy

$$$$
16:0
     RDKit          3D

 25 27  0  0  0  0  0  0  0  0999 V2000
   65.2120   33.0950   50.0240 Br  0  0  0  0  0  0  0  0  0  0  0  0
   63.6490   33.2080   48.9500 C   0  0  0  0  0  0  0  0  0  0  0  0
   62.4200   33.1610   49.5650 C   0  0  0  0  0  0  0  0  0  0  0  0
   61.2910   33.2420   48.7790 C   0  0  0  0  0  0  0  0  0  0  0  0
   61.3290   33.3690   47.4060 C   0  0  0  0  0  0  0  0  0  0  0  0
   60.0990   33.4540   46.5950 C   0  0  0  0  0  0  0  0  0  0  0  0
   59.3670   34.6370   46.4930 C   0  0  0  0  0  0  0  0  0  0  0  0
   57.9640   34.2130   45.3940 S   0  0  0  0  0  0  0  0  0  0  0  0
   58.6160   32.4400   45.2440 C   0  0  0  0  0  0  0  0  0  0  0  0
   57.8220   31.5570   44.4070 C   0  0  0  0  0  0  0  0  0  0  0  0
   57.3940   31.5820   43.1600 C   0  0  0  0  0  0  0  0  0  0  0  0
   56.6530   30.5680   42.6760 C   0  0  0  0  0  0  0  0  0  0  0  0
   56.3840   29.5280   43.5710 C   0  0  0  0  0  0  0  0  0  0  0  0
   57.2070   30.0280   45.1020 S   0  0  0  0  0  0  0  0  0  0  0  0
   59.5990   32.4590   45.9210 N   0  0  0  0  0  0  0  0  0  0  0  0
   62.5550   33.4140   46.8100 C   0  0  0  0  0  0  0  0  0  0  0  0
   63.7230   33.3340   47.5700 C   0  0  0  0  0  0  0  0  0  0  0  0
   62.3400   33.0612   50.6575 H   0  0  0  0  0  0  0  0  0  0  0  0
   60.3085   33.2034   49.2721 H   0  0  0  0  0  0  0  0  0  0  0  0
   59.5835   35.6063   46.9660 H   0  0  0  0  0  0  0  0  0  0  0  0
   57.6437   32.4354   42.5124 H   0  0  0  0  0  0  0  0  0  0  0  0
   56.2820   30.5581   41.6405 H   0  0  0  0  0  0  0  0  0  0  0  0
   55.8030   28.6125   43.3858 H   0  0  0  0  0  0  0  0  0  0  0  0
   62.6241   33.5146   45.7168 H   0  0  0  0  0  0  0  0  0  0  0  0
   64.7042   33.3709   47.0740 H   0  0  0  0  0  0  0  0  0  0  0  0
  1  2  1  0
  2  3  2  0
  3  4  1  0
  4  5  2  0
  5  6  1  0
  6  7  2  0
  7  8  1  0
  8  9  1  0
  9 10  1  0
 10 11  2  0
 11 12  1  0
 12 13  2  0
 13 14  1  0
  9 15  2  0
  5 16  1  0
 16 17  2  0
 17  2  1  0
 15  6  1  0
 14 10  1  0
  3 18  1  0
  4 19  1  0
  7 20  1  0
 11 21  1  0
 12 22  1  0
 13 23  1  0
 16 24  1  0
 17 25  1  0
M  END
>  <smiles>  (17) 
Brc1ccc(-c2csc(-c3cccs3)n2)cc1

>  <score_type>  (17) 
oracle

>  <origin>  (17) 
adg

>  <m_score__min__energy>  (17) 
-7.2000000000000002

>  <m_primary>  (17) 
energy

$$$$
17:0
     RDKit          3D

 51 53  0  0  0  0  0  0  0  0999 V2000
   60.1260   29.9010   48.0530 C   0  0  0  0  0  0  0  0  0  0  0  0
   59.5340   29.4700   46.7110 C   0  0  0  0  0  0  0  0  0  0  0  0
   58.6890   29.7560   45.9670 N   0  0  0  0  0  0  0  0  0  0  0  0
   58.3520   29.2110   44.8180 C   0  0  0  0  0  0  0  0  0  0  0  0
   57.2380   29.6770   43.9560 C   0  0  0  0  0  0  0  0  0  0  0  0
   57.1370   31.1650   43.9430 C   0  0  0  0  0  0  0  0  0  0  0  0
   56.6590   31.7080   45.1700 N   0  0  0  0  0  0  0  0  0  0  0  0
   56.9710   33.0820   45.4150 C   0  0  0  0  0  0  0  0  0  0  0  0
   58.0850   33.2270   46.4170 C   0  0  0  0  0  0  0  0  0  0  0  0
   57.9940   32.7420   47.7000 C   0  0  0  0  0  0  0  0  0  0  0  0
   59.1930   33.0560   48.3010 C   0  0  0  0  0  0  0  0  0  0  0  0
   59.9900   33.7210   47.3760 C   0  0  0  0  0  0  0  0  0  0  0  0
   61.3540   34.2100   47.6940 C   0  0  0  0  0  0  0  0  0  0  0  0
   62.3230   33.2870   47.1710 N   0  0  0  0  0  0  0  0  0  0  0  0
   63.3520   33.8420   46.3670 C   0  0  0  0  0  0  0  0  0  0  0  0
   62.7600   32.2760   48.0900 C   0  0  0  0  0  0  0  0  0  0  0  0
   63.5680   32.7600   49.2150 C   0  0  0  0  0  0  0  0  0  0  0  0
   64.8450   32.3870   49.5520 C   0  0  0  0  0  0  0  0  0  0  0  0
   65.1910   33.1080   50.6850 C   0  0  0  0  0  0  0  0  0  0  0  0
   64.0860   33.8820   50.9650 C   0  0  0  0  0  0  0  0  0  0  0  0
   63.1490   33.6670   50.1000 O   0  0  0  0  0  0  0  0  0  0  0  0
   59.2930   33.8210   46.2160 N   0  0  0  0  0  0  0  0  0  0  0  0
   59.6520   34.4190   44.9670 C   0  0  0  0  0  0  0  0  0  0  0  0
   59.1030   33.7880   43.8950 F   0  0  0  0  0  0  0  0  0  0  0  0
   59.2710   35.7610   44.9460 F   0  0  0  0  0  0  0  0  0  0  0  0
   59.1680   28.1270   44.4880 C   0  0  0  0  0  0  0  0  0  0  0  0
   60.3620   27.9990   45.8950 S   0  0  0  0  0  0  0  0  0  0  0  0
   59.5320   29.4685   48.8716 H   0  0  0  0  0  0  0  0  0  0  0  0
   61.1646   29.5462   48.1265 H   0  0  0  0  0  0  0  0  0  0  0  0
   60.1074   30.9984   48.1265 H   0  0  0  0  0  0  0  0  0  0  0  0
   57.4093   29.3222   42.9290 H   0  0  0  0  0  0  0  0  0  0  0  0
   56.2985   29.2727   44.3607 H   0  0  0  0  0  0  0  0  0  0  0  0
   58.1354   31.5810   43.7426 H   0  0  0  0  0  0  0  0  0  0  0  0
   56.4109   31.4355   43.1622 H   0  0  0  0  0  0  0  0  0  0  0  0
   57.0460   31.1620   45.9730 H   0  0  0  0  0  0  0  0  0  0  0  0
   57.2780   33.5525   44.4693 H   0  0  0  0  0  0  0  0  0  0  0  0
   56.0745   33.5708   45.8240 H   0  0  0  0  0  0  0  0  0  0  0  0
   57.1418   32.2136   48.1522 H   0  0  0  0  0  0  0  0  0  0  0  0
   59.4729   32.8203   49.3384 H   0  0  0  0  0  0  0  0  0  0  0  0
   61.5053   35.1994   47.2378 H   0  0  0  0  0  0  0  0  0  0  0  0
   61.4720   34.2897   48.7847 H   0  0  0  0  0  0  0  0  0  0  0  0
   64.1351   34.2644   47.0138 H   0  0  0  0  0  0  0  0  0  0  0  0
   63.7857   33.0554   45.7320 H   0  0  0  0  0  0  0  0  0  0  0  0
   62.9329   34.6364   45.7320 H   0  0  0  0  0  0  0  0  0  0  0  0
   61.8676   31.7808   48.5004 H   0  0  0  0  0  0  0  0  0  0  0  0
   63.4116   31.6021   47.5145 H   0  0  0  0  0  0  0  0  0  0  0  0
   65.4743   31.6554   49.0240 H   0  0  0  0  0  0  0  0  0  0  0  0
   66.1404   33.0702   51.2392 H   0  0  0  0  0  0  0  0  0  0  0  0
   64.0112   34.5853   51.8075 H   0  0  0  0  0  0  0  0  0  0  0  0
   60.7449   34.3250   44.8850 H   0  0  0  0  0  0  0  0  0  0  0  0
   59.1131   27.4914   43.5919 H   0  0  0  0  0  0  0  0  0  0  0  0
  1  2  1  0
  2  3  2  0
  3  4  1  0
  4  5  1  0
  5  6  1  0
  6  7  1  0
  7  8  1  0
  8  9  1  0
  9 10  2  0
 10 11  1  0
 11 12  2  0
 12 13  1  0
 13 14  1  0
 14 15  1  0
 14 16  1  0
 16 17  1  0
 17 18  2  0
 18 19  1  0
 19 20  2  0
 20 21  1  0
 12 22  1  0
 22 23  1  0
 23 24  1  0
 23 25  1  0
  4 26  2  0
 26 27  1  0
 27  2  1  0
 22  9  1  0
 21 17  1  0
  1 28  1  0
  1 29  1  0
  1 30  1  0
  5 31  1  0
  5 32  1  0
  6 33  1  0
  6 34  1  0
  7 35  1  0
  8 36  1  0
  8 37  1  0
 10 38  1  0
 11 39  1  0
 13 40  1  0
 13 41  1  0
 15 42  1  0
 15 43  1  0
 15 44  1  0
 16 45  1  0
 16 46  1  0
 18 47  1  0
 19 48  1  0
 20 49  1  0
 23 50  1  0
 26 51  1  0
M  END
>  <smiles>  (18) 
Cc1nc(CCNCc2ccc(CN(C)Cc3ccco3)n2C(F)F)cs1

>  <score_type>  (18) 
oracle

>  <origin>  (18) 
adg

>  <m_score__min__energy>  (18) 
-7.7400000000000002

>  <m_primary>  (18) 
energy

$$$$
18:0
     RDKit          3D

 30 32  0  0  0  0  0  0  0  0999 V2000
   58.9030   29.4210   47.5360 C   0  0  0  0  0  0  0  0  0  0  0  0
   58.2330   30.2430   46.5480 N   0  0  0  0  0  0  0  0  0  0  0  0
   57.4560   29.7950   45.5220 C   0  0  0  0  0  0  0  0  0  0  0  0
   57.0100   30.8690   44.8200 N   0  0  0  0  0  0  0  0  0  0  0  0
   57.4950   31.9880   45.3900 C   0  0  0  0  0  0  0  0  0  0  0  0
   57.3110   33.3040   45.0270 C   0  0  0  0  0  0  0  0  0  0  0  0
   57.9360   34.2730   45.8020 C   0  0  0  0  0  0  0  0  0  0  0  0
   58.7090   33.8880   46.8930 C   0  0  0  0  0  0  0  0  0  0  0  0
   59.3370   34.9040   47.6680 N   0  0  0  0  0  0  0  0  0  0  0  0
   60.2870   34.5440   48.6710 C   0  0  0  0  0  0  0  0  0  0  0  0
   61.5540   34.0310   48.2430 C   0  0  0  0  0  0  0  0  0  0  0  0
   62.6800   33.5880   48.8610 C   0  0  0  0  0  0  0  0  0  0  0  0
   63.7320   33.1590   48.1830 C   0  0  0  0  0  0  0  0  0  0  0  0
   63.6600   33.1720   46.7950 C   0  0  0  0  0  0  0  0  0  0  0  0
   61.9860   33.8360   46.4170 S   0  0  0  0  0  0  0  0  0  0  0  0
   58.8630   32.5480   47.2180 C   0  0  0  0  0  0  0  0  0  0  0  0
   58.2430   31.5820   46.4500 C   0  0  0  0  0  0  0  0  0  0  0  0
   58.6258   29.7610   48.5447 H   0  0  0  0  0  0  0  0  0  0  0  0
   58.5996   28.3716   47.4065 H   0  0  0  0  0  0  0  0  0  0  0  0
   59.9920   29.5065   47.4065 H   0  0  0  0  0  0  0  0  0  0  0  0
   57.2285   28.7419   45.2999 H   0  0  0  0  0  0  0  0  0  0  0  0
   56.6939   33.5768   44.1582 H   0  0  0  0  0  0  0  0  0  0  0  0
   57.8204   35.3385   45.5545 H   0  0  0  0  0  0  0  0  0  0  0  0
   59.1030   35.9040   47.5000 H   0  0  0  0  0  0  0  0  0  0  0  0
   60.4845   35.4435   49.2726 H   0  0  0  0  0  0  0  0  0  0  0  0
   59.8174   33.7056   49.2064 H   0  0  0  0  0  0  0  0  0  0  0  0
   62.7182   33.5860   49.9603 H   0  0  0  0  0  0  0  0  0  0  0  0
   64.6348   32.8034   48.7012 H   0  0  0  0  0  0  0  0  0  0  0  0
   64.4334   32.8551   46.0799 H   0  0  0  0  0  0  0  0  0  0  0  0
   59.4761   32.2563   48.0834 H   0  0  0  0  0  0  0  0  0  0  0  0
  1  2  1  0
  2  3  1  0
  3  4  2  0
  4  5  1  0
  5  6  2  0
  6  7  1  0
  7  8  2  0
  8  9  1  0
  9 10  1  0
 10 11  1  0
 11 12  2  0
 12 13  1  0
 13 14  2  0
 14 15  1  0
  8 16  1  0
 16 17  2  0
 17  2  1  0
 17  5  1  0
 15 11  1  0
  1 18  1  0
  1 19  1  0
  1 20  1  0
  3 21  1  0
  6 22  1  0
  7 23  1  0
  9 24  1  0
 10 25  1  0
 10 26  1  0
 12 27  1  0
 13 28  1  0
 14 29  1  0
 16 30  1  0
M  END
>  <smiles>  (19) 
Cn1cnc2ccc(NCc3cccs3)cc21

>  <score_type>  (19) 
oracle

>  <origin>  (19) 
adg

>  <m_score__min__energy>  (19) 
-6.1900000000000004

>  <m_primary>  (19) 
energy

$$$$
19:0
     RDKit          3D

 33 35  0  0  0  0  0  0  0  0999 V2000
   61.2280   33.8450   46.3890 C   0  0  0  0  0  0  0  0  0  0  0  0
   59.9770   33.3920   46.9980 N   0  0  0  0  0  0  0  0  0  0  0  0
   59.8810   32.6060   48.0880 C   0  0  0  0  0  0  0  0  0  0  0  0
   58.5310   32.3810   48.3760 C   0  0  0  0  0  0  0  0  0  0  0  0
   57.7960   33.0660   47.4080 C   0  0  0  0  0  0  0  0  0  0  0  0
   58.7200   33.6770   46.5740 C   0  0  0  0  0  0  0  0  0  0  0  0
   58.4680   34.5300   45.3820 C   0  0  0  0  0  0  0  0  0  0  0  0
   57.4630   33.9650   44.5000 N   0  0  0  0  0  0  0  0  0  0  0  0
   58.0480   32.8830   43.7760 C   0  0  0  0  0  0  0  0  0  0  0  0
   57.4800   31.5610   44.1700 C   0  0  0  0  0  0  0  0  0  0  0  0
   58.1730   30.4000   43.9960 N   0  0  0  0  0  0  0  0  0  0  0  0
   57.4070   29.3830   44.4430 C   0  0  0  0  0  0  0  0  0  0  0  0
   57.7310   27.9190   44.4630 C   0  0  0  0  0  0  0  0  0  0  0  0
   59.0940   27.5570   45.0870 C   0  0  0  0  0  0  0  0  0  0  0  0
   57.8450   27.2390   45.8290 C   0  0  0  0  0  0  0  0  0  0  0  0
   56.2680   29.9550   44.8760 N   0  0  0  0  0  0  0  0  0  0  0  0
   56.3360   31.2610   44.7020 O   0  0  0  0  0  0  0  0  0  0  0  0
   61.9473   34.1055   47.1794 H   0  0  0  0  0  0  0  0  0  0  0  0
   61.6444   33.0406   45.7649 H   0  0  0  0  0  0  0  0  0  0  0  0
   61.0328   34.7295   45.7649 H   0  0  0  0  0  0  0  0  0  0  0  0
   60.7300   32.2047   48.6608 H   0  0  0  0  0  0  0  0  0  0  0  0
   58.1272   31.7807   49.2046 H   0  0  0  0  0  0  0  0  0  0  0  0
   56.7003   33.1122   47.3232 H   0  0  0  0  0  0  0  0  0  0  0  0
   58.1249   35.5186   45.7211 H   0  0  0  0  0  0  0  0  0  0  0  0
   59.4086   34.6022   44.8162 H   0  0  0  0  0  0  0  0  0  0  0  0
   56.6040   33.7410   45.0220 H   0  0  0  0  0  0  0  0  0  0  0  0
   57.8682   33.0386   42.7020 H   0  0  0  0  0  0  0  0  0  0  0  0
   59.1234   32.8679   44.0070 H   0  0  0  0  0  0  0  0  0  0  0  0
   57.1912   27.7029   43.5292 H   0  0  0  0  0  0  0  0  0  0  0  0
   59.6966   26.7447   44.6544 H   0  0  0  0  0  0  0  0  0  0  0  0
   60.0116   28.1169   45.3203 H   0  0  0  0  0  0  0  0  0  0  0  0
   57.5308   26.1913   45.9452 H   0  0  0  0  0  0  0  0  0  0  0  0
   57.4691   27.4696   46.8367 H   0  0  0  0  0  0  0  0  0  0  0  0
  1  2  1  0
  2  3  1  0
  3  4  2  0
  4  5  1  0
  5  6  2  0
  6  7  1  0
  7  8  1  0
  8  9  1  0
  9 10  1  0
 10 11  2  0
 11 12  1  0
 12 13  1  0
 13 14  1  0
 14 15  1  0
 12 16  2  0
 16 17  1  0
  6  2  1  0
 17 10  1  0
 15 13  1  0
  1 18  1  0
  1 19  1  0
  1 20  1  0
  3 21  1  0
  4 22  1  0
  5 23  1  0
  7 24  1  0
  7 25  1  0
  8 26  1  0
  9 27  1  0
  9 28  1  0
 13 29  1  0
 14 30  1  0
 14 31  1  0
 15 32  1  0
 15 33  1  0
M  END
>  <smiles>  (20) 
Cn1cccc1CNCc1nc(C2CC2)no1

>  <score_type>  (20) 
oracle

>  <origin>  (20) 
adg

>  <m_score__min__energy>  (20) 
-6.96

>  <m_primary>  (20) 
energy

$$$$
20:0
     RDKit          3D

 45 47  0  0  0  0  0  0  0  0999 V2000
   57.6730   27.6130   44.3440 C   0  0  0  0  0  0  0  0  0  0  0  0
   56.6750   27.8960   45.4480 C   0  0  0  0  0  0  0  0  0  0  0  0
   55.9100   29.0880   45.1940 N   0  0  0  0  0  0  0  0  0  0  0  0
   56.1310   29.6840   43.9140 C   0  0  0  0  0  0  0  0  0  0  0  0
   56.7320   31.0540   43.9370 C   0  0  0  0  0  0  0  0  0  0  0  0
   56.8030   31.6110   45.2370 O   0  0  0  0  0  0  0  0  0  0  0  0
   57.9760   32.2690   45.5840 C   0  0  0  0  0  0  0  0  0  0  0  0
   58.3700   33.4640   45.0210 C   0  0  0  0  0  0  0  0  0  0  0  0
   59.5420   34.0940   45.3870 C   0  0  0  0  0  0  0  0  0  0  0  0
   60.3800   33.5540   46.3390 C   0  0  0  0  0  0  0  0  0  0  0  0
   61.5500   34.1920   46.6960 C   0  0  0  0  0  0  0  0  0  0  0  0
   62.3530   33.5950   47.6620 C   0  0  0  0  0  0  0  0  0  0  0  0
   62.0180   32.4070   48.2580 C   0  0  0  0  0  0  0  0  0  0  0  0
   60.8440   31.8080   47.8710 C   0  0  0  0  0  0  0  0  0  0  0  0
   59.9990   32.3570   46.9100 C   0  0  0  0  0  0  0  0  0  0  0  0
   58.8270   31.7250   46.5470 C   0  0  0  0  0  0  0  0  0  0  0  0
   58.5320   30.4950   47.1960 N   0  0  0  0  0  0  0  0  0  0  0  0
   59.2850   29.3530   46.7700 C   0  0  0  0  0  0  0  0  0  0  0  0
   59.2450   28.2030   47.5520 C   0  0  0  0  0  0  0  0  0  0  0  0
   59.9640   27.0720   47.1760 C   0  0  0  0  0  0  0  0  0  0  0  0
   60.7230   27.0790   46.0280 C   0  0  0  0  0  0  0  0  0  0  0  0
   60.7710   28.2150   45.2430 C   0  0  0  0  0  0  0  0  0  0  0  0
   60.0480   29.3500   45.6220 C   0  0  0  0  0  0  0  0  0  0  0  0
   58.6417   27.3383   44.7870 H   0  0  0  0  0  0  0  0  0  0  0  0
   57.3060   26.7835   43.7217 H   0  0  0  0  0  0  0  0  0  0  0  0
   57.7960   28.5117   43.7217 H   0  0  0  0  0  0  0  0  0  0  0  0
   55.9855   27.0429   45.5300 H   0  0  0  0  0  0  0  0  0  0  0  0
   57.2366   28.0466   46.3817 H   0  0  0  0  0  0  0  0  0  0  0  0
   55.8820   29.7300   45.9910 H   0  0  0  0  0  0  0  0  0  0  0  0
   56.8063   29.0271   43.3462 H   0  0  0  0  0  0  0  0  0  0  0  0
   55.1365   29.7979   43.4579 H   0  0  0  0  0  0  0  0  0  0  0  0
   57.7505   30.9958   43.5257 H   0  0  0  0  0  0  0  0  0  0  0  0
   56.0804   31.7065   43.3373 H   0  0  0  0  0  0  0  0  0  0  0  0
   57.7306   33.9297   44.2566 H   0  0  0  0  0  0  0  0  0  0  0  0
   59.8131   35.0469   44.9091 H   0  0  0  0  0  0  0  0  0  0  0  0
   61.8394   35.1455   46.2300 H   0  0  0  0  0  0  0  0  0  0  0  0
   63.2883   34.0929   47.9576 H   0  0  0  0  0  0  0  0  0  0  0  0
   62.6666   31.9493   49.0195 H   0  0  0  0  0  0  0  0  0  0  0  0
   60.5594   30.8545   48.3400 H   0  0  0  0  0  0  0  0  0  0  0  0
   57.8130   30.4000   47.9430 H   0  0  0  0  0  0  0  0  0  0  0  0
   58.6422   28.1875   48.4720 H   0  0  0  0  0  0  0  0  0  0  0  0
   59.9253   26.1671   47.8002 H   0  0  0  0  0  0  0  0  0  0  0  0
   61.2899   26.1826   45.7362 H   0  0  0  0  0  0  0  0  0  0  0  0
   61.3754   28.2263   44.3240 H   0  0  0  0  0  0  0  0  0  0  0  0
   60.0886   30.2532   44.9954 H   0  0  0  0  0  0  0  0  0  0  0  0
  1  2  1  0
  2  3  1  0
  3  4  1  0
  4  5  1  0
  5  6  1  0
  6  7  1  0
  7  8  2  0
  8  9  1  0
  9 10  2  0
 10 11  1  0
 11 12  2  0
 12 13  1  0
 13 14  2  0
 14 15  1  0
 15 16  2  0
 16 17  1  0
 17 18  1  0
 18 19  2  0
 19 20  1  0
 20 21  2  0
 21 22  1  0
 22 23  2  0
 16  7  1  0
 23 18  1  0
 15 10  1  0
  1 24  1  0
  1 25  1  0
  1 26  1  0
  2 27  1  0
  2 28  1  0
  3 29  1  0
  4 30  1  0
  4 31  1  0
  5 32  1  0
  5 33  1  0
  8 34  1  0
  9 35  1  0
 11 36  1  0
 12 37  1  0
 13 38  1  0
 14 39  1  0
 17 40  1  0
 19 41  1  0
 20 42  1  0
 21 43  1  0
 22 44  1  0
 23 45  1  0
M  END
>  <smiles>  (21) 
CCNCCOc1ccc2ccccc2c1Nc1ccccc1

>  <score_type>  (21) 
oracle

>  <origin>  (21) 
adg

>  <m_score__min__energy>  (21) 
-7.3200000000000003

>  <m_primary>  (21) 
energy

$$$$
21:0
     RDKit          3D

 59 63  0  0  0  0  0  0  0  0999 V2000
   57.3790   33.2120   45.2830 C   0  0  0  0  0  0  0  0  0  0  0  0
   57.5690   31.9990   44.3770 C   0  0  0  0  0  0  0  0  0  0  0  0
   56.6130   30.9930   44.7950 N   0  0  0  0  0  0  0  0  0  0  0  0
   57.1690   29.7070   44.9970 C   0  0  0  0  0  0  0  0  0  0  0  0
   58.6320   29.6250   45.2880 C   0  0  0  0  0  0  0  0  0  0  0  0
   58.9400   29.5780   46.7010 N   0  0  0  0  0  0  0  0  0  0  0  0
   58.5490   30.5990   47.5300 C   0  0  0  0  0  0  0  0  0  0  0  0
   58.9360   30.3130   48.8260 C   0  0  0  0  0  0  0  0  0  0  0  0
   58.6640   31.2030   49.9410 C   0  0  0  0  0  0  0  0  0  0  0  0
   59.0000   32.5090   49.9030 C   0  0  0  0  0  0  0  0  0  0  0  0
   59.6620   33.1790   48.7850 C   0  0  0  0  0  0  0  0  0  0  0  0
   59.1370   34.1530   47.9330 C   0  0  0  0  0  0  0  0  0  0  0  0
   60.1180   34.5110   47.0700 N   0  0  0  0  0  0  0  0  0  0  0  0
   60.0100   35.5080   45.9950 C   0  0  0  0  0  0  0  0  0  0  0  0
   61.2380   33.7880   47.3640 C   0  0  0  0  0  0  0  0  0  0  0  0
   62.4870   33.8100   46.7690 C   0  0  0  0  0  0  0  0  0  0  0  0
   63.4670   32.9700   47.2730 C   0  0  0  0  0  0  0  0  0  0  0  0
   63.2530   32.1190   48.3340 C   0  0  0  0  0  0  0  0  0  0  0  0
   61.9780   32.1320   48.8990 C   0  0  0  0  0  0  0  0  0  0  0  0
   60.9740   32.9610   48.4190 C   0  0  0  0  0  0  0  0  0  0  0  0
   58.5980   33.1400   51.1600 C   0  0  0  0  0  0  0  0  0  0  0  0
   58.7220   34.3290   51.5440 O   0  0  0  0  0  0  0  0  0  0  0  0
   57.9900   32.1390   51.9710 N   0  0  0  0  0  0  0  0  0  0  0  0
   58.0250   30.9310   51.2230 C   0  0  0  0  0  0  0  0  0  0  0  0
   57.5690   29.8340   51.6350 O   0  0  0  0  0  0  0  0  0  0  0  0
   59.5670   29.1020   48.7590 C   0  0  0  0  0  0  0  0  0  0  0  0
   60.1510   28.3300   49.7210 C   0  0  0  0  0  0  0  0  0  0  0  0
   60.7560   27.0930   49.4400 C   0  0  0  0  0  0  0  0  0  0  0  0
   61.2960   26.3760   50.3310 O   0  0  0  0  0  0  0  0  0  0  0  0
   61.8590   25.6570   51.2420 C   0  0  0  0  0  0  0  0  0  0  0  0
   60.7180   26.7040   48.0890 C   0  0  0  0  0  0  0  0  0  0  0  0
   60.1350   27.4700   47.1170 C   0  0  0  0  0  0  0  0  0  0  0  0
   59.5600   28.6680   47.4530 C   0  0  0  0  0  0  0  0  0  0  0  0
   57.4286   32.8951   46.3352 H   0  0  0  0  0  0  0  0  0  0  0  0
   58.1730   33.9467   45.0835 H   0  0  0  0  0  0  0  0  0  0  0  0
   56.3984   33.6687   45.0835 H   0  0  0  0  0  0  0  0  0  0  0  0
   57.3858   32.2797   43.3293 H   0  0  0  0  0  0  0  0  0  0  0  0
   58.5967   31.6141   44.4530 H   0  0  0  0  0  0  0  0  0  0  0  0
   55.7540   31.0270   44.2320 H   0  0  0  0  0  0  0  0  0  0  0  0
   56.6385   29.2483   45.8444 H   0  0  0  0  0  0  0  0  0  0  0  0
   57.0466   29.1945   44.0314 H   0  0  0  0  0  0  0  0  0  0  0  0
   59.0302   28.7153   44.8149 H   0  0  0  0  0  0  0  0  0  0  0  0
   59.0922   30.5405   44.8879 H   0  0  0  0  0  0  0  0  0  0  0  0
   58.0111   31.5045   47.2127 H   0  0  0  0  0  0  0  0  0  0  0  0
   58.1138   34.5559   47.9580 H   0  0  0  0  0  0  0  0  0  0  0  0
   59.9014   36.5106   46.4343 H   0  0  0  0  0  0  0  0  0  0  0  0
   60.9168   35.4764   45.3732 H   0  0  0  0  0  0  0  0  0  0  0  0
   59.1310   35.2830   45.3732 H   0  0  0  0  0  0  0  0  0  0  0  0
   62.6963   34.4762   45.9190 H   0  0  0  0  0  0  0  0  0  0  0  0
   64.4618   32.9837   46.8038 H   0  0  0  0  0  0  0  0  0  0  0  0
   64.0478   31.4619   48.7168 H   0  0  0  0  0  0  0  0  0  0  0  0
   61.7623   31.4670   49.7483 H   0  0  0  0  0  0  0  0  0  0  0  0
   57.5980   32.2700   52.9280 H   0  0  0  0  0  0  0  0  0  0  0  0
   60.1481   28.6911   50.7600 H   0  0  0  0  0  0  0  0  0  0  0  0
   61.5675   26.0293   52.2352 H   0  0  0  0  0  0  0  0  0  0  0  0
   61.5377   24.6106   51.1339 H   0  0  0  0  0  0  0  0  0  0  0  0
   62.9520   25.7180   51.1339 H   0  0  0  0  0  0  0  0  0  0  0  0
   61.1753   25.7455   47.8025 H   0  0  0  0  0  0  0  0  0  0  0  0
   60.1277   27.1266   46.0720 H   0  0  0  0  0  0  0  0  0  0  0  0
  1  2  1  0
  2  3  1  0
  3  4  1  0
  4  5  1  0
  5  6  1  0
  6  7  1  0
  7  8  2  0
  8  9  1  0
  9 10  2  0
 10 11  1  0
 11 12  2  0
 12 13  1  0
 13 14  1  0
 13 15  1  0
 15 16  2  0
 16 17  1  0
 17 18  2  0
 18 19  1  0
 19 20  2  0
 10 21  1  0
 21 22  2  0
 21 23  1  0
 23 24  1  0
 24 25  2  0
  8 26  1  0
 26 27  2  0
 27 28  1  0
 28 29  1  0
 29 30  1  0
 28 31  2  0
 31 32  1  0
 32 33  2  0
 33  6  1  0
 24  9  1  0
 33 26  1  0
 20 11  1  0
 20 15  1  0
  1 34  1  0
  1 35  1  0
  1 36  1  0
  2 37  1  0
  2 38  1  0
  3 39  1  0
  4 40  1  0
  4 41  1  0
  5 42  1  0
  5 43  1  0
  7 44  1  0
 12 45  1  0
 14 46  1  0
 14 47  1  0
 14 48  1  0
 16 49  1  0
 17 50  1  0
 18 51  1  0
 19 52  1  0
 23 53  1  0
 27 54  1  0
 30 55  1  0
 30 56  1  0
 30 57  1  0
 31 58  1  0
 32 59  1  0
M  END
>  <smiles>  (22) 
CCNCCn1cc(C2=C(c3cn(C)c4ccccc34)C(=O)NC2=O)c2cc(OC)ccc21

>  <score_type>  (22) 
oracle

>  <origin>  (22) 
adg

>  <m_score__min__energy>  (22) 
-9.5500000000000007

>  <m_primary>  (22) 
energy

$$$$
22:0
     RDKit          3D

 49 51  0  0  0  0  0  0  0  0999 V2000
   59.2600   30.0430   53.0520 C   0  0  0  0  0  0  0  0  0  0  0  0
   58.5210   31.2770   53.5020 C   0  0  0  0  0  0  0  0  0  0  0  0
   58.0910   32.1180   52.4610 N   0  0  0  0  0  0  0  0  0  0  0  0
   57.0360   31.7030   51.6250 C   0  0  0  0  0  0  0  0  0  0  0  0
   55.8490   31.0690   52.2570 C   0  0  0  0  0  0  0  0  0  0  0  0
   58.3730   33.4930   52.5190 C   0  0  0  0  0  0  0  0  0  0  0  0
   59.6340   33.8290   51.7660 C   0  0  0  0  0  0  0  0  0  0  0  0
   60.1590   32.7070   51.0050 N   0  0  0  0  0  0  0  0  0  0  0  0
   61.0530   32.9690   49.9400 C   0  0  0  0  0  0  0  0  0  0  0  0
   62.4200   32.9120   50.0040 C   0  0  0  0  0  0  0  0  0  0  0  0
   62.9870   32.5690   51.2050 C   0  0  0  0  0  0  0  0  0  0  0  0
   64.3670   32.5030   51.3110 C   0  0  0  0  0  0  0  0  0  0  0  0
   65.1510   32.7860   50.2020 C   0  0  0  0  0  0  0  0  0  0  0  0
   66.8930   32.7060   50.3100 Cl  0  0  0  0  0  0  0  0  0  0  0  0
   64.5360   33.1290   49.0110 C   0  0  0  0  0  0  0  0  0  0  0  0
   63.1660   33.2050   48.8620 C   0  0  0  0  0  0  0  0  0  0  0  0
   62.5850   33.5450   47.6860 N   0  0  0  0  0  0  0  0  0  0  0  0
   63.3830   33.8170   46.5200 C   0  0  0  0  0  0  0  0  0  0  0  0
   61.2310   33.6080   47.6060 C   0  0  0  0  0  0  0  0  0  0  0  0
   60.5570   33.9520   46.4640 C   0  0  0  0  0  0  0  0  0  0  0  0
   59.1740   34.0240   46.3780 C   0  0  0  0  0  0  0  0  0  0  0  0
   58.3820   34.4740   44.8760 Cl  0  0  0  0  0  0  0  0  0  0  0  0
   58.4060   33.7430   47.4830 C   0  0  0  0  0  0  0  0  0  0  0  0
   59.0760   33.3960   48.6390 C   0  0  0  0  0  0  0  0  0  0  0  0
   60.4420   33.3230   48.7250 C   0  0  0  0  0  0  0  0  0  0  0  0
   59.5989   29.4771   53.9323 H   0  0  0  0  0  0  0  0  0  0  0  0
   58.5897   29.4142   52.4476 H   0  0  0  0  0  0  0  0  0  0  0  0
   60.1308   30.3371   52.4476 H   0  0  0  0  0  0  0  0  0  0  0  0
   57.6359   30.9574   54.0717 H   0  0  0  0  0  0  0  0  0  0  0  0
   59.2332   31.8639   54.1006 H   0  0  0  0  0  0  0  0  0  0  0  0
   56.6813   32.5912   51.0816 H   0  0  0  0  0  0  0  0  0  0  0  0
   57.4746   30.9062   51.0063 H   0  0  0  0  0  0  0  0  0  0  0  0
   55.9451   31.1203   53.3516 H   0  0  0  0  0  0  0  0  0  0  0  0
   54.9387   31.6010   51.9435 H   0  0  0  0  0  0  0  0  0  0  0  0
   55.7850   30.0166   51.9435 H   0  0  0  0  0  0  0  0  0  0  0  0
   57.5334   34.0493   52.0768 H   0  0  0  0  0  0  0  0  0  0  0  0
   58.5151   33.7726   53.5734 H   0  0  0  0  0  0  0  0  0  0  0  0
   59.4175   34.6533   51.0705 H   0  0  0  0  0  0  0  0  0  0  0  0
   60.3960   34.1070   52.5090 H   0  0  0  0  0  0  0  0  0  0  0  0
   59.8930   31.7020   51.2270 H   0  0  0  0  0  0  0  0  0  0  0  0
   62.3521   32.3484   52.0758 H   0  0  0  0  0  0  0  0  0  0  0  0
   64.8371   32.2284   52.2668 H   0  0  0  0  0  0  0  0  0  0  0  0
   65.1700   33.3521   48.1402 H   0  0  0  0  0  0  0  0  0  0  0  0
   64.3818   34.1575   46.8305 H   0  0  0  0  0  0  0  0  0  0  0  0
   63.4784   32.9006   45.9190 H   0  0  0  0  0  0  0  0  0  0  0  0
   62.8988   34.6009   45.9190 H   0  0  0  0  0  0  0  0  0  0  0  0
   61.1456   34.1843   45.5642 H   0  0  0  0  0  0  0  0  0  0  0  0
   57.3077   33.7924   47.4477 H   0  0  0  0  0  0  0  0  0  0  0  0
   58.4834   33.1664   49.5369 H   0  0  0  0  0  0  0  0  0  0  0  0
  1  2  1  0
  2  3  1  0
  3  4  1  0
  4  5  1  0
  3  6  1  0
  6  7  1  0
  7  8  1  0
  8  9  1  0
  9 10  2  0
 10 11  1  0
 11 12  2  0
 12 13  1  0
 13 14  1  0
 13 15  2  0
 15 16  1  0
 16 17  2  0
 17 18  1  0
 17 19  1  0
 19 20  2  0
 20 21  1  0
 21 22  1  0
 21 23  2  0
 23 24  1  0
 24 25  2  0
 25  9  1  0
 16 10  1  0
 25 19  1  0
  1 26  1  0
  1 27  1  0
  1 28  1  0
  2 29  1  0
  2 30  1  0
  4 31  1  0
  4 32  1  0
  5 33  1  0
  5 34  1  0
  5 35  1  0
  6 36  1  0
  6 37  1  0
  7 38  1  0
  7 39  1  0
  8 40  1  0
 11 41  1  0
 12 42  1  0
 15 43  1  0
 18 44  1  0
 18 45  1  0
 18 46  1  0
 20 47  1  0
 23 48  1  0
 24 49  1  0
M  CHG  1  17   1
M  END
>  <smiles>  (23) 
CCN(CC)CCNc1c2ccc(Cl)cc2[n+](C)c2cc(Cl)ccc12

>  <score_type>  (23) 
oracle

>  <origin>  (23) 
adg

>  <m_score__min__energy>  (23) 
-5.6900000000000004

>  <m_primary>  (23) 
energy

$$$$
23:0
     RDKit          3D

 69 71  0  0  0  0  0  0  0  0999 V2000
   58.1390   27.4850   43.7330 C   0  0  0  0  0  0  0  0  0  0  0  0
   58.6860   27.3610   45.1130 C   0  0  0  0  0  0  0  0  0  0  0  0
   58.2470   28.3260   46.1560 C   0  0  0  0  0  0  0  0  0  0  0  0
   59.0200   29.4290   46.4740 N   0  0  0  0  0  0  0  0  0  0  0  0
   58.8850   30.5630   45.6140 C   0  0  0  0  0  0  0  0  0  0  0  0
   57.6320   30.7670   44.8840 C   0  0  0  0  0  0  0  0  0  0  0  0
   57.7230   31.5610   43.6170 C   0  0  0  0  0  0  0  0  0  0  0  0
   59.9230   29.4830   47.5230 C   0  0  0  0  0  0  0  0  0  0  0  0
   59.7570   28.6670   48.7560 C   0  0  0  0  0  0  0  0  0  0  0  0
   58.8860   29.3290   49.5940 O   0  0  0  0  0  0  0  0  0  0  0  0
   59.3680   29.2870   50.9210 C   0  0  0  0  0  0  0  0  0  0  0  0
   58.0550   29.4600   51.7730 C   0  0  0  0  0  0  0  0  0  0  0  0
   57.3900   30.4970   51.2900 O   0  0  0  0  0  0  0  0  0  0  0  0
   57.3870   31.7620   51.5970 C   0  0  0  0  0  0  0  0  0  0  0  0
   58.4360   32.6730   50.9650 C   0  0  0  0  0  0  0  0  0  0  0  0
   58.9600   32.0380   49.7850 N   0  0  0  0  0  0  0  0  0  0  0  0
   59.9810   32.4540   48.9210 C   0  0  0  0  0  0  0  0  0  0  0  0
   59.6380   33.1270   47.7600 C   0  0  0  0  0  0  0  0  0  0  0  0
   58.2900   33.2820   47.4850 C   0  0  0  0  0  0  0  0  0  0  0  0
   57.9290   33.9380   46.3360 C   0  0  0  0  0  0  0  0  0  0  0  0
   58.8390   34.4540   45.4420 C   0  0  0  0  0  0  0  0  0  0  0  0
   60.1980   34.2840   45.7460 C   0  0  0  0  0  0  0  0  0  0  0  0
   60.5840   33.6290   46.8880 C   0  0  0  0  0  0  0  0  0  0  0  0
   61.8850   33.4590   47.1780 N   0  0  0  0  0  0  0  0  0  0  0  0
   62.9720   33.9520   46.3690 C   0  0  0  0  0  0  0  0  0  0  0  0
   62.2540   32.7970   48.3130 C   0  0  0  0  0  0  0  0  0  0  0  0
   63.6010   32.6220   48.6240 C   0  0  0  0  0  0  0  0  0  0  0  0
   63.9910   31.9660   49.7680 C   0  0  0  0  0  0  0  0  0  0  0  0
   63.0230   31.4750   50.6140 C   0  0  0  0  0  0  0  0  0  0  0  0
   61.6740   31.6220   50.3570 C   0  0  0  0  0  0  0  0  0  0  0  0
   61.3360   32.2860   49.2020 C   0  0  0  0  0  0  0  0  0  0  0  0
   57.0674   27.7279   43.7838 H   0  0  0  0  0  0  0  0  0  0  0  0
   58.6714   28.2852   43.1981 H   0  0  0  0  0  0  0  0  0  0  0  0
   58.2743   26.5334   43.1981 H   0  0  0  0  0  0  0  0  0  0  0  0
   58.4231   26.3557   45.4740 H   0  0  0  0  0  0  0  0  0  0  0  0
   59.7576   27.5771   44.9905 H   0  0  0  0  0  0  0  0  0  0  0  0
   57.2684   28.7116   45.8340 H   0  0  0  0  0  0  0  0  0  0  0  0
   58.2902   27.7253   47.0765 H   0  0  0  0  0  0  0  0  0  0  0  0
   59.0429   31.4569   46.2354 H   0  0  0  0  0  0  0  0  0  0  0  0
   59.6207   30.3740   44.8184 H   0  0  0  0  0  0  0  0  0  0  0  0
   57.2271   29.7763   44.6301 H   0  0  0  0  0  0  0  0  0  0  0  0
   56.9945   31.3600   45.5562 H   0  0  0  0  0  0  0  0  0  0  0  0
   57.8452   32.6268   43.8602 H   0  0  0  0  0  0  0  0  0  0  0  0
   58.5876   31.2174   43.0302 H   0  0  0  0  0  0  0  0  0  0  0  0
   56.8030   31.4219   43.0302 H   0  0  0  0  0  0  0  0  0  0  0  0
   60.9003   29.2058   47.1010 H   0  0  0  0  0  0  0  0  0  0  0  0
   59.7710   30.5041   47.9028 H   0  0  0  0  0  0  0  0  0  0  0  0
   59.3472   27.6795   48.4971 H   0  0  0  0  0  0  0  0  0  0  0  0
   60.7284   28.5244   49.2520 H   0  0  0  0  0  0  0  0  0  0  0  0
   59.8558   28.3247   51.1354 H   0  0  0  0  0  0  0  0  0  0  0  0
   60.1293   30.0522   51.1329 H   0  0  0  0  0  0  0  0  0  0  0  0
   57.4382   28.5524   51.6973 H   0  0  0  0  0  0  0  0  0  0  0  0
   58.3043   29.6243   52.8317 H   0  0  0  0  0  0  0  0  0  0  0  0
   56.4009   32.1607   51.3165 H   0  0  0  0  0  0  0  0  0  0  0  0
   57.6321   31.7768   52.6692 H   0  0  0  0  0  0  0  0  0  0  0  0
   57.9740   33.6334   50.6924 H   0  0  0  0  0  0  0  0  0  0  0  0
   59.2506   32.8540   51.6818 H   0  0  0  0  0  0  0  0  0  0  0  0
   58.5070   31.1100   49.5230 H   0  0  0  0  0  0  0  0  0  0  0  0
   57.5264   32.8882   48.1720 H   0  0  0  0  0  0  0  0  0  0  0  0
   56.8575   34.0578   46.1180 H   0  0  0  0  0  0  0  0  0  0  0  0
   58.5153   34.9765   44.5297 H   0  0  0  0  0  0  0  0  0  0  0  0
   60.9623   34.6802   45.0613 H   0  0  0  0  0  0  0  0  0  0  0  0
   63.7783   34.3177   47.0218 H   0  0  0  0  0  0  0  0  0  0  0  0
   63.3544   33.1392   45.7340 H   0  0  0  0  0  0  0  0  0  0  0  0
   62.6125   34.7751   45.7340 H   0  0  0  0  0  0  0  0  0  0  0  0
   64.3676   33.0164   47.9408 H   0  0  0  0  0  0  0  0  0  0  0  0
   65.0578   31.8360   50.0027 H   0  0  0  0  0  0  0  0  0  0  0  0
   63.3347   30.9468   51.5272 H   0  0  0  0  0  0  0  0  0  0  0  0
   60.9089   31.2277   51.0419 H   0  0  0  0  0  0  0  0  0  0  0  0
  1  2  1  0
  2  3  1  0
  3  4  1  0
  4  5  1  0
  5  6  1  0
  6  7  1  0
  4  8  1  0
  8  9  1  0
  9 10  1  0
 10 11  1  0
 11 12  1  0
 12 13  1  0
 13 14  1  0
 14 15  1  0
 15 16  1  0
 16 17  1  0
 17 18  2  0
 18 19  1  0
 19 20  2  0
 20 21  1  0
 21 22  2  0
 22 23  1  0
 23 24  2  0
 24 25  1  0
 24 26  1  0
 26 27  2  0
 27 28  1  0
 28 29  2  0
 29 30  1  0
 30 31  2  0
 31 17  1  0
 23 18  1  0
 31 26  1  0
  1 32  1  0
  1 33  1  0
  1 34  1  0
  2 35  1  0
  2 36  1  0
  3 37  1  0
  3 38  1  0
  5 39  1  0
  5 40  1  0
  6 41  1  0
  6 42  1  0
  7 43  1  0
  7 44  1  0
  7 45  1  0
  8 46  1  0
  8 47  1  0
  9 48  1  0
  9 49  1  0
 11 50  1  0
 11 51  1  0
 12 52  1  0
 12 53  1  0
 14 54  1  0
 14 55  1  0
 15 56  1  0
 15 57  1  0
 16 58  1  0
 19 59  1  0
 20 60  1  0
 21 61  1  0
 22 62  1  0
 25 63  1  0
 25 64  1  0
 25 65  1  0
 27 66  1  0
 28 67  1  0
 29 68  1  0
 30 69  1  0
M  CHG  1  24   1
M  END
>  <smiles>  (24) 
CCCN(CCC)CCOCCOCCNc1c2ccccc2[n+](C)c2ccccc12

>  <score_type>  (24) 
oracle

>  <origin>  (24) 
adg

>  <m_score__min__energy>  (24) 
-5.7300000000000004

>  <m_primary>  (24) 
energy

$$$$
24:0
     RDKit          3D

 66 68  0  0  0  0  0  0  0  0999 V2000
   58.5090   33.5160   52.9440 C   0  0  0  0  0  0  0  0  0  0  0  0
   58.8940   33.4680   51.5010 C   0  0  0  0  0  0  0  0  0  0  0  0
   58.4030   32.3440   50.7630 N   0  0  0  0  0  0  0  0  0  0  0  0
   58.2820   31.1500   51.5350 C   0  0  0  0  0  0  0  0  0  0  0  0
   59.5120   30.2300   51.3240 C   0  0  0  0  0  0  0  0  0  0  0  0
   60.4990   30.9080   50.6680 O   0  0  0  0  0  0  0  0  0  0  0  0
   61.2000   30.1600   49.7250 C   0  0  0  0  0  0  0  0  0  0  0  0
   60.5310   30.1650   48.4170 C   0  0  0  0  0  0  0  0  0  0  0  0
   59.2690   30.8820   48.2670 N   0  0  0  0  0  0  0  0  0  0  0  0
   59.0160   31.4390   46.9850 C   0  0  0  0  0  0  0  0  0  0  0  0
   58.4180   30.5250   46.0930 C   0  0  0  0  0  0  0  0  0  0  0  0
   58.2350   29.2080   46.4340 C   0  0  0  0  0  0  0  0  0  0  0  0
   57.6670   28.2580   45.6130 C   0  0  0  0  0  0  0  0  0  0  0  0
   57.2600   28.6750   44.3660 C   0  0  0  0  0  0  0  0  0  0  0  0
   57.4330   30.0040   43.9900 C   0  0  0  0  0  0  0  0  0  0  0  0
   58.0040   30.9260   44.8320 C   0  0  0  0  0  0  0  0  0  0  0  0
   58.1850   32.2020   44.4650 N   0  0  0  0  0  0  0  0  0  0  0  0
   57.7930   32.7010   43.1830 C   0  0  0  0  0  0  0  0  0  0  0  0
   58.7680   33.1030   45.3110 C   0  0  0  0  0  0  0  0  0  0  0  0
   58.9520   34.3920   44.8700 C   0  0  0  0  0  0  0  0  0  0  0  0
   59.5660   35.3030   45.6930 C   0  0  0  0  0  0  0  0  0  0  0  0
   59.9840   34.9040   46.9430 C   0  0  0  0  0  0  0  0  0  0  0  0
   59.8190   33.6120   47.4340 C   0  0  0  0  0  0  0  0  0  0  0  0
   60.3570   33.3200   48.6930 N   0  0  0  0  0  0  0  0  0  0  0  0
   61.4790   34.1270   49.2000 C   0  0  0  0  0  0  0  0  0  0  0  0
   62.7770   33.4530   48.9250 C   0  0  0  0  0  0  0  0  0  0  0  0
   62.8350   32.9230   47.5990 N   0  0  0  0  0  0  0  0  0  0  0  0
   63.3430   31.5980   47.4740 C   0  0  0  0  0  0  0  0  0  0  0  0
   63.2980   33.8290   46.5920 C   0  0  0  0  0  0  0  0  0  0  0  0
   59.1970   32.7230   46.5950 C   0  0  0  0  0  0  0  0  0  0  0  0
   59.4084   33.4039   53.5674 H   0  0  0  0  0  0  0  0  0  0  0  0
   58.0287   34.4810   53.1635 H   0  0  0  0  0  0  0  0  0  0  0  0
   57.8065   32.6985   53.1635 H   0  0  0  0  0  0  0  0  0  0  0  0
   58.5130   34.3806   51.0194 H   0  0  0  0  0  0  0  0  0  0  0  0
   59.9903   33.3793   51.4868 H   0  0  0  0  0  0  0  0  0  0  0  0
   58.9430   32.2390   49.8920 H   0  0  0  0  0  0  0  0  0  0  0  0
   58.2087   31.4152   52.6000 H   0  0  0  0  0  0  0  0  0  0  0  0
   57.3794   30.6111   51.2112 H   0  0  0  0  0  0  0  0  0  0  0  0
   59.8884   29.8961   52.3022 H   0  0  0  0  0  0  0  0  0  0  0  0
   59.2114   29.3602   50.7214 H   0  0  0  0  0  0  0  0  0  0  0  0
   62.2079   30.5856   49.6109 H   0  0  0  0  0  0  0  0  0  0  0  0
   61.2475   29.1201   50.0805 H   0  0  0  0  0  0  0  0  0  0  0  0
   61.2373   30.6027   47.6962 H   0  0  0  0  0  0  0  0  0  0  0  0
   60.2546   29.1120   48.2599 H   0  0  0  0  0  0  0  0  0  0  0  0
   58.6030   31.0200   49.0910 H   0  0  0  0  0  0  0  0  0  0  0  0
   58.5651   28.8883   47.4334 H   0  0  0  0  0  0  0  0  0  0  0  0
   57.5445   27.2146   45.9392 H   0  0  0  0  0  0  0  0  0  0  0  0
   56.7993   27.9600   43.6685 H   0  0  0  0  0  0  0  0  0  0  0  0
   57.1031   30.3244   42.9907 H   0  0  0  0  0  0  0  0  0  0  0  0
   57.1183   33.5598   43.3145 H   0  0  0  0  0  0  0  0  0  0  0  0
   58.6859   33.0183   42.6244 H   0  0  0  0  0  0  0  0  0  0  0  0
   57.2733   31.9086   42.6244 H   0  0  0  0  0  0  0  0  0  0  0  0
   58.6107   34.6904   43.8678 H   0  0  0  0  0  0  0  0  0  0  0  0
   59.7222   36.3391   45.3581 H   0  0  0  0  0  0  0  0  0  0  0  0
   60.4751   35.6469   47.5887 H   0  0  0  0  0  0  0  0  0  0  0  0
   60.0920   32.5840   49.3630 H   0  0  0  0  0  0  0  0  0  0  0  0
   61.4701   35.1094   48.7051 H   0  0  0  0  0  0  0  0  0  0  0  0
   61.3658   34.2470   50.2876 H   0  0  0  0  0  0  0  0  0  0  0  0
   63.5900   34.1831   49.0515 H   0  0  0  0  0  0  0  0  0  0  0  0
   62.8809   32.6154   49.6304 H   0  0  0  0  0  0  0  0  0  0  0  0
   63.5063   31.1720   48.4749 H   0  0  0  0  0  0  0  0  0  0  0  0
   62.6188   30.9779   46.9253 H   0  0  0  0  0  0  0  0  0  0  0  0
   64.2961   31.6210   46.9253 H   0  0  0  0  0  0  0  0  0  0  0  0
   63.7486   34.7107   47.0712 H   0  0  0  0  0  0  0  0  0  0  0  0
   64.0504   33.3275   45.9655 H   0  0  0  0  0  0  0  0  0  0  0  0
   62.4508   34.1450   45.9655 H   0  0  0  0  0  0  0  0  0  0  0  0
  1  2  1  0
  2  3  1  0
  3  4  1  0
  4  5  1  0
  5  6  1  0
  6  7  1  0
  7  8  1  0
  8  9  1  0
  9 10  1  0
 10 11  2  0
 11 12  1  0
 12 13  2  0
 13 14  1  0
 14 15  2  0
 15 16  1  0
 16 17  2  0
 17 18  1  0
 17 19  1  0
 19 20  2  0
 20 21  1  0
 21 22  2  0
 22 23  1  0
 23 24  1  0
 24 25  1  0
 25 26  1  0
 26 27  1  0
 27 28  1  0
 27 29  1  0
 23 30  2  0
 30 10  1  0
 16 11  1  0
 30 19  1  0
  1 31  1  0
  1 32  1  0
  1 33  1  0
  2 34  1  0
  2 35  1  0
  3 36  1  0
  4 37  1  0
  4 38  1  0
  5 39  1  0
  5 40  1  0
  7 41  1  0
  7 42  1  0
  8 43  1  0
  8 44  1  0
  9 45  1  0
 12 46  1  0
 13 47  1  0
 14 48  1  0
 15 49  1  0
 18 50  1  0
 18 51  1  0
 18 52  1  0
 20 53  1  0
 21 54  1  0
 22 55  1  0
 24 56  1  0
 25 57  1  0
 25 58  1  0
 26 59  1  0
 26 60  1  0
 28 61  1  0
 28 62  1  0
 28 63  1  0
 29 64  1  0
 29 65  1  0
 29 66  1  0
M  CHG  1  17   1
M  END
>  <smiles>  (25) 
CCNCCOCCNc1c2ccccc2[n+](C)c2cccc(NCCN(C)C)c12

>  <score_type>  (25) 
oracle

>  <origin>  (25) 
adg

>  <m_score__min__energy>  (25) 
-5.0499999999999998

>  <m_primary>  (25) 
energy

$$$$
25:0
     RDKit          3D

 44 46  0  0  0  0  0  0  0  0999 V2000
   58.3060   27.3260   44.6860 C   0  0  0  0  0  0  0  0  0  0  0  0
   57.9930   27.2340   46.1620 C   0  0  0  0  0  0  0  0  0  0  0  0
   57.8640   28.5090   46.7550 O   0  0  0  0  0  0  0  0  0  0  0  0
   58.9490   29.0810   47.4030 C   0  0  0  0  0  0  0  0  0  0  0  0
   59.6940   28.3170   48.2770 C   0  0  0  0  0  0  0  0  0  0  0  0
   60.7780   28.8310   48.9480 C   0  0  0  0  0  0  0  0  0  0  0  0
   61.1080   30.1450   48.7270 C   0  0  0  0  0  0  0  0  0  0  0  0
   60.4040   30.9730   47.8620 C   0  0  0  0  0  0  0  0  0  0  0  0
   59.3070   30.4100   47.1990 C   0  0  0  0  0  0  0  0  0  0  0  0
   58.5460   31.1490   46.3230 C   0  0  0  0  0  0  0  0  0  0  0  0
   57.4480   30.6760   45.5940 N   0  0  0  0  0  0  0  0  0  0  0  0
   57.3530   30.7180   44.1680 C   0  0  0  0  0  0  0  0  0  0  0  0
   56.2070   29.8520   43.6860 C   0  0  0  0  0  0  0  0  0  0  0  0
   55.4370   29.3330   44.8150 N   0  0  0  0  0  0  0  0  0  0  0  0
   58.9220   32.4730   46.1370 C   0  0  0  0  0  0  0  0  0  0  0  0
   58.1830   33.2560   45.2580 C   0  0  0  0  0  0  0  0  0  0  0  0
   58.5070   34.5770   45.0280 C   0  0  0  0  0  0  0  0  0  0  0  0
   59.5980   35.0710   45.7140 C   0  0  0  0  0  0  0  0  0  0  0  0
   60.3430   34.3040   46.5910 C   0  0  0  0  0  0  0  0  0  0  0  0
   60.0230   32.9920   46.8220 C   0  0  0  0  0  0  0  0  0  0  0  0
   60.7570   32.2640   47.6700 N   0  0  0  0  0  0  0  0  0  0  0  0
   61.8930   32.7510   48.4080 C   0  0  0  0  0  0  0  0  0  0  0  0
   59.3535   27.6339   44.5518 H   0  0  0  0  0  0  0  0  0  0  0  0
   58.1494   26.3438   44.2161 H   0  0  0  0  0  0  0  0  0  0  0  0
   57.6429   28.0672   44.2161 H   0  0  0  0  0  0  0  0  0  0  0  0
   57.0487   26.6848   46.2914 H   0  0  0  0  0  0  0  0  0  0  0  0
   58.8268   26.7125   46.6547 H   0  0  0  0  0  0  0  0  0  0  0  0
   59.4126   27.2664   48.4417 H   0  0  0  0  0  0  0  0  0  0  0  0
   61.3631   28.2084   49.6409 H   0  0  0  0  0  0  0  0  0  0  0  0
   61.9735   30.5633   49.2618 H   0  0  0  0  0  0  0  0  0  0  0  0
   56.6440   30.2650   46.1580 H   0  0  0  0  0  0  0  0  0  0  0  0
   57.1818   31.7562   43.8472 H   0  0  0  0  0  0  0  0  0  0  0  0
   58.2913   30.3376   43.7379 H   0  0  0  0  0  0  0  0  0  0  0  0
   55.5458   30.4533   43.0447 H   0  0  0  0  0  0  0  0  0  0  0  0
   56.6202   29.0031   43.1215 H   0  0  0  0  0  0  0  0  0  0  0  0
   56.1130   28.9780   45.5210 H   0  0  0  0  0  0  0  0  0  0  0  0
   54.7710   28.5780   44.5010 H   0  0  0  0  0  0  0  0  0  0  0  0
   57.3224   32.8133   44.7352 H   0  0  0  0  0  0  0  0  0  0  0  0
   57.9266   35.2034   44.3346 H   0  0  0  0  0  0  0  0  0  0  0  0
   59.8875   36.1204   45.5563 H   0  0  0  0  0  0  0  0  0  0  0  0
   61.2031   34.7528   47.1095 H   0  0  0  0  0  0  0  0  0  0  0  0
   61.6937   32.6656   49.4864 H   0  0  0  0  0  0  0  0  0  0  0  0
   62.7806   32.1543   48.1508 H   0  0  0  0  0  0  0  0  0  0  0  0
   62.0728   33.8053   48.1508 H   0  0  0  0  0  0  0  0  0  0  0  0
  1  2  1  0
  2  3  1  0
  3  4  1  0
  4  5  2  0
  5  6  1  0
  6  7  2  0
  7  8  1  0
  8  9  2  0
  9 10  1  0
 10 11  1  0
 11 12  1  0
 12 13  1  0
 13 14  1  0
 10 15  2  0
 15 16  1  0
 16 17  2  0
 17 18  1  0
 18 19  2  0
 19 20  1  0
 20 21  2  0
 21 22  1  0
  9  4  1  0
 20 15  1  0
 21  8  1  0
  1 23  1  0
  1 24  1  0
  1 25  1  0
  2 26  1  0
  2 27  1  0
  5 28  1  0
  6 29  1  0
  7 30  1  0
 11 31  1  0
 12 32  1  0
 12 33  1  0
 13 34  1  0
 13 35  1  0
 14 36  1  0
 14 37  1  0
 16 38  1  0
 17 39  1  0
 18 40  1  0
 19 41  1  0
 22 42  1  0
 22 43  1  0
 22 44  1  0
M  CHG  1  21   1
M  END
>  <smiles>  (26) 
CCOc1cccc2c1c(NCCN)c1ccccc1[n+]2C

>  <score_type>  (26) 
oracle

>  <origin>  (26) 
adg

>  <m_score__min__energy>  (26) 
-6.5300000000000002

>  <m_primary>  (26) 
energy

$$$$
26:0
     RDKit          3D

 53 55  0  0  0  0  0  0  0  0999 V2000
   61.3040   34.2070   49.4010 C   0  0  0  0  0  0  0  0  0  0  0  0
   62.7180   34.0920   48.8710 C   0  0  0  0  0  0  0  0  0  0  0  0
   63.0770   32.7220   48.5800 N   0  0  0  0  0  0  0  0  0  0  0  0
   64.2670   32.4110   49.3550 C   0  0  0  0  0  0  0  0  0  0  0  0
   63.3990   32.5690   47.1950 C   0  0  0  0  0  0  0  0  0  0  0  0
   63.3380   33.8460   46.3970 C   0  0  0  0  0  0  0  0  0  0  0  0
   62.0460   31.7930   49.0370 C   0  0  0  0  0  0  0  0  0  0  0  0
   61.6490   30.8190   47.9880 C   0  0  0  0  0  0  0  0  0  0  0  0
   60.2260   30.6760   47.8140 N   0  0  0  0  0  0  0  0  0  0  0  0
   59.5070   30.8910   46.6390 C   0  0  0  0  0  0  0  0  0  0  0  0
   59.0780   29.7560   45.9350 C   0  0  0  0  0  0  0  0  0  0  0  0
   59.3660   28.5090   46.4530 C   0  0  0  0  0  0  0  0  0  0  0  0
   58.9660   27.3310   45.8230 C   0  0  0  0  0  0  0  0  0  0  0  0
   58.2630   27.4420   44.6490 C   0  0  0  0  0  0  0  0  0  0  0  0
   57.9780   28.7090   44.1360 C   0  0  0  0  0  0  0  0  0  0  0  0
   58.3690   29.8680   44.7510 C   0  0  0  0  0  0  0  0  0  0  0  0
   58.0540   31.0850   44.2170 N   0  0  0  0  0  0  0  0  0  0  0  0
   57.3310   31.1940   42.9640 C   0  0  0  0  0  0  0  0  0  0  0  0
   58.4580   32.1910   44.8850 C   0  0  0  0  0  0  0  0  0  0  0  0
   58.1610   33.4570   44.4280 C   0  0  0  0  0  0  0  0  0  0  0  0
   58.5410   34.6110   45.1040 C   0  0  0  0  0  0  0  0  0  0  0  0
   59.2420   34.5200   46.2750 C   0  0  0  0  0  0  0  0  0  0  0  0
   59.5370   33.2360   46.7290 C   0  0  0  0  0  0  0  0  0  0  0  0
   59.1750   32.0990   46.0830 C   0  0  0  0  0  0  0  0  0  0  0  0
   61.3234   34.2054   50.5008 H   0  0  0  0  0  0  0  0  0  0  0  0
   60.8536   35.1447   49.0436 H   0  0  0  0  0  0  0  0  0  0  0  0
   60.7080   33.3544   49.0436 H   0  0  0  0  0  0  0  0  0  0  0  0
   62.8007   34.6846   47.9480 H   0  0  0  0  0  0  0  0  0  0  0  0
   63.4031   34.4657   49.6462 H   0  0  0  0  0  0  0  0  0  0  0  0
   64.0322   32.4724   50.4279 H   0  0  0  0  0  0  0  0  0  0  0  0
   64.6075   31.3937   49.1118 H   0  0  0  0  0  0  0  0  0  0  0  0
   65.0617   33.1316   49.1118 H   0  0  0  0  0  0  0  0  0  0  0  0
   64.4198   32.1659   47.1216 H   0  0  0  0  0  0  0  0  0  0  0  0
   62.6405   31.8959   46.7688 H   0  0  0  0  0  0  0  0  0  0  0  0
   63.2970   34.7052   47.0826 H   0  0  0  0  0  0  0  0  0  0  0  0
   64.2334   33.9253   45.7630 H   0  0  0  0  0  0  0  0  0  0  0  0
   62.4391   33.8396   45.7630 H   0  0  0  0  0  0  0  0  0  0  0  0
   62.4315   31.2382   49.9051 H   0  0  0  0  0  0  0  0  0  0  0  0
   61.1557   32.3847   49.2963 H   0  0  0  0  0  0  0  0  0  0  0  0
   62.0807   31.1489   47.0316 H   0  0  0  0  0  0  0  0  0  0  0  0
   62.0248   29.8378   48.3135 H   0  0  0  0  0  0  0  0  0  0  0  0
   59.6700   30.3770   48.6710 H   0  0  0  0  0  0  0  0  0  0  0  0
   59.9303   28.4425   47.3949 H   0  0  0  0  0  0  0  0  0  0  0  0
   59.2055   26.3468   46.2519 H   0  0  0  0  0  0  0  0  0  0  0  0
   57.9269   26.5399   44.1167 H   0  0  0  0  0  0  0  0  0  0  0  0
   57.4134   28.7791   43.1945 H   0  0  0  0  0  0  0  0  0  0  0  0
   56.2625   31.3551   43.1700 H   0  0  0  0  0  0  0  0  0  0  0  0
   57.7250   32.0429   42.3860 H   0  0  0  0  0  0  0  0  0  0  0  0
   57.4572   30.2667   42.3860 H   0  0  0  0  0  0  0  0  0  0  0  0
   57.5991   33.5587   43.4879 H   0  0  0  0  0  0  0  0  0  0  0  0
   58.2776   35.5983   44.6967 H   0  0  0  0  0  0  0  0  0  0  0  0
   59.5571   35.4156   46.8305 H   0  0  0  0  0  0  0  0  0  0  0  0
   60.0984   33.1381   47.6699 H   0  0  0  0  0  0  0  0  0  0  0  0
  1  2  1  0
  2  3  1  0
  3  4  1  0
  3  5  1  0
  5  6  1  0
  3  7  1  0
  7  8  1  0
  8  9  1  0
  9 10  1  0
 10 11  2  0
 11 12  1  0
 12 13  2  0
 13 14  1  0
 14 15  2  0
 15 16  1  0
 16 17  2  0
 17 18  1  0
 17 19  1  0
 19 20  2  0
 20 21  1  0
 21 22  2  0
 22 23  1  0
 23 24  2  0
 24 10  1  0
 16 11  1  0
 24 19  1  0
  1 25  1  0
  1 26  1  0
  1 27  1  0
  2 28  1  0
  2 29  1  0
  4 30  1  0
  4 31  1  0
  4 32  1  0
  5 33  1  0
  5 34  1  0
  6 35  1  0
  6 36  1  0
  6 37  1  0
  7 38  1  0
  7 39  1  0
  8 40  1  0
  8 41  1  0
  9 42  1  0
 12 43  1  0
 13 44  1  0
 14 45  1  0
 15 46  1  0
 18 47  1  0
 18 48  1  0
 18 49  1  0
 20 50  1  0
 21 51  1  0
 22 52  1  0
 23 53  1  0
M  CHG  2   3   1  17   1
M  END
>  <smiles>  (27) 
CC[N+](C)(CC)CCNc1c2ccccc2[n+](C)c2ccccc12

>  <score_type>  (27) 
oracle

>  <origin>  (27) 
adg

>  <m_score__min__energy>  (27) 
-4.5700000000000003

>  <m_primary>  (27) 
energy

$$$$
27:0
     RDKit          3D

 91 95  0  0  1  0  0  0  0  0999 V2000
   56.5280   30.0470   42.6840 C   0  0  0  0  0  0  0  0  0  0  0  0
   56.0950   29.7630   44.1030 C   0  0  0  0  0  0  0  0  0  0  0  0
   56.9480   30.5060   45.0160 N   0  0  0  0  0  0  0  0  0  0  0  0
   57.4160   31.7280   44.4510 C   0  0  0  0  0  0  0  0  0  0  0  0
   56.9570   32.9480   45.2290 C   0  0  0  0  0  0  0  0  0  0  0  0
   57.9020   29.6860   45.6660 C   0  0  0  0  0  0  0  0  0  0  0  0
   59.2850   29.8300   45.1740 C   0  0  0  0  0  0  0  0  0  0  0  0
   60.2910   30.3100   46.0690 N   0  0  0  0  0  0  0  0  0  0  0  0
   60.0810   31.1550   47.1770 C   0  0  0  0  0  0  0  0  0  0  0  0
   59.8730   32.4940   47.1720 C   0  0  0  0  0  0  0  0  0  0  0  0
   59.9380   33.1750   45.9930 C   0  0  0  0  0  0  0  0  0  0  0  0
   59.7600   34.5390   45.8790 C   0  0  0  0  0  0  0  0  0  0  0  0
   59.5010   35.2410   47.0300 C   0  0  0  0  0  0  0  0  0  0  0  0
   59.4310   34.5650   48.2460 C   0  0  0  0  0  0  0  0  0  0  0  0
   59.6150   33.1950   48.3370 C   0  0  0  0  0  0  0  0  0  0  0  0
   59.5560   32.5890   49.5500 N   0  0  0  0  0  0  0  0  0  0  0  0
   59.2700   33.4180   50.6830 C   0  0  0  0  0  0  0  0  0  0  0  0
   59.7620   31.2680   49.5770 C   0  0  0  0  0  0  0  0  0  0  0  0
   59.7240   30.6150   50.7880 C   0  0  0  0  0  0  0  0  0  0  0  0
   59.9450   29.2340   50.8580 C   0  0  0  0  0  0  0  0  0  0  0  0
   59.9000   28.5890   52.1060 O   0  0  0  0  0  0  0  0  0  0  0  0
   61.0060   27.8700   52.6010 C   0  0  0  0  0  0  0  0  0  0  0  0
   61.9560   28.6780   53.4220 C   0  0  0  0  0  0  0  0  0  0  0  0
   63.3180   28.6510   52.9680 N   0  0  1  0  0  0  0  0  0  0  0  0
   63.8260   27.2960   53.1640 C   0  0  0  0  0  0  0  0  0  0  0  0
   63.4740   29.0090   51.5850 C   0  0  0  0  0  0  0  0  0  0  0  0
   63.2450   30.4870   51.3610 C   0  0  0  0  0  0  0  0  0  0  0  0
   64.2200   31.3230   52.0350 N   0  0  2  0  0  0  0  0  0  0  0  0
   63.5140   32.2940   52.8310 C   0  0  0  0  0  0  0  0  0  0  0  0
   65.0270   31.9530   51.0100 C   0  0  0  0  0  0  0  0  0  0  0  0
   64.2250   32.5830   49.9380 C   0  0  0  0  0  0  0  0  0  0  0  0
   63.5310   33.7670   50.0990 C   0  0  0  0  0  0  0  0  0  0  0  0
   62.7850   34.3440   49.0890 C   0  0  0  0  0  0  0  0  0  0  0  0
   62.7040   33.7460   47.8490 C   0  0  0  0  0  0  0  0  0  0  0  0
   63.3870   32.5630   47.6580 C   0  0  0  0  0  0  0  0  0  0  0  0
   64.1340   31.9860   48.6760 C   0  0  0  0  0  0  0  0  0  0  0  0
   65.0030   30.4560   52.8990 C   0  0  0  0  0  0  0  0  0  0  0  0
   64.0890   29.6120   53.7350 C   0  0  0  0  0  0  0  0  0  0  0  0
   60.2070   28.4800   49.7370 C   0  0  0  0  0  0  0  0  0  0  0  0
   60.2400   29.1570   48.5290 C   0  0  0  0  0  0  0  0  0  0  0  0
   60.0260   30.5200   48.4280 C   0  0  0  0  0  0  0  0  0  0  0  0
   57.4478   30.6503   42.6951 H   0  0  0  0  0  0  0  0  0  0  0  0
   56.7184   29.0978   42.1618 H   0  0  0  0  0  0  0  0  0  0  0  0
   55.7332   30.5998   42.1618 H   0  0  0  0  0  0  0  0  0  0  0  0
   55.0491   30.0753   44.2389 H   0  0  0  0  0  0  0  0  0  0  0  0
   56.1798   28.6858   44.3088 H   0  0  0  0  0  0  0  0  0  0  0  0
   58.5158   31.7116   44.4393 H   0  0  0  0  0  0  0  0  0  0  0  0
   56.9989   31.8055   43.4361 H   0  0  0  0  0  0  0  0  0  0  0  0
   57.0333   32.7452   46.3074 H   0  0  0  0  0  0  0  0  0  0  0  0
   57.5932   33.8077   44.9717 H   0  0  0  0  0  0  0  0  0  0  0  0
   55.9119   33.1752   44.9717 H   0  0  0  0  0  0  0  0  0  0  0  0
   57.8931   29.9353   46.7373 H   0  0  0  0  0  0  0  0  0  0  0  0
   57.6077   28.6468   45.4574 H   0  0  0  0  0  0  0  0  0  0  0  0
   59.6089   28.8378   44.8268 H   0  0  0  0  0  0  0  0  0  0  0  0
   59.2132   30.6179   44.4097 H   0  0  0  0  0  0  0  0  0  0  0  0
   61.2810   30.0080   45.8880 H   0  0  0  0  0  0  0  0  0  0  0  0
   60.1449   32.6027   45.0767 H   0  0  0  0  0  0  0  0  0  0  0  0
   59.8232   35.0439   44.9038 H   0  0  0  0  0  0  0  0  0  0  0  0
   59.3498   36.3299   46.9923 H   0  0  0  0  0  0  0  0  0  0  0  0
   59.2232   35.1368   49.1624 H   0  0  0  0  0  0  0  0  0  0  0  0
   59.4643   32.8549   51.6077 H   0  0  0  0  0  0  0  0  0  0  0  0
   59.9121   34.3107   50.6556 H   0  0  0  0  0  0  0  0  0  0  0  0
   58.2140   33.7249   50.6556 H   0  0  0  0  0  0  0  0  0  0  0  0
   59.5185   31.1822   51.7078 H   0  0  0  0  0  0  0  0  0  0  0  0
   60.6284   27.0463   53.2247 H   0  0  0  0  0  0  0  0  0  0  0  0
   61.5703   27.5229   51.7229 H   0  0  0  0  0  0  0  0  0  0  0  0
   61.6129   29.7231   53.4128 H   0  0  0  0  0  0  0  0  0  0  0  0
   61.9556   28.2298   54.4266 H   0  0  0  0  0  0  0  0  0  0  0  0
   63.9047   27.0861   54.2409 H   0  0  0  0  0  0  0  0  0  0  0  0
   63.1370   26.5753   52.6994 H   0  0  0  0  0  0  0  0  0  0  0  0
   64.8190   27.2059   52.6994 H   0  0  0  0  0  0  0  0  0  0  0  0
   62.7476   28.4407   50.9855 H   0  0  0  0  0  0  0  0  0  0  0  0
   64.5050   28.7720   51.2834 H   0  0  0  0  0  0  0  0  0  0  0  0
   62.2435   30.7466   51.7347 H   0  0  0  0  0  0  0  0  0  0  0  0
   63.3434   30.6740   50.2815 H   0  0  0  0  0  0  0  0  0  0  0  0
   63.6713   32.0776   53.8980 H   0  0  0  0  0  0  0  0  0  0  0  0
   63.8922   33.3011   52.6014 H   0  0  0  0  0  0  0  0  0  0  0  0
   62.4393   32.2448   52.6014 H   0  0  0  0  0  0  0  0  0  0  0  0
   65.6485   32.7280   51.4823 H   0  0  0  0  0  0  0  0  0  0  0  0
   65.6333   31.1635   50.5419 H   0  0  0  0  0  0  0  0  0  0  0  0
   63.5743   34.2729   51.0748 H   0  0  0  0  0  0  0  0  0  0  0  0
   62.2516   35.2877   49.2756 H   0  0  0  0  0  0  0  0  0  0  0  0
   62.1137   34.1979   47.0383 H   0  0  0  0  0  0  0  0  0  0  0  0
   63.3388   32.0660   46.6779 H   0  0  0  0  0  0  0  0  0  0  0  0
   64.6646   31.0412   48.4867 H   0  0  0  0  0  0  0  0  0  0  0  0
   65.6356   31.0705   53.5564 H   0  0  0  0  0  0  0  0  0  0  0  0
   65.6358   29.8026   52.2804 H   0  0  0  0  0  0  0  0  0  0  0  0
   63.3892   30.2763   54.2632 H   0  0  0  0  0  0  0  0  0  0  0  0
   64.7240   29.0371   54.4252 H   0  0  0  0  0  0  0  0  0  0  0  0
   60.3812   27.3956   49.7972 H   0  0  0  0  0  0  0  0  0  0  0  0
   60.4451   28.5866   47.6110 H   0  0  0  0  0  0  0  0  0  0  0  0
  1  2  1  0
  2  3  1  0
  3  4  1  0
  4  5  1  0
  3  6  1  0
  6  7  1  0
  7  8  1  0
  8  9  1  0
  9 10  2  0
 10 11  1  0
 11 12  2  0
 12 13  1  0
 13 14  2  0
 14 15  1  0
 15 16  2  0
 16 17  1  0
 16 18  1  0
 18 19  2  0
 19 20  1  0
 20 21  1  0
 21 22  1  0
 22 23  1  0
 24 23  1  1
 24 25  1  0
 24 26  1  0
 26 27  1  0
 27 28  1  0
 28 29  1  1
 28 30  1  0
 30 31  1  0
 31 32  2  0
 32 33  1  0
 33 34  2  0
 34 35  1  0
 35 36  2  0
 28 37  1  0
 37 38  1  0
 20 39  2  0
 39 40  1  0
 40 41  2  0
 41  9  1  0
 15 10  1  0
 41 18  1  0
 38 24  1  0
 36 31  1  0
  1 42  1  0
  1 43  1  0
  1 44  1  0
  2 45  1  0
  2 46  1  0
  4 47  1  0
  4 48  1  0
  5 49  1  0
  5 50  1  0
  5 51  1  0
  6 52  1  0
  6 53  1  0
  7 54  1  0
  7 55  1  0
  8 56  1  0
 11 57  1  0
 12 58  1  0
 13 59  1  0
 14 60  1  0
 17 61  1  0
 17 62  1  0
 17 63  1  0
 19 64  1  0
 22 65  1  0
 22 66  1  0
 23 67  1  0
 23 68  1  0
 25 69  1  0
 25 70  1  0
 25 71  1  0
 26 72  1  0
 26 73  1  0
 27 74  1  0
 27 75  1  0
 29 76  1  0
 29 77  1  0
 29 78  1  0
 30 79  1  0
 30 80  1  0
 32 81  1  0
 33 82  1  0
 34 83  1  0
 35 84  1  0
 36 85  1  0
 37 86  1  0
 37 87  1  0
 38 88  1  0
 38 89  1  0
 39 90  1  0
 40 91  1  0
M  CHG  3  16   1  24   1  28   1
M  END
>  <smiles>  (28) 
CCN(CC)CCNc1c2ccccc2[n+](C)c2cc(OCC[N+]3(C)CC[N+](C)(Cc4ccccc4)CC3)ccc12

>  <score_type>  (28) 
oracle

>  <origin>  (28) 
adg

>  <m_score__min__energy>  (28) 
-5.0999999999999996

>  <m_primary>  (28) 
energy

$$$$
28:0
     RDKit          2D

 59 61  0  0  0  0  0  0  0  0999 V2000
    3.7500   -6.4952    0.0000 C   0  0  0  0  0  0  0  0  0  0  0  0
    4.5000   -5.1962    0.0000 C   0  0  0  0  0  0  0  0  0  0  0  0
    5.2500   -3.8971    0.0000 N   0  0  0  0  0  0  0  0  0  0  0  0
    4.5000   -2.5981    0.0000 C   0  0  0  0  0  0  0  0  0  0  0  0
    3.7500   -1.2990    0.0000 C   0  0  0  0  0  0  0  0  0  0  0  0
    3.0000    0.0000    0.0000 N   0  0  0  0  0  0  0  0  0  0  0  0
    1.5000    0.0000    0.0000 C   0  0  0  0  0  0  0  0  0  0  0  0
    0.7500   -1.2990    0.0000 C   0  0  0  0  0  0  0  0  0  0  0  0
   -0.7500   -1.2990    0.0000 C   0  0  0  0  0  0  0  0  0  0  0  0
   -1.5000   -2.5981    0.0000 C   0  0  0  0  0  0  0  0  0  0  0  0
   -3.0000   -2.5981    0.0000 C   0  0  0  0  0  0  0  0  0  0  0  0
   -3.7500   -3.8971    0.0000 N   0  0  0  0  0  0  0  0  0  0  0  0
   -5.2054   -4.2601    0.0000 O   0  0  0  0  0  0  0  0  0  0  0  0
   -3.0000   -5.1962    0.0000 O   0  0  0  0  0  0  0  0  0  0  0  0
   -3.7500   -1.2990    0.0000 C   0  0  0  0  0  0  0  0  0  0  0  0
   -5.2500   -1.2990    0.0000 N   0  0  0  0  0  0  0  0  0  0  0  0
   -6.0000    0.0000    0.0000 C   0  0  0  0  0  0  0  0  0  0  0  0
   -6.7500    1.2990    0.0000 C   0  0  0  0  0  0  0  0  0  0  0  0
   -6.0000   -2.5981    0.0000 C   0  0  0  0  0  0  0  0  0  0  0  0
   -6.7500   -3.8971    0.0000 C   0  0  0  0  0  0  0  0  0  0  0  0
   -3.0000    0.0000    0.0000 C   0  0  0  0  0  0  0  0  0  0  0  0
   -1.5000    0.0000    0.0000 C   0  0  0  0  0  0  0  0  0  0  0  0
   -0.7500    1.2990    0.0000 N   0  0  0  0  0  0  0  0  0  0  0  0
   -1.5000    2.5981    0.0000 C   0  0  0  0  0  0  0  0  0  0  0  0
    0.7500    1.2990    0.0000 C   0  0  0  0  0  0  0  0  0  0  0  0
    2.2124    1.6328    0.0000 C   0  0  0  0  0  0  0  0  0  0  0  0
    3.3851    0.6976    0.0000 C   0  0  0  0  0  0  0  0  0  0  0  0
    3.3851   -0.8024    0.0000 C   0  0  0  0  0  0  0  0  0  0  0  0
    2.2124   -1.7376    0.0000 C   0  0  0  0  0  0  0  0  0  0  0  0
    3.0000   -7.7942    0.0000 H   0  0  0  0  0  0  0  0  0  0  0  0
    2.4510   -5.7452    0.0000 H   0  0  0  0  0  0  0  0  0  0  0  0
    5.0490   -7.2452    0.0000 H   0  0  0  0  0  0  0  0  0  0  0  0
    3.2010   -4.4462    0.0000 H   0  0  0  0  0  0  0  0  0  0  0  0
    5.7990   -5.9462    0.0000 H   0  0  0  0  0  0  0  0  0  0  0  0
    6.7500   -3.8971    0.0000 H   0  0  0  0  0  0  0  0  0  0  0  0
    5.7990   -1.8481    0.0000 H   0  0  0  0  0  0  0  0  0  0  0  0
    3.3021   -3.5008    0.0000 H   0  0  0  0  0  0  0  0  0  0  0  0
    2.6710   -2.3411    0.0000 H   0  0  0  0  0  0  0  0  0  0  0  0
    5.0490   -0.5490    0.0000 H   0  0  0  0  0  0  0  0  0  0  0  0
    4.0420    1.0790    0.0000 H   0  0  0  0  0  0  0  0  0  0  0  0
   -0.7500   -3.8971    0.0000 H   0  0  0  0  0  0  0  0  0  0  0  0
   -4.7010    0.7500    0.0000 H   0  0  0  0  0  0  0  0  0  0  0  0
   -7.2990   -0.7500    0.0000 H   0  0  0  0  0  0  0  0  0  0  0  0
   -7.5000    2.5981    0.0000 H   0  0  0  0  0  0  0  0  0  0  0  0
   -5.4510    2.0490    0.0000 H   0  0  0  0  0  0  0  0  0  0  0  0
   -8.0490    0.5490    0.0000 H   0  0  0  0  0  0  0  0  0  0  0  0
   -4.8021   -3.5008    0.0000 H   0  0  0  0  0  0  0  0  0  0  0  0
   -7.2990   -1.8481    0.0000 H   0  0  0  0  0  0  0  0  0  0  0  0
   -7.5000   -5.1962    0.0000 H   0  0  0  0  0  0  0  0  0  0  0  0
   -8.0490   -3.1471    0.0000 H   0  0  0  0  0  0  0  0  0  0  0  0
   -5.5521   -4.7999    0.0000 H   0  0  0  0  0  0  0  0  0  0  0  0
   -3.7500    1.2990    0.0000 H   0  0  0  0  0  0  0  0  0  0  0  0
   -2.2500    3.8971    0.0000 H   0  0  0  0  0  0  0  0  0  0  0  0
   -0.2010    3.3481    0.0000 H   0  0  0  0  0  0  0  0  0  0  0  0
   -2.7990    1.8481    0.0000 H   0  0  0  0  0  0  0  0  0  0  0  0
    2.5462    3.0952    0.0000 H   0  0  0  0  0  0  0  0  0  0  0  0
    4.7366    1.3484    0.0000 H   0  0  0  0  0  0  0  0  0  0  0  0
    4.7366   -1.4532    0.0000 H   0  0  0  0  0  0  0  0  0  0  0  0
    2.3654   -3.2298    0.0000 H   0  0  0  0  0  0  0  0  0  0  0  0
  1  2  1  0
  2  3  1  0
  3  4  1  0
  4  5  1  0
  5  6  1  0
  6  7  1  0
  7  8  2  0
  8  9  1  0
  9 10  2  0
 10 11  1  0
 11 12  1  0
 12 13  2  0
 12 14  1  0
 11 15  2  0
 15 16  1  0
 16 17  1  0
 17 18  1  0
 16 19  1  0
 19 20  1  0
 15 21  1  0
 21 22  2  0
 22 23  1  0
 23 24  1  0
 23 25  2  0
 25 26  1  0
 26 27  2  0
 27 28  1  0
 28 29  2  0
 25  7  1  0
 29  8  1  0
 22  9  1  0
  1 30  1  0
  1 31  1  0
  1 32  1  0
  2 33  1  0
  2 34  1  0
  3 35  1  0
  4 36  1  0
  4 37  1  0
  5 38  1  0
  5 39  1  0
  6 40  1  0
 10 41  1  0
 17 42  1  0
 17 43  1  0
 18 44  1  0
 18 45  1  0
 18 46  1  0
 19 47  1  0
 19 48  1  0
 20 49  1  0
 20 50  1  0
 20 51  1  0
 21 52  1  0
 24 53  1  0
 24 54  1  0
 24 55  1  0
 26 56  1  0
 27 57  1  0
 28 58  1  0
 29 59  1  0
M  CHG  3  12   1  14  -1  23   1
M  END
>  <smiles>  (29) 
CCNCCNc1c2c3cc([N+](=O)[O-])c(N(CC)CC)cc3[n+](C)c1C=CC=C2

>  <m_score__min__energy>  (29) 
nan

>  <m_primary>  (29) 
energy

$$$$
30:0
     RDKit          3D

 85 88  0  0  0  0  0  0  0  0999 V2000
   63.7580   32.9690   47.6460 C   0  0  0  0  0  0  0  0  0  0  0  0
   62.3670   32.8850   47.1340 C   0  0  0  0  0  0  0  0  0  0  0  0
   61.4830   33.9430   47.4350 N   0  0  0  0  0  0  0  0  0  0  0  0
   60.9710   33.9690   48.7630 C   0  0  0  0  0  0  0  0  0  0  0  0
   60.7250   34.5410   46.4170 C   0  0  0  0  0  0  0  0  0  0  0  0
   59.3230   34.9980   46.8000 C   0  0  0  0  0  0  0  0  0  0  0  0
   58.4610   34.9330   45.7420 O   0  0  0  0  0  0  0  0  0  0  0  0
   57.7290   33.8200   45.5730 C   0  0  0  0  0  0  0  0  0  0  0  0
   57.7910   32.7090   46.5650 C   0  0  0  0  0  0  0  0  0  0  0  0
   59.0300   32.0660   46.7620 N   0  0  0  0  0  0  0  0  0  0  0  0
   59.0390   30.6280   46.6510 C   0  0  0  0  0  0  0  0  0  0  0  0
   58.4880   29.9670   45.5740 C   0  0  0  0  0  0  0  0  0  0  0  0
   57.8930   30.6540   44.5470 C   0  0  0  0  0  0  0  0  0  0  0  0
   57.3180   30.0510   43.4450 C   0  0  0  0  0  0  0  0  0  0  0  0
   57.3330   28.6870   43.3590 C   0  0  0  0  0  0  0  0  0  0  0  0
   57.9230   27.9630   44.3780 C   0  0  0  0  0  0  0  0  0  0  0  0
   58.5030   28.5780   45.4860 C   0  0  0  0  0  0  0  0  0  0  0  0
   59.0610   27.8070   46.4570 N   0  0  0  0  0  0  0  0  0  0  0  0
   59.0270   26.3970   46.2620 C   0  0  0  0  0  0  0  0  0  0  0  0
   59.6010   28.4370   47.5120 C   0  0  0  0  0  0  0  0  0  0  0  0
   60.1660   27.7240   48.5310 C   0  0  0  0  0  0  0  0  0  0  0  0
   60.7260   28.3280   49.6470 C   0  0  0  0  0  0  0  0  0  0  0  0
   61.2990   27.5630   50.6840 O   0  0  0  0  0  0  0  0  0  0  0  0
   60.7800   27.8100   51.9760 C   0  0  0  0  0  0  0  0  0  0  0  0
   61.2960   26.7120   52.8860 C   0  0  0  0  0  0  0  0  0  0  0  0
   62.6910   26.9170   53.1960 N   0  0  0  0  0  0  0  0  0  0  0  0
   63.1760   28.2300   52.8510 C   0  0  0  0  0  0  0  0  0  0  0  0
   62.8590   26.7610   54.6270 C   0  0  0  0  0  0  0  0  0  0  0  0
   64.2610   26.4880   55.0590 C   0  0  0  0  0  0  0  0  0  0  0  0
   64.9160   25.4530   54.2950 N   0  0  0  0  0  0  0  0  0  0  0  0
   64.3340   24.1610   54.5080 C   0  0  0  0  0  0  0  0  0  0  0  0
   66.3250   25.4780   54.7170 C   0  0  0  0  0  0  0  0  0  0  0  0
   64.8750   25.7950   52.9080 C   0  0  0  0  0  0  0  0  0  0  0  0
   63.4630   25.9450   52.4510 C   0  0  0  0  0  0  0  0  0  0  0  0
   60.7390   29.6950   49.7810 C   0  0  0  0  0  0  0  0  0  0  0  0
   60.1730   30.4320   48.7610 C   0  0  0  0  0  0  0  0  0  0  0  0
   59.6050   29.8310   47.6340 C   0  0  0  0  0  0  0  0  0  0  0  0
   63.7445   32.9682   48.7459 H   0  0  0  0  0  0  0  0  0  0  0  0
   64.3342   32.1040   47.2857 H   0  0  0  0  0  0  0  0  0  0  0  0
   64.2259   33.8970   47.2857 H   0  0  0  0  0  0  0  0  0  0  0  0
   62.4262   32.8106   46.0381 H   0  0  0  0  0  0  0  0  0  0  0  0
   61.9374   32.0140   47.6505 H   0  0  0  0  0  0  0  0  0  0  0  0
   61.8054   33.9266   49.4786 H   0  0  0  0  0  0  0  0  0  0  0  0
   60.4015   34.8972   48.9183 H   0  0  0  0  0  0  0  0  0  0  0  0
   60.3104   33.1032   48.9183 H   0  0  0  0  0  0  0  0  0  0  0  0
   61.2789   35.4217   46.0599 H   0  0  0  0  0  0  0  0  0  0  0  0
   60.5814   33.7571   45.6588 H   0  0  0  0  0  0  0  0  0  0  0  0
   58.9460   34.3520   47.6066 H   0  0  0  0  0  0  0  0  0  0  0  0
   59.3830   36.0462   47.1280 H   0  0  0  0  0  0  0  0  0  0  0  0
   56.6776   34.1400   45.5253 H   0  0  0  0  0  0  0  0  0  0  0  0
   58.1731   33.3695   44.6731 H   0  0  0  0  0  0  0  0  0  0  0  0
   57.4776   33.1197   47.5361 H   0  0  0  0  0  0  0  0  0  0  0  0
   57.1402   31.9284   46.1442 H   0  0  0  0  0  0  0  0  0  0  0  0
   59.9520   32.4820   47.0040 H   0  0  0  0  0  0  0  0  0  0  0  0
   57.8723   31.7523   44.6042 H   0  0  0  0  0  0  0  0  0  0  0  0
   56.8567   30.6573   42.6516 H   0  0  0  0  0  0  0  0  0  0  0  0
   56.8840   28.1750   42.4951 H   0  0  0  0  0  0  0  0  0  0  0  0
   57.9351   26.8650   44.3122 H   0  0  0  0  0  0  0  0  0  0  0  0
   59.0148   25.8919   47.2391 H   0  0  0  0  0  0  0  0  0  0  0  0
   58.1221   26.1265   45.6981 H   0  0  0  0  0  0  0  0  0  0  0  0
   59.9178   26.0832   45.6981 H   0  0  0  0  0  0  0  0  0  0  0  0
   60.1773   26.6261   48.4638 H   0  0  0  0  0  0  0  0  0  0  0  0
   61.1220   28.7908   52.3380 H   0  0  0  0  0  0  0  0  0  0  0  0
   59.6802   27.8176   51.9593 H   0  0  0  0  0  0  0  0  0  0  0  0
   60.7148   26.7146   53.8199 H   0  0  0  0  0  0  0  0  0  0  0  0
   61.1874   25.7464   52.3704 H   0  0  0  0  0  0  0  0  0  0  0  0
   63.3854   28.7968   53.7702 H   0  0  0  0  0  0  0  0  0  0  0  0
   64.0989   28.1363   52.2598 H   0  0  0  0  0  0  0  0  0  0  0  0
   62.4139   28.7588   52.2598 H   0  0  0  0  0  0  0  0  0  0  0  0
   62.5232   27.6876   55.1155 H   0  0  0  0  0  0  0  0  0  0  0  0
   62.2651   25.8820   54.9179 H   0  0  0  0  0  0  0  0  0  0  0  0
   64.8425   27.4159   54.9554 H   0  0  0  0  0  0  0  0  0  0  0  0
   64.2121   26.1351   56.0997 H   0  0  0  0  0  0  0  0  0  0  0  0
   64.2484   23.9710   55.5881 H   0  0  0  0  0  0  0  0  0  0  0  0
   63.3345   24.1290   54.0497 H   0  0  0  0  0  0  0  0  0  0  0  0
   64.9723   23.3912   54.0497 H   0  0  0  0  0  0  0  0  0  0  0  0
   66.3787   25.4790   55.8157 H   0  0  0  0  0  0  0  0  0  0  0  0
   66.8409   24.5889   54.3254 H   0  0  0  0  0  0  0  0  0  0  0  0
   66.8090   26.3849   54.3254 H   0  0  0  0  0  0  0  0  0  0  0  0
   65.4090   26.7441   52.7528 H   0  0  0  0  0  0  0  0  0  0  0  0
   65.3544   24.9924   52.3283 H   0  0  0  0  0  0  0  0  0  0  0  0
   63.4745   26.2520   51.3948 H   0  0  0  0  0  0  0  0  0  0  0  0
   62.9774   24.9710   52.6106 H   0  0  0  0  0  0  0  0  0  0  0  0
   61.1814   30.1810   50.6631 H   0  0  0  0  0  0  0  0  0  0  0  0
   60.1686   31.5293   48.8373 H   0  0  0  0  0  0  0  0  0  0  0  0
  1  2  1  0
  2  3  1  0
  3  4  1  0
  3  5  1  0
  5  6  1  0
  6  7  1  0
  7  8  1  0
  8  9  1  0
  9 10  1  0
 10 11  1  0
 11 12  2  0
 12 13  1  0
 13 14  2  0
 14 15  1  0
 15 16  2  0
 16 17  1  0
 17 18  2  0
 18 19  1  0
 18 20  1  0
 20 21  2  0
 21 22  1  0
 22 23  1  0
 23 24  1  0
 24 25  1  0
 25 26  1  0
 26 27  1  0
 26 28  1  0
 28 29  1  0
 29 30  1  0
 30 31  1  0
 30 32  1  0
 30 33  1  0
 33 34  1  0
 22 35  2  0
 35 36  1  0
 36 37  2  0
 37 11  1  0
 17 12  1  0
 37 20  1  0
 34 26  1  0
  1 38  1  0
  1 39  1  0
  1 40  1  0
  2 41  1  0
  2 42  1  0
  4 43  1  0
  4 44  1  0
  4 45  1  0
  5 46  1  0
  5 47  1  0
  6 48  1  0
  6 49  1  0
  8 50  1  0
  8 51  1  0
  9 52  1  0
  9 53  1  0
 10 54  1  0
 13 55  1  0
 14 56  1  0
 15 57  1  0
 16 58  1  0
 19 59  1  0
 19 60  1  0
 19 61  1  0
 21 62  1  0
 24 63  1  0
 24 64  1  0
 25 65  1  0
 25 66  1  0
 27 67  1  0
 27 68  1  0
 27 69  1  0
 28 70  1  0
 28 71  1  0
 29 72  1  0
 29 73  1  0
 31 74  1  0
 31 75  1  0
 31 76  1  0
 32 77  1  0
 32 78  1  0
 32 79  1  0
 33 80  1  0
 33 81  1  0
 34 82  1  0
 34 83  1  0
 35 84  1  0
 36 85  1  0
M  CHG  3  18   1  26   1  30   1
M  END
>  <smiles>  (30) 
CCN(C)CCOCCNc1c2ccccc2[n+](C)c2cc(OCC[N+]3(C)CC[N+](C)(C)CC3)ccc12

>  <score_type>  (30) 
oracle

>  <origin>  (30) 
adg

>  <m_score__min__energy>  (30) 
-3.7999999999999998

>  <m_primary>  (30) 
energy

$$$$
31:0
     RDKit          3D

 83 87  0  0  0  0  0  0  0  0999 V2000
   63.3620   32.7710   47.1480 C   0  0  0  0  0  0  0  0  0  0  0  0
   62.5280   33.8370   47.8500 C   0  0  0  0  0  0  0  0  0  0  0  0
   61.1680   33.7840   47.5530 N   0  0  0  0  0  0  0  0  0  0  0  0
   60.6450   34.2180   46.3400 C   0  0  0  0  0  0  0  0  0  0  0  0
   59.6440   35.3380   46.4070 C   0  0  0  0  0  0  0  0  0  0  0  0
   60.2900   33.9670   48.6500 C   0  0  0  0  0  0  0  0  0  0  0  0
   59.9840   32.7310   49.4230 C   0  0  0  0  0  0  0  0  0  0  0  0
   60.5770   31.5690   48.8310 N   0  0  0  0  0  0  0  0  0  0  0  0
   60.7810   30.3130   49.4460 C   0  0  0  0  0  0  0  0  0  0  0  0
   61.4510   30.1020   50.6190 C   0  0  0  0  0  0  0  0  0  0  0  0
   61.9020   31.1490   51.3600 C   0  0  0  0  0  0  0  0  0  0  0  0
   62.5710   31.0440   52.5620 C   0  0  0  0  0  0  0  0  0  0  0  0
   62.8100   29.7880   53.0660 C   0  0  0  0  0  0  0  0  0  0  0  0
   62.3700   28.6910   52.3550 C   0  0  0  0  0  0  0  0  0  0  0  0
   61.6900   28.8230   51.1370 C   0  0  0  0  0  0  0  0  0  0  0  0
   61.2480   27.7150   50.4740 N   0  0  0  0  0  0  0  0  0  0  0  0
   61.5320   26.4500   51.0930 C   0  0  0  0  0  0  0  0  0  0  0  0
   60.5840   27.8910   49.3240 C   0  0  0  0  0  0  0  0  0  0  0  0
   60.1070   26.7660   48.6450 C   0  0  0  0  0  0  0  0  0  0  0  0
   59.3900   26.8870   47.4620 C   0  0  0  0  0  0  0  0  0  0  0  0
   59.1360   28.1280   46.9350 C   0  0  0  0  0  0  0  0  0  0  0  0
   58.3890   28.2170   45.7570 C   0  0  0  0  0  0  0  0  0  0  0  0
   57.9430   26.9740   45.1300 C   0  0  0  0  0  0  0  0  0  0  0  0
   56.6440   26.6550   45.6250 N   0  0  0  0  0  0  0  0  0  0  0  0
   56.5670   25.8170   46.7660 C   0  0  0  0  0  0  0  0  0  0  0  0
   55.9710   24.4940   46.4100 C   0  0  0  0  0  0  0  0  0  0  0  0
   55.2440   24.4890   45.1910 N   0  0  0  0  0  0  0  0  0  0  0  0
   53.8420   24.3160   45.2620 C   0  0  0  0  0  0  0  0  0  0  0  0
   55.9130   24.0750   44.0180 C   0  0  0  0  0  0  0  0  0  0  0  0
   58.1270   29.4700   45.2600 C   0  0  0  0  0  0  0  0  0  0  0  0
   57.4100   29.6530   44.1120 C   0  0  0  0  0  0  0  0  0  0  0  0
   57.1850   30.9360   43.6640 C   0  0  0  0  0  0  0  0  0  0  0  0
   57.6480   32.0560   44.3170 C   0  0  0  0  0  0  0  0  0  0  0  0
   57.4240   33.3530   43.8690 O   0  0  0  0  0  0  0  0  0  0  0  0
   57.0590   34.2980   44.8610 C   0  0  0  0  0  0  0  0  0  0  0  0
   58.3670   31.8710   45.4690 C   0  0  0  0  0  0  0  0  0  0  0  0
   58.5910   30.5830   45.9150 C   0  0  0  0  0  0  0  0  0  0  0  0
   59.3010   30.4330   47.0380 N   0  0  0  0  0  0  0  0  0  0  0  0
   59.6050   29.2510   47.5930 C   0  0  0  0  0  0  0  0  0  0  0  0
   60.3320   29.1580   48.7860 C   0  0  0  0  0  0  0  0  0  0  0  0
   63.8568   32.1386   47.8998 H   0  0  0  0  0  0  0  0  0  0  0  0
   62.7081   32.1493   46.5189 H   0  0  0  0  0  0  0  0  0  0  0  0
   64.1228   33.2561   46.5189 H   0  0  0  0  0  0  0  0  0  0  0  0
   62.6493   33.7105   48.9359 H   0  0  0  0  0  0  0  0  0  0  0  0
   62.8925   34.8110   47.4916 H   0  0  0  0  0  0  0  0  0  0  0  0
   61.4847   34.5563   45.7152 H   0  0  0  0  0  0  0  0  0  0  0  0
   60.0939   33.3569   45.9341 H   0  0  0  0  0  0  0  0  0  0  0  0
   59.4307   35.5767   47.4594 H   0  0  0  0  0  0  0  0  0  0  0  0
   60.0542   36.2269   45.9053 H   0  0  0  0  0  0  0  0  0  0  0  0
   58.7148   35.0298   45.9053 H   0  0  0  0  0  0  0  0  0  0  0  0
   60.7481   34.6943   49.3364 H   0  0  0  0  0  0  0  0  0  0  0  0
   59.3345   34.3094   48.2259 H   0  0  0  0  0  0  0  0  0  0  0  0
   60.3721   32.8462   50.4458 H   0  0  0  0  0  0  0  0  0  0  0  0
   58.8928   32.5925   49.4257 H   0  0  0  0  0  0  0  0  0  0  0  0
   60.8970   31.6500   47.8340 H   0  0  0  0  0  0  0  0  0  0  0  0
   61.7188   32.1610   50.9698 H   0  0  0  0  0  0  0  0  0  0  0  0
   62.9043   31.9420   53.1028 H   0  0  0  0  0  0  0  0  0  0  0  0
   63.3429   29.6598   54.0197 H   0  0  0  0  0  0  0  0  0  0  0  0
   62.5583   27.6840   52.7555 H   0  0  0  0  0  0  0  0  0  0  0  0
   61.5066   26.5631   52.1869 H   0  0  0  0  0  0  0  0  0  0  0  0
   60.7771   25.7124   50.7830 H   0  0  0  0  0  0  0  0  0  0  0  0
   62.5298   26.1059   50.7830 H   0  0  0  0  0  0  0  0  0  0  0  0
   60.3036   25.7648   49.0561 H   0  0  0  0  0  0  0  0  0  0  0  0
   59.0251   25.9864   46.9465 H   0  0  0  0  0  0  0  0  0  0  0  0
   57.9021   27.1035   44.0384 H   0  0  0  0  0  0  0  0  0  0  0  0
   58.6452   26.1610   45.3663 H   0  0  0  0  0  0  0  0  0  0  0  0
   55.8960   26.5380   44.9320 H   0  0  0  0  0  0  0  0  0  0  0  0
   57.5788   25.6608   47.1683 H   0  0  0  0  0  0  0  0  0  0  0  0
   55.9279   26.3019   47.5186 H   0  0  0  0  0  0  0  0  0  0  0  0
   56.7862   23.7600   46.3278 H   0  0  0  0  0  0  0  0  0  0  0  0
   55.2525   24.2482   47.2058 H   0  0  0  0  0  0  0  0  0  0  0  0
   53.5302   24.2775   46.3162 H   0  0  0  0  0  0  0  0  0  0  0  0
   53.3427   25.1593   44.7625 H   0  0  0  0  0  0  0  0  0  0  0  0
   53.5627   23.3766   44.7625 H   0  0  0  0  0  0  0  0  0  0  0  0
   56.8191   23.5143   44.2912 H   0  0  0  0  0  0  0  0  0  0  0  0
   55.2478   23.4304   43.4246 H   0  0  0  0  0  0  0  0  0  0  0  0
   56.1931   24.9579   43.4246 H   0  0  0  0  0  0  0  0  0  0  0  0
   57.0185   28.7896   43.5541 H   0  0  0  0  0  0  0  0  0  0  0  0
   56.6066   31.0724   42.7384 H   0  0  0  0  0  0  0  0  0  0  0  0
   57.2260   33.8655   45.8585 H   0  0  0  0  0  0  0  0  0  0  0  0
   57.6717   35.2044   44.7470 H   0  0  0  0  0  0  0  0  0  0  0  0
   55.9961   34.5572   44.7470 H   0  0  0  0  0  0  0  0  0  0  0  0
   58.7588   32.7331   46.0287 H   0  0  0  0  0  0  0  0  0  0  0  0
  1  2  1  0
  2  3  1  0
  3  4  1  0
  4  5  1  0
  3  6  1  0
  6  7  1  0
  7  8  1  0
  8  9  1  0
  9 10  2  0
 10 11  1  0
 11 12  2  0
 12 13  1  0
 13 14  2  0
 14 15  1  0
 15 16  2  0
 16 17  1  0
 16 18  1  0
 18 19  2  0
 19 20  1  0
 20 21  2  0
 21 22  1  0
 22 23  1  0
 23 24  1  0
 24 25  1  0
 25 26  1  0
 26 27  1  0
 27 28  1  0
 27 29  1  0
 22 30  2  0
 30 31  1  0
 31 32  2  0
 32 33  1  0
 33 34  1  0
 34 35  1  0
 33 36  2  0
 36 37  1  0
 37 38  2  0
 38 39  1  0
 39 40  2  0
 40  9  1  0
 15 10  1  0
 40 18  1  0
 39 21  1  0
 37 30  1  0
  1 41  1  0
  1 42  1  0
  1 43  1  0
  2 44  1  0
  2 45  1  0
  4 46  1  0
  4 47  1  0
  5 48  1  0
  5 49  1  0
  5 50  1  0
  6 51  1  0
  6 52  1  0
  7 53  1  0
  7 54  1  0
  8 55  1  0
 11 56  1  0
 12 57  1  0
 13 58  1  0
 14 59  1  0
 17 60  1  0
 17 61  1  0
 17 62  1  0
 19 63  1  0
 20 64  1  0
 23 65  1  0
 23 66  1  0
 24 67  1  0
 25 68  1  0
 25 69  1  0
 26 70  1  0
 26 71  1  0
 28 72  1  0
 28 73  1  0
 28 74  1  0
 29 75  1  0
 29 76  1  0
 29 77  1  0
 31 78  1  0
 32 79  1  0
 35 80  1  0
 35 81  1  0
 35 82  1  0
 36 83  1  0
M  CHG  1  16   1
M  END
>  <smiles>  (31) 
CCN(CC)CCNc1c2ccccc2[n+](C)c2ccc3c(CNCCN(C)C)c4ccc(OC)cc4nc3c12

>  <score_type>  (31) 
oracle

>  <origin>  (31) 
adg

>  <m_score__min__energy>  (31) 
-7.9100000000000001

>  <m_primary>  (31) 
energy

$$$$
32:0
     RDKit          3D

 68 70  0  0  0  0  0  0  0  0999 V2000
   58.3790   32.8690   52.1390 C   0  0  0  0  0  0  0  0  0  0  0  0
   59.3970   31.7990   51.9030 C   0  0  0  0  0  0  0  0  0  0  0  0
   58.9890   30.9000   50.8100 N   0  0  0  0  0  0  0  0  0  0  0  0
   58.3580   29.7230   51.4190 C   0  0  0  0  0  0  0  0  0  0  0  0
   60.2000   30.4730   50.1830 C   0  0  0  0  0  0  0  0  0  0  0  0
   60.1360   30.4060   48.6660 C   0  0  0  0  0  0  0  0  0  0  0  0
   58.7800   30.7820   48.2540 N   0  0  0  0  0  0  0  0  0  0  0  0
   58.6330   31.3320   46.9770 C   0  0  0  0  0  0  0  0  0  0  0  0
   58.2250   30.4280   45.9800 C   0  0  0  0  0  0  0  0  0  0  0  0
   57.9740   29.1140   46.3070 C   0  0  0  0  0  0  0  0  0  0  0  0
   57.5740   28.1530   45.4060 C   0  0  0  0  0  0  0  0  0  0  0  0
   57.4190   28.5410   44.0970 C   0  0  0  0  0  0  0  0  0  0  0  0
   57.6670   29.8560   43.7480 C   0  0  0  0  0  0  0  0  0  0  0  0
   58.0690   30.8100   44.6750 C   0  0  0  0  0  0  0  0  0  0  0  0
   58.3070   32.0970   44.2930 N   0  0  0  0  0  0  0  0  0  0  0  0
   58.0970   32.3750   42.8990 C   0  0  0  0  0  0  0  0  0  0  0  0
   58.6940   32.9670   45.2220 C   0  0  0  0  0  0  0  0  0  0  0  0
   58.9460   34.2620   44.8120 C   0  0  0  0  0  0  0  0  0  0  0  0
   59.3550   35.1780   45.7300 C   0  0  0  0  0  0  0  0  0  0  0  0
   59.5120   34.8220   47.0400 C   0  0  0  0  0  0  0  0  0  0  0  0
   59.2710   33.5210   47.5120 C   0  0  0  0  0  0  0  0  0  0  0  0
   59.3950   33.3150   48.8920 N   0  0  0  0  0  0  0  0  0  0  0  0
   60.3100   34.2270   49.6370 C   0  0  0  0  0  0  0  0  0  0  0  0
   61.5410   33.5250   50.1100 C   0  0  0  0  0  0  0  0  0  0  0  0
   62.7460   34.2710   49.6170 C   0  0  0  0  0  0  0  0  0  0  0  0
   63.5920   33.4180   48.7310 C   0  0  0  0  0  0  0  0  0  0  0  0
   62.8950   33.0410   47.5040 N   0  0  0  0  0  0  0  0  0  0  0  0
   63.3520   33.8430   46.3850 C   0  0  0  0  0  0  0  0  0  0  0  0
   63.1470   31.6360   47.1900 C   0  0  0  0  0  0  0  0  0  0  0  0
   58.8660   32.6160   46.5770 C   0  0  0  0  0  0  0  0  0  0  0  0
   58.2422   33.0128   53.2210 H   0  0  0  0  0  0  0  0  0  0  0  0
   58.7237   33.8097   51.6848 H   0  0  0  0  0  0  0  0  0  0  0  0
   57.4223   32.5715   51.6848 H   0  0  0  0  0  0  0  0  0  0  0  0
   60.3561   32.2693   51.6403 H   0  0  0  0  0  0  0  0  0  0  0  0
   59.4929   31.2037   52.8230 H   0  0  0  0  0  0  0  0  0  0  0  0
   58.4037   29.8082   52.5147 H   0  0  0  0  0  0  0  0  0  0  0  0
   57.3071   29.6637   51.0993 H   0  0  0  0  0  0  0  0  0  0  0  0
   58.8903   28.8150   51.0993 H   0  0  0  0  0  0  0  0  0  0  0  0
   60.9979   31.1768   50.4622 H   0  0  0  0  0  0  0  0  0  0  0  0
   60.3883   29.4474   50.5333 H   0  0  0  0  0  0  0  0  0  0  0  0
   60.8659   31.1041   48.2301 H   0  0  0  0  0  0  0  0  0  0  0  0
   60.3741   29.3902   48.3174 H   0  0  0  0  0  0  0  0  0  0  0  0
   57.9430   30.6070   48.8930 H   0  0  0  0  0  0  0  0  0  0  0  0
   58.1015   28.8125   47.3571 H   0  0  0  0  0  0  0  0  0  0  0  0
   57.3860   27.1161   45.7214 H   0  0  0  0  0  0  0  0  0  0  0  0
   57.1012   27.8138   43.3353 H   0  0  0  0  0  0  0  0  0  0  0  0
   57.5414   30.1580   42.6977 H   0  0  0  0  0  0  0  0  0  0  0  0
   57.4370   33.2488   42.7947 H   0  0  0  0  0  0  0  0  0  0  0  0
   59.0633   32.5859   42.4175 H   0  0  0  0  0  0  0  0  0  0  0  0
   57.6300   31.5032   42.4175 H   0  0  0  0  0  0  0  0  0  0  0  0
   58.8176   34.5481   43.7577 H   0  0  0  0  0  0  0  0  0  0  0  0
   59.5608   36.2120   45.4162 H   0  0  0  0  0  0  0  0  0  0  0  0
   59.8418   35.5884   47.7569 H   0  0  0  0  0  0  0  0  0  0  0  0
   58.9460   32.6520   49.5230 H   0  0  0  0  0  0  0  0  0  0  0  0
   60.6056   35.0527   48.9730 H   0  0  0  0  0  0  0  0  0  0  0  0
   59.7714   34.5988   50.5211 H   0  0  0  0  0  0  0  0  0  0  0  0
   61.5496   33.4952   51.2096 H   0  0  0  0  0  0  0  0  0  0  0  0
   61.5554   32.4958   49.7219 H   0  0  0  0  0  0  0  0  0  0  0  0
   62.4133   35.1540   49.0516 H   0  0  0  0  0  0  0  0  0  0  0  0
   63.3485   34.5683   50.4880 H   0  0  0  0  0  0  0  0  0  0  0  0
   64.5020   33.9758   48.4651 H   0  0  0  0  0  0  0  0  0  0  0  0
   63.8354   32.4962   49.2796 H   0  0  0  0  0  0  0  0  0  0  0  0
   63.8636   34.7408   46.7621 H   0  0  0  0  0  0  0  0  0  0  0  0
   64.0498   33.2535   45.7722 H   0  0  0  0  0  0  0  0  0  0  0  0
   62.4891   34.1428   45.7722 H   0  0  0  0  0  0  0  0  0  0  0  0
   63.2496   31.0642   48.1241 H   0  0  0  0  0  0  0  0  0  0  0  0
   62.3065   31.2346   46.6048 H   0  0  0  0  0  0  0  0  0  0  0  0
   64.0746   31.5517   46.6048 H   0  0  0  0  0  0  0  0  0  0  0  0
  1  2  1  0
  2  3  1  0
  3  4  1  0
  3  5  1  0
  5  6  1  0
  6  7  1  0
  7  8  1  0
  8  9  2  0
  9 10  1  0
 10 11  2  0
 11 12  1  0
 12 13  2  0
 13 14  1  0
 14 15  2  0
 15 16  1  0
 15 17  1  0
 17 18  2  0
 18 19  1  0
 19 20  2  0
 20 21  1  0
 21 22  1  0
 22 23  1  0
 23 24  1  0
 24 25  1  0
 25 26  1  0
 26 27  1  0
 27 28  1  0
 27 29  1  0
 21 30  2  0
 30  8  1  0
 14  9  1  0
 30 17  1  0
  1 31  1  0
  1 32  1  0
  1 33  1  0
  2 34  1  0
  2 35  1  0
  4 36  1  0
  4 37  1  0
  4 38  1  0
  5 39  1  0
  5 40  1  0
  6 41  1  0
  6 42  1  0
  7 43  1  0
 10 44  1  0
 11 45  1  0
 12 46  1  0
 13 47  1  0
 16 48  1  0
 16 49  1  0
 16 50  1  0
 18 51  1  0
 19 52  1  0
 20 53  1  0
 22 54  1  0
 23 55  1  0
 23 56  1  0
 24 57  1  0
 24 58  1  0
 25 59  1  0
 25 60  1  0
 26 61  1  0
 26 62  1  0
 28 63  1  0
 28 64  1  0
 28 65  1  0
 29 66  1  0
 29 67  1  0
 29 68  1  0
M  CHG  1  15   1
M  END
>  <smiles>  (32) 
CCN(C)CCNc1c2ccccc2[n+](C)c2cccc(NCCCCN(C)C)c12

>  <score_type>  (32) 
oracle

>  <origin>  (32) 
adg

>  <m_score__min__energy>  (32) 
-5.5300000000000002

>  <m_primary>  (32) 
energy

$$$$
33:0
     RDKit          3D

 64 67  0  0  0  0  0  0  0  0999 V2000
   61.2640   30.8860   51.0480 C   0  0  0  0  0  0  0  0  0  0  0  0
   59.9870   31.4830   50.7180 N   0  0  0  0  0  0  0  0  0  0  0  0
   59.7320   32.6110   51.5660 C   0  0  0  0  0  0  0  0  0  0  0  0
   58.9190   30.5290   50.6630 C   0  0  0  0  0  0  0  0  0  0  0  0
   58.8050   29.9820   49.2770 C   0  0  0  0  0  0  0  0  0  0  0  0
   59.6350   30.7400   48.3070 N   0  0  0  0  0  0  0  0  0  0  0  0
   59.0750   30.8580   47.0140 C   0  0  0  0  0  0  0  0  0  0  0  0
   59.1040   29.6820   46.2590 C   0  0  0  0  0  0  0  0  0  0  0  0
   59.6960   28.5380   46.7960 C   0  0  0  0  0  0  0  0  0  0  0  0
   59.7700   27.3450   46.1290 C   0  0  0  0  0  0  0  0  0  0  0  0
   59.2400   27.2670   44.8770 C   0  0  0  0  0  0  0  0  0  0  0  0
   58.6440   28.3970   44.3220 C   0  0  0  0  0  0  0  0  0  0  0  0
   58.5720   29.5970   44.9960 C   0  0  0  0  0  0  0  0  0  0  0  0
   58.0100   30.6740   44.4740 N   0  0  0  0  0  0  0  0  0  0  0  0
   57.4250   30.6830   43.1510 C   0  0  0  0  0  0  0  0  0  0  0  0
   57.9630   31.8300   45.1690 C   0  0  0  0  0  0  0  0  0  0  0  0
   57.3570   32.9160   44.5540 C   0  0  0  0  0  0  0  0  0  0  0  0
   57.3000   34.1010   45.2420 C   0  0  0  0  0  0  0  0  0  0  0  0
   57.8360   34.1960   46.5090 C   0  0  0  0  0  0  0  0  0  0  0  0
   58.4510   33.1350   47.1590 C   0  0  0  0  0  0  0  0  0  0  0  0
   58.9980   33.3520   48.4350 N   0  0  0  0  0  0  0  0  0  0  0  0
   59.7210   34.6210   48.7060 C   0  0  0  0  0  0  0  0  0  0  0  0
   61.1300   34.2380   48.9730 C   0  0  0  0  0  0  0  0  0  0  0  0
   61.5790   33.0520   48.2400 N   0  0  0  0  0  0  0  0  0  0  0  0
   62.8350   32.6830   48.8600 C   0  0  0  0  0  0  0  0  0  0  0  0
   63.7650   31.9630   47.9280 C   0  0  0  0  0  0  0  0  0  0  0  0
   63.9740   32.6380   46.7350 O   0  0  0  0  0  0  0  0  0  0  0  0
   63.1760   33.7690   46.6170 C   0  0  0  0  0  0  0  0  0  0  0  0
   61.7350   33.2970   46.8220 C   0  0  0  0  0  0  0  0  0  0  0  0
   58.4970   31.9490   46.4580 C   0  0  0  0  0  0  0  0  0  0  0  0
   61.3733   30.8349   52.1414 H   0  0  0  0  0  0  0  0  0  0  0  0
   61.3141   29.8711   50.6267 H   0  0  0  0  0  0  0  0  0  0  0  0
   62.0749   31.4984   50.6267 H   0  0  0  0  0  0  0  0  0  0  0  0
   59.8020   32.3012   52.6192 H   0  0  0  0  0  0  0  0  0  0  0  0
   60.4752   33.3965   51.3647 H   0  0  0  0  0  0  0  0  0  0  0  0
   58.7231   33.0005   51.3647 H   0  0  0  0  0  0  0  0  0  0  0  0
   59.1257   29.7075   51.3647 H   0  0  0  0  0  0  0  0  0  0  0  0
   57.9752   31.0216   50.9397 H   0  0  0  0  0  0  0  0  0  0  0  0
   59.1346   28.9325   49.2817 H   0  0  0  0  0  0  0  0  0  0  0  0
   57.7541   30.0691   48.9640 H   0  0  0  0  0  0  0  0  0  0  0  0
   60.5760   31.1160   48.5820 H   0  0  0  0  0  0  0  0  0  0  0  0
   60.1251   28.5981   47.8071 H   0  0  0  0  0  0  0  0  0  0  0  0
   60.2467   26.4693   46.5937 H   0  0  0  0  0  0  0  0  0  0  0  0
   59.2820   26.3243   44.3116 H   0  0  0  0  0  0  0  0  0  0  0  0
   58.2160   28.3293   43.3109 H   0  0  0  0  0  0  0  0  0  0  0  0
   56.3283   30.6999   43.2351 H   0  0  0  0  0  0  0  0  0  0  0  0
   57.7647   31.5760   42.6059 H   0  0  0  0  0  0  0  0  0  0  0  0
   57.7371   29.7799   42.6059 H   0  0  0  0  0  0  0  0  0  0  0  0
   56.9339   32.8290   43.5424 H   0  0  0  0  0  0  0  0  0  0  0  0
   56.8247   34.9795   44.7812 H   0  0  0  0  0  0  0  0  0  0  0  0
   57.7729   35.1621   47.0312 H   0  0  0  0  0  0  0  0  0  0  0  0
   59.0120   32.7470   49.2600 H   0  0  0  0  0  0  0  0  0  0  0  0
   59.6647   35.2874   47.8326 H   0  0  0  0  0  0  0  0  0  0  0  0
   59.2816   35.1621   49.5569 H   0  0  0  0  0  0  0  0  0  0  0  0
   61.7763   35.0825   48.6918 H   0  0  0  0  0  0  0  0  0  0  0  0
   61.1931   33.9910   50.0430 H   0  0  0  0  0  0  0  0  0  0  0  0
   63.3329   33.5982   49.2128 H   0  0  0  0  0  0  0  0  0  0  0  0
   62.6022   31.9947   49.6859 H   0  0  0  0  0  0  0  0  0  0  0  0
   64.7345   31.8349   48.4316 H   0  0  0  0  0  0  0  0  0  0  0  0
   63.2973   30.9987   47.6802 H   0  0  0  0  0  0  0  0  0  0  0  0
   63.4477   34.5093   47.3839 H   0  0  0  0  0  0  0  0  0  0  0  0
   63.3048   34.2503   45.6363 H   0  0  0  0  0  0  0  0  0  0  0  0
   61.0302   34.0740   46.4911 H   0  0  0  0  0  0  0  0  0  0  0  0
   61.5275   32.3889   46.2369 H   0  0  0  0  0  0  0  0  0  0  0  0
  1  2  1  0
  2  3  1  0
  2  4  1  0
  4  5  1  0
  5  6  1  0
  6  7  1  0
  7  8  2  0
  8  9  1  0
  9 10  2  0
 10 11  1  0
 11 12  2  0
 12 13  1  0
 13 14  2  0
 14 15  1  0
 14 16  1  0
 16 17  2  0
 17 18  1  0
 18 19  2  0
 19 20  1  0
 20 21  1  0
 21 22  1  0
 22 23  1  0
 23 24  1  0
 24 25  1  0
 25 26  1  0
 26 27  1  0
 27 28  1  0
 28 29  1  0
 20 30  2  0
 30  7  1  0
 13  8  1  0
 30 16  1  0
 29 24  1  0
  1 31  1  0
  1 32  1  0
  1 33  1  0
  3 34  1  0
  3 35  1  0
  3 36  1  0
  4 37  1  0
  4 38  1  0
  5 39  1  0
  5 40  1  0
  6 41  1  0
  9 42  1  0
 10 43  1  0
 11 44  1  0
 12 45  1  0
 15 46  1  0
 15 47  1  0
 15 48  1  0
 17 49  1  0
 18 50  1  0
 19 51  1  0
 21 52  1  0
 22 53  1  0
 22 54  1  0
 23 55  1  0
 23 56  1  0
 25 57  1  0
 25 58  1  0
 26 59  1  0
 26 60  1  0
 28 61  1  0
 28 62  1  0
 29 63  1  0
 29 64  1  0
M  CHG  1  14   1
M  END
>  <smiles>  (33) 
CN(C)CCNc1c2ccccc2[n+](C)c2cccc(NCCN3CCOCC3)c12

>  <score_type>  (33) 
oracle

>  <origin>  (33) 
adg

>  <m_score__min__energy>  (33) 
-5.8600000000000003

>  <m_primary>  (33) 
energy

$$$$
34:0
     RDKit          3D

 37 39  0  0  0  0  0  0  0  0999 V2000
   56.7570   24.6910   47.2610 C   0  0  0  0  0  0  0  0  0  0  0  0
   57.2020   25.8960   46.5150 C   0  0  0  0  0  0  0  0  0  0  0  0
   58.5530   26.1970   46.4750 C   0  0  0  0  0  0  0  0  0  0  0  0
   58.9910   27.3380   45.7870 C   0  0  0  0  0  0  0  0  0  0  0  0
   58.0250   28.1040   45.1830 C   0  0  0  0  0  0  0  0  0  0  0  0
   56.6850   27.8110   45.2190 C   0  0  0  0  0  0  0  0  0  0  0  0
   56.2490   26.6790   45.9000 C   0  0  0  0  0  0  0  0  0  0  0  0
   54.8920   26.3510   45.9580 O   0  0  0  0  0  0  0  0  0  0  0  0
   58.4760   29.4150   44.4950 C   0  0  0  0  0  0  0  0  0  0  0  0
   59.5550   29.7630   45.4930 N   0  0  0  0  0  0  0  0  0  0  0  0
   59.2070   30.6850   46.4520 C   0  0  0  0  0  0  0  0  0  0  0  0
   58.7810   30.1780   47.5690 O   0  0  0  0  0  0  0  0  0  0  0  0
   59.2430   32.1220   46.4240 C   0  0  0  0  0  0  0  0  0  0  0  0
   58.1130   32.7870   45.9570 C   0  0  0  0  0  0  0  0  0  0  0  0
   58.0210   34.1730   45.9340 C   0  0  0  0  0  0  0  0  0  0  0  0
   59.0900   34.9290   46.3910 C   0  0  0  0  0  0  0  0  0  0  0  0
   60.2260   34.3060   46.8590 C   0  0  0  0  0  0  0  0  0  0  0  0
   60.2770   32.9110   46.8670 C   0  0  0  0  0  0  0  0  0  0  0  0
   60.7430   28.9950   45.2560 C   0  0  0  0  0  0  0  0  0  0  0  0
   60.4540   27.5750   45.7920 C   0  0  0  0  0  0  0  0  0  0  0  0
   56.8276   24.8821   48.3420 H   0  0  0  0  0  0  0  0  0  0  0  0
   55.7144   24.4604   46.9967 H   0  0  0  0  0  0  0  0  0  0  0  0
   57.3995   23.8381   46.9967 H   0  0  0  0  0  0  0  0  0  0  0  0
   59.2796   25.5440   46.9807 H   0  0  0  0  0  0  0  0  0  0  0  0
   55.9608   28.4664   44.7131 H   0  0  0  0  0  0  0  0  0  0  0  0
   54.3490   26.6960   46.7550 H   0  0  0  0  0  0  0  0  0  0  0  0
   58.8730   29.2476   43.4829 H   0  0  0  0  0  0  0  0  0  0  0  0
   57.7016   30.1745   44.3121 H   0  0  0  0  0  0  0  0  0  0  0  0
   57.2616   32.1934   45.5928 H   0  0  0  0  0  0  0  0  0  0  0  0
   57.1116   34.6646   45.5580 H   0  0  0  0  0  0  0  0  0  0  0  0
   59.0308   36.0273   46.3798 H   0  0  0  0  0  0  0  0  0  0  0  0
   61.0794   34.8984   47.2207 H   0  0  0  0  0  0  0  0  0  0  0  0
   61.1864   32.4211   47.2452 H   0  0  0  0  0  0  0  0  0  0  0  0
   60.9644   28.9581   44.1792 H   0  0  0  0  0  0  0  0  0  0  0  0
   61.6149   29.4419   45.7560 H   0  0  0  0  0  0  0  0  0  0  0  0
   60.9488   26.8319   45.1494 H   0  0  0  0  0  0  0  0  0  0  0  0
   60.8387   27.4832   46.8184 H   0  0  0  0  0  0  0  0  0  0  0  0
  1  2  1  0
  2  3  2  0
  3  4  1  0
  4  5  2  0
  5  6  1  0
  6  7  2  0
  7  8  1  0
  5  9  1  0
  9 10  1  0
 10 11  1  0
 11 12  2  0
 11 13  1  0
 13 14  2  0
 14 15  1  0
 15 16  2  0
 16 17  1  0
 17 18  2  0
 10 19  1  0
 19 20  1  0
  7  2  1  0
 18 13  1  0
 20  4  1  0
  1 21  1  0
  1 22  1  0
  1 23  1  0
  3 24  1  0
  6 25  1  0
  8 26  1  0
  9 27  1  0
  9 28  1  0
 14 29  1  0
 15 30  1  0
 16 31  1  0
 17 32  1  0
 18 33  1  0
 19 34  1  0
 19 35  1  0
 20 36  1  0
 20 37  1  0
M  END
>  <smiles>  (34) 
Cc1cc2c(cc1O)CN(C(=O)c1ccccc1)CC2

>  <score_type>  (34) 
oracle

>  <origin>  (34) 
adg

>  <m_score__min__energy>  (34) 
-8.5299999999999994

>  <m_primary>  (34) 
energy

$$$$
35:0
     RDKit          3D

 52 54  0  0  0  0  0  0  0  0999 V2000
   59.4540   29.9520   46.0260 C   0  0  0  0  0  0  0  0  0  0  0  0
   57.9490   29.8360   45.9370 C   0  0  0  0  0  0  0  0  0  0  0  0
   57.3810   30.9270   45.2930 O   0  0  0  0  0  0  0  0  0  0  0  0
   57.7360   31.0160   43.9510 C   0  0  0  0  0  0  0  0  0  0  0  0
   58.0050   32.4600   43.6090 C   0  0  0  0  0  0  0  0  0  0  0  0
   58.6630   33.1390   44.6130 O   0  0  0  0  0  0  0  0  0  0  0  0
   57.9750   34.2140   45.1100 C   0  0  0  0  0  0  0  0  0  0  0  0
   58.0630   34.2220   46.6860 C   0  0  0  0  0  0  0  0  0  0  0  0
   58.8100   33.0980   47.1150 N   0  0  0  0  0  0  0  0  0  0  0  0
   59.7180   32.8460   48.1360 C   0  0  0  0  0  0  0  0  0  0  0  0
   59.4330   32.3580   49.3840 C   0  0  0  0  0  0  0  0  0  0  0  0
   58.1600   32.0360   49.7400 C   0  0  0  0  0  0  0  0  0  0  0  0
   57.7920   31.5170   50.9690 C   0  0  0  0  0  0  0  0  0  0  0  0
   58.7390   31.2940   51.9260 C   0  0  0  0  0  0  0  0  0  0  0  0
   60.0620   31.6140   51.5990 C   0  0  0  0  0  0  0  0  0  0  0  0
   60.4090   32.1340   50.3620 C   0  0  0  0  0  0  0  0  0  0  0  0
   61.7230   32.4080   50.0950 N   0  0  0  0  0  0  0  0  0  0  0  0
   62.6470   32.2700   51.1740 C   0  0  0  0  0  0  0  0  0  0  0  0
   62.0510   32.8850   48.8700 C   0  0  0  0  0  0  0  0  0  0  0  0
   63.4070   33.1310   48.5850 C   0  0  0  0  0  0  0  0  0  0  0  0
   64.5080   32.8570   49.5000 C   0  0  0  0  0  0  0  0  0  0  0  0
   63.7630   33.6090   47.3130 C   0  0  0  0  0  0  0  0  0  0  0  0
   62.8360   33.8420   46.3440 C   0  0  0  0  0  0  0  0  0  0  0  0
   61.5070   33.5830   46.6620 C   0  0  0  0  0  0  0  0  0  0  0  0
   61.0880   33.1130   47.8880 C   0  0  0  0  0  0  0  0  0  0  0  0
   59.7581   29.9754   47.0829 H   0  0  0  0  0  0  0  0  0  0  0  0
   59.9184   29.0870   45.5299 H   0  0  0  0  0  0  0  0  0  0  0  0
   59.7804   30.8780   45.5299 H   0  0  0  0  0  0  0  0  0  0  0  0
   57.6955   28.9226   45.3790 H   0  0  0  0  0  0  0  0  0  0  0  0
   57.5496   29.7999   46.9613 H   0  0  0  0  0  0  0  0  0  0  0  0
   58.6417   30.4189   43.7687 H   0  0  0  0  0  0  0  0  0  0  0  0
   56.9180   30.6317   43.3239 H   0  0  0  0  0  0  0  0  0  0  0  0
   58.6223   32.4954   42.6992 H   0  0  0  0  0  0  0  0  0  0  0  0
   57.0310   32.9503   43.4644 H   0  0  0  0  0  0  0  0  0  0  0  0
   58.4131   35.1425   44.7149 H   0  0  0  0  0  0  0  0  0  0  0  0
   56.9205   34.1431   44.8052 H   0  0  0  0  0  0  0  0  0  0  0  0
   58.5595   35.1442   47.0224 H   0  0  0  0  0  0  0  0  0  0  0  0
   57.0504   34.1786   47.1135 H   0  0  0  0  0  0  0  0  0  0  0  0
   58.6090   32.2490   46.4760 H   0  0  0  0  0  0  0  0  0  0  0  0
   57.3656   32.2001   48.9970 H   0  0  0  0  0  0  0  0  0  0  0  0
   56.7367   31.2843   51.1744 H   0  0  0  0  0  0  0  0  0  0  0  0
   58.4745   30.8811   52.9107 H   0  0  0  0  0  0  0  0  0  0  0  0
   60.8509   31.4475   52.3473 H   0  0  0  0  0  0  0  0  0  0  0  0
   62.1089   32.3504   52.1301 H   0  0  0  0  0  0  0  0  0  0  0  0
   63.1394   31.2883   51.1118 H   0  0  0  0  0  0  0  0  0  0  0  0
   63.4048   33.0649   51.1118 H   0  0  0  0  0  0  0  0  0  0  0  0
   64.1532   32.9453   50.5375 H   0  0  0  0  0  0  0  0  0  0  0  0
   64.8840   31.8379   49.3265 H   0  0  0  0  0  0  0  0  0  0  0  0
   65.3178   33.5810   49.3265 H   0  0  0  0  0  0  0  0  0  0  0  0
   64.8236   33.8009   47.0933 H   0  0  0  0  0  0  0  0  0  0  0  0
   63.1255   34.2190   45.3520 H   0  0  0  0  0  0  0  0  0  0  0  0
   60.7453   33.7640   45.8893 H   0  0  0  0  0  0  0  0  0  0  0  0
  1  2  1  0
  2  3  1  0
  3  4  1  0
  4  5  1  0
  5  6  1  0
  6  7  1  0
  7  8  1  0
  8  9  1  0
  9 10  1  0
 10 11  2  0
 11 12  1  0
 12 13  2  0
 13 14  1  0
 14 15  2  0
 15 16  1  0
 16 17  2  0
 17 18  1  0
 17 19  1  0
 19 20  2  0
 20 21  1  0
 20 22  1  0
 22 23  2  0
 23 24  1  0
 24 25  2  0
 25 10  1  0
 16 11  1  0
 25 19  1  0
  1 26  1  0
  1 27  1  0
  1 28  1  0
  2 29  1  0
  2 30  1  0
  4 31  1  0
  4 32  1  0
  5 33  1  0
  5 34  1  0
  7 35  1  0
  7 36  1  0
  8 37  1  0
  8 38  1  0
  9 39  1  0
 12 40  1  0
 13 41  1  0
 14 42  1  0
 15 43  1  0
 18 44  1  0
 18 45  1  0
 18 46  1  0
 21 47  1  0
 21 48  1  0
 21 49  1  0
 22 50  1  0
 23 51  1  0
 24 52  1  0
M  CHG  1  17   1
M  END
>  <smiles>  (35) 
CCOCCOCCNc1c2ccccc2[n+](C)c2c(C)cccc12

>  <score_type>  (35) 
oracle

>  <origin>  (35) 
adg

>  <m_score__min__energy>  (35) 
-5.2599999999999998

>  <m_primary>  (35) 
energy

$$$$
