0:0
     RDKit          3D

 69 72  0  0  0  0  0  0  0  0999 V2000
   58.6410   34.1680   52.6120 C   0  0  0  0  0  0  0  0  0  0  0  0
   57.4960   33.1840   52.3620 C   0  0  0  0  0  0  0  0  0  0  0  0
   57.7770   32.3420   51.1850 N   0  0  0  0  0  0  0  0  0  0  0  0
   57.5680   30.9050   51.4540 C   0  0  0  0  0  0  0  0  0  0  0  0
   58.4850   29.9830   50.6350 C   0  0  0  0  0  0  0  0  0  0  0  0
   59.3270   30.7330   49.7010 N   0  0  0  0  0  0  0  0  0  0  0  0
   59.2710   30.4650   48.2890 C   0  0  0  0  0  0  0  0  0  0  0  0
   59.6200   29.1850   47.8170 C   0  0  0  0  0  0  0  0  0  0  0  0
   60.1860   28.2230   48.6820 C   0  0  0  0  0  0  0  0  0  0  0  0
   60.4530   26.9300   48.2380 C   0  0  0  0  0  0  0  0  0  0  0  0
   60.1570   26.5680   46.9310 C   0  0  0  0  0  0  0  0  0  0  0  0
   59.6270   27.5090   46.0480 C   0  0  0  0  0  0  0  0  0  0  0  0
   59.3850   28.8470   46.4590 C   0  0  0  0  0  0  0  0  0  0  0  0
   58.9070   29.8000   45.5800 N   0  0  0  0  0  0  0  0  0  0  0  0
   58.9200   29.5250   44.1240 C   0  0  0  0  0  0  0  0  0  0  0  0
   58.4680   31.0250   46.0500 C   0  0  0  0  0  0  0  0  0  0  0  0
   57.7490   31.9150   45.2150 C   0  0  0  0  0  0  0  0  0  0  0  0
   57.4200   33.1920   45.6430 C   0  0  0  0  0  0  0  0  0  0  0  0
   57.8040   33.6260   46.9020 C   0  0  0  0  0  0  0  0  0  0  0  0
   58.4640   32.7640   47.7890 C   0  0  0  0  0  0  0  0  0  0  0  0
   58.8920   33.2410   49.0410 O   0  0  0  0  0  0  0  0  0  0  0  0
   59.9480   34.1860   49.2330 C   0  0  0  0  0  0  0  0  0  0  0  0
   61.1680   33.9710   48.2950 C   0  0  0  0  0  0  0  0  0  0  0  0
   62.4560   33.5120   48.9280 N   0  0  0  0  0  0  0  0  0  0  0  0
   62.6160   34.1150   50.2780 C   0  0  0  0  0  0  0  0  0  0  0  0
   63.6500   33.8630   48.0980 C   0  0  0  0  0  0  0  0  0  0  0  0
   63.7740   33.0330   46.8050 C   0  0  0  0  0  0  0  0  0  0  0  0
   63.7410   31.6000   47.1010 N   0  0  0  0  0  0  0  0  0  0  0  0
   62.5010   31.2570   47.7950 C   0  0  0  0  0  0  0  0  0  0  0  0
   62.4180   32.0300   49.1190 C   0  0  0  0  0  0  0  0  0  0  0  0
   58.7240   31.4180   47.3950 C   0  0  0  0  0  0  0  0  0  0  0  0
   58.7868   34.2933   53.6951 H   0  0  0  0  0  0  0  0  0  0  0  0
   59.5650   33.7778   52.1603 H   0  0  0  0  0  0  0  0  0  0  0  0
   58.3942   35.1402   52.1603 H   0  0  0  0  0  0  0  0  0  0  0  0
   57.3746   32.5400   53.2454 H   0  0  0  0  0  0  0  0  0  0  0  0
   56.5747   33.7552   52.1751 H   0  0  0  0  0  0  0  0  0  0  0  0
   58.7840   32.4620   50.9190 H   0  0  0  0  0  0  0  0  0  0  0  0
   57.1860   32.6550   50.3810 H   0  0  0  0  0  0  0  0  0  0  0  0
   57.7551   30.7209   52.5222 H   0  0  0  0  0  0  0  0  0  0  0  0
   56.5336   30.6707   51.1624 H   0  0  0  0  0  0  0  0  0  0  0  0
   59.1328   29.4227   51.3253 H   0  0  0  0  0  0  0  0  0  0  0  0
   57.8476   29.3056   50.0478 H   0  0  0  0  0  0  0  0  0  0  0  0
   60.1110   31.3150   50.0740 H   0  0  0  0  0  0  0  0  0  0  0  0
   60.4193   28.4986   49.7210 H   0  0  0  0  0  0  0  0  0  0  0  0
   60.8990   26.1948   48.9240 H   0  0  0  0  0  0  0  0  0  0  0  0
   60.3406   25.5380   46.5912 H   0  0  0  0  0  0  0  0  0  0  0  0
   59.3925   27.2097   45.0158 H   0  0  0  0  0  0  0  0  0  0  0  0
   58.9713   28.4391   43.9564 H   0  0  0  0  0  0  0  0  0  0  0  0
   58.0020   29.9235   43.6674 H   0  0  0  0  0  0  0  0  0  0  0  0
   59.7963   30.0083   43.6674 H   0  0  0  0  0  0  0  0  0  0  0  0
   57.4464   31.5873   44.2095 H   0  0  0  0  0  0  0  0  0  0  0  0
   56.8524   33.8628   44.9813 H   0  0  0  0  0  0  0  0  0  0  0  0
   57.5882   34.6600   47.2092 H   0  0  0  0  0  0  0  0  0  0  0  0
   59.5467   35.1942   49.0527 H   0  0  0  0  0  0  0  0  0  0  0  0
   60.3112   34.0520   50.2626 H   0  0  0  0  0  0  0  0  0  0  0  0
   60.8807   33.2171   47.5473 H   0  0  0  0  0  0  0  0  0  0  0  0
   61.3926   34.9694   47.8917 H   0  0  0  0  0  0  0  0  0  0  0  0
   62.4140   33.3537   51.0459 H   0  0  0  0  0  0  0  0  0  0  0  0
   63.6443   34.4883   50.3933 H   0  0  0  0  0  0  0  0  0  0  0  0
   61.9081   34.9490   50.3933 H   0  0  0  0  0  0  0  0  0  0  0  0
   63.5808   34.9258   47.8227 H   0  0  0  0  0  0  0  0  0  0  0  0
   64.5394   33.6430   48.7067 H   0  0  0  0  0  0  0  0  0  0  0  0
   62.9377   33.2821   46.1352 H   0  0  0  0  0  0  0  0  0  0  0  0
   64.7343   33.2713   46.3243 H   0  0  0  0  0  0  0  0  0  0  0  0
   63.7560   31.0830   46.1910 H   0  0  0  0  0  0  0  0  0  0  0  0
   61.6419   31.5232   47.1617 H   0  0  0  0  0  0  0  0  0  0  0  0
   62.4865   30.1768   48.0023 H   0  0  0  0  0  0  0  0  0  0  0  0
   61.4767   31.7646   49.6225 H   0  0  0  0  0  0  0  0  0  0  0  0
   63.2955   31.7511   49.7208 H   0  0  0  0  0  0  0  0  0  0  0  0
  1  2  1  0
  2  3  1  0
  3  4  1  0
  4  5  1  0
  5  6  1  0
  6  7  1  0
  7  8  2  0
  8  9  1  0
  9 10  2  0
 10 11  1  0
 11 12  2  0
 12 13  1  0
 13 14  2  0
 14 15  1  0
 14 16  1  0
 16 17  2  0
 17 18  1  0
 18 19  2  0
 19 20  1  0
 20 21  1  0
 21 22  1  0
 22 23  1  0
 23 24  1  0
 24 25  1  0
 24 26  1  0
 26 27  1  0
 27 28  1  0
 28 29  1  0
 29 30  1  0
 20 31  2  0
 31  7  1  0
 13  8  1  0
 31 16  1  0
 30 24  1  0
  1 32  1  0
  1 33  1  0
  1 34  1  0
  2 35  1  0
  2 36  1  0
  3 37  1  0
  3 38  1  0
  4 39  1  0
  4 40  1  0
  5 41  1  0
  5 42  1  0
  6 43  1  0
  9 44  1  0
 10 45  1  0
 11 46  1  0
 12 47  1  0
 15 48  1  0
 15 49  1  0
 15 50  1  0
 17 51  1  0
 18 52  1  0
 19 53  1  0
 22 54  1  0
 22 55  1  0
 23 56  1  0
 23 57  1  0
 25 58  1  0
 25 59  1  0
 25 60  1  0
 26 61  1  0
 26 62  1  0
 27 63  1  0
 27 64  1  0
 28 65  1  0
 29 66  1  0
 29 67  1  0
 30 68  1  0
 30 69  1  0
M  CHG  3   3   1  14   1  24   1
M  END
>  <UniqueID>  (1) 
1

>  <SMILES>  (1) 
CC[NH2+]CCNc1c2ccccc2[n+](C)c2cccc(OCC[N+]3(C)CCNCC3)c12

>  <Energy>  (1) 
112.6975456219274

>  <Genealogy>  (1) 
CC[NH2+]CCNc1c2ccccc2[n+](C)c2cccc(OCC[N+]3(C)CCNCC3)c12 (protonated)
CC[NH2+]CCNc1c2ccccc2[n+](C)c2cccc(OCC[N+]3(C)CCNCC3)c12 (3D coordinates assigned)
CC[NH2+]CCNc1c2ccccc2[n+](C)c2cccc(OCC[N+]3(C)CCNCC3)c12 (nonaromatic ring conformer: 112.6975456219274 kcal/mol)

>  <smiles>  (1) 
CCNCCNc1c2ccccc2[n+](C)c2cccc(OCC[N+]3(C)CCNCC3)c12

>  <score_type>  (1) 
oracle

>  <origin>  (1) 
adg

>  <m_score__min__energy>  (1) 
-3.21

>  <m_primary>  (1) 
energy

$$$$
1:0
     RDKit          3D

 56 58  0  0  0  0  0  0  0  0999 V2000
   58.1540   26.7960   42.5700 C   0  0  0  0  0  0  0  0  0  0  0  0
   58.4650   27.3700   43.9570 C   0  0  0  0  0  0  0  0  0  0  0  0
   57.2670   27.7540   44.7360 N   0  0  0  0  0  0  0  0  0  0  0  0
   57.4300   27.5550   46.1890 C   0  0  0  0  0  0  0  0  0  0  0  0
   58.8470   27.0950   46.5170 C   0  0  0  0  0  0  0  0  0  0  0  0
   56.6420   29.3410   44.3060 S   0  0  0  0  0  0  0  0  0  0  0  0
   55.2480   29.4770   44.8480 O   0  0  0  0  0  0  0  0  0  0  0  0
   56.5540   29.4560   42.8080 O   0  0  0  0  0  0  0  0  0  0  0  0
   57.6100   30.6900   44.9240 C   0  0  0  0  0  0  0  0  0  0  0  0
   57.1270   31.9980   44.8570 C   0  0  0  0  0  0  0  0  0  0  0  0
   57.8840   33.0620   45.3510 C   0  0  0  0  0  0  0  0  0  0  0  0
   59.1510   32.8450   45.9420 C   0  0  0  0  0  0  0  0  0  0  0  0
   59.6170   31.5060   46.0520 C   0  0  0  0  0  0  0  0  0  0  0  0
   58.8370   30.4460   45.5520 C   0  0  0  0  0  0  0  0  0  0  0  0
   60.8540   31.2560   46.6710 C   0  0  0  0  0  0  0  0  0  0  0  0
   61.2610   30.0700   46.8250 O   0  0  0  0  0  0  0  0  0  0  0  0
   61.6250   32.3260   47.1450 C   0  0  0  0  0  0  0  0  0  0  0  0
   62.9370   32.1110   47.7990 C   0  0  0  0  0  0  0  0  0  0  0  0
   63.7490   31.2990   47.2770 O   0  0  0  0  0  0  0  0  0  0  0  0
   63.2920   32.7770   49.0290 N   0  0  0  0  0  0  0  0  0  0  0  0
   62.2770   33.1620   50.0150 C   0  0  0  0  0  0  0  0  0  0  0  0
   62.7940   32.8530   51.4230 C   0  0  0  0  0  0  0  0  0  0  0  0
   64.0660   33.4420   51.6300 O   0  0  0  0  0  0  0  0  0  0  0  0
   65.0160   32.8540   50.7620 C   0  0  0  0  0  0  0  0  0  0  0  0
   64.6810   33.1570   49.3000 C   0  0  0  0  0  0  0  0  0  0  0  0
   61.1250   33.6260   47.0270 C   0  0  0  0  0  0  0  0  0  0  0  0
   59.9250   33.8840   46.4210 N   0  0  0  0  0  0  0  0  0  0  0  0
   59.5040   35.2970   46.3450 C   0  0  0  0  0  0  0  0  0  0  0  0
   59.2920   35.7200   44.8930 C   0  0  0  0  0  0  0  0  0  0  0  0
   57.6326   25.8337   42.6799 H   0  0  0  0  0  0  0  0  0  0  0  0
   57.5134   27.4991   42.0174 H   0  0  0  0  0  0  0  0  0  0  0  0
   59.0928   26.6434   42.0174 H   0  0  0  0  0  0  0  0  0  0  0  0
   59.0195   26.6109   44.5283 H   0  0  0  0  0  0  0  0  0  0  0  0
   59.0461   28.2900   43.7958 H   0  0  0  0  0  0  0  0  0  0  0  0
   57.2298   28.5041   46.7077 H   0  0  0  0  0  0  0  0  0  0  0  0
   56.7223   26.7809   46.5205 H   0  0  0  0  0  0  0  0  0  0  0  0
   58.9755   27.0533   47.6087 H   0  0  0  0  0  0  0  0  0  0  0  0
   59.0163   26.0957   46.0894 H   0  0  0  0  0  0  0  0  0  0  0  0
   59.5710   27.8043   46.0894 H   0  0  0  0  0  0  0  0  0  0  0  0
   56.1405   32.1922   44.4107 H   0  0  0  0  0  0  0  0  0  0  0  0
   57.4888   34.0861   45.2795 H   0  0  0  0  0  0  0  0  0  0  0  0
   59.1967   29.4117   45.6563 H   0  0  0  0  0  0  0  0  0  0  0  0
   62.0703   34.2389   49.9279 H   0  0  0  0  0  0  0  0  0  0  0  0
   61.3518   32.5963   49.8305 H   0  0  0  0  0  0  0  0  0  0  0  0
   62.0859   33.2532   52.1636 H   0  0  0  0  0  0  0  0  0  0  0  0
   62.8869   31.7626   51.5342 H   0  0  0  0  0  0  0  0  0  0  0  0
   66.0132   33.2563   50.9938 H   0  0  0  0  0  0  0  0  0  0  0  0
   64.9980   31.7639   50.9080 H   0  0  0  0  0  0  0  0  0  0  0  0
   64.8109   34.2325   49.1092 H   0  0  0  0  0  0  0  0  0  0  0  0
   65.3528   32.5847   48.6434 H   0  0  0  0  0  0  0  0  0  0  0  0
   61.7114   34.4640   47.4319 H   0  0  0  0  0  0  0  0  0  0  0  0
   58.5622   35.4234   46.8991 H   0  0  0  0  0  0  0  0  0  0  0  0
   60.2928   35.9251   46.7846 H   0  0  0  0  0  0  0  0  0  0  0  0
   58.7993   36.7031   44.8657 H   0  0  0  0  0  0  0  0  0  0  0  0
   60.2649   35.7832   44.3837 H   0  0  0  0  0  0  0  0  0  0  0  0
   58.6591   34.9784   44.3837 H   0  0  0  0  0  0  0  0  0  0  0  0
  1  2  1  0
  2  3  1  0
  3  4  1  0
  4  5  1  0
  3  6  1  0
  6  7  2  0
  6  8  2  0
  6  9  1  0
  9 10  2  0
 10 11  1  0
 11 12  2  0
 12 13  1  0
 13 14  2  0
 13 15  1  0
 15 16  2  0
 15 17  1  0
 17 18  1  0
 18 19  2  0
 18 20  1  0
 20 21  1  0
 21 22  1  0
 22 23  1  0
 23 24  1  0
 24 25  1  0
 17 26  2  0
 26 27  1  0
 27 28  1  0
 28 29  1  0
 14  9  1  0
 25 20  1  0
 27 12  1  0
  1 30  1  0
  1 31  1  0
  1 32  1  0
  2 33  1  0
  2 34  1  0
  4 35  1  0
  4 36  1  0
  5 37  1  0
  5 38  1  0
  5 39  1  0
 10 40  1  0
 11 41  1  0
 14 42  1  0
 21 43  1  0
 21 44  1  0
 22 45  1  0
 22 46  1  0
 24 47  1  0
 24 48  1  0
 25 49  1  0
 25 50  1  0
 26 51  1  0
 28 52  1  0
 28 53  1  0
 29 54  1  0
 29 55  1  0
 29 56  1  0
M  END
>  <UniqueID>  (2) 
2

>  <SMILES>  (2) 
CCN(CC)S(=O)(=O)c1ccc2c(c1)c(=O)c(C(=O)N1CCOCC1)cn2CC

>  <Energy>  (2) 
72.79361926994773

>  <Genealogy>  (2) 
CCN(CC)S(=O)(=O)c1ccc2c(c1)c(=O)c(C(=O)N1CCOCC1)cn2CC (3D coordinates assigned)
CCN(CC)S(=O)(=O)c1ccc2c(c1)c(=O)c(C(=O)N1CCOCC1)cn2CC (nonaromatic ring conformer: 72.79361926994773 kcal/mol)

>  <smiles>  (2) 
CCN(CC)S(=O)(=O)c1ccc2c(c1)c(=O)c(C(=O)N1CCOCC1)cn2CC

>  <score_type>  (2) 
oracle

>  <origin>  (2) 
adg

>  <m_score__min__energy>  (2) 
-8.3399999999999999

>  <m_primary>  (2) 
energy

$$$$
2:0
     RDKit          3D

 59 59  0  0  0  0  0  0  0  0999 V2000
   57.9970   31.2850   50.9910 C   0  0  0  0  0  0  0  0  0  0  0  0
   58.5570   30.0980   50.2150 C   0  0  0  0  0  0  0  0  0  0  0  0
   59.0030   30.5190   48.8870 N   0  0  0  0  0  0  0  0  0  0  0  0
   60.3910   30.5280   48.5120 C   0  0  0  0  0  0  0  0  0  0  0  0
   61.2600   30.0800   49.3060 O   0  0  0  0  0  0  0  0  0  0  0  0
   60.8380   31.0770   47.1770 C   0  0  2  0  0  0  0  0  0  0  0  0
   60.8150   32.6170   47.1460 C   0  0  0  0  0  0  0  0  0  0  0  0
   59.5410   33.1420   46.5380 C   0  0  0  0  0  0  0  0  0  0  0  0
   58.3190   32.9950   47.2130 C   0  0  0  0  0  0  0  0  0  0  0  0
   57.1310   33.4620   46.6370 C   0  0  0  0  0  0  0  0  0  0  0  0
   57.1540   34.0680   45.3790 C   0  0  0  0  0  0  0  0  0  0  0  0
   58.3680   34.2140   44.6970 C   0  0  0  0  0  0  0  0  0  0  0  0
   59.5570   33.7520   45.2730 C   0  0  0  0  0  0  0  0  0  0  0  0
   60.0600   30.4880   46.0850 N   0  0  0  0  0  0  0  0  0  0  0  0
   58.8180   29.7840   46.2270 C   0  0  0  0  0  0  0  0  0  0  0  0
   57.7340   30.4190   46.1360 O   0  0  0  0  0  0  0  0  0  0  0  0
   58.8040   28.3020   46.4810 C   0  0  0  0  0  0  0  0  0  0  0  0
   57.4650   27.8270   46.8220 N   0  0  0  0  0  0  0  0  0  0  0  0
   56.7520   26.8300   46.0810 C   0  0  0  0  0  0  0  0  0  0  0  0
   55.5210   26.9640   45.8390 O   0  0  0  0  0  0  0  0  0  0  0  0
   57.4970   25.6370   45.5600 C   0  0  0  0  0  0  0  0  0  0  0  0
   58.5280   26.0300   44.4950 C   0  0  0  0  0  0  0  0  0  0  0  0
   57.8920   26.7990   43.3330 C   0  0  0  0  0  0  0  0  0  0  0  0
   57.5420   28.1700   43.7510 N   0  0  0  0  0  0  0  0  0  0  0  0
   56.9320   28.9250   42.6460 C   0  0  0  0  0  0  0  0  0  0  0  0
   56.6810   30.3840   43.0470 C   0  0  0  0  0  0  0  0  0  0  0  0
   55.6770   30.5370   44.1950 C   0  0  0  0  0  0  0  0  0  0  0  0
   55.4660   29.2580   44.8770 N   0  0  0  0  0  0  0  0  0  0  0  0
   58.0875   31.0931   52.0703 H   0  0  0  0  0  0  0  0  0  0  0  0
   58.5620   32.1924   50.7313 H   0  0  0  0  0  0  0  0  0  0  0  0
   56.9374   31.4259   50.7313 H   0  0  0  0  0  0  0  0  0  0  0  0
   59.4098   29.6750   50.7661 H   0  0  0  0  0  0  0  0  0  0  0  0
   57.7662   29.3418   50.1017 H   0  0  0  0  0  0  0  0  0  0  0  0
   58.2740   30.8040   48.1960 H   0  0  0  0  0  0  0  0  0  0  0  0
   61.8883   30.7849   47.0302 H   0  0  0  0  0  0  0  0  0  0  0  0
   60.9016   32.9958   48.1751 H   0  0  0  0  0  0  0  0  0  0  0  0
   61.6575   32.9606   46.5278 H   0  0  0  0  0  0  0  0  0  0  0  0
   58.2944   32.5102   48.2001 H   0  0  0  0  0  0  0  0  0  0  0  0
   56.1786   33.3514   47.1761 H   0  0  0  0  0  0  0  0  0  0  0  0
   56.2199   34.4300   44.9247 H   0  0  0  0  0  0  0  0  0  0  0  0
   58.3874   34.6926   43.7068 H   0  0  0  0  0  0  0  0  0  0  0  0
   60.5081   33.8672   44.7326 H   0  0  0  0  0  0  0  0  0  0  0  0
   59.1474   27.7813   45.5749 H   0  0  0  0  0  0  0  0  0  0  0  0
   59.4700   28.0925   47.3310 H   0  0  0  0  0  0  0  0  0  0  0  0
   58.0180   25.1491   46.3970 H   0  0  0  0  0  0  0  0  0  0  0  0
   56.7691   24.9551   45.0961 H   0  0  0  0  0  0  0  0  0  0  0  0
   59.2960   26.6642   44.9619 H   0  0  0  0  0  0  0  0  0  0  0  0
   58.9657   25.1056   44.0900 H   0  0  0  0  0  0  0  0  0  0  0  0
   58.6051   26.8464   42.4968 H   0  0  0  0  0  0  0  0  0  0  0  0
   56.9754   26.2774   43.0204 H   0  0  0  0  0  0  0  0  0  0  0  0
   56.8420   28.1080   44.5260 H   0  0  0  0  0  0  0  0  0  0  0  0
   57.6082   28.9020   41.7787 H   0  0  0  0  0  0  0  0  0  0  0  0
   55.9669   28.4602   42.3960 H   0  0  0  0  0  0  0  0  0  0  0  0
   57.6374   30.8291   43.3589 H   0  0  0  0  0  0  0  0  0  0  0  0
   56.2514   30.8917   42.1708 H   0  0  0  0  0  0  0  0  0  0  0  0
   56.0643   31.2709   44.9171 H   0  0  0  0  0  0  0  0  0  0  0  0
   54.7168   30.8773   43.7799 H   0  0  0  0  0  0  0  0  0  0  0  0
   55.4310   28.5090   44.1470 H   0  0  0  0  0  0  0  0  0  0  0  0
   56.3100   29.0540   45.4660 H   0  0  0  0  0  0  0  0  0  0  0  0
  1  2  1  0
  2  3  1  0
  3  4  1  0
  4  5  2  0
  4  6  1  0
  6  7  1  0
  7  8  1  0
  8  9  2  0
  9 10  1  0
 10 11  2  0
 11 12  1  0
 12 13  2  0
  6 14  1  0
 14 15  1  0
 15 16  2  0
 15 17  1  0
 17 18  1  0
 18 19  1  0
 19 20  2  0
 19 21  1  0
 21 22  1  0
 22 23  1  0
 23 24  1  0
 24 25  1  0
 25 26  1  0
 26 27  1  0
 27 28  1  0
 13  8  1  0
  1 29  1  0
  1 30  1  0
  1 31  1  0
  2 32  1  0
  2 33  1  0
  3 34  1  0
  6 35  1  6
  7 36  1  0
  7 37  1  0
  9 38  1  0
 10 39  1  0
 11 40  1  0
 12 41  1  0
 13 42  1  0
 17 43  1  0
 17 44  1  0
 21 45  1  0
 21 46  1  0
 22 47  1  0
 22 48  1  0
 23 49  1  0
 23 50  1  0
 24 51  1  0
 25 52  1  0
 25 53  1  0
 26 54  1  0
 26 55  1  0
 27 56  1  0
 27 57  1  0
 28 58  1  0
 28 59  1  0
M  CHG  2  14  -1  18  -1
M  END
>  <UniqueID>  (3) 
3

>  <SMILES>  (3) 
CCNC(=O)[C@H](Cc1ccccc1)[N-]C(=O)C[N-]C(=O)CCCNCCCN

>  <Energy>  (3) 
45.190965986849136

>  <Genealogy>  (3) 
CCNC(=O)C(Cc1ccccc1)[N-]C(=O)C[N-]C(=O)CCCNCCCN (protonated)
CCNC(=O)[C@H](Cc1ccccc1)[N-]C(=O)C[N-]C(=O)CCCNCCCN (chirality)
CCNC(=O)[C@H](Cc1ccccc1)[N-]C(=O)C[N-]C(=O)CCCNCCCN (3D coordinates assigned)
CCNC(=O)[C@H](Cc1ccccc1)[N-]C(=O)C[N-]C(=O)CCCNCCCN (optimized conformer: 45.190965986849136 kcal/mol)

>  <smiles>  (3) 
CCNC(=O)C(Cc1ccccc1)NC(=O)CNC(=O)CCCNCCCN

>  <score_type>  (3) 
oracle

>  <origin>  (3) 
adg

>  <m_score__min__energy>  (3) 
-9.6500000000000004

>  <m_primary>  (3) 
energy

$$$$
3:0
     RDKit          3D

 51 53  0  0  0  0  0  0  0  0999 V2000
   57.0030   25.8190   46.6030 C   0  0  0  0  0  0  0  0  0  0  0  0
   58.5060   25.6260   46.7960 C   0  0  0  0  0  0  0  0  0  0  0  0
   59.2230   26.9240   46.8650 N   0  0  0  0  0  0  0  0  0  0  0  0
   60.0280   27.0050   48.1080 C   0  0  0  0  0  0  0  0  0  0  0  0
   59.9940   28.4240   48.6730 C   0  0  0  0  0  0  0  0  0  0  0  0
   60.0670   27.1470   45.6620 C   0  0  0  0  0  0  0  0  0  0  0  0
   59.4280   28.1280   44.7620 N   0  0  0  0  0  0  0  0  0  0  0  0
   58.4290   27.4740   43.8820 C   0  0  0  0  0  0  0  0  0  0  0  0
   57.3990   28.4820   43.3650 C   0  0  0  0  0  0  0  0  0  0  0  0
   56.6020   29.0490   44.4760 N   0  0  0  0  0  0  0  0  0  0  0  0
   55.9780   30.3240   44.0700 C   0  0  0  0  0  0  0  0  0  0  0  0
   56.9260   31.4670   44.2880 C   0  0  0  0  0  0  0  0  0  0  0  0
   57.6360   32.0170   43.2090 C   0  0  0  0  0  0  0  0  0  0  0  0
   58.5040   33.0890   43.4300 C   0  0  0  0  0  0  0  0  0  0  0  0
   58.6580   33.6050   44.7230 C   0  0  0  0  0  0  0  0  0  0  0  0
   59.5200   34.6810   44.9800 C   0  0  0  0  0  0  0  0  0  0  0  0
   59.6520   35.1750   46.2820 C   0  0  0  0  0  0  0  0  0  0  0  0
   58.9250   34.5990   47.3300 C   0  0  0  0  0  0  0  0  0  0  0  0
   58.0620   33.5270   47.0810 C   0  0  0  0  0  0  0  0  0  0  0  0
   57.9250   33.0260   45.7830 C   0  0  0  0  0  0  0  0  0  0  0  0
   57.0870   31.9830   45.5370 N   0  0  0  0  0  0  0  0  0  0  0  0
   57.3660   29.1770   45.7450 C   0  0  0  0  0  0  0  0  0  0  0  0
   58.8830   29.2890   45.5110 C   0  0  0  0  0  0  0  0  0  0  0  0
   56.5123   25.8820   47.5855 H   0  0  0  0  0  0  0  0  0  0  0  0
   56.8216   26.7478   46.0423 H   0  0  0  0  0  0  0  0  0  0  0  0
   56.5928   24.9662   46.0423 H   0  0  0  0  0  0  0  0  0  0  0  0
   58.6770   25.0743   47.7322 H   0  0  0  0  0  0  0  0  0  0  0  0
   58.8931   25.0665   45.9317 H   0  0  0  0  0  0  0  0  0  0  0  0
   59.6158   26.3083   48.8528 H   0  0  0  0  0  0  0  0  0  0  0  0
   61.0697   26.7380   47.8765 H   0  0  0  0  0  0  0  0  0  0  0  0
   59.9950   28.3811   49.7722 H   0  0  0  0  0  0  0  0  0  0  0  0
   60.8791   28.9778   48.3268 H   0  0  0  0  0  0  0  0  0  0  0  0
   59.0834   28.9348   48.3268 H   0  0  0  0  0  0  0  0  0  0  0  0
   61.0505   27.5280   45.9743 H   0  0  0  0  0  0  0  0  0  0  0  0
   60.1849   26.1937   45.1261 H   0  0  0  0  0  0  0  0  0  0  0  0
   58.9486   27.0209   43.0248 H   0  0  0  0  0  0  0  0  0  0  0  0
   57.9007   26.7065   44.4667 H   0  0  0  0  0  0  0  0  0  0  0  0
   57.9240   29.2980   42.8469 H   0  0  0  0  0  0  0  0  0  0  0  0
   56.7169   27.9616   42.6766 H   0  0  0  0  0  0  0  0  0  0  0  0
   55.7116   30.2732   43.0040 H   0  0  0  0  0  0  0  0  0  0  0  0
   55.0769   30.4885   44.6791 H   0  0  0  0  0  0  0  0  0  0  0  0
   57.5097   31.6066   42.1963 H   0  0  0  0  0  0  0  0  0  0  0  0
   59.0649   33.5266   42.5910 H   0  0  0  0  0  0  0  0  0  0  0  0
   60.0920   35.1363   44.1581 H   0  0  0  0  0  0  0  0  0  0  0  0
   60.3290   36.0184   46.4827 H   0  0  0  0  0  0  0  0  0  0  0  0
   59.0326   34.9905   48.3523 H   0  0  0  0  0  0  0  0  0  0  0  0
   57.4908   33.0778   47.9068 H   0  0  0  0  0  0  0  0  0  0  0  0
   57.0231   30.0786   46.2738 H   0  0  0  0  0  0  0  0  0  0  0  0
   57.1854   28.2676   46.3370 H   0  0  0  0  0  0  0  0  0  0  0  0
   59.0852   30.2057   44.9376 H   0  0  0  0  0  0  0  0  0  0  0  0
   59.3732   29.3128   46.4955 H   0  0  0  0  0  0  0  0  0  0  0  0
  1  2  1  0
  2  3  1  0
  3  4  1  0
  4  5  1  0
  3  6  1  0
  6  7  1  0
  7  8  1  0
  8  9  1  0
  9 10  1  0
 10 11  1  0
 11 12  1  0
 12 13  2  0
 13 14  1  0
 14 15  2  0
 15 16  1  0
 16 17  2  0
 17 18  1  0
 18 19  2  0
 19 20  1  0
 20 21  2  0
 10 22  1  0
 22 23  1  0
 23  7  1  0
 21 12  1  0
 20 15  1  0
  1 24  1  0
  1 25  1  0
  1 26  1  0
  2 27  1  0
  2 28  1  0
  4 29  1  0
  4 30  1  0
  5 31  1  0
  5 32  1  0
  5 33  1  0
  6 34  1  0
  6 35  1  0
  8 36  1  0
  8 37  1  0
  9 38  1  0
  9 39  1  0
 11 40  1  0
 11 41  1  0
 13 42  1  0
 14 43  1  0
 16 44  1  0
 17 45  1  0
 18 46  1  0
 19 47  1  0
 22 48  1  0
 22 49  1  0
 23 50  1  0
 23 51  1  0
M  END
>  <UniqueID>  (4) 
4

>  <SMILES>  (4) 
CCN(CC)CN1CCN(Cc2ccc3ccccc3n2)CC1

>  <Energy>  (4) 
67.37504774173166

>  <Genealogy>  (4) 
CCN(CC)CN1CCN(Cc2ccc3ccccc3n2)CC1 (3D coordinates assigned)
CCN(CC)CN1CCN(Cc2ccc3ccccc3n2)CC1 (nonaromatic ring conformer: 67.37504774173166 kcal/mol)

>  <smiles>  (4) 
CCN(CC)CN1CCN(Cc2ccc3ccccc3n2)CC1

>  <score_type>  (4) 
oracle

>  <origin>  (4) 
adg

>  <m_score__min__energy>  (4) 
-7.6100000000000003

>  <m_primary>  (4) 
energy

$$$$
4:0
     RDKit          3D

 42 45  0  0  0  0  0  0  0  0999 V2000
   62.9070   30.9690   51.7490 C   0  0  0  0  0  0  0  0  0  0  0  0
   64.1340   30.9210   50.8370 C   0  0  0  0  0  0  0  0  0  0  0  0
   64.1810   32.0980   49.9350 N   0  0  0  0  0  0  0  0  0  0  0  0
   65.5140   32.7340   49.7850 C   0  0  0  0  0  0  0  0  0  0  0  0
   66.5960   31.9320   50.5110 C   0  0  0  0  0  0  0  0  0  0  0  0
   63.0940   32.5690   49.3190 C   0  0  0  0  0  0  0  0  0  0  0  0
   62.6710   33.9260   49.4840 C   0  0  0  0  0  0  0  0  0  0  0  0
   61.5390   34.4440   48.8460 C   0  0  0  0  0  0  0  0  0  0  0  0
   60.7780   33.6370   48.0140 C   0  0  0  0  0  0  0  0  0  0  0  0
   59.6760   34.1050   47.3810 N   0  0  0  0  0  0  0  0  0  0  0  0
   58.9390   33.2990   46.5680 C   0  0  0  0  0  0  0  0  0  0  0  0
   57.8080   33.8100   45.9280 C   0  0  0  0  0  0  0  0  0  0  0  0
   57.0430   32.9970   45.0930 C   0  0  0  0  0  0  0  0  0  0  0  0
   57.3990   31.6560   44.8840 C   0  0  0  0  0  0  0  0  0  0  0  0
   56.6240   30.8430   44.0420 C   0  0  0  0  0  0  0  0  0  0  0  0
   56.9780   29.5090   43.8320 C   0  0  0  0  0  0  0  0  0  0  0  0
   58.1040   28.9740   44.4600 C   0  0  0  0  0  0  0  0  0  0  0  0
   58.8860   29.7700   45.3010 C   0  0  0  0  0  0  0  0  0  0  0  0
   58.5460   31.1190   45.5260 C   0  0  0  0  0  0  0  0  0  0  0  0
   59.3180   31.9450   46.3700 C   0  0  0  0  0  0  0  0  0  0  0  0
   60.4260   31.4580   47.0010 N   0  0  0  0  0  0  0  0  0  0  0  0
   61.1770   32.2400   47.8140 C   0  0  0  0  0  0  0  0  0  0  0  0
   62.3080   31.7440   48.4590 C   0  0  0  0  0  0  0  0  0  0  0  0
   63.2308   30.9563   52.8002 H   0  0  0  0  0  0  0  0  0  0  0  0
   62.3390   31.8901   51.5513 H   0  0  0  0  0  0  0  0  0  0  0  0
   62.2688   30.0951   51.5513 H   0  0  0  0  0  0  0  0  0  0  0  0
   65.0419   30.9089   51.4580 H   0  0  0  0  0  0  0  0  0  0  0  0
   64.0728   30.0125   50.2198 H   0  0  0  0  0  0  0  0  0  0  0  0
   65.7661   32.7903   48.7158 H   0  0  0  0  0  0  0  0  0  0  0  0
   65.4711   33.7401   50.2276 H   0  0  0  0  0  0  0  0  0  0  0  0
   66.4600   32.0328   51.5979 H   0  0  0  0  0  0  0  0  0  0  0  0
   66.5181   30.8717   50.2285 H   0  0  0  0  0  0  0  0  0  0  0  0
   67.5878   32.3148   50.2285 H   0  0  0  0  0  0  0  0  0  0  0  0
   63.2586   34.5873   50.1377 H   0  0  0  0  0  0  0  0  0  0  0  0
   61.2519   35.4939   49.0047 H   0  0  0  0  0  0  0  0  0  0  0  0
   57.5191   34.8599   46.0836 H   0  0  0  0  0  0  0  0  0  0  0  0
   56.1537   33.4099   44.5943 H   0  0  0  0  0  0  0  0  0  0  0  0
   55.7345   31.2585   43.5459 H   0  0  0  0  0  0  0  0  0  0  0  0
   56.3677   28.8775   43.1696 H   0  0  0  0  0  0  0  0  0  0  0  0
   58.3768   27.9217   44.2922 H   0  0  0  0  0  0  0  0  0  0  0  0
   59.7727   29.3409   45.7906 H   0  0  0  0  0  0  0  0  0  0  0  0
   62.6012   30.6954   48.3024 H   0  0  0  0  0  0  0  0  0  0  0  0
  1  2  1  0
  2  3  1  0
  3  4  1  0
  4  5  1  0
  3  6  2  3
  6  7  1  0
  7  8  2  0
  8  9  1  0
  9 10  2  0
 10 11  1  0
 11 12  2  0
 12 13  1  0
 13 14  2  0
 14 15  1  0
 15 16  2  0
 16 17  1  0
 17 18  2  0
 18 19  1  0
 19 20  2  0
 20 21  1  0
 21 22  1  0
 22 23  2  0
 23  6  1  0
 22  9  1  0
 20 11  1  0
 19 14  1  0
  1 24  1  0
  1 25  1  0
  1 26  1  0
  2 27  1  0
  2 28  1  0
  4 29  1  0
  4 30  1  0
  5 31  1  0
  5 32  1  0
  5 33  1  0
  7 34  1  0
  8 35  1  0
 12 36  1  0
 13 37  1  0
 15 38  1  0
 16 39  1  0
 17 40  1  0
 18 41  1  0
 23 42  1  0
M  CHG  2   3   1  21  -1
M  END
>  <UniqueID>  (5) 
5

>  <SMILES>  (5) 
CC[N+](CC)=c1ccc2nc3ccc4ccccc4c3[n-]c-2c1

>  <Energy>  (5) 
62.586196585094164

>  <Genealogy>  (5) 
CC[N+](CC)=c1ccc2nc3ccc4ccccc4c3[n-]c-2c1 (protonated)
CC[N+](CC)=c1ccc2nc3ccc4ccccc4c3[n-]c-2c1 (3D coordinates assigned)
CC[N+](CC)=c1ccc2nc3ccc4ccccc4c3[n-]c-2c1 (optimized conformer: 62.586196585094164 kcal/mol)

>  <smiles>  (5) 
CC[N+](CC)=c1ccc2nc3ccc4ccccc4c3[nH]c-2c1

>  <score_type>  (5) 
oracle

>  <origin>  (5) 
adg

>  <m_score__min__energy>  (5) 
-6.6200000000000001

>  <m_primary>  (5) 
energy

$$$$
5:0
     RDKit          3D

 51 53  0  0  0  0  0  0  0  0999 V2000
   58.7950   34.4060   46.5920 C   0  0  0  0  0  0  0  0  0  0  0  0
   57.5190   33.8760   45.9330 C   0  0  0  0  0  0  0  0  0  0  0  0
   57.5790   32.4270   45.6790 N   0  0  0  0  0  0  0  0  0  0  0  0
   57.7670   32.0890   44.2550 C   0  0  0  0  0  0  0  0  0  0  0  0
   56.9000   30.8930   43.8270 C   0  0  0  0  0  0  0  0  0  0  0  0
   57.3220   29.6130   44.5530 C   0  0  0  0  0  0  0  0  0  0  0  0
   57.4210   29.8640   45.9950 N   0  0  0  0  0  0  0  0  0  0  0  0
   58.2900   28.8650   46.6270 C   0  0  0  0  0  0  0  0  0  0  0  0
   58.8530   29.4130   47.9380 C   0  0  0  0  0  0  0  0  0  0  0  0
   58.8930   30.8730   47.9010 N   0  0  0  0  0  0  0  0  0  0  0  0
   59.7040   31.6140   48.8260 C   0  0  0  0  0  0  0  0  0  0  0  0
   59.1990   32.0970   50.0510 C   0  0  0  0  0  0  0  0  0  0  0  0
   57.8810   31.8050   50.4540 C   0  0  0  0  0  0  0  0  0  0  0  0
   57.3680   32.3280   51.6380 C   0  0  0  0  0  0  0  0  0  0  0  0
   58.1550   33.1490   52.4390 C   0  0  0  0  0  0  0  0  0  0  0  0
   59.4740   33.4290   52.0810 C   0  0  0  0  0  0  0  0  0  0  0  0
   60.0430   32.8840   50.9020 C   0  0  0  0  0  0  0  0  0  0  0  0
   61.3720   33.1030   50.5650 N   0  0  0  0  0  0  0  0  0  0  0  0
   62.2830   33.8000   51.4950 C   0  0  0  0  0  0  0  0  0  0  0  0
   61.8310   32.6600   49.3440 C   0  0  0  0  0  0  0  0  0  0  0  0
   63.1050   32.9020   48.7830 C   0  0  0  0  0  0  0  0  0  0  0  0
   63.2730   32.3220   47.5300 C   0  0  0  0  0  0  0  0  0  0  0  0
   61.8530   31.5260   47.0990 S   0  0  0  0  0  0  0  0  0  0  0  0
   61.0210   31.9130   48.5060 C   0  0  0  0  0  0  0  0  0  0  0  0
   58.6883   34.3617   47.6859 H   0  0  0  0  0  0  0  0  0  0  0  0
   59.6513   33.7891   46.2818 H   0  0  0  0  0  0  0  0  0  0  0  0
   58.9623   35.4480   46.2818 H   0  0  0  0  0  0  0  0  0  0  0  0
   56.6664   34.0834   46.5964 H   0  0  0  0  0  0  0  0  0  0  0  0
   57.4072   34.3823   44.9629 H   0  0  0  0  0  0  0  0  0  0  0  0
   56.7350   31.9590   46.0860 H   0  0  0  0  0  0  0  0  0  0  0  0
   57.4943   32.9620   43.6439 H   0  0  0  0  0  0  0  0  0  0  0  0
   58.8218   31.8138   44.1077 H   0  0  0  0  0  0  0  0  0  0  0  0
   55.8480   31.1096   44.0645 H   0  0  0  0  0  0  0  0  0  0  0  0
   57.0306   30.7384   42.7458 H   0  0  0  0  0  0  0  0  0  0  0  0
   56.5742   28.8272   44.3704 H   0  0  0  0  0  0  0  0  0  0  0  0
   58.3028   29.2895   44.1744 H   0  0  0  0  0  0  0  0  0  0  0  0
   57.8670   30.8040   46.1260 H   0  0  0  0  0  0  0  0  0  0  0  0
   57.7079   27.9548   46.8333 H   0  0  0  0  0  0  0  0  0  0  0  0
   59.1227   28.6307   45.9475 H   0  0  0  0  0  0  0  0  0  0  0  0
   58.2130   29.0884   48.7717 H   0  0  0  0  0  0  0  0  0  0  0  0
   59.8749   29.0302   48.0766 H   0  0  0  0  0  0  0  0  0  0  0  0
   58.0670   31.3600   47.4830 H   0  0  0  0  0  0  0  0  0  0  0  0
   57.2508   31.1572   49.8269 H   0  0  0  0  0  0  0  0  0  0  0  0
   56.3374   32.0913   51.9409 H   0  0  0  0  0  0  0  0  0  0  0  0
   57.7350   33.5799   53.3598 H   0  0  0  0  0  0  0  0  0  0  0  0
   60.0822   34.0828   52.7234 H   0  0  0  0  0  0  0  0  0  0  0  0
   61.9905   33.5762   52.5315 H   0  0  0  0  0  0  0  0  0  0  0  0
   63.3143   33.4582   51.3231 H   0  0  0  0  0  0  0  0  0  0  0  0
   62.2228   34.8848   51.3231 H   0  0  0  0  0  0  0  0  0  0  0  0
   63.8860   33.4904   49.2869 H   0  0  0  0  0  0  0  0  0  0  0  0
   64.1862   32.3748   46.9191 H   0  0  0  0  0  0  0  0  0  0  0  0
  1  2  1  0
  2  3  1  0
  3  4  1  0
  4  5  1  0
  5  6  1  0
  6  7  1  0
  7  8  1  0
  8  9  1  0
  9 10  1  0
 10 11  1  0
 11 12  2  0
 12 13  1  0
 13 14  2  0
 14 15  1  0
 15 16  2  0
 16 17  1  0
 17 18  2  0
 18 19  1  0
 18 20  1  0
 20 21  1  0
 21 22  2  0
 22 23  1  0
 23 24  1  0
 24 11  1  0
 17 12  1  0
 24 20  2  0
  1 25  1  0
  1 26  1  0
  1 27  1  0
  2 28  1  0
  2 29  1  0
  3 30  1  0
  4 31  1  0
  4 32  1  0
  5 33  1  0
  5 34  1  0
  6 35  1  0
  6 36  1  0
  7 37  1  0
  8 38  1  0
  8 39  1  0
  9 40  1  0
  9 41  1  0
 10 42  1  0
 13 43  1  0
 14 44  1  0
 15 45  1  0
 16 46  1  0
 19 47  1  0
 19 48  1  0
 19 49  1  0
 21 50  1  0
 22 51  1  0
M  CHG  1  18   1
M  END
>  <UniqueID>  (6) 
6

>  <SMILES>  (6) 
CCNCCCNCCNc1c2ccccc2[n+](C)c2ccsc12

>  <Energy>  (6) 
92.71464644907311

>  <Genealogy>  (6) 
CCNCCCNCCNc1c2ccccc2[n+](C)c2ccsc12 (3D coordinates assigned)
CCNCCCNCCNc1c2ccccc2[n+](C)c2ccsc12 (optimized conformer: 92.71464644907311 kcal/mol)

>  <smiles>  (6) 
CCNCCCNCCNc1c2ccccc2[n+](C)c2ccsc12

>  <score_type>  (6) 
oracle

>  <origin>  (6) 
adg

>  <m_score__min__energy>  (6) 
-5.7400000000000002

>  <m_primary>  (6) 
energy

$$$$
6:0
     RDKit          3D

 74 76  0  0  0  0  0  0  0  0999 V2000
   63.3770   33.7080   46.6950 C   0  0  0  0  0  0  0  0  0  0  0  0
   62.7390   32.5560   47.4900 C   0  0  0  0  0  0  0  0  0  0  0  0
   62.3950   32.9320   48.8900 N   0  0  1  0  0  0  0  0  0  0  0  0
   63.6090   33.3810   49.6110 C   0  0  0  0  0  0  0  0  0  0  0  0
   61.3480   34.0000   48.9100 C   0  0  0  0  0  0  0  0  0  0  0  0
   60.1940   33.6960   49.8860 C   0  0  0  0  0  0  0  0  0  0  0  0
   60.1870   32.2830   50.2820 N   0  0  0  0  0  0  0  0  0  0  0  0
   58.8430   31.7140   50.1320 C   0  0  0  0  0  0  0  0  0  0  0  0
   58.9000   30.4090   49.3370 C   0  0  0  0  0  0  0  0  0  0  0  0
   59.6100   30.5810   48.0660 N   0  0  0  0  0  0  0  0  0  0  0  0
   58.9530   30.5630   46.7840 C   0  0  0  0  0  0  0  0  0  0  0  0
   58.6480   31.7780   46.1390 C   0  0  0  0  0  0  0  0  0  0  0  0
   58.9910   33.0140   46.7300 C   0  0  0  0  0  0  0  0  0  0  0  0
   58.7700   34.2100   46.0550 C   0  0  0  0  0  0  0  0  0  0  0  0
   58.2000   34.1970   44.7890 C   0  0  0  0  0  0  0  0  0  0  0  0
   57.8210   32.9930   44.2000 C   0  0  0  0  0  0  0  0  0  0  0  0
   58.0120   31.7560   44.8680 C   0  0  0  0  0  0  0  0  0  0  0  0
   57.6140   30.5590   44.3060 N   0  0  0  0  0  0  0  0  0  0  0  0
   56.7220   30.5480   43.1230 C   0  0  0  0  0  0  0  0  0  0  0  0
   58.0160   29.3590   44.8720 C   0  0  0  0  0  0  0  0  0  0  0  0
   57.8470   28.1220   44.1980 C   0  0  0  0  0  0  0  0  0  0  0  0
   58.1830   26.8960   44.8070 C   0  0  0  0  0  0  0  0  0  0  0  0
   58.0700   25.6530   44.1510 O   0  0  0  0  0  0  0  0  0  0  0  0
   57.1040   24.6360   44.4320 C   0  0  0  0  0  0  0  0  0  0  0  0
   57.7540   23.4750   45.2260 C   0  0  0  0  0  0  0  0  0  0  0  0
   57.7880   22.1570   44.5150 N   0  0  0  0  0  0  0  0  0  0  0  0
   57.0000   22.1780   43.2550 C   0  0  0  0  0  0  0  0  0  0  0  0
   59.2000   21.8540   44.1660 C   0  0  0  0  0  0  0  0  0  0  0  0
   57.2850   21.0790   45.4040 C   0  0  0  0  0  0  0  0  0  0  0  0
   58.6730   26.9070   46.1130 C   0  0  0  0  0  0  0  0  0  0  0  0
   58.8860   28.1100   46.7820 C   0  0  0  0  0  0  0  0  0  0  0  0
   58.6290   29.3460   46.1520 C   0  0  0  0  0  0  0  0  0  0  0  0
   63.7888   34.4515   47.3933 H   0  0  0  0  0  0  0  0  0  0  0  0
   64.1849   33.3130   46.0616 H   0  0  0  0  0  0  0  0  0  0  0  0
   62.6135   34.1833   46.0616 H   0  0  0  0  0  0  0  0  0  0  0  0
   61.8185   32.2432   46.9753 H   0  0  0  0  0  0  0  0  0  0  0  0
   63.4789   31.7436   47.5410 H   0  0  0  0  0  0  0  0  0  0  0  0
   62.0300   32.0770   49.3740 H   0  0  0  0  0  0  0  0  0  0  0  0
   63.4361   33.3171   50.6954 H   0  0  0  0  0  0  0  0  0  0  0  0
   64.4577   32.7373   49.3364 H   0  0  0  0  0  0  0  0  0  0  0  0
   63.8346   34.4220   49.3364 H   0  0  0  0  0  0  0  0  0  0  0  0
   61.8198   34.9474   49.2096 H   0  0  0  0  0  0  0  0  0  0  0  0
   60.9172   34.0565   47.8995 H   0  0  0  0  0  0  0  0  0  0  0  0
   60.3117   34.3192   50.7848 H   0  0  0  0  0  0  0  0  0  0  0  0
   59.2435   33.9185   49.3790 H   0  0  0  0  0  0  0  0  0  0  0  0
   60.4430   32.2290   51.2980 H   0  0  0  0  0  0  0  0  0  0  0  0
   58.4217   31.5131   51.1280 H   0  0  0  0  0  0  0  0  0  0  0  0
   58.2104   32.4331   49.5909 H   0  0  0  0  0  0  0  0  0  0  0  0
   59.4212   29.6483   49.9368 H   0  0  0  0  0  0  0  0  0  0  0  0
   57.8690   30.0964   49.1152 H   0  0  0  0  0  0  0  0  0  0  0  0
   60.6530   30.6570   48.0860 H   0  0  0  0  0  0  0  0  0  0  0  0
   59.4378   33.0311   47.7350 H   0  0  0  0  0  0  0  0  0  0  0  0
   59.0467   35.1657   46.5240 H   0  0  0  0  0  0  0  0  0  0  0  0
   58.0469   35.1426   44.2483 H   0  0  0  0  0  0  0  0  0  0  0  0
   57.3654   33.0014   43.1988 H   0  0  0  0  0  0  0  0  0  0  0  0
   55.6733   30.5351   43.4547 H   0  0  0  0  0  0  0  0  0  0  0  0
   56.9042   31.4485   42.5180 H   0  0  0  0  0  0  0  0  0  0  0  0
   56.9263   29.6523   42.5180 H   0  0  0  0  0  0  0  0  0  0  0  0
   57.4437   28.1196   43.1746 H   0  0  0  0  0  0  0  0  0  0  0  0
   56.2860   25.0682   45.0271 H   0  0  0  0  0  0  0  0  0  0  0  0
   56.7145   24.2428   43.4814 H   0  0  0  0  0  0  0  0  0  0  0  0
   58.7896   23.7615   45.4614 H   0  0  0  0  0  0  0  0  0  0  0  0
   57.1264   23.3253   46.1169 H   0  0  0  0  0  0  0  0  0  0  0  0
   55.9267   22.2066   43.4942 H   0  0  0  0  0  0  0  0  0  0  0  0
   57.2690   23.0693   42.6691 H   0  0  0  0  0  0  0  0  0  0  0  0
   57.2211   21.2736   42.6691 H   0  0  0  0  0  0  0  0  0  0  0  0
   59.7867   21.7281   45.0879 H   0  0  0  0  0  0  0  0  0  0  0  0
   59.2409   20.9266   43.5758 H   0  0  0  0  0  0  0  0  0  0  0  0
   59.6178   22.6829   43.5758 H   0  0  0  0  0  0  0  0  0  0  0  0
   57.4233   21.3754   46.4542 H   0  0  0  0  0  0  0  0  0  0  0  0
   56.2156   20.9113   45.2081 H   0  0  0  0  0  0  0  0  0  0  0  0
   57.8435   20.1518   45.2081 H   0  0  0  0  0  0  0  0  0  0  0  0
   58.8934   25.9559   46.6197 H   0  0  0  0  0  0  0  0  0  0  0  0
   59.2600   28.0962   47.8164 H   0  0  0  0  0  0  0  0  0  0  0  0
  1  2  1  0
  2  3  1  0
  3  4  1  0
  3  5  1  0
  5  6  1  0
  6  7  1  0
  7  8  1  0
  8  9  1  0
  9 10  1  0
 10 11  1  0
 11 12  2  0
 12 13  1  0
 13 14  2  0
 14 15  1  0
 15 16  2  0
 16 17  1  0
 17 18  2  0
 18 19  1  0
 18 20  1  0
 20 21  2  0
 21 22  1  0
 22 23  1  0
 23 24  1  0
 24 25  1  0
 25 26  1  0
 26 27  1  0
 26 28  1  0
 26 29  1  0
 22 30  2  0
 30 31  1  0
 31 32  2  0
 32 11  1  0
 17 12  1  0
 32 20  1  0
  1 33  1  0
  1 34  1  0
  1 35  1  0
  2 36  1  0
  2 37  1  0
  3 38  1  1
  4 39  1  0
  4 40  1  0
  4 41  1  0
  5 42  1  0
  5 43  1  0
  6 44  1  0
  6 45  1  0
  7 46  1  0
  8 47  1  0
  8 48  1  0
  9 49  1  0
  9 50  1  0
 10 51  1  0
 13 52  1  0
 14 53  1  0
 15 54  1  0
 16 55  1  0
 19 56  1  0
 19 57  1  0
 19 58  1  0
 21 59  1  0
 24 60  1  0
 24 61  1  0
 25 62  1  0
 25 63  1  0
 27 64  1  0
 27 65  1  0
 27 66  1  0
 28 67  1  0
 28 68  1  0
 28 69  1  0
 29 70  1  0
 29 71  1  0
 29 72  1  0
 30 73  1  0
 31 74  1  0
M  CHG  3   3   1  18   1  26   1
M  END
>  <UniqueID>  (7) 
7

>  <SMILES>  (7) 
CC[N@@H+](C)CCNCCNc1c2ccccc2[n+](C)c2cc(OCC[N+](C)(C)C)ccc12

>  <Energy>  (7) 
103.31028147800428

>  <Genealogy>  (7) 
CC[NH+](C)CCNCCNc1c2ccccc2[n+](C)c2cc(OCC[N+](C)(C)C)ccc12 (protonated)
CC[N@@H+](C)CCNCCNc1c2ccccc2[n+](C)c2cc(OCC[N+](C)(C)C)ccc12 (chirality)
CC[N@@H+](C)CCNCCNc1c2ccccc2[n+](C)c2cc(OCC[N+](C)(C)C)ccc12 (3D coordinates assigned)
CC[N@@H+](C)CCNCCNc1c2ccccc2[n+](C)c2cc(OCC[N+](C)(C)C)ccc12 (optimized conformer: 103.31028147800428 kcal/mol)

>  <smiles>  (7) 
CCN(C)CCNCCNc1c2ccccc2[n+](C)c2cc(OCC[N+](C)(C)C)ccc12

>  <score_type>  (7) 
oracle

>  <origin>  (7) 
adg

>  <m_score__min__energy>  (7) 
-2.9199999999999999

>  <m_primary>  (7) 
energy

$$$$
7:0
     RDKit          3D

 52 54  0  0  0  0  0  0  0  0999 V2000
   57.7650   25.6810   43.7610 C   0  0  0  0  0  0  0  0  0  0  0  0
   58.1480   26.8690   42.8710 C   0  0  0  0  0  0  0  0  0  0  0  0
   57.5860   28.1410   43.3600 N   0  0  0  0  0  0  0  0  0  0  0  0
   57.6950   28.2730   44.8210 C   0  0  0  0  0  0  0  0  0  0  0  0
   58.2530   29.6250   45.1860 C   0  0  0  0  0  0  0  0  0  0  0  0
   59.2250   29.7420   46.1860 C   0  0  0  0  0  0  0  0  0  0  0  0
   59.7240   30.9940   46.5460 C   0  0  0  0  0  0  0  0  0  0  0  0
   59.2440   32.1670   45.9330 C   0  0  0  0  0  0  0  0  0  0  0  0
   58.2550   32.0480   44.9250 C   0  0  0  0  0  0  0  0  0  0  0  0
   57.7700   30.7820   44.5620 C   0  0  0  0  0  0  0  0  0  0  0  0
   57.7600   33.2550   44.1620 C   0  0  0  0  0  0  0  0  0  0  0  0
   58.0690   34.5700   44.8800 C   0  0  0  0  0  0  0  0  0  0  0  0
   59.5180   34.5790   45.3550 C   0  0  0  0  0  0  0  0  0  0  0  0
   59.7300   33.4820   46.3140 N   0  0  0  0  0  0  0  0  0  0  0  0
   60.0300   33.8170   47.7220 C   0  0  0  0  0  0  0  0  0  0  0  0
   61.2200   33.0450   48.2920 C   0  0  0  0  0  0  0  0  0  0  0  0
   62.4890   33.0880   47.6410 C   0  0  0  0  0  0  0  0  0  0  0  0
   62.7200   33.8690   46.3700 C   0  0  0  0  0  0  0  0  0  0  0  0
   63.5800   32.3960   48.1950 C   0  0  0  0  0  0  0  0  0  0  0  0
   63.4330   31.6520   49.3580 C   0  0  0  0  0  0  0  0  0  0  0  0
   62.1930   31.5620   49.9780 C   0  0  0  0  0  0  0  0  0  0  0  0
   61.0740   32.2240   49.4480 C   0  0  0  0  0  0  0  0  0  0  0  0
   59.7580   32.0550   50.1590 C   0  0  0  0  0  0  0  0  0  0  0  0
   57.8581   25.9699   44.8183 H   0  0  0  0  0  0  0  0  0  0  0  0
   56.7262   25.3859   43.5517 H   0  0  0  0  0  0  0  0  0  0  0  0
   58.4358   24.8347   43.5517 H   0  0  0  0  0  0  0  0  0  0  0  0
   59.2445   26.9533   42.8467 H   0  0  0  0  0  0  0  0  0  0  0  0
   57.7360   26.6836   41.8681 H   0  0  0  0  0  0  0  0  0  0  0  0
   56.5840   28.2270   43.0660 H   0  0  0  0  0  0  0  0  0  0  0  0
   58.1240   28.9210   42.9120 H   0  0  0  0  0  0  0  0  0  0  0  0
   56.6976   28.1591   45.2707 H   0  0  0  0  0  0  0  0  0  0  0  0
   58.3718   27.4933   45.2003 H   0  0  0  0  0  0  0  0  0  0  0  0
   59.5985   28.8396   46.6922 H   0  0  0  0  0  0  0  0  0  0  0  0
   60.5030   31.0657   47.3193 H   0  0  0  0  0  0  0  0  0  0  0  0
   57.0022   30.6976   43.7789 H   0  0  0  0  0  0  0  0  0  0  0  0
   58.2437   33.2705   43.1742 H   0  0  0  0  0  0  0  0  0  0  0  0
   56.6666   33.1704   44.0760 H   0  0  0  0  0  0  0  0  0  0  0  0
   57.9078   35.4094   44.1875 H   0  0  0  0  0  0  0  0  0  0  0  0
   57.4039   34.6702   45.7504 H   0  0  0  0  0  0  0  0  0  0  0  0
   60.1870   34.4454   44.4921 H   0  0  0  0  0  0  0  0  0  0  0  0
   59.7361   35.5396   45.8446 H   0  0  0  0  0  0  0  0  0  0  0  0
   60.2506   34.8928   47.7846 H   0  0  0  0  0  0  0  0  0  0  0  0
   59.1478   33.5369   48.3164 H   0  0  0  0  0  0  0  0  0  0  0  0
   63.0238   34.8960   46.6208 H   0  0  0  0  0  0  0  0  0  0  0  0
   63.5135   33.3853   45.7815 H   0  0  0  0  0  0  0  0  0  0  0  0
   61.7910   33.8948   45.7815 H   0  0  0  0  0  0  0  0  0  0  0  0
   64.5618   32.4445   47.7013 H   0  0  0  0  0  0  0  0  0  0  0  0
   64.3010   31.1322   49.7898 H   0  0  0  0  0  0  0  0  0  0  0  0
   62.0866   30.9647   50.8955 H   0  0  0  0  0  0  0  0  0  0  0  0
   59.9233   32.0762   51.2463 H   0  0  0  0  0  0  0  0  0  0  0  0
   59.0801   32.8735   49.8751 H   0  0  0  0  0  0  0  0  0  0  0  0
   59.3089   31.0918   49.8751 H   0  0  0  0  0  0  0  0  0  0  0  0
  1  2  1  0
  2  3  1  0
  3  4  1  0
  4  5  1  0
  5  6  2  0
  6  7  1  0
  7  8  2  0
  8  9  1  0
  9 10  2  0
  9 11  1  0
 11 12  1  0
 12 13  1  0
 13 14  1  0
 14 15  1  0
 15 16  1  0
 16 17  2  0
 17 18  1  0
 17 19  1  0
 19 20  2  0
 20 21  1  0
 21 22  2  0
 22 23  1  0
 10  5  1  0
 22 16  1  0
 14  8  1  0
  1 24  1  0
  1 25  1  0
  1 26  1  0
  2 27  1  0
  2 28  1  0
  3 29  1  0
  3 30  1  0
  4 31  1  0
  4 32  1  0
  6 33  1  0
  7 34  1  0
 10 35  1  0
 11 36  1  0
 11 37  1  0
 12 38  1  0
 12 39  1  0
 13 40  1  0
 13 41  1  0
 15 42  1  0
 15 43  1  0
 18 44  1  0
 18 45  1  0
 18 46  1  0
 19 47  1  0
 20 48  1  0
 21 49  1  0
 23 50  1  0
 23 51  1  0
 23 52  1  0
M  CHG  1   3   1
M  END
>  <UniqueID>  (8) 
8

>  <SMILES>  (8) 
CC[NH2+]Cc1ccc2c(c1)CCCN2Cc1c(C)cccc1C

>  <Energy>  (8) 
57.695762016940485

>  <Genealogy>  (8) 
CC[NH2+]Cc1ccc2c(c1)CCCN2Cc1c(C)cccc1C (protonated)
CC[NH2+]Cc1ccc2c(c1)CCCN2Cc1c(C)cccc1C (3D coordinates assigned)
CC[NH2+]Cc1ccc2c(c1)CCCN2Cc1c(C)cccc1C (nonaromatic ring conformer: 57.695762016940485 kcal/mol)

>  <smiles>  (8) 
CCNCc1ccc2c(c1)CCCN2Cc1c(C)cccc1C

>  <score_type>  (8) 
oracle

>  <origin>  (8) 
adg

>  <m_score__min__energy>  (8) 
-6.5599999999999996

>  <m_primary>  (8) 
energy

$$$$
8:0
     RDKit          3D

 25 25  0  0  0  0  0  0  0  0999 V2000
   57.1440   35.0068   45.0022 H   0  0  0  0  0  0  0  0  0  0  0  0
   57.8430   34.1880   45.2280 C   0  0  0  0  0  0  0  0  0  0  0  0
   58.8460   34.4240   46.0820 C   0  0  0  0  0  0  0  0  0  0  0  0
   59.6636   35.0939   45.7773 H   0  0  0  0  0  0  0  0  0  0  0  0
   58.8830   33.7950   47.4500 C   0  0  0  0  0  0  0  0  0  0  0  0
   58.1482   34.2992   48.0949 H   0  0  0  0  0  0  0  0  0  0  0  0
   59.9005   33.9064   47.8529 H   0  0  0  0  0  0  0  0  0  0  0  0
   58.5640   32.3590   47.3940 N   0  0  0  0  0  0  0  0  0  0  0  0
   57.5240   32.2620   47.3270 H   0  0  0  0  0  0  0  0  0  0  0  0
   58.9920   31.9360   46.5360 H   0  0  0  0  0  0  0  0  0  0  0  0
   59.0350   31.6470   48.5940 C   0  0  0  0  0  0  0  0  0  0  0  0
   58.2755   31.7325   49.3851 H   0  0  0  0  0  0  0  0  0  0  0  0
   59.9829   32.0987   48.9218 H   0  0  0  0  0  0  0  0  0  0  0  0
   59.2770   30.1690   48.2900 C   0  0  0  0  0  0  0  0  0  0  0  0
   59.3684   29.6108   49.2334 H   0  0  0  0  0  0  0  0  0  0  0  0
   58.4321   29.7711   47.7089 H   0  0  0  0  0  0  0  0  0  0  0  0
   60.2047   30.0613   47.7089 H   0  0  0  0  0  0  0  0  0  0  0  0
   57.6300   32.8850   44.5760 C   0  0  0  0  0  0  0  0  0  0  0  0
   57.2600   31.8110   45.2370 O   0  0  0  0  0  0  0  0  0  0  0  0
   57.1540   30.8150   44.3890 C   0  0  0  0  0  0  0  0  0  0  0  0
   56.6430   29.0440   44.8730 Br  0  0  0  0  0  0  0  0  0  0  0  0
   57.4630   31.2400   43.1150 C   0  0  0  0  0  0  0  0  0  0  0  0
   57.4638   30.6360   42.1957 H   0  0  0  0  0  0  0  0  0  0  0  0
   57.7710   32.5790   43.2310 C   0  0  0  0  0  0  0  0  0  0  0  0
   58.0676   33.2636   42.4227 H   0  0  0  0  0  0  0  0  0  0  0  0
  1  2  1  0
  2  3  2  0
  3  4  1  0
  3  5  1  0
  5  6  1  0
  5  7  1  0
  5  8  1  0
  8  9  1  0
  8 10  1  0
  8 11  1  0
 11 12  1  0
 11 13  1  0
 11 14  1  0
 14 15  1  0
 14 16  1  0
 14 17  1  0
  2 18  1  0
 18 19  1  0
 19 20  1  0
 20 21  1  0
 20 22  2  0
 22 23  1  0
 22 24  1  0
 24 25  1  0
 24 18  2  0
M  CHG  1   8   1
M  END
>  <UniqueID>  (9) 
9

>  <SMILES>  (9) 
CC[NH2+]C/C=C/c1ccc(Br)o1

>  <Energy>  (9) 
44.31272801326407

>  <Genealogy>  (9) 
CC[NH2+]CC=Cc1ccc(Br)o1 (protonated)
CC[NH2+]C/C=C/c1ccc(Br)o1 (cis-trans isomerization)
CC[NH2+]C/C=C/c1ccc(Br)o1 (3D coordinates assigned)
CC[NH2+]C/C=C/c1ccc(Br)o1 (optimized conformer: 44.31272801326407 kcal/mol)

>  <smiles>  (9) 
CCNCC=Cc1ccc(Br)o1

>  <score_type>  (9) 
oracle

>  <origin>  (9) 
adg

>  <m_score__min__energy>  (9) 
-2.6800000000000002

>  <m_primary>  (9) 
energy

$$$$
9:0
     RDKit          3D

 93 95  0  0  0  0  0  0  0  0999 V2000
   64.6050   31.2280   50.5210 C   0  0  0  0  0  0  0  0  0  0  0  0
   63.6760   30.5760   51.5350 C   0  0  0  0  0  0  0  0  0  0  0  0
   62.4150   30.1970   50.8840 N   0  0  0  0  0  0  0  0  0  0  0  0
   61.5910   29.3180   51.7300 C   0  0  0  0  0  0  0  0  0  0  0  0
   61.0990   28.0680   50.9780 C   0  0  0  0  0  0  0  0  0  0  0  0
   61.0380   28.3170   49.5860 O   0  0  0  0  0  0  0  0  0  0  0  0
   60.0510   27.5200   48.9590 C   0  0  0  0  0  0  0  0  0  0  0  0
   59.1830   28.3590   48.0090 C   0  0  0  0  0  0  0  0  0  0  0  0
   59.8590   29.6030   47.6390 N   0  0  0  0  0  0  0  0  0  0  0  0
   59.1390   30.6870   47.0240 C   0  0  0  0  0  0  0  0  0  0  0  0
   58.4500   30.4740   45.8160 C   0  0  0  0  0  0  0  0  0  0  0  0
   58.2080   29.1710   45.3310 C   0  0  0  0  0  0  0  0  0  0  0  0
   57.4820   28.9700   44.1590 C   0  0  0  0  0  0  0  0  0  0  0  0
   56.9770   30.0590   43.4580 C   0  0  0  0  0  0  0  0  0  0  0  0
   57.2250   31.3560   43.9040 C   0  0  0  0  0  0  0  0  0  0  0  0
   57.9980   31.5930   45.0710 C   0  0  0  0  0  0  0  0  0  0  0  0
   58.3270   32.8700   45.4780 N   0  0  0  0  0  0  0  0  0  0  0  0
   58.1900   34.0050   44.5370 C   0  0  0  0  0  0  0  0  0  0  0  0
   58.8020   33.0860   46.7600 C   0  0  0  0  0  0  0  0  0  0  0  0
   58.9180   34.3890   47.2920 C   0  0  0  0  0  0  0  0  0  0  0  0
   59.4410   34.6100   48.5600 C   0  0  0  0  0  0  0  0  0  0  0  0
   59.7800   33.5380   49.3970 C   0  0  0  0  0  0  0  0  0  0  0  0
   60.2760   33.7720   50.7360 N   0  0  0  0  0  0  0  0  0  0  0  0
   61.2530   32.9210   51.4200 C   0  0  0  0  0  0  0  0  0  0  0  0
   62.2840   33.7820   52.1650 C   0  0  0  0  0  0  0  0  0  0  0  0
   63.4520   34.2310   51.2720 C   0  0  0  0  0  0  0  0  0  0  0  0
   63.0190   34.6980   49.8720 C   0  0  0  0  0  0  0  0  0  0  0  0
   62.6830   33.5680   48.9910 N   0  0  0  0  0  0  0  0  0  0  0  0
   63.3450   33.6020   47.6730 C   0  0  0  0  0  0  0  0  0  0  0  0
   63.7110   32.2180   47.0940 C   0  0  0  0  0  0  0  0  0  0  0  0
   62.5480   31.2110   47.1230 C   0  0  0  0  0  0  0  0  0  0  0  0
   62.1020   30.9570   48.4930 N   0  0  0  0  0  0  0  0  0  0  0  0
   59.5770   32.2210   48.9310 C   0  0  0  0  0  0  0  0  0  0  0  0
   59.6570   31.1400   49.8740 N   0  0  0  0  0  0  0  0  0  0  0  0
   58.7950   31.0670   51.0560 C   0  0  0  0  0  0  0  0  0  0  0  0
   58.1590   29.6780   51.2120 C   0  0  0  0  0  0  0  0  0  0  0  0
   56.8320   29.7290   51.8630 N   0  0  0  0  0  0  0  0  0  0  0  0
   56.4030   31.1300   52.0000 C   0  0  0  0  0  0  0  0  0  0  0  0
   56.8570   29.0990   53.1960 C   0  0  0  0  0  0  0  0  0  0  0  0
   59.1770   31.9880   47.5810 C   0  0  0  0  0  0  0  0  0  0  0  0
   65.3944   31.7820   51.0501 H   0  0  0  0  0  0  0  0  0  0  0  0
   65.0620   30.4515   49.8900 H   0  0  0  0  0  0  0  0  0  0  0  0
   64.0301   31.9218   49.8900 H   0  0  0  0  0  0  0  0  0  0  0  0
   64.1585   29.6775   51.9472 H   0  0  0  0  0  0  0  0  0  0  0  0
   63.4658   31.2892   52.3456 H   0  0  0  0  0  0  0  0  0  0  0  0
   62.6270   29.7080   49.9840 H   0  0  0  0  0  0  0  0  0  0  0  0
   62.1909   28.9965   52.5941 H   0  0  0  0  0  0  0  0  0  0  0  0
   60.7051   29.8900   52.0430 H   0  0  0  0  0  0  0  0  0  0  0  0
   61.7933   27.2359   51.1665 H   0  0  0  0  0  0  0  0  0  0  0  0
   60.0915   27.8112   51.3372 H   0  0  0  0  0  0  0  0  0  0  0  0
   60.5450   26.7228   48.3842 H   0  0  0  0  0  0  0  0  0  0  0  0
   59.4025   27.0911   49.7372 H   0  0  0  0  0  0  0  0  0  0  0  0
   58.9798   27.7759   47.0986 H   0  0  0  0  0  0  0  0  0  0  0  0
   58.2442   28.6110   48.5240 H   0  0  0  0  0  0  0  0  0  0  0  0
   60.8420   29.7530   47.9590 H   0  0  0  0  0  0  0  0  0  0  0  0
   58.5971   28.3039   45.8848 H   0  0  0  0  0  0  0  0  0  0  0  0
   57.3083   27.9491   43.7882 H   0  0  0  0  0  0  0  0  0  0  0  0
   56.3799   29.8966   42.5486 H   0  0  0  0  0  0  0  0  0  0  0  0
   56.8155   32.2091   43.3432 H   0  0  0  0  0  0  0  0  0  0  0  0
   58.0771   34.9404   45.1047 H   0  0  0  0  0  0  0  0  0  0  0  0
   59.0872   34.0665   43.9036 H   0  0  0  0  0  0  0  0  0  0  0  0
   57.3039   33.8513   43.9036 H   0  0  0  0  0  0  0  0  0  0  0  0
   58.5871   35.2476   46.6893 H   0  0  0  0  0  0  0  0  0  0  0  0
   59.5912   35.6412   48.9122 H   0  0  0  0  0  0  0  0  0  0  0  0
   59.8680   34.5440   51.3090 H   0  0  0  0  0  0  0  0  0  0  0  0
   60.7299   32.2764   52.1416 H   0  0  0  0  0  0  0  0  0  0  0  0
   61.7753   32.3055   50.6727 H   0  0  0  0  0  0  0  0  0  0  0  0
   61.7768   34.6770   52.5545 H   0  0  0  0  0  0  0  0  0  0  0  0
   62.7060   33.1643   52.9715 H   0  0  0  0  0  0  0  0  0  0  0  0
   63.9697   35.0637   51.7707 H   0  0  0  0  0  0  0  0  0  0  0  0
   64.1024   33.3552   51.1307 H   0  0  0  0  0  0  0  0  0  0  0  0
   62.1351   35.3452   49.9715 H   0  0  0  0  0  0  0  0  0  0  0  0
   63.8622   35.2409   49.4201 H   0  0  0  0  0  0  0  0  0  0  0  0
   62.8890   32.6650   49.4760 H   0  0  0  0  0  0  0  0  0  0  0  0
   62.6687   34.1013   46.9636 H   0  0  0  0  0  0  0  0  0  0  0  0
   64.2951   34.1369   47.8184 H   0  0  0  0  0  0  0  0  0  0  0  0
   64.0297   32.3512   46.0496 H   0  0  0  0  0  0  0  0  0  0  0  0
   64.5110   31.8052   47.7262 H   0  0  0  0  0  0  0  0  0  0  0  0
   61.7072   31.6171   46.5414 H   0  0  0  0  0  0  0  0  0  0  0  0
   62.8976   30.2626   46.6891 H   0  0  0  0  0  0  0  0  0  0  0  0
   62.1410   29.9270   48.6760 H   0  0  0  0  0  0  0  0  0  0  0  0
   62.7640   31.4260   49.1560 H   0  0  0  0  0  0  0  0  0  0  0  0
   60.3860   30.4020   49.7390 H   0  0  0  0  0  0  0  0  0  0  0  0
   59.3973   31.2855   51.9502 H   0  0  0  0  0  0  0  0  0  0  0  0
   57.9859   31.8024   50.9355 H   0  0  0  0  0  0  0  0  0  0  0  0
   58.0448   29.2289   50.2144 H   0  0  0  0  0  0  0  0  0  0  0  0
   58.8217   29.0787   51.8537 H   0  0  0  0  0  0  0  0  0  0  0  0
   56.3244   31.3868   53.0667 H   0  0  0  0  0  0  0  0  0  0  0  0
   57.1408   31.7882   51.5178 H   0  0  0  0  0  0  0  0  0  0  0  0
   55.4232   31.2623   51.5178 H   0  0  0  0  0  0  0  0  0  0  0  0
   56.8260   29.8791   53.9709 H   0  0  0  0  0  0  0  0  0  0  0  0
   55.9844   28.4384   53.3057 H   0  0  0  0  0  0  0  0  0  0  0  0
   57.7792   28.5096   53.3057 H   0  0  0  0  0  0  0  0  0  0  0  0
  1  2  1  0
  2  3  1  0
  3  4  1  0
  4  5  1  0
  5  6  1  0
  6  7  1  0
  7  8  1  0
  8  9  1  0
  9 10  1  0
 10 11  2  0
 11 12  1  0
 12 13  2  0
 13 14  1  0
 14 15  2  0
 15 16  1  0
 16 17  2  0
 17 18  1  0
 17 19  1  0
 19 20  2  0
 20 21  1  0
 21 22  2  0
 22 23  1  0
 23 24  1  0
 24 25  1  0
 25 26  1  0
 26 27  1  0
 27 28  1  0
 28 29  1  0
 29 30  1  0
 30 31  1  0
 31 32  1  0
 22 33  1  0
 33 34  1  0
 34 35  1  0
 35 36  1  0
 36 37  1  0
 37 38  1  0
 37 39  1  0
 33 40  2  0
 40 10  1  0
 16 11  1  0
 40 19  1  0
  1 41  1  0
  1 42  1  0
  1 43  1  0
  2 44  1  0
  2 45  1  0
  3 46  1  0
  4 47  1  0
  4 48  1  0
  5 49  1  0
  5 50  1  0
  7 51  1  0
  7 52  1  0
  8 53  1  0
  8 54  1  0
  9 55  1  0
 12 56  1  0
 13 57  1  0
 14 58  1  0
 15 59  1  0
 18 60  1  0
 18 61  1  0
 18 62  1  0
 20 63  1  0
 21 64  1  0
 23 65  1  0
 24 66  1  0
 24 67  1  0
 25 68  1  0
 25 69  1  0
 26 70  1  0
 26 71  1  0
 27 72  1  0
 27 73  1  0
 28 74  1  0
 29 75  1  0
 29 76  1  0
 30 77  1  0
 30 78  1  0
 31 79  1  0
 31 80  1  0
 32 81  1  0
 32 82  1  0
 34 83  1  0
 35 84  1  0
 35 85  1  0
 36 86  1  0
 36 87  1  0
 38 88  1  0
 38 89  1  0
 38 90  1  0
 39 91  1  0
 39 92  1  0
 39 93  1  0
M  CHG  1  17   1
M  END
>  <UniqueID>  (10) 
10

>  <SMILES>  (10) 
CCNCCOCCNc1c2ccccc2[n+](C)c2ccc(NCCCCNCCCN)c(NCCN(C)C)c12

>  <Energy>  (10) 
119.48662079435003

>  <Genealogy>  (10) 
CCNCCOCCNc1c2ccccc2[n+](C)c2ccc(NCCCCNCCCN)c(NCCN(C)C)c12 (3D coordinates assigned)
CCNCCOCCNc1c2ccccc2[n+](C)c2ccc(NCCCCNCCCN)c(NCCN(C)C)c12 (optimized conformer: 119.48662079435003 kcal/mol)

>  <smiles>  (10) 
CCNCCOCCNc1c2ccccc2[n+](C)c2ccc(NCCCCNCCCN)c(NCCN(C)C)c12

>  <score_type>  (10) 
oracle

>  <origin>  (10) 
adg

>  <m_score__min__energy>  (10) 
-6.8200000000000003

>  <m_primary>  (10) 
energy

$$$$
10:0
     RDKit          3D

 36 35  0  0  0  0  0  0  0  0999 V2000
   56.4460   24.7220   44.7020 C   0  0  0  0  0  0  0  0  0  0  0  0
   55.9050   25.4140   45.9460 C   0  0  0  0  0  0  0  0  0  0  0  0
   56.4440   26.7770   46.0310 N   0  0  0  0  0  0  0  0  0  0  0  0
   57.5130   26.9140   47.0360 C   0  0  0  0  0  0  0  0  0  0  0  0
   58.9490   27.0290   46.4510 C   0  0  1  0  0  0  0  0  0  0  0  0
   59.3300   25.6810   45.8130 C   0  0  0  0  0  0  0  0  0  0  0  0
   59.0670   28.1940   45.4340 C   0  0  0  0  0  0  0  0  0  0  0  0
   58.8390   27.7700   43.9640 C   0  0  0  0  0  0  0  0  0  0  0  0
   57.4110   27.8310   43.5960 N   0  0  0  0  0  0  0  0  0  0  0  0
   57.0100   29.1610   43.1010 C   0  0  0  0  0  0  0  0  0  0  0  0
   55.7870   29.7530   43.8250 C   0  0  0  0  0  0  0  0  0  0  0  0
   55.5250   29.0490   45.0780 N   0  0  0  0  0  0  0  0  0  0  0  0
   57.0980   23.8880   45.0007 H   0  0  0  0  0  0  0  0  0  0  0  0
   55.6078   24.3359   44.1034 H   0  0  0  0  0  0  0  0  0  0  0  0
   57.0229   25.4423   44.1034 H   0  0  0  0  0  0  0  0  0  0  0  0
   54.8073   25.4582   45.8911 H   0  0  0  0  0  0  0  0  0  0  0  0
   56.2089   24.8469   46.8382 H   0  0  0  0  0  0  0  0  0  0  0  0
   55.6740   27.4590   46.2150 H   0  0  0  0  0  0  0  0  0  0  0  0
   57.3116   27.8188   47.6283 H   0  0  0  0  0  0  0  0  0  0  0  0
   57.4957   25.9905   47.6334 H   0  0  0  0  0  0  0  0  0  0  0  0
   59.6521   27.2617   47.2643 H   0  0  0  0  0  0  0  0  0  0  0  0
   59.5377   24.9462   46.6048 H   0  0  0  0  0  0  0  0  0  0  0  0
   58.4980   25.3224   45.1891 H   0  0  0  0  0  0  0  0  0  0  0  0
   60.2266   25.8110   45.1891 H   0  0  0  0  0  0  0  0  0  0  0  0
   58.3190   28.9575   45.6940 H   0  0  0  0  0  0  0  0  0  0  0  0
   60.0979   28.5719   45.5005 H   0  0  0  0  0  0  0  0  0  0  0  0
   59.4063   28.4445   43.3059 H   0  0  0  0  0  0  0  0  0  0  0  0
   59.1797   26.7304   43.8490 H   0  0  0  0  0  0  0  0  0  0  0  0
   56.8210   27.5590   44.4150 H   0  0  0  0  0  0  0  0  0  0  0  0
   57.2160   27.1450   42.8320 H   0  0  0  0  0  0  0  0  0  0  0  0
   57.8575   29.8497   43.2329 H   0  0  0  0  0  0  0  0  0  0  0  0
   56.7271   29.0370   42.0452 H   0  0  0  0  0  0  0  0  0  0  0  0
   55.9774   30.8144   44.0424 H   0  0  0  0  0  0  0  0  0  0  0  0
   54.9082   29.6432   43.1726 H   0  0  0  0  0  0  0  0  0  0  0  0
   55.1710   28.0910   44.8480 H   0  0  0  0  0  0  0  0  0  0  0  0
   56.4400   28.9070   45.5630 H   0  0  0  0  0  0  0  0  0  0  0  0
  1  2  1  0
  2  3  1  0
  3  4  1  0
  4  5  1  0
  5  6  1  0
  5  7  1  0
  7  8  1  0
  8  9  1  0
  9 10  1  0
 10 11  1  0
 11 12  1  0
  1 13  1  0
  1 14  1  0
  1 15  1  0
  2 16  1  0
  2 17  1  0
  3 18  1  0
  4 19  1  0
  4 20  1  0
  5 21  1  1
  6 22  1  0
  6 23  1  0
  6 24  1  0
  7 25  1  0
  7 26  1  0
  8 27  1  0
  8 28  1  0
  9 29  1  0
  9 30  1  0
 10 31  1  0
 10 32  1  0
 11 33  1  0
 11 34  1  0
 12 35  1  0
 12 36  1  0
M  CHG  1   9   1
M  END
>  <UniqueID>  (11) 
11

>  <SMILES>  (11) 
CCNC[C@@H](C)CC[NH2+]CCN

>  <Energy>  (11) 
25.482401024067713

>  <Genealogy>  (11) 
CCNCC(C)CC[NH2+]CCN (protonated)
CCNC[C@@H](C)CC[NH2+]CCN (chirality)
CCNC[C@@H](C)CC[NH2+]CCN (3D coordinates assigned)
CCNC[C@@H](C)CC[NH2+]CCN (optimized conformer: 25.482401024067713 kcal/mol)

>  <smiles>  (11) 
CCNCC(C)CCNCCN

>  <score_type>  (11) 
oracle

>  <origin>  (11) 
adg

>  <m_score__min__energy>  (11) 
-3.27

>  <m_primary>  (11) 
energy

$$$$
11:0
     RDKit          3D

 49 50  0  0  0  0  0  0  0  0999 V2000
   59.2440   34.6790   47.4410 C   0  0  0  0  0  0  0  0  0  0  0  0
   59.3720   33.2540   47.9640 C   0  0  0  0  0  0  0  0  0  0  0  0
   59.4230   32.2990   46.8460 N   0  0  0  0  0  0  0  0  0  0  0  0
   60.4980   31.2960   46.8100 C   0  0  0  0  0  0  0  0  0  0  0  0
   59.9270   29.9220   46.9800 C   0  0  0  0  0  0  0  0  0  0  0  0
   60.2290   29.2510   48.0030 O   0  0  0  0  0  0  0  0  0  0  0  0
   58.9860   29.4150   46.0220 N   0  0  0  0  0  0  0  0  0  0  0  0
   58.4750   28.0710   46.0250 C   0  0  0  0  0  0  0  0  0  0  0  0
   59.3360   26.9570   46.0080 C   0  0  0  0  0  0  0  0  0  0  0  0
   58.8150   25.6590   46.0020 C   0  0  0  0  0  0  0  0  0  0  0  0
   57.4310   25.4640   45.9990 C   0  0  0  0  0  0  0  0  0  0  0  0
   56.5680   26.5660   45.9640 C   0  0  0  0  0  0  0  0  0  0  0  0
   57.0860   27.8640   45.9850 C   0  0  0  0  0  0  0  0  0  0  0  0
   55.1880   26.3470   45.9080 O   0  0  0  0  0  0  0  0  0  0  0  0
   54.6570   25.0520   45.6160 C   0  0  0  0  0  0  0  0  0  0  0  0
   55.5000   23.9650   46.2950 C   0  0  0  0  0  0  0  0  0  0  0  0
   56.8890   24.1750   46.0260 O   0  0  0  0  0  0  0  0  0  0  0  0
   58.4020   32.2830   45.8200 C   0  0  0  0  0  0  0  0  0  0  0  0
   57.3670   31.5800   45.9860 O   0  0  0  0  0  0  0  0  0  0  0  0
   58.5500   33.0900   44.5550 C   0  0  0  0  0  0  0  0  0  0  0  0
   57.4060   32.8620   43.6540 N   0  0  0  0  0  0  0  0  0  0  0  0
   57.6330   31.8250   42.6260 C   0  0  0  0  0  0  0  0  0  0  0  0
   56.7620   30.5870   42.8760 C   0  0  0  0  0  0  0  0  0  0  0  0
   57.4690   32.3500   41.1900 C   0  0  0  0  0  0  0  0  0  0  0  0
   59.1813   35.3766   48.2892 H   0  0  0  0  0  0  0  0  0  0  0  0
   60.1237   34.9250   46.8281 H   0  0  0  0  0  0  0  0  0  0  0  0
   58.3346   34.7643   46.8281 H   0  0  0  0  0  0  0  0  0  0  0  0
   60.2944   33.1672   48.5569 H   0  0  0  0  0  0  0  0  0  0  0  0
   58.4969   33.0240   48.5896 H   0  0  0  0  0  0  0  0  0  0  0  0
   61.0193   31.3561   45.8432 H   0  0  0  0  0  0  0  0  0  0  0  0
   61.2040   31.4960   47.6295 H   0  0  0  0  0  0  0  0  0  0  0  0
   58.5720   30.0940   45.3420 H   0  0  0  0  0  0  0  0  0  0  0  0
   60.4255   27.1085   45.9994 H   0  0  0  0  0  0  0  0  0  0  0  0
   59.4934   24.7931   45.9996 H   0  0  0  0  0  0  0  0  0  0  0  0
   56.4036   28.7266   45.9702 H   0  0  0  0  0  0  0  0  0  0  0  0
   53.6225   24.9924   45.9852 H   0  0  0  0  0  0  0  0  0  0  0  0
   54.6786   24.8937   44.5277 H   0  0  0  0  0  0  0  0  0  0  0  0
   55.3312   24.0003   47.3814 H   0  0  0  0  0  0  0  0  0  0  0  0
   55.2031   22.9823   45.8998 H   0  0  0  0  0  0  0  0  0  0  0  0
   58.5996   34.1584   44.8121 H   0  0  0  0  0  0  0  0  0  0  0  0
   59.4715   32.7773   44.0421 H   0  0  0  0  0  0  0  0  0  0  0  0
   56.5870   32.5680   44.2370 H   0  0  0  0  0  0  0  0  0  0  0  0
   58.6868   31.5244   42.7217 H   0  0  0  0  0  0  0  0  0  0  0  0
   56.6511   30.4293   43.9590 H   0  0  0  0  0  0  0  0  0  0  0  0
   55.7707   30.7388   42.4241 H   0  0  0  0  0  0  0  0  0  0  0  0
   57.2398   29.7052   42.4241 H   0  0  0  0  0  0  0  0  0  0  0  0
   57.1411   33.3996   41.2185 H   0  0  0  0  0  0  0  0  0  0  0  0
   58.4316   32.2808   40.6621 H   0  0  0  0  0  0  0  0  0  0  0  0
   56.7170   31.7452   40.6621 H   0  0  0  0  0  0  0  0  0  0  0  0
  1  2  1  0
  2  3  1  0
  3  4  1  0
  4  5  1  0
  5  6  2  0
  5  7  1  0
  7  8  1  0
  8  9  2  0
  9 10  1  0
 10 11  2  0
 11 12  1  0
 12 13  2  0
 12 14  1  0
 14 15  1  0
 15 16  1  0
 16 17  1  0
  3 18  1  0
 18 19  2  0
 18 20  1  0
 20 21  1  0
 21 22  1  0
 22 23  1  0
 22 24  1  0
 13  8  1  0
 17 11  1  0
  1 25  1  0
  1 26  1  0
  1 27  1  0
  2 28  1  0
  2 29  1  0
  4 30  1  0
  4 31  1  0
  7 32  1  0
  9 33  1  0
 10 34  1  0
 13 35  1  0
 15 36  1  0
 15 37  1  0
 16 38  1  0
 16 39  1  0
 20 40  1  0
 20 41  1  0
 21 42  1  0
 22 43  1  0
 23 44  1  0
 23 45  1  0
 23 46  1  0
 24 47  1  0
 24 48  1  0
 24 49  1  0
M  END
>  <UniqueID>  (12) 
12

>  <SMILES>  (12) 
CCN(CC(=O)Nc1ccc2c(c1)OCCO2)C(=O)CNC(C)C

>  <Energy>  (12) 
45.792084593158485

>  <Genealogy>  (12) 
CCN(CC(=O)Nc1ccc2c(c1)OCCO2)C(=O)CNC(C)C (3D coordinates assigned)
CCN(CC(=O)Nc1ccc2c(c1)OCCO2)C(=O)CNC(C)C (nonaromatic ring conformer: 45.792084593158485 kcal/mol)

>  <smiles>  (12) 
CCN(CC(=O)Nc1ccc2c(c1)OCCO2)C(=O)CNC(C)C

>  <score_type>  (12) 
oracle

>  <origin>  (12) 
adg

>  <m_score__min__energy>  (12) 
-6.5099999999999998

>  <m_primary>  (12) 
energy

$$$$
12:0
     RDKit          3D

 63 66  0  0  0  0  0  0  0  0999 V2000
   55.8540   29.3790   44.8640 C   0  0  0  0  0  0  0  0  0  0  0  0
   56.8820   28.2500   44.8340 C   0  0  0  0  0  0  0  0  0  0  0  0
   57.0160   27.6130   46.1530 N   0  0  0  0  0  0  0  0  0  0  0  0
   56.9720   26.1380   46.1230 C   0  0  0  0  0  0  0  0  0  0  0  0
   58.0740   25.4500   46.9500 C   0  0  0  0  0  0  0  0  0  0  0  0
   58.8550   26.4340   47.7140 N   0  0  0  0  0  0  0  0  0  0  0  0
   60.2980   26.3400   47.4440 C   0  0  0  0  0  0  0  0  0  0  0  0
   60.7200   27.1580   46.2010 C   0  0  0  0  0  0  0  0  0  0  0  0
   59.6080   27.9440   45.6410 N   0  0  0  0  0  0  0  0  0  0  0  0
   60.0700   28.9180   44.6410 C   0  0  0  0  0  0  0  0  0  0  0  0
   59.1960   30.1750   44.6660 C   0  0  0  0  0  0  0  0  0  0  0  0
   58.5150   30.3160   45.9540 N   0  0  0  0  0  0  0  0  0  0  0  0
   58.8300   31.3940   46.8490 C   0  0  0  0  0  0  0  0  0  0  0  0
   58.9100   31.1720   48.2200 C   0  0  0  0  0  0  0  0  0  0  0  0
   59.1830   32.2020   49.1040 C   0  0  0  0  0  0  0  0  0  0  0  0
   59.5080   33.4600   48.6640 N   0  0  0  0  0  0  0  0  0  0  0  0
   60.1020   34.4340   49.5950 C   0  0  0  0  0  0  0  0  0  0  0  0
   59.3350   33.7560   47.3200 C   0  0  0  0  0  0  0  0  0  0  0  0
   59.4310   35.0830   46.8350 C   0  0  0  0  0  0  0  0  0  0  0  0
   59.2880   35.3630   45.4750 C   0  0  0  0  0  0  0  0  0  0  0  0
   59.0350   34.3380   44.5690 C   0  0  0  0  0  0  0  0  0  0  0  0
   58.9010   33.0260   45.0150 C   0  0  0  0  0  0  0  0  0  0  0  0
   59.0260   32.7150   46.3840 C   0  0  0  0  0  0  0  0  0  0  0  0
   59.1460   31.6460   50.4800 C   0  0  0  0  0  0  0  0  0  0  0  0
   59.1360   32.2690   51.7370 C   0  0  0  0  0  0  0  0  0  0  0  0
   59.0100   31.4690   52.8850 C   0  0  0  0  0  0  0  0  0  0  0  0
   58.8500   30.0740   52.7720 C   0  0  0  0  0  0  0  0  0  0  0  0
   58.7930   29.4690   51.5080 C   0  0  0  0  0  0  0  0  0  0  0  0
   58.9340   30.2790   50.3820 C   0  0  0  0  0  0  0  0  0  0  0  0
   58.7900   29.9280   48.9790 C   0  0  0  0  0  0  0  0  0  0  0  0
   58.6250   28.7700   48.5150 O   0  0  0  0  0  0  0  0  0  0  0  0
   55.6209   29.6350   45.9081 H   0  0  0  0  0  0  0  0  0  0  0  0
   56.2644   30.2623   44.3528 H   0  0  0  0  0  0  0  0  0  0  0  0
   54.9362   29.0529   44.3528 H   0  0  0  0  0  0  0  0  0  0  0  0
   56.5623   27.4938   44.1019 H   0  0  0  0  0  0  0  0  0  0  0  0
   57.8568   28.6758   44.5538 H   0  0  0  0  0  0  0  0  0  0  0  0
   57.9030   27.9320   46.6030 H   0  0  0  0  0  0  0  0  0  0  0  0
   55.9961   25.8152   46.5148 H   0  0  0  0  0  0  0  0  0  0  0  0
   57.1344   25.8411   45.0764 H   0  0  0  0  0  0  0  0  0  0  0  0
   57.6081   24.7401   47.6493 H   0  0  0  0  0  0  0  0  0  0  0  0
   58.7519   24.9253   46.2607 H   0  0  0  0  0  0  0  0  0  0  0  0
   58.5310   27.3970   47.4590 H   0  0  0  0  0  0  0  0  0  0  0  0
   60.8465   26.7188   48.3190 H   0  0  0  0  0  0  0  0  0  0  0  0
   60.5340   25.2840   47.2464 H   0  0  0  0  0  0  0  0  0  0  0  0
   61.5287   27.8459   46.4889 H   0  0  0  0  0  0  0  0  0  0  0  0
   61.0502   26.4476   45.4288 H   0  0  0  0  0  0  0  0  0  0  0  0
   59.1120   28.4370   46.4180 H   0  0  0  0  0  0  0  0  0  0  0  0
   61.1106   29.1972   44.8627 H   0  0  0  0  0  0  0  0  0  0  0  0
   60.0022   28.4598   43.6433 H   0  0  0  0  0  0  0  0  0  0  0  0
   59.8304   31.0574   44.4962 H   0  0  0  0  0  0  0  0  0  0  0  0
   58.4358   30.0885   43.8757 H   0  0  0  0  0  0  0  0  0  0  0  0
   57.9910   29.4930   46.3310 H   0  0  0  0  0  0  0  0  0  0  0  0
   59.9085   34.1167   50.6303 H   0  0  0  0  0  0  0  0  0  0  0  0
   61.1874   34.4888   49.4251 H   0  0  0  0  0  0  0  0  0  0  0  0
   59.6538   35.4241   49.4251 H   0  0  0  0  0  0  0  0  0  0  0  0
   59.6211   35.9053   47.5405 H   0  0  0  0  0  0  0  0  0  0  0  0
   59.3758   36.3996   45.1177 H   0  0  0  0  0  0  0  0  0  0  0  0
   58.9405   34.5649   43.4968 H   0  0  0  0  0  0  0  0  0  0  0  0
   58.6954   32.2236   44.2913 H   0  0  0  0  0  0  0  0  0  0  0  0
   59.2250   33.3621   51.8220 H   0  0  0  0  0  0  0  0  0  0  0  0
   59.0365   31.9359   53.8806 H   0  0  0  0  0  0  0  0  0  0  0  0
   58.7694   29.4567   53.6789 H   0  0  0  0  0  0  0  0  0  0  0  0
   58.6411   28.3842   51.4077 H   0  0  0  0  0  0  0  0  0  0  0  0
  1  2  1  0
  2  3  1  0
  3  4  1  0
  4  5  1  0
  5  6  1  0
  6  7  1  0
  7  8  1  0
  8  9  1  0
  9 10  1  0
 10 11  1  0
 11 12  1  0
 12 13  1  0
 13 14  2  0
 14 15  1  0
 15 16  2  0
 16 17  1  0
 16 18  1  0
 18 19  2  0
 19 20  1  0
 20 21  2  0
 21 22  1  0
 22 23  2  0
 15 24  1  0
 24 25  2  0
 25 26  1  0
 26 27  2  0
 27 28  1  0
 28 29  2  0
 29 30  1  0
 30 31  2  0
 23 13  1  0
 29 24  1  0
 30 14  1  0
 23 18  1  0
  1 32  1  0
  1 33  1  0
  1 34  1  0
  2 35  1  0
  2 36  1  0
  3 37  1  0
  4 38  1  0
  4 39  1  0
  5 40  1  0
  5 41  1  0
  6 42  1  0
  7 43  1  0
  7 44  1  0
  8 45  1  0
  8 46  1  0
  9 47  1  0
 10 48  1  0
 10 49  1  0
 11 50  1  0
 11 51  1  0
 12 52  1  0
 17 53  1  0
 17 54  1  0
 17 55  1  0
 19 56  1  0
 20 57  1  0
 21 58  1  0
 22 59  1  0
 25 60  1  0
 26 61  1  0
 27 62  1  0
 28 63  1  0
M  CHG  1  16   1
M  END
>  <UniqueID>  (13) 
13

>  <SMILES>  (13) 
CCNCCNCCNCCNc1c2c([n+](C)c3ccccc13)-c1ccccc1C2=O

>  <Energy>  (13) 
115.57208363619986

>  <Genealogy>  (13) 
CCNCCNCCNCCNc1c2c([n+](C)c3ccccc13)-c1ccccc1C2=O (3D coordinates assigned)
CCNCCNCCNCCNc1c2c([n+](C)c3ccccc13)-c1ccccc1C2=O (nonaromatic ring conformer: 115.57208363619986 kcal/mol)

>  <smiles>  (13) 
CCNCCNCCNCCNc1c2c([n+](C)c3ccccc13)-c1ccccc1C2=O

>  <score_type>  (13) 
oracle

>  <origin>  (13) 
adg

>  <m_score__min__energy>  (13) 
-6.3899999999999997

>  <m_primary>  (13) 
energy

$$$$
13:0
     RDKit          3D

 46 47  0  0  0  0  0  0  0  0999 V2000
   56.6170   23.4200   44.4230 C   0  0  0  0  0  0  0  0  0  0  0  0
   57.8110   24.2820   44.8210 C   0  0  0  0  0  0  0  0  0  0  0  0
   58.1950   24.0510   46.2870 C   0  0  0  0  0  0  0  0  0  0  0  0
   57.3590   24.9330   47.2220 C   0  0  0  0  0  0  0  0  0  0  0  0
   57.2560   26.3050   46.6810 N   0  0  0  0  0  0  0  0  0  0  0  0
   58.2700   27.2240   46.8630 C   0  0  0  0  0  0  0  0  0  0  0  0
   59.4600   26.8900   47.6020 N   0  0  0  0  0  0  0  0  0  0  0  0
   58.1500   28.5140   46.3090 C   0  0  0  0  0  0  0  0  0  0  0  0
   59.1800   29.5020   46.4920 N   0  0  0  0  0  0  0  0  0  0  0  0
   60.1440   29.7150   45.4020 C   0  0  0  0  0  0  0  0  0  0  0  0
   60.2150   28.4890   44.4970 C   0  0  0  0  0  0  0  0  0  0  0  0
   59.2630   30.1970   47.7560 C   0  0  0  0  0  0  0  0  0  0  0  0
   59.9080   29.6720   48.7050 O   0  0  0  0  0  0  0  0  0  0  0  0
   58.5430   31.5000   48.0080 C   0  0  0  0  0  0  0  0  0  0  0  0
   58.7800   32.4740   46.8950 C   0  0  0  0  0  0  0  0  0  0  0  0
   59.8660   33.3330   46.7860 C   0  0  0  0  0  0  0  0  0  0  0  0
   59.7890   34.1770   45.6720 C   0  0  0  0  0  0  0  0  0  0  0  0
   58.6410   33.9920   44.9110 C   0  0  0  0  0  0  0  0  0  0  0  0
   57.7200   32.7800   45.6270 S   0  0  0  0  0  0  0  0  0  0  0  0
   56.9960   28.8320   45.5910 C   0  0  0  0  0  0  0  0  0  0  0  0
   56.8640   29.9740   45.0750 O   0  0  0  0  0  0  0  0  0  0  0  0
   56.0080   27.9150   45.4600 N   0  0  0  0  0  0  0  0  0  0  0  0
   56.1190   26.6730   46.0000 C   0  0  0  0  0  0  0  0  0  0  0  0
   55.1600   25.8630   45.8650 O   0  0  0  0  0  0  0  0  0  0  0  0
   56.1106   23.0544   45.3285 H   0  0  0  0  0  0  0  0  0  0  0  0
   55.9140   24.0202   43.8267 H   0  0  0  0  0  0  0  0  0  0  0  0
   56.9654   22.5638   43.8267 H   0  0  0  0  0  0  0  0  0  0  0  0
   58.6680   24.0261   44.1807 H   0  0  0  0  0  0  0  0  0  0  0  0
   57.5357   25.3395   44.6947 H   0  0  0  0  0  0  0  0  0  0  0  0
   58.0236   22.9946   46.5411 H   0  0  0  0  0  0  0  0  0  0  0  0
   59.2557   24.3124   46.4158 H   0  0  0  0  0  0  0  0  0  0  0  0
   56.3504   24.5048   47.3185 H   0  0  0  0  0  0  0  0  0  0  0  0
   57.8483   24.9734   48.2064 H   0  0  0  0  0  0  0  0  0  0  0  0
   59.8630   25.9300   47.6160 H   0  0  0  0  0  0  0  0  0  0  0  0
   59.9290   27.5930   48.2150 H   0  0  0  0  0  0  0  0  0  0  0  0
   59.8297   30.5852   44.8070 H   0  0  0  0  0  0  0  0  0  0  0  0
   61.1383   29.8900   45.8387 H   0  0  0  0  0  0  0  0  0  0  0  0
   60.2676   27.5801   45.1144 H   0  0  0  0  0  0  0  0  0  0  0  0
   59.3176   28.4495   43.8620 H   0  0  0  0  0  0  0  0  0  0  0  0
   61.1109   28.5534   43.8620 H   0  0  0  0  0  0  0  0  0  0  0  0
   57.4637   31.3037   48.0892 H   0  0  0  0  0  0  0  0  0  0  0  0
   58.9291   31.9365   48.9409 H   0  0  0  0  0  0  0  0  0  0  0  0
   60.7011   33.3485   47.5018 H   0  0  0  0  0  0  0  0  0  0  0  0
   60.5639   34.9168   45.4225 H   0  0  0  0  0  0  0  0  0  0  0  0
   58.3792   34.5440   43.9963 H   0  0  0  0  0  0  0  0  0  0  0  0
   55.1400   28.1710   44.9340 H   0  0  0  0  0  0  0  0  0  0  0  0
  1  2  1  0
  2  3  1  0
  3  4  1  0
  4  5  1  0
  5  6  1  0
  6  7  1  0
  6  8  2  0
  8  9  1  0
  9 10  1  0
 10 11  1  0
  9 12  1  0
 12 13  2  0
 12 14  1  0
 14 15  1  0
 15 16  2  0
 16 17  1  0
 17 18  2  0
 18 19  1  0
  8 20  1  0
 20 21  2  0
 20 22  1  0
 22 23  1  0
 23 24  2  0
 23  5  1  0
 19 15  1  0
  1 25  1  0
  1 26  1  0
  1 27  1  0
  2 28  1  0
  2 29  1  0
  3 30  1  0
  3 31  1  0
  4 32  1  0
  4 33  1  0
  7 34  1  0
  7 35  1  0
 10 36  1  0
 10 37  1  0
 11 38  1  0
 11 39  1  0
 11 40  1  0
 14 41  1  0
 14 42  1  0
 16 43  1  0
 17 44  1  0
 18 45  1  0
 22 46  1  0
M  END
>  <UniqueID>  (14) 
14

>  <SMILES>  (14) 
CCCCn1c(N)c(N(CC)C(=O)Cc2cccs2)c(=O)[nH]c1=O

>  <Energy>  (14) 
74.50418239883962

>  <Genealogy>  (14) 
CCCCn1c(N)c(N(CC)C(=O)Cc2cccs2)c(=O)[nH]c1=O (3D coordinates assigned)
CCCCn1c(N)c(N(CC)C(=O)Cc2cccs2)c(=O)[nH]c1=O (optimized conformer: 74.50418239883962 kcal/mol)

>  <smiles>  (14) 
CCCCn1c(N)c(N(CC)C(=O)Cc2cccs2)c(=O)[nH]c1=O

>  <score_type>  (14) 
oracle

>  <origin>  (14) 
adg

>  <m_score__min__energy>  (14) 
-7.0899999999999999

>  <m_primary>  (14) 
energy

$$$$
14:0
     RDKit          3D

 22 22  0  0  0  0  0  0  0  0999 V2000
   58.4490   26.7640   45.4580 C   0  0  0  0  0  0  0  0  0  0  0  0
   57.7610   27.6380   44.4030 C   0  0  0  0  0  0  0  0  0  0  0  0
   58.1370   27.1700   42.9940 C   0  0  0  0  0  0  0  0  0  0  0  0
   58.1350   29.0450   44.5830 N   0  0  0  0  0  0  0  0  0  0  0  0
   57.1560   30.0770   44.7850 C   0  0  0  0  0  0  0  0  0  0  0  0
   55.9360   29.7710   44.8690 O   0  0  0  0  0  0  0  0  0  0  0  0
   57.5670   31.4940   44.8990 C   0  0  0  0  0  0  0  0  0  0  0  0
   57.7950   32.3200   46.3490 S   0  0  0  0  0  0  0  0  0  0  0  0
   58.2370   33.7950   45.6800 C   0  0  0  0  0  0  0  0  0  0  0  0
   58.2140   33.6650   44.2990 C   0  0  0  0  0  0  0  0  0  0  0  0
   57.8440   32.3870   43.8560 C   0  0  0  0  0  0  0  0  0  0  0  0
   57.7430   31.9810   41.9880 Br  0  0  0  0  0  0  0  0  0  0  0  0
   58.1721   27.1158   46.4628 H   0  0  0  0  0  0  0  0  0  0  0  0
   58.1286   25.7190   45.3341 H   0  0  0  0  0  0  0  0  0  0  0  0
   59.5400   26.8301   45.3341 H   0  0  0  0  0  0  0  0  0  0  0  0
   56.6723   27.5423   44.5281 H   0  0  0  0  0  0  0  0  0  0  0  0
   58.8246   26.3142   43.0632 H   0  0  0  0  0  0  0  0  0  0  0  0
   57.2281   26.8673   42.4534 H   0  0  0  0  0  0  0  0  0  0  0  0
   58.6284   27.9924   42.4534 H   0  0  0  0  0  0  0  0  0  0  0  0
   59.1490   29.2990   44.5890 H   0  0  0  0  0  0  0  0  0  0  0  0
   58.4990   34.7054   46.2390 H   0  0  0  0  0  0  0  0  0  0  0  0
   58.4632   34.4890   43.6142 H   0  0  0  0  0  0  0  0  0  0  0  0
  1  2  1  0
  2  3  1  0
  2  4  1  0
  4  5  1  0
  5  6  2  0
  5  7  1  0
  7  8  1  0
  8  9  1  0
  9 10  2  0
 10 11  1  0
 11 12  1  0
 11  7  2  0
  1 13  1  0
  1 14  1  0
  1 15  1  0
  2 16  1  0
  3 17  1  0
  3 18  1  0
  3 19  1  0
  4 20  1  0
  9 21  1  0
 10 22  1  0
M  END
>  <UniqueID>  (15) 
15

>  <SMILES>  (15) 
CC(C)NC(=O)c1sccc1Br

>  <Energy>  (15) 
41.00098005815454

>  <Genealogy>  (15) 
CC(C)NC(=O)c1sccc1Br (3D coordinates assigned)
CC(C)NC(=O)c1sccc1Br (optimized conformer: 41.00098005815454 kcal/mol)

>  <smiles>  (15) 
CC(C)NC(=O)c1sccc1Br

>  <score_type>  (15) 
oracle

>  <origin>  (15) 
adg

>  <m_score__min__energy>  (15) 
-5.5899999999999999

>  <m_primary>  (15) 
energy

$$$$
15:0
     RDKit          3D

 15 14  0  0  0  0  0  0  0  0999 V2000
   58.0164   33.0187   42.7131 H   0  0  0  0  0  0  0  0  0  0  0  0
   58.1210   32.3750   43.5990 C   0  0  0  0  0  0  0  0  0  0  0  0
   58.5260   32.9710   44.8480 N   0  0  0  0  0  0  0  0  0  0  0  0
   58.7770   34.4130   44.8660 C   0  0  0  0  0  0  0  0  0  0  0  0
   58.8377   34.7616   45.9075 H   0  0  0  0  0  0  0  0  0  0  0  0
   59.7258   34.6265   44.3520 H   0  0  0  0  0  0  0  0  0  0  0  0
   57.9561   34.9345   44.3520 H   0  0  0  0  0  0  0  0  0  0  0  0
   58.6860   32.1740   46.0690 C   0  0  0  0  0  0  0  0  0  0  0  0
   58.5561   32.8212   46.9489 H   0  0  0  0  0  0  0  0  0  0  0  0
   57.9304   31.3748   46.0868 H   0  0  0  0  0  0  0  0  0  0  0  0
   59.6915   31.7284   46.0868 H   0  0  0  0  0  0  0  0  0  0  0  0
   57.8750   31.1030   43.4830 N   0  0  0  0  0  0  0  0  0  0  0  0
   58.5260   30.4580   42.9850 H   0  0  0  0  0  0  0  0  0  0  0  0
   56.7100   30.5500   44.0350 C   0  0  0  0  0  0  0  0  0  0  0  0
   55.7480   30.0940   44.4900 N   0  0  0  0  0  0  0  0  0  0  0  0
  1  2  1  0
  2  3  1  0
  3  4  1  0
  4  5  1  0
  4  6  1  0
  4  7  1  0
  3  8  1  0
  8  9  1  0
  8 10  1  0
  8 11  1  0
  2 12  2  0
 12 13  1  0
 12 14  1  0
 14 15  3  0
M  CHG  1  12   1
M  END
>  <UniqueID>  (16) 
16

>  <SMILES>  (16) 
CN(C)/C=[NH+]/C#N

>  <Energy>  (16) 
6.443573715947204

>  <Genealogy>  (16) 
CN(C)C=[NH+]C#N (protonated)
CN(C)/C=[NH+]/C#N (cis-trans isomerization)
CN(C)/C=[NH+]/C#N (3D coordinates assigned)
CN(C)/C=[NH+]/C#N (optimized conformer: 6.443573715947204 kcal/mol)

>  <smiles>  (16) 
CN(C)C=NC#N

>  <score_type>  (16) 
oracle

>  <origin>  (16) 
adg

>  <m_score__min__energy>  (16) 
-1.6499999999999999

>  <m_primary>  (16) 
energy

$$$$
16:0
     RDKit          3D

 48 49  0  0  0  0  0  0  0  0999 V2000
   63.2760   33.8500   46.3400 C   0  0  0  0  0  0  0  0  0  0  0  0
   63.5650   32.6470   47.2470 C   0  0  0  0  0  0  0  0  0  0  0  0
   63.3200   32.9500   48.6800 N   0  0  2  0  0  0  0  0  0  0  0  0
   64.5750   32.7820   49.4390 C   0  0  0  0  0  0  0  0  0  0  0  0
   62.2550   32.0700   49.2370 C   0  0  0  0  0  0  0  0  0  0  0  0
   60.8850   32.7610   49.2880 C   0  0  0  0  0  0  0  0  0  0  0  0
   60.8990   33.8990   48.4470 O   0  0  0  0  0  0  0  0  0  0  0  0
   59.6450   34.5570   48.4520 C   0  0  0  0  0  0  0  0  0  0  0  0
   58.9050   34.3890   47.1180 C   0  0  0  0  0  0  0  0  0  0  0  0
   59.5480   33.3690   46.2880 N   0  0  0  0  0  0  0  0  0  0  0  0
   58.8070   32.4300   45.4870 C   0  0  0  0  0  0  0  0  0  0  0  0
   58.1610   32.8710   44.3240 C   0  0  0  0  0  0  0  0  0  0  0  0
   57.4070   31.9950   43.5480 C   0  0  0  0  0  0  0  0  0  0  0  0
   57.2680   30.6500   43.9100 C   0  0  0  0  0  0  0  0  0  0  0  0
   56.4360   29.7470   43.0330 C   0  0  0  0  0  0  0  0  0  0  0  0
   57.9110   30.1740   45.0820 C   0  0  0  0  0  0  0  0  0  0  0  0
   57.8060   28.8240   45.4810 C   0  0  0  0  0  0  0  0  0  0  0  0
   58.4570   28.3660   46.6270 C   0  0  0  0  0  0  0  0  0  0  0  0
   59.2260   29.2390   47.3900 C   0  0  0  0  0  0  0  0  0  0  0  0
   59.3460   30.5780   47.0210 C   0  0  0  0  0  0  0  0  0  0  0  0
   58.6870   31.0720   45.8730 C   0  0  0  0  0  0  0  0  0  0  0  0
   63.0637   34.7337   46.9596 H   0  0  0  0  0  0  0  0  0  0  0  0
   64.1518   34.0492   45.7050 H   0  0  0  0  0  0  0  0  0  0  0  0
   62.4052   33.6296   45.7050 H   0  0  0  0  0  0  0  0  0  0  0  0
   62.9148   31.8125   46.9457 H   0  0  0  0  0  0  0  0  0  0  0  0
   64.6283   32.3885   47.1347 H   0  0  0  0  0  0  0  0  0  0  0  0
   63.0370   33.9560   48.7660 H   0  0  0  0  0  0  0  0  0  0  0  0
   64.3582   32.8110   50.5170 H   0  0  0  0  0  0  0  0  0  0  0  0
   65.0318   31.8147   49.1828 H   0  0  0  0  0  0  0  0  0  0  0  0
   65.2701   33.5951   49.1828 H   0  0  0  0  0  0  0  0  0  0  0  0
   62.1737   31.1726   48.6060 H   0  0  0  0  0  0  0  0  0  0  0  0
   62.5386   31.8160   50.2690 H   0  0  0  0  0  0  0  0  0  0  0  0
   60.1085   32.0613   48.9453 H   0  0  0  0  0  0  0  0  0  0  0  0
   60.6690   33.0712   50.3210 H   0  0  0  0  0  0  0  0  0  0  0  0
   59.0257   34.1359   49.2577 H   0  0  0  0  0  0  0  0  0  0  0  0
   59.8242   35.6308   48.6095 H   0  0  0  0  0  0  0  0  0  0  0  0
   57.8661   34.0879   47.3180 H   0  0  0  0  0  0  0  0  0  0  0  0
   58.9306   35.3476   46.5791 H   0  0  0  0  0  0  0  0  0  0  0  0
   60.5750   33.2220   46.4070 H   0  0  0  0  0  0  0  0  0  0  0  0
   58.2510   33.9243   44.0200 H   0  0  0  0  0  0  0  0  0  0  0  0
   56.9134   32.3651   42.6373 H   0  0  0  0  0  0  0  0  0  0  0  0
   55.8254   29.0843   43.6638 H   0  0  0  0  0  0  0  0  0  0  0  0
   55.7775   30.3578   42.3979 H   0  0  0  0  0  0  0  0  0  0  0  0
   57.0986   29.1406   42.3979 H   0  0  0  0  0  0  0  0  0  0  0  0
   57.2041   28.1251   44.8816 H   0  0  0  0  0  0  0  0  0  0  0  0
   58.3620   27.3122   46.9279 H   0  0  0  0  0  0  0  0  0  0  0  0
   59.7420   28.8708   48.2890 H   0  0  0  0  0  0  0  0  0  0  0  0
   59.9604   31.2573   47.6302 H   0  0  0  0  0  0  0  0  0  0  0  0
  1  2  1  0
  2  3  1  0
  3  4  1  0
  3  5  1  0
  5  6  1  0
  6  7  1  0
  7  8  1  0
  8  9  1  0
  9 10  1  0
 10 11  1  0
 11 12  2  0
 12 13  1  0
 13 14  2  0
 14 15  1  0
 14 16  1  0
 16 17  2  0
 17 18  1  0
 18 19  2  0
 19 20  1  0
 20 21  2  0
 21 11  1  0
 21 16  1  0
  1 22  1  0
  1 23  1  0
  1 24  1  0
  2 25  1  0
  2 26  1  0
  3 27  1  6
  4 28  1  0
  4 29  1  0
  4 30  1  0
  5 31  1  0
  5 32  1  0
  6 33  1  0
  6 34  1  0
  8 35  1  0
  8 36  1  0
  9 37  1  0
  9 38  1  0
 10 39  1  0
 12 40  1  0
 13 41  1  0
 15 42  1  0
 15 43  1  0
 15 44  1  0
 17 45  1  0
 18 46  1  0
 19 47  1  0
 20 48  1  0
M  CHG  1   3   1
M  END
>  <UniqueID>  (17) 
17

>  <SMILES>  (17) 
CC[N@H+](C)CCOCCNc1ccc(C)c2ccccc12

>  <Energy>  (17) 
57.75986018710933

>  <Genealogy>  (17) 
CC[NH+](C)CCOCCNc1ccc(C)c2ccccc12 (protonated)
CC[N@H+](C)CCOCCNc1ccc(C)c2ccccc12 (chirality)
CC[N@H+](C)CCOCCNc1ccc(C)c2ccccc12 (3D coordinates assigned)
CC[N@H+](C)CCOCCNc1ccc(C)c2ccccc12 (optimized conformer: 57.75986018710933 kcal/mol)

>  <smiles>  (17) 
CCN(C)CCOCCNc1ccc(C)c2ccccc12

>  <score_type>  (17) 
oracle

>  <origin>  (17) 
adg

>  <m_score__min__energy>  (17) 
-4.9800000000000004

>  <m_primary>  (17) 
energy

$$$$
17:0
     RDKit          3D

 45 49  0  0  1  0  0  0  0  0999 V2000
   56.6460   22.0140   42.8520 C   0  0  0  0  0  0  0  0  0  0  0  0
   57.6470   21.5800   43.6950 C   0  0  0  0  0  0  0  0  0  0  0  0
   58.2110   22.4030   44.6630 C   0  0  0  0  0  0  0  0  0  0  0  0
   57.7380   23.6970   44.7710 C   0  0  0  0  0  0  0  0  0  0  0  0
   58.2650   24.6610   45.7690 C   0  0  0  0  0  0  0  0  0  0  0  0
   57.6280   25.9860   45.5800 C   0  0  0  0  0  0  0  0  0  0  0  0
   58.1800   27.1290   45.0360 C   0  0  0  0  0  0  0  0  0  0  0  0
   57.1840   28.0900   45.0840 C   0  0  0  0  0  0  0  0  0  0  0  0
   57.3300   29.4610   44.6100 C   0  0  0  0  0  0  0  0  0  0  0  0
   56.8990   29.8140   43.3490 C   0  0  0  0  0  0  0  0  0  0  0  0
   57.0230   31.1180   42.8630 C   0  0  0  0  0  0  0  0  0  0  0  0
   57.6080   32.0680   43.7070 C   0  0  0  0  0  0  0  0  0  0  0  0
   58.0320   31.6890   44.9650 C   0  0  0  0  0  0  0  0  0  0  0  0
   58.6230   32.6760   45.8040 N   0  0  0  0  0  0  0  0  0  0  0  0
   58.0640   33.0540   47.1030 C   0  0  0  0  0  0  0  0  0  0  0  0
   58.9640   34.1950   47.5640 C   0  0  1  0  0  0  0  0  0  0  0  0
   60.2890   33.6200   47.0820 C   0  0  0  0  0  0  0  0  0  0  0  0
   59.7900   33.4820   45.6340 C   0  0  2  0  0  0  0  0  0  0  0  0
   59.2850   34.9060   45.4820 C   0  0  0  0  0  0  0  0  0  0  0  0
   58.8060   35.2890   46.7340 O   0  0  0  0  0  0  0  0  0  0  0  0
   57.8940   30.4170   45.3990 N   0  0  0  0  0  0  0  0  0  0  0  0
   56.0700   27.5440   45.6390 N   0  0  0  0  0  0  0  0  0  0  0  0
   56.3700   26.2870   45.9230 N   0  0  0  0  0  0  0  0  0  0  0  0
   56.7260   24.1690   43.9350 C   0  0  0  0  0  0  0  0  0  0  0  0
   56.1950   23.3100   42.9830 C   0  0  0  0  0  0  0  0  0  0  0  0
   56.2177   21.3424   42.0934 H   0  0  0  0  0  0  0  0  0  0  0  0
   58.0119   20.5468   43.5982 H   0  0  0  0  0  0  0  0  0  0  0  0
   59.0101   22.0352   45.3234 H   0  0  0  0  0  0  0  0  0  0  0  0
   58.0459   24.2927   46.7821 H   0  0  0  0  0  0  0  0  0  0  0  0
   59.3523   24.7609   45.6352 H   0  0  0  0  0  0  0  0  0  0  0  0
   59.2009   27.2510   44.6450 H   0  0  0  0  0  0  0  0  0  0  0  0
   56.4439   29.0461   42.7063 H   0  0  0  0  0  0  0  0  0  0  0  0
   56.6740   31.3874   41.8552 H   0  0  0  0  0  0  0  0  0  0  0  0
   57.7292   33.1084   43.3711 H   0  0  0  0  0  0  0  0  0  0  0  0
   57.0228   33.3931   46.9985 H   0  0  0  0  0  0  0  0  0  0  0  0
   58.0371   32.2168   47.8160 H   0  0  0  0  0  0  0  0  0  0  0  0
   58.8212   34.4836   48.6158 H   0  0  0  0  0  0  0  0  0  0  0  0
   61.1335   34.3166   47.1895 H   0  0  0  0  0  0  0  0  0  0  0  0
   60.6995   32.7343   47.5890 H   0  0  0  0  0  0  0  0  0  0  0  0
   60.4631   33.1041   44.8504 H   0  0  0  0  0  0  0  0  0  0  0  0
   60.1049   35.5692   45.1691 H   0  0  0  0  0  0  0  0  0  0  0  0
   58.4975   34.9705   44.7167 H   0  0  0  0  0  0  0  0  0  0  0  0
   55.1450   28.0350   45.8080 H   0  0  0  0  0  0  0  0  0  0  0  0
   56.3564   25.2008   44.0284 H   0  0  0  0  0  0  0  0  0  0  0  0
   55.3965   23.6714   42.3183 H   0  0  0  0  0  0  0  0  0  0  0  0
  1  2  2  0
  2  3  1  0
  3  4  2  0
  4  5  1  0
  5  6  1  0
  6  7  1  0
  7  8  2  0
  8  9  1  0
  9 10  2  0
 10 11  1  0
 11 12  2  0
 12 13  1  0
 13 14  1  0
 14 15  1  0
 15 16  1  0
 16 17  1  0
 17 18  1  0
 18 19  1  0
 19 20  1  0
 13 21  2  0
  8 22  1  0
 22 23  1  0
  4 24  1  0
 24 25  2  0
 25  1  1  0
 23  6  2  0
 21  9  1  0
 18 14  1  0
 20 16  1  0
  1 26  1  0
  2 27  1  0
  3 28  1  0
  5 29  1  0
  5 30  1  0
  7 31  1  0
 10 32  1  0
 11 33  1  0
 12 34  1  0
 15 35  1  0
 15 36  1  0
 16 37  1  1
 17 38  1  0
 17 39  1  0
 18 40  1  6
 19 41  1  0
 19 42  1  0
 22 43  1  0
 24 44  1  0
 25 45  1  0
M  END
>  <smiles>  (18) 
c1ccc(Cc2cc(-c3cccc(N4CC5CC4CO5)n3)[nH]n2)cc1

>  <score_type>  (18) 
oracle

>  <origin>  (18) 
adg

>  <m_score__min__energy>  (18) 
-9.9000000000000004

>  <m_primary>  (18) 
energy

$$$$
18:0
     RDKit          3D

 47 48  0  0  0  0  0  0  0  0999 V2000
   60.0180   34.9580   46.1970 C   0  0  0  0  0  0  0  0  0  0  0  0
   58.9180   34.9140   45.1430 C   0  0  0  0  0  0  0  0  0  0  0  0
   57.6630   34.4450   45.7420 N   0  0  0  0  0  0  0  0  0  0  0  0
   57.9090   33.2730   46.5900 C   0  0  0  0  0  0  0  0  0  0  0  0
   57.8710   31.9950   45.7480 C   0  0  0  0  0  0  0  0  0  0  0  0
   56.7660   32.0000   44.8620 O   0  0  0  0  0  0  0  0  0  0  0  0
   57.0060   31.1950   43.7190 C   0  0  0  0  0  0  0  0  0  0  0  0
   55.9420   30.1070   43.6340 C   0  0  0  0  0  0  0  0  0  0  0  0
   55.8810   29.4300   44.8710 O   0  0  0  0  0  0  0  0  0  0  0  0
   57.1720   29.0200   45.2830 C   0  0  0  0  0  0  0  0  0  0  0  0
   57.1690   27.5690   45.7850 C   0  0  0  0  0  0  0  0  0  0  0  0
   55.8330   26.9840   45.6540 N   0  0  0  0  0  0  0  0  0  0  0  0
   55.5630   25.6190   45.9980 C   0  0  0  0  0  0  0  0  0  0  0  0
   56.5430   24.8170   46.6000 C   0  0  0  0  0  0  0  0  0  0  0  0
   56.2520   23.4890   46.9230 C   0  0  0  0  0  0  0  0  0  0  0  0
   57.1380   22.7760   47.4680 O   0  0  0  0  0  0  0  0  0  0  0  0
   54.9790   22.9640   46.6310 C   0  0  0  0  0  0  0  0  0  0  0  0
   54.6440   21.6260   46.9070 C   0  0  0  0  0  0  0  0  0  0  0  0
   53.3700   21.1420   46.5910 C   0  0  0  0  0  0  0  0  0  0  0  0
   52.4230   21.9850   46.0020 C   0  0  0  0  0  0  0  0  0  0  0  0
   52.7440   23.3170   45.7250 C   0  0  0  0  0  0  0  0  0  0  0  0
   54.0170   23.8100   46.0340 C   0  0  0  0  0  0  0  0  0  0  0  0
   54.3300   25.1020   45.7470 N   0  0  0  0  0  0  0  0  0  0  0  0
   59.5660   34.9399   47.1997 H   0  0  0  0  0  0  0  0  0  0  0  0
   60.6769   34.0855   46.0760 H   0  0  0  0  0  0  0  0  0  0  0  0
   60.6051   35.8803   46.0760 H   0  0  0  0  0  0  0  0  0  0  0  0
   58.7693   35.9227   44.7302 H   0  0  0  0  0  0  0  0  0  0  0  0
   59.2151   34.2213   44.3418 H   0  0  0  0  0  0  0  0  0  0  0  0
   57.0250   34.1470   44.9660 H   0  0  0  0  0  0  0  0  0  0  0  0
   58.8977   33.3675   47.0629 H   0  0  0  0  0  0  0  0  0  0  0  0
   57.1276   33.2179   47.3622 H   0  0  0  0  0  0  0  0  0  0  0  0
   58.7999   31.9225   45.1632 H   0  0  0  0  0  0  0  0  0  0  0  0
   57.7717   31.1337   46.4250 H   0  0  0  0  0  0  0  0  0  0  0  0
   56.9650   31.8200   42.8147 H   0  0  0  0  0  0  0  0  0  0  0  0
   58.0003   30.7313   43.7982 H   0  0  0  0  0  0  0  0  0  0  0  0
   54.9652   30.5622   43.4135 H   0  0  0  0  0  0  0  0  0  0  0  0
   56.1973   29.3977   42.8329 H   0  0  0  0  0  0  0  0  0  0  0  0
   57.8619   29.1016   44.4301 H   0  0  0  0  0  0  0  0  0  0  0  0
   57.4927   29.6703   46.1102 H   0  0  0  0  0  0  0  0  0  0  0  0
   57.8824   26.9789   45.1910 H   0  0  0  0  0  0  0  0  0  0  0  0
   57.4594   27.5589   46.8459 H   0  0  0  0  0  0  0  0  0  0  0  0
   55.1440   27.4810   45.0450 H   0  0  0  0  0  0  0  0  0  0  0  0
   57.5382   25.2321   46.8174 H   0  0  0  0  0  0  0  0  0  0  0  0
   55.3850   20.9591   47.3721 H   0  0  0  0  0  0  0  0  0  0  0  0
   53.1125   20.0945   46.8067 H   0  0  0  0  0  0  0  0  0  0  0  0
   51.4227   21.5992   45.7559 H   0  0  0  0  0  0  0  0  0  0  0  0
   51.9956   23.9782   45.2638 H   0  0  0  0  0  0  0  0  0  0  0  0
  1  2  1  0
  2  3  1  0
  3  4  1  0
  4  5  1  0
  5  6  1  0
  6  7  1  0
  7  8  1  0
  8  9  1  0
  9 10  1  0
 10 11  1  0
 11 12  1  0
 12 13  1  0
 13 14  2  0
 14 15  1  0
 15 16  2  0
 15 17  1  0
 17 18  2  0
 18 19  1  0
 19 20  2  0
 20 21  1  0
 21 22  2  0
 22 23  1  0
 23 13  1  0
 22 17  1  0
  1 24  1  0
  1 25  1  0
  1 26  1  0
  2 27  1  0
  2 28  1  0
  3 29  1  0
  4 30  1  0
  4 31  1  0
  5 32  1  0
  5 33  1  0
  7 34  1  0
  7 35  1  0
  8 36  1  0
  8 37  1  0
 10 38  1  0
 10 39  1  0
 11 40  1  0
 11 41  1  0
 12 42  1  0
 14 43  1  0
 18 44  1  0
 19 45  1  0
 20 46  1  0
 21 47  1  0
M  CHG  1  23  -1
M  END
>  <UniqueID>  (19) 
18

>  <SMILES>  (19) 
CCNCCOCCOCCNc1cc(=O)c2ccccc2[n-]1

>  <Energy>  (19) 
43.42983659646159

>  <Genealogy>  (19) 
CCNCCOCCOCCNc1cc(=O)c2ccccc2[n-]1 (protonated)
CCNCCOCCOCCNc1cc(=O)c2ccccc2[n-]1 (3D coordinates assigned)
CCNCCOCCOCCNc1cc(=O)c2ccccc2[n-]1 (optimized conformer: 43.42983659646159 kcal/mol)

>  <smiles>  (19) 
CCNCCOCCOCCNc1cc(=O)c2ccccc2[nH]1

>  <score_type>  (19) 
oracle

>  <origin>  (19) 
adg

>  <m_score__min__energy>  (19) 
-9.3300000000000001

>  <m_primary>  (19) 
energy

$$$$
