0:0
     RDKit          3D

 48 50  0  0  0  0  0  0  0  0999 V2000
   57.7640   27.6310   46.9260 O   0  0  0  0  0  0  0  0  0  0  0  0
   58.1680   28.8010   46.6790 C   0  0  0  0  0  0  0  0  0  0  0  0
   59.1710   29.4140   47.5850 C   0  0  0  0  0  0  0  0  0  0  0  0
   59.0100   29.3230   48.9740 C   0  0  0  0  0  0  0  0  0  0  0  0
   59.9500   29.8980   49.8270 C   0  0  0  0  0  0  0  0  0  0  0  0
   61.0560   30.5550   49.2870 C   0  0  0  0  0  0  0  0  0  0  0  0
   61.2310   30.6190   47.9330 N   0  0  0  0  0  0  0  0  0  0  0  0
   62.3720   31.3600   47.3810 C   0  0  0  0  0  0  0  0  0  0  0  0
   62.8880   32.3640   48.4160 C   0  0  0  0  0  0  0  0  0  0  0  0
   62.5290   33.8060   48.0280 C   0  0  0  0  0  0  0  0  0  0  0  0
   61.3680   34.3810   48.8580 C   0  0  0  0  0  0  0  0  0  0  0  0
   60.0530   33.5830   48.7500 C   0  0  0  0  0  0  0  0  0  0  0  0
   59.3320   33.7940   47.4410 C   0  0  0  0  0  0  0  0  0  0  0  0
   59.8790   34.6300   46.4510 C   0  0  0  0  0  0  0  0  0  0  0  0
   59.2090   34.8220   45.2390 C   0  0  0  0  0  0  0  0  0  0  0  0
   57.9820   34.1950   45.0100 C   0  0  0  0  0  0  0  0  0  0  0  0
   57.4180   33.3820   45.9950 C   0  0  0  0  0  0  0  0  0  0  0  0
   58.0850   33.1870   47.2090 C   0  0  0  0  0  0  0  0  0  0  0  0
   60.3140   30.0620   47.0850 C   0  0  0  0  0  0  0  0  0  0  0  0
   57.6110   29.5230   45.5110 C   0  0  0  0  0  0  0  0  0  0  0  0
   58.4400   30.3070   44.6890 C   0  0  0  0  0  0  0  0  0  0  0  0
   57.8920   30.9630   43.5850 C   0  0  0  0  0  0  0  0  0  0  0  0
   56.5320   30.8340   43.3030 C   0  0  0  0  0  0  0  0  0  0  0  0
   55.7360   30.0420   44.1320 C   0  0  0  0  0  0  0  0  0  0  0  0
   56.2880   29.4070   45.2010 N   0  0  0  0  0  0  0  0  0  0  0  0
   58.1394   28.7964   49.3921 H   0  0  0  0  0  0  0  0  0  0  0  0
   59.8210   29.8344   50.9176 H   0  0  0  0  0  0  0  0  0  0  0  0
   61.7923   31.0248   49.9557 H   0  0  0  0  0  0  0  0  0  0  0  0
   63.1759   30.6545   47.1242 H   0  0  0  0  0  0  0  0  0  0  0  0
   62.0515   31.9010   46.4785 H   0  0  0  0  0  0  0  0  0  0  0  0
   62.4376   32.1339   49.3928 H   0  0  0  0  0  0  0  0  0  0  0  0
   63.9839   32.2811   48.4612 H   0  0  0  0  0  0  0  0  0  0  0  0
   63.4150   34.4403   48.1783 H   0  0  0  0  0  0  0  0  0  0  0  0
   62.2066   33.7931   46.9764 H   0  0  0  0  0  0  0  0  0  0  0  0
   61.6750   34.3975   49.9142 H   0  0  0  0  0  0  0  0  0  0  0  0
   61.1610   35.3840   48.4566 H   0  0  0  0  0  0  0  0  0  0  0  0
   60.2849   32.5126   48.8522 H   0  0  0  0  0  0  0  0  0  0  0  0
   59.3880   33.9415   49.5495 H   0  0  0  0  0  0  0  0  0  0  0  0
   60.8392   35.1355   46.6313 H   0  0  0  0  0  0  0  0  0  0  0  0
   59.6488   35.4678   44.4646 H   0  0  0  0  0  0  0  0  0  0  0  0
   57.4598   34.3419   44.0531 H   0  0  0  0  0  0  0  0  0  0  0  0
   56.4483   32.8944   45.8162 H   0  0  0  0  0  0  0  0  0  0  0  0
   57.6313   32.5551   47.9868 H   0  0  0  0  0  0  0  0  0  0  0  0
   60.4727   30.1218   45.9982 H   0  0  0  0  0  0  0  0  0  0  0  0
   59.5124   30.4027   44.9142 H   0  0  0  0  0  0  0  0  0  0  0  0
   58.5321   31.5810   42.9382 H   0  0  0  0  0  0  0  0  0  0  0  0
   56.0919   31.3505   42.4372 H   0  0  0  0  0  0  0  0  0  0  0  0
   54.6621   29.9313   43.9209 H   0  0  0  0  0  0  0  0  0  0  0  0
  1  2  2  0
  2  3  1  0
  3  4  2  0
  4  5  1  0
  5  6  2  0
  6  7  1  0
  7  8  1  0
  8  9  1  0
  9 10  1  0
 10 11  1  0
 11 12  1  0
 12 13  1  0
 13 14  2  0
 14 15  1  0
 15 16  2  0
 16 17  1  0
 17 18  2  0
  7 19  2  0
  2 20  1  0
 20 21  2  0
 21 22  1  0
 22 23  2  0
 23 24  1  0
 24 25  2  0
 19  3  1  0
 25 20  1  0
 18 13  1  0
  4 26  1  0
  5 27  1  0
  6 28  1  0
  8 29  1  0
  8 30  1  0
  9 31  1  0
  9 32  1  0
 10 33  1  0
 10 34  1  0
 11 35  1  0
 11 36  1  0
 12 37  1  0
 12 38  1  0
 14 39  1  0
 15 40  1  0
 16 41  1  0
 17 42  1  0
 18 43  1  0
 19 44  1  0
 21 45  1  0
 22 46  1  0
 23 47  1  0
 24 48  1  0
M  CHG  1   7   1
M  END
>  <UniqueID>  (1) 
1

>  <SMILES>  (1) 
O=C(c1ccc[n+](CCCCCc2ccccc2)c1)c1ccccn1

>  <Energy>  (1) 
48.19623392860886

>  <Genealogy>  (1) 
O=C(c1ccc[n+](CCCCCc2ccccc2)c1)c1ccccn1 (3D coordinates assigned)
O=C(c1ccc[n+](CCCCCc2ccccc2)c1)c1ccccn1 (optimized conformer: 48.19623392860886 kcal/mol)

>  <smiles>  (1) 
O=C(c1ccc[n+](CCCCCc2ccccc2)c1)c1ccccn1

>  <score_type>  (1) 
oracle

>  <origin>  (1) 
adg

>  <m_score__min__energy>  (1) 
-6.6500000000000004

>  <m_primary>  (1) 
energy

$$$$
1:0
     RDKit          3D

 30 31  0  0  0  0  0  0  0  0999 V2000
   57.0980   33.6410   45.5520 O   0  0  0  0  0  0  0  0  0  0  0  0
   58.0680   33.4640   44.7650 C   0  0  0  0  0  0  0  0  0  0  0  0
   58.2740   32.1930   44.1350 N   0  0  0  0  0  0  0  0  0  0  0  0
   57.5630   30.9910   44.4810 C   0  0  0  0  0  0  0  0  0  0  0  0
   56.2450   30.7640   44.0430 C   0  0  0  0  0  0  0  0  0  0  0  0
   55.5690   29.5980   44.4150 C   0  0  0  0  0  0  0  0  0  0  0  0
   56.1940   28.6570   45.2370 C   0  0  0  0  0  0  0  0  0  0  0  0
   55.5210   27.4980   45.6040 O   0  0  0  0  0  0  0  0  0  0  0  0
   57.4950   28.8840   45.6940 C   0  0  0  0  0  0  0  0  0  0  0  0
   58.1740   30.0500   45.3250 C   0  0  0  0  0  0  0  0  0  0  0  0
   58.9360   34.5200   44.4640 O   0  0  0  0  0  0  0  0  0  0  0  0
   59.5240   35.3590   45.4560 C   0  0  0  0  0  0  0  0  0  0  0  0
   60.0070   34.5370   46.6200 C   0  0  0  0  0  0  0  0  0  0  0  0
   59.2880   34.5090   47.8270 C   0  0  0  0  0  0  0  0  0  0  0  0
   59.7570   33.7560   48.9080 C   0  0  0  0  0  0  0  0  0  0  0  0
   60.9440   33.0290   48.7930 C   0  0  0  0  0  0  0  0  0  0  0  0
   61.6670   33.0550   47.5970 C   0  0  0  0  0  0  0  0  0  0  0  0
   61.2020   33.8060   46.5140 C   0  0  0  0  0  0  0  0  0  0  0  0
   58.9170   32.1670   43.3120 H   0  0  0  0  0  0  0  0  0  0  0  0
   55.7444   31.5073   43.4051 H   0  0  0  0  0  0  0  0  0  0  0  0
   54.5431   29.4212   44.0598 H   0  0  0  0  0  0  0  0  0  0  0  0
   57.9856   28.1450   46.3446 H   0  0  0  0  0  0  0  0  0  0  0  0
   59.1928   30.2307   45.6984 H   0  0  0  0  0  0  0  0  0  0  0  0
   60.3753   35.8989   45.0157 H   0  0  0  0  0  0  0  0  0  0  0  0
   58.7672   36.0729   45.8133 H   0  0  0  0  0  0  0  0  0  0  0  0
   58.3533   35.0812   47.9218 H   0  0  0  0  0  0  0  0  0  0  0  0
   59.1901   33.7362   49.8505 H   0  0  0  0  0  0  0  0  0  0  0  0
   61.3100   32.4358   49.6439 H   0  0  0  0  0  0  0  0  0  0  0  0
   62.6029   32.4838   47.5081 H   0  0  0  0  0  0  0  0  0  0  0  0
   61.7741   33.8248   45.5747 H   0  0  0  0  0  0  0  0  0  0  0  0
  1  2  2  0
  2  3  1  0
  3  4  1  0
  4  5  2  0
  5  6  1  0
  6  7  2  0
  7  8  1  0
  7  9  1  0
  9 10  2  0
  2 11  1  0
 11 12  1  0
 12 13  1  0
 13 14  2  0
 14 15  1  0
 15 16  2  0
 16 17  1  0
 17 18  2  0
 10  4  1  0
 18 13  1  0
  3 19  1  0
  5 20  1  0
  6 21  1  0
  9 22  1  0
 10 23  1  0
 12 24  1  0
 12 25  1  0
 14 26  1  0
 15 27  1  0
 16 28  1  0
 17 29  1  0
 18 30  1  0
M  CHG  1   8  -1
M  END
>  <UniqueID>  (2) 
2

>  <SMILES>  (2) 
O=C(Nc1ccc([O-])cc1)OCc1ccccc1

>  <Energy>  (2) 
32.05331352338003

>  <Genealogy>  (2) 
O=C(Nc1ccc([O-])cc1)OCc1ccccc1 (protonated)
O=C(Nc1ccc([O-])cc1)OCc1ccccc1 (3D coordinates assigned)
O=C(Nc1ccc([O-])cc1)OCc1ccccc1 (optimized conformer: 32.05331352338003 kcal/mol)

>  <smiles>  (2) 
O=C(Nc1ccc(O)cc1)OCc1ccccc1

>  <score_type>  (2) 
oracle

>  <origin>  (2) 
adg

>  <m_score__min__energy>  (2) 
-9.8200000000000003

>  <m_primary>  (2) 
energy

$$$$
2:0
     RDKit          3D

 41 42  0  0  0  0  0  0  0  0999 V2000
   59.6480   28.4570   45.8670 C   0  0  0  0  0  0  0  0  0  0  0  0
   59.5640   29.1410   44.4990 C   0  0  0  0  0  0  0  0  0  0  0  0
   58.3010   28.8460   43.7850 N   0  0  1  0  0  0  0  0  0  0  0  0
   57.7520   27.5630   44.2510 C   0  0  0  0  0  0  0  0  0  0  0  0
   57.1040   30.1050   44.0160 S   0  0  0  0  0  0  0  0  0  0  0  0
   56.5290   30.5150   42.6890 O   0  0  0  0  0  0  0  0  0  0  0  0
   55.9760   29.5890   44.8650 O   0  0  0  0  0  0  0  0  0  0  0  0
   57.7940   31.5150   44.8040 C   0  0  0  0  0  0  0  0  0  0  0  0
   58.1470   31.6150   46.1340 C   0  0  0  0  0  0  0  0  0  0  0  0
   58.6290   32.9020   46.3050 C   0  0  0  0  0  0  0  0  0  0  0  0
   59.0950   33.4670   47.5930 C   0  0  0  0  0  0  0  0  0  0  0  0
   58.5040   33.1550   48.6600 O   0  0  0  0  0  0  0  0  0  0  0  0
   60.2570   34.3050   47.6710 N   0  0  0  0  0  0  0  0  0  0  0  0
   61.5480   33.9160   48.1600 C   0  0  0  0  0  0  0  0  0  0  0  0
   62.5270   33.3740   47.3080 C   0  0  0  0  0  0  0  0  0  0  0  0
   63.7790   33.0140   47.8150 C   0  0  0  0  0  0  0  0  0  0  0  0
   64.0690   33.2090   49.1680 C   0  0  0  0  0  0  0  0  0  0  0  0
   65.6420   32.7570   49.8030 Cl  0  0  0  0  0  0  0  0  0  0  0  0
   63.1080   33.7720   50.0140 C   0  0  0  0  0  0  0  0  0  0  0  0
   61.8550   34.1300   49.5090 C   0  0  0  0  0  0  0  0  0  0  0  0
   58.5730   33.5730   45.1300 N   0  0  0  0  0  0  0  0  0  0  0  0
   58.9710   34.9560   44.8740 C   0  0  0  0  0  0  0  0  0  0  0  0
   58.0620   32.7300   44.2110 C   0  0  0  0  0  0  0  0  0  0  0  0
   59.5552   29.2126   46.6610 H   0  0  0  0  0  0  0  0  0  0  0  0
   58.8331   27.7241   45.9612 H   0  0  0  0  0  0  0  0  0  0  0  0
   60.6160   27.9431   45.9612 H   0  0  0  0  0  0  0  0  0  0  0  0
   59.6391   30.2287   44.6450 H   0  0  0  0  0  0  0  0  0  0  0  0
   60.3896   28.7531   43.8843 H   0  0  0  0  0  0  0  0  0  0  0  0
   58.4920   28.7600   42.7590 H   0  0  0  0  0  0  0  0  0  0  0  0
   57.7444   27.5453   45.3508 H   0  0  0  0  0  0  0  0  0  0  0  0
   56.7248   27.4456   43.8753 H   0  0  0  0  0  0  0  0  0  0  0  0
   58.3763   26.7389   43.8753 H   0  0  0  0  0  0  0  0  0  0  0  0
   58.0628   30.8320   46.9020 H   0  0  0  0  0  0  0  0  0  0  0  0
   62.3068   33.2330   46.2395 H   0  0  0  0  0  0  0  0  0  0  0  0
   64.5367   32.5767   47.1482 H   0  0  0  0  0  0  0  0  0  0  0  0
   63.3385   33.9331   51.0774 H   0  0  0  0  0  0  0  0  0  0  0  0
   61.1058   34.5825   50.1753 H   0  0  0  0  0  0  0  0  0  0  0  0
   59.1211   35.4775   45.8308 H   0  0  0  0  0  0  0  0  0  0  0  0
   59.9088   34.9673   44.2993 H   0  0  0  0  0  0  0  0  0  0  0  0
   58.1826   35.4640   44.2993 H   0  0  0  0  0  0  0  0  0  0  0  0
   57.8862   32.9736   43.1528 H   0  0  0  0  0  0  0  0  0  0  0  0
  1  2  1  0
  2  3  1  0
  3  4  1  0
  3  5  1  0
  5  6  2  0
  5  7  2  0
  5  8  1  0
  8  9  1  0
  9 10  2  0
 10 11  1  0
 11 12  2  0
 11 13  1  0
 13 14  1  0
 14 15  2  0
 15 16  1  0
 16 17  2  0
 17 18  1  0
 17 19  1  0
 19 20  2  0
 10 21  1  0
 21 22  1  0
 21 23  1  0
 23  8  2  0
 20 14  1  0
  1 24  1  0
  1 25  1  0
  1 26  1  0
  2 27  1  0
  2 28  1  0
  3 29  1  6
  4 30  1  0
  4 31  1  0
  4 32  1  0
  9 33  1  0
 15 34  1  0
 16 35  1  0
 19 36  1  0
 20 37  1  0
 22 38  1  0
 22 39  1  0
 22 40  1  0
 23 41  1  0
M  CHG  2   3   1  13  -1
M  END
>  <UniqueID>  (3) 
3

>  <SMILES>  (3) 
CC[N@@H+](C)S(=O)(=O)c1cc(C(=O)[N-]c2ccc(Cl)cc2)n(C)c1

>  <Energy>  (3) 
69.54265577730033

>  <Genealogy>  (3) 
CC[NH+](C)S(=O)(=O)c1cc(C(=O)[N-]c2ccc(Cl)cc2)n(C)c1 (protonated)
CC[N@@H+](C)S(=O)(=O)c1cc(C(=O)[N-]c2ccc(Cl)cc2)n(C)c1 (chirality)
CC[N@@H+](C)S(=O)(=O)c1cc(C(=O)[N-]c2ccc(Cl)cc2)n(C)c1 (3D coordinates assigned)
CC[N@@H+](C)S(=O)(=O)c1cc(C(=O)[N-]c2ccc(Cl)cc2)n(C)c1 (optimized conformer: 69.54265577730033 kcal/mol)

>  <smiles>  (3) 
CCN(C)S(=O)(=O)c1cc(C(=O)Nc2ccc(Cl)cc2)n(C)c1

>  <score_type>  (3) 
oracle

>  <origin>  (3) 
adg

>  <m_score__min__energy>  (3) 
-8.6400000000000006

>  <m_primary>  (3) 
energy

$$$$
3:0
     RDKit          3D

 48 50  0  0  0  0  0  0  0  0999 V2000
   59.3030   35.0380   46.7340 C   0  0  0  0  0  0  0  0  0  0  0  0
   60.4570   34.2370   46.1410 C   0  0  0  0  0  0  0  0  0  0  0  0
   61.3730   33.7810   47.2120 N   0  0  0  0  0  0  0  0  0  0  0  0
   62.7850   33.8450   46.7720 C   0  0  0  0  0  0  0  0  0  0  0  0
   63.5840   32.7060   47.3980 C   0  0  0  0  0  0  0  0  0  0  0  0
   61.0160   32.4200   47.6820 C   0  0  0  0  0  0  0  0  0  0  0  0
   59.8090   32.4770   48.6240 C   0  0  0  0  0  0  0  0  0  0  0  0
   58.8710   31.4000   48.3270 N   0  0  0  0  0  0  0  0  0  0  0  0
   59.2350   30.1890   47.6550 C   0  0  0  0  0  0  0  0  0  0  0  0
   60.2220   29.5170   48.0610 O   0  0  0  0  0  0  0  0  0  0  0  0
   58.4050   29.7000   46.5280 C   0  0  0  0  0  0  0  0  0  0  0  0
   57.9110   28.3900   46.6040 C   0  0  0  0  0  0  0  0  0  0  0  0
   57.1580   27.8460   45.5570 C   0  0  0  0  0  0  0  0  0  0  0  0
   56.6600   26.4530   45.6660 C   0  0  0  0  0  0  0  0  0  0  0  0
   57.3870   25.2890   45.4760 C   0  0  0  0  0  0  0  0  0  0  0  0
   56.5000   24.2550   45.6820 C   0  0  0  0  0  0  0  0  0  0  0  0
   55.2900   24.8410   45.9840 C   0  0  0  0  0  0  0  0  0  0  0  0
   55.4160   26.1480   45.9660 O   0  0  0  0  0  0  0  0  0  0  0  0
   56.9000   28.6030   44.4520 N   0  0  0  0  0  0  0  0  0  0  0  0
   57.3390   29.8890   44.3410 C   0  0  0  0  0  0  0  0  0  0  0  0
   57.0260   30.6370   43.1920 C   0  0  0  0  0  0  0  0  0  0  0  0
   57.4370   31.9630   43.0770 C   0  0  0  0  0  0  0  0  0  0  0  0
   58.1580   32.5620   44.1080 C   0  0  0  0  0  0  0  0  0  0  0  0
   58.4850   31.8350   45.2550 C   0  0  0  0  0  0  0  0  0  0  0  0
   58.0990   30.4810   45.3840 C   0  0  0  0  0  0  0  0  0  0  0  0
   59.3568   35.0006   47.8320 H   0  0  0  0  0  0  0  0  0  0  0  0
   59.3720   36.0834   46.3989 H   0  0  0  0  0  0  0  0  0  0  0  0
   58.3477   34.6078   46.3989 H   0  0  0  0  0  0  0  0  0  0  0  0
   60.0553   33.3612   45.6104 H   0  0  0  0  0  0  0  0  0  0  0  0
   61.0152   34.8785   45.4432 H   0  0  0  0  0  0  0  0  0  0  0  0
   62.8283   33.7598   45.6762 H   0  0  0  0  0  0  0  0  0  0  0  0
   63.2174   34.8047   47.0914 H   0  0  0  0  0  0  0  0  0  0  0  0
   63.5316   32.7806   48.4942 H   0  0  0  0  0  0  0  0  0  0  0  0
   63.1629   31.7423   47.0756 H   0  0  0  0  0  0  0  0  0  0  0  0
   64.6335   32.7739   47.0756 H   0  0  0  0  0  0  0  0  0  0  0  0
   60.7686   31.7907   46.8144 H   0  0  0  0  0  0  0  0  0  0  0  0
   61.8724   31.9956   48.2264 H   0  0  0  0  0  0  0  0  0  0  0  0
   60.1567   32.3766   49.6627 H   0  0  0  0  0  0  0  0  0  0  0  0
   59.2967   33.4403   48.4841 H   0  0  0  0  0  0  0  0  0  0  0  0
   58.1177   27.7824   47.4973 H   0  0  0  0  0  0  0  0  0  0  0  0
   58.4524   25.2072   45.2147 H   0  0  0  0  0  0  0  0  0  0  0  0
   56.7147   23.1780   45.6182 H   0  0  0  0  0  0  0  0  0  0  0  0
   54.3602   24.2969   46.2063 H   0  0  0  0  0  0  0  0  0  0  0  0
   56.3440   28.1970   43.6670 H   0  0  0  0  0  0  0  0  0  0  0  0
   56.4520   30.1712   42.3774 H   0  0  0  0  0  0  0  0  0  0  0  0
   57.1922   32.5377   42.1716 H   0  0  0  0  0  0  0  0  0  0  0  0
   58.4712   33.6126   44.0182 H   0  0  0  0  0  0  0  0  0  0  0  0
   59.0482   32.3205   46.0656 H   0  0  0  0  0  0  0  0  0  0  0  0
  1  2  1  0
  2  3  1  0
  3  4  1  0
  4  5  1  0
  3  6  1  0
  6  7  1  0
  7  8  1  0
  8  9  1  0
  9 10  2  0
  9 11  1  0
 11 12  2  0
 12 13  1  0
 13 14  1  0
 14 15  2  0
 15 16  1  0
 16 17  2  0
 17 18  1  0
 13 19  2  0
 19 20  1  0
 20 21  2  0
 21 22  1  0
 22 23  2  0
 23 24  1  0
 24 25  2  0
 25 11  1  0
 18 14  1  0
 25 20  1  0
  1 26  1  0
  1 27  1  0
  1 28  1  0
  2 29  1  0
  2 30  1  0
  4 31  1  0
  4 32  1  0
  5 33  1  0
  5 34  1  0
  5 35  1  0
  6 36  1  0
  6 37  1  0
  7 38  1  0
  7 39  1  0
 12 40  1  0
 15 41  1  0
 16 42  1  0
 17 43  1  0
 19 44  1  0
 21 45  1  0
 22 46  1  0
 23 47  1  0
 24 48  1  0
M  CHG  2   8  -1  19   1
M  END
>  <UniqueID>  (4) 
4

>  <SMILES>  (4) 
CCN(CC)CC[N-]C(=O)c1cc(-c2ccco2)[nH+]c2ccccc12

>  <Energy>  (4) 
80.77791868285983

>  <Genealogy>  (4) 
CCN(CC)CC[N-]C(=O)c1cc(-c2ccco2)[nH+]c2ccccc12 (protonated)
CCN(CC)CC[N-]C(=O)c1cc(-c2ccco2)[nH+]c2ccccc12 (3D coordinates assigned)
CCN(CC)CC[N-]C(=O)c1cc(-c2ccco2)[nH+]c2ccccc12 (optimized conformer: 80.77791868285983 kcal/mol)

>  <smiles>  (4) 
CCN(CC)CCNC(=O)c1cc(-c2ccco2)nc2ccccc12

>  <score_type>  (4) 
oracle

>  <origin>  (4) 
adg

>  <m_score__min__energy>  (4) 
-6.9199999999999999

>  <m_primary>  (4) 
energy

$$$$
4:0
     RDKit          3D

 42 44  0  0  0  0  0  0  0  0999 V2000
   61.0240   33.8540   47.8720 C   0  0  0  0  0  0  0  0  0  0  0  0
   60.7800   33.6440   46.3760 C   0  0  0  0  0  0  0  0  0  0  0  0
   59.6430   34.4560   45.8780 N   0  0  0  0  0  0  0  0  0  0  0  0
   58.4900   34.5030   46.8070 C   0  0  0  0  0  0  0  0  0  0  0  0
   57.8460   33.1200   46.9900 C   0  0  0  0  0  0  0  0  0  0  0  0
   57.8940   32.3610   45.7360 N   0  0  0  0  0  0  0  0  0  0  0  0
   57.8010   30.9240   45.7530 C   0  0  0  0  0  0  0  0  0  0  0  0
   58.4630   30.1790   46.7420 C   0  0  0  0  0  0  0  0  0  0  0  0
   58.3840   28.7830   46.7500 C   0  0  0  0  0  0  0  0  0  0  0  0
   57.6640   28.1060   45.7550 C   0  0  0  0  0  0  0  0  0  0  0  0
   57.5820   26.6700   45.7970 N   0  0  0  0  0  0  0  0  0  0  0  0
   56.3730   25.9450   46.0770 C   0  0  0  0  0  0  0  0  0  0  0  0
   55.2550   26.5200   45.9960 O   0  0  0  0  0  0  0  0  0  0  0  0
   56.4130   24.5150   46.4200 C   0  0  0  0  0  0  0  0  0  0  0  0
   55.6900   23.4940   45.8380 C   0  0  0  0  0  0  0  0  0  0  0  0
   56.1040   22.3680   46.5180 C   0  0  0  0  0  0  0  0  0  0  0  0
   57.0180   22.7180   47.4430 N   0  0  0  0  0  0  0  0  0  0  0  0
   57.1790   24.0060   47.3560 O   0  0  0  0  0  0  0  0  0  0  0  0
   56.9920   28.8490   44.7700 C   0  0  0  0  0  0  0  0  0  0  0  0
   57.0680   30.2460   44.7650 C   0  0  0  0  0  0  0  0  0  0  0  0
   58.0110   33.1020   44.4760 C   0  0  0  0  0  0  0  0  0  0  0  0
   59.2320   34.0460   44.5080 C   0  0  0  0  0  0  0  0  0  0  0  0
   60.3140   33.2429   48.4486 H   0  0  0  0  0  0  0  0  0  0  0  0
   62.0526   33.5543   48.1214 H   0  0  0  0  0  0  0  0  0  0  0  0
   60.8808   34.9157   48.1214 H   0  0  0  0  0  0  0  0  0  0  0  0
   61.6882   33.9293   45.8248 H   0  0  0  0  0  0  0  0  0  0  0  0
   60.5345   32.5835   46.2179 H   0  0  0  0  0  0  0  0  0  0  0  0
   58.8363   34.8665   47.7857 H   0  0  0  0  0  0  0  0  0  0  0  0
   57.7340   35.1775   46.3787 H   0  0  0  0  0  0  0  0  0  0  0  0
   58.3913   32.5670   47.7690 H   0  0  0  0  0  0  0  0  0  0  0  0
   56.7947   33.2533   47.2851 H   0  0  0  0  0  0  0  0  0  0  0  0
   59.0480   30.6973   47.5161 H   0  0  0  0  0  0  0  0  0  0  0  0
   58.8901   28.2118   47.5422 H   0  0  0  0  0  0  0  0  0  0  0  0
   58.4280   26.1270   45.5110 H   0  0  0  0  0  0  0  0  0  0  0  0
   54.9552   23.5623   45.0223 H   0  0  0  0  0  0  0  0  0  0  0  0
   55.7443   21.3449   46.3338 H   0  0  0  0  0  0  0  0  0  0  0  0
   56.4034   28.3300   43.9992 H   0  0  0  0  0  0  0  0  0  0  0  0
   56.5497   30.8179   43.9812 H   0  0  0  0  0  0  0  0  0  0  0  0
   58.1283   32.3883   43.6472 H   0  0  0  0  0  0  0  0  0  0  0  0
   57.1019   33.7052   44.3354 H   0  0  0  0  0  0  0  0  0  0  0  0
   60.0797   33.5316   44.0317 H   0  0  0  0  0  0  0  0  0  0  0  0
   58.9400   34.9629   43.9751 H   0  0  0  0  0  0  0  0  0  0  0  0
  1  2  1  0
  2  3  1  0
  3  4  1  0
  4  5  1  0
  5  6  1  0
  6  7  1  0
  7  8  2  0
  8  9  1  0
  9 10  2  0
 10 11  1  0
 11 12  1  0
 12 13  2  0
 12 14  1  0
 14 15  2  0
 15 16  1  0
 16 17  2  0
 17 18  1  0
 10 19  1  0
 19 20  2  0
  6 21  1  0
 21 22  1  0
 22  3  1  0
 20  7  1  0
 18 14  1  0
  1 23  1  0
  1 24  1  0
  1 25  1  0
  2 26  1  0
  2 27  1  0
  4 28  1  0
  4 29  1  0
  5 30  1  0
  5 31  1  0
  8 32  1  0
  9 33  1  0
 11 34  1  0
 15 35  1  0
 16 36  1  0
 19 37  1  0
 20 38  1  0
 21 39  1  0
 21 40  1  0
 22 41  1  0
 22 42  1  0
M  END
>  <UniqueID>  (5) 
5

>  <SMILES>  (5) 
CCN1CCN(c2ccc(NC(=O)c3ccno3)cc2)CC1

>  <Energy>  (5) 
87.46353487657487

>  <Genealogy>  (5) 
CCN1CCN(c2ccc(NC(=O)c3ccno3)cc2)CC1 (3D coordinates assigned)
CCN1CCN(c2ccc(NC(=O)c3ccno3)cc2)CC1 (nonaromatic ring conformer: 87.46353487657487 kcal/mol)

>  <smiles>  (5) 
CCN1CCN(c2ccc(NC(=O)c3ccno3)cc2)CC1

>  <score_type>  (5) 
oracle

>  <origin>  (5) 
adg

>  <m_score__min__energy>  (5) 
-7.4000000000000004

>  <m_primary>  (5) 
energy

$$$$
5:0
     RDKit          3D

 42 45  0  0  0  0  0  0  0  0999 V2000
   56.6570   30.8200   42.4970 C   0  0  0  0  0  0  0  0  0  0  0  0
   56.2080   29.8260   43.3700 C   0  0  0  0  0  0  0  0  0  0  0  0
   56.8810   29.5930   44.5740 C   0  0  0  0  0  0  0  0  0  0  0  0
   58.0180   30.3490   44.9080 C   0  0  0  0  0  0  0  0  0  0  0  0
   58.7260   30.0880   46.1810 C   0  0  0  0  0  0  0  0  0  0  0  0
   58.9590   28.7960   46.5400 N   0  0  0  0  0  0  0  0  0  0  0  0
   59.5670   28.4770   47.7100 C   0  0  0  0  0  0  0  0  0  0  0  0
   59.7890   27.1390   48.0520 C   0  0  0  0  0  0  0  0  0  0  0  0
   60.4110   26.8240   49.2650 C   0  0  0  0  0  0  0  0  0  0  0  0
   60.8090   27.8440   50.1370 C   0  0  0  0  0  0  0  0  0  0  0  0
   60.5880   29.1830   49.8000 C   0  0  0  0  0  0  0  0  0  0  0  0
   59.9650   29.5070   48.5850 C   0  0  0  0  0  0  0  0  0  0  0  0
   59.7470   30.8040   48.2300 N   0  0  0  0  0  0  0  0  0  0  0  0
   59.1510   31.1250   47.0440 C   0  0  0  0  0  0  0  0  0  0  0  0
   59.0160   32.5090   46.6770 N   0  0  0  0  0  0  0  0  0  0  0  0
   57.6890   33.1340   46.7240 C   0  0  0  0  0  0  0  0  0  0  0  0
   57.5220   34.1810   45.6070 C   0  0  0  0  0  0  0  0  0  0  0  0
   58.8290   34.9100   45.2320 C   0  0  0  0  0  0  0  0  0  0  0  0
   59.8850   34.8120   46.3350 C   0  0  0  0  0  0  0  0  0  0  0  0
   60.2260   33.3430   46.6060 C   0  0  0  0  0  0  0  0  0  0  0  0
   58.4460   31.3640   44.0360 C   0  0  0  0  0  0  0  0  0  0  0  0
   57.7730   31.5920   42.8320 C   0  0  0  0  0  0  0  0  0  0  0  0
   56.1324   30.9951   41.5462 H   0  0  0  0  0  0  0  0  0  0  0  0
   55.3237   29.2255   43.1102 H   0  0  0  0  0  0  0  0  0  0  0  0
   56.5190   28.8150   45.2622 H   0  0  0  0  0  0  0  0  0  0  0  0
   59.4752   26.3361   47.3687 H   0  0  0  0  0  0  0  0  0  0  0  0
   60.5877   25.7722   49.5341 H   0  0  0  0  0  0  0  0  0  0  0  0
   61.2970   27.5916   51.0900 H   0  0  0  0  0  0  0  0  0  0  0  0
   60.9025   29.9823   50.4872 H   0  0  0  0  0  0  0  0  0  0  0  0
   60.0650   31.5730   48.8630 H   0  0  0  0  0  0  0  0  0  0  0  0
   56.9219   32.3551   46.6022 H   0  0  0  0  0  0  0  0  0  0  0  0
   57.5791   33.6414   47.6938 H   0  0  0  0  0  0  0  0  0  0  0  0
   57.1397   33.6721   44.7098 H   0  0  0  0  0  0  0  0  0  0  0  0
   56.8283   34.9453   45.9873 H   0  0  0  0  0  0  0  0  0  0  0  0
   59.2340   34.4603   44.3135 H   0  0  0  0  0  0  0  0  0  0  0  0
   58.5913   35.9742   45.0869 H   0  0  0  0  0  0  0  0  0  0  0  0
   60.7938   35.3442   46.0174 H   0  0  0  0  0  0  0  0  0  0  0  0
   59.4887   35.2661   47.2552 H   0  0  0  0  0  0  0  0  0  0  0  0
   60.8689   32.9705   45.7949 H   0  0  0  0  0  0  0  0  0  0  0  0
   60.7417   33.2833   47.5758 H   0  0  0  0  0  0  0  0  0  0  0  0
   59.3156   31.9829   44.3021 H   0  0  0  0  0  0  0  0  0  0  0  0
   58.1220   32.3795   42.1478 H   0  0  0  0  0  0  0  0  0  0  0  0
  1  2  2  0
  2  3  1  0
  3  4  2  0
  4  5  1  0
  5  6  2  0
  6  7  1  0
  7  8  2  0
  8  9  1  0
  9 10  2  0
 10 11  1  0
 11 12  2  0
 12 13  1  0
 13 14  2  0
 14 15  1  0
 15 16  1  0
 16 17  1  0
 17 18  1  0
 18 19  1  0
 19 20  1  0
  4 21  1  0
 21 22  2  0
 22  1  1  0
 14  5  1  0
 20 15  1  0
 12  7  1  0
  1 23  1  0
  2 24  1  0
  3 25  1  0
  8 26  1  0
  9 27  1  0
 10 28  1  0
 11 29  1  0
 13 30  1  0
 16 31  1  0
 16 32  1  0
 17 33  1  0
 17 34  1  0
 18 35  1  0
 18 36  1  0
 19 37  1  0
 19 38  1  0
 20 39  1  0
 20 40  1  0
 21 41  1  0
 22 42  1  0
M  CHG  1  13   1
M  END
>  <UniqueID>  (6) 
6

>  <SMILES>  (6) 
c1ccc(-c2nc3ccccc3[nH+]c2N2CCCCC2)cc1

>  <Energy>  (6) 
58.592095858620475

>  <Genealogy>  (6) 
c1ccc(-c2nc3ccccc3[nH+]c2N2CCCCC2)cc1 (protonated)
c1ccc(-c2nc3ccccc3[nH+]c2N2CCCCC2)cc1 (3D coordinates assigned)
c1ccc(-c2nc3ccccc3[nH+]c2N2CCCCC2)cc1 (nonaromatic ring conformer: 58.592095858620475 kcal/mol)

>  <smiles>  (6) 
c1ccc(-c2nc3ccccc3nc2N2CCCCC2)cc1

>  <score_type>  (6) 
oracle

>  <origin>  (6) 
adg

>  <m_score__min__energy>  (6) 
-5.9800000000000004

>  <m_primary>  (6) 
energy

$$$$
6:0
     RDKit          3D

 40 42  0  0  1  0  0  0  0  0999 V2000
   56.6110   30.2410   43.6200 C   0  0  0  0  0  0  0  0  0  0  0  0
   56.4930   30.9420   44.8310 O   0  0  0  0  0  0  0  0  0  0  0  0
   57.4690   31.8200   45.2400 C   0  0  0  0  0  0  0  0  0  0  0  0
   57.3830   33.1720   44.9060 C   0  0  0  0  0  0  0  0  0  0  0  0
   58.3660   34.0550   45.3190 C   0  0  0  0  0  0  0  0  0  0  0  0
   59.4330   33.5890   46.0640 C   0  0  0  0  0  0  0  0  0  0  0  0
   60.4520   34.5030   46.4910 N   0  0  0  0  0  0  0  0  0  0  0  0
   61.5010   33.9940   47.0850 C   0  0  0  0  0  0  0  0  0  0  0  0
   62.5970   33.6890   46.3680 N   0  0  0  0  0  0  0  0  0  0  0  0
   63.6880   33.1590   46.9930 C   0  0  0  0  0  0  0  0  0  0  0  0
   63.6670   32.9430   48.3280 N   0  0  0  0  0  0  0  0  0  0  0  0
   62.5960   33.2310   49.0970 C   0  0  0  0  0  0  0  0  0  0  0  0
   62.5960   33.0000   50.4680 C   0  0  0  0  0  0  0  0  0  0  0  0
   61.4860   33.3060   51.2240 C   0  0  0  0  0  0  0  0  0  0  0  0
   61.4130   33.1020   52.5950 O   0  0  0  0  0  0  0  0  0  0  0  0
   62.4770   33.4840   53.4500 C   0  0  0  0  0  0  0  0  0  0  0  0
   60.3920   33.8400   50.5750 C   0  0  0  0  0  0  0  0  0  0  0  0
   59.2630   34.1520   51.3300 O   0  0  0  0  0  0  0  0  0  0  0  0
   58.5020   33.1790   51.9980 C   0  0  0  0  0  0  0  0  0  0  0  0
   60.3790   34.0730   49.2110 C   0  0  0  0  0  0  0  0  0  0  0  0
   61.5000   33.7650   48.4520 C   0  0  0  0  0  0  0  0  0  0  0  0
   59.5090   32.2430   46.3890 C   0  0  0  0  0  0  0  0  0  0  0  0
   58.5410   31.3380   45.9910 C   0  0  0  0  0  0  0  0  0  0  0  0
   56.7903   29.1760   43.8288 H   0  0  0  0  0  0  0  0  0  0  0  0
   55.6819   30.3499   43.0413 H   0  0  0  0  0  0  0  0  0  0  0  0
   57.4533   30.6480   43.0413 H   0  0  0  0  0  0  0  0  0  0  0  0
   56.5317   33.5373   44.3128 H   0  0  0  0  0  0  0  0  0  0  0  0
   58.2984   35.1209   45.0559 H   0  0  0  0  0  0  0  0  0  0  0  0
   62.5880   33.8640   45.3400 H   0  0  0  0  0  0  0  0  0  0  0  0
   64.5862   32.9070   46.4101 H   0  0  0  0  0  0  0  0  0  0  0  0
   63.4863   32.5710   50.9511 H   0  0  0  0  0  0  0  0  0  0  0  0
   62.1635   33.3714   54.4983 H   0  0  0  0  0  0  0  0  0  0  0  0
   63.3501   32.8432   53.2576 H   0  0  0  0  0  0  0  0  0  0  0  0
   62.7432   34.5338   53.2576 H   0  0  0  0  0  0  0  0  0  0  0  0
   58.6072   33.3135   53.0847 H   0  0  0  0  0  0  0  0  0  0  0  0
   57.4439   33.2840   51.7163 H   0  0  0  0  0  0  0  0  0  0  0  0
   58.8588   32.1773   51.7163 H   0  0  0  0  0  0  0  0  0  0  0  0
   59.4859   34.4997   48.7310 H   0  0  0  0  0  0  0  0  0  0  0  0
   60.3641   31.8842   46.9807 H   0  0  0  0  0  0  0  0  0  0  0  0
   58.6144   30.2734   46.2581 H   0  0  0  0  0  0  0  0  0  0  0  0
  1  2  1  0
  2  3  1  0
  3  4  2  0
  4  5  1  0
  5  6  2  0
  6  7  1  0
  7  8  2  0
  8  9  1  0
  9 10  1  0
 10 11  2  0
 11 12  1  0
 12 13  2  0
 13 14  1  0
 14 15  1  0
 15 16  1  0
 14 17  2  0
 17 18  1  0
 18 19  1  0
 17 20  1  0
 20 21  2  0
  6 22  1  0
 22 23  2  0
 23  3  1  0
 21  8  1  0
 21 12  1  0
  1 24  1  0
  1 25  1  0
  1 26  1  0
  4 27  1  0
  5 28  1  0
  9 29  1  0
 10 30  1  0
 13 31  1  0
 16 32  1  0
 16 33  1  0
 16 34  1  0
 19 35  1  0
 19 36  1  0
 19 37  1  0
 20 38  1  0
 22 39  1  0
 23 40  1  0
M  END
>  <smiles>  (7) 
COc1ccc(N=c2[nH]cnc3cc(OC)c(OC)cc23)cc1

>  <score_type>  (7) 
oracle

>  <origin>  (7) 
adg

>  <m_score__min__energy>  (7) 
-6.3300000000000001

>  <m_primary>  (7) 
energy

$$$$
7:0
     RDKit          3D

 54 56  0  0  0  0  0  0  0  0999 V2000
   60.7280   27.9710   47.2160 C   0  0  0  0  0  0  0  0  0  0  0  0
   59.6500   28.9850   46.9660 C   0  0  0  0  0  0  0  0  0  0  0  0
   58.4040   28.7570   46.3910 C   0  0  0  0  0  0  0  0  0  0  0  0
   57.8790   27.4990   45.8200 C   0  0  0  0  0  0  0  0  0  0  0  0
   58.2160   27.0950   44.5160 C   0  0  0  0  0  0  0  0  0  0  0  0
   57.7100   25.9000   43.9950 C   0  0  0  0  0  0  0  0  0  0  0  0
   56.8750   25.0940   44.7730 C   0  0  0  0  0  0  0  0  0  0  0  0
   56.5490   25.4790   46.0760 C   0  0  0  0  0  0  0  0  0  0  0  0
   57.0530   26.6730   46.6010 C   0  0  0  0  0  0  0  0  0  0  0  0
   57.7110   29.9130   46.4060 N   0  0  0  0  0  0  0  0  0  0  0  0
   58.5120   30.8140   47.0040 C   0  0  0  0  0  0  0  0  0  0  0  0
   59.7040   30.2830   47.3440 N   0  0  0  0  0  0  0  0  0  0  0  0
   60.8050   30.9850   48.0120 C   0  0  0  0  0  0  0  0  0  0  0  0
   61.3180   32.1740   47.1700 C   0  0  0  0  0  0  0  0  0  0  0  0
   60.9260   33.5560   47.7300 C   0  0  0  0  0  0  0  0  0  0  0  0
   59.4110   33.7930   47.8310 C   0  0  0  0  0  0  0  0  0  0  0  0
   58.9070   34.8540   46.8370 C   0  0  0  0  0  0  0  0  0  0  0  0
   59.0950   34.4110   45.3740 C   0  0  0  0  0  0  0  0  0  0  0  0
   57.9220   33.5590   44.8440 C   0  0  0  0  0  0  0  0  0  0  0  0
   58.3770   32.3640   43.9940 C   0  0  0  0  0  0  0  0  0  0  0  0
   57.2940   31.4060   43.7960 N   0  0  0  0  0  0  0  0  0  0  0  0
   57.1320   30.6020   42.7290 C   0  0  0  0  0  0  0  0  0  0  0  0
   56.0110   29.8290   42.9380 C   0  0  0  0  0  0  0  0  0  0  0  0
   55.5360   30.2240   44.1730 C   0  0  0  0  0  0  0  0  0  0  0  0
   56.3340   31.1830   44.6790 N   0  0  0  0  0  0  0  0  0  0  0  0
   60.8655   27.8416   48.2997 H   0  0  0  0  0  0  0  0  0  0  0  0
   60.4389   27.0099   46.7658 H   0  0  0  0  0  0  0  0  0  0  0  0
   61.6696   28.3183   46.7658 H   0  0  0  0  0  0  0  0  0  0  0  0
   58.8805   27.7217   43.9031 H   0  0  0  0  0  0  0  0  0  0  0  0
   57.9698   25.5940   42.9709 H   0  0  0  0  0  0  0  0  0  0  0  0
   56.4744   24.1566   44.3598 H   0  0  0  0  0  0  0  0  0  0  0  0
   55.8950   24.8420   46.6896 H   0  0  0  0  0  0  0  0  0  0  0  0
   56.8016   26.9672   47.6307 H   0  0  0  0  0  0  0  0  0  0  0  0
   56.7410   30.0770   46.0560 H   0  0  0  0  0  0  0  0  0  0  0  0
   58.2280   31.8598   47.1931 H   0  0  0  0  0  0  0  0  0  0  0  0
   60.4507   31.3621   48.9827 H   0  0  0  0  0  0  0  0  0  0  0  0
   61.6346   30.2749   48.1443 H   0  0  0  0  0  0  0  0  0  0  0  0
   62.4157   32.1178   47.1253 H   0  0  0  0  0  0  0  0  0  0  0  0
   60.8481   32.0878   46.1792 H   0  0  0  0  0  0  0  0  0  0  0  0
   61.3576   33.6543   48.7370 H   0  0  0  0  0  0  0  0  0  0  0  0
   61.3144   34.3034   47.0225 H   0  0  0  0  0  0  0  0  0  0  0  0
   58.8923   32.8448   47.6263 H   0  0  0  0  0  0  0  0  0  0  0  0
   59.1999   34.1621   48.8455 H   0  0  0  0  0  0  0  0  0  0  0  0
   57.8368   35.0313   47.0194 H   0  0  0  0  0  0  0  0  0  0  0  0
   59.4949   35.7707   46.9922 H   0  0  0  0  0  0  0  0  0  0  0  0
   59.1875   35.3090   44.7454 H   0  0  0  0  0  0  0  0  0  0  0  0
   59.9990   33.7856   45.3342 H   0  0  0  0  0  0  0  0  0  0  0  0
   57.3499   33.1790   45.7033 H   0  0  0  0  0  0  0  0  0  0  0  0
   57.3138   34.2076   44.1964 H   0  0  0  0  0  0  0  0  0  0  0  0
   58.7139   32.7306   43.0131 H   0  0  0  0  0  0  0  0  0  0  0  0
   59.1957   31.8551   44.5238 H   0  0  0  0  0  0  0  0  0  0  0  0
   57.7826   30.5679   41.8427 H   0  0  0  0  0  0  0  0  0  0  0  0
   55.5877   29.0655   42.2687 H   0  0  0  0  0  0  0  0  0  0  0  0
   54.6419   29.8171   44.6679 H   0  0  0  0  0  0  0  0  0  0  0  0
  1  2  1  0
  2  3  2  0
  3  4  1  0
  4  5  2  0
  5  6  1  0
  6  7  2  0
  7  8  1  0
  8  9  2  0
  3 10  1  0
 10 11  2  0
 11 12  1  0
 12 13  1  0
 13 14  1  0
 14 15  1  0
 15 16  1  0
 16 17  1  0
 17 18  1  0
 18 19  1  0
 19 20  1  0
 20 21  1  0
 21 22  1  0
 22 23  2  0
 23 24  1  0
 24 25  2  0
 12  2  1  0
 25 21  1  0
  9  4  1  0
  1 26  1  0
  1 27  1  0
  1 28  1  0
  5 29  1  0
  6 30  1  0
  7 31  1  0
  8 32  1  0
  9 33  1  0
 10 34  1  0
 11 35  1  0
 13 36  1  0
 13 37  1  0
 14 38  1  0
 14 39  1  0
 15 40  1  0
 15 41  1  0
 16 42  1  0
 16 43  1  0
 17 44  1  0
 17 45  1  0
 18 46  1  0
 18 47  1  0
 19 48  1  0
 19 49  1  0
 20 50  1  0
 20 51  1  0
 22 52  1  0
 23 53  1  0
 24 54  1  0
M  CHG  1  10   1
M  END
>  <UniqueID>  (8) 
7

>  <SMILES>  (8) 
Cc1c(-c2ccccc2)[nH+]cn1CCCCCCCCn1cccn1

>  <Energy>  (8) 
105.98793686819985

>  <Genealogy>  (8) 
Cc1c(-c2ccccc2)[nH+]cn1CCCCCCCCn1cccn1 (protonated)
Cc1c(-c2ccccc2)[nH+]cn1CCCCCCCCn1cccn1 (3D coordinates assigned)
Cc1c(-c2ccccc2)[nH+]cn1CCCCCCCCn1cccn1 (optimized conformer: 105.98793686819985 kcal/mol)

>  <smiles>  (8) 
Cc1c(-c2ccccc2)ncn1CCCCCCCCn1cccn1

>  <score_type>  (8) 
oracle

>  <origin>  (8) 
adg

>  <m_score__min__energy>  (8) 
-5.8499999999999996

>  <m_primary>  (8) 
energy

$$$$
8:0
     RDKit          3D

 49 52  0  0  1  0  0  0  0  0999 V2000
   57.4040   32.3360   41.1210 C   0  0  0  0  0  0  0  0  0  0  0  0
   56.6550   31.5780   42.0150 O   0  0  0  0  0  0  0  0  0  0  0  0
   57.1670   31.0710   43.2010 C   0  0  0  0  0  0  0  0  0  0  0  0
   57.0480   29.7170   43.4010 C   0  0  0  0  0  0  0  0  0  0  0  0
   57.5520   29.2150   44.5730 C   0  0  0  0  0  0  0  0  0  0  0  0
   57.4470   27.8970   44.7920 N   0  0  0  0  0  0  0  0  0  0  0  0
   57.9250   27.3570   45.9230 C   0  0  0  0  0  0  0  0  0  0  0  0
   57.8510   25.9660   46.2250 N   0  0  0  0  0  0  0  0  0  0  0  0
   59.0200   25.1030   45.9980 C   0  0  0  0  0  0  0  0  0  0  0  0
   58.5010   23.8720   45.2840 C   0  0  0  0  0  0  0  0  0  0  0  0
   57.7240   23.1960   46.2550 O   0  0  0  0  0  0  0  0  0  0  0  0
   56.5440   23.8770   46.4210 C   0  0  0  0  0  0  0  0  0  0  0  0
   56.6770   25.3260   46.7520 C   0  0  0  0  0  0  0  0  0  0  0  0
   58.4980   28.1810   46.8050 N   0  0  0  0  0  0  0  0  0  0  0  0
   58.6190   29.4980   46.6210 C   0  0  0  0  0  0  0  0  0  0  0  0
   59.1620   30.1900   47.4960 N   0  0  0  0  0  0  0  0  0  0  0  0
   60.2240   31.0440   47.5340 C   0  0  0  0  0  0  0  0  0  0  0  0
   61.5250   30.5160   47.3390 C   0  0  0  0  0  0  0  0  0  0  0  0
   62.6230   31.3210   47.4810 C   0  0  0  0  0  0  0  0  0  0  0  0
   62.4870   32.6520   47.8130 C   0  0  0  0  0  0  0  0  0  0  0  0
   61.2210   33.2070   48.0130 C   0  0  0  0  0  0  0  0  0  0  0  0
   60.0980   32.4160   47.8750 C   0  0  0  0  0  0  0  0  0  0  0  0
   58.4730   33.0290   48.1070 Cl  0  0  0  0  0  0  0  0  0  0  0  0
   58.1460   30.0900   45.4800 C   0  0  0  0  0  0  0  0  0  0  0  0
   58.2470   31.4300   45.2510 C   0  0  0  0  0  0  0  0  0  0  0  0
   57.7350   31.9570   44.0530 C   0  0  0  0  0  0  0  0  0  0  0  0
   57.8020   33.3050   43.7500 O   0  0  0  0  0  0  0  0  0  0  0  0
   58.0930   34.2820   44.7370 C   0  0  0  0  0  0  0  0  0  0  0  0
   58.0699   33.0099   41.6799 H   0  0  0  0  0  0  0  0  0  0  0  0
   58.0061   31.6675   40.4881 H   0  0  0  0  0  0  0  0  0  0  0  0
   56.7283   32.9300   40.4881 H   0  0  0  0  0  0  0  0  0  0  0  0
   56.5701   29.0653   42.6547 H   0  0  0  0  0  0  0  0  0  0  0  0
   56.9970   27.2800   44.0880 H   0  0  0  0  0  0  0  0  0  0  0  0
   59.7622   25.6220   45.3737 H   0  0  0  0  0  0  0  0  0  0  0  0
   59.5151   24.8399   46.9444 H   0  0  0  0  0  0  0  0  0  0  0  0
   57.8817   24.1563   44.4205 H   0  0  0  0  0  0  0  0  0  0  0  0
   59.3143   23.2446   44.8904 H   0  0  0  0  0  0  0  0  0  0  0  0
   55.9712   23.7947   45.4855 H   0  0  0  0  0  0  0  0  0  0  0  0
   56.0490   23.4145   47.2876 H   0  0  0  0  0  0  0  0  0  0  0  0
   55.7954   25.8491   46.3530 H   0  0  0  0  0  0  0  0  0  0  0  0
   56.7618   25.3837   47.8472 H   0  0  0  0  0  0  0  0  0  0  0  0
   61.6526   29.4563   47.0728 H   0  0  0  0  0  0  0  0  0  0  0  0
   63.6277   30.9000   47.3281 H   0  0  0  0  0  0  0  0  0  0  0  0
   63.3824   33.2818   47.9212 H   0  0  0  0  0  0  0  0  0  0  0  0
   61.1192   34.2694   48.2792 H   0  0  0  0  0  0  0  0  0  0  0  0
   58.7221   32.0889   45.9927 H   0  0  0  0  0  0  0  0  0  0  0  0
   57.9623   33.8431   45.7371 H   0  0  0  0  0  0  0  0  0  0  0  0
   59.1319   34.6238   44.6195 H   0  0  0  0  0  0  0  0  0  0  0  0
   57.4104   35.1365   44.6195 H   0  0  0  0  0  0  0  0  0  0  0  0
  1  2  1  0
  2  3  1  0
  3  4  2  0
  4  5  1  0
  5  6  1  0
  6  7  1  0
  7  8  1  0
  8  9  1  0
  9 10  1  0
 10 11  1  0
 11 12  1  0
 12 13  1  0
  7 14  2  0
 14 15  1  0
 15 16  2  0
 16 17  1  0
 17 18  2  0
 18 19  1  0
 19 20  2  0
 20 21  1  0
 21 22  2  0
 22 23  1  0
 15 24  1  0
 24 25  1  0
 25 26  2  0
 26 27  1  0
 27 28  1  0
 26  3  1  0
 24  5  2  0
 13  8  1  0
 22 17  1  0
  1 29  1  0
  1 30  1  0
  1 31  1  0
  4 32  1  0
  6 33  1  0
  9 34  1  0
  9 35  1  0
 10 36  1  0
 10 37  1  0
 12 38  1  0
 12 39  1  0
 13 40  1  0
 13 41  1  0
 18 42  1  0
 19 43  1  0
 20 44  1  0
 21 45  1  0
 25 46  1  0
 28 47  1  0
 28 48  1  0
 28 49  1  0
M  END
>  <smiles>  (9) 
COc1cc2[nH]c(N3CCOCC3)nc(=Nc3ccccc3Cl)c2cc1OC

>  <score_type>  (9) 
oracle

>  <origin>  (9) 
adg

>  <m_score__min__energy>  (9) 
-7.1200000000000001

>  <m_primary>  (9) 
energy

$$$$
9:0
     RDKit          3D

 36 37  0  0  0  0  0  0  0  0999 V2000
   56.7870   28.5640   45.2550 C   0  0  0  0  0  0  0  0  0  0  0  0
   55.5210   29.0980   44.9310 O   0  0  0  0  0  0  0  0  0  0  0  0
   55.5810   29.7930   43.6990 C   0  0  0  0  0  0  0  0  0  0  0  0
   56.7020   30.8360   43.7360 C   0  0  0  0  0  0  0  0  0  0  0  0
   56.6670   31.5960   44.9830 N   0  0  0  0  0  0  0  0  0  0  0  0
   57.3560   32.8310   45.2300 C   0  0  0  0  0  0  0  0  0  0  0  0
   56.8070   33.9100   44.8880 O   0  0  0  0  0  0  0  0  0  0  0  0
   58.6710   32.8770   45.8970 C   0  0  0  0  0  0  0  0  0  0  0  0
   59.2200   31.7070   46.4420 C   0  0  0  0  0  0  0  0  0  0  0  0
   60.4720   31.7360   47.0610 C   0  0  0  0  0  0  0  0  0  0  0  0
   61.1970   32.9350   47.1450 C   0  0  0  0  0  0  0  0  0  0  0  0
   62.4790   32.9410   47.7950 N   0  0  0  0  0  0  0  0  0  0  0  0
   62.7640   33.6730   48.9980 C   0  0  0  0  0  0  0  0  0  0  0  0
   61.9550   34.5410   49.4250 O   0  0  0  0  0  0  0  0  0  0  0  0
   64.0250   33.4430   49.7180 C   0  0  0  0  0  0  0  0  0  0  0  0
   64.3210   33.8760   50.9960 C   0  0  0  0  0  0  0  0  0  0  0  0
   65.6010   33.4320   51.2520 C   0  0  0  0  0  0  0  0  0  0  0  0
   66.0050   32.7560   50.1190 C   0  0  0  0  0  0  0  0  0  0  0  0
   65.0460   32.7800   49.2230 O   0  0  0  0  0  0  0  0  0  0  0  0
   60.6230   34.1170   46.6450 C   0  0  0  0  0  0  0  0  0  0  0  0
   59.3690   34.0870   46.0280 C   0  0  0  0  0  0  0  0  0  0  0  0
   56.8965   28.5178   46.3486 H   0  0  0  0  0  0  0  0  0  0  0  0
   56.8764   27.5515   44.8345 H   0  0  0  0  0  0  0  0  0  0  0  0
   57.5745   29.2066   44.8345 H   0  0  0  0  0  0  0  0  0  0  0  0
   55.7768   29.0773   42.8869 H   0  0  0  0  0  0  0  0  0  0  0  0
   54.6214   30.3024   43.5264 H   0  0  0  0  0  0  0  0  0  0  0  0
   57.6724   30.3246   43.6532 H   0  0  0  0  0  0  0  0  0  0  0  0
   56.5614   31.5325   42.8963 H   0  0  0  0  0  0  0  0  0  0  0  0
   58.6615   30.7612   46.3817 H   0  0  0  0  0  0  0  0  0  0  0  0
   60.8927   30.8126   47.4856 H   0  0  0  0  0  0  0  0  0  0  0  0
   63.2720   32.4590   47.3150 H   0  0  0  0  0  0  0  0  0  0  0  0
   63.6710   34.4544   51.6691 H   0  0  0  0  0  0  0  0  0  0  0  0
   66.1824   33.5856   52.1731 H   0  0  0  0  0  0  0  0  0  0  0  0
   66.9830   32.2703   49.9866 H   0  0  0  0  0  0  0  0  0  0  0  0
   61.1635   35.0704   46.7398 H   0  0  0  0  0  0  0  0  0  0  0  0
   58.9268   35.0177   45.6429 H   0  0  0  0  0  0  0  0  0  0  0  0
  1  2  1  0
  2  3  1  0
  3  4  1  0
  4  5  1  0
  5  6  1  0
  6  7  2  0
  6  8  1  0
  8  9  2  0
  9 10  1  0
 10 11  2  0
 11 12  1  0
 12 13  1  0
 13 14  2  0
 13 15  1  0
 15 16  2  0
 16 17  1  0
 17 18  2  0
 18 19  1  0
 11 20  1  0
 20 21  2  0
 21  8  1  0
 19 15  1  0
  1 22  1  0
  1 23  1  0
  1 24  1  0
  3 25  1  0
  3 26  1  0
  4 27  1  0
  4 28  1  0
  9 29  1  0
 10 30  1  0
 12 31  1  0
 16 32  1  0
 17 33  1  0
 18 34  1  0
 20 35  1  0
 21 36  1  0
M  CHG  1   5  -1
M  END
>  <UniqueID>  (10) 
8

>  <SMILES>  (10) 
COCC[N-]C(=O)c1ccc(NC(=O)c2ccco2)cc1

>  <Energy>  (10) 
67.85871547863741

>  <Genealogy>  (10) 
COCC[N-]C(=O)c1ccc(NC(=O)c2ccco2)cc1 (protonated)
COCC[N-]C(=O)c1ccc(NC(=O)c2ccco2)cc1 (3D coordinates assigned)
COCC[N-]C(=O)c1ccc(NC(=O)c2ccco2)cc1 (optimized conformer: 67.85871547863741 kcal/mol)

>  <smiles>  (10) 
COCCNC(=O)c1ccc(NC(=O)c2ccco2)cc1

>  <score_type>  (10) 
oracle

>  <origin>  (10) 
adg

>  <m_score__min__energy>  (10) 
-7.8099999999999996

>  <m_primary>  (10) 
energy

$$$$
10:0
     RDKit          3D

 38 41  0  0  0  0  0  0  0  0999 V2000
   57.7380   31.9490   42.6250 C   0  0  0  0  0  0  0  0  0  0  0  0
   57.7260   31.7480   44.0790 N   0  0  0  0  0  0  0  0  0  0  0  0
   57.0930   30.5730   44.6210 C   0  0  0  0  0  0  0  0  0  0  0  0
   55.8480   30.4290   44.4970 O   0  0  0  0  0  0  0  0  0  0  0  0
   57.8760   29.5640   45.3710 C   0  0  0  0  0  0  0  0  0  0  0  0
   58.5460   29.9220   46.5590 C   0  0  0  0  0  0  0  0  0  0  0  0
   59.2680   28.9620   47.2990 C   0  0  0  0  0  0  0  0  0  0  0  0
   59.9360   29.3150   48.4810 C   0  0  0  0  0  0  0  0  0  0  0  0
   60.6470   28.3480   49.1990 C   0  0  0  0  0  0  0  0  0  0  0  0
   60.6960   27.0270   48.7460 C   0  0  0  0  0  0  0  0  0  0  0  0
   60.0350   26.6600   47.5700 C   0  0  0  0  0  0  0  0  0  0  0  0
   59.3170   27.6220   46.8390 C   0  0  0  0  0  0  0  0  0  0  0  0
   58.6550   27.3210   45.6870 N   0  0  0  0  0  0  0  0  0  0  0  0
   58.5300   26.1740   44.9890 C   0  0  0  0  0  0  0  0  0  0  0  0
   57.7920   26.3720   43.8740 N   0  0  0  0  0  0  0  0  0  0  0  0
   57.4420   27.6510   43.8670 N   0  0  0  0  0  0  0  0  0  0  0  0
   57.9630   28.2210   44.9710 C   0  0  0  0  0  0  0  0  0  0  0  0
   58.1410   32.8110   44.9660 C   0  0  0  0  0  0  0  0  0  0  0  0
   58.9560   33.8540   44.4870 C   0  0  0  0  0  0  0  0  0  0  0  0
   59.3560   34.8900   45.3370 C   0  0  0  0  0  0  0  0  0  0  0  0
   58.9470   34.8980   46.6720 C   0  0  0  0  0  0  0  0  0  0  0  0
   58.1370   33.8710   47.1600 C   0  0  0  0  0  0  0  0  0  0  0  0
   57.7340   32.8330   46.3150 C   0  0  0  0  0  0  0  0  0  0  0  0
   57.8022   33.0247   42.4041 H   0  0  0  0  0  0  0  0  0  0  0  0
   58.6069   31.4330   42.1907 H   0  0  0  0  0  0  0  0  0  0  0  0
   56.8138   31.5400   42.1907 H   0  0  0  0  0  0  0  0  0  0  0  0
   58.5052   30.9626   46.9132 H   0  0  0  0  0  0  0  0  0  0  0  0
   59.9006   30.3530   48.8434 H   0  0  0  0  0  0  0  0  0  0  0  0
   61.1702   28.6288   50.1250 H   0  0  0  0  0  0  0  0  0  0  0  0
   61.2570   26.2727   49.3171 H   0  0  0  0  0  0  0  0  0  0  0  0
   60.0768   25.6190   47.2171 H   0  0  0  0  0  0  0  0  0  0  0  0
   58.9683   25.2099   45.2861 H   0  0  0  0  0  0  0  0  0  0  0  0
   56.8820   28.1020   43.1110 H   0  0  0  0  0  0  0  0  0  0  0  0
   59.2808   33.8542   43.4360 H   0  0  0  0  0  0  0  0  0  0  0  0
   59.9939   35.6999   44.9532 H   0  0  0  0  0  0  0  0  0  0  0  0
   59.2630   35.7135   47.3392 H   0  0  0  0  0  0  0  0  0  0  0  0
   57.8152   33.8787   48.2118 H   0  0  0  0  0  0  0  0  0  0  0  0
   57.0947   32.0277   46.7058 H   0  0  0  0  0  0  0  0  0  0  0  0
  1  2  1  0
  2  3  1  0
  3  4  2  0
  3  5  1  0
  5  6  2  0
  6  7  1  0
  7  8  2  0
  8  9  1  0
  9 10  2  0
 10 11  1  0
 11 12  2  0
 12 13  1  0
 13 14  1  0
 14 15  2  0
 15 16  1  0
 16 17  2  0
  2 18  1  0
 18 19  2  0
 19 20  1  0
 20 21  2  0
 21 22  1  0
 22 23  2  0
 17  5  1  0
 23 18  1  0
 12  7  1  0
 17 13  1  0
  1 24  1  0
  1 25  1  0
  1 26  1  0
  6 27  1  0
  8 28  1  0
  9 29  1  0
 10 30  1  0
 11 31  1  0
 14 32  1  0
 16 33  1  0
 19 34  1  0
 20 35  1  0
 21 36  1  0
 22 37  1  0
 23 38  1  0
M  CHG  1  16   1
M  END
>  <UniqueID>  (11) 
9

>  <SMILES>  (11) 
CN(C(=O)c1cc2ccccc2n2cn[nH+]c12)c1ccccc1

>  <Energy>  (11) 
98.47638309172021

>  <Genealogy>  (11) 
CN(C(=O)c1cc2ccccc2n2cn[nH+]c12)c1ccccc1 (protonated)
CN(C(=O)c1cc2ccccc2n2cn[nH+]c12)c1ccccc1 (3D coordinates assigned)
CN(C(=O)c1cc2ccccc2n2cn[nH+]c12)c1ccccc1 (optimized conformer: 98.47638309172021 kcal/mol)

>  <smiles>  (11) 
CN(C(=O)c1cc2ccccc2n2cnnc12)c1ccccc1

>  <score_type>  (11) 
oracle

>  <origin>  (11) 
adg

>  <m_score__min__energy>  (11) 
-6.8600000000000003

>  <m_primary>  (11) 
energy

$$$$
11:0
     RDKit          3D

 18 19  0  0  0  0  0  0  0  0999 V2000
   63.2480   33.8340   47.8270 Cl  0  0  0  0  0  0  0  0  0  0  0  0
   61.7800   33.1430   47.1610 C   0  0  0  0  0  0  0  0  0  0  0  0
   61.5420   31.7700   47.2650 C   0  0  0  0  0  0  0  0  0  0  0  0
   60.3730   31.2180   46.7340 C   0  0  0  0  0  0  0  0  0  0  0  0
   59.4240   32.0360   46.0900 C   0  0  0  0  0  0  0  0  0  0  0  0
   58.2170   31.4670   45.5420 N   0  0  0  0  0  0  0  0  0  0  0  0
   57.7930   30.1900   45.6020 C   0  0  0  0  0  0  0  0  0  0  0  0
   56.6130   30.0390   44.9700 N   0  0  0  0  0  0  0  0  0  0  0  0
   56.2690   31.2280   44.4990 N   0  0  0  0  0  0  0  0  0  0  0  0
   57.2440   32.0890   44.8460 C   0  0  0  0  0  0  0  0  0  0  0  0
   59.6750   33.4170   45.9930 C   0  0  0  0  0  0  0  0  0  0  0  0
   60.8470   33.9650   46.5250 C   0  0  0  0  0  0  0  0  0  0  0  0
   62.2764   31.1222   47.7659 H   0  0  0  0  0  0  0  0  0  0  0  0
   60.1925   30.1363   46.8196 H   0  0  0  0  0  0  0  0  0  0  0  0
   58.3391   29.3764   46.1019 H   0  0  0  0  0  0  0  0  0  0  0  0
   57.2465   33.1599   44.5946 H   0  0  0  0  0  0  0  0  0  0  0  0
   58.9440   34.0709   45.4950 H   0  0  0  0  0  0  0  0  0  0  0  0
   61.0342   35.0458   46.4422 H   0  0  0  0  0  0  0  0  0  0  0  0
  1  2  1  0
  2  3  2  0
  3  4  1  0
  4  5  2  0
  5  6  1  0
  6  7  1  0
  7  8  2  0
  8  9  1  0
  9 10  2  0
  5 11  1  0
 11 12  2  0
 12  2  1  0
 10  6  1  0
  3 13  1  0
  4 14  1  0
  7 15  1  0
 10 16  1  0
 11 17  1  0
 12 18  1  0
M  END
>  <UniqueID>  (12) 
10

>  <SMILES>  (12) 
Clc1ccc(-n2cnnc2)cc1

>  <Energy>  (12) 
56.020280671152506

>  <Genealogy>  (12) 
Clc1ccc(-n2cnnc2)cc1 (3D coordinates assigned)
Clc1ccc(-n2cnnc2)cc1 (optimized conformer: 56.020280671152506 kcal/mol)

>  <smiles>  (12) 
Clc1ccc(-n2cnnc2)cc1

>  <score_type>  (12) 
oracle

>  <origin>  (12) 
adg

>  <m_score__min__energy>  (12) 
-5.1699999999999999

>  <m_primary>  (12) 
energy

$$$$
12:0
     RDKit          3D

 44 47  0  0  0  0  0  0  0  0999 V2000
   55.1470   25.4300   46.7900 H   0  0  0  0  0  0  0  0  0  0  0  0
   55.0930   24.4430   46.6980 O   0  0  0  0  0  0  0  0  0  0  0  0
   55.6560   24.1370   45.4520 C   0  0  0  0  0  0  0  0  0  0  0  0
   54.8688   24.1625   44.6841 H   0  0  0  0  0  0  0  0  0  0  0  0
   56.1064   23.1348   45.5043 H   0  0  0  0  0  0  0  0  0  0  0  0
   56.7500   25.1510   45.0860 C   0  0  1  0  0  0  0  0  0  0  0  0
   56.8279   25.1001   43.9899 H   0  0  0  0  0  0  0  0  0  0  0  0
   56.3840   26.4500   45.5020 O   0  0  0  0  0  0  0  0  0  0  0  0
   57.5240   27.0570   46.0770 C   0  0  2  0  0  0  0  0  0  0  0  0
   57.3699   27.1519   47.1620 H   0  0  0  0  0  0  0  0  0  0  0  0
   57.7240   28.4200   45.5440 N   0  0  0  0  0  0  0  0  0  0  0  0
   57.8320   29.4620   46.4370 C   0  0  0  0  0  0  0  0  0  0  0  0
   57.7556   29.2865   47.5202 H   0  0  0  0  0  0  0  0  0  0  0  0
   58.0390   30.7350   45.9380 C   0  0  0  0  0  0  0  0  0  0  0  0
   58.1700   31.8970   46.5980 N   0  0  0  0  0  0  0  0  0  0  0  0
   58.3600   32.7780   45.5750 C   0  0  0  0  0  0  0  0  0  0  0  0
   58.5340   34.2320   45.7510 C   0  0  0  0  0  0  0  0  0  0  0  0
   57.9731   34.8915   45.0725 H   0  0  0  0  0  0  0  0  0  0  0  0
   59.3180   34.8190   46.6680 C   0  0  0  0  0  0  0  0  0  0  0  0
   59.0103   35.8077   47.0393 H   0  0  0  0  0  0  0  0  0  0  0  0
   60.5630   34.2420   47.2190 C   0  0  0  0  0  0  0  0  0  0  0  0
   61.6160   33.8460   46.3750 C   0  0  0  0  0  0  0  0  0  0  0  0
   61.5067   33.9320   45.2838 H   0  0  0  0  0  0  0  0  0  0  0  0
   62.8020   33.3430   46.9200 C   0  0  0  0  0  0  0  0  0  0  0  0
   63.6167   33.0172   46.2565 H   0  0  0  0  0  0  0  0  0  0  0  0
   62.9530   33.2540   48.3060 C   0  0  0  0  0  0  0  0  0  0  0  0
   63.8833   32.8510   48.7329 H   0  0  0  0  0  0  0  0  0  0  0  0
   61.9220   33.6770   49.1510 C   0  0  0  0  0  0  0  0  0  0  0  0
   62.0453   33.6146   50.2423 H   0  0  0  0  0  0  0  0  0  0  0  0
   60.7350   34.1790   48.6100 C   0  0  0  0  0  0  0  0  0  0  0  0
   59.9325   34.5261   49.2775 H   0  0  0  0  0  0  0  0  0  0  0  0
   58.3350   32.2060   44.3800 O   0  0  0  0  0  0  0  0  0  0  0  0
   58.1410   30.9390   44.6140 C   0  0  0  0  0  0  0  0  0  0  0  0
   58.0500   29.9330   43.7160 N   0  0  0  0  0  0  0  0  0  0  0  0
   58.1410   30.1260   42.6930 H   0  0  0  0  0  0  0  0  0  0  0  0
   57.8470   28.6610   44.1820 C   0  0  0  0  0  0  0  0  0  0  0  0
   57.7810   27.7120   43.3540 O   0  0  0  0  0  0  0  0  0  0  0  0
   58.7480   26.1810   45.8330 C   0  0  0  0  0  0  0  0  0  0  0  0
   59.2964   26.5065   44.9368 H   0  0  0  0  0  0  0  0  0  0  0  0
   59.4817   26.2185   46.6517 H   0  0  0  0  0  0  0  0  0  0  0  0
   58.1440   24.8160   45.6340 C   0  0  1  0  0  0  0  0  0  0  0  0
   58.7179   24.1651   44.9580 H   0  0  0  0  0  0  0  0  0  0  0  0
   58.1050   24.0850   46.8400 O   0  0  0  0  0  0  0  0  0  0  0  0
   57.1830   24.1280   47.2050 H   0  0  0  0  0  0  0  0  0  0  0  0
  1  2  1  0
  2  3  1  0
  3  4  1  0
  3  5  1  0
  3  6  1  0
  6  7  1  6
  6  8  1  0
  8  9  1  0
  9 10  1  1
  9 11  1  0
 11 12  1  0
 12 13  1  0
 12 14  2  0
 14 15  1  0
 15 16  2  0
 16 17  1  0
 17 18  1  0
 17 19  2  0
 19 20  1  0
 19 21  1  0
 21 22  2  0
 22 23  1  0
 22 24  1  0
 24 25  1  0
 24 26  2  0
 26 27  1  0
 26 28  1  0
 28 29  1  0
 28 30  2  0
 30 31  1  0
 16 32  1  0
 32 33  1  0
 33 34  2  0
 34 35  1  0
 34 36  1  0
 36 37  2  0
  9 38  1  0
 38 39  1  0
 38 40  1  0
 38 41  1  0
 41 42  1  6
 41 43  1  0
 43 44  1  0
 41  6  1  0
 36 11  1  0
 33 14  1  0
 30 21  1  0
M  CHG  1  34   1
M  END
>  <UniqueID>  (13) 
11

>  <SMILES>  (13) 
O=c1[nH+]c2oc(/C=C\c3ccccc3)nc2cn1[C@@H]1C[C@@H](O)C(CO)O1

>  <Energy>  (13) 
100.34361562206955

>  <Genealogy>  (13) 
O=c1[nH+]c2oc(C=Cc3ccccc3)nc2cn1C1CC(O)C(CO)O1 (protonated)
O=c1[nH+]c2oc(C=Cc3ccccc3)nc2cn1[C@@H]1C[C@@H](O)C(CO)O1 (chirality)
O=c1[nH+]c2oc(/C=C\c3ccccc3)nc2cn1[C@@H]1C[C@@H](O)C(CO)O1 (cis-trans isomerization)
O=c1[nH+]c2oc(/C=C\c3ccccc3)nc2cn1[C@@H]1C[C@@H](O)C(CO)O1 (3D coordinates assigned)
O=c1[nH+]c2oc(/C=C\c3ccccc3)nc2cn1[C@@H]1C[C@@H](O)C(CO)O1 (nonaromatic ring conformer: 100.34361562206955 kcal/mol)

>  <smiles>  (13) 
O=c1nc2oc(C=Cc3ccccc3)nc2cn1C1CC(O)C(CO)O1

>  <score_type>  (13) 
oracle

>  <origin>  (13) 
adg

>  <m_score__min__energy>  (13) 
-6.5999999999999996

>  <m_primary>  (13) 
energy

$$$$
13:0
     RDKit          3D

 52 54  0  0  0  0  0  0  0  0999 V2000
   55.9480   30.7940   52.6490 C   0  0  0  0  0  0  0  0  0  0  0  0
   57.1000   30.8480   51.7040 C   0  0  0  0  0  0  0  0  0  0  0  0
   57.7370   29.7510   51.2400 N   0  0  0  0  0  0  0  0  0  0  0  0
   58.7890   30.0720   50.4390 C   0  0  0  0  0  0  0  0  0  0  0  0
   59.6060   29.0050   49.7840 C   0  0  0  0  0  0  0  0  0  0  0  0
   59.0150   31.4440   50.2990 C   0  0  0  0  0  0  0  0  0  0  0  0
   60.0490   32.1120   49.4910 C   0  0  0  0  0  0  0  0  0  0  0  0
   61.3720   31.8990   49.6970 N   0  0  0  0  0  0  0  0  0  0  0  0
   61.9770   32.5370   48.6830 C   0  0  0  0  0  0  0  0  0  0  0  0
   63.3370   32.5850   48.3900 C   0  0  0  0  0  0  0  0  0  0  0  0
   63.7280   33.2550   47.2170 C   0  0  0  0  0  0  0  0  0  0  0  0
   62.7580   33.8350   46.3670 C   0  0  0  0  0  0  0  0  0  0  0  0
   61.3900   33.7570   46.6870 C   0  0  0  0  0  0  0  0  0  0  0  0
   61.0350   33.1120   47.8750 C   0  0  0  0  0  0  0  0  0  0  0  0
   59.8070   32.8630   48.3780 N   0  0  0  0  0  0  0  0  0  0  0  0
   58.5160   33.1780   47.7540 C   0  0  0  0  0  0  0  0  0  0  0  0
   58.3750   32.4720   46.4010 C   0  0  0  0  0  0  0  0  0  0  0  0
   58.1660   31.0300   46.6020 N   0  0  0  0  0  0  0  0  0  0  0  0
   59.4260   30.2670   46.5760 C   0  0  0  0  0  0  0  0  0  0  0  0
   59.4900   29.2890   45.3920 C   0  0  0  0  0  0  0  0  0  0  0  0
   58.7280   29.8300   44.2590 N   0  0  0  0  0  0  0  0  0  0  0  0
   57.6900   28.8900   43.8040 C   0  0  0  0  0  0  0  0  0  0  0  0
   56.3280   29.5830   43.7630 C   0  0  0  0  0  0  0  0  0  0  0  0
   56.2260   30.5940   44.8110 N   0  0  0  0  0  0  0  0  0  0  0  0
   57.8320   32.2640   51.1680 S   0  0  0  0  0  0  0  0  0  0  0  0
   56.3213   30.8115   53.6836 H   0  0  0  0  0  0  0  0  0  0  0  0
   55.2943   31.6625   52.4803 H   0  0  0  0  0  0  0  0  0  0  0  0
   55.3785   29.8682   52.4803 H   0  0  0  0  0  0  0  0  0  0  0  0
   60.0826   28.3825   50.5556 H   0  0  0  0  0  0  0  0  0  0  0  0
   58.9552   28.3777   49.1572 H   0  0  0  0  0  0  0  0  0  0  0  0
   60.3814   29.4697   49.1572 H   0  0  0  0  0  0  0  0  0  0  0  0
   61.8190   31.3250   50.4470 H   0  0  0  0  0  0  0  0  0  0  0  0
   64.0793   32.1156   49.0523 H   0  0  0  0  0  0  0  0  0  0  0  0
   64.7948   33.3284   46.9591 H   0  0  0  0  0  0  0  0  0  0  0  0
   63.0753   34.3510   45.4488 H   0  0  0  0  0  0  0  0  0  0  0  0
   60.6256   34.1891   46.0244 H   0  0  0  0  0  0  0  0  0  0  0  0
   57.7045   32.8473   48.4189 H   0  0  0  0  0  0  0  0  0  0  0  0
   58.4607   34.2644   47.5907 H   0  0  0  0  0  0  0  0  0  0  0  0
   57.5147   32.8922   45.8594 H   0  0  0  0  0  0  0  0  0  0  0  0
   59.2953   32.6243   45.8181 H   0  0  0  0  0  0  0  0  0  0  0  0
   57.5180   30.6680   45.8640 H   0  0  0  0  0  0  0  0  0  0  0  0
   60.2658   30.9731   46.4977 H   0  0  0  0  0  0  0  0  0  0  0  0
   59.4824   29.6778   47.5032 H   0  0  0  0  0  0  0  0  0  0  0  0
   60.5387   29.1465   45.0922 H   0  0  0  0  0  0  0  0  0  0  0  0
   59.0567   28.3240   45.6938 H   0  0  0  0  0  0  0  0  0  0  0  0
   58.2540   30.7060   44.5860 H   0  0  0  0  0  0  0  0  0  0  0  0
   57.9439   28.5289   42.7965 H   0  0  0  0  0  0  0  0  0  0  0  0
   57.6403   28.0445   44.5059 H   0  0  0  0  0  0  0  0  0  0  0  0
   56.1990   30.0658   42.7831 H   0  0  0  0  0  0  0  0  0  0  0  0
   55.5446   28.8281   43.9256 H   0  0  0  0  0  0  0  0  0  0  0  0
   57.0580   31.2220   44.7270 H   0  0  0  0  0  0  0  0  0  0  0  0
   56.3070   30.1150   45.7370 H   0  0  0  0  0  0  0  0  0  0  0  0
  1  2  1  0
  2  3  2  0
  3  4  1  0
  4  5  1  0
  4  6  2  0
  6  7  1  0
  7  8  2  0
  8  9  1  0
  9 10  2  0
 10 11  1  0
 11 12  2  0
 12 13  1  0
 13 14  2  0
 14 15  1  0
 15 16  1  0
 16 17  1  0
 17 18  1  0
 18 19  1  0
 19 20  1  0
 20 21  1  0
 21 22  1  0
 22 23  1  0
 23 24  1  0
  6 25  1  0
 25  2  1  0
 15  7  1  0
 14  9  1  0
  1 26  1  0
  1 27  1  0
  1 28  1  0
  5 29  1  0
  5 30  1  0
  5 31  1  0
  8 32  1  0
 10 33  1  0
 11 34  1  0
 12 35  1  0
 13 36  1  0
 16 37  1  0
 16 38  1  0
 17 39  1  0
 17 40  1  0
 18 41  1  0
 19 42  1  0
 19 43  1  0
 20 44  1  0
 20 45  1  0
 21 46  1  0
 22 47  1  0
 22 48  1  0
 23 49  1  0
 23 50  1  0
 24 51  1  0
 24 52  1  0
M  CHG  1   8   1
M  END
>  <UniqueID>  (14) 
12

>  <SMILES>  (14) 
Cc1nc(C)c(-c2[nH+]c3ccccc3n2CCNCCNCCN)s1

>  <Energy>  (14) 
119.68907368130846

>  <Genealogy>  (14) 
Cc1nc(C)c(-c2[nH+]c3ccccc3n2CCNCCNCCN)s1 (protonated)
Cc1nc(C)c(-c2[nH+]c3ccccc3n2CCNCCNCCN)s1 (3D coordinates assigned)
Cc1nc(C)c(-c2[nH+]c3ccccc3n2CCNCCNCCN)s1 (optimized conformer: 119.68907368130846 kcal/mol)

>  <smiles>  (14) 
Cc1nc(C)c(-c2nc3ccccc3n2CCNCCNCCN)s1

>  <score_type>  (14) 
oracle

>  <origin>  (14) 
adg

>  <m_score__min__energy>  (14) 
-5.4299999999999997

>  <m_primary>  (14) 
energy

$$$$
14:0
     RDKit          3D

 33 34  0  0  0  0  0  0  0  0999 V2000
   53.4614   25.1506   45.1631 H   0  0  0  0  0  0  0  0  0  0  0  0
   54.4590   25.2080   45.6230 C   0  0  0  0  0  0  0  0  0  0  0  0
   55.1580   26.3570   45.7270 N   0  0  0  0  0  0  0  0  0  0  0  0
   56.2950   25.9830   46.3380 C   0  0  0  0  0  0  0  0  0  0  0  0
   57.4040   26.9250   46.6980 C   0  0  0  0  0  0  0  0  0  0  0  0
   58.1350   26.3909   47.3229 H   0  0  0  0  0  0  0  0  0  0  0  0
   56.9650   27.7761   47.2392 H   0  0  0  0  0  0  0  0  0  0  0  0
   58.1220   27.4730   45.4510 C   0  0  0  0  0  0  0  0  0  0  0  0
   58.7556   26.6763   45.0342 H   0  0  0  0  0  0  0  0  0  0  0  0
   58.7111   28.3454   45.7703 H   0  0  0  0  0  0  0  0  0  0  0  0
   57.1940   27.9320   44.4000 N   0  0  0  0  0  0  0  0  0  0  0  0
   56.2460   27.5090   44.5290 H   0  0  0  0  0  0  0  0  0  0  0  0
   57.5580   27.5990   43.4770 H   0  0  0  0  0  0  0  0  0  0  0  0
   57.1100   29.3670   44.3380 C   0  0  0  0  0  0  0  0  0  0  0  0
   56.4300   30.0890   43.0240 S   0  0  0  0  0  0  0  0  0  0  0  0
   57.3470   30.1340   45.5320 N   0  0  0  0  0  0  0  0  0  0  0  0
   57.7010   31.3860   45.6160 C   0  0  0  0  0  0  0  0  0  0  0  0
   56.8160   32.3350   45.2080 N   0  0  0  0  0  0  0  0  0  0  0  0
   57.0950   33.6630   45.2700 C   0  0  0  0  0  0  0  0  0  0  0  0
   56.3519   34.3968   44.9245 H   0  0  0  0  0  0  0  0  0  0  0  0
   58.3220   34.0980   45.7710 C   0  0  0  0  0  0  0  0  0  0  0  0
   58.5546   35.1723   45.8125 H   0  0  0  0  0  0  0  0  0  0  0  0
   59.2580   33.1530   46.2220 C   0  0  0  0  0  0  0  0  0  0  0  0
   60.5040   33.5220   46.7520 O   0  0  0  0  0  0  0  0  0  0  0  0
   61.5240   32.6000   47.1230 C   0  0  0  0  0  0  0  0  0  0  0  0
   61.5862   32.5438   48.2198 H   0  0  0  0  0  0  0  0  0  0  0  0
   61.2846   31.6057   46.7179 H   0  0  0  0  0  0  0  0  0  0  0  0
   62.4891   32.9383   46.7179 H   0  0  0  0  0  0  0  0  0  0  0  0
   58.9430   31.7930   46.1470 C   0  0  0  0  0  0  0  0  0  0  0  0
   59.6630   31.0409   46.5017 H   0  0  0  0  0  0  0  0  0  0  0  0
   56.2620   24.6320   46.5890 C   0  0  0  0  0  0  0  0  0  0  0  0
   57.0576   24.0525   47.0801 H   0  0  0  0  0  0  0  0  0  0  0  0
   55.0980   24.1350   46.1360 N   0  0  0  0  0  0  0  0  0  0  0  0
  1  2  1  0
  2  3  2  0
  3  4  1  0
  4  5  1  0
  5  6  1  0
  5  7  1  0
  5  8  1  0
  8  9  1  0
  8 10  1  0
  8 11  1  0
 11 12  1  0
 11 13  1  0
 11 14  1  0
 14 15  2  0
 14 16  1  0
 16 17  2  0
 17 18  1  0
 18 19  1  0
 19 20  1  0
 19 21  2  0
 21 22  1  0
 21 23  1  0
 23 24  1  0
 24 25  1  0
 25 26  1  0
 25 27  1  0
 25 28  1  0
 23 29  2  0
 29 30  1  0
  4 31  2  0
 31 32  1  0
 31 33  1  0
 33  2  1  0
 29 17  1  0
M  CHG  3  11   1  18  -1  33  -1
M  END
>  <UniqueID>  (15) 
13

>  <SMILES>  (15) 
COc1cc[n-]/c(=N/C(=S)[NH2+]CCc2c[n-]cn2)c1

>  <Energy>  (15) 
68.31850484081696

>  <Genealogy>  (15) 
COc1cc[n-]c(=NC(=S)[NH2+]CCc2c[n-]cn2)c1 (protonated)
COc1cc[n-]/c(=N/C(=S)[NH2+]CCc2c[n-]cn2)c1 (cis-trans isomerization)
COc1cc[n-]/c(=N/C(=S)[NH2+]CCc2c[n-]cn2)c1 (3D coordinates assigned)
COc1cc[n-]/c(=N/C(=S)[NH2+]CCc2c[n-]cn2)c1 (optimized conformer: 68.31850484081696 kcal/mol)

>  <smiles>  (15) 
COc1cc[nH]c(=NC(=S)NCCc2c[nH]cn2)c1

>  <score_type>  (15) 
oracle

>  <origin>  (15) 
adg

>  <m_score__min__energy>  (15) 
-7.9800000000000004

>  <m_primary>  (15) 
energy

$$$$
15:0
     RDKit          3D

 32 34  0  0  0  0  0  0  0  0999 V2000
   54.8540   25.0630   45.6190 C   0  0  0  0  0  0  0  0  0  0  0  0
   55.2930   26.3650   45.9930 O   0  0  0  0  0  0  0  0  0  0  0  0
   56.6380   26.7560   46.0700 C   0  0  0  0  0  0  0  0  0  0  0  0
   57.5350   26.1920   46.9950 C   0  0  0  0  0  0  0  0  0  0  0  0
   58.8650   26.6170   47.0330 C   0  0  0  0  0  0  0  0  0  0  0  0
   59.3130   27.6050   46.1540 C   0  0  0  0  0  0  0  0  0  0  0  0
   58.4320   28.1780   45.2210 C   0  0  0  0  0  0  0  0  0  0  0  0
   58.8830   29.2210   44.3330 N   0  0  0  0  0  0  0  0  0  0  0  0
   58.2510   30.4630   44.6880 C   0  0  0  0  0  0  0  0  0  0  0  0
   58.6480   31.3530   45.5900 C   0  0  0  0  0  0  0  0  0  0  0  0
   59.8150   31.3900   46.3570 C   0  0  0  0  0  0  0  0  0  0  0  0
   59.9870   32.4580   47.2540 C   0  0  0  0  0  0  0  0  0  0  0  0
   59.0020   33.4600   47.3710 C   0  0  0  0  0  0  0  0  0  0  0  0
   57.8340   33.4060   46.5920 C   0  0  0  0  0  0  0  0  0  0  0  0
   57.6750   32.3410   45.7060 C   0  0  0  0  0  0  0  0  0  0  0  0
   56.6420   32.1590   44.9420 N   0  0  0  0  0  0  0  0  0  0  0  0
   56.9510   30.9490   44.2550 C   0  0  0  0  0  0  0  0  0  0  0  0
   56.1970   30.4050   43.4080 O   0  0  0  0  0  0  0  0  0  0  0  0
   57.0940   27.7460   45.1910 C   0  0  0  0  0  0  0  0  0  0  0  0
   54.6539   24.4696   46.5234 H   0  0  0  0  0  0  0  0  0  0  0  0
   53.9334   25.1438   45.0224 H   0  0  0  0  0  0  0  0  0  0  0  0
   55.6355   24.5698   45.0224 H   0  0  0  0  0  0  0  0  0  0  0  0
   57.1880   25.4138   47.6907 H   0  0  0  0  0  0  0  0  0  0  0  0
   59.5621   26.1717   47.7581 H   0  0  0  0  0  0  0  0  0  0  0  0
   60.3611   27.9366   46.1920 H   0  0  0  0  0  0  0  0  0  0  0  0
   59.9230   29.3160   44.3740 H   0  0  0  0  0  0  0  0  0  0  0  0
   58.6310   28.9840   43.3460 H   0  0  0  0  0  0  0  0  0  0  0  0
   60.5788   30.6042   46.2614 H   0  0  0  0  0  0  0  0  0  0  0  0
   60.8970   32.5127   47.8695 H   0  0  0  0  0  0  0  0  0  0  0  0
   59.1491   34.2902   48.0775 H   0  0  0  0  0  0  0  0  0  0  0  0
   57.0629   34.1857   46.6790 H   0  0  0  0  0  0  0  0  0  0  0  0
   56.3961   28.1919   44.4671 H   0  0  0  0  0  0  0  0  0  0  0  0
  1  2  1  0
  2  3  1  0
  3  4  2  0
  4  5  1  0
  5  6  2  0
  6  7  1  0
  7  8  1  0
  8  9  1  0
  9 10  2  0
 10 11  1  0
 11 12  2  0
 12 13  1  0
 13 14  2  0
 14 15  1  0
 15 16  2  0
 16 17  1  0
 17 18  2  0
  7 19  2  0
 19  3  1  0
 17  9  1  0
 15 10  1  0
  1 20  1  0
  1 21  1  0
  1 22  1  0
  4 23  1  0
  5 24  1  0
  6 25  1  0
  8 26  1  0
  8 27  1  0
 11 28  1  0
 12 29  1  0
 13 30  1  0
 14 31  1  0
 19 32  1  0
M  CHG  1   8   1
M  END
>  <UniqueID>  (16) 
14

>  <SMILES>  (16) 
COc1cccc([NH2+]C2=c3ccccc3=NC2=O)c1

>  <Energy>  (16) 
68.7972130920349

>  <Genealogy>  (16) 
COc1cccc([NH2+]C2=c3ccccc3=NC2=O)c1 (protonated)
COc1cccc([NH2+]C2=c3ccccc3=NC2=O)c1 (3D coordinates assigned)
COc1cccc([NH2+]C2=c3ccccc3=NC2=O)c1 (nonaromatic ring conformer: 68.7972130920349 kcal/mol)

>  <smiles>  (16) 
COc1cccc(NC2=c3ccccc3=NC2=O)c1

>  <score_type>  (16) 
oracle

>  <origin>  (16) 
adg

>  <m_score__min__energy>  (16) 
-6

>  <m_primary>  (16) 
energy

$$$$
16:0
     RDKit          3D

 27 29  0  0  0  0  0  0  0  0999 V2000
   60.7495   35.5895   47.5515 H   0  0  0  0  0  0  0  0  0  0  0  0
   60.1120   34.9780   46.8960 C   0  0  0  0  0  0  0  0  0  0  0  0
   59.6490   35.5060   45.6880 C   0  0  0  0  0  0  0  0  0  0  0  0
   59.9233   36.5309   45.3976 H   0  0  0  0  0  0  0  0  0  0  0  0
   58.8390   34.7380   44.8470 C   0  0  0  0  0  0  0  0  0  0  0  0
   58.4787   35.1599   43.8972 H   0  0  0  0  0  0  0  0  0  0  0  0
   58.4840   33.4300   45.2110 C   0  0  0  0  0  0  0  0  0  0  0  0
   57.6680   32.6500   44.3690 C   0  0  0  0  0  0  0  0  0  0  0  0
   57.2949   33.0511   43.4151 H   0  0  0  0  0  0  0  0  0  0  0  0
   57.3460   31.3590   44.7750 C   0  0  0  0  0  0  0  0  0  0  0  0
   56.4020   30.2220   43.9810 S   0  0  0  0  0  0  0  0  0  0  0  0
   56.6240   29.0810   45.2220 C   0  0  0  0  0  0  0  0  0  0  0  0
   56.1160   27.8850   45.2480 N   0  0  0  0  0  0  0  0  0  0  0  0
   56.6560   26.7550   46.0040 C   0  0  0  0  0  0  0  0  0  0  0  0
   56.0182   25.8738   45.8407 H   0  0  0  0  0  0  0  0  0  0  0  0
   56.6748   27.0207   47.0713 H   0  0  0  0  0  0  0  0  0  0  0  0
   58.0780   26.4340   45.5540 C   0  0  0  0  0  0  0  0  0  0  0  0
   58.7181   26.2895   46.4368 H   0  0  0  0  0  0  0  0  0  0  0  0
   58.0728   25.5144   44.9504 H   0  0  0  0  0  0  0  0  0  0  0  0
   58.4683   27.2666   44.9504 H   0  0  0  0  0  0  0  0  0  0  0  0
   57.3990   29.5530   46.2270 N   0  0  0  0  0  0  0  0  0  0  0  0
   57.8000   30.8240   45.9710 C   0  0  0  0  0  0  0  0  0  0  0  0
   58.6090   31.5780   46.8220 C   0  0  0  0  0  0  0  0  0  0  0  0
   58.9686   31.1549   47.7715 H   0  0  0  0  0  0  0  0  0  0  0  0
   58.9580   32.8910   46.4450 C   0  0  0  0  0  0  0  0  0  0  0  0
   59.7700   33.6780   47.2760 C   0  0  0  0  0  0  0  0  0  0  0  0
   60.1381   33.2702   48.2290 H   0  0  0  0  0  0  0  0  0  0  0  0
  1  2  1  0
  2  3  2  0
  3  4  1  0
  3  5  1  0
  5  6  1  0
  5  7  2  0
  7  8  1  0
  8  9  1  0
  8 10  2  0
 10 11  1  0
 11 12  1  0
 12 13  2  0
 13 14  1  0
 14 15  1  0
 14 16  1  0
 14 17  1  0
 17 18  1  0
 17 19  1  0
 17 20  1  0
 12 21  1  0
 21 22  1  0
 22 23  2  0
 23 24  1  0
 23 25  1  0
 25 26  2  0
 26 27  1  0
 26  2  1  0
 25  7  1  0
 22 10  1  0
M  CHG  1  21  -1
M  END
>  <UniqueID>  (17) 
15

>  <SMILES>  (17) 
CC/N=c1/[n-]c2cc3ccccc3cc2s1

>  <Energy>  (17) 
64.38857836514948

>  <Genealogy>  (17) 
CCN=c1[n-]c2cc3ccccc3cc2s1 (protonated)
CC/N=c1/[n-]c2cc3ccccc3cc2s1 (cis-trans isomerization)
CC/N=c1/[n-]c2cc3ccccc3cc2s1 (3D coordinates assigned)
CC/N=c1/[n-]c2cc3ccccc3cc2s1 (optimized conformer: 64.38857836514948 kcal/mol)

>  <smiles>  (17) 
CCN=c1[nH]c2cc3ccccc3cc2s1

>  <score_type>  (17) 
oracle

>  <origin>  (17) 
adg

>  <m_score__min__energy>  (17) 
-7.9699999999999998

>  <m_primary>  (17) 
energy

$$$$
17:0
     RDKit          3D

 30 31  0  0  0  0  0  0  0  0999 V2000
   55.2540   30.6340   44.4970 O   0  0  0  0  0  0  0  0  0  0  0  0
   56.2760   29.9200   44.3220 C   0  0  0  0  0  0  0  0  0  0  0  0
   56.3090   28.6080   44.8960 N   0  0  0  0  0  0  0  0  0  0  0  0
   57.3940   27.6490   44.7170 C   0  0  0  0  0  0  0  0  0  0  0  0
   58.6440   28.1310   45.3880 C   0  0  0  0  0  0  0  0  0  0  0  0
   59.8140   28.5280   44.7520 C   0  0  0  0  0  0  0  0  0  0  0  0
   60.8040   28.9620   45.6420 C   0  0  0  0  0  0  0  0  0  0  0  0
   60.4140   28.9210   46.9740 C   0  0  0  0  0  0  0  0  0  0  0  0
   58.8370   28.3400   47.0450 S   0  0  0  0  0  0  0  0  0  0  0  0
   57.3880   30.4290   43.5700 N   0  0  0  0  0  0  0  0  0  0  0  0
   57.6700   31.8580   43.4830 C   0  0  0  0  0  0  0  0  0  0  0  0
   58.0410   32.3810   44.8450 C   0  0  0  0  0  0  0  0  0  0  0  0
   58.8440   31.6050   45.6960 C   0  0  0  0  0  0  0  0  0  0  0  0
   59.2380   32.1030   46.9420 C   0  0  0  0  0  0  0  0  0  0  0  0
   58.8390   33.3800   47.3430 C   0  0  0  0  0  0  0  0  0  0  0  0
   58.0530   34.1650   46.4960 C   0  0  0  0  0  0  0  0  0  0  0  0
   57.6600   33.6750   45.2470 C   0  0  0  0  0  0  0  0  0  0  0  0
   56.9210   34.4650   44.4270 F   0  0  0  0  0  0  0  0  0  0  0  0
   57.0986   26.6840   45.1545 H   0  0  0  0  0  0  0  0  0  0  0  0
   57.5917   27.5360   43.6408 H   0  0  0  0  0  0  0  0  0  0  0  0
   59.9487   28.5038   43.6605 H   0  0  0  0  0  0  0  0  0  0  0  0
   61.7977   29.3035   45.3164 H   0  0  0  0  0  0  0  0  0  0  0  0
   61.0307   29.2176   47.8352 H   0  0  0  0  0  0  0  0  0  0  0  0
   58.1240   29.7720   43.2280 H   0  0  0  0  0  0  0  0  0  0  0  0
   58.5047   32.0251   42.7864 H   0  0  0  0  0  0  0  0  0  0  0  0
   56.7765   32.3862   43.1187 H   0  0  0  0  0  0  0  0  0  0  0  0
   59.1646   30.6009   45.3813 H   0  0  0  0  0  0  0  0  0  0  0  0
   59.8627   31.4884   47.6068 H   0  0  0  0  0  0  0  0  0  0  0  0
   59.1438   33.7678   48.3262 H   0  0  0  0  0  0  0  0  0  0  0  0
   57.7424   35.1716   46.8127 H   0  0  0  0  0  0  0  0  0  0  0  0
  1  2  2  0
  2  3  1  0
  3  4  1  0
  4  5  1  0
  5  6  2  0
  6  7  1  0
  7  8  2  0
  8  9  1  0
  2 10  1  0
 10 11  1  0
 11 12  1  0
 12 13  2  0
 13 14  1  0
 14 15  2  0
 15 16  1  0
 16 17  2  0
 17 18  1  0
  9  5  1  0
 17 12  1  0
  4 19  1  0
  4 20  1  0
  6 21  1  0
  7 22  1  0
  8 23  1  0
 10 24  1  0
 11 25  1  0
 11 26  1  0
 13 27  1  0
 14 28  1  0
 15 29  1  0
 16 30  1  0
M  CHG  1   3  -1
M  END
>  <UniqueID>  (18) 
16

>  <SMILES>  (18) 
O=C([N-]Cc1cccs1)NCc1ccccc1F

>  <Energy>  (18) 
48.593225204657195

>  <Genealogy>  (18) 
O=C([N-]Cc1cccs1)NCc1ccccc1F (protonated)
O=C([N-]Cc1cccs1)NCc1ccccc1F (3D coordinates assigned)
O=C([N-]Cc1cccs1)NCc1ccccc1F (optimized conformer: 48.593225204657195 kcal/mol)

>  <smiles>  (18) 
O=C(NCc1cccs1)NCc1ccccc1F

>  <score_type>  (18) 
oracle

>  <origin>  (18) 
adg

>  <m_score__min__energy>  (18) 
-8.4199999999999999

>  <m_primary>  (18) 
energy

$$$$
18:0
     RDKit          3D

 43 45  0  0  1  0  0  0  0  0999 V2000
   56.5450   30.0910   42.6150 C   0  0  0  0  0  0  0  0  0  0  0  0
   56.7850   29.7930   44.3420 S   0  0  0  0  0  0  0  0  0  0  0  0
   55.4960   29.1990   44.8540 O   0  0  0  0  0  0  0  0  0  0  0  0
   56.9870   31.0860   45.0630 O   0  0  0  0  0  0  0  0  0  0  0  0
   58.0280   28.6940   44.6990 N   0  0  0  0  0  0  0  0  0  0  0  0
   58.1830   27.6000   43.8030 C   0  0  0  0  0  0  0  0  0  0  0  0
   57.7110   26.3930   44.6240 C   0  0  0  0  0  0  0  0  0  0  0  0
   58.3220   26.7390   45.9820 C   0  0  0  0  0  0  0  0  0  0  0  0
   58.0170   28.2170   46.0470 C   0  0  1  0  0  0  0  0  0  0  0  0
   58.9940   28.9600   46.8760 C   0  0  0  0  0  0  0  0  0  0  0  0
   59.6580   30.0730   46.4090 C   0  0  0  0  0  0  0  0  0  0  0  0
   60.5540   30.6940   47.2710 C   0  0  0  0  0  0  0  0  0  0  0  0
   61.2140   31.7520   46.8910 N   0  0  0  0  0  0  0  0  0  0  0  0
   60.8040   33.0210   47.4950 C   0  0  0  0  0  0  0  0  0  0  0  0
   59.5850   33.4340   46.7480 C   0  0  0  0  0  0  0  0  0  0  0  0
   59.6860   34.1300   45.5380 C   0  0  0  0  0  0  0  0  0  0  0  0
   58.5110   34.4940   44.8770 C   0  0  0  0  0  0  0  0  0  0  0  0
   57.2960   34.1570   45.4380 C   0  0  0  0  0  0  0  0  0  0  0  0
   57.1980   33.4690   46.6350 C   0  0  0  0  0  0  0  0  0  0  0  0
   58.3560   33.1080   47.2890 C   0  0  0  0  0  0  0  0  0  0  0  0
   60.7590   30.2120   48.5280 N   0  0  0  0  0  0  0  0  0  0  0  0
   60.0970   29.1200   48.9630 C   0  0  0  0  0  0  0  0  0  0  0  0
   59.2350   28.5260   48.1270 N   0  0  0  0  0  0  0  0  0  0  0  0
   55.8601   30.9414   42.4814 H   0  0  0  0  0  0  0  0  0  0  0  0
   57.5123   30.3218   42.1448 H   0  0  0  0  0  0  0  0  0  0  0  0
   56.1133   29.1951   42.1448 H   0  0  0  0  0  0  0  0  0  0  0  0
   57.5588   27.7343   42.9073 H   0  0  0  0  0  0  0  0  0  0  0  0
   59.2140   27.4907   43.4356 H   0  0  0  0  0  0  0  0  0  0  0  0
   56.6135   26.3367   44.6728 H   0  0  0  0  0  0  0  0  0  0  0  0
   58.0066   25.4138   44.2194 H   0  0  0  0  0  0  0  0  0  0  0  0
   57.8356   26.1868   46.7996 H   0  0  0  0  0  0  0  0  0  0  0  0
   59.3869   26.4838   46.0860 H   0  0  0  0  0  0  0  0  0  0  0  0
   57.0399   28.3780   46.5259 H   0  0  0  0  0  0  0  0  0  0  0  0
   59.4855   30.4557   45.3923 H   0  0  0  0  0  0  0  0  0  0  0  0
   60.5744   32.8838   48.5620 H   0  0  0  0  0  0  0  0  0  0  0  0
   61.5985   33.7795   47.4361 H   0  0  0  0  0  0  0  0  0  0  0  0
   60.6697   34.3848   45.1168 H   0  0  0  0  0  0  0  0  0  0  0  0
   58.5532   35.0410   43.9236 H   0  0  0  0  0  0  0  0  0  0  0  0
   56.3723   34.4455   44.9151 H   0  0  0  0  0  0  0  0  0  0  0  0
   56.2141   33.2151   47.0564 H   0  0  0  0  0  0  0  0  0  0  0  0
   58.3020   32.5604   48.2415 H   0  0  0  0  0  0  0  0  0  0  0  0
   61.4510   30.7280   49.1310 H   0  0  0  0  0  0  0  0  0  0  0  0
   60.2607   28.7276   49.9775 H   0  0  0  0  0  0  0  0  0  0  0  0
  1  2  1  0
  2  3  2  0
  2  4  2  0
  2  5  1  0
  5  6  1  0
  6  7  1  0
  7  8  1  0
  8  9  1  0
  9 10  1  0
 10 11  2  0
 11 12  1  0
 12 13  2  0
 13 14  1  0
 14 15  1  0
 15 16  2  0
 16 17  1  0
 17 18  2  0
 18 19  1  0
 19 20  2  0
 12 21  1  0
 21 22  1  0
 22 23  2  0
  9  5  1  0
 23 10  1  0
 20 15  1  0
  1 24  1  0
  1 25  1  0
  1 26  1  0
  6 27  1  0
  6 28  1  0
  7 29  1  0
  7 30  1  0
  8 31  1  0
  8 32  1  0
  9 33  1  1
 11 34  1  0
 14 35  1  0
 14 36  1  0
 16 37  1  0
 17 38  1  0
 18 39  1  0
 19 40  1  0
 20 41  1  0
 21 42  1  0
 22 43  1  0
M  END
>  <smiles>  (19) 
CS(=O)(=O)N1CCCC1c1cc(=NCc2ccccc2)[nH]cn1

>  <score_type>  (19) 
oracle

>  <origin>  (19) 
adg

>  <m_score__min__energy>  (19) 
-8.5999999999999996

>  <m_primary>  (19) 
energy

$$$$
19:0
     RDKit          3D

 32 33  0  0  0  0  0  0  0  0999 V2000
   59.5330   34.5700   47.7660 C   0  0  0  0  0  0  0  0  0  0  0  0
   59.7190   34.9550   45.9970 S   0  0  0  0  0  0  0  0  0  0  0  0
   58.7790   33.5240   45.4640 C   0  0  0  0  0  0  0  0  0  0  0  0
   58.2890   33.4540   44.1570 C   0  0  0  0  0  0  0  0  0  0  0  0
   57.5540   32.3410   43.7400 C   0  0  0  0  0  0  0  0  0  0  0  0
   57.2960   31.2770   44.6290 C   0  0  0  0  0  0  0  0  0  0  0  0
   56.5180   30.0780   44.2050 C   0  0  0  0  0  0  0  0  0  0  0  0
   55.5150   29.7170   44.8780 O   0  0  0  0  0  0  0  0  0  0  0  0
   56.8990   29.2640   43.0030 C   0  0  0  0  0  0  0  0  0  0  0  0
   57.8060   28.2420   43.4020 O   0  0  0  0  0  0  0  0  0  0  0  0
   58.5530   28.1810   44.5930 C   0  0  0  0  0  0  0  0  0  0  0  0
   59.7830   28.8540   44.5810 C   0  0  0  0  0  0  0  0  0  0  0  0
   60.6180   28.8480   45.7010 C   0  0  0  0  0  0  0  0  0  0  0  0
   60.2310   28.1720   46.8550 C   0  0  0  0  0  0  0  0  0  0  0  0
   59.0060   27.5050   46.8940 C   0  0  0  0  0  0  0  0  0  0  0  0
   58.1550   27.5020   45.7800 C   0  0  0  0  0  0  0  0  0  0  0  0
   56.6160   26.6740   45.9850 Cl  0  0  0  0  0  0  0  0  0  0  0  0
   57.7920   31.3630   45.9440 C   0  0  0  0  0  0  0  0  0  0  0  0
   58.5260   32.4790   46.3570 C   0  0  0  0  0  0  0  0  0  0  0  0
   59.9340   35.4001   48.3661 H   0  0  0  0  0  0  0  0  0  0  0  0
   58.4676   34.4293   48.0006 H   0  0  0  0  0  0  0  0  0  0  0  0
   60.0850   33.6479   48.0006 H   0  0  0  0  0  0  0  0  0  0  0  0
   58.4825   34.2778   43.4542 H   0  0  0  0  0  0  0  0  0  0  0  0
   57.1732   32.2944   42.7091 H   0  0  0  0  0  0  0  0  0  0  0  0
   55.9984   28.8076   42.5665 H   0  0  0  0  0  0  0  0  0  0  0  0
   57.3764   29.9114   42.2527 H   0  0  0  0  0  0  0  0  0  0  0  0
   60.0953   29.3951   43.6757 H   0  0  0  0  0  0  0  0  0  0  0  0
   61.5817   29.3776   45.6711 H   0  0  0  0  0  0  0  0  0  0  0  0
   60.8905   28.1637   47.7354 H   0  0  0  0  0  0  0  0  0  0  0  0
   58.7045   26.9753   47.8097 H   0  0  0  0  0  0  0  0  0  0  0  0
   57.6002   30.5443   46.6532 H   0  0  0  0  0  0  0  0  0  0  0  0
   58.9055   32.5348   47.3879 H   0  0  0  0  0  0  0  0  0  0  0  0
  1  2  1  0
  2  3  1  0
  3  4  2  0
  4  5  1  0
  5  6  2  0
  6  7  1  0
  7  8  2  0
  7  9  1  0
  9 10  1  0
 10 11  1  0
 11 12  2  0
 12 13  1  0
 13 14  2  0
 14 15  1  0
 15 16  2  0
 16 17  1  0
  6 18  1  0
 18 19  2  0
 19  3  1  0
 16 11  1  0
  1 20  1  0
  1 21  1  0
  1 22  1  0
  4 23  1  0
  5 24  1  0
  9 25  1  0
  9 26  1  0
 12 27  1  0
 13 28  1  0
 14 29  1  0
 15 30  1  0
 18 31  1  0
 19 32  1  0
M  END
>  <UniqueID>  (20) 
17

>  <SMILES>  (20) 
CSc1ccc(C(=O)COc2ccccc2Cl)cc1

>  <Energy>  (20) 
34.66784212905359

>  <Genealogy>  (20) 
CSc1ccc(C(=O)COc2ccccc2Cl)cc1 (3D coordinates assigned)
CSc1ccc(C(=O)COc2ccccc2Cl)cc1 (optimized conformer: 34.66784212905359 kcal/mol)

>  <smiles>  (20) 
CSc1ccc(C(=O)COc2ccccc2Cl)cc1

>  <score_type>  (20) 
oracle

>  <origin>  (20) 
adg

>  <m_score__min__energy>  (20) 
-7.0099999999999998

>  <m_primary>  (20) 
energy

$$$$
20:0
     RDKit          3D

 50 54  0  0  1  0  0  0  0  0999 V2000
   59.6520   33.4660   50.3670 C   0  0  0  0  0  0  0  0  0  0  0  0
   60.0170   32.9190   49.1230 O   0  0  0  0  0  0  0  0  0  0  0  0
   61.3400   32.9380   48.7200 C   0  0  0  0  0  0  0  0  0  0  0  0
   62.3900   32.6090   49.5530 C   0  0  0  0  0  0  0  0  0  0  0  0
   63.6490   32.6610   49.0510 C   0  0  0  0  0  0  0  0  0  0  0  0
   64.7810   32.2960   49.9900 C   0  0  0  0  0  0  0  0  0  0  0  0
   66.0010   32.8150   50.0910 C   0  0  0  0  0  0  0  0  0  0  0  0
   66.7680   32.2750   51.0210 N   0  0  0  0  0  0  0  0  0  0  0  0
   66.5340   31.4270   51.7490 C   0  0  0  0  0  0  0  0  0  0  0  0
   64.7260   31.0470   51.2100 S   0  0  0  0  0  0  0  0  0  0  0  0
   63.9630   33.0220   47.7650 C   0  0  0  0  0  0  0  0  0  0  0  0
   62.9050   33.3520   46.9340 C   0  0  0  0  0  0  0  0  0  0  0  0
   61.5810   33.3170   47.3930 C   0  0  0  0  0  0  0  0  0  0  0  0
   60.4700   33.6510   46.5300 C   0  0  0  0  0  0  0  0  0  0  0  0
   60.2660   34.9580   46.2340 N   0  0  0  0  0  0  0  0  0  0  0  0
   59.2550   35.3690   45.4340 C   0  0  0  0  0  0  0  0  0  0  0  0
   58.3840   34.4480   44.8870 C   0  0  0  0  0  0  0  0  0  0  0  0
   58.5430   33.1030   45.1550 C   0  0  0  0  0  0  0  0  0  0  0  0
   57.6900   32.1540   44.6230 C   0  0  0  0  0  0  0  0  0  0  0  0
   57.8670   30.8140   44.8990 C   0  0  0  0  0  0  0  0  0  0  0  0
   56.8310   29.5590   44.2580 S   0  0  0  0  0  0  0  0  0  0  0  0
   55.6140   29.5300   45.1840 O   0  0  0  0  0  0  0  0  0  0  0  0
   56.2630   29.9160   42.9120 O   0  0  0  0  0  0  0  0  0  0  0  0
   57.5060   28.0020   44.3450 N   0  0  0  0  0  0  0  0  0  0  0  0
   57.5690   27.2270   45.3430 C   0  0  0  0  0  0  0  0  0  0  0  0
   58.7750   27.1730   46.0360 C   0  0  0  0  0  0  0  0  0  0  0  0
   58.8080   26.3170   47.1180 C   0  0  0  0  0  0  0  0  0  0  0  0
   57.7190   25.5800   47.4700 N   0  0  0  0  0  0  0  0  0  0  0  0
   56.5630   25.6530   46.7800 C   0  0  0  0  0  0  0  0  0  0  0  0
   56.5210   26.4790   45.7290 N   0  0  0  0  0  0  0  0  0  0  0  0
   58.9230   30.4850   45.7220 C   0  0  0  0  0  0  0  0  0  0  0  0
   59.7880   31.3950   46.2690 C   0  0  0  0  0  0  0  0  0  0  0  0
   59.6000   32.7320   45.9840 C   0  0  0  0  0  0  0  0  0  0  0  0
   60.0658   32.8459   51.1758 H   0  0  0  0  0  0  0  0  0  0  0  0
   60.0495   34.4884   50.4488 H   0  0  0  0  0  0  0  0  0  0  0  0
   58.5553   33.4914   50.4488 H   0  0  0  0  0  0  0  0  0  0  0  0
   62.2106   32.3123   50.5969 H   0  0  0  0  0  0  0  0  0  0  0  0
   66.3471   33.6359   49.4458 H   0  0  0  0  0  0  0  0  0  0  0  0
   67.1576   30.9641   52.5280 H   0  0  0  0  0  0  0  0  0  0  0  0
   65.0042   33.0481   47.4112 H   0  0  0  0  0  0  0  0  0  0  0  0
   63.1077   33.6472   45.8939 H   0  0  0  0  0  0  0  0  0  0  0  0
   59.1267   36.4401   45.2188 H   0  0  0  0  0  0  0  0  0  0  0  0
   57.5631   34.7859   44.2375 H   0  0  0  0  0  0  0  0  0  0  0  0
   56.8613   32.4708   43.9727 H   0  0  0  0  0  0  0  0  0  0  0  0
   59.6469   27.7748   45.7398 H   0  0  0  0  0  0  0  0  0  0  0  0
   59.7324   26.2285   47.7076 H   0  0  0  0  0  0  0  0  0  0  0  0
   57.7360   24.9300   48.2830 H   0  0  0  0  0  0  0  0  0  0  0  0
   55.6866   25.0552   47.0708 H   0  0  0  0  0  0  0  0  0  0  0  0
   59.0812   29.4216   45.9546 H   0  0  0  0  0  0  0  0  0  0  0  0
   60.6125   31.0681   46.9197 H   0  0  0  0  0  0  0  0  0  0  0  0
  1  2  1  0
  2  3  1  0
  3  4  2  0
  4  5  1  0
  5  6  1  0
  6  7  2  0
  7  8  1  0
  8  9  2  0
  9 10  1  0
  5 11  2  0
 11 12  1  0
 12 13  2  0
 13 14  1  0
 14 15  2  0
 15 16  1  0
 16 17  2  0
 17 18  1  0
 18 19  2  0
 19 20  1  0
 20 21  1  0
 21 22  2  0
 21 23  2  0
 21 24  1  0
 24 25  2  0
 25 26  1  0
 26 27  2  0
 27 28  1  0
 28 29  1  0
 29 30  2  0
 20 31  2  0
 31 32  1  0
 32 33  2  0
 13  3  1  0
 33 14  1  0
 10  6  1  0
 33 18  1  0
 30 25  1  0
  1 34  1  0
  1 35  1  0
  1 36  1  0
  4 37  1  0
  7 38  1  0
  9 39  1  0
 11 40  1  0
 12 41  1  0
 16 42  1  0
 17 43  1  0
 19 44  1  0
 26 45  1  0
 27 46  1  0
 28 47  1  0
 29 48  1  0
 31 49  1  0
 32 50  1  0
M  END
>  <smiles>  (21) 
COc1cc(-c2cncs2)ccc1-c1nccc2cc(S(=O)(=O)N=c3cc[nH]cn3)ccc12

>  <score_type>  (21) 
oracle

>  <origin>  (21) 
adg

>  <m_score__min__energy>  (21) 
-10.26

>  <m_primary>  (21) 
energy

$$$$
21:0
     RDKit          3D

 47 50  0  0  0  0  0  0  0  0999 V2000
   55.3290   29.3900   52.7770 C   0  0  0  0  0  0  0  0  0  0  0  0
   56.5200   29.3470   51.9980 O   0  0  0  0  0  0  0  0  0  0  0  0
   57.3230   30.4630   51.7170 C   0  0  0  0  0  0  0  0  0  0  0  0
   58.4120   30.4050   50.8270 C   0  0  0  0  0  0  0  0  0  0  0  0
   59.1810   31.5450   50.5790 C   0  0  0  0  0  0  0  0  0  0  0  0
   58.8680   32.7640   51.2020 C   0  0  0  0  0  0  0  0  0  0  0  0
   59.7090   33.9920   50.9470 C   0  0  0  0  0  0  0  0  0  0  0  0
   60.4180   33.8950   49.6540 N   0  0  0  0  0  0  0  0  0  0  0  0
   59.6860   34.1130   48.5170 C   0  0  0  0  0  0  0  0  0  0  0  0
   60.2720   34.0830   47.2480 C   0  0  0  0  0  0  0  0  0  0  0  0
   59.4290   34.3380   46.0560 C   0  0  0  0  0  0  0  0  0  0  0  0
   59.3130   35.5240   45.6410 O   0  0  0  0  0  0  0  0  0  0  0  0
   58.7390   33.2450   45.3260 C   0  0  0  0  0  0  0  0  0  0  0  0
   58.4120   32.0360   45.9720 C   0  0  0  0  0  0  0  0  0  0  0  0
   57.7740   31.0100   45.2690 C   0  0  0  0  0  0  0  0  0  0  0  0
   57.4630   31.1730   43.9180 C   0  0  0  0  0  0  0  0  0  0  0  0
   57.7930   32.3610   43.2630 C   0  0  0  0  0  0  0  0  0  0  0  0
   58.4320   33.3920   43.9610 C   0  0  0  0  0  0  0  0  0  0  0  0
   61.6370   33.7830   47.1360 C   0  0  0  0  0  0  0  0  0  0  0  0
   62.1710   33.6960   45.9950 O   0  0  0  0  0  0  0  0  0  0  0  0
   62.4010   33.5630   48.2950 C   0  0  0  0  0  0  0  0  0  0  0  0
   63.7790   33.2820   48.2040 C   0  0  0  0  0  0  0  0  0  0  0  0
   64.5340   33.0680   49.3550 C   0  0  0  0  0  0  0  0  0  0  0  0
   63.9300   33.1290   50.6080 C   0  0  0  0  0  0  0  0  0  0  0  0
   62.5660   33.4020   50.7190 C   0  0  0  0  0  0  0  0  0  0  0  0
   61.7710   33.6250   49.5680 C   0  0  0  0  0  0  0  0  0  0  0  0
   57.7930   32.8150   52.1040 C   0  0  0  0  0  0  0  0  0  0  0  0
   57.0250   31.6740   52.3510 C   0  0  0  0  0  0  0  0  0  0  0  0
   55.5893   29.3806   53.8457 H   0  0  0  0  0  0  0  0  0  0  0  0
   54.7712   30.3089   52.5436 H   0  0  0  0  0  0  0  0  0  0  0  0
   54.7063   28.5137   52.5436 H   0  0  0  0  0  0  0  0  0  0  0  0
   58.6587   29.4581   50.3245 H   0  0  0  0  0  0  0  0  0  0  0  0
   60.0374   31.4872   49.8911 H   0  0  0  0  0  0  0  0  0  0  0  0
   59.0563   34.8773   50.9328 H   0  0  0  0  0  0  0  0  0  0  0  0
   60.4571   34.0746   51.7492 H   0  0  0  0  0  0  0  0  0  0  0  0
   58.6087   34.3171   48.6046 H   0  0  0  0  0  0  0  0  0  0  0  0
   58.6601   31.8990   47.0349 H   0  0  0  0  0  0  0  0  0  0  0  0
   57.5163   30.0716   45.7818 H   0  0  0  0  0  0  0  0  0  0  0  0
   56.9575   30.3648   43.3690 H   0  0  0  0  0  0  0  0  0  0  0  0
   57.5505   32.4867   42.1974 H   0  0  0  0  0  0  0  0  0  0  0  0
   58.6960   34.3235   43.4389 H   0  0  0  0  0  0  0  0  0  0  0  0
   64.2619   33.2313   47.2170 H   0  0  0  0  0  0  0  0  0  0  0  0
   65.6092   32.8505   49.2738 H   0  0  0  0  0  0  0  0  0  0  0  0
   64.5305   32.9613   51.5142 H   0  0  0  0  0  0  0  0  0  0  0  0
   62.1013   33.4447   51.7151 H   0  0  0  0  0  0  0  0  0  0  0  0
   57.5543   33.7575   52.6185 H   0  0  0  0  0  0  0  0  0  0  0  0
   56.1780   31.7285   53.0507 H   0  0  0  0  0  0  0  0  0  0  0  0
  1  2  1  0
  2  3  1  0
  3  4  2  0
  4  5  1  0
  5  6  2  0
  6  7  1  0
  7  8  1  0
  8  9  1  0
  9 10  2  0
 10 11  1  0
 11 12  2  0
 11 13  1  0
 13 14  2  0
 14 15  1  0
 15 16  2  0
 16 17  1  0
 17 18  2  0
 10 19  1  0
 19 20  2  0
 19 21  1  0
 21 22  2  0
 22 23  1  0
 23 24  2  0
 24 25  1  0
 25 26  2  0
  6 27  1  0
 27 28  2  0
 28  3  1  0
 26  8  1  0
 18 13  1  0
 26 21  1  0
  1 29  1  0
  1 30  1  0
  1 31  1  0
  4 32  1  0
  5 33  1  0
  7 34  1  0
  7 35  1  0
  9 36  1  0
 14 37  1  0
 15 38  1  0
 16 39  1  0
 17 40  1  0
 18 41  1  0
 22 42  1  0
 23 43  1  0
 24 44  1  0
 25 45  1  0
 27 46  1  0
 28 47  1  0
M  END
>  <UniqueID>  (22) 
18

>  <SMILES>  (22) 
COc1ccc(Cn2cc(C(=O)c3ccccc3)c(=O)c3ccccc32)cc1

>  <Energy>  (22) 
68.0363938676513

>  <Genealogy>  (22) 
COc1ccc(Cn2cc(C(=O)c3ccccc3)c(=O)c3ccccc32)cc1 (3D coordinates assigned)
COc1ccc(Cn2cc(C(=O)c3ccccc3)c(=O)c3ccccc32)cc1 (optimized conformer: 68.0363938676513 kcal/mol)

>  <smiles>  (22) 
COc1ccc(Cn2cc(C(=O)c3ccccc3)c(=O)c3ccccc32)cc1

>  <score_type>  (22) 
oracle

>  <origin>  (22) 
adg

>  <m_score__min__energy>  (22) 
-8.6500000000000004

>  <m_primary>  (22) 
energy

$$$$
22:0
     RDKit          3D

 53 57  0  0  0  0  0  0  0  0999 V2000
   67.3790   33.6560   52.5850 C   0  0  0  0  0  0  0  0  0  0  0  0
   67.1120   32.4290   51.7950 N   0  0  0  0  0  0  0  0  0  0  0  0
   67.1470   32.7220   50.3340 C   0  0  0  0  0  0  0  0  0  0  0  0
   65.7610   33.0650   49.7610 C   0  0  0  0  0  0  0  0  0  0  0  0
   64.8040   31.9890   50.0540 N   0  0  0  0  0  0  0  0  0  0  0  0
   63.5910   31.8590   49.2790 C   0  0  0  0  0  0  0  0  0  0  0  0
   62.4550   31.2400   49.8330 C   0  0  0  0  0  0  0  0  0  0  0  0
   61.2840   31.1040   49.0810 C   0  0  0  0  0  0  0  0  0  0  0  0
   61.2240   31.5920   47.7690 C   0  0  0  0  0  0  0  0  0  0  0  0
   60.0230   31.4420   46.9950 N   0  0  0  0  0  0  0  0  0  0  0  0
   59.3840   30.2860   46.6890 C   0  0  0  0  0  0  0  0  0  0  0  0
   58.2310   30.5440   45.9680 C   0  0  0  0  0  0  0  0  0  0  0  0
   58.1740   31.9130   45.8000 C   0  0  0  0  0  0  0  0  0  0  0  0
   57.2480   32.7320   45.1510 C   0  0  0  0  0  0  0  0  0  0  0  0
   57.4760   34.1200   45.1590 C   0  0  0  0  0  0  0  0  0  0  0  0
   56.6010   34.9510   44.5360 F   0  0  0  0  0  0  0  0  0  0  0  0
   58.6100   34.6540   45.8070 C   0  0  0  0  0  0  0  0  0  0  0  0
   59.5290   33.8060   46.4570 C   0  0  0  0  0  0  0  0  0  0  0  0
   59.2790   32.4300   46.4430 C   0  0  0  0  0  0  0  0  0  0  0  0
   57.3110   29.4770   45.5540 C   0  0  0  0  0  0  0  0  0  0  0  0
   56.2860   29.7310   44.8670 O   0  0  0  0  0  0  0  0  0  0  0  0
   57.5860   28.0740   46.0320 C   0  0  0  0  0  0  0  0  0  0  0  0
   59.0950   27.8350   46.2730 C   0  0  0  0  0  0  0  0  0  0  0  0
   59.7240   28.9060   47.1890 C   0  0  0  0  0  0  0  0  0  0  0  0
   62.3510   32.2100   47.2110 C   0  0  0  0  0  0  0  0  0  0  0  0
   63.5250   32.3450   47.9600 C   0  0  0  0  0  0  0  0  0  0  0  0
   65.1130   31.0450   51.1320 C   0  0  0  0  0  0  0  0  0  0  0  0
   65.8480   31.7820   52.2560 C   0  0  0  0  0  0  0  0  0  0  0  0
   67.3276   33.4196   53.6581 H   0  0  0  0  0  0  0  0  0  0  0  0
   68.3813   34.0381   52.3413 H   0  0  0  0  0  0  0  0  0  0  0  0
   66.6261   34.4200   52.3413 H   0  0  0  0  0  0  0  0  0  0  0  0
   67.9050   31.7640   51.9980 H   0  0  0  0  0  0  0  0  0  0  0  0
   67.8191   33.5758   50.1628 H   0  0  0  0  0  0  0  0  0  0  0  0
   67.5013   31.8147   49.8228 H   0  0  0  0  0  0  0  0  0  0  0  0
   65.4033   34.0013   50.2141 H   0  0  0  0  0  0  0  0  0  0  0  0
   65.8448   33.1802   48.6703 H   0  0  0  0  0  0  0  0  0  0  0  0
   62.4885   30.8605   50.8649 H   0  0  0  0  0  0  0  0  0  0  0  0
   60.4050   30.6111   49.5219 H   0  0  0  0  0  0  0  0  0  0  0  0
   56.3673   32.3050   44.6489 H   0  0  0  0  0  0  0  0  0  0  0  0
   58.7781   35.7411   45.8048 H   0  0  0  0  0  0  0  0  0  0  0  0
   60.4174   34.2146   46.9609 H   0  0  0  0  0  0  0  0  0  0  0  0
   57.0439   27.9062   46.9743 H   0  0  0  0  0  0  0  0  0  0  0  0
   57.2492   27.3749   45.2524 H   0  0  0  0  0  0  0  0  0  0  0  0
   59.2254   26.8487   46.7423 H   0  0  0  0  0  0  0  0  0  0  0  0
   59.6019   27.8893   45.2983 H   0  0  0  0  0  0  0  0  0  0  0  0
   59.3347   28.7839   48.2106 H   0  0  0  0  0  0  0  0  0  0  0  0
   60.8171   28.7831   47.1854 H   0  0  0  0  0  0  0  0  0  0  0  0
   62.3126   32.5906   46.1797 H   0  0  0  0  0  0  0  0  0  0  0  0
   64.4033   32.8349   47.5144 H   0  0  0  0  0  0  0  0  0  0  0  0
   64.1789   30.6159   51.5235 H   0  0  0  0  0  0  0  0  0  0  0  0
   65.7505   30.2374   50.7428 H   0  0  0  0  0  0  0  0  0  0  0  0
   65.1827   32.5592   52.6602 H   0  0  0  0  0  0  0  0  0  0  0  0
   66.1170   31.0370   53.0193 H   0  0  0  0  0  0  0  0  0  0  0  0
  1  2  1  0
  2  3  1  0
  3  4  1  0
  4  5  1  0
  5  6  1  0
  6  7  2  0
  7  8  1  0
  8  9  2  0
  9 10  1  0
 10 11  1  0
 11 12  2  0
 12 13  1  0
 13 14  2  0
 14 15  1  0
 15 16  1  0
 15 17  2  0
 17 18  1  0
 18 19  2  0
 12 20  1  0
 20 21  2  0
 20 22  1  0
 22 23  1  0
 23 24  1  0
  9 25  1  0
 25 26  2  0
  5 27  1  0
 27 28  1  0
 28  2  1  0
 26  6  1  0
 19 10  1  0
 24 11  1  0
 19 13  1  0
  1 29  1  0
  1 30  1  0
  1 31  1  0
  2 32  1  0
  3 33  1  0
  3 34  1  0
  4 35  1  0
  4 36  1  0
  7 37  1  0
  8 38  1  0
 14 39  1  0
 17 40  1  0
 18 41  1  0
 22 42  1  0
 22 43  1  0
 23 44  1  0
 23 45  1  0
 24 46  1  0
 24 47  1  0
 25 48  1  0
 26 49  1  0
 27 50  1  0
 27 51  1  0
 28 52  1  0
 28 53  1  0
M  CHG  1   2   1
M  END
>  <UniqueID>  (23) 
19

>  <SMILES>  (23) 
C[NH+]1CCN(c2ccc(-n3c4c(c5cc(F)ccc53)C(=O)CCC4)cc2)CC1

>  <Energy>  (23) 
109.93619487985526

>  <Genealogy>  (23) 
C[NH+]1CCN(c2ccc(-n3c4c(c5cc(F)ccc53)C(=O)CCC4)cc2)CC1 (protonated)
C[NH+]1CCN(c2ccc(-n3c4c(c5cc(F)ccc53)C(=O)CCC4)cc2)CC1 (3D coordinates assigned)
C[NH+]1CCN(c2ccc(-n3c4c(c5cc(F)ccc53)C(=O)CCC4)cc2)CC1 (nonaromatic ring conformer: 109.93619487985526 kcal/mol)

>  <smiles>  (23) 
CN1CCN(c2ccc(-n3c4c(c5cc(F)ccc53)C(=O)CCC4)cc2)CC1

>  <score_type>  (23) 
oracle

>  <origin>  (23) 
adg

>  <m_score__min__energy>  (23) 
-7.6500000000000004

>  <m_primary>  (23) 
energy

$$$$
23:0
     RDKit          3D

 41 43  0  0  0  0  0  0  0  0999 V2000
   61.4740   30.4700   47.2980 C   0  0  0  0  0  0  0  0  0  0  0  0
   59.9490   30.6790   47.1350 C   0  0  2  0  0  0  0  0  0  0  0  0
   59.3680   30.6540   48.4240 O   0  0  0  0  0  0  0  0  0  0  0  0
   59.3910   29.5510   46.2600 C   0  0  0  0  0  0  0  0  0  0  0  0
   58.3330   28.7190   46.6910 C   0  0  0  0  0  0  0  0  0  0  0  0
   57.8400   27.7070   45.8640 C   0  0  0  0  0  0  0  0  0  0  0  0
   58.3960   27.4980   44.6000 C   0  0  0  0  0  0  0  0  0  0  0  0
   57.7690   26.2290   43.5640 Cl  0  0  0  0  0  0  0  0  0  0  0  0
   59.4500   28.3010   44.1630 C   0  0  0  0  0  0  0  0  0  0  0  0
   59.9470   29.3160   44.9850 C   0  0  0  0  0  0  0  0  0  0  0  0
   59.5610   32.0350   46.5060 C   0  0  0  0  0  0  0  0  0  0  0  0
   60.3100   33.2040   46.7630 C   0  0  0  0  0  0  0  0  0  0  0  0
   61.4740   33.3350   47.6550 C   0  0  0  0  0  0  0  0  0  0  0  0
   62.7400   33.4840   47.0650 C   0  0  0  0  0  0  0  0  0  0  0  0
   63.8840   33.5770   47.8550 C   0  0  0  0  0  0  0  0  0  0  0  0
   63.7820   33.4980   49.2410 C   0  0  0  0  0  0  0  0  0  0  0  0
   62.5350   33.3210   49.8440 C   0  0  0  0  0  0  0  0  0  0  0  0
   61.3630   33.2360   49.0670 C   0  0  0  0  0  0  0  0  0  0  0  0
   60.0930   33.0430   49.7250 N   0  0  0  0  0  0  0  0  0  0  0  0
   59.0830   33.6680   49.3360 O   0  0  0  0  0  0  0  0  0  0  0  0
   59.9380   32.1110   50.7240 O   0  0  0  0  0  0  0  0  0  0  0  0
   59.6340   34.5210   45.9700 S   0  0  0  0  0  0  0  0  0  0  0  0
   58.3740   33.6630   45.2860 C   0  0  0  0  0  0  0  0  0  0  0  0
   57.3700   34.2490   44.4560 N   0  0  0  0  0  0  0  0  0  0  0  0
   58.4420   32.3240   45.6670 C   0  0  0  0  0  0  0  0  0  0  0  0
   57.4290   31.3910   45.2400 C   0  0  0  0  0  0  0  0  0  0  0  0
   56.6240   30.6390   44.8850 N   0  0  0  0  0  0  0  0  0  0  0  0
   61.7270   30.4353   48.3679 H   0  0  0  0  0  0  0  0  0  0  0  0
   61.7674   29.5232   46.8210 H   0  0  0  0  0  0  0  0  0  0  0  0
   62.0113   31.3029   46.8210 H   0  0  0  0  0  0  0  0  0  0  0  0
   59.2320   31.5830   48.7460 H   0  0  0  0  0  0  0  0  0  0  0  0
   57.8933   28.8699   47.6879 H   0  0  0  0  0  0  0  0  0  0  0  0
   57.0107   27.0723   46.2096 H   0  0  0  0  0  0  0  0  0  0  0  0
   59.8908   28.1347   43.1690 H   0  0  0  0  0  0  0  0  0  0  0  0
   60.7822   29.9395   44.6334 H   0  0  0  0  0  0  0  0  0  0  0  0
   62.8291   33.5277   45.9695 H   0  0  0  0  0  0  0  0  0  0  0  0
   64.8683   33.7129   47.3831 H   0  0  0  0  0  0  0  0  0  0  0  0
   64.6861   33.5752   49.8629 H   0  0  0  0  0  0  0  0  0  0  0  0
   62.4670   33.2470   50.9394 H   0  0  0  0  0  0  0  0  0  0  0  0
   57.1240   35.2610   44.5320 H   0  0  0  0  0  0  0  0  0  0  0  0
   56.8640   33.6620   43.7550 H   0  0  0  0  0  0  0  0  0  0  0  0
  1  2  1  0
  2  3  1  1
  2  4  1  0
  4  5  2  0
  5  6  1  0
  6  7  2  0
  7  8  1  0
  7  9  1  0
  9 10  2  0
  2 11  1  0
 11 12  2  0
 12 13  1  0
 13 14  2  0
 14 15  1  0
 15 16  2  0
 16 17  1  0
 17 18  2  0
 18 19  1  0
 19 20  2  0
 19 21  1  0
 12 22  1  0
 22 23  1  0
 23 24  1  0
 23 25  2  0
 25 26  1  0
 26 27  3  0
 10  4  1  0
 25 11  1  0
 18 13  1  0
  1 28  1  0
  1 29  1  0
  1 30  1  0
  3 31  1  0
  5 32  1  0
  6 33  1  0
  9 34  1  0
 10 35  1  0
 14 36  1  0
 15 37  1  0
 16 38  1  0
 17 39  1  0
 24 40  1  0
 24 41  1  0
M  CHG  2  19   1  21  -1
M  END
>  <UniqueID>  (24) 
20

>  <SMILES>  (24) 
C[C@](O)(c1ccc(Cl)cc1)c1c(-c2ccccc2[N+](=O)[O-])sc(N)c1C#N

>  <Energy>  (24) 
89.85216603928308

>  <Genealogy>  (24) 
C[C@](O)(c1ccc(Cl)cc1)c1c(-c2ccccc2[N+](=O)[O-])sc(N)c1C#N (chirality)
C[C@](O)(c1ccc(Cl)cc1)c1c(-c2ccccc2[N+](=O)[O-])sc(N)c1C#N (3D coordinates assigned)
C[C@](O)(c1ccc(Cl)cc1)c1c(-c2ccccc2[N+](=O)[O-])sc(N)c1C#N (optimized conformer: 89.85216603928308 kcal/mol)

>  <smiles>  (24) 
CC(O)(c1ccc(Cl)cc1)c1c(-c2ccccc2[N+](=O)[O-])sc(N)c1C#N

>  <score_type>  (24) 
oracle

>  <origin>  (24) 
adg

>  <m_score__min__energy>  (24) 
-7.29

>  <m_primary>  (24) 
energy

$$$$
24:0
     RDKit          3D

 38 40  0  0  0  0  0  0  0  0999 V2000
   62.3503   33.7386   50.2990 H   0  0  0  0  0  0  0  0  0  0  0  0
   62.1070   33.8000   49.2280 C   0  0  0  0  0  0  0  0  0  0  0  0
   60.7960   34.0730   48.8250 C   0  0  0  0  0  0  0  0  0  0  0  0
   60.0071   34.2080   49.5796 H   0  0  0  0  0  0  0  0  0  0  0  0
   60.4850   34.1750   47.4640 C   0  0  0  0  0  0  0  0  0  0  0  0
   59.1350   34.4570   47.0740 N   0  0  0  0  0  0  0  0  0  0  0  0
   58.0620   33.5040   47.0350 C   0  0  0  0  0  0  0  0  0  0  0  0
   57.8680   32.7670   48.0370 O   0  0  0  0  0  0  0  0  0  0  0  0
   57.1200   33.4160   45.8690 C   0  0  0  0  0  0  0  0  0  0  0  0
   56.2339   32.8320   46.1585 H   0  0  0  0  0  0  0  0  0  0  0  0
   56.8143   34.4299   45.5714 H   0  0  0  0  0  0  0  0  0  0  0  0
   57.9510   32.6000   44.4640 S   0  0  0  0  0  0  0  0  0  0  0  0
   57.1520   31.0240   44.7390 C   0  0  0  0  0  0  0  0  0  0  0  0
   55.8440   30.7940   44.4920 N   0  0  0  0  0  0  0  0  0  0  0  0
   55.4720   29.5470   44.7780 N   0  0  0  0  0  0  0  0  0  0  0  0
   56.4900   28.7930   45.2500 C   0  0  0  0  0  0  0  0  0  0  0  0
   56.3710   27.5470   45.5990 N   0  0  0  0  0  0  0  0  0  0  0  0
   57.5010   26.6380   45.8050 C   0  0  0  0  0  0  0  0  0  0  0  0
   58.1858   27.1304   46.5112 H   0  0  0  0  0  0  0  0  0  0  0  0
   58.1510   26.3210   44.4670 C   0  0  0  0  0  0  0  0  0  0  0  0
   58.0591   27.1789   43.7846 H   0  0  0  0  0  0  0  0  0  0  0  0
   59.2242   26.1083   44.5807 H   0  0  0  0  0  0  0  0  0  0  0  0
   57.4000   25.1190   43.9100 C   0  0  0  0  0  0  0  0  0  0  0  0
   56.6588   25.4467   43.1662 H   0  0  0  0  0  0  0  0  0  0  0  0
   58.0874   24.4197   43.4116 H   0  0  0  0  0  0  0  0  0  0  0  0
   56.6990   24.4510   45.0930 C   0  0  0  0  0  0  0  0  0  0  0  0
   55.6122   24.4274   44.9249 H   0  0  0  0  0  0  0  0  0  0  0  0
   57.0413   23.4133   45.2198 H   0  0  0  0  0  0  0  0  0  0  0  0
   57.0210   25.2870   46.3250 C   0  0  0  0  0  0  0  0  0  0  0  0
   56.1219   25.4143   46.9458 H   0  0  0  0  0  0  0  0  0  0  0  0
   57.7848   24.8027   46.9512 H   0  0  0  0  0  0  0  0  0  0  0  0
   57.9310   29.6550   45.3370 S   0  0  0  0  0  0  0  0  0  0  0  0
   61.4860   33.9440   46.5050 C   0  0  0  0  0  0  0  0  0  0  0  0
   61.2388   33.9787   45.4337 H   0  0  0  0  0  0  0  0  0  0  0  0
   62.7960   33.6700   46.9110 C   0  0  0  0  0  0  0  0  0  0  0  0
   63.7610   33.4610   45.9800 F   0  0  0  0  0  0  0  0  0  0  0  0
   63.1090   33.6050   48.2730 C   0  0  0  0  0  0  0  0  0  0  0  0
   64.3790   33.3410   48.6670 F   0  0  0  0  0  0  0  0  0  0  0  0
  1  2  1  0
  2  3  2  0
  3  4  1  0
  3  5  1  0
  5  6  1  0
  6  7  1  0
  7  8  2  0
  7  9  1  0
  9 10  1  0
  9 11  1  0
  9 12  1  0
 12 13  1  0
 13 14  2  0
 14 15  1  0
 15 16  1  0
 16 17  2  0
 17 18  1  0
 18 19  1  0
 18 20  1  0
 20 21  1  0
 20 22  1  0
 20 23  1  0
 23 24  1  0
 23 25  1  0
 23 26  1  0
 26 27  1  0
 26 28  1  0
 26 29  1  0
 29 30  1  0
 29 31  1  0
 16 32  1  0
  5 33  2  0
 33 34  1  0
 33 35  1  0
 35 36  1  0
 35 37  2  0
 37 38  1  0
 37  2  1  0
 32 13  1  0
 29 18  1  0
M  CHG  2   6  -1  15  -1
M  END
>  <UniqueID>  (25) 
21

>  <SMILES>  (25) 
O=C(CSc1n[n-]/c(=N\C2CCCC2)s1)[N-]c1ccc(F)c(F)c1

>  <Energy>  (25) 
73.57605130391445

>  <Genealogy>  (25) 
O=C(CSc1n[n-]c(=NC2CCCC2)s1)[N-]c1ccc(F)c(F)c1 (protonated)
O=C(CSc1n[n-]/c(=N\C2CCCC2)s1)[N-]c1ccc(F)c(F)c1 (cis-trans isomerization)
O=C(CSc1n[n-]/c(=N\C2CCCC2)s1)[N-]c1ccc(F)c(F)c1 (3D coordinates assigned)
O=C(CSc1n[n-]/c(=N\C2CCCC2)s1)[N-]c1ccc(F)c(F)c1 (nonaromatic ring conformer: 73.57605130391445 kcal/mol)

>  <smiles>  (25) 
O=C(CSc1n[nH]c(=NC2CCCC2)s1)Nc1ccc(F)c(F)c1

>  <score_type>  (25) 
oracle

>  <origin>  (25) 
adg

>  <m_score__min__energy>  (25) 
-11.67

>  <m_primary>  (25) 
energy

$$$$
25:0
     RDKit          3D

 62 66  0  0  0  0  0  0  0  0999 V2000
   58.7180   32.0950   52.9830 C   0  0  0  0  0  0  0  0  0  0  0  0
   57.4780   31.2900   52.7210 C   0  0  0  0  0  0  0  0  0  0  0  0
   56.3040   31.9450   52.3120 C   0  0  0  0  0  0  0  0  0  0  0  0
   55.1440   31.2180   52.0590 C   0  0  0  0  0  0  0  0  0  0  0  0
   55.1590   29.8290   52.2010 C   0  0  0  0  0  0  0  0  0  0  0  0
   56.2900   29.2040   52.6140 N   0  0  0  0  0  0  0  0  0  0  0  0
   57.4350   29.8840   52.9030 C   0  0  0  0  0  0  0  0  0  0  0  0
   58.6430   29.0880   53.3240 C   0  0  0  0  0  0  0  0  0  0  0  0
   59.2420   28.4510   52.2010 O   0  0  0  0  0  0  0  0  0  0  0  0
   59.8010   29.1210   51.1050 C   0  0  0  0  0  0  0  0  0  0  0  0
   61.2040   29.3410   50.9820 C   0  0  0  0  0  0  0  0  0  0  0  0
   61.7160   30.1060   49.9200 C   0  0  0  0  0  0  0  0  0  0  0  0
   60.8120   30.6220   48.9880 C   0  0  0  0  0  0  0  0  0  0  0  0
   59.4800   30.3740   49.0790 C   0  0  0  0  0  0  0  0  0  0  0  0
   58.9320   29.6260   50.1170 C   0  0  0  0  0  0  0  0  0  0  0  0
   58.8250   30.9770   48.0800 N   0  0  0  0  0  0  0  0  0  0  0  0
   59.8130   31.5920   47.3670 C   0  0  0  0  0  0  0  0  0  0  0  0
   59.4570   32.4940   46.1850 C   0  0  2  0  0  0  0  0  0  0  0  0
   59.2210   33.9630   46.5940 C   0  0  0  0  0  0  0  0  0  0  0  0
   58.7460   34.7770   45.3880 C   0  0  0  0  0  0  0  0  0  0  0  0
   57.3890   34.2780   44.8550 C   0  0  0  0  0  0  0  0  0  0  0  0
   57.0970   32.7890   45.1370 C   0  0  0  0  0  0  0  0  0  0  0  0
   58.3770   31.9320   45.1990 C   0  0  2  0  0  0  0  0  0  0  0  0
   58.0430   30.4790   45.4120 C   0  0  0  0  0  0  0  0  0  0  0  0
   58.9510   29.6100   45.4720 O   0  0  0  0  0  0  0  0  0  0  0  0
   56.7150   30.0840   45.5190 O   0  0  0  0  0  0  0  0  0  0  0  0
   61.0520   31.3960   47.9140 N   0  0  0  0  0  0  0  0  0  0  0  0
   62.3570   31.9220   47.5190 C   0  0  0  0  0  0  0  0  0  0  0  0
   63.0640   32.6680   48.6340 C   0  0  0  0  0  0  0  0  0  0  0  0
   64.3810   32.3600   49.0340 C   0  0  0  0  0  0  0  0  0  0  0  0
   64.9610   33.0360   50.1090 C   0  0  0  0  0  0  0  0  0  0  0  0
   64.2250   33.9730   50.8330 C   0  0  0  0  0  0  0  0  0  0  0  0
   65.0090   34.8520   52.3350 Br  0  0  0  0  0  0  0  0  0  0  0  0
   62.9200   34.2870   50.4420 C   0  0  0  0  0  0  0  0  0  0  0  0
   62.3430   33.6420   49.3470 C   0  0  0  0  0  0  0  0  0  0  0  0
   58.8690   32.1930   54.0682 H   0  0  0  0  0  0  0  0  0  0  0  0
   59.5858   31.5875   52.5364 H   0  0  0  0  0  0  0  0  0  0  0  0
   58.6077   33.0942   52.5364 H   0  0  0  0  0  0  0  0  0  0  0  0
   56.3015   33.0383   52.1911 H   0  0  0  0  0  0  0  0  0  0  0  0
   54.2229   31.7337   51.7497 H   0  0  0  0  0  0  0  0  0  0  0  0
   54.2554   29.2426   51.9784 H   0  0  0  0  0  0  0  0  0  0  0  0
   59.3760   29.7632   53.7897 H   0  0  0  0  0  0  0  0  0  0  0  0
   58.3258   28.3163   54.0408 H   0  0  0  0  0  0  0  0  0  0  0  0
   61.8913   28.9086   51.7241 H   0  0  0  0  0  0  0  0  0  0  0  0
   62.7959   30.2929   49.8254 H   0  0  0  0  0  0  0  0  0  0  0  0
   57.8499   29.4342   50.1649 H   0  0  0  0  0  0  0  0  0  0  0  0
   60.3705   32.4890   45.5722 H   0  0  0  0  0  0  0  0  0  0  0  0
   58.4557   34.0021   47.3831 H   0  0  0  0  0  0  0  0  0  0  0  0
   60.1649   34.3886   46.9653 H   0  0  0  0  0  0  0  0  0  0  0  0
   58.6444   35.8304   45.6880 H   0  0  0  0  0  0  0  0  0  0  0  0
   59.4898   34.6625   44.5857 H   0  0  0  0  0  0  0  0  0  0  0  0
   56.5947   34.8781   45.3230 H   0  0  0  0  0  0  0  0  0  0  0  0
   57.4241   34.3874   43.7610 H   0  0  0  0  0  0  0  0  0  0  0  0
   56.5736   32.7097   46.1012 H   0  0  0  0  0  0  0  0  0  0  0  0
   56.4828   32.4085   44.3076 H   0  0  0  0  0  0  0  0  0  0  0  0
   58.8652   31.9995   44.2156 H   0  0  0  0  0  0  0  0  0  0  0  0
   62.9920   31.0808   47.2040 H   0  0  0  0  0  0  0  0  0  0  0  0
   62.1863   32.6398   46.7031 H   0  0  0  0  0  0  0  0  0  0  0  0
   64.9514   31.5867   48.4986 H   0  0  0  0  0  0  0  0  0  0  0  0
   66.0049   32.8281   50.3865 H   0  0  0  0  0  0  0  0  0  0  0  0
   62.3471   35.0436   50.9982 H   0  0  0  0  0  0  0  0  0  0  0  0
   61.3180   33.8972   49.0400 H   0  0  0  0  0  0  0  0  0  0  0  0
  1  2  1  0
  2  3  2  0
  3  4  1  0
  4  5  2  0
  5  6  1  0
  6  7  2  0
  7  8  1  0
  8  9  1  0
  9 10  1  0
 10 11  2  0
 11 12  1  0
 12 13  2  0
 13 14  1  0
 14 15  2  0
 14 16  1  0
 16 17  2  0
 17 18  1  0
 18 19  1  0
 19 20  1  0
 20 21  1  0
 21 22  1  0
 22 23  1  0
 23 24  1  0
 24 25  2  0
 24 26  1  0
 17 27  1  0
 27 28  1  0
 28 29  1  0
 29 30  2  0
 30 31  1  0
 31 32  2  0
 32 33  1  0
 32 34  1  0
 34 35  2  0
  7  2  1  0
 15 10  1  0
 23 18  1  0
 35 29  1  0
 27 13  1  0
  1 36  1  0
  1 37  1  0
  1 38  1  0
  3 39  1  0
  4 40  1  0
  5 41  1  0
  8 42  1  0
  8 43  1  0
 11 44  1  0
 12 45  1  0
 15 46  1  0
 18 47  1  6
 19 48  1  0
 19 49  1  0
 20 50  1  0
 20 51  1  0
 21 52  1  0
 21 53  1  0
 22 54  1  0
 22 55  1  0
 23 56  1  6
 28 57  1  0
 28 58  1  0
 30 59  1  0
 31 60  1  0
 34 61  1  0
 35 62  1  0
M  CHG  1  26  -1
M  END
>  <UniqueID>  (26) 
22

>  <SMILES>  (26) 
Cc1cccnc1COc1ccc2c(c1)nc([C@@H]1CCCC[C@@H]1C(=O)[O-])n2Cc1ccc(Br)cc1

>  <Energy>  (26) 
118.67947185291682

>  <Genealogy>  (26) 
Cc1cccnc1COc1ccc2c(c1)nc(C1CCCCC1C(=O)[O-])n2Cc1ccc(Br)cc1 (protonated)
Cc1cccnc1COc1ccc2c(c1)nc([C@@H]1CCCC[C@@H]1C(=O)[O-])n2Cc1ccc(Br)cc1 (chirality)
Cc1cccnc1COc1ccc2c(c1)nc([C@@H]1CCCC[C@@H]1C(=O)[O-])n2Cc1ccc(Br)cc1 (3D coordinates assigned)
Cc1cccnc1COc1ccc2c(c1)nc([C@@H]1CCCC[C@@H]1C(=O)[O-])n2Cc1ccc(Br)cc1 (nonaromatic ring conformer: 118.67947185291682 kcal/mol)

>  <smiles>  (26) 
Cc1cccnc1COc1ccc2c(c1)nc(C1CCCCC1C(=O)O)n2Cc1ccc(Br)cc1

>  <score_type>  (26) 
oracle

>  <origin>  (26) 
adg

>  <m_score__min__energy>  (26) 
-10.82

>  <m_primary>  (26) 
energy

$$$$
26:0
     RDKit          3D

 35 36  0  0  0  0  0  0  0  0999 V2000
   57.3980   24.9420   43.9670 C   0  0  0  0  0  0  0  0  0  0  0  0
   57.4370   25.4370   45.2030 C   0  0  0  0  0  0  0  0  0  0  0  0
   56.6110   26.5780   45.6460 C   0  0  0  0  0  0  0  0  0  0  0  0
   55.4250   26.3460   46.0040 O   0  0  0  0  0  0  0  0  0  0  0  0
   57.1070   27.9750   45.6750 C   0  0  0  0  0  0  0  0  0  0  0  0
   58.1370   28.3600   46.5510 C   0  0  0  0  0  0  0  0  0  0  0  0
   58.6110   29.6740   46.5540 C   0  0  0  0  0  0  0  0  0  0  0  0
   58.0740   30.6300   45.6740 C   0  0  0  0  0  0  0  0  0  0  0  0
   58.5760   32.0280   45.6760 C   0  0  0  0  0  0  0  0  0  0  0  0
   57.9500   33.0140   44.8930 C   0  0  0  0  0  0  0  0  0  0  0  0
   58.4340   34.3240   44.8860 C   0  0  0  0  0  0  0  0  0  0  0  0
   59.5390   34.6680   45.6650 C   0  0  0  0  0  0  0  0  0  0  0  0
   60.1650   33.7090   46.4730 C   0  0  0  0  0  0  0  0  0  0  0  0
   61.3160   34.0850   47.2500 N   0  0  0  0  0  0  0  0  0  0  0  0
   62.4910   33.2730   47.3900 C   0  0  0  0  0  0  0  0  0  0  0  0
   63.7070   33.8340   48.0550 C   0  0  0  0  0  0  0  0  0  0  0  0
   62.4860   32.0630   47.0340 O   0  0  0  0  0  0  0  0  0  0  0  0
   59.6900   32.3840   46.4590 C   0  0  0  0  0  0  0  0  0  0  0  0
   57.0570   30.2390   44.7860 C   0  0  0  0  0  0  0  0  0  0  0  0
   56.5840   28.9230   44.7820 C   0  0  0  0  0  0  0  0  0  0  0  0
   58.0379   24.0894   43.6955 H   0  0  0  0  0  0  0  0  0  0  0  0
   56.7259   25.3858   43.2178 H   0  0  0  0  0  0  0  0  0  0  0  0
   58.1189   24.9724   45.9304 H   0  0  0  0  0  0  0  0  0  0  0  0
   58.5729   27.6209   47.2393 H   0  0  0  0  0  0  0  0  0  0  0  0
   59.4114   29.9633   47.2509 H   0  0  0  0  0  0  0  0  0  0  0  0
   57.0736   32.7519   44.2821 H   0  0  0  0  0  0  0  0  0  0  0  0
   57.9424   35.0869   44.2644 H   0  0  0  0  0  0  0  0  0  0  0  0
   59.9217   35.6991   45.6450 H   0  0  0  0  0  0  0  0  0  0  0  0
   61.2630   34.9630   47.8140 H   0  0  0  0  0  0  0  0  0  0  0  0
   63.5864   33.7783   49.1469 H   0  0  0  0  0  0  0  0  0  0  0  0
   64.5909   33.2527   47.7536 H   0  0  0  0  0  0  0  0  0  0  0  0
   63.8384   34.8837   47.7536 H   0  0  0  0  0  0  0  0  0  0  0  0
   60.1949   31.6186   47.0666 H   0  0  0  0  0  0  0  0  0  0  0  0
   56.6296   30.9743   44.0884 H   0  0  0  0  0  0  0  0  0  0  0  0
   55.7959   28.6286   44.0734 H   0  0  0  0  0  0  0  0  0  0  0  0
  1  2  2  0
  2  3  1  0
  3  4  2  0
  3  5  1  0
  5  6  2  0
  6  7  1  0
  7  8  2  0
  8  9  1  0
  9 10  2  0
 10 11  1  0
 11 12  2  0
 12 13  1  0
 13 14  1  0
 14 15  1  0
 15 16  1  0
 15 17  2  0
 13 18  2  0
  8 19  1  0
 19 20  2  0
 20  5  1  0
 18  9  1  0
  1 21  1  0
  1 22  1  0
  2 23  1  0
  6 24  1  0
  7 25  1  0
 10 26  1  0
 11 27  1  0
 12 28  1  0
 14 29  1  0
 16 30  1  0
 16 31  1  0
 16 32  1  0
 18 33  1  0
 19 34  1  0
 20 35  1  0
M  END
>  <UniqueID>  (27) 
23

>  <SMILES>  (27) 
C=CC(=O)c1ccc(-c2cccc(NC(C)=O)c2)cc1

>  <Energy>  (27) 
45.977348454258085

>  <Genealogy>  (27) 
C=CC(=O)c1ccc(-c2cccc(NC(C)=O)c2)cc1 (3D coordinates assigned)
C=CC(=O)c1ccc(-c2cccc(NC(C)=O)c2)cc1 (optimized conformer: 45.977348454258085 kcal/mol)

>  <smiles>  (27) 
C=CC(=O)c1ccc(-c2cccc(NC(C)=O)c2)cc1

>  <score_type>  (27) 
oracle

>  <origin>  (27) 
adg

>  <m_score__min__energy>  (27) 
-7.6399999999999997

>  <m_primary>  (27) 
energy

$$$$
27:0
     RDKit          3D

 28 28  0  0  0  0  0  0  0  0999 V2000
   60.4420   34.1530   46.8520 C   0  0  0  0  0  0  0  0  0  0  0  0
   59.1930   34.6590   47.5670 C   0  0  0  0  0  0  0  0  0  0  0  0
   57.9890   34.0450   47.0040 N   0  0  0  0  0  0  0  0  0  0  0  0
   57.9660   33.2030   45.8340 C   0  0  0  0  0  0  0  0  0  0  0  0
   58.1540   33.7200   44.5380 C   0  0  0  0  0  0  0  0  0  0  0  0
   58.1230   32.8710   43.4280 C   0  0  0  0  0  0  0  0  0  0  0  0
   57.9110   31.5030   43.5940 C   0  0  0  0  0  0  0  0  0  0  0  0
   57.7350   30.9670   44.8780 C   0  0  0  0  0  0  0  0  0  0  0  0
   57.4870   29.4920   45.0510 C   0  0  0  0  0  0  0  0  0  0  0  0
   56.0470   29.2170   45.1490 N   0  0  0  0  0  0  0  0  0  0  0  0
   55.3240   29.7520   43.9910 C   0  0  0  0  0  0  0  0  0  0  0  0
   57.7610   31.8220   45.9920 C   0  0  0  0  0  0  0  0  0  0  0  0
   61.1927   33.8489   47.5963 H   0  0  0  0  0  0  0  0  0  0  0  0
   60.1797   33.2902   46.2221 H   0  0  0  0  0  0  0  0  0  0  0  0
   60.8542   34.9551   46.2221 H   0  0  0  0  0  0  0  0  0  0  0  0
   59.2613   34.4062   48.6354 H   0  0  0  0  0  0  0  0  0  0  0  0
   59.1280   35.7492   47.4358 H   0  0  0  0  0  0  0  0  0  0  0  0
   57.0880   34.2310   47.5000 H   0  0  0  0  0  0  0  0  0  0  0  0
   58.3261   34.7974   44.3983 H   0  0  0  0  0  0  0  0  0  0  0  0
   58.2666   33.2841   42.4187 H   0  0  0  0  0  0  0  0  0  0  0  0
   57.8817   30.8421   42.7152 H   0  0  0  0  0  0  0  0  0  0  0  0
   57.8999   28.9522   44.1861 H   0  0  0  0  0  0  0  0  0  0  0  0
   57.9756   29.1569   45.9778 H   0  0  0  0  0  0  0  0  0  0  0  0
   55.6860   29.7170   45.9960 H   0  0  0  0  0  0  0  0  0  0  0  0
   54.4848   30.3730   44.3376 H   0  0  0  0  0  0  0  0  0  0  0  0
   56.0066   30.3642   43.3833 H   0  0  0  0  0  0  0  0  0  0  0  0
   54.9382   28.9202   43.3833 H   0  0  0  0  0  0  0  0  0  0  0  0
   57.6192   31.4055   47.0002 H   0  0  0  0  0  0  0  0  0  0  0  0
  1  2  1  0
  2  3  1  0
  3  4  1  0
  4  5  2  0
  5  6  1  0
  6  7  2  0
  7  8  1  0
  8  9  1  0
  9 10  1  0
 10 11  1  0
  8 12  2  0
 12  4  1  0
  1 13  1  0
  1 14  1  0
  1 15  1  0
  2 16  1  0
  2 17  1  0
  3 18  1  0
  5 19  1  0
  6 20  1  0
  7 21  1  0
  9 22  1  0
  9 23  1  0
 10 24  1  0
 11 25  1  0
 11 26  1  0
 11 27  1  0
 12 28  1  0
M  END
>  <UniqueID>  (28) 
24

>  <SMILES>  (28) 
CCNc1cccc(CNC)c1

>  <Energy>  (28) 
21.113576776992694

>  <Genealogy>  (28) 
CCNc1cccc(CNC)c1 (3D coordinates assigned)
CCNc1cccc(CNC)c1 (optimized conformer: 21.113576776992694 kcal/mol)

>  <smiles>  (28) 
CCNc1cccc(CNC)c1

>  <score_type>  (28) 
oracle

>  <origin>  (28) 
adg

>  <m_score__min__energy>  (28) 
-5.1699999999999999

>  <m_primary>  (28) 
energy

$$$$
28:0
     RDKit          3D

 31 33  0  0  0  0  0  0  0  0999 V2000
   60.6680   31.1460   51.3130 C   0  0  0  0  0  0  0  0  0  0  0  0
   59.6990   31.7260   50.3320 C   0  0  0  0  0  0  0  0  0  0  0  0
   58.3660   31.7480   50.5390 N   0  0  0  0  0  0  0  0  0  0  0  0
   57.8400   32.3580   49.4900 N   0  0  0  0  0  0  0  0  0  0  0  0
   58.8370   32.6940   48.6500 C   0  0  0  0  0  0  0  0  0  0  0  0
   58.6210   33.3630   47.3470 C   0  0  0  0  0  0  0  0  0  0  0  0
   59.4960   34.3620   46.8910 C   0  0  0  0  0  0  0  0  0  0  0  0
   59.2670   34.9660   45.6540 C   0  0  0  0  0  0  0  0  0  0  0  0
   58.2110   34.5820   44.8900 N   0  0  0  0  0  0  0  0  0  0  0  0
   57.3540   33.6080   45.3000 C   0  0  0  0  0  0  0  0  0  0  0  0
   57.5470   32.9770   46.5310 C   0  0  0  0  0  0  0  0  0  0  0  0
   60.0310   32.3020   49.1540 N   0  0  0  0  0  0  0  0  0  0  0  0
   61.3500   32.5650   48.6470 C   0  0  0  0  0  0  0  0  0  0  0  0
   62.1060   33.6320   49.1610 C   0  0  0  0  0  0  0  0  0  0  0  0
   63.3860   33.8920   48.6630 C   0  0  0  0  0  0  0  0  0  0  0  0
   63.9210   33.0890   47.6520 C   0  0  0  0  0  0  0  0  0  0  0  0
   63.1750   32.0250   47.1360 C   0  0  0  0  0  0  0  0  0  0  0  0
   61.8930   31.7630   47.6310 C   0  0  0  0  0  0  0  0  0  0  0  0
   60.3219   31.3531   52.3364 H   0  0  0  0  0  0  0  0  0  0  0  0
   60.7360   30.0585   51.1620 H   0  0  0  0  0  0  0  0  0  0  0  0
   61.6586   31.5998   51.1620 H   0  0  0  0  0  0  0  0  0  0  0  0
   56.8170   32.5180   49.3520 H   0  0  0  0  0  0  0  0  0  0  0  0
   60.3565   34.6666   47.5049 H   0  0  0  0  0  0  0  0  0  0  0  0
   59.9438   35.7558   45.2961 H   0  0  0  0  0  0  0  0  0  0  0  0
   56.5075   33.3169   44.6607 H   0  0  0  0  0  0  0  0  0  0  0  0
   56.8610   32.1821   46.8588 H   0  0  0  0  0  0  0  0  0  0  0  0
   61.6891   34.2650   49.9582 H   0  0  0  0  0  0  0  0  0  0  0  0
   63.9730   34.7298   49.0674 H   0  0  0  0  0  0  0  0  0  0  0  0
   64.9290   33.2941   47.2622 H   0  0  0  0  0  0  0  0  0  0  0  0
   63.5965   31.3934   46.3401 H   0  0  0  0  0  0  0  0  0  0  0  0
   61.3084   30.9255   47.2225 H   0  0  0  0  0  0  0  0  0  0  0  0
  1  2  1  0
  2  3  2  0
  3  4  1  0
  4  5  2  0
  5  6  1  0
  6  7  2  0
  7  8  1  0
  8  9  2  0
  9 10  1  0
 10 11  2  0
  5 12  1  0
 12 13  1  0
 13 14  2  0
 14 15  1  0
 15 16  2  0
 16 17  1  0
 17 18  2  0
 12  2  1  0
 18 13  1  0
 11  6  1  0
  1 19  1  0
  1 20  1  0
  1 21  1  0
  4 22  1  0
  7 23  1  0
  8 24  1  0
 10 25  1  0
 11 26  1  0
 14 27  1  0
 15 28  1  0
 16 29  1  0
 17 30  1  0
 18 31  1  0
M  CHG  1   4   1
M  END
>  <UniqueID>  (29) 
25

>  <SMILES>  (29) 
Cc1n[nH+]c(-c2ccncc2)n1-c1ccccc1

>  <Energy>  (29) 
78.1308817719852

>  <Genealogy>  (29) 
Cc1n[nH+]c(-c2ccncc2)n1-c1ccccc1 (protonated)
Cc1n[nH+]c(-c2ccncc2)n1-c1ccccc1 (3D coordinates assigned)
Cc1n[nH+]c(-c2ccncc2)n1-c1ccccc1 (optimized conformer: 78.1308817719852 kcal/mol)

>  <smiles>  (29) 
Cc1nnc(-c2ccncc2)n1-c1ccccc1

>  <score_type>  (29) 
oracle

>  <origin>  (29) 
adg

>  <m_score__min__energy>  (29) 
-4.6799999999999997

>  <m_primary>  (29) 
energy

$$$$
29:0
     RDKit          3D

 40 43  0  0  0  0  0  0  0  0999 V2000
   57.7140   25.1700   47.3210 C   0  0  0  0  0  0  0  0  0  0  0  0
   57.6190   26.4970   46.7270 N   0  0  0  0  0  0  0  0  0  0  0  0
   56.6700   26.9360   45.8780 C   0  0  0  0  0  0  0  0  0  0  0  0
   56.8100   28.2460   45.5820 N   0  0  0  0  0  0  0  0  0  0  0  0
   57.8920   28.6330   46.2950 C   0  0  0  0  0  0  0  0  0  0  0  0
   58.4340   30.0030   46.3040 C   0  0  0  0  0  0  0  0  0  0  0  0
   59.6220   30.3030   46.9850 C   0  0  0  0  0  0  0  0  0  0  0  0
   60.1180   31.6130   46.9880 C   0  0  0  0  0  0  0  0  0  0  0  0
   61.3180   31.9070   47.7240 N   0  0  0  0  0  0  0  0  0  0  0  0
   61.2630   32.6540   48.9800 C   0  0  0  0  0  0  0  0  0  0  0  0
   62.1390   33.9050   48.8540 C   0  0  0  0  0  0  0  0  0  0  0  0
   63.4470   33.5640   48.4280 O   0  0  0  0  0  0  0  0  0  0  0  0
   63.4060   33.0070   47.1250 C   0  0  0  0  0  0  0  0  0  0  0  0
   62.6330   31.6850   47.1240 C   0  0  0  0  0  0  0  0  0  0  0  0
   59.4190   32.6200   46.2890 C   0  0  0  0  0  0  0  0  0  0  0  0
   59.8820   33.9470   46.2220 C   0  0  0  0  0  0  0  0  0  0  0  0
   59.1540   34.9120   45.5190 C   0  0  0  0  0  0  0  0  0  0  0  0
   57.9650   34.5650   44.8720 C   0  0  0  0  0  0  0  0  0  0  0  0
   57.5010   33.2480   44.9190 C   0  0  0  0  0  0  0  0  0  0  0  0
   58.2220   32.2740   45.6190 C   0  0  0  0  0  0  0  0  0  0  0  0
   57.7710   30.9920   45.6460 N   0  0  0  0  0  0  0  0  0  0  0  0
   58.3870   27.5610   47.0100 C   0  0  0  0  0  0  0  0  0  0  0  0
   57.7077   25.2578   48.4175 H   0  0  0  0  0  0  0  0  0  0  0  0
   56.8572   24.5610   46.9970 H   0  0  0  0  0  0  0  0  0  0  0  0
   58.6489   24.6893   46.9970 H   0  0  0  0  0  0  0  0  0  0  0  0
   55.8707   26.2989   45.4714 H   0  0  0  0  0  0  0  0  0  0  0  0
   60.1654   29.5087   47.5177 H   0  0  0  0  0  0  0  0  0  0  0  0
   60.2243   32.9503   49.1879 H   0  0  0  0  0  0  0  0  0  0  0  0
   61.6300   32.0242   49.8038 H   0  0  0  0  0  0  0  0  0  0  0  0
   61.6876   34.5886   48.1199 H   0  0  0  0  0  0  0  0  0  0  0  0
   62.2047   34.3895   49.8394 H   0  0  0  0  0  0  0  0  0  0  0  0
   62.9101   33.7155   46.4452 H   0  0  0  0  0  0  0  0  0  0  0  0
   64.4361   32.8139   46.7910 H   0  0  0  0  0  0  0  0  0  0  0  0
   62.5122   31.3282   46.0905 H   0  0  0  0  0  0  0  0  0  0  0  0
   63.1847   30.9293   47.7024 H   0  0  0  0  0  0  0  0  0  0  0  0
   60.8199   34.2263   46.7244 H   0  0  0  0  0  0  0  0  0  0  0  0
   59.5189   35.9488   45.4751 H   0  0  0  0  0  0  0  0  0  0  0  0
   57.3938   35.3296   44.3251 H   0  0  0  0  0  0  0  0  0  0  0  0
   56.5673   32.9762   44.4049 H   0  0  0  0  0  0  0  0  0  0  0  0
   59.2530   27.5759   47.6881 H   0  0  0  0  0  0  0  0  0  0  0  0
  1  2  1  0
  2  3  1  0
  3  4  2  0
  4  5  1  0
  5  6  1  0
  6  7  2  0
  7  8  1  0
  8  9  1  0
  9 10  1  0
 10 11  1  0
 11 12  1  0
 12 13  1  0
 13 14  1  0
  8 15  2  0
 15 16  1  0
 16 17  2  0
 17 18  1  0
 18 19  2  0
 19 20  1  0
 20 21  2  0
  5 22  2  0
 22  2  1  0
 21  6  1  0
 14  9  1  0
 20 15  1  0
  1 23  1  0
  1 24  1  0
  1 25  1  0
  3 26  1  0
  7 27  1  0
 10 28  1  0
 10 29  1  0
 11 30  1  0
 11 31  1  0
 13 32  1  0
 13 33  1  0
 14 34  1  0
 14 35  1  0
 16 36  1  0
 17 37  1  0
 18 38  1  0
 19 39  1  0
 22 40  1  0
M  END
>  <UniqueID>  (30) 
26

>  <SMILES>  (30) 
Cn1cnc(-c2cc(N3CCOCC3)c3ccccc3n2)c1

>  <Energy>  (30) 
82.73677435745134

>  <Genealogy>  (30) 
Cn1cnc(-c2cc(N3CCOCC3)c3ccccc3n2)c1 (3D coordinates assigned)
Cn1cnc(-c2cc(N3CCOCC3)c3ccccc3n2)c1 (nonaromatic ring conformer: 82.73677435745134 kcal/mol)

>  <smiles>  (30) 
Cn1cnc(-c2cc(N3CCOCC3)c3ccccc3n2)c1

>  <score_type>  (30) 
oracle

>  <origin>  (30) 
adg

>  <m_score__min__energy>  (30) 
-6.8399999999999999

>  <m_primary>  (30) 
energy

$$$$
30:0
     RDKit          3D

 24 25  0  0  0  0  0  0  0  0999 V2000
   60.1681   36.1898   46.3711 H   0  0  0  0  0  0  0  0  0  0  0  0
   59.6340   35.2480   46.1770 C   0  0  0  0  0  0  0  0  0  0  0  0
   59.3820   34.3590   47.2250 C   0  0  0  0  0  0  0  0  0  0  0  0
   59.7189   34.6010   48.2438 H   0  0  0  0  0  0  0  0  0  0  0  0
   58.7020   33.1620   46.9800 C   0  0  0  0  0  0  0  0  0  0  0  0
   58.5057   32.4661   47.8090 H   0  0  0  0  0  0  0  0  0  0  0  0
   58.2670   32.8410   45.6810 C   0  0  0  0  0  0  0  0  0  0  0  0
   57.5480   31.5700   45.4300 C   0  0  0  0  0  0  0  0  0  0  0  0
   56.3970   31.4910   44.7200 N   0  0  0  0  0  0  0  0  0  0  0  0
   55.9160   30.2530   44.6120 N   0  0  0  0  0  0  0  0  0  0  0  0
   56.6800   29.3340   45.2370 C   0  0  0  0  0  0  0  0  0  0  0  0
   56.3810   28.0700   45.2480 N   0  0  0  0  0  0  0  0  0  0  0  0
   57.3680   26.9970   45.1810 C   0  0  0  0  0  0  0  0  0  0  0  0
   56.8556   26.0251   45.2341 H   0  0  0  0  0  0  0  0  0  0  0  0
   58.0676   27.0924   46.0245 H   0  0  0  0  0  0  0  0  0  0  0  0
   58.1400   27.0910   43.8730 C   0  0  0  0  0  0  0  0  0  0  0  0
   59.2109   27.2214   44.0879 H   0  0  0  0  0  0  0  0  0  0  0  0
   57.9921   26.1682   43.2928 H   0  0  0  0  0  0  0  0  0  0  0  0
   57.7750   27.9513   43.2928 H   0  0  0  0  0  0  0  0  0  0  0  0
   58.0250   30.0400   45.9700 S   0  0  0  0  0  0  0  0  0  0  0  0
   58.5280   33.7450   44.6330 C   0  0  0  0  0  0  0  0  0  0  0  0
   58.1952   33.5090   43.6115 H   0  0  0  0  0  0  0  0  0  0  0  0
   59.2080   34.9410   44.8840 C   0  0  0  0  0  0  0  0  0  0  0  0
   59.4076   35.6417   44.0599 H   0  0  0  0  0  0  0  0  0  0  0  0
  1  2  1  0
  2  3  2  0
  3  4  1  0
  3  5  1  0
  5  6  1  0
  5  7  2  0
  7  8  1  0
  8  9  2  0
  9 10  1  0
 10 11  1  0
 11 12  2  0
 12 13  1  0
 13 14  1  0
 13 15  1  0
 13 16  1  0
 16 17  1  0
 16 18  1  0
 16 19  1  0
 11 20  1  0
  7 21  1  0
 21 22  1  0
 21 23  2  0
 23 24  1  0
 23  2  1  0
 20  8  1  0
M  CHG  1  10  -1
M  END
>  <UniqueID>  (31) 
27

>  <SMILES>  (31) 
CC/N=c1/[n-]nc(-c2ccccc2)s1

>  <Energy>  (31) 
56.005216111339635

>  <Genealogy>  (31) 
CCN=c1[n-]nc(-c2ccccc2)s1 (protonated)
CC/N=c1/[n-]nc(-c2ccccc2)s1 (cis-trans isomerization)
CC/N=c1/[n-]nc(-c2ccccc2)s1 (3D coordinates assigned)
CC/N=c1/[n-]nc(-c2ccccc2)s1 (optimized conformer: 56.005216111339635 kcal/mol)

>  <smiles>  (31) 
CCN=c1[nH]nc(-c2ccccc2)s1

>  <score_type>  (31) 
oracle

>  <origin>  (31) 
adg

>  <m_score__min__energy>  (31) 
-7.9400000000000004

>  <m_primary>  (31) 
energy

$$$$
31:0
     RDKit          3D

 33 34  0  0  0  0  0  0  0  0999 V2000
   61.5074   34.8158   45.9519 H   0  0  0  0  0  0  0  0  0  0  0  0
   60.5940   34.3820   46.3850 C   0  0  0  0  0  0  0  0  0  0  0  0
   59.4620   34.2030   45.5860 C   0  0  0  0  0  0  0  0  0  0  0  0
   59.4871   34.5012   44.5275 H   0  0  0  0  0  0  0  0  0  0  0  0
   58.2930   33.6450   46.1260 C   0  0  0  0  0  0  0  0  0  0  0  0
   57.1010   33.3720   45.2460 C   0  0  0  0  0  0  0  0  0  0  0  0
   56.2474   33.0967   45.8828 H   0  0  0  0  0  0  0  0  0  0  0  0
   56.8946   34.2848   44.6680 H   0  0  0  0  0  0  0  0  0  0  0  0
   57.3590   32.2340   44.2480 C   0  0  0  0  0  0  0  0  0  0  0  0
   56.8827   32.4843   43.2885 H   0  0  0  0  0  0  0  0  0  0  0  0
   58.4462   32.1202   44.1255 H   0  0  0  0  0  0  0  0  0  0  0  0
   56.8140   30.9650   44.7340 N   0  0  0  0  0  0  0  0  0  0  0  0
   57.4620   29.8770   45.0530 C   0  0  0  0  0  0  0  0  0  0  0  0
   58.6020   29.9920   45.8580 C   0  0  0  0  0  0  0  0  0  0  0  0
   58.9518   30.9840   46.1797 H   0  0  0  0  0  0  0  0  0  0  0  0
   59.2930   28.8460   46.2510 C   0  0  0  0  0  0  0  0  0  0  0  0
   60.1859   28.9311   46.8877 H   0  0  0  0  0  0  0  0  0  0  0  0
   58.8480   27.5920   45.8340 C   0  0  0  0  0  0  0  0  0  0  0  0
   59.7720   26.0100   46.3720 Br  0  0  0  0  0  0  0  0  0  0  0  0
   57.7200   27.5060   45.0160 C   0  0  0  0  0  0  0  0  0  0  0  0
   57.3642   26.5222   44.6760 H   0  0  0  0  0  0  0  0  0  0  0  0
   57.0580   28.6340   44.6370 N   0  0  0  0  0  0  0  0  0  0  0  0
   56.2300   28.5050   44.0180 H   0  0  0  0  0  0  0  0  0  0  0  0
   58.2680   33.2820   47.4820 C   0  0  0  0  0  0  0  0  0  0  0  0
   57.3542   32.8508   47.9167 H   0  0  0  0  0  0  0  0  0  0  0  0
   59.3980   33.4660   48.2810 C   0  0  0  0  0  0  0  0  0  0  0  0
   59.3667   33.1815   49.3431 H   0  0  0  0  0  0  0  0  0  0  0  0
   60.5700   34.0090   47.7430 C   0  0  0  0  0  0  0  0  0  0  0  0
   61.6850   34.1560   48.5820 O   0  0  0  0  0  0  0  0  0  0  0  0
   63.0180   33.8160   48.2150 C   0  0  0  0  0  0  0  0  0  0  0  0
   63.6203   33.6624   49.1225 H   0  0  0  0  0  0  0  0  0  0  0  0
   63.0098   32.8912   47.6195 H   0  0  0  0  0  0  0  0  0  0  0  0
   63.4537   34.6318   47.6195 H   0  0  0  0  0  0  0  0  0  0  0  0
  1  2  1  0
  2  3  2  0
  3  4  1  0
  3  5  1  0
  5  6  1  0
  6  7  1  0
  6  8  1  0
  6  9  1  0
  9 10  1  0
  9 11  1  0
  9 12  1  0
 12 13  2  0
 13 14  1  0
 14 15  1  0
 14 16  2  0
 16 17  1  0
 16 18  1  0
 18 19  1  0
 18 20  2  0
 20 21  1  0
 20 22  1  0
 22 23  1  0
  5 24  2  0
 24 25  1  0
 24 26  1  0
 26 27  1  0
 26 28  2  0
 28 29  1  0
 29 30  1  0
 30 31  1  0
 30 32  1  0
 30 33  1  0
 28  2  1  0
 22 13  1  0
M  END
>  <UniqueID>  (32) 
28

>  <SMILES>  (32) 
COc1ccc(CC/N=c2/ccc(Br)c[nH]2)cc1

>  <Energy>  (32) 
31.650229489156583

>  <Genealogy>  (32) 
COc1ccc(CC/N=c2/ccc(Br)c[nH]2)cc1 (cis-trans isomerization)
COc1ccc(CC/N=c2/ccc(Br)c[nH]2)cc1 (3D coordinates assigned)
COc1ccc(CC/N=c2/ccc(Br)c[nH]2)cc1 (optimized conformer: 31.650229489156583 kcal/mol)

>  <smiles>  (32) 
COc1ccc(CCN=c2ccc(Br)c[nH]2)cc1

>  <score_type>  (32) 
oracle

>  <origin>  (32) 
adg

>  <m_score__min__energy>  (32) 
-6.5700000000000003

>  <m_primary>  (32) 
energy

$$$$
32:0
     RDKit          3D

 27 29  0  0  0  0  0  0  0  0999 V2000
   61.2240   34.1870   49.1800 C   0  0  0  0  0  0  0  0  0  0  0  0
   60.3110   33.8100   48.0620 C   0  0  0  0  0  0  0  0  0  0  0  0
   60.0060   34.6590   47.0470 N   0  0  0  0  0  0  0  0  0  0  0  0
   59.1360   33.9410   46.3220 C   0  0  0  0  0  0  0  0  0  0  0  0
   58.4800   34.3230   45.1560 C   0  0  0  0  0  0  0  0  0  0  0  0
   57.5940   33.3990   44.5720 C   0  0  0  0  0  0  0  0  0  0  0  0
   57.3920   32.1240   45.1530 C   0  0  0  0  0  0  0  0  0  0  0  0
   56.4640   31.2210   44.5360 N   0  0  0  0  0  0  0  0  0  0  0  0
   56.3150   29.8280   44.8410 C   0  0  0  0  0  0  0  0  0  0  0  0
   55.1560   29.3380   44.8830 O   0  0  0  0  0  0  0  0  0  0  0  0
   57.4770   28.9440   45.0460 C   0  0  0  0  0  0  0  0  0  0  0  0
   58.7500   29.1030   44.5080 C   0  0  0  0  0  0  0  0  0  0  0  0
   59.6320   28.0740   44.8580 C   0  0  0  0  0  0  0  0  0  0  0  0
   59.0590   27.0960   45.6600 C   0  0  0  0  0  0  0  0  0  0  0  0
   57.4540   27.5140   45.9310 S   0  0  0  0  0  0  0  0  0  0  0  0
   58.0610   31.7860   46.3540 C   0  0  0  0  0  0  0  0  0  0  0  0
   58.9330   32.7260   46.8980 C   0  0  0  0  0  0  0  0  0  0  0  0
   59.6640   32.6150   48.0170 N   0  0  0  0  0  0  0  0  0  0  0  0
   60.7300   33.9830   50.1414 H   0  0  0  0  0  0  0  0  0  0  0  0
   62.1504   33.5978   49.1114 H   0  0  0  0  0  0  0  0  0  0  0  0
   61.4648   35.2581   49.1114 H   0  0  0  0  0  0  0  0  0  0  0  0
   58.6481   35.3128   44.7064 H   0  0  0  0  0  0  0  0  0  0  0  0
   57.0524   33.6704   43.6539 H   0  0  0  0  0  0  0  0  0  0  0  0
   59.0352   29.9531   43.8708 H   0  0  0  0  0  0  0  0  0  0  0  0
   60.6810   28.0430   44.5285 H   0  0  0  0  0  0  0  0  0  0  0  0
   59.5676   26.2022   46.0504 H   0  0  0  0  0  0  0  0  0  0  0  0
   57.8976   30.8134   46.8413 H   0  0  0  0  0  0  0  0  0  0  0  0
  1  2  1  0
  2  3  2  0
  3  4  1  0
  4  5  2  0
  5  6  1  0
  6  7  2  0
  7  8  1  0
  8  9  1  0
  9 10  2  0
  9 11  1  0
 11 12  2  0
 12 13  1  0
 13 14  2  0
 14 15  1  0
  7 16  1  0
 16 17  2  0
 17 18  1  0
 18  2  1  0
 17  4  1  0
 15 11  1  0
  1 19  1  0
  1 20  1  0
  1 21  1  0
  5 22  1  0
  6 23  1  0
 12 24  1  0
 13 25  1  0
 14 26  1  0
 16 27  1  0
M  CHG  2   8  -1  18  -1
M  END
>  <UniqueID>  (33) 
29

>  <SMILES>  (33) 
Cc1nc2ccc([N-]C(=O)c3cccs3)cc2[n-]1

>  <Energy>  (33) 
93.54624667053696

>  <Genealogy>  (33) 
Cc1nc2ccc([N-]C(=O)c3cccs3)cc2[n-]1 (protonated)
Cc1nc2ccc([N-]C(=O)c3cccs3)cc2[n-]1 (3D coordinates assigned)
Cc1nc2ccc([N-]C(=O)c3cccs3)cc2[n-]1 (optimized conformer: 93.54624667053696 kcal/mol)

>  <smiles>  (33) 
Cc1nc2ccc(NC(=O)c3cccs3)cc2[nH]1

>  <score_type>  (33) 
oracle

>  <origin>  (33) 
adg

>  <m_score__min__energy>  (33) 
-9.5399999999999991

>  <m_primary>  (33) 
energy

$$$$
33:0
     RDKit          3D

 27 28  0  0  0  0  0  0  0  0999 V2000
   57.7720   27.7840   44.6240 C   0  0  0  0  0  0  0  0  0  0  0  0
   57.4200   29.2330   44.5720 C   0  0  0  0  0  0  0  0  0  0  0  0
   58.2370   30.2470   44.1210 C   0  0  0  0  0  0  0  0  0  0  0  0
   57.4300   31.3630   44.1990 C   0  0  0  0  0  0  0  0  0  0  0  0
   57.7990   32.7570   43.7960 C   0  0  0  0  0  0  0  0  0  0  0  0
   57.3440   33.7840   44.8390 C   0  0  0  0  0  0  0  0  0  0  0  0
   58.2830   33.8370   46.0170 C   0  0  0  0  0  0  0  0  0  0  0  0
   58.0080   33.0930   47.1790 C   0  0  0  0  0  0  0  0  0  0  0  0
   58.9000   33.1150   48.2550 C   0  0  0  0  0  0  0  0  0  0  0  0
   60.0720   33.8730   48.1790 C   0  0  0  0  0  0  0  0  0  0  0  0
   60.3560   34.6080   47.0250 C   0  0  0  0  0  0  0  0  0  0  0  0
   59.4690   34.5880   45.9450 C   0  0  0  0  0  0  0  0  0  0  0  0
   56.2470   31.0040   44.6440 O   0  0  0  0  0  0  0  0  0  0  0  0
   56.2030   29.7240   44.8750 N   0  0  0  0  0  0  0  0  0  0  0  0
   57.8500   27.4630   45.6732 H   0  0  0  0  0  0  0  0  0  0  0  0
   56.9900   27.1983   44.1185 H   0  0  0  0  0  0  0  0  0  0  0  0
   58.7355   27.6224   44.1185 H   0  0  0  0  0  0  0  0  0  0  0  0
   59.2811   30.1821   43.7808 H   0  0  0  0  0  0  0  0  0  0  0  0
   58.8917   32.8196   43.6862 H   0  0  0  0  0  0  0  0  0  0  0  0
   57.2953   32.9854   42.8451 H   0  0  0  0  0  0  0  0  0  0  0  0
   57.3066   34.7774   44.3682 H   0  0  0  0  0  0  0  0  0  0  0  0
   56.3514   33.4833   45.2054 H   0  0  0  0  0  0  0  0  0  0  0  0
   57.0885   32.4924   47.2409 H   0  0  0  0  0  0  0  0  0  0  0  0
   58.6793   32.5348   49.1631 H   0  0  0  0  0  0  0  0  0  0  0  0
   60.7711   33.8909   49.0281 H   0  0  0  0  0  0  0  0  0  0  0  0
   61.2791   35.2033   46.9664 H   0  0  0  0  0  0  0  0  0  0  0  0
   59.6999   35.1620   45.0355 H   0  0  0  0  0  0  0  0  0  0  0  0
  1  2  1  0
  2  3  1  0
  3  4  2  0
  4  5  1  0
  5  6  1  0
  6  7  1  0
  7  8  2  0
  8  9  1  0
  9 10  2  0
 10 11  1  0
 11 12  2  0
  4 13  1  0
 13 14  1  0
 14  2  2  0
 12  7  1  0
  1 15  1  0
  1 16  1  0
  1 17  1  0
  3 18  1  0
  5 19  1  0
  5 20  1  0
  6 21  1  0
  6 22  1  0
  8 23  1  0
  9 24  1  0
 10 25  1  0
 11 26  1  0
 12 27  1  0
M  END
>  <UniqueID>  (34) 
30

>  <SMILES>  (34) 
Cc1cc(CCc2ccccc2)on1

>  <Energy>  (34) 
51.826173881901894

>  <Genealogy>  (34) 
Cc1cc(CCc2ccccc2)on1 (3D coordinates assigned)
Cc1cc(CCc2ccccc2)on1 (optimized conformer: 51.826173881901894 kcal/mol)

>  <smiles>  (34) 
Cc1cc(CCc2ccccc2)on1

>  <score_type>  (34) 
oracle

>  <origin>  (34) 
adg

>  <m_score__min__energy>  (34) 
-6.8300000000000001

>  <m_primary>  (34) 
energy

$$$$
34:0
     RDKit          3D

 41 43  0  0  0  0  0  0  0  0999 V2000
   56.7590   33.2300   46.0290 O   0  0  0  0  0  0  0  0  0  0  0  0
   57.5510   32.6840   45.2150 C   0  0  0  0  0  0  0  0  0  0  0  0
   58.5620   33.5360   44.4960 C   0  0  0  0  0  0  0  0  0  0  0  0
   58.4280   34.9400   44.9040 N   0  0  0  0  0  0  0  0  0  0  0  0
   59.6450   35.4430   45.5570 C   0  0  0  0  0  0  0  0  0  0  0  0
   60.1160   34.5290   46.6630 C   0  0  0  0  0  0  0  0  0  0  0  0
   59.3380   34.3630   47.8210 C   0  0  0  0  0  0  0  0  0  0  0  0
   59.7600   33.4970   48.8350 C   0  0  0  0  0  0  0  0  0  0  0  0
   60.9570   32.7880   48.6970 C   0  0  0  0  0  0  0  0  0  0  0  0
   61.7330   32.9430   47.5450 C   0  0  0  0  0  0  0  0  0  0  0  0
   61.3140   33.8080   46.5290 C   0  0  0  0  0  0  0  0  0  0  0  0
   57.4510   31.2690   44.9710 N   0  0  0  0  0  0  0  0  0  0  0  0
   56.6790   30.8630   43.7850 C   0  0  0  0  0  0  0  0  0  0  0  0
   56.5540   29.3410   43.6640 C   0  0  0  0  0  0  0  0  0  0  0  0
   57.9230   28.6800   43.8040 C   0  0  0  0  0  0  0  0  0  0  0  0
   58.5370   29.0490   45.1250 C   0  0  0  0  0  0  0  0  0  0  0  0
   59.3790   28.1430   45.7890 C   0  0  0  0  0  0  0  0  0  0  0  0
   59.9280   28.4740   47.0300 C   0  0  0  0  0  0  0  0  0  0  0  0
   59.6350   29.7050   47.6180 C   0  0  0  0  0  0  0  0  0  0  0  0
   58.8120   30.6200   46.9550 C   0  0  0  0  0  0  0  0  0  0  0  0
   58.2860   30.3210   45.6840 C   0  0  0  0  0  0  0  0  0  0  0  0
   59.5744   33.1821   44.7407 H   0  0  0  0  0  0  0  0  0  0  0  0
   58.3878   33.4602   43.4125 H   0  0  0  0  0  0  0  0  0  0  0  0
   57.6190   35.0280   45.5640 H   0  0  0  0  0  0  0  0  0  0  0  0
   60.4422   35.5283   44.8038 H   0  0  0  0  0  0  0  0  0  0  0  0
   59.4105   36.4209   46.0028 H   0  0  0  0  0  0  0  0  0  0  0  0
   58.3935   34.9161   47.9306 H   0  0  0  0  0  0  0  0  0  0  0  0
   59.1496   33.3737   49.7418 H   0  0  0  0  0  0  0  0  0  0  0  0
   61.2882   32.1078   49.4955 H   0  0  0  0  0  0  0  0  0  0  0  0
   62.6743   32.3841   47.4373 H   0  0  0  0  0  0  0  0  0  0  0  0
   61.9249   33.9241   45.6216 H   0  0  0  0  0  0  0  0  0  0  0  0
   55.6702   31.2961   43.8546 H   0  0  0  0  0  0  0  0  0  0  0  0
   57.2132   31.2280   42.8954 H   0  0  0  0  0  0  0  0  0  0  0  0
   55.8890   28.9681   44.4569 H   0  0  0  0  0  0  0  0  0  0  0  0
   56.1394   29.0953   42.6752 H   0  0  0  0  0  0  0  0  0  0  0  0
   57.8079   27.5875   43.7479 H   0  0  0  0  0  0  0  0  0  0  0  0
   58.5775   29.0274   42.9910 H   0  0  0  0  0  0  0  0  0  0  0  0
   59.6071   27.1694   45.3306 H   0  0  0  0  0  0  0  0  0  0  0  0
   60.5920   27.7636   47.5442 H   0  0  0  0  0  0  0  0  0  0  0  0
   60.0521   29.9557   48.6045 H   0  0  0  0  0  0  0  0  0  0  0  0
   58.5732   31.5826   47.4309 H   0  0  0  0  0  0  0  0  0  0  0  0
  1  2  2  0
  2  3  1  0
  3  4  1  0
  4  5  1  0
  5  6  1  0
  6  7  2  0
  7  8  1  0
  8  9  2  0
  9 10  1  0
 10 11  2  0
  2 12  1  0
 12 13  1  0
 13 14  1  0
 14 15  1  0
 15 16  1  0
 16 17  2  0
 17 18  1  0
 18 19  2  0
 19 20  1  0
 20 21  2  0
 11  6  1  0
 21 12  1  0
 21 16  1  0
  3 22  1  0
  3 23  1  0
  4 24  1  0
  5 25  1  0
  5 26  1  0
  7 27  1  0
  8 28  1  0
  9 29  1  0
 10 30  1  0
 11 31  1  0
 13 32  1  0
 13 33  1  0
 14 34  1  0
 14 35  1  0
 15 36  1  0
 15 37  1  0
 17 38  1  0
 18 39  1  0
 19 40  1  0
 20 41  1  0
M  END
>  <UniqueID>  (35) 
31

>  <SMILES>  (35) 
O=C(CNCc1ccccc1)N1CCCc2ccccc21

>  <Energy>  (35) 
48.16239219665101

>  <Genealogy>  (35) 
O=C(CNCc1ccccc1)N1CCCc2ccccc21 (3D coordinates assigned)
O=C(CNCc1ccccc1)N1CCCc2ccccc21 (nonaromatic ring conformer: 48.16239219665101 kcal/mol)

>  <smiles>  (35) 
O=C(CNCc1ccccc1)N1CCCc2ccccc21

>  <score_type>  (35) 
oracle

>  <origin>  (35) 
adg

>  <m_score__min__energy>  (35) 
-7.9800000000000004

>  <m_primary>  (35) 
energy

$$$$
35:0
     RDKit          3D

 27 29  0  0  0  0  0  0  0  0999 V2000
   59.6460   35.3560   46.0030 Br  0  0  0  0  0  0  0  0  0  0  0  0
   59.1810   33.5150   45.7930 C   0  0  0  0  0  0  0  0  0  0  0  0
   59.8100   32.5410   46.5750 C   0  0  0  0  0  0  0  0  0  0  0  0
   59.4700   31.1930   46.4240 C   0  0  0  0  0  0  0  0  0  0  0  0
   58.4980   30.8070   45.4860 C   0  0  0  0  0  0  0  0  0  0  0  0
   58.1420   29.3840   45.3300 C   0  0  0  0  0  0  0  0  0  0  0  0
   56.9880   28.9400   44.7870 N   0  0  0  0  0  0  0  0  0  0  0  0
   57.0590   27.6210   44.8340 N   0  0  0  0  0  0  0  0  0  0  0  0
   58.2360   27.3000   45.3970 C   0  0  0  0  0  0  0  0  0  0  0  0
   58.7020   25.9060   45.6630 C   0  0  0  0  0  0  0  0  0  0  0  0
   57.8440   25.2180   47.1190 S   0  0  0  0  0  0  0  0  0  0  0  0
   56.2250   25.2280   46.3540 C   0  0  0  0  0  0  0  0  0  0  0  0
   55.6670   24.1490   45.7760 N   0  0  0  0  0  0  0  0  0  0  0  0
   54.4860   24.6430   45.3570 C   0  0  0  0  0  0  0  0  0  0  0  0
   54.3370   25.9440   45.6660 N   0  0  0  0  0  0  0  0  0  0  0  0
   55.4360   26.3150   46.2980 N   0  0  0  0  0  0  0  0  0  0  0  0
   58.9090   28.3820   45.7070 O   0  0  0  0  0  0  0  0  0  0  0  0
   57.8700   31.7920   44.7040 C   0  0  0  0  0  0  0  0  0  0  0  0
   58.2120   33.1390   44.8580 C   0  0  0  0  0  0  0  0  0  0  0  0
   60.5734   32.8357   47.3101 H   0  0  0  0  0  0  0  0  0  0  0  0
   59.9662   30.4309   47.0429 H   0  0  0  0  0  0  0  0  0  0  0  0
   56.3160   26.9690   44.4970 H   0  0  0  0  0  0  0  0  0  0  0  0
   58.4879   25.2782   44.7855 H   0  0  0  0  0  0  0  0  0  0  0  0
   59.7841   25.9221   45.8600 H   0  0  0  0  0  0  0  0  0  0  0  0
   53.7291   24.0500   44.8227 H   0  0  0  0  0  0  0  0  0  0  0  0
   57.1061   31.5018   43.9676 H   0  0  0  0  0  0  0  0  0  0  0  0
   57.7175   33.9046   44.2421 H   0  0  0  0  0  0  0  0  0  0  0  0
  1  2  1  0
  2  3  2  0
  3  4  1  0
  4  5  2  0
  5  6  1  0
  6  7  2  0
  7  8  1  0
  8  9  2  0
  9 10  1  0
 10 11  1  0
 11 12  1  0
 12 13  2  0
 13 14  1  0
 14 15  2  0
 15 16  1  0
  9 17  1  0
  5 18  1  0
 18 19  2  0
 19  2  1  0
 17  6  1  0
 16 12  1  0
  3 20  1  0
  4 21  1  0
  8 22  1  0
 10 23  1  0
 10 24  1  0
 14 25  1  0
 18 26  1  0
 19 27  1  0
M  CHG  2   8   1  16  -1
M  END
>  <UniqueID>  (36) 
32

>  <SMILES>  (36) 
Brc1ccc(-c2n[nH+]c(CSc3ncn[n-]3)o2)cc1

>  <Energy>  (36) 
91.42906045497146

>  <Genealogy>  (36) 
Brc1ccc(-c2n[nH+]c(CSc3ncn[n-]3)o2)cc1 (protonated)
Brc1ccc(-c2n[nH+]c(CSc3ncn[n-]3)o2)cc1 (3D coordinates assigned)
Brc1ccc(-c2n[nH+]c(CSc3ncn[n-]3)o2)cc1 (optimized conformer: 91.42906045497146 kcal/mol)

>  <smiles>  (36) 
Brc1ccc(-c2nnc(CSc3ncn[nH]3)o2)cc1

>  <score_type>  (36) 
oracle

>  <origin>  (36) 
adg

>  <m_score__min__energy>  (36) 
-7.5800000000000001

>  <m_primary>  (36) 
energy

$$$$
36:0
     RDKit          3D

 39 40  0  0  0  0  0  0  0  0999 V2000
   62.0380   34.1280   48.1750 C   0  0  0  0  0  0  0  0  0  0  0  0
   60.7690   34.6000   47.7350 O   0  0  0  0  0  0  0  0  0  0  0  0
   59.8360   33.8330   47.0170 C   0  0  0  0  0  0  0  0  0  0  0  0
   59.6360   34.0150   45.6360 C   0  0  0  0  0  0  0  0  0  0  0  0
   58.7030   33.2410   44.9460 C   0  0  0  0  0  0  0  0  0  0  0  0
   57.9630   32.2620   45.6120 C   0  0  0  0  0  0  0  0  0  0  0  0
   57.0000   31.5030   44.8660 N   0  0  0  0  0  0  0  0  0  0  0  0
   57.0050   30.0830   44.6650 C   0  0  0  0  0  0  0  0  0  0  0  0
   56.1340   29.3620   45.2270 O   0  0  0  0  0  0  0  0  0  0  0  0
   58.0770   29.4840   43.8960 N   0  0  2  0  0  0  0  0  0  0  0  0
   57.7490   28.1210   43.4110 C   0  0  0  0  0  0  0  0  0  0  0  0
   58.1270   27.0220   44.4250 C   0  0  0  0  0  0  0  0  0  0  0  0
   58.2880   27.5550   45.7220 O   0  0  0  0  0  0  0  0  0  0  0  0
   59.4160   28.4110   45.7530 C   0  0  2  0  0  0  0  0  0  0  0  0
   59.5300   29.0210   47.1550 C   0  0  0  0  0  0  0  0  0  0  0  0
   58.2770   29.3020   47.6710 F   0  0  0  0  0  0  0  0  0  0  0  0
   60.2810   30.1820   47.1150 F   0  0  0  0  0  0  0  0  0  0  0  0
   59.3480   29.5110   44.6500 C   0  0  0  0  0  0  0  0  0  0  0  0
   58.1360   32.0890   46.9960 C   0  0  0  0  0  0  0  0  0  0  0  0
   59.0780   32.8600   47.7050 C   0  0  0  0  0  0  0  0  0  0  0  0
   59.2690   32.6730   49.1940 C   0  0  0  0  0  0  0  0  0  0  0  0
   60.4180   31.9550   49.4810 F   0  0  0  0  0  0  0  0  0  0  0  0
   58.1840   31.9920   49.7140 F   0  0  0  0  0  0  0  0  0  0  0  0
   59.3660   33.9080   49.8080 F   0  0  0  0  0  0  0  0  0  0  0  0
   62.0644   34.1182   49.2746 H   0  0  0  0  0  0  0  0  0  0  0  0
   62.2019   33.1088   47.7952 H   0  0  0  0  0  0  0  0  0  0  0  0
   62.8282   34.7924   47.7952 H   0  0  0  0  0  0  0  0  0  0  0  0
   60.2206   34.7743   45.0959 H   0  0  0  0  0  0  0  0  0  0  0  0
   58.5490   33.4031   43.8690 H   0  0  0  0  0  0  0  0  0  0  0  0
   58.2050   30.0870   43.0480 H   0  0  0  0  0  0  0  0  0  0  0  0
   56.6672   28.0663   43.2196 H   0  0  0  0  0  0  0  0  0  0  0  0
   58.3332   27.9442   42.4959 H   0  0  0  0  0  0  0  0  0  0  0  0
   57.3303   26.2638   44.4454 H   0  0  0  0  0  0  0  0  0  0  0  0
   59.0819   26.5744   44.1123 H   0  0  0  0  0  0  0  0  0  0  0  0
   60.3192   27.8224   45.5346 H   0  0  0  0  0  0  0  0  0  0  0  0
   60.0278   28.2865   47.8051 H   0  0  0  0  0  0  0  0  0  0  0  0
   59.4527   30.4960   45.1283 H   0  0  0  0  0  0  0  0  0  0  0  0
   60.1622   29.3171   43.9363 H   0  0  0  0  0  0  0  0  0  0  0  0
   57.5294   31.3437   47.5313 H   0  0  0  0  0  0  0  0  0  0  0  0
  1  2  1  0
  2  3  1  0
  3  4  2  0
  4  5  1  0
  5  6  2  0
  6  7  1  0
  7  8  1  0
  8  9  2  0
  8 10  1  0
 10 11  1  0
 11 12  1  0
 12 13  1  0
 13 14  1  0
 14 15  1  0
 15 16  1  0
 15 17  1  0
 14 18  1  0
  6 19  1  0
 19 20  2  0
 20 21  1  0
 21 22  1  0
 21 23  1  0
 21 24  1  0
 20  3  1  0
 18 10  1  0
  1 25  1  0
  1 26  1  0
  1 27  1  0
  4 28  1  0
  5 29  1  0
 10 30  1  6
 11 31  1  0
 11 32  1  0
 12 33  1  0
 12 34  1  0
 14 35  1  6
 15 36  1  0
 18 37  1  0
 18 38  1  0
 19 39  1  0
M  CHG  2   7  -1  10   1
M  END
>  <UniqueID>  (37) 
33

>  <SMILES>  (37) 
COc1ccc([N-]C(=O)[N@@H+]2CCO[C@H](C(F)F)C2)cc1C(F)(F)F

>  <Energy>  (37) 
55.12100112345178

>  <Genealogy>  (37) 
COc1ccc([N-]C(=O)[NH+]2CCOC(C(F)F)C2)cc1C(F)(F)F (protonated)
COc1ccc([N-]C(=O)[N@@H+]2CCO[C@H](C(F)F)C2)cc1C(F)(F)F (chirality)
COc1ccc([N-]C(=O)[N@@H+]2CCO[C@H](C(F)F)C2)cc1C(F)(F)F (3D coordinates assigned)
COc1ccc([N-]C(=O)[N@@H+]2CCO[C@H](C(F)F)C2)cc1C(F)(F)F (nonaromatic ring conformer: 55.12100112345178 kcal/mol)

>  <smiles>  (37) 
COc1ccc(NC(=O)N2CCOC(C(F)F)C2)cc1C(F)(F)F

>  <score_type>  (37) 
oracle

>  <origin>  (37) 
adg

>  <m_score__min__energy>  (37) 
-5.6600000000000001

>  <m_primary>  (37) 
energy

$$$$
37:0
     RDKit          3D

 29 31  0  0  0  0  0  0  0  0999 V2000
   57.2110   28.4820   44.9420 C   0  0  0  0  0  0  0  0  0  0  0  0
   56.5930   29.7550   45.0960 O   0  0  0  0  0  0  0  0  0  0  0  0
   57.1640   30.9680   44.6840 C   0  0  0  0  0  0  0  0  0  0  0  0
   57.5060   31.1170   43.3340 C   0  0  0  0  0  0  0  0  0  0  0  0
   58.0760   32.3080   42.8750 C   0  0  0  0  0  0  0  0  0  0  0  0
   58.3080   33.3610   43.7620 C   0  0  0  0  0  0  0  0  0  0  0  0
   57.9690   33.2270   45.1120 C   0  0  0  0  0  0  0  0  0  0  0  0
   58.2600   34.5810   46.2490 S   0  0  0  0  0  0  0  0  0  0  0  0
   59.7800   33.8590   46.8560 C   0  0  0  0  0  0  0  0  0  0  0  0
   59.7540   32.9010   47.8940 C   0  0  0  0  0  0  0  0  0  0  0  0
   60.9530   32.3330   48.3550 C   0  0  0  0  0  0  0  0  0  0  0  0
   62.1260   32.7620   47.7460 C   0  0  0  0  0  0  0  0  0  0  0  0
   63.3860   32.3690   48.0090 N   0  0  0  0  0  0  0  0  0  0  0  0
   64.1500   33.0620   47.1660 N   0  0  0  0  0  0  0  0  0  0  0  0
   63.3610   33.8580   46.4090 C   0  0  0  0  0  0  0  0  0  0  0  0
   62.0880   33.6730   46.7720 N   0  0  0  0  0  0  0  0  0  0  0  0
   60.9740   34.2320   46.3080 N   0  0  0  0  0  0  0  0  0  0  0  0
   57.4030   32.0320   45.5750 C   0  0  0  0  0  0  0  0  0  0  0  0
   57.4192   28.0532   45.9333 H   0  0  0  0  0  0  0  0  0  0  0  0
   56.5377   27.8123   44.3868 H   0  0  0  0  0  0  0  0  0  0  0  0
   58.1537   28.5968   44.3868 H   0  0  0  0  0  0  0  0  0  0  0  0
   57.3248   30.2913   42.6302 H   0  0  0  0  0  0  0  0  0  0  0  0
   58.3422   32.4158   41.8132 H   0  0  0  0  0  0  0  0  0  0  0  0
   58.7578   34.2967   43.3986 H   0  0  0  0  0  0  0  0  0  0  0  0
   58.7951   32.6000   48.3410 H   0  0  0  0  0  0  0  0  0  0  0  0
   60.9630   31.5837   49.1603 H   0  0  0  0  0  0  0  0  0  0  0  0
   65.1900   32.9880   47.1120 H   0  0  0  0  0  0  0  0  0  0  0  0
   63.7096   34.5448   45.6236 H   0  0  0  0  0  0  0  0  0  0  0  0
   57.1443   31.9244   46.6387 H   0  0  0  0  0  0  0  0  0  0  0  0
  1  2  1  0
  2  3  1  0
  3  4  2  0
  4  5  1  0
  5  6  2  0
  6  7  1  0
  7  8  1  0
  8  9  1  0
  9 10  1  0
 10 11  2  0
 11 12  1  0
 12 13  2  0
 13 14  1  0
 14 15  2  0
 15 16  1  0
 16 17  1  0
  7 18  2  0
 18  3  1  0
 17  9  2  0
 16 12  1  0
  1 19  1  0
  1 20  1  0
  1 21  1  0
  4 22  1  0
  5 23  1  0
  6 24  1  0
 10 25  1  0
 11 26  1  0
 14 27  1  0
 15 28  1  0
 18 29  1  0
M  CHG  1  14   1
M  END
>  <UniqueID>  (38) 
34

>  <SMILES>  (38) 
COc1cccc(Sc2ccc3n[nH+]cn3n2)c1

>  <Energy>  (38) 
69.72592135625268

>  <Genealogy>  (38) 
COc1cccc(Sc2ccc3n[nH+]cn3n2)c1 (protonated)
COc1cccc(Sc2ccc3n[nH+]cn3n2)c1 (3D coordinates assigned)
COc1cccc(Sc2ccc3n[nH+]cn3n2)c1 (optimized conformer: 69.72592135625268 kcal/mol)

>  <smiles>  (38) 
COc1cccc(Sc2ccc3nncn3n2)c1

>  <score_type>  (38) 
oracle

>  <origin>  (38) 
adg

>  <m_score__min__energy>  (38) 
-6.3300000000000001

>  <m_primary>  (38) 
energy

$$$$
38:0
     RDKit          3D

 45 48  0  0  0  0  0  0  0  0999 V2000
   59.3290   34.9940   46.5660 C   0  0  0  0  0  0  0  0  0  0  0  0
   59.0630   33.6080   46.9310 N   0  0  0  0  0  0  0  0  0  0  0  0
   59.8360   32.8180   47.7000 C   0  0  0  0  0  0  0  0  0  0  0  0
   59.2710   31.5530   47.7290 C   0  0  0  0  0  0  0  0  0  0  0  0
   59.7930   30.3660   48.4520 C   0  0  0  0  0  0  0  0  0  0  0  0
   59.3470   29.0720   48.1220 C   0  0  0  0  0  0  0  0  0  0  0  0
   59.8410   27.9560   48.8050 C   0  0  0  0  0  0  0  0  0  0  0  0
   60.7830   28.1160   49.8230 C   0  0  0  0  0  0  0  0  0  0  0  0
   61.2600   27.0330   50.4840 F   0  0  0  0  0  0  0  0  0  0  0  0
   61.2340   29.3940   50.1600 C   0  0  0  0  0  0  0  0  0  0  0  0
   60.7440   30.5140   49.4790 C   0  0  0  0  0  0  0  0  0  0  0  0
   58.1540   31.5650   46.9680 N   0  0  0  0  0  0  0  0  0  0  0  0
   58.0600   32.8200   46.4910 C   0  0  0  0  0  0  0  0  0  0  0  0
   56.7540   33.3580   45.3850 S   0  0  0  0  0  0  0  0  0  0  0  0
   57.3930   32.3940   43.9810 C   0  0  0  0  0  0  0  0  0  0  0  0
   57.7030   31.0090   44.4350 C   0  0  0  0  0  0  0  0  0  0  0  0
   58.9710   30.5200   44.4840 N   0  0  0  0  0  0  0  0  0  0  0  0
   58.7720   29.2560   44.8870 C   0  0  0  0  0  0  0  0  0  0  0  0
   57.4560   29.0160   45.0540 C   0  0  0  0  0  0  0  0  0  0  0  0
   56.7370   30.1120   44.7700 N   0  0  0  0  0  0  0  0  0  0  0  0
   57.0130   27.7690   45.4560 C   0  0  0  0  0  0  0  0  0  0  0  0
   55.7800   27.5590   45.6270 O   0  0  0  0  0  0  0  0  0  0  0  0
   57.9470   26.7780   45.6570 N   0  0  0  0  0  0  0  0  0  0  0  0
   57.5170   25.4430   46.1050 C   0  0  0  0  0  0  0  0  0  0  0  0
   59.2960   27.0520   45.5000 C   0  0  0  0  0  0  0  0  0  0  0  0
   60.1500   26.1440   45.7100 O   0  0  0  0  0  0  0  0  0  0  0  0
   59.7200   28.3080   45.1170 N   0  0  0  0  0  0  0  0  0  0  0  0
   61.1430   28.5950   44.9010 C   0  0  0  0  0  0  0  0  0  0  0  0
   59.4448   35.5976   47.4782 H   0  0  0  0  0  0  0  0  0  0  0  0
   60.2535   35.0458   45.9722 H   0  0  0  0  0  0  0  0  0  0  0  0
   58.4894   35.3844   45.9722 H   0  0  0  0  0  0  0  0  0  0  0  0
   60.7577   33.1242   48.2165 H   0  0  0  0  0  0  0  0  0  0  0  0
   58.6048   28.9378   47.3213 H   0  0  0  0  0  0  0  0  0  0  0  0
   59.4863   26.9492   48.5394 H   0  0  0  0  0  0  0  0  0  0  0  0
   61.9758   29.5205   50.9623 H   0  0  0  0  0  0  0  0  0  0  0  0
   61.1048   31.5176   49.7484 H   0  0  0  0  0  0  0  0  0  0  0  0
   57.4910   30.7810   46.7810 H   0  0  0  0  0  0  0  0  0  0  0  0
   56.6353   32.3586   43.1844 H   0  0  0  0  0  0  0  0  0  0  0  0
   58.3070   32.8682   43.5940 H   0  0  0  0  0  0  0  0  0  0  0  0
   57.5067   25.4109   47.2045 H   0  0  0  0  0  0  0  0  0  0  0  0
   56.5066   25.2357   45.7226 H   0  0  0  0  0  0  0  0  0  0  0  0
   58.2164   24.6850   45.7226 H   0  0  0  0  0  0  0  0  0  0  0  0
   61.6481   28.6969   45.8728 H   0  0  0  0  0  0  0  0  0  0  0  0
   61.6013   27.7712   44.3341 H   0  0  0  0  0  0  0  0  0  0  0  0
   61.2461   29.5320   44.3341 H   0  0  0  0  0  0  0  0  0  0  0  0
  1  2  1  0
  2  3  1  0
  3  4  2  0
  4  5  1  0
  5  6  2  0
  6  7  1  0
  7  8  2  0
  8  9  1  0
  8 10  1  0
 10 11  2  0
  4 12  1  0
 12 13  2  0
 13 14  1  0
 14 15  1  0
 15 16  1  0
 16 17  2  0
 17 18  1  0
 18 19  2  0
 19 20  1  0
 19 21  1  0
 21 22  2  0
 21 23  1  0
 23 24  1  0
 23 25  1  0
 25 26  2  0
 25 27  1  0
 27 28  1  0
 13  2  1  0
 20 16  1  0
 11  5  1  0
 27 18  1  0
  1 29  1  0
  1 30  1  0
  1 31  1  0
  3 32  1  0
  6 33  1  0
  7 34  1  0
 10 35  1  0
 11 36  1  0
 12 37  1  0
 15 38  1  0
 15 39  1  0
 24 40  1  0
 24 41  1  0
 24 42  1  0
 28 43  1  0
 28 44  1  0
 28 45  1  0
M  CHG  2  12   1  20  -1
M  END
>  <UniqueID>  (39) 
35

>  <SMILES>  (39) 
Cn1cc(-c2ccc(F)cc2)[nH+]c1SCc1nc2c([n-]1)c(=O)n(C)c(=O)n2C

>  <Energy>  (39) 
118.13584503401069

>  <Genealogy>  (39) 
Cn1cc(-c2ccc(F)cc2)[nH+]c1SCc1nc2c([n-]1)c(=O)n(C)c(=O)n2C (protonated)
Cn1cc(-c2ccc(F)cc2)[nH+]c1SCc1nc2c([n-]1)c(=O)n(C)c(=O)n2C (3D coordinates assigned)
Cn1cc(-c2ccc(F)cc2)[nH+]c1SCc1nc2c([n-]1)c(=O)n(C)c(=O)n2C (optimized conformer: 118.13584503401069 kcal/mol)

>  <smiles>  (39) 
Cn1cc(-c2ccc(F)cc2)nc1SCc1nc2c([nH]1)c(=O)n(C)c(=O)n2C

>  <score_type>  (39) 
oracle

>  <origin>  (39) 
adg

>  <m_score__min__energy>  (39) 
-8.0700000000000003

>  <m_primary>  (39) 
energy

$$$$
39:0
     RDKit          3D

 50 53  0  0  0  0  0  0  0  0999 V2000
   57.3780   26.4080   46.6810 O   0  0  0  0  0  0  0  0  0  0  0  0
   56.4140   26.9030   46.0350 C   0  0  0  0  0  0  0  0  0  0  0  0
   56.6120   28.1600   45.2430 C   0  0  0  0  0  0  0  0  0  0  0  0
   58.0780   28.3730   44.8410 C   0  0  0  0  0  0  0  0  0  0  0  0
   58.5850   29.6690   45.3220 N   0  0  0  0  0  0  0  0  0  0  0  0
   57.8270   30.8800   45.1260 C   0  0  0  0  0  0  0  0  0  0  0  0
   56.7080   30.8410   44.5450 O   0  0  0  0  0  0  0  0  0  0  0  0
   58.3540   32.1720   45.6170 C   0  0  0  0  0  0  0  0  0  0  0  0
   57.6300   33.3610   45.4190 C   0  0  0  0  0  0  0  0  0  0  0  0
   58.1220   34.5790   45.8890 C   0  0  0  0  0  0  0  0  0  0  0  0
   59.3420   34.6320   46.5630 C   0  0  0  0  0  0  0  0  0  0  0  0
   60.0860   33.4620   46.7700 C   0  0  0  0  0  0  0  0  0  0  0  0
   61.3190   33.5180   47.4340 C   0  0  0  0  0  0  0  0  0  0  0  0
   62.0650   32.3550   47.6260 C   0  0  0  0  0  0  0  0  0  0  0  0
   61.5910   31.1290   47.1600 C   0  0  0  0  0  0  0  0  0  0  0  0
   60.3570   31.0460   46.4920 C   0  0  0  0  0  0  0  0  0  0  0  0
   59.5940   32.2180   46.2950 C   0  0  0  0  0  0  0  0  0  0  0  0
   59.8600   29.7450   45.9900 C   0  0  0  0  0  0  0  0  0  0  0  0
   60.5520   28.7020   46.1500 O   0  0  0  0  0  0  0  0  0  0  0  0
   55.1480   26.2380   46.0020 N   0  0  0  0  0  0  0  0  0  0  0  0
   54.9670   24.8900   45.4740 C   0  0  0  0  0  0  0  0  0  0  0  0
   56.1360   23.9820   45.8780 C   0  0  0  0  0  0  0  0  0  0  0  0
   57.1360   23.9100   44.7860 N   0  0  0  0  0  0  0  0  0  0  0  0
   56.5480   24.1580   43.4460 C   0  0  0  0  0  0  0  0  0  0  0  0
   56.2730   22.8550   42.6730 C   0  0  0  0  0  0  0  0  0  0  0  0
   55.9160   21.8290   43.5710 O   0  0  0  0  0  0  0  0  0  0  0  0
   57.0340   21.4480   44.3550 C   0  0  0  0  0  0  0  0  0  0  0  0
   57.9000   22.6460   44.8160 C   0  0  0  0  0  0  0  0  0  0  0  0
   56.0002   28.1028   44.3306 H   0  0  0  0  0  0  0  0  0  0  0  0
   56.3115   29.0071   45.8772 H   0  0  0  0  0  0  0  0  0  0  0  0
   58.6885   27.5670   45.2742 H   0  0  0  0  0  0  0  0  0  0  0  0
   58.1403   28.3633   43.7428 H   0  0  0  0  0  0  0  0  0  0  0  0
   56.6668   33.3306   44.8886 H   0  0  0  0  0  0  0  0  0  0  0  0
   57.5452   35.5016   45.7273 H   0  0  0  0  0  0  0  0  0  0  0  0
   59.7218   35.5956   46.9335 H   0  0  0  0  0  0  0  0  0  0  0  0
   61.6994   34.4813   47.8046 H   0  0  0  0  0  0  0  0  0  0  0  0
   63.0321   32.4052   48.1477 H   0  0  0  0  0  0  0  0  0  0  0  0
   62.1882   30.2186   47.3166 H   0  0  0  0  0  0  0  0  0  0  0  0
   54.0310   24.4703   45.8713 H   0  0  0  0  0  0  0  0  0  0  0  0
   54.9280   24.9450   44.3761 H   0  0  0  0  0  0  0  0  0  0  0  0
   56.6146   24.3877   46.7815 H   0  0  0  0  0  0  0  0  0  0  0  0
   55.7505   22.9710   46.0759 H   0  0  0  0  0  0  0  0  0  0  0  0
   55.5994   24.7005   43.5718 H   0  0  0  0  0  0  0  0  0  0  0  0
   57.2750   24.7444   42.8651 H   0  0  0  0  0  0  0  0  0  0  0  0
   55.4499   23.0198   41.9621 H   0  0  0  0  0  0  0  0  0  0  0  0
   57.1819   22.5589   42.1287 H   0  0  0  0  0  0  0  0  0  0  0  0
   56.6696   20.9177   45.2472 H   0  0  0  0  0  0  0  0  0  0  0  0
   57.6711   20.8113   43.7235 H   0  0  0  0  0  0  0  0  0  0  0  0
   58.2464   22.4621   45.8437 H   0  0  0  0  0  0  0  0  0  0  0  0
   58.7519   22.7414   44.1267 H   0  0  0  0  0  0  0  0  0  0  0  0
  1  2  2  0
  2  3  1  0
  3  4  1  0
  4  5  1  0
  5  6  1  0
  6  7  2  0
  6  8  1  0
  8  9  2  0
  9 10  1  0
 10 11  2  0
 11 12  1  0
 12 13  2  0
 13 14  1  0
 14 15  2  0
 15 16  1  0
 16 17  2  0
 16 18  1  0
 18 19  2  0
  2 20  1  0
 20 21  1  0
 21 22  1  0
 22 23  1  0
 23 24  1  0
 24 25  1  0
 25 26  1  0
 26 27  1  0
 27 28  1  0
 18  5  1  0
 28 23  1  0
 17  8  1  0
 17 12  1  0
  3 29  1  0
  3 30  1  0
  4 31  1  0
  4 32  1  0
  9 33  1  0
 10 34  1  0
 11 35  1  0
 13 36  1  0
 14 37  1  0
 15 38  1  0
 21 39  1  0
 21 40  1  0
 22 41  1  0
 22 42  1  0
 24 43  1  0
 24 44  1  0
 25 45  1  0
 25 46  1  0
 27 47  1  0
 27 48  1  0
 28 49  1  0
 28 50  1  0
M  CHG  1  20  -1
M  END
>  <UniqueID>  (40) 
36

>  <SMILES>  (40) 
O=C(CCN1C(=O)c2cccc3cccc(c23)C1=O)[N-]CCN1CCOCC1

>  <Energy>  (40) 
61.67423526681928

>  <Genealogy>  (40) 
O=C(CCN1C(=O)c2cccc3cccc(c23)C1=O)[N-]CCN1CCOCC1 (protonated)
O=C(CCN1C(=O)c2cccc3cccc(c23)C1=O)[N-]CCN1CCOCC1 (3D coordinates assigned)
O=C(CCN1C(=O)c2cccc3cccc(c23)C1=O)[N-]CCN1CCOCC1 (nonaromatic ring conformer: 61.67423526681928 kcal/mol)

>  <smiles>  (40) 
O=C(CCN1C(=O)c2cccc3cccc(c23)C1=O)NCCN1CCOCC1

>  <score_type>  (40) 
oracle

>  <origin>  (40) 
adg

>  <m_score__min__energy>  (40) 
-11.77

>  <m_primary>  (40) 
energy

$$$$
40:0
     RDKit          3D

 38 40  0  0  1  0  0  0  0  0999 V2000
   59.3560   27.5000   45.6500 C   0  0  0  0  0  0  0  0  0  0  0  0
   59.9250   28.6050   45.0060 C   0  0  0  0  0  0  0  0  0  0  0  0
   59.1210   29.5970   44.4850 C   0  0  0  0  0  0  0  0  0  0  0  0
   57.7390   29.4690   44.6140 C   0  0  0  0  0  0  0  0  0  0  0  0
   56.6930   30.2970   44.1950 C   0  0  0  0  0  0  0  0  0  0  0  0
   56.8310   31.3920   43.5740 N   0  0  0  0  0  0  0  0  0  0  0  0
   57.7650   32.4420   43.9320 C   0  0  0  0  0  0  0  0  0  0  0  0
   57.5100   32.7620   45.3960 C   0  0  0  0  0  0  0  0  0  0  0  0
   58.6850   32.9660   46.1690 N   0  0  0  0  0  0  0  0  0  0  0  0
   58.4410   32.9460   47.5980 C   0  0  0  0  0  0  0  0  0  0  0  0
   59.2580   33.9670   48.3290 C   0  0  0  0  0  0  0  0  0  0  0  0
   60.6830   33.8870   47.8180 C   0  0  0  0  0  0  0  0  0  0  0  0
   60.7540   34.1500   46.3440 C   0  0  0  0  0  0  0  0  0  0  0  0
   59.3650   34.1590   45.7290 C   0  0  0  0  0  0  0  0  0  0  0  0
   55.5540   29.7330   44.5600 N   0  0  0  0  0  0  0  0  0  0  0  0
   55.8440   28.5930   45.1860 N   0  0  0  0  0  0  0  0  0  0  0  0
   57.1580   28.3900   45.2430 C   0  0  0  0  0  0  0  0  0  0  0  0
   57.9670   27.3970   45.7660 C   0  0  0  0  0  0  0  0  0  0  0  0
   60.0023   26.7125   46.0649 H   0  0  0  0  0  0  0  0  0  0  0  0
   61.0185   28.6824   44.9151 H   0  0  0  0  0  0  0  0  0  0  0  0
   59.5603   30.4694   43.9791 H   0  0  0  0  0  0  0  0  0  0  0  0
   58.7994   32.0947   43.7930 H   0  0  0  0  0  0  0  0  0  0  0  0
   57.6271   33.3313   43.2994 H   0  0  0  0  0  0  0  0  0  0  0  0
   56.9025   33.6776   45.4466 H   0  0  0  0  0  0  0  0  0  0  0  0
   57.0030   31.8845   45.8238 H   0  0  0  0  0  0  0  0  0  0  0  0
   57.3753   33.1511   47.7777 H   0  0  0  0  0  0  0  0  0  0  0  0
   58.7283   31.9531   47.9744 H   0  0  0  0  0  0  0  0  0  0  0  0
   58.8515   34.9720   48.1429 H   0  0  0  0  0  0  0  0  0  0  0  0
   59.2307   33.7718   49.4112 H   0  0  0  0  0  0  0  0  0  0  0  0
   61.2939   34.6352   48.3443 H   0  0  0  0  0  0  0  0  0  0  0  0
   61.0602   32.8709   48.0057 H   0  0  0  0  0  0  0  0  0  0  0  0
   61.2294   35.1274   46.1748 H   0  0  0  0  0  0  0  0  0  0  0  0
   61.3431   33.3501   45.8716 H   0  0  0  0  0  0  0  0  0  0  0  0
   58.8129   35.0500   46.0627 H   0  0  0  0  0  0  0  0  0  0  0  0
   59.4290   34.1842   44.6312 H   0  0  0  0  0  0  0  0  0  0  0  0
   54.6100   30.1210   44.3800 H   0  0  0  0  0  0  0  0  0  0  0  0
   55.1460   27.9270   45.5880 H   0  0  0  0  0  0  0  0  0  0  0  0
   57.5184   26.5291   46.2715 H   0  0  0  0  0  0  0  0  0  0  0  0
  1  2  2  0
  2  3  1  0
  3  4  2  0
  4  5  1  0
  5  6  2  0
  6  7  1  0
  7  8  1  0
  8  9  1  0
  9 10  1  0
 10 11  1  0
 11 12  1  0
 12 13  1  0
 13 14  1  0
  5 15  1  0
 15 16  1  0
 16 17  1  0
 17 18  2  0
 18  1  1  0
 17  4  1  0
 14  9  1  0
  1 19  1  0
  2 20  1  0
  3 21  1  0
  7 22  1  0
  7 23  1  0
  8 24  1  0
  8 25  1  0
 10 26  1  0
 10 27  1  0
 11 28  1  0
 11 29  1  0
 12 30  1  0
 12 31  1  0
 13 32  1  0
 13 33  1  0
 14 34  1  0
 14 35  1  0
 15 36  1  0
 16 37  1  0
 18 38  1  0
M  END
>  <smiles>  (41) 
c1ccc2c(=NCCN3CCCCC3)[nH][nH]c2c1

>  <score_type>  (41) 
oracle

>  <origin>  (41) 
adg

>  <m_score__min__energy>  (41) 
-7.7800000000000002

>  <m_primary>  (41) 
energy

$$$$
41:0
     RDKit          3D

 34 35  0  0  0  0  0  0  0  0999 V2000
   60.9990   27.9790   45.6040 C   0  0  0  0  0  0  0  0  0  0  0  0
   59.5980   27.9590   45.0740 C   0  0  0  0  0  0  0  0  0  0  0  0
   59.3090   27.8660   43.7600 N   0  0  0  0  0  0  0  0  0  0  0  0
   57.9680   27.8800   43.6780 C   0  0  0  0  0  0  0  0  0  0  0  0
   57.4560   27.9840   44.9550 C   0  0  0  0  0  0  0  0  0  0  0  0
   56.0540   28.0020   45.2720 N   0  0  0  0  0  0  0  0  0  0  0  0
   55.5160   27.0720   45.9040 O   0  0  0  0  0  0  0  0  0  0  0  0
   55.2740   29.0490   44.8390 O   0  0  0  0  0  0  0  0  0  0  0  0
   58.4830   28.0490   45.8410 N   0  0  0  0  0  0  0  0  0  0  0  0
   58.4340   28.1250   47.3060 C   0  0  0  0  0  0  0  0  0  0  0  0
   58.9490   29.4780   47.7870 C   0  0  0  0  0  0  0  0  0  0  0  0
   59.3190   30.2720   46.6640 O   0  0  0  0  0  0  0  0  0  0  0  0
   58.4730   31.2350   46.1050 C   0  0  0  0  0  0  0  0  0  0  0  0
   57.3670   30.8880   45.6040 O   0  0  0  0  0  0  0  0  0  0  0  0
   58.8770   32.6580   46.1010 C   0  0  0  0  0  0  0  0  0  0  0  0
   59.5440   33.2100   47.2110 C   0  0  0  0  0  0  0  0  0  0  0  0
   59.9270   34.5550   47.2090 C   0  0  0  0  0  0  0  0  0  0  0  0
   59.6490   35.3610   46.1030 C   0  0  0  0  0  0  0  0  0  0  0  0
   58.9890   34.8240   44.9960 C   0  0  0  0  0  0  0  0  0  0  0  0
   58.6030   33.4800   44.9910 C   0  0  0  0  0  0  0  0  0  0  0  0
   60.9750   27.9787   46.7037 H   0  0  0  0  0  0  0  0  0  0  0  0
   61.5382   27.0885   45.2487 H   0  0  0  0  0  0  0  0  0  0  0  0
   61.5125   28.8846   45.2487 H   0  0  0  0  0  0  0  0  0  0  0  0
   59.9840   27.7920   42.9670 H   0  0  0  0  0  0  0  0  0  0  0  0
   57.3789   27.8190   42.7511 H   0  0  0  0  0  0  0  0  0  0  0  0
   57.3946   27.9931   47.6410 H   0  0  0  0  0  0  0  0  0  0  0  0
   59.0704   27.3319   47.7254 H   0  0  0  0  0  0  0  0  0  0  0  0
   58.1581   29.9908   48.3540 H   0  0  0  0  0  0  0  0  0  0  0  0
   59.8256   29.3275   48.4343 H   0  0  0  0  0  0  0  0  0  0  0  0
   59.7652   32.5797   48.0850 H   0  0  0  0  0  0  0  0  0  0  0  0
   60.4481   34.9788   48.0801 H   0  0  0  0  0  0  0  0  0  0  0  0
   59.9500   36.4190   46.1040 H   0  0  0  0  0  0  0  0  0  0  0  0
   58.7720   35.4601   44.1252 H   0  0  0  0  0  0  0  0  0  0  0  0
   58.0830   33.0630   44.1160 H   0  0  0  0  0  0  0  0  0  0  0  0
  1  2  1  0
  2  3  2  0
  3  4  1  0
  4  5  2  0
  5  6  1  0
  6  7  2  0
  6  8  1  0
  5  9  1  0
  9 10  1  0
 10 11  1  0
 11 12  1  0
 12 13  1  0
 13 14  2  0
 13 15  1  0
 15 16  2  0
 16 17  1  0
 17 18  2  0
 18 19  1  0
 19 20  2  0
  9  2  1  0
 20 15  1  0
  1 21  1  0
  1 22  1  0
  1 23  1  0
  3 24  1  0
  4 25  1  0
 10 26  1  0
 10 27  1  0
 11 28  1  0
 11 29  1  0
 16 30  1  0
 17 31  1  0
 18 32  1  0
 19 33  1  0
 20 34  1  0
M  CHG  3   3   1   6   1   8  -1
M  END
>  <UniqueID>  (42) 
37

>  <SMILES>  (42) 
Cc1[nH+]cc([N+](=O)[O-])n1CCOC(=O)c1ccccc1

>  <Energy>  (42) 
62.090901079246756

>  <Genealogy>  (42) 
Cc1[nH+]cc([N+](=O)[O-])n1CCOC(=O)c1ccccc1 (protonated)
Cc1[nH+]cc([N+](=O)[O-])n1CCOC(=O)c1ccccc1 (3D coordinates assigned)
Cc1[nH+]cc([N+](=O)[O-])n1CCOC(=O)c1ccccc1 (optimized conformer: 62.090901079246756 kcal/mol)

>  <smiles>  (42) 
Cc1ncc([N+](=O)[O-])n1CCOC(=O)c1ccccc1

>  <score_type>  (42) 
oracle

>  <origin>  (42) 
adg

>  <m_score__min__energy>  (42) 
-6.7999999999999998

>  <m_primary>  (42) 
energy

$$$$
42:0
     RDKit          3D

 24 25  0  0  0  0  0  0  0  0999 V2000
   50.2430   33.0850   52.0050 O   0  0  0  0  0  0  0  0  0  0  0  0
   51.2480   32.1380   52.1500 C   0  0  0  0  0  0  0  0  0  0  0  0
   52.0250   31.7650   51.0470 C   0  0  0  0  0  0  0  0  0  0  0  0
   53.0370   30.8110   51.1930 C   0  0  0  0  0  0  0  0  0  0  0  0
   53.2720   30.2230   52.4430 C   0  0  0  0  0  0  0  0  0  0  0  0
   54.5670   28.9970   52.6310 S   0  0  0  0  0  0  0  0  0  0  0  0
   55.8590   30.2380   52.7430 C   0  0  0  0  0  0  0  0  0  0  0  0
   56.1510   31.0400   51.6330 C   0  0  0  0  0  0  0  0  0  0  0  0
   57.1520   32.0120   51.7130 C   0  0  0  0  0  0  0  0  0  0  0  0
   57.8710   32.1850   52.9000 C   0  0  0  0  0  0  0  0  0  0  0  0
   58.8660   33.1580   52.9670 O   0  0  0  0  0  0  0  0  0  0  0  0
   57.5840   31.3790   54.0110 C   0  0  0  0  0  0  0  0  0  0  0  0
   56.5820   30.4060   53.9340 C   0  0  0  0  0  0  0  0  0  0  0  0
   56.3180   29.6310   55.0140 F   0  0  0  0  0  0  0  0  0  0  0  0
   52.4980   30.6020   53.5480 C   0  0  0  0  0  0  0  0  0  0  0  0
   51.4870   31.5560   53.4010 C   0  0  0  0  0  0  0  0  0  0  0  0
   51.8393   32.2229   50.0642 H   0  0  0  0  0  0  0  0  0  0  0  0
   53.6490   30.5220   50.3259 H   0  0  0  0  0  0  0  0  0  0  0  0
   55.5912   30.9047   50.6958 H   0  0  0  0  0  0  0  0  0  0  0  0
   57.3750   32.6428   50.8398 H   0  0  0  0  0  0  0  0  0  0  0  0
   59.6100   33.1090   53.6530 H   0  0  0  0  0  0  0  0  0  0  0  0
   58.1484   31.5123   54.9457 H   0  0  0  0  0  0  0  0  0  0  0  0
   52.6863   30.1482   54.5322 H   0  0  0  0  0  0  0  0  0  0  0  0
   50.8785   31.8499   54.2690 H   0  0  0  0  0  0  0  0  0  0  0  0
  1  2  1  0
  2  3  2  0
  3  4  1  0
  4  5  2  0
  5  6  1  0
  6  7  1  0
  7  8  2  0
  8  9  1  0
  9 10  2  0
 10 11  1  0
 10 12  1  0
 12 13  2  0
 13 14  1  0
  5 15  1  0
 15 16  2  0
 16  2  1  0
 13  7  1  0
  3 17  1  0
  4 18  1  0
  8 19  1  0
  9 20  1  0
 11 21  1  0
 12 22  1  0
 15 23  1  0
 16 24  1  0
M  CHG  1   1  -1
M  END
>  <UniqueID>  (43) 
38

>  <SMILES>  (43) 
[O-]c1ccc(Sc2ccc(O)cc2F)cc1

>  <Energy>  (43) 
20.26685141631374

>  <Genealogy>  (43) 
[O-]c1ccc(Sc2ccc(O)cc2F)cc1 (protonated)
[O-]c1ccc(Sc2ccc(O)cc2F)cc1 (3D coordinates assigned)
[O-]c1ccc(Sc2ccc(O)cc2F)cc1 (optimized conformer: 20.26685141631374 kcal/mol)

>  <smiles>  (43) 
Oc1ccc(Sc2ccc(O)cc2F)cc1

>  <score_type>  (43) 
oracle

>  <origin>  (43) 
adg

>  <m_score__min__energy>  (43) 
-9.1199999999999992

>  <m_primary>  (43) 
energy

$$$$
43:0
     RDKit          3D

 54 56  0  0  0  0  0  0  0  0999 V2000
   57.0100   28.7230   45.4660 C   0  0  0  0  0  0  0  0  0  0  0  0
   56.3760   29.9350   45.0690 O   0  0  0  0  0  0  0  0  0  0  0  0
   56.9130   30.8500   44.1480 C   0  0  0  0  0  0  0  0  0  0  0  0
   56.7820   30.6710   42.7570 C   0  0  0  0  0  0  0  0  0  0  0  0
   57.3370   31.5950   41.8690 C   0  0  0  0  0  0  0  0  0  0  0  0
   58.0300   32.7030   42.3540 C   0  0  0  0  0  0  0  0  0  0  0  0
   58.1680   32.8950   43.7300 C   0  0  0  0  0  0  0  0  0  0  0  0
   57.6090   31.9770   44.6350 C   0  0  0  0  0  0  0  0  0  0  0  0
   57.7920   32.1810   46.1190 C   0  0  0  0  0  0  0  0  0  0  0  0
   59.2010   31.9780   46.5210 N   0  0  0  0  0  0  0  0  0  0  0  0
   59.3320   30.8240   47.4440 C   0  0  0  0  0  0  0  0  0  0  0  0
   60.7650   30.6250   48.0020 C   0  0  0  0  0  0  0  0  0  0  0  0
   61.7340   31.5570   47.4340 N   0  0  0  0  0  0  0  0  0  0  0  0
   61.3510   32.8800   47.0740 C   0  0  0  0  0  0  0  0  0  0  0  0
   62.2260   33.7400   46.7930 O   0  0  0  0  0  0  0  0  0  0  0  0
   59.8920   33.2050   46.9930 C   0  0  2  0  0  0  0  0  0  0  0  0
   59.3580   33.7430   48.3460 C   0  0  0  0  0  0  0  0  0  0  0  0
   60.4830   33.9800   49.3250 C   0  0  0  0  0  0  0  0  0  0  0  0
   61.2940   34.9130   49.0750 O   0  0  0  0  0  0  0  0  0  0  0  0
   60.6830   33.1540   50.4970 N   0  0  0  0  0  0  0  0  0  0  0  0
   59.8650   31.9560   50.7270 C   0  0  0  0  0  0  0  0  0  0  0  0
   61.7360   33.5020   51.4600 C   0  0  0  0  0  0  0  0  0  0  0  0
   63.0890   33.2500   50.8560 C   0  0  0  0  0  0  0  0  0  0  0  0
   64.2240   33.1970   51.6780 C   0  0  0  0  0  0  0  0  0  0  0  0
   65.4700   32.9140   51.1130 C   0  0  0  0  0  0  0  0  0  0  0  0
   65.5710   32.6800   49.7430 C   0  0  0  0  0  0  0  0  0  0  0  0
   64.4220   32.7300   48.9530 C   0  0  0  0  0  0  0  0  0  0  0  0
   63.2140   33.0080   49.5170 N   0  0  0  0  0  0  0  0  0  0  0  0
   57.0392   28.6671   46.5642 H   0  0  0  0  0  0  0  0  0  0  0  0
   56.4444   27.8666   45.0702 H   0  0  0  0  0  0  0  0  0  0  0  0
   58.0361   28.6992   45.0702 H   0  0  0  0  0  0  0  0  0  0  0  0
   56.2388   29.7974   42.3675 H   0  0  0  0  0  0  0  0  0  0  0  0
   57.2270   31.4481   40.7844 H   0  0  0  0  0  0  0  0  0  0  0  0
   58.4687   33.4270   41.6517 H   0  0  0  0  0  0  0  0  0  0  0  0
   58.7174   33.7699   44.1077 H   0  0  0  0  0  0  0  0  0  0  0  0
   57.4894   33.2060   46.3795 H   0  0  0  0  0  0  0  0  0  0  0  0
   57.1706   31.4444   46.6494 H   0  0  0  0  0  0  0  0  0  0  0  0
   58.6487   30.9794   48.2919 H   0  0  0  0  0  0  0  0  0  0  0  0
   59.0872   29.9220   46.8640 H   0  0  0  0  0  0  0  0  0  0  0  0
   60.7393   30.7677   49.0924 H   0  0  0  0  0  0  0  0  0  0  0  0
   61.0862   29.6094   47.7276 H   0  0  0  0  0  0  0  0  0  0  0  0
   59.6987   34.0203   46.2803 H   0  0  0  0  0  0  0  0  0  0  0  0
   58.8296   34.6918   48.1709 H   0  0  0  0  0  0  0  0  0  0  0  0
   58.6779   32.9919   48.7741 H   0  0  0  0  0  0  0  0  0  0  0  0
   59.7524   31.7910   51.8087 H   0  0  0  0  0  0  0  0  0  0  0  0
   58.8733   32.0963   50.2723 H   0  0  0  0  0  0  0  0  0  0  0  0
   60.3567   31.0834   50.2723 H   0  0  0  0  0  0  0  0  0  0  0  0
   61.6486   34.5656   51.7268 H   0  0  0  0  0  0  0  0  0  0  0  0
   61.6213   32.8807   52.3605 H   0  0  0  0  0  0  0  0  0  0  0  0
   64.1339   33.3769   52.7594 H   0  0  0  0  0  0  0  0  0  0  0  0
   66.3680   32.8760   51.7472 H   0  0  0  0  0  0  0  0  0  0  0  0
   66.5478   32.4579   49.2885 H   0  0  0  0  0  0  0  0  0  0  0  0
   64.4921   32.5443   47.8711 H   0  0  0  0  0  0  0  0  0  0  0  0
   62.3710   33.0330   48.9000 H   0  0  0  0  0  0  0  0  0  0  0  0
  1  2  1  0
  2  3  1  0
  3  4  2  0
  4  5  1  0
  5  6  2  0
  6  7  1  0
  7  8  2  0
  8  9  1  0
  9 10  1  0
 10 11  1  0
 11 12  1  0
 12 13  1  0
 13 14  1  0
 14 15  2  0
 14 16  1  0
 16 17  1  0
 17 18  1  0
 18 19  2  0
 18 20  1  0
 20 21  1  0
 20 22  1  0
 22 23  1  0
 23 24  2  0
 24 25  1  0
 25 26  2  0
 26 27  1  0
 27 28  2  0
  8  3  1  0
 16 10  1  0
 28 23  1  0
  1 29  1  0
  1 30  1  0
  1 31  1  0
  4 32  1  0
  5 33  1  0
  6 34  1  0
  7 35  1  0
  9 36  1  0
  9 37  1  0
 11 38  1  0
 11 39  1  0
 12 40  1  0
 12 41  1  0
 16 42  1  6
 17 43  1  0
 17 44  1  0
 21 45  1  0
 21 46  1  0
 21 47  1  0
 22 48  1  0
 22 49  1  0
 24 50  1  0
 25 51  1  0
 26 52  1  0
 27 53  1  0
 28 54  1  0
M  CHG  2  13  -1  28   1
M  END
>  <UniqueID>  (44) 
39

>  <SMILES>  (44) 
COc1ccccc1CN1CC[N-]C(=O)[C@@H]1CC(=O)N(C)Cc1cccc[nH+]1

>  <Energy>  (44) 
59.315182184424195

>  <Genealogy>  (44) 
COc1ccccc1CN1CC[N-]C(=O)C1CC(=O)N(C)Cc1cccc[nH+]1 (protonated)
COc1ccccc1CN1CC[N-]C(=O)[C@@H]1CC(=O)N(C)Cc1cccc[nH+]1 (chirality)
COc1ccccc1CN1CC[N-]C(=O)[C@@H]1CC(=O)N(C)Cc1cccc[nH+]1 (3D coordinates assigned)
COc1ccccc1CN1CC[N-]C(=O)[C@@H]1CC(=O)N(C)Cc1cccc[nH+]1 (nonaromatic ring conformer: 59.315182184424195 kcal/mol)

>  <smiles>  (44) 
COc1ccccc1CN1CCNC(=O)C1CC(=O)N(C)Cc1ccccn1

>  <score_type>  (44) 
oracle

>  <origin>  (44) 
adg

>  <m_score__min__energy>  (44) 
-6.3300000000000001

>  <m_primary>  (44) 
energy

$$$$
44:0
     RDKit          3D

 49 51  0  0  0  0  0  0  0  0999 V2000
   58.1180   26.8360   42.6150 C   0  0  0  0  0  0  0  0  0  0  0  0
   57.7230   28.0260   43.2880 O   0  0  0  0  0  0  0  0  0  0  0  0
   58.4730   28.6730   44.2820 C   0  0  0  0  0  0  0  0  0  0  0  0
   59.8210   28.3460   44.5020 C   0  0  0  0  0  0  0  0  0  0  0  0
   60.5640   29.0240   45.4620 C   0  0  0  0  0  0  0  0  0  0  0  0
   59.9830   30.0390   46.2300 C   0  0  0  0  0  0  0  0  0  0  0  0
   60.8320   30.7370   47.2790 C   0  0  0  0  0  0  0  0  0  0  0  0
   60.0960   30.9910   48.5360 N   0  0  0  0  0  0  0  0  0  0  0  0
   60.2070   29.9160   49.5410 C   0  0  0  0  0  0  0  0  0  0  0  0
   60.0060   28.5470   48.9570 C   0  0  0  0  0  0  0  0  0  0  0  0
   60.7680   27.4260   49.2040 C   0  0  0  0  0  0  0  0  0  0  0  0
   60.2660   26.4500   48.4900 O   0  0  0  0  0  0  0  0  0  0  0  0
   59.2440   26.9370   47.8200 C   0  0  0  0  0  0  0  0  0  0  0  0
   58.4080   26.1410   46.9020 C   0  0  0  0  0  0  0  0  0  0  0  0
   57.0470   26.4540   46.7360 C   0  0  0  0  0  0  0  0  0  0  0  0
   56.2530   25.7090   45.8580 C   0  0  0  0  0  0  0  0  0  0  0  0
   56.8090   24.6460   45.1400 C   0  0  0  0  0  0  0  0  0  0  0  0
   55.8100   23.7180   44.0370 Cl  0  0  0  0  0  0  0  0  0  0  0  0
   58.1610   24.3250   45.3020 C   0  0  0  0  0  0  0  0  0  0  0  0
   58.9580   25.0690   46.1760 C   0  0  0  0  0  0  0  0  0  0  0  0
   59.0420   28.2500   48.0660 N   0  0  0  0  0  0  0  0  0  0  0  0
   58.6310   30.3950   46.0210 C   0  0  0  0  0  0  0  0  0  0  0  0
   58.1040   31.4430   46.8050 O   0  0  0  0  0  0  0  0  0  0  0  0
   57.8450   32.7790   46.3850 C   0  0  0  0  0  0  0  0  0  0  0  0
   57.8660   29.6880   45.0550 C   0  0  0  0  0  0  0  0  0  0  0  0
   56.5170   30.0170   44.8600 O   0  0  0  0  0  0  0  0  0  0  0  0
   55.9030   30.1220   43.5770 C   0  0  0  0  0  0  0  0  0  0  0  0
   58.3743   26.0639   43.3554 H   0  0  0  0  0  0  0  0  0  0  0  0
   57.2901   26.4792   41.9847 H   0  0  0  0  0  0  0  0  0  0  0  0
   58.9949   27.0451   41.9847 H   0  0  0  0  0  0  0  0  0  0  0  0
   60.2926   27.5475   43.9104 H   0  0  0  0  0  0  0  0  0  0  0  0
   61.6201   28.7595   45.6194 H   0  0  0  0  0  0  0  0  0  0  0  0
   61.7034   30.1043   47.5037 H   0  0  0  0  0  0  0  0  0  0  0  0
   61.1309   31.7124   46.8675 H   0  0  0  0  0  0  0  0  0  0  0  0
   60.4420   31.8810   48.9640 H   0  0  0  0  0  0  0  0  0  0  0  0
   59.0850   31.1400   48.3050 H   0  0  0  0  0  0  0  0  0  0  0  0
   61.2085   29.9609   49.9938 H   0  0  0  0  0  0  0  0  0  0  0  0
   59.4135   30.0770   50.2856 H   0  0  0  0  0  0  0  0  0  0  0  0
   61.6365   27.3627   49.8760 H   0  0  0  0  0  0  0  0  0  0  0  0
   56.6047   27.2888   47.2994 H   0  0  0  0  0  0  0  0  0  0  0  0
   55.1894   25.9599   45.7322 H   0  0  0  0  0  0  0  0  0  0  0  0
   58.5973   23.4857   44.7405 H   0  0  0  0  0  0  0  0  0  0  0  0
   60.0214   24.8150   46.2970 H   0  0  0  0  0  0  0  0  0  0  0  0
   57.7201   33.4232   47.2678 H   0  0  0  0  0  0  0  0  0  0  0  0
   58.6892   33.1438   45.7814 H   0  0  0  0  0  0  0  0  0  0  0  0
   56.9257   32.8019   45.7814 H   0  0  0  0  0  0  0  0  0  0  0  0
   54.8256   30.3063   43.7001 H   0  0  0  0  0  0  0  0  0  0  0  0
   56.3563   30.9557   43.0207 H   0  0  0  0  0  0  0  0  0  0  0  0
   56.0536   29.1851   43.0207 H   0  0  0  0  0  0  0  0  0  0  0  0
  1  2  1  0
  2  3  1  0
  3  4  2  0
  4  5  1  0
  5  6  2  0
  6  7  1  0
  7  8  1  0
  8  9  1  0
  9 10  1  0
 10 11  2  0
 11 12  1  0
 12 13  1  0
 13 14  1  0
 14 15  2  0
 15 16  1  0
 16 17  2  0
 17 18  1  0
 17 19  1  0
 19 20  2  0
 13 21  2  0
  6 22  1  0
 22 23  1  0
 23 24  1  0
 22 25  2  0
 25 26  1  0
 26 27  1  0
 25  3  1  0
 21 10  1  0
 20 14  1  0
  1 28  1  0
  1 29  1  0
  1 30  1  0
  4 31  1  0
  5 32  1  0
  7 33  1  0
  7 34  1  0
  8 35  1  0
  8 36  1  0
  9 37  1  0
  9 38  1  0
 11 39  1  0
 15 40  1  0
 16 41  1  0
 19 42  1  0
 20 43  1  0
 24 44  1  0
 24 45  1  0
 24 46  1  0
 27 47  1  0
 27 48  1  0
 27 49  1  0
M  CHG  1   8   1
M  END
>  <UniqueID>  (45) 
40

>  <SMILES>  (45) 
COc1ccc(C[NH2+]Cc2coc(-c3ccc(Cl)cc3)n2)c(OC)c1OC

>  <Energy>  (45) 
86.40232045935574

>  <Genealogy>  (45) 
COc1ccc(C[NH2+]Cc2coc(-c3ccc(Cl)cc3)n2)c(OC)c1OC (protonated)
COc1ccc(C[NH2+]Cc2coc(-c3ccc(Cl)cc3)n2)c(OC)c1OC (3D coordinates assigned)
COc1ccc(C[NH2+]Cc2coc(-c3ccc(Cl)cc3)n2)c(OC)c1OC (optimized conformer: 86.40232045935574 kcal/mol)

>  <smiles>  (45) 
COc1ccc(CNCc2coc(-c3ccc(Cl)cc3)n2)c(OC)c1OC

>  <score_type>  (45) 
oracle

>  <origin>  (45) 
adg

>  <m_score__min__energy>  (45) 
-6.8700000000000001

>  <m_primary>  (45) 
energy

$$$$
45:0
     RDKit          3D

 25 27  0  0  0  0  0  0  0  0999 V2000
   56.2670   20.7780   43.2310 O   0  0  0  0  0  0  0  0  0  0  0  0
   56.3690   21.1140   44.4410 C   0  0  0  0  0  0  0  0  0  0  0  0
   56.1040   22.4990   44.8690 C   0  0  0  0  0  0  0  0  0  0  0  0
   54.9030   22.7960   45.5650 C   0  0  0  0  0  0  0  0  0  0  0  0
   54.6240   24.1100   45.9860 C   0  0  0  0  0  0  0  0  0  0  0  0
   55.5610   25.0950   45.6940 C   0  0  0  0  0  0  0  0  0  0  0  0
   55.5030   26.4000   45.9970 N   0  0  0  0  0  0  0  0  0  0  0  0
   56.6660   26.8830   45.4820 C   0  0  0  0  0  0  0  0  0  0  0  0
   57.0680   28.3110   45.5670 C   0  0  0  0  0  0  0  0  0  0  0  0
   58.2910   28.6560   46.1690 C   0  0  0  0  0  0  0  0  0  0  0  0
   58.6840   29.9920   46.2560 C   0  0  0  0  0  0  0  0  0  0  0  0
   57.8520   30.9840   45.7420 C   0  0  0  0  0  0  0  0  0  0  0  0
   56.6710   30.6460   45.1610 N   0  0  0  0  0  0  0  0  0  0  0  0
   56.2590   29.3540   45.0590 C   0  0  0  0  0  0  0  0  0  0  0  0
   55.1520   29.1100   44.5100 O   0  0  0  0  0  0  0  0  0  0  0  0
   57.4370   25.9370   44.8780 N   0  0  0  0  0  0  0  0  0  0  0  0
   56.7130   24.8200   45.0290 C   0  0  0  0  0  0  0  0  0  0  0  0
   57.0280   23.5350   44.5960 C   0  0  0  0  0  0  0  0  0  0  0  0
   56.6603   20.3622   45.1893 H   0  0  0  0  0  0  0  0  0  0  0  0
   54.1834   21.9916   45.7774 H   0  0  0  0  0  0  0  0  0  0  0  0
   53.6968   24.3493   46.5273 H   0  0  0  0  0  0  0  0  0  0  0  0
   58.9422   27.8674   46.5740 H   0  0  0  0  0  0  0  0  0  0  0  0
   59.6419   30.2594   46.7261 H   0  0  0  0  0  0  0  0  0  0  0  0
   58.1509   32.0406   45.8064 H   0  0  0  0  0  0  0  0  0  0  0  0
   57.9659   23.3315   44.0585 H   0  0  0  0  0  0  0  0  0  0  0  0
  1  2  2  0
  2  3  1  0
  3  4  2  0
  4  5  1  0
  5  6  2  0
  6  7  1  0
  7  8  1  0
  8  9  1  0
  9 10  2  0
 10 11  1  0
 11 12  2  0
 12 13  1  0
 13 14  1  0
 14 15  2  0
  8 16  2  0
 16 17  1  0
 17 18  2  0
 18  3  1  0
 17  6  1  0
 14  9  1  0
  2 19  1  0
  4 20  1  0
  5 21  1  0
 10 22  1  0
 11 23  1  0
 12 24  1  0
 18 25  1  0
M  CHG  2   7  -1  13  -1
M  END
>  <UniqueID>  (46) 
41

>  <SMILES>  (46) 
O=Cc1ccc2[n-]c(-c3ccc[n-]c3=O)nc2c1

>  <Energy>  (46) 
65.83732894761833

>  <Genealogy>  (46) 
O=Cc1ccc2[n-]c(-c3ccc[n-]c3=O)nc2c1 (protonated)
O=Cc1ccc2[n-]c(-c3ccc[n-]c3=O)nc2c1 (3D coordinates assigned)
O=Cc1ccc2[n-]c(-c3ccc[n-]c3=O)nc2c1 (optimized conformer: 65.83732894761833 kcal/mol)

>  <smiles>  (46) 
O=Cc1ccc2[nH]c(-c3ccc[nH]c3=O)nc2c1

>  <score_type>  (46) 
oracle

>  <origin>  (46) 
adg

>  <m_score__min__energy>  (46) 
-9.6899999999999995

>  <m_primary>  (46) 
energy

$$$$
46:0
     RDKit          3D

 47 50  0  0  0  0  0  0  0  0999 V2000
   58.5540   31.4740   49.7600 C   0  0  0  0  0  0  0  0  0  0  0  0
   57.9400   32.5820   49.1080 O   0  0  0  0  0  0  0  0  0  0  0  0
   58.3330   33.0900   47.8600 C   0  0  0  0  0  0  0  0  0  0  0  0
   57.8230   32.5780   46.6510 C   0  0  0  0  0  0  0  0  0  0  0  0
   58.2520   33.0950   45.4200 C   0  0  0  0  0  0  0  0  0  0  0  0
   57.7310   32.5260   44.1240 C   0  0  0  0  0  0  0  0  0  0  0  0
   58.4500   31.3010   43.7740 N   0  0  0  0  0  0  0  0  0  0  0  0
   58.2960   30.0450   44.4620 C   0  0  0  0  0  0  0  0  0  0  0  0
   59.4490   29.3930   44.9730 C   0  0  0  0  0  0  0  0  0  0  0  0
   59.3410   28.1730   45.6650 C   0  0  0  0  0  0  0  0  0  0  0  0
   58.0710   27.6290   45.8250 C   0  0  0  0  0  0  0  0  0  0  0  0
   57.7400   26.4870   46.4450 N   0  0  0  0  0  0  0  0  0  0  0  0
   56.3920   26.4620   46.2900 C   0  0  0  0  0  0  0  0  0  0  0  0
   55.6800   25.5280   46.7420 O   0  0  0  0  0  0  0  0  0  0  0  0
   55.8660   27.5150   45.6140 N   0  0  0  0  0  0  0  0  0  0  0  0
   56.9600   28.2400   45.3320 C   0  0  0  0  0  0  0  0  0  0  0  0
   57.0230   29.4460   44.6400 C   0  0  0  0  0  0  0  0  0  0  0  0
   59.1690   34.1530   45.4010 C   0  0  0  0  0  0  0  0  0  0  0  0
   59.6760   34.6700   46.5940 C   0  0  0  0  0  0  0  0  0  0  0  0
   59.2700   34.1340   47.8320 C   0  0  0  0  0  0  0  0  0  0  0  0
   59.7730   34.6090   49.0550 O   0  0  0  0  0  0  0  0  0  0  0  0
   60.8890   34.0620   49.7570 C   0  0  0  0  0  0  0  0  0  0  0  0
   61.8010   33.3210   48.8150 C   0  0  0  0  0  0  0  0  0  0  0  0
   61.5570   31.9710   48.5140 C   0  0  0  0  0  0  0  0  0  0  0  0
   62.4010   31.2790   47.6400 C   0  0  0  0  0  0  0  0  0  0  0  0
   63.4990   31.9280   47.0670 C   0  0  0  0  0  0  0  0  0  0  0  0
   63.7560   33.2670   47.3710 C   0  0  0  0  0  0  0  0  0  0  0  0
   62.9140   33.9620   48.2440 C   0  0  0  0  0  0  0  0  0  0  0  0
   58.4820   31.6040   50.8499 H   0  0  0  0  0  0  0  0  0  0  0  0
   58.0415   30.5459   49.4667 H   0  0  0  0  0  0  0  0  0  0  0  0
   59.6126   31.4166   49.4667 H   0  0  0  0  0  0  0  0  0  0  0  0
   57.0818   31.7655   46.6726 H   0  0  0  0  0  0  0  0  0  0  0  0
   56.6605   32.2981   44.2336 H   0  0  0  0  0  0  0  0  0  0  0  0
   57.8823   33.2668   43.3250 H   0  0  0  0  0  0  0  0  0  0  0  0
   59.1690   31.3690   43.0170 H   0  0  0  0  0  0  0  0  0  0  0  0
   60.4397   29.8478   44.8259 H   0  0  0  0  0  0  0  0  0  0  0  0
   60.2311   27.6663   46.0661 H   0  0  0  0  0  0  0  0  0  0  0  0
   56.1131   29.9200   44.2433 H   0  0  0  0  0  0  0  0  0  0  0  0
   59.4918   34.5793   44.4397 H   0  0  0  0  0  0  0  0  0  0  0  0
   60.3966   35.5006   46.5676 H   0  0  0  0  0  0  0  0  0  0  0  0
   61.4502   34.8786   50.2349 H   0  0  0  0  0  0  0  0  0  0  0  0
   60.5179   33.3577   50.5161 H   0  0  0  0  0  0  0  0  0  0  0  0
   60.6978   31.4556   48.9680 H   0  0  0  0  0  0  0  0  0  0  0  0
   62.2011   30.2236   47.4031 H   0  0  0  0  0  0  0  0  0  0  0  0
   64.1605   31.3841   46.3767 H   0  0  0  0  0  0  0  0  0  0  0  0
   64.6224   33.7753   46.9227 H   0  0  0  0  0  0  0  0  0  0  0  0
   63.1233   35.0147   48.4850 H   0  0  0  0  0  0  0  0  0  0  0  0
  1  2  1  0
  2  3  1  0
  3  4  2  0
  4  5  1  0
  5  6  1  0
  6  7  1  0
  7  8  1  0
  8  9  2  0
  9 10  1  0
 10 11  2  0
 11 12  1  0
 12 13  1  0
 13 14  2  0
 13 15  1  0
 15 16  1  0
 16 17  2  0
  5 18  2  0
 18 19  1  0
 19 20  2  0
 20 21  1  0
 21 22  1  0
 22 23  1  0
 23 24  2  0
 24 25  1  0
 25 26  2  0
 26 27  1  0
 27 28  2  0
 20  3  1  0
 28 23  1  0
 17  8  1  0
 16 11  1  0
  1 29  1  0
  1 30  1  0
  1 31  1  0
  4 32  1  0
  6 33  1  0
  6 34  1  0
  7 35  1  0
  9 36  1  0
 10 37  1  0
 17 38  1  0
 18 39  1  0
 19 40  1  0
 22 41  1  0
 22 42  1  0
 24 43  1  0
 25 44  1  0
 26 45  1  0
 27 46  1  0
 28 47  1  0
M  CHG  2  12  -1  15  -1
M  END
>  <UniqueID>  (47) 
42

>  <SMILES>  (47) 
COc1cc(CNc2ccc3[n-]c(=O)[n-]c3c2)ccc1OCc1ccccc1

>  <Energy>  (47) 
84.67848173389456

>  <Genealogy>  (47) 
COc1cc(CNc2ccc3[n-]c(=O)[n-]c3c2)ccc1OCc1ccccc1 (protonated)
COc1cc(CNc2ccc3[n-]c(=O)[n-]c3c2)ccc1OCc1ccccc1 (3D coordinates assigned)
COc1cc(CNc2ccc3[n-]c(=O)[n-]c3c2)ccc1OCc1ccccc1 (optimized conformer: 84.67848173389456 kcal/mol)

>  <smiles>  (47) 
COc1cc(CNc2ccc3[nH]c(=O)[nH]c3c2)ccc1OCc1ccccc1

>  <score_type>  (47) 
oracle

>  <origin>  (47) 
adg

>  <m_score__min__energy>  (47) 
-12.15

>  <m_primary>  (47) 
energy

$$$$
47:0
     RDKit          3D

 45 48  0  0  0  0  0  0  0  0999 V2000
   58.7952   34.5231   53.1625 H   0  0  0  0  0  0  0  0  0  0  0  0
   58.5310   34.0010   52.2310 C   0  0  0  0  0  0  0  0  0  0  0  0
   57.8002   34.5893   51.6568 H   0  0  0  0  0  0  0  0  0  0  0  0
   57.9550   32.7460   52.5490 O   0  0  0  0  0  0  0  0  0  0  0  0
   57.5040   32.1070   51.3680 C   0  0  0  0  0  0  0  0  0  0  0  0
   56.9835   31.1764   51.6383 H   0  0  0  0  0  0  0  0  0  0  0  0
   56.8223   32.7885   50.8380 H   0  0  0  0  0  0  0  0  0  0  0  0
   58.6790   31.7740   50.4440 C   0  0  0  0  0  0  0  0  0  0  0  0
   59.3053   30.9993   50.9105 H   0  0  0  0  0  0  0  0  0  0  0  0
   58.2974   31.4031   49.4813 H   0  0  0  0  0  0  0  0  0  0  0  0
   59.4780   32.9820   50.2230 N   0  0  0  0  0  0  0  0  0  0  0  0
   59.8700   33.3880   48.9030 C   0  0  0  0  0  0  0  0  0  0  0  0
   58.9120   33.8100   48.0360 N   0  0  0  0  0  0  0  0  0  0  0  0
   59.2160   34.1960   46.7730 C   0  0  0  0  0  0  0  0  0  0  0  0
   58.2630   34.5890   45.9800 N   0  0  0  0  0  0  0  0  0  0  0  0
   57.2400   33.7170   45.4060 C   0  0  0  0  0  0  0  0  0  0  0  0
   56.3368   33.7580   46.0325 H   0  0  0  0  0  0  0  0  0  0  0  0
   57.0113   34.0612   44.3866 H   0  0  0  0  0  0  0  0  0  0  0  0
   57.7410   32.2720   45.3390 C   0  0  1  0  0  0  0  0  0  0  0  0
   58.4669   32.3502   46.1618 H   0  0  0  0  0  0  0  0  0  0  0  0
   56.7260   31.3950   44.9130 O   0  0  0  0  0  0  0  0  0  0  0  0
   57.7770   31.6340   44.0040 C   0  0  0  0  0  0  0  0  0  0  0  0
   57.6016   32.2327   43.0980 H   0  0  0  0  0  0  0  0  0  0  0  0
   58.4934   31.0127   43.4465 H   0  0  0  0  0  0  0  0  0  0  0  0
   60.5090   34.1680   46.3530 N   0  0  0  0  0  0  0  0  0  0  0  0
   61.5130   33.7590   47.1720 C   0  0  0  0  0  0  0  0  0  0  0  0
   61.2220   33.3750   48.4950 C   0  0  0  0  0  0  0  0  0  0  0  0
   62.3200   32.9120   49.4230 C   0  0  0  0  0  0  0  0  0  0  0  0
   62.2541   31.8191   49.5294 H   0  0  0  0  0  0  0  0  0  0  0  0
   62.1790   33.4222   50.3873 H   0  0  0  0  0  0  0  0  0  0  0  0
   63.7220   33.2730   48.9050 C   0  0  0  0  0  0  0  0  0  0  0  0
   64.4645   32.6694   49.4476 H   0  0  0  0  0  0  0  0  0  0  0  0
   63.8732   34.3494   49.0741 H   0  0  0  0  0  0  0  0  0  0  0  0
   63.8740   33.0210   47.4560 N   0  0  1  0  0  0  0  0  0  0  0  0
   64.8440   33.3190   47.1930 H   0  0  0  0  0  0  0  0  0  0  0  0
   63.7580   31.5890   47.1170 C   0  0  0  0  0  0  0  0  0  0  0  0
   63.7100   30.9959   48.0422 H   0  0  0  0  0  0  0  0  0  0  0  0
   62.8436   31.4245   46.5281 H   0  0  0  0  0  0  0  0  0  0  0  0
   64.6340   31.2795   46.5281 H   0  0  0  0  0  0  0  0  0  0  0  0
   62.9320   33.8490   46.6720 C   0  0  0  0  0  0  0  0  0  0  0  0
   62.9569   33.5124   45.6251 H   0  0  0  0  0  0  0  0  0  0  0  0
   63.2512   34.8967   46.7738 H   0  0  0  0  0  0  0  0  0  0  0  0
   59.7930   33.8200   51.3810 C   0  0  0  0  0  0  0  0  0  0  0  0
   60.5758   33.3358   51.9833 H   0  0  0  0  0  0  0  0  0  0  0  0
   60.1522   34.8020   51.0394 H   0  0  0  0  0  0  0  0  0  0  0  0
  1  2  1  0
  2  3  1  0
  2  4  1  0
  4  5  1  0
  5  6  1  0
  5  7  1  0
  5  8  1  0
  8  9  1  0
  8 10  1  0
  8 11  1  0
 11 12  1  0
 12 13  2  0
 13 14  1  0
 14 15  2  0
 15 16  1  0
 16 17  1  0
 16 18  1  0
 16 19  1  0
 19 20  1  1
 19 21  1  0
 21 22  1  0
 22 23  1  0
 22 24  1  0
 14 25  1  0
 25 26  1  0
 26 27  2  0
 27 28  1  0
 28 29  1  0
 28 30  1  0
 28 31  1  0
 31 32  1  0
 31 33  1  0
 31 34  1  0
 34 35  1  6
 34 36  1  0
 36 37  1  0
 36 38  1  0
 36 39  1  0
 34 40  1  0
 40 41  1  0
 40 42  1  0
 11 43  1  0
 43 44  1  0
 43 45  1  0
 43  2  1  0
 27 12  1  0
 22 19  1  0
 40 26  1  0
M  CHG  2  25  -1  34   1
M  END
>  <UniqueID>  (48) 
43

>  <SMILES>  (48) 
C[N@@H+]1CCc2c(N3CCOCC3)n/c(=N/C[C@@H]3CO3)[n-]c2C1

>  <Energy>  (48) 
387.4651606738018

>  <Genealogy>  (48) 
C[NH+]1CCc2c(N3CCOCC3)nc(=NCC3CO3)[n-]c2C1 (protonated)
C[N@@H+]1CCc2c(N3CCOCC3)nc(=NC[C@@H]3CO3)[n-]c2C1 (chirality)
C[N@@H+]1CCc2c(N3CCOCC3)n/c(=N/C[C@@H]3CO3)[n-]c2C1 (cis-trans isomerization)
C[N@@H+]1CCc2c(N3CCOCC3)n/c(=N/C[C@@H]3CO3)[n-]c2C1 (3D coordinates assigned)
C[N@@H+]1CCc2c(N3CCOCC3)n/c(=N/C[C@@H]3CO3)[n-]c2C1 (nonaromatic ring conformer: 387.4651606738018 kcal/mol)

>  <smiles>  (48) 
CN1CCc2c(N3CCOCC3)nc(=NCC3CO3)[nH]c2C1

>  <score_type>  (48) 
oracle

>  <origin>  (48) 
adg

>  <m_score__min__energy>  (48) 
-6.7699999999999996

>  <m_primary>  (48) 
energy

$$$$
48:0
     RDKit          3D

 30 32  0  0  0  0  0  0  0  0999 V2000
   59.7304   35.0031   48.6172 H   0  0  0  0  0  0  0  0  0  0  0  0
   59.4770   34.5990   47.6260 C   0  0  0  0  0  0  0  0  0  0  0  0
   59.5230   35.3980   46.5290 N   0  0  0  0  0  0  0  0  0  0  0  0
   59.2260   34.9150   45.2950 C   0  0  0  0  0  0  0  0  0  0  0  0
   59.2588   35.5793   44.4189 H   0  0  0  0  0  0  0  0  0  0  0  0
   58.8770   33.5640   45.1430 C   0  0  0  0  0  0  0  0  0  0  0  0
   58.5170   33.0040   43.7890 C   0  0  0  0  0  0  0  0  0  0  0  0
   59.2924   33.2982   43.0664 H   0  0  0  0  0  0  0  0  0  0  0  0
   57.5334   33.4078   43.5071 H   0  0  0  0  0  0  0  0  0  0  0  0
   58.4160   31.5430   43.8040 N   0  0  0  0  0  0  0  0  0  0  0  0
   57.5440   30.6940   44.2920 C   0  0  0  0  0  0  0  0  0  0  0  0
   56.2120   30.9360   43.9300 C   0  0  0  0  0  0  0  0  0  0  0  0
   55.9518   31.8719   43.4139 H   0  0  0  0  0  0  0  0  0  0  0  0
   55.2150   30.0100   44.2140 C   0  0  0  0  0  0  0  0  0  0  0  0
   54.1760   30.2121   43.9146 H   0  0  0  0  0  0  0  0  0  0  0  0
   55.5210   28.8610   44.8580 N   0  0  0  0  0  0  0  0  0  0  0  0
   56.7790   28.5900   45.2870 C   0  0  0  0  0  0  0  0  0  0  0  0
   57.0080   27.3920   45.9760 C   0  0  0  0  0  0  0  0  0  0  0  0
   56.1887   26.6696   46.1058 H   0  0  0  0  0  0  0  0  0  0  0  0
   58.2680   27.1120   46.4970 C   0  0  0  0  0  0  0  0  0  0  0  0
   58.5470   25.6130   47.3660 Cl  0  0  0  0  0  0  0  0  0  0  0  0
   59.2960   28.0420   46.3650 C   0  0  0  0  0  0  0  0  0  0  0  0
   60.2824   27.8333   46.8049 H   0  0  0  0  0  0  0  0  0  0  0  0
   59.0810   29.2400   45.6760 C   0  0  0  0  0  0  0  0  0  0  0  0
   59.8941   29.9778   45.6089 H   0  0  0  0  0  0  0  0  0  0  0  0
   57.8370   29.5200   45.0640 C   0  0  0  0  0  0  0  0  0  0  0  0
   58.8030   32.7740   46.2530 N   0  0  0  0  0  0  0  0  0  0  0  0
   58.5160   31.7730   46.1680 H   0  0  0  0  0  0  0  0  0  0  0  0
   59.1060   33.2620   47.4860 C   0  0  0  0  0  0  0  0  0  0  0  0
   59.0587   32.6058   48.3676 H   0  0  0  0  0  0  0  0  0  0  0  0
  1  2  1  0
  2  3  2  0
  3  4  1  0
  4  5  1  0
  4  6  2  0
  6  7  1  0
  7  8  1  0
  7  9  1  0
  7 10  1  0
 10 11  2  0
 11 12  1  0
 12 13  1  0
 12 14  2  0
 14 15  1  0
 14 16  1  0
 16 17  1  0
 17 18  2  0
 18 19  1  0
 18 20  1  0
 20 21  1  0
 20 22  2  0
 22 23  1  0
 22 24  1  0
 24 25  1  0
 24 26  2  0
  6 27  1  0
 27 28  1  0
 27 29  2  0
 29 30  1  0
 29  2  1  0
 26 11  1  0
 26 17  1  0
M  CHG  2  16  -1  27   1
M  END
>  <UniqueID>  (49) 
44

>  <SMILES>  (49) 
Clc1ccc2/c(=N\Cc3cncc[nH+]3)cc[n-]c2c1

>  <Energy>  (49) 
53.56405745510036

>  <Genealogy>  (49) 
Clc1ccc2c(=NCc3cncc[nH+]3)cc[n-]c2c1 (protonated)
Clc1ccc2/c(=N\Cc3cncc[nH+]3)cc[n-]c2c1 (cis-trans isomerization)
Clc1ccc2/c(=N\Cc3cncc[nH+]3)cc[n-]c2c1 (3D coordinates assigned)
Clc1ccc2/c(=N\Cc3cncc[nH+]3)cc[n-]c2c1 (optimized conformer: 53.56405745510036 kcal/mol)

>  <smiles>  (49) 
Clc1ccc2c(=NCc3cnccn3)cc[nH]c2c1

>  <score_type>  (49) 
oracle

>  <origin>  (49) 
adg

>  <m_score__min__energy>  (49) 
-6.8200000000000003

>  <m_primary>  (49) 
energy

$$$$
