0:0
     RDKit          3D

 35 37  0  0  0  0  0  0  0  0999 V2000
   56.3930   29.7260   43.3720 C   0  0  0  0  0  0  0  0  0  0  0  0
   56.5200   30.1180   44.7340 O   0  0  0  0  0  0  0  0  0  0  0  0
   57.3970   31.1140   45.1930 C   0  0  0  0  0  0  0  0  0  0  0  0
   57.1140   32.4450   44.8760 C   0  0  0  0  0  0  0  0  0  0  0  0
   57.9560   33.4740   45.3080 C   0  0  0  0  0  0  0  0  0  0  0  0
   59.1030   33.1890   46.0730 C   0  0  0  0  0  0  0  0  0  0  0  0
   59.9700   34.2600   46.5130 N   0  0  0  0  0  0  0  0  0  0  0  0
   59.6990   35.6550   46.1540 C   0  0  0  0  0  0  0  0  0  0  0  0
   61.2410   33.9470   47.1040 C   0  0  0  0  0  0  0  0  0  0  0  0
   62.3340   33.8350   46.3010 N   0  0  0  0  0  0  0  0  0  0  0  0
   63.5600   33.5460   46.8070 C   0  0  0  0  0  0  0  0  0  0  0  0
   63.7190   33.3580   48.1430 N   0  0  0  0  0  0  0  0  0  0  0  0
   62.6640   33.4480   48.9930 C   0  0  0  0  0  0  0  0  0  0  0  0
   62.8500   33.2380   50.3640 C   0  0  0  0  0  0  0  0  0  0  0  0
   61.7620   33.3080   51.2380 C   0  0  0  0  0  0  0  0  0  0  0  0
   60.4820   33.5840   50.7460 C   0  0  0  0  0  0  0  0  0  0  0  0
   58.9980   33.6650   51.9450 Br  0  0  0  0  0  0  0  0  0  0  0  0
   60.2860   33.7980   49.3770 C   0  0  0  0  0  0  0  0  0  0  0  0
   61.3770   33.7420   48.4910 C   0  0  0  0  0  0  0  0  0  0  0  0
   59.3850   31.8460   46.3890 C   0  0  0  0  0  0  0  0  0  0  0  0
   58.5420   30.8190   45.9550 C   0  0  0  0  0  0  0  0  0  0  0  0
   56.0543   28.6807   43.3214 H   0  0  0  0  0  0  0  0  0  0  0  0
   55.6588   30.3740   42.8709 H   0  0  0  0  0  0  0  0  0  0  0  0
   57.3677   29.8203   42.8709 H   0  0  0  0  0  0  0  0  0  0  0  0
   56.2205   32.6854   44.2811 H   0  0  0  0  0  0  0  0  0  0  0  0
   57.7201   34.5164   45.0477 H   0  0  0  0  0  0  0  0  0  0  0  0
   59.5828   36.2533   47.0697 H   0  0  0  0  0  0  0  0  0  0  0  0
   60.5371   36.0506   45.5614 H   0  0  0  0  0  0  0  0  0  0  0  0
   58.7738   35.7080   45.5614 H   0  0  0  0  0  0  0  0  0  0  0  0
   64.4263   33.4639   46.1341 H   0  0  0  0  0  0  0  0  0  0  0  0
   63.8545   33.0174   50.7543 H   0  0  0  0  0  0  0  0  0  0  0  0
   61.9124   33.1457   52.3155 H   0  0  0  0  0  0  0  0  0  0  0  0
   59.2772   34.0103   48.9932 H   0  0  0  0  0  0  0  0  0  0  0  0
   60.2779   31.6026   46.9835 H   0  0  0  0  0  0  0  0  0  0  0  0
   58.7751   29.7748   46.2106 H   0  0  0  0  0  0  0  0  0  0  0  0
  1  2  1  0
  2  3  1  0
  3  4  2  0
  4  5  1  0
  5  6  2  0
  6  7  1  0
  7  8  1  0
  7  9  1  0
  9 10  2  0
 10 11  1  0
 11 12  2  0
 12 13  1  0
 13 14  2  0
 14 15  1  0
 15 16  2  0
 16 17  1  0
 16 18  1  0
 18 19  2  0
  6 20  1  0
 20 21  2  0
 21  3  1  0
 19  9  1  0
 19 13  1  0
  1 22  1  0
  1 23  1  0
  1 24  1  0
  4 25  1  0
  5 26  1  0
  8 27  1  0
  8 28  1  0
  8 29  1  0
 11 30  1  0
 14 31  1  0
 15 32  1  0
 18 33  1  0
 20 34  1  0
 21 35  1  0
M  END
>  <UniqueID>  (1) 
1

>  <SMILES>  (1) 
COc1ccc(N(C)c2ncnc3ccc(Br)cc23)cc1

>  <Energy>  (1) 
50.26716547327758

>  <Genealogy>  (1) 
COc1ccc(N(C)c2ncnc3ccc(Br)cc23)cc1 (3D coordinates assigned)
COc1ccc(N(C)c2ncnc3ccc(Br)cc23)cc1 (optimized conformer: 50.26716547327758 kcal/mol)

>  <smiles>  (1) 
COc1ccc(N(C)c2ncnc3ccc(Br)cc23)cc1

>  <score_type>  (1) 
oracle

>  <origin>  (1) 
adg

>  <m_score__min__energy>  (1) 
-7.1600000000000001

>  <m_primary>  (1) 
energy

$$$$
1:0
     RDKit          3D

 40 42  0  0  0  0  0  0  0  0999 V2000
   58.1690   27.2320   45.0010 O   0  0  0  0  0  0  0  0  0  0  0  0
   57.1040   27.9040   45.0670 C   0  0  0  0  0  0  0  0  0  0  0  0
   55.9180   27.3240   45.6200 N   0  0  0  0  0  0  0  0  0  0  0  0
   55.9000   26.0580   46.3440 C   0  0  0  0  0  0  0  0  0  0  0  0
   56.2990   24.9310   45.4330 C   0  0  0  0  0  0  0  0  0  0  0  0
   56.2540   23.6080   45.8950 C   0  0  0  0  0  0  0  0  0  0  0  0
   56.6020   22.5660   45.0340 C   0  0  0  0  0  0  0  0  0  0  0  0
   56.9870   22.8490   43.7230 C   0  0  0  0  0  0  0  0  0  0  0  0
   57.0150   24.1760   43.2910 C   0  0  0  0  0  0  0  0  0  0  0  0
   56.6740   25.1830   44.1420 N   0  0  0  0  0  0  0  0  0  0  0  0
   57.0880   29.2890   44.5750 C   0  0  0  0  0  0  0  0  0  0  0  0
   57.0080   29.6220   43.2240 C   0  0  0  0  0  0  0  0  0  0  0  0
   57.0290   31.2980   43.1060 S   0  0  0  0  0  0  0  0  0  0  0  0
   57.1270   31.5310   44.7720 C   0  0  0  0  0  0  0  0  0  0  0  0
   57.2240   32.8630   45.4680 C   0  0  0  0  0  0  0  0  0  0  0  0
   57.7320   33.9740   44.5110 C   0  0  0  0  0  0  0  0  0  0  0  0
   59.2200   34.2850   44.7150 C   0  0  0  0  0  0  0  0  0  0  0  0
   59.5140   34.7470   46.1570 C   0  0  0  0  0  0  0  0  0  0  0  0
   58.5920   34.1000   47.2120 C   0  0  0  0  0  0  0  0  0  0  0  0
   58.0760   32.7330   46.7540 C   0  0  0  0  0  0  0  0  0  0  0  0
   57.1580   30.3500   45.4260 N   0  0  0  0  0  0  0  0  0  0  0  0
   56.6058   26.1113   47.1860 H   0  0  0  0  0  0  0  0  0  0  0  0
   54.8818   25.8734   46.7172 H   0  0  0  0  0  0  0  0  0  0  0  0
   55.9465   23.3927   46.9290 H   0  0  0  0  0  0  0  0  0  0  0  0
   56.5728   21.5249   45.3879 H   0  0  0  0  0  0  0  0  0  0  0  0
   57.2654   22.0351   43.0374 H   0  0  0  0  0  0  0  0  0  0  0  0
   57.3139   24.4094   42.2584 H   0  0  0  0  0  0  0  0  0  0  0  0
   56.7000   26.1650   43.7890 H   0  0  0  0  0  0  0  0  0  0  0  0
   56.9428   28.9139   42.3847 H   0  0  0  0  0  0  0  0  0  0  0  0
   56.2154   33.1761   45.7757 H   0  0  0  0  0  0  0  0  0  0  0  0
   57.5791   33.6434   43.4730 H   0  0  0  0  0  0  0  0  0  0  0  0
   57.1644   34.8906   44.7294 H   0  0  0  0  0  0  0  0  0  0  0  0
   59.8058   33.3780   44.5049 H   0  0  0  0  0  0  0  0  0  0  0  0
   59.4968   35.1005   44.0306 H   0  0  0  0  0  0  0  0  0  0  0  0
   60.5553   34.4887   46.3997 H   0  0  0  0  0  0  0  0  0  0  0  0
   59.3336   35.8315   46.1919 H   0  0  0  0  0  0  0  0  0  0  0  0
   59.1561   33.9725   48.1477 H   0  0  0  0  0  0  0  0  0  0  0  0
   57.7251   34.7608   47.3601 H   0  0  0  0  0  0  0  0  0  0  0  0
   58.9335   32.0742   46.5521 H   0  0  0  0  0  0  0  0  0  0  0  0
   57.4452   32.3120   47.5508 H   0  0  0  0  0  0  0  0  0  0  0  0
  1  2  2  0
  2  3  1  0
  3  4  1  0
  4  5  1  0
  5  6  2  0
  6  7  1  0
  7  8  2  0
  8  9  1  0
  9 10  2  0
  2 11  1  0
 11 12  2  0
 12 13  1  0
 13 14  1  0
 14 15  1  0
 15 16  1  0
 16 17  1  0
 17 18  1  0
 18 19  1  0
 19 20  1  0
 14 21  2  0
 10  5  1  0
 21 11  1  0
 20 15  1  0
  4 22  1  0
  4 23  1  0
  6 24  1  0
  7 25  1  0
  8 26  1  0
  9 27  1  0
 10 28  1  0
 12 29  1  0
 15 30  1  0
 16 31  1  0
 16 32  1  0
 17 33  1  0
 17 34  1  0
 18 35  1  0
 18 36  1  0
 19 37  1  0
 19 38  1  0
 20 39  1  0
 20 40  1  0
M  CHG  2   3  -1  10   1
M  END
>  <UniqueID>  (2) 
2

>  <SMILES>  (2) 
O=C([N-]Cc1cccc[nH+]1)c1csc(C2CCCCC2)n1

>  <Energy>  (2) 
68.43275958342056

>  <Genealogy>  (2) 
O=C([N-]Cc1cccc[nH+]1)c1csc(C2CCCCC2)n1 (protonated)
O=C([N-]Cc1cccc[nH+]1)c1csc(C2CCCCC2)n1 (3D coordinates assigned)
O=C([N-]Cc1cccc[nH+]1)c1csc(C2CCCCC2)n1 (nonaromatic ring conformer: 68.43275958342056 kcal/mol)

>  <smiles>  (2) 
O=C(NCc1ccccn1)c1csc(C2CCCCC2)n1

>  <score_type>  (2) 
oracle

>  <origin>  (2) 
adg

>  <m_score__min__energy>  (2) 
-8.5099999999999998

>  <m_primary>  (2) 
energy

$$$$
2:0
     RDKit          3D

 55 57  0  0  0  0  0  0  0  0999 V2000
   56.5240   30.2610   43.6250 C   0  0  0  0  0  0  0  0  0  0  0  0
   56.4670   31.0510   44.8050 O   0  0  0  0  0  0  0  0  0  0  0  0
   57.4160   32.0190   45.1690 C   0  0  0  0  0  0  0  0  0  0  0  0
   57.1640   33.3960   45.0120 C   0  0  0  0  0  0  0  0  0  0  0  0
   58.1390   34.3370   45.3490 C   0  0  0  0  0  0  0  0  0  0  0  0
   59.3730   33.9200   45.8460 C   0  0  0  0  0  0  0  0  0  0  0  0
   59.6340   32.5590   46.0140 C   0  0  0  0  0  0  0  0  0  0  0  0
   58.6610   31.5980   45.6870 C   0  0  0  0  0  0  0  0  0  0  0  0
   58.9410   30.1980   45.8900 N   0  0  0  0  0  0  0  0  0  0  0  0
   59.5420   29.4020   44.8120 C   0  0  0  0  0  0  0  0  0  0  0  0
   59.1690   27.9260   44.9690 C   0  0  0  0  0  0  0  0  0  0  0  0
   59.5910   27.3980   46.2860 N   0  0  0  0  0  0  0  0  0  0  0  0
   59.0150   26.0560   46.5170 C   0  0  0  0  0  0  0  0  0  0  0  0
   57.6060   26.1730   47.1050 C   0  0  0  0  0  0  0  0  0  0  0  0
   56.7050   25.2290   46.4460 N   0  0  0  0  0  0  0  0  0  0  0  0
   55.4650   25.4630   45.9880 C   0  0  0  0  0  0  0  0  0  0  0  0
   54.8370   26.7050   46.0020 O   0  0  0  0  0  0  0  0  0  0  0  0
   54.9310   24.2850   45.5140 C   0  0  0  0  0  0  0  0  0  0  0  0
   53.5860   24.1080   44.8730 C   0  0  0  0  0  0  0  0  0  0  0  0
   52.7440   23.0360   45.5940 C   0  0  0  0  0  0  0  0  0  0  0  0
   53.2240   22.8160   47.0360 C   0  0  0  0  0  0  0  0  0  0  0  0
   51.2630   23.4340   45.5880 C   0  0  0  0  0  0  0  0  0  0  0  0
   55.8310   23.2900   45.6750 N   0  0  0  0  0  0  0  0  0  0  0  0
   56.8860   23.9050   46.2520 C   0  0  0  0  0  0  0  0  0  0  0  0
   57.9370   23.2920   46.5830 O   0  0  0  0  0  0  0  0  0  0  0  0
   59.3470   28.3230   47.4300 C   0  0  0  0  0  0  0  0  0  0  0  0
   58.4380   29.5120   47.0850 C   0  0  0  0  0  0  0  0  0  0  0  0
   56.6007   29.1983   43.8986 H   0  0  0  0  0  0  0  0  0  0  0  0
   55.6119   30.4220   43.0316 H   0  0  0  0  0  0  0  0  0  0  0  0
   57.4035   30.5512   43.0316 H   0  0  0  0  0  0  0  0  0  0  0  0
   56.1923   33.7323   44.6212 H   0  0  0  0  0  0  0  0  0  0  0  0
   57.9329   35.4100   45.2220 H   0  0  0  0  0  0  0  0  0  0  0  0
   60.1410   34.6635   46.1058 H   0  0  0  0  0  0  0  0  0  0  0  0
   60.6096   32.2354   46.4057 H   0  0  0  0  0  0  0  0  0  0  0  0
   59.1737   29.7680   43.8423 H   0  0  0  0  0  0  0  0  0  0  0  0
   60.6364   29.5013   44.8618 H   0  0  0  0  0  0  0  0  0  0  0  0
   58.0781   27.8208   44.8744 H   0  0  0  0  0  0  0  0  0  0  0  0
   59.6865   27.3535   44.1852 H   0  0  0  0  0  0  0  0  0  0  0  0
   58.9648   25.5138   45.5612 H   0  0  0  0  0  0  0  0  0  0  0  0
   59.6538   25.5114   47.2278 H   0  0  0  0  0  0  0  0  0  0  0  0
   57.6417   25.9503   48.1816 H   0  0  0  0  0  0  0  0  0  0  0  0
   57.2339   27.1958   46.9457 H   0  0  0  0  0  0  0  0  0  0  0  0
   53.0468   25.0662   44.9066 H   0  0  0  0  0  0  0  0  0  0  0  0
   53.7428   23.7784   43.8353 H   0  0  0  0  0  0  0  0  0  0  0  0
   52.8690   22.0891   45.0484 H   0  0  0  0  0  0  0  0  0  0  0  0
   52.4533   23.1692   47.7369 H   0  0  0  0  0  0  0  0  0  0  0  0
   53.4070   21.7441   47.2020 H   0  0  0  0  0  0  0  0  0  0  0  0
   54.1555   23.3771   47.2020 H   0  0  0  0  0  0  0  0  0  0  0  0
   50.9050   23.5302   46.6236 H   0  0  0  0  0  0  0  0  0  0  0  0
   51.1440   24.3960   45.0680 H   0  0  0  0  0  0  0  0  0  0  0  0
   50.6778   22.6613   45.0680 H   0  0  0  0  0  0  0  0  0  0  0  0
   58.8761   27.7514   48.2434 H   0  0  0  0  0  0  0  0  0  0  0  0
   60.3234   28.7400   47.7177 H   0  0  0  0  0  0  0  0  0  0  0  0
   57.4181   29.1472   46.8934 H   0  0  0  0  0  0  0  0  0  0  0  0
   58.4297   30.2170   47.9293 H   0  0  0  0  0  0  0  0  0  0  0  0
  1  2  1  0
  2  3  1  0
  3  4  2  0
  4  5  1  0
  5  6  2  0
  6  7  1  0
  7  8  2  0
  8  9  1  0
  9 10  1  0
 10 11  1  0
 11 12  1  0
 12 13  1  0
 13 14  1  0
 14 15  1  0
 15 16  1  0
 16 17  1  0
 16 18  2  0
 18 19  1  0
 19 20  1  0
 20 21  1  0
 20 22  1  0
 18 23  1  0
 23 24  1  0
 24 25  2  0
 12 26  1  0
 26 27  1  0
  8  3  1  0
 27  9  1  0
 24 15  1  0
  1 28  1  0
  1 29  1  0
  1 30  1  0
  4 31  1  0
  5 32  1  0
  6 33  1  0
  7 34  1  0
 10 35  1  0
 10 36  1  0
 11 37  1  0
 11 38  1  0
 13 39  1  0
 13 40  1  0
 14 41  1  0
 14 42  1  0
 19 43  1  0
 19 44  1  0
 20 45  1  0
 21 46  1  0
 21 47  1  0
 21 48  1  0
 22 49  1  0
 22 50  1  0
 22 51  1  0
 26 52  1  0
 26 53  1  0
 27 54  1  0
 27 55  1  0
M  CHG  2  17  -1  23  -1
M  END
>  <UniqueID>  (3) 
3

>  <SMILES>  (3) 
COc1ccccc1N1CCN(CCn2c([O-])c(CC(C)C)[n-]c2=O)CC1

>  <Energy>  (3) 
90.46316518894568

>  <Genealogy>  (3) 
COc1ccccc1N1CCN(CCn2c([O-])c(CC(C)C)[n-]c2=O)CC1 (protonated)
COc1ccccc1N1CCN(CCn2c([O-])c(CC(C)C)[n-]c2=O)CC1 (3D coordinates assigned)
COc1ccccc1N1CCN(CCn2c([O-])c(CC(C)C)[n-]c2=O)CC1 (nonaromatic ring conformer: 90.46316518894568 kcal/mol)

>  <smiles>  (3) 
COc1ccccc1N1CCN(CCn2c(O)c(CC(C)C)[nH]c2=O)CC1

>  <score_type>  (3) 
oracle

>  <origin>  (3) 
adg

>  <m_score__min__energy>  (3) 
-12.83

>  <m_primary>  (3) 
energy

$$$$
3:0
     RDKit          3D

 41 43  0  0  0  0  0  0  0  0999 V2000
   59.5955   25.5448   47.1416 H   0  0  0  0  0  0  0  0  0  0  0  0
   58.8070   26.0230   46.5420 C   0  0  0  0  0  0  0  0  0  0  0  0
   57.8720   27.3440   47.0090 S   0  0  0  0  0  0  0  0  0  0  0  0
   56.9980   27.3760   45.5660 C   0  0  0  0  0  0  0  0  0  0  0  0
   56.0450   28.2050   45.2490 N   0  0  0  0  0  0  0  0  0  0  0  0
   56.1760   29.4900   44.6230 C   0  0  0  0  0  0  0  0  0  0  0  0
   55.1850   30.2580   44.4950 O   0  0  0  0  0  0  0  0  0  0  0  0
   57.4730   29.9130   44.1900 N   0  0  0  0  0  0  0  0  0  0  0  0
   58.5100   30.4130   45.0450 C   0  0  0  0  0  0  0  0  0  0  0  0
   59.6520   29.6290   45.2300 C   0  0  0  0  0  0  0  0  0  0  0  0
   59.7319   28.6554   44.7243 H   0  0  0  0  0  0  0  0  0  0  0  0
   60.6920   30.0690   46.0500 C   0  0  0  0  0  0  0  0  0  0  0  0
   61.5783   29.4340   46.1962 H   0  0  0  0  0  0  0  0  0  0  0  0
   60.6150   31.3170   46.6900 C   0  0  0  0  0  0  0  0  0  0  0  0
   61.7200   31.7820   47.5670 C   0  0  0  0  0  0  0  0  0  0  0  0
   61.9230   31.1990   48.8300 C   0  0  0  0  0  0  0  0  0  0  0  0
   61.2583   30.3919   49.1717 H   0  0  0  0  0  0  0  0  0  0  0  0
   62.9630   31.6370   49.6550 C   0  0  0  0  0  0  0  0  0  0  0  0
   63.1093   31.1722   50.6412 H   0  0  0  0  0  0  0  0  0  0  0  0
   63.8200   32.6620   49.2370 C   0  0  0  0  0  0  0  0  0  0  0  0
   64.8470   33.0650   50.1010 O   0  0  0  0  0  0  0  0  0  0  0  0
   66.1330   32.4550   50.1620 C   0  0  0  0  0  0  0  0  0  0  0  0
   66.4239   32.3170   51.2138 H   0  0  0  0  0  0  0  0  0  0  0  0
   66.0991   31.4770   49.6596 H   0  0  0  0  0  0  0  0  0  0  0  0
   66.8690   33.1000   49.6596 H   0  0  0  0  0  0  0  0  0  0  0  0
   63.6220   33.2470   47.9730 C   0  0  0  0  0  0  0  0  0  0  0  0
   64.2898   34.0520   47.6324 H   0  0  0  0  0  0  0  0  0  0  0  0
   62.5810   32.8110   47.1470 C   0  0  0  0  0  0  0  0  0  0  0  0
   62.4348   33.2767   46.1612 H   0  0  0  0  0  0  0  0  0  0  0  0
   59.4820   32.1210   46.4790 C   0  0  0  0  0  0  0  0  0  0  0  0
   59.4131   33.1016   46.9727 H   0  0  0  0  0  0  0  0  0  0  0  0
   58.4320   31.6880   45.6430 C   0  0  0  0  0  0  0  0  0  0  0  0
   57.3240   32.5060   45.3680 O   0  0  0  0  0  0  0  0  0  0  0  0
   57.3730   33.9240   45.2420 C   0  0  0  0  0  0  0  0  0  0  0  0
   57.3888   34.3807   46.2426 H   0  0  0  0  0  0  0  0  0  0  0  0
   58.2816   34.2122   44.6931 H   0  0  0  0  0  0  0  0  0  0  0  0
   56.4864   34.2742   44.6931 H   0  0  0  0  0  0  0  0  0  0  0  0
   57.4060   26.3940   44.7330 N   0  0  0  0  0  0  0  0  0  0  0  0
   57.0010   26.2260   43.7860 H   0  0  0  0  0  0  0  0  0  0  0  0
   58.4070   25.6430   45.2650 C   0  0  0  0  0  0  0  0  0  0  0  0
   58.8652   24.8000   44.7270 H   0  0  0  0  0  0  0  0  0  0  0  0
  1  2  1  0
  2  3  1  0
  3  4  1  0
  4  5  2  0
  5  6  1  0
  6  7  2  0
  6  8  1  0
  8  9  1  0
  9 10  2  0
 10 11  1  0
 10 12  1  0
 12 13  1  0
 12 14  2  0
 14 15  1  0
 15 16  2  0
 16 17  1  0
 16 18  1  0
 18 19  1  0
 18 20  2  0
 20 21  1  0
 21 22  1  0
 22 23  1  0
 22 24  1  0
 22 25  1  0
 20 26  1  0
 26 27  1  0
 26 28  2  0
 28 29  1  0
 14 30  1  0
 30 31  1  0
 30 32  2  0
 32 33  1  0
 33 34  1  0
 34 35  1  0
 34 36  1  0
 34 37  1  0
  4 38  1  0
 38 39  1  0
 38 40  1  0
 40 41  1  0
 40  2  2  0
 32  9  1  0
 28 15  1  0
M  CHG  1   8  -1
M  END
>  <UniqueID>  (4) 
4

>  <SMILES>  (4) 
COc1ccc(-c2ccc([N-]C(=O)/N=c3/[nH]ccs3)c(OC)c2)cc1

>  <Energy>  (4) 
85.96709104155497

>  <Genealogy>  (4) 
COc1ccc(-c2ccc([N-]C(=O)N=c3[nH]ccs3)c(OC)c2)cc1 (protonated)
COc1ccc(-c2ccc([N-]C(=O)/N=c3/[nH]ccs3)c(OC)c2)cc1 (cis-trans isomerization)
COc1ccc(-c2ccc([N-]C(=O)/N=c3/[nH]ccs3)c(OC)c2)cc1 (3D coordinates assigned)
COc1ccc(-c2ccc([N-]C(=O)/N=c3/[nH]ccs3)c(OC)c2)cc1 (optimized conformer: 85.96709104155497 kcal/mol)

>  <smiles>  (4) 
COc1ccc(-c2ccc(NC(=O)N=c3[nH]ccs3)c(OC)c2)cc1

>  <score_type>  (4) 
oracle

>  <origin>  (4) 
adg

>  <m_score__min__energy>  (4) 
-9.5099999999999998

>  <m_primary>  (4) 
energy

$$$$
4:0
     RDKit          3D

 54 57  0  0  0  0  0  0  0  0999 V2000
   57.4050   24.3880   45.6500 C   0  0  0  0  0  0  0  0  0  0  0  0
   56.8390   25.7690   45.8300 C   0  0  0  0  0  0  0  0  0  0  0  0
   55.7710   25.8930   46.4110 O   0  0  0  0  0  0  0  0  0  0  0  0
   57.5340   27.0170   45.3080 C   0  0  2  0  0  0  0  0  0  0  0  0
   58.1530   26.8860   43.9170 C   0  0  0  0  0  0  0  0  0  0  0  0
   59.1160   28.0580   43.7940 C   0  0  0  0  0  0  0  0  0  0  0  0
   59.5480   28.4250   45.2310 C   0  0  1  0  0  0  0  0  0  0  0  0
   59.5470   29.9590   45.5390 C   0  0  1  0  0  0  0  0  0  0  0  0
   58.2180   30.6670   45.1650 C   0  0  0  0  0  0  0  0  0  0  0  0
   57.9330   31.9370   45.9130 C   0  0  0  0  0  0  0  0  0  0  0  0
   58.6990   32.4360   46.9020 C   0  0  0  0  0  0  0  0  0  0  0  0
   58.5540   33.9070   47.2490 C   0  0  0  0  0  0  0  0  0  0  0  0
   59.8880   34.6670   47.0080 C   0  0  2  0  0  0  0  0  0  0  0  0
   59.6470   35.9240   46.4260 O   0  0  0  0  0  0  0  0  0  0  0  0
   60.8940   33.8610   46.1510 C   0  0  0  0  0  0  0  0  0  0  0  0
   61.2040   32.4670   46.7540 C   0  0  0  0  0  0  0  0  0  0  0  0
   59.9640   31.7360   47.3930 C   0  0  1  0  0  0  0  0  0  0  0  0
   60.0640   31.9080   48.9360 C   0  0  0  0  0  0  0  0  0  0  0  0
   59.9700   30.2000   47.0170 C   0  0  1  0  0  0  0  0  0  0  0  0
   59.1890   29.2780   47.9540 C   0  0  0  0  0  0  0  0  0  0  0  0
   59.5230   29.1570   49.1240 O   0  0  0  0  0  0  0  0  0  0  0  0
   58.1300   28.3570   47.4150 C   0  0  0  0  0  0  0  0  0  0  0  0
   58.6830   27.5510   46.2050 C   0  0  1  0  0  0  0  0  0  0  0  0
   59.5600   26.3840   46.7460 C   0  0  0  0  0  0  0  0  0  0  0  0
   57.5901   23.9363   46.6357 H   0  0  0  0  0  0  0  0  0  0  0  0
   56.6884   23.7680   45.0913 H   0  0  0  0  0  0  0  0  0  0  0  0
   58.3506   24.4492   45.0913 H   0  0  0  0  0  0  0  0  0  0  0  0
   56.6822   27.7129   45.2947 H   0  0  0  0  0  0  0  0  0  0  0  0
   58.6930   25.9322   43.8238 H   0  0  0  0  0  0  0  0  0  0  0  0
   57.3892   26.8980   43.1255 H   0  0  0  0  0  0  0  0  0  0  0  0
   59.9927   27.7681   43.1962 H   0  0  0  0  0  0  0  0  0  0  0  0
   58.6394   28.9128   43.2919 H   0  0  0  0  0  0  0  0  0  0  0  0
   60.6123   28.1874   45.3749 H   0  0  0  0  0  0  0  0  0  0  0  0
   60.2941   30.4313   44.8842 H   0  0  0  0  0  0  0  0  0  0  0  0
   58.2507   30.9052   44.0916 H   0  0  0  0  0  0  0  0  0  0  0  0
   57.4143   29.9673   45.4379 H   0  0  0  0  0  0  0  0  0  0  0  0
   57.0318   32.5019   45.6325 H   0  0  0  0  0  0  0  0  0  0  0  0
   57.7682   34.3499   46.6194 H   0  0  0  0  0  0  0  0  0  0  0  0
   58.2875   33.9929   48.3128 H   0  0  0  0  0  0  0  0  0  0  0  0
   60.3501   34.8077   47.9963 H   0  0  0  0  0  0  0  0  0  0  0  0
   59.2480   36.5060   47.1250 H   0  0  0  0  0  0  0  0  0  0  0  0
   60.4702   33.7240   45.1452 H   0  0  0  0  0  0  0  0  0  0  0  0
   61.8358   34.4284   46.1191 H   0  0  0  0  0  0  0  0  0  0  0  0
   61.6029   31.8279   45.9524 H   0  0  0  0  0  0  0  0  0  0  0  0
   61.9211   32.6344   47.5712 H   0  0  0  0  0  0  0  0  0  0  0  0
   59.5706   31.0593   49.4323 H   0  0  0  0  0  0  0  0  0  0  0  0
   61.1225   31.9417   49.2333 H   0  0  0  0  0  0  0  0  0  0  0  0
   59.5696   32.8446   49.2333 H   0  0  0  0  0  0  0  0  0  0  0  0
   61.0238   29.9140   47.1500 H   0  0  0  0  0  0  0  0  0  0  0  0
   57.8198   27.6580   48.2057 H   0  0  0  0  0  0  0  0  0  0  0  0
   57.2689   28.9558   47.0835 H   0  0  0  0  0  0  0  0  0  0  0  0
   59.5500   26.3973   47.8459 H   0  0  0  0  0  0  0  0  0  0  0  0
   59.1568   25.4255   46.3872 H   0  0  0  0  0  0  0  0  0  0  0  0
   60.5928   26.5047   46.3872 H   0  0  0  0  0  0  0  0  0  0  0  0
  1  2  1  0
  2  3  2  0
  2  4  1  0
  4  5  1  0
  5  6  1  0
  6  7  1  0
  7  8  1  0
  8  9  1  0
  9 10  1  0
 10 11  2  0
 11 12  1  0
 12 13  1  0
 13 14  1  0
 13 15  1  0
 15 16  1  0
 16 17  1  0
 17 18  1  1
 17 19  1  0
 19 20  1  0
 20 21  2  0
 20 22  1  0
 22 23  1  0
 23 24  1  1
 23  4  1  0
 23  7  1  0
 19  8  1  0
 17 11  1  0
  1 25  1  0
  1 26  1  0
  1 27  1  0
  4 28  1  6
  5 29  1  0
  5 30  1  0
  6 31  1  0
  6 32  1  0
  7 33  1  6
  8 34  1  6
  9 35  1  0
  9 36  1  0
 10 37  1  0
 12 38  1  0
 12 39  1  0
 13 40  1  1
 14 41  1  0
 15 42  1  0
 15 43  1  0
 16 44  1  0
 16 45  1  0
 18 46  1  0
 18 47  1  0
 18 48  1  0
 19 49  1  6
 22 50  1  0
 22 51  1  0
 24 52  1  0
 24 53  1  0
 24 54  1  0
M  END
>  <UniqueID>  (5) 
5

>  <SMILES>  (5) 
CC(=O)[C@@H]1CC[C@H]2C3CC=C4CC(O)CCC4(C)C3C(=O)CC12C

>  <Energy>  (5) 
88.88373250733748

>  <Genealogy>  (5) 
CC(=O)[C@@H]1CC[C@H]2C3CC=C4CC(O)CCC4(C)C3C(=O)CC12C (chirality)
CC(=O)[C@@H]1CC[C@H]2C3CC=C4CC(O)CCC4(C)C3C(=O)CC12C (3D coordinates assigned)
CC(=O)[C@@H]1CC[C@H]2C3CC=C4CC(O)CCC4(C)C3C(=O)CC12C (nonaromatic ring conformer: 88.88373250733748 kcal/mol)

>  <smiles>  (5) 
CC(=O)C1CCC2C3CC=C4CC(O)CCC4(C)C3C(=O)CC12C

>  <score_type>  (5) 
oracle

>  <origin>  (5) 
adg

>  <m_score__min__energy>  (5) 
-9.0500000000000007

>  <m_primary>  (5) 
energy

$$$$
5:0
     RDKit          3D

 49 52  0  0  0  0  0  0  0  0999 V2000
   54.4120   23.6940   44.4020 C   0  0  0  0  0  0  0  0  0  0  0  0
   55.6210   23.5560   43.4720 C   0  0  0  0  0  0  0  0  0  0  0  0
   56.8960   23.7580   44.1790 N   0  0  0  0  0  0  0  0  0  0  0  0
   57.1250   25.1520   44.4760 C   0  0  0  0  0  0  0  0  0  0  0  0
   57.7770   25.9820   43.5480 C   0  0  0  0  0  0  0  0  0  0  0  0
   57.9830   27.3350   43.8300 C   0  0  0  0  0  0  0  0  0  0  0  0
   57.5410   27.8860   45.0450 C   0  0  0  0  0  0  0  0  0  0  0  0
   57.7580   29.3190   45.3440 C   0  0  0  0  0  0  0  0  0  0  0  0
   58.7680   29.7630   46.1410 N   0  0  0  0  0  0  0  0  0  0  0  0
   58.5880   31.0910   46.1340 C   0  0  0  0  0  0  0  0  0  0  0  0
   59.3420   32.0580   46.7930 C   0  0  0  0  0  0  0  0  0  0  0  0
   58.9600   33.4070   46.6420 C   0  0  0  0  0  0  0  0  0  0  0  0
   59.8720   34.6780   47.4600 S   0  0  0  0  0  0  0  0  0  0  0  0
   59.7870   35.9420   46.6510 O   0  0  0  0  0  0  0  0  0  0  0  0
   59.2530   34.9450   48.8040 O   0  0  0  0  0  0  0  0  0  0  0  0
   61.5500   34.2410   47.6710 N   0  0  0  0  0  0  0  0  0  0  0  0
   62.1350   33.8060   46.3960 C   0  0  0  0  0  0  0  0  0  0  0  0
   63.6230   33.4470   46.5960 C   0  0  0  0  0  0  0  0  0  0  0  0
   63.9980   33.4530   47.9620 O   0  0  0  0  0  0  0  0  0  0  0  0
   63.1230   32.6250   48.7040 C   0  0  0  0  0  0  0  0  0  0  0  0
   61.6830   33.1780   48.6810 C   0  0  0  0  0  0  0  0  0  0  0  0
   57.8430   33.7400   45.8350 C   0  0  0  0  0  0  0  0  0  0  0  0
   57.1050   32.7320   45.1850 C   0  0  0  0  0  0  0  0  0  0  0  0
   57.5160   31.4140   45.3630 C   0  0  0  0  0  0  0  0  0  0  0  0
   56.9660   30.3070   44.8460 N   0  0  0  0  0  0  0  0  0  0  0  0
   56.8870   27.0560   45.9720 C   0  0  0  0  0  0  0  0  0  0  0  0
   56.6810   25.7030   45.6900 C   0  0  0  0  0  0  0  0  0  0  0  0
   54.7482   23.6556   45.4486 H   0  0  0  0  0  0  0  0  0  0  0  0
   53.9116   24.6551   44.2127 H   0  0  0  0  0  0  0  0  0  0  0  0
   53.7078   22.8704   44.2127 H   0  0  0  0  0  0  0  0  0  0  0  0
   55.6161   22.5475   43.0328 H   0  0  0  0  0  0  0  0  0  0  0  0
   55.5395   24.3323   42.6970 H   0  0  0  0  0  0  0  0  0  0  0  0
   56.8670   23.2220   45.0790 H   0  0  0  0  0  0  0  0  0  0  0  0
   57.6840   23.3640   43.6140 H   0  0  0  0  0  0  0  0  0  0  0  0
   58.1276   25.5636   42.5930 H   0  0  0  0  0  0  0  0  0  0  0  0
   58.4951   27.9738   43.0953 H   0  0  0  0  0  0  0  0  0  0  0  0
   60.2078   31.7788   47.4115 H   0  0  0  0  0  0  0  0  0  0  0  0
   61.5928   32.9223   46.0286 H   0  0  0  0  0  0  0  0  0  0  0  0
   62.0548   34.6226   45.6634 H   0  0  0  0  0  0  0  0  0  0  0  0
   63.8033   32.4431   46.1840 H   0  0  0  0  0  0  0  0  0  0  0  0
   64.2255   34.2077   46.0780 H   0  0  0  0  0  0  0  0  0  0  0  0
   63.1272   31.6153   48.2675 H   0  0  0  0  0  0  0  0  0  0  0  0
   63.4698   32.5962   49.7475 H   0  0  0  0  0  0  0  0  0  0  0  0
   60.9864   32.3615   48.4398 H   0  0  0  0  0  0  0  0  0  0  0  0
   61.4498   33.5988   49.6702 H   0  0  0  0  0  0  0  0  0  0  0  0
   57.5506   34.7937   45.7157 H   0  0  0  0  0  0  0  0  0  0  0  0
   56.2346   32.9775   44.5588 H   0  0  0  0  0  0  0  0  0  0  0  0
   56.5348   27.4746   46.9263 H   0  0  0  0  0  0  0  0  0  0  0  0
   56.1674   25.0645   46.4238 H   0  0  0  0  0  0  0  0  0  0  0  0
  1  2  1  0
  2  3  1  0
  3  4  1  0
  4  5  2  0
  5  6  1  0
  6  7  2  0
  7  8  1  0
  8  9  2  0
  9 10  1  0
 10 11  2  0
 11 12  1  0
 12 13  1  0
 13 14  2  0
 13 15  2  0
 13 16  1  0
 16 17  1  0
 17 18  1  0
 18 19  1  0
 19 20  1  0
 20 21  1  0
 12 22  2  0
 22 23  1  0
 23 24  2  0
 24 25  1  0
  7 26  1  0
 26 27  2  0
 27  4  1  0
 25  8  1  0
 24 10  1  0
 21 16  1  0
  1 28  1  0
  1 29  1  0
  1 30  1  0
  2 31  1  0
  2 32  1  0
  3 33  1  0
  3 34  1  0
  5 35  1  0
  6 36  1  0
 11 37  1  0
 17 38  1  0
 17 39  1  0
 18 40  1  0
 18 41  1  0
 20 42  1  0
 20 43  1  0
 21 44  1  0
 21 45  1  0
 22 46  1  0
 23 47  1  0
 26 48  1  0
 27 49  1  0
M  CHG  2   3   1  25  -1
M  END
>  <UniqueID>  (6) 
6

>  <SMILES>  (6) 
CC[NH2+]c1ccc(-c2nc3cc(S(=O)(=O)N4CCOCC4)ccc3[n-]2)cc1

>  <Energy>  (6) 
93.40146786102295

>  <Genealogy>  (6) 
CC[NH2+]c1ccc(-c2nc3cc(S(=O)(=O)N4CCOCC4)ccc3[n-]2)cc1 (protonated)
CC[NH2+]c1ccc(-c2nc3cc(S(=O)(=O)N4CCOCC4)ccc3[n-]2)cc1 (3D coordinates assigned)
CC[NH2+]c1ccc(-c2nc3cc(S(=O)(=O)N4CCOCC4)ccc3[n-]2)cc1 (nonaromatic ring conformer: 93.40146786102295 kcal/mol)

>  <smiles>  (6) 
CCNc1ccc(-c2nc3cc(S(=O)(=O)N4CCOCC4)ccc3[nH]2)cc1

>  <score_type>  (6) 
oracle

>  <origin>  (6) 
adg

>  <m_score__min__energy>  (6) 
-8.4700000000000006

>  <m_primary>  (6) 
energy

$$$$
6:0
     RDKit          3D

 40 42  0  0  0  0  0  0  0  0999 V2000
   63.7383   33.4836   49.5881 H   0  0  0  0  0  0  0  0  0  0  0  0
   62.9910   33.5540   48.7840 C   0  0  0  0  0  0  0  0  0  0  0  0
   63.4070   33.7160   47.4600 C   0  0  0  0  0  0  0  0  0  0  0  0
   64.4802   33.7721   47.2252 H   0  0  0  0  0  0  0  0  0  0  0  0
   62.4630   33.8070   46.4330 C   0  0  0  0  0  0  0  0  0  0  0  0
   62.7952   33.9370   45.3924 H   0  0  0  0  0  0  0  0  0  0  0  0
   61.0930   33.7330   46.7260 C   0  0  0  0  0  0  0  0  0  0  0  0
   60.1360   33.8210   45.7040 C   0  0  0  0  0  0  0  0  0  0  0  0
   60.4607   33.9583   44.6620 H   0  0  0  0  0  0  0  0  0  0  0  0
   58.7660   33.7350   46.0020 C   0  0  0  0  0  0  0  0  0  0  0  0
   57.7450   33.8310   44.8970 C   0  0  0  0  0  0  0  0  0  0  0  0
   57.8556   34.7994   44.3871 H   0  0  0  0  0  0  0  0  0  0  0  0
   56.7406   33.7418   45.3367 H   0  0  0  0  0  0  0  0  0  0  0  0
   57.9280   32.7540   43.9250 N   0  0  0  0  0  0  0  0  0  0  0  0
   57.6230   31.5050   44.1170 C   0  0  0  0  0  0  0  0  0  0  0  0
   58.8930   30.2860   44.4740 S   0  0  0  0  0  0  0  0  0  0  0  0
   57.5800   29.1080   44.7980 C   0  0  0  0  0  0  0  0  0  0  0  0
   57.8440   27.9280   45.2820 N   0  0  0  0  0  0  0  0  0  0  0  0
   57.7330   27.4950   46.6750 C   0  0  0  0  0  0  0  0  0  0  0  0
   57.1419   28.2340   47.2358 H   0  0  0  0  0  0  0  0  0  0  0  0
   58.7448   27.4108   47.0983 H   0  0  0  0  0  0  0  0  0  0  0  0
   57.0490   26.1310   46.7700 C   0  0  0  0  0  0  0  0  0  0  0  0
   57.0730   25.7804   47.8124 H   0  0  0  0  0  0  0  0  0  0  0  0
   57.5773   25.4100   46.1288 H   0  0  0  0  0  0  0  0  0  0  0  0
   55.7080   26.2470   46.3430 O   0  0  0  0  0  0  0  0  0  0  0  0
   55.3370   25.0830   45.6420 C   0  0  0  0  0  0  0  0  0  0  0  0
   55.0837   24.2882   46.3590 H   0  0  0  0  0  0  0  0  0  0  0  0
   54.4631   25.2986   45.0097 H   0  0  0  0  0  0  0  0  0  0  0  0
   56.1745   24.7531   45.0097 H   0  0  0  0  0  0  0  0  0  0  0  0
   56.2520   29.6560   44.5020 C   0  0  0  0  0  0  0  0  0  0  0  0
   55.1740   29.0060   44.5560 O   0  0  0  0  0  0  0  0  0  0  0  0
   56.2820   31.0170   44.1190 N   0  0  0  0  0  0  0  0  0  0  0  0
   55.4300   31.5670   43.8730 H   0  0  0  0  0  0  0  0  0  0  0  0
   58.3580   33.5860   47.3370 C   0  0  0  0  0  0  0  0  0  0  0  0
   57.2858   33.5374   47.5777 H   0  0  0  0  0  0  0  0  0  0  0  0
   59.3030   33.4990   48.3620 C   0  0  0  0  0  0  0  0  0  0  0  0
   58.9718   33.3751   49.4036 H   0  0  0  0  0  0  0  0  0  0  0  0
   60.6730   33.5690   48.0680 C   0  0  0  0  0  0  0  0  0  0  0  0
   61.6300   33.4810   49.0910 C   0  0  0  0  0  0  0  0  0  0  0  0
   61.3082   33.3545   50.1352 H   0  0  0  0  0  0  0  0  0  0  0  0
  1  2  1  0
  2  3  2  0
  3  4  1  0
  3  5  1  0
  5  6  1  0
  5  7  2  0
  7  8  1  0
  8  9  1  0
  8 10  2  0
 10 11  1  0
 11 12  1  0
 11 13  1  0
 11 14  1  0
 14 15  2  3
 15 16  1  0
 16 17  1  0
 17 18  2  0
 18 19  1  0
 19 20  1  0
 19 21  1  0
 19 22  1  0
 22 23  1  0
 22 24  1  0
 22 25  1  0
 25 26  1  0
 26 27  1  0
 26 28  1  0
 26 29  1  0
 17 30  1  0
 30 31  2  0
 30 32  1  0
 32 33  1  0
 10 34  1  0
 34 35  1  0
 34 36  2  0
 36 37  1  0
 36 38  1  0
 38 39  2  0
 39 40  1  0
 39  2  1  0
 38  7  1  0
 32 15  1  0
M  END
>  <UniqueID>  (7) 
7

>  <SMILES>  (7) 
COCC/N=C1/SC(=NCc2ccc3ccccc3c2)NC1=O

>  <Energy>  (7) 
63.47183701524712

>  <Genealogy>  (7) 
COCC/N=C1/SC(=NCc2ccc3ccccc3c2)NC1=O (cis-trans isomerization)
COCC/N=C1/SC(=NCc2ccc3ccccc3c2)NC1=O (3D coordinates assigned)
COCC/N=C1/SC(=NCc2ccc3ccccc3c2)NC1=O (nonaromatic ring conformer: 63.47183701524712 kcal/mol)

>  <smiles>  (7) 
COCCN=C1SC(=NCc2ccc3ccccc3c2)NC1=O

>  <score_type>  (7) 
oracle

>  <origin>  (7) 
adg

>  <m_score__min__energy>  (7) 
-8.4299999999999997

>  <m_primary>  (7) 
energy

$$$$
7:0
     RDKit          3D

 50 52  0  0  0  0  0  0  0  0999 V2000
   55.5230   28.9300   45.1730 F   0  0  0  0  0  0  0  0  0  0  0  0
   56.8620   28.7220   45.1150 C   0  0  0  0  0  0  0  0  0  0  0  0
   57.4000   27.5340   45.6230 C   0  0  0  0  0  0  0  0  0  0  0  0
   58.7790   27.3070   45.5650 C   0  0  0  0  0  0  0  0  0  0  0  0
   59.6240   28.2720   45.0090 C   0  0  0  0  0  0  0  0  0  0  0  0
   59.0900   29.4610   44.5050 C   0  0  0  0  0  0  0  0  0  0  0  0
   57.7070   29.6830   44.5390 C   0  0  0  0  0  0  0  0  0  0  0  0
   57.0370   31.2020   43.8550 S   0  0  0  0  0  0  0  0  0  0  0  0
   58.1500   32.3280   44.7760 C   0  0  0  0  0  0  0  0  0  0  0  0
   57.5040   32.8890   46.0580 C   0  0  0  0  0  0  0  0  0  0  0  0
   58.3120   34.0520   46.6510 C   0  0  0  0  0  0  0  0  0  0  0  0
   59.6570   33.5900   47.0650 N   0  0  0  0  0  0  0  0  0  0  0  0
   60.6660   33.9830   46.0640 C   0  0  0  0  0  0  0  0  0  0  0  0
   62.1190   33.8230   46.5750 C   0  0  0  0  0  0  0  0  0  0  0  0
   62.2470   33.0560   47.8390 N   0  0  0  0  0  0  0  0  0  0  0  0
   62.3490   31.5850   47.6480 C   0  0  0  0  0  0  0  0  0  0  0  0
   61.1670   30.7900   48.1570 C   0  0  0  0  0  0  0  0  0  0  0  0
   61.1870   30.2420   49.4510 C   0  0  0  0  0  0  0  0  0  0  0  0
   60.0730   29.5600   49.9490 C   0  0  0  0  0  0  0  0  0  0  0  0
   58.9230   29.4330   49.1670 C   0  0  0  0  0  0  0  0  0  0  0  0
   58.8850   29.9870   47.8840 C   0  0  0  0  0  0  0  0  0  0  0  0
   59.9990   30.6650   47.3820 C   0  0  0  0  0  0  0  0  0  0  0  0
   61.2920   33.4670   48.9060 C   0  0  0  0  0  0  0  0  0  0  0  0
   60.0220   34.1470   48.3750 C   0  0  0  0  0  0  0  0  0  0  0  0
   56.7373   26.7776   46.0686 H   0  0  0  0  0  0  0  0  0  0  0  0
   59.1987   26.3688   45.9570 H   0  0  0  0  0  0  0  0  0  0  0  0
   60.7090   28.0954   44.9682 H   0  0  0  0  0  0  0  0  0  0  0  0
   59.7576   30.2251   44.0802 H   0  0  0  0  0  0  0  0  0  0  0  0
   59.0589   31.7742   45.0538 H   0  0  0  0  0  0  0  0  0  0  0  0
   58.3766   33.1805   44.1188 H   0  0  0  0  0  0  0  0  0  0  0  0
   56.4918   33.2465   45.8179 H   0  0  0  0  0  0  0  0  0  0  0  0
   57.4756   32.0813   46.8042 H   0  0  0  0  0  0  0  0  0  0  0  0
   58.4179   34.8427   45.8937 H   0  0  0  0  0  0  0  0  0  0  0  0
   57.7819   34.4408   47.5329 H   0  0  0  0  0  0  0  0  0  0  0  0
   60.5372   33.3541   45.1708 H   0  0  0  0  0  0  0  0  0  0  0  0
   60.5109   35.0490   45.8412 H   0  0  0  0  0  0  0  0  0  0  0  0
   62.7010   33.3049   45.7985 H   0  0  0  0  0  0  0  0  0  0  0  0
   62.4893   34.8371   46.7861 H   0  0  0  0  0  0  0  0  0  0  0  0
   63.1950   33.3170   48.2070 H   0  0  0  0  0  0  0  0  0  0  0  0
   62.4547   31.3874   46.5711 H   0  0  0  0  0  0  0  0  0  0  0  0
   63.2167   31.2580   48.2397 H   0  0  0  0  0  0  0  0  0  0  0  0
   62.0855   30.3505   50.0763 H   0  0  0  0  0  0  0  0  0  0  0  0
   60.1023   29.1229   50.9580 H   0  0  0  0  0  0  0  0  0  0  0  0
   58.0468   28.8969   49.5606 H   0  0  0  0  0  0  0  0  0  0  0  0
   57.9779   29.8892   47.2695 H   0  0  0  0  0  0  0  0  0  0  0  0
   59.9627   31.1041   46.3741 H   0  0  0  0  0  0  0  0  0  0  0  0
   60.9951   32.5701   49.4695 H   0  0  0  0  0  0  0  0  0  0  0  0
   61.8121   34.2062   49.5330 H   0  0  0  0  0  0  0  0  0  0  0  0
   59.1972   33.9798   49.0833 H   0  0  0  0  0  0  0  0  0  0  0  0
   60.2113   35.2251   48.2661 H   0  0  0  0  0  0  0  0  0  0  0  0
  1  2  1  0
  2  3  2  0
  3  4  1  0
  4  5  2  0
  5  6  1  0
  6  7  2  0
  7  8  1  0
  8  9  1  0
  9 10  1  0
 10 11  1  0
 11 12  1  0
 12 13  1  0
 13 14  1  0
 14 15  1  0
 15 16  1  0
 16 17  1  0
 17 18  2  0
 18 19  1  0
 19 20  2  0
 20 21  1  0
 21 22  2  0
 15 23  1  0
 23 24  1  0
  7  2  1  0
 24 12  1  0
 22 17  1  0
  3 25  1  0
  4 26  1  0
  5 27  1  0
  6 28  1  0
  9 29  1  0
  9 30  1  0
 10 31  1  0
 10 32  1  0
 11 33  1  0
 11 34  1  0
 13 35  1  0
 13 36  1  0
 14 37  1  0
 14 38  1  0
 15 39  1  0
 16 40  1  0
 16 41  1  0
 18 42  1  0
 19 43  1  0
 20 44  1  0
 21 45  1  0
 22 46  1  0
 23 47  1  0
 23 48  1  0
 24 49  1  0
 24 50  1  0
M  CHG  1  15   1
M  END
>  <UniqueID>  (8) 
8

>  <SMILES>  (8) 
Fc1ccccc1SCCCN1CC[NH+](Cc2ccccc2)CC1

>  <Energy>  (8) 
60.07545845887805

>  <Genealogy>  (8) 
Fc1ccccc1SCCCN1CC[NH+](Cc2ccccc2)CC1 (protonated)
Fc1ccccc1SCCCN1CC[NH+](Cc2ccccc2)CC1 (3D coordinates assigned)
Fc1ccccc1SCCCN1CC[NH+](Cc2ccccc2)CC1 (nonaromatic ring conformer: 60.07545845887805 kcal/mol)

>  <smiles>  (8) 
Fc1ccccc1SCCCN1CCN(Cc2ccccc2)CC1

>  <score_type>  (8) 
oracle

>  <origin>  (8) 
adg

>  <m_score__min__energy>  (8) 
-6.0800000000000001

>  <m_primary>  (8) 
energy

$$$$
8:0
     RDKit          3D

 40 43  0  0  0  0  0  0  0  0999 V2000
   59.1650   35.1540   47.6580 O   0  0  0  0  0  0  0  0  0  0  0  0
   59.7150   34.1650   47.1020 C   0  0  0  0  0  0  0  0  0  0  0  0
   58.9390   33.3390   46.1400 C   0  0  0  0  0  0  0  0  0  0  0  0
   58.4950   33.8750   44.9150 C   0  0  0  0  0  0  0  0  0  0  0  0
   57.7730   33.0840   44.0170 C   0  0  0  0  0  0  0  0  0  0  0  0
   57.4910   31.7520   44.3250 C   0  0  0  0  0  0  0  0  0  0  0  0
   57.9330   31.2060   45.5320 C   0  0  0  0  0  0  0  0  0  0  0  0
   58.6560   31.9910   46.4340 C   0  0  0  0  0  0  0  0  0  0  0  0
   61.1370   33.8790   47.4050 C   0  0  0  0  0  0  0  0  0  0  0  0
   62.0430   33.8310   46.3360 C   0  0  0  0  0  0  0  0  0  0  0  0
   63.3960   33.6010   46.5610 C   0  0  0  0  0  0  0  0  0  0  0  0
   63.8760   33.4310   47.8570 C   0  0  0  0  0  0  0  0  0  0  0  0
   63.0020   33.4880   48.9610 C   0  0  0  0  0  0  0  0  0  0  0  0
   63.4760   33.3120   50.2900 C   0  0  0  0  0  0  0  0  0  0  0  0
   64.9140   33.1640   50.6100 C   0  0  0  0  0  0  0  0  0  0  0  0
   65.6110   32.0050   50.2290 C   0  0  0  0  0  0  0  0  0  0  0  0
   66.9740   31.8780   50.5150 C   0  0  0  0  0  0  0  0  0  0  0  0
   67.6510   32.9080   51.1740 C   0  0  0  0  0  0  0  0  0  0  0  0
   66.9660   34.0690   51.5440 C   0  0  0  0  0  0  0  0  0  0  0  0
   65.6040   34.2000   51.2600 C   0  0  0  0  0  0  0  0  0  0  0  0
   62.5620   33.2910   51.3530 C   0  0  0  0  0  0  0  0  0  0  0  0
   61.2000   33.4630   51.1220 C   0  0  0  0  0  0  0  0  0  0  0  0
   60.7240   33.6630   49.8290 C   0  0  0  0  0  0  0  0  0  0  0  0
   61.6090   33.6900   48.7320 C   0  0  0  0  0  0  0  0  0  0  0  0
   58.7180   34.9225   44.6638 H   0  0  0  0  0  0  0  0  0  0  0  0
   57.4261   33.5122   43.0650 H   0  0  0  0  0  0  0  0  0  0  0  0
   56.9207   31.1325   43.6171 H   0  0  0  0  0  0  0  0  0  0  0  0
   57.7115   30.1559   45.7731 H   0  0  0  0  0  0  0  0  0  0  0  0
   59.0066   31.5531   47.3802 H   0  0  0  0  0  0  0  0  0  0  0  0
   61.6796   33.9769   45.3080 H   0  0  0  0  0  0  0  0  0  0  0  0
   64.0912   33.5531   45.7099 H   0  0  0  0  0  0  0  0  0  0  0  0
   64.9486   33.2503   48.0208 H   0  0  0  0  0  0  0  0  0  0  0  0
   65.0830   31.1952   49.7042 H   0  0  0  0  0  0  0  0  0  0  0  0
   67.5142   30.9660   50.2208 H   0  0  0  0  0  0  0  0  0  0  0  0
   68.7223   32.8051   51.4014 H   0  0  0  0  0  0  0  0  0  0  0  0
   67.5000   34.8808   52.0596 H   0  0  0  0  0  0  0  0  0  0  0  0
   65.0704   35.1182   51.5467 H   0  0  0  0  0  0  0  0  0  0  0  0
   62.9248   33.1370   52.3800 H   0  0  0  0  0  0  0  0  0  0  0  0
   60.4954   33.4408   51.9664 H   0  0  0  0  0  0  0  0  0  0  0  0
   59.6457   33.8014   49.6616 H   0  0  0  0  0  0  0  0  0  0  0  0
  1  2  2  0
  2  3  1  0
  3  4  2  0
  4  5  1  0
  5  6  2  0
  6  7  1  0
  7  8  2  0
  2  9  1  0
  9 10  2  0
 10 11  1  0
 11 12  2  0
 12 13  1  0
 13 14  2  0
 14 15  1  0
 15 16  2  0
 16 17  1  0
 17 18  2  0
 18 19  1  0
 19 20  2  0
 14 21  1  0
 21 22  2  0
 22 23  1  0
 23 24  2  0
  8  3  1  0
 24  9  1  0
 24 13  1  0
 20 15  1  0
  4 25  1  0
  5 26  1  0
  6 27  1  0
  7 28  1  0
  8 29  1  0
 10 30  1  0
 11 31  1  0
 12 32  1  0
 16 33  1  0
 17 34  1  0
 18 35  1  0
 19 36  1  0
 20 37  1  0
 21 38  1  0
 22 39  1  0
 23 40  1  0
M  END
>  <UniqueID>  (9) 
9

>  <SMILES>  (9) 
O=C(c1ccccc1)c1cccc2c(-c3ccccc3)cccc12

>  <Energy>  (9) 
67.05418277097051

>  <Genealogy>  (9) 
O=C(c1ccccc1)c1cccc2c(-c3ccccc3)cccc12 (3D coordinates assigned)
O=C(c1ccccc1)c1cccc2c(-c3ccccc3)cccc12 (optimized conformer: 67.05418277097051 kcal/mol)

>  <smiles>  (9) 
O=C(c1ccccc1)c1cccc2c(-c3ccccc3)cccc12

>  <score_type>  (9) 
oracle

>  <origin>  (9) 
adg

>  <m_score__min__energy>  (9) 
-8.9600000000000009

>  <m_primary>  (9) 
energy

$$$$
9:0
     RDKit          3D

 52 54  0  0  0  0  0  0  0  0999 V2000
   55.4050   29.7890   43.4920 C   0  0  0  0  0  0  0  0  0  0  0  0
   56.7070   29.4340   44.2240 C   0  0  0  0  0  0  0  0  0  0  0  0
   57.8300   30.3400   43.8700 N   0  0  0  0  0  0  0  0  0  0  0  0
   57.3760   31.7220   43.5590 C   0  0  0  0  0  0  0  0  0  0  0  0
   58.1380   32.3310   42.3770 C   0  0  0  0  0  0  0  0  0  0  0  0
   58.8790   30.3620   44.8880 C   0  0  0  0  0  0  0  0  0  0  0  0
   58.8660   31.2760   45.7030 O   0  0  0  0  0  0  0  0  0  0  0  0
   60.0210   29.3290   44.9670 C   0  0  1  0  0  0  0  0  0  0  0  0
   60.7890   29.3960   46.3070 C   0  0  0  0  0  0  0  0  0  0  0  0
   59.9870   28.8570   47.5150 C   0  0  0  0  0  0  0  0  0  0  0  0
   58.7150   28.0820   47.1310 C   0  0  0  0  0  0  0  0  0  0  0  0
   58.9250   27.2840   45.9170 N   0  0  0  0  0  0  0  0  0  0  0  0
   58.3220   25.9850   45.8000 C   0  0  0  0  0  0  0  0  0  0  0  0
   59.0550   24.9680   45.6690 O   0  0  0  0  0  0  0  0  0  0  0  0
   56.8610   25.8150   45.8500 C   0  0  0  0  0  0  0  0  0  0  0  0
   56.1660   24.6350   45.6890 C   0  0  0  0  0  0  0  0  0  0  0  0
   54.8380   25.0110   45.7900 C   0  0  0  0  0  0  0  0  0  0  0  0
   53.6510   24.1270   45.6990 C   0  0  0  0  0  0  0  0  0  0  0  0
   52.5460   24.4640   44.8920 C   0  0  0  0  0  0  0  0  0  0  0  0
   51.4370   23.6140   44.8170 C   0  0  0  0  0  0  0  0  0  0  0  0
   51.4190   22.4210   45.5410 C   0  0  0  0  0  0  0  0  0  0  0  0
   52.5070   22.0740   46.3440 C   0  0  0  0  0  0  0  0  0  0  0  0
   53.6170   22.9210   46.4250 C   0  0  0  0  0  0  0  0  0  0  0  0
   54.7680   26.3420   45.9900 N   0  0  0  0  0  0  0  0  0  0  0  0
   55.9970   26.8330   46.0230 N   0  0  0  0  0  0  0  0  0  0  0  0
   59.5780   27.8670   44.7360 C   0  0  0  0  0  0  0  0  0  0  0  0
   54.6170   30.0039   44.2288 H   0  0  0  0  0  0  0  0  0  0  0  0
   55.5688   30.6753   42.8614 H   0  0  0  0  0  0  0  0  0  0  0  0
   55.0963   28.9422   42.8614 H   0  0  0  0  0  0  0  0  0  0  0  0
   56.5304   29.4995   45.3077 H   0  0  0  0  0  0  0  0  0  0  0  0
   56.9926   28.4165   43.9188 H   0  0  0  0  0  0  0  0  0  0  0  0
   58.2670   29.9370   43.0060 H   0  0  0  0  0  0  0  0  0  0  0  0
   56.3041   31.6956   43.3133 H   0  0  0  0  0  0  0  0  0  0  0  0
   57.5696   32.3473   44.4430 H   0  0  0  0  0  0  0  0  0  0  0  0
   58.9452   32.9761   42.7543 H   0  0  0  0  0  0  0  0  0  0  0  0
   58.5686   31.5254   41.7641 H   0  0  0  0  0  0  0  0  0  0  0  0
   57.4472   32.9286   41.7641 H   0  0  0  0  0  0  0  0  0  0  0  0
   60.6821   29.6193   44.1371 H   0  0  0  0  0  0  0  0  0  0  0  0
   61.7095   28.8017   46.2091 H   0  0  0  0  0  0  0  0  0  0  0  0
   60.9924   30.4585   46.5064 H   0  0  0  0  0  0  0  0  0  0  0  0
   60.6402   28.1847   48.0907 H   0  0  0  0  0  0  0  0  0  0  0  0
   59.6609   29.7331   48.0947 H   0  0  0  0  0  0  0  0  0  0  0  0
   58.4403   27.4110   47.9582 H   0  0  0  0  0  0  0  0  0  0  0  0
   57.9112   28.8072   46.9361 H   0  0  0  0  0  0  0  0  0  0  0  0
   56.5732   23.6273   45.5194 H   0  0  0  0  0  0  0  0  0  0  0  0
   52.5553   25.4017   44.3170 H   0  0  0  0  0  0  0  0  0  0  0  0
   50.5779   23.8866   44.1863 H   0  0  0  0  0  0  0  0  0  0  0  0
   50.5468   21.7536   45.4789 H   0  0  0  0  0  0  0  0  0  0  0  0
   52.4912   21.1332   46.9138 H   0  0  0  0  0  0  0  0  0  0  0  0
   54.4703   22.6428   47.0610 H   0  0  0  0  0  0  0  0  0  0  0  0
   60.4646   27.2644   44.4895 H   0  0  0  0  0  0  0  0  0  0  0  0
   58.8467   27.8649   43.9143 H   0  0  0  0  0  0  0  0  0  0  0  0
  1  2  1  0
  2  3  1  0
  3  4  1  0
  4  5  1  0
  3  6  1  0
  6  7  2  0
  6  8  1  0
  8  9  1  0
  9 10  1  0
 10 11  1  0
 11 12  1  0
 12 13  1  0
 13 14  2  0
 13 15  1  0
 15 16  1  0
 16 17  2  0
 17 18  1  0
 18 19  2  0
 19 20  1  0
 20 21  2  0
 21 22  1  0
 22 23  2  0
 17 24  1  0
 24 25  1  0
 12 26  1  0
 26  8  1  0
 25 15  2  0
 23 18  1  0
  1 27  1  0
  1 28  1  0
  1 29  1  0
  2 30  1  0
  2 31  1  0
  3 32  1  0
  4 33  1  0
  4 34  1  0
  5 35  1  0
  5 36  1  0
  5 37  1  0
  8 38  1  6
  9 39  1  0
  9 40  1  0
 10 41  1  0
 10 42  1  0
 11 43  1  0
 11 44  1  0
 16 45  1  0
 19 46  1  0
 20 47  1  0
 21 48  1  0
 22 49  1  0
 23 50  1  0
 26 51  1  0
 26 52  1  0
M  CHG  2   3   1  24  -1
M  END
>  <UniqueID>  (10) 
10

>  <SMILES>  (10) 
CC[NH+](CC)C(=O)[C@H]1CCCN(C(=O)c2cc(-c3ccccc3)[n-]n2)C1

>  <Energy>  (10) 
96.40559155351383

>  <Genealogy>  (10) 
CC[NH+](CC)C(=O)C1CCCN(C(=O)c2cc(-c3ccccc3)[n-]n2)C1 (protonated)
CC[NH+](CC)C(=O)[C@H]1CCCN(C(=O)c2cc(-c3ccccc3)[n-]n2)C1 (chirality)
CC[NH+](CC)C(=O)[C@H]1CCCN(C(=O)c2cc(-c3ccccc3)[n-]n2)C1 (3D coordinates assigned)
CC[NH+](CC)C(=O)[C@H]1CCCN(C(=O)c2cc(-c3ccccc3)[n-]n2)C1 (nonaromatic ring conformer: 96.40559155351383 kcal/mol)

>  <smiles>  (10) 
CCN(CC)C(=O)C1CCCN(C(=O)c2cc(-c3ccccc3)[nH]n2)C1

>  <score_type>  (10) 
oracle

>  <origin>  (10) 
adg

>  <m_score__min__energy>  (10) 
-9.2899999999999991

>  <m_primary>  (10) 
energy

$$$$
10:0
     RDKit          3D

 34 35  0  0  0  0  0  0  0  0999 V2000
   57.7800   32.0920   42.2610 C   0  0  0  0  0  0  0  0  0  0  0  0
   57.9010   32.4440   43.7130 C   0  0  0  0  0  0  0  0  0  0  0  0
   58.2330   33.7410   44.1370 C   0  0  0  0  0  0  0  0  0  0  0  0
   58.3610   33.8690   45.5130 C   0  0  0  0  0  0  0  0  0  0  0  0
   58.0530   32.3720   46.2080 S   0  0  0  0  0  0  0  0  0  0  0  0
   57.7320   31.5480   44.7770 C   0  0  0  0  0  0  0  0  0  0  0  0
   57.3920   30.1150   44.7190 C   0  0  0  0  0  0  0  0  0  0  0  0
   56.2730   29.7420   45.1620 O   0  0  0  0  0  0  0  0  0  0  0  0
   58.3050   29.1600   44.1500 N   0  0  0  0  0  0  0  0  0  0  0  0
   58.0630   27.7440   44.1040 C   0  0  0  0  0  0  0  0  0  0  0  0
   58.0240   27.0960   42.8630 C   0  0  0  0  0  0  0  0  0  0  0  0
   57.7680   25.7240   42.7850 C   0  0  0  0  0  0  0  0  0  0  0  0
   57.5250   24.9670   43.9510 C   0  0  0  0  0  0  0  0  0  0  0  0
   57.2600   23.5420   43.8730 N   0  0  0  0  0  0  0  0  0  0  0  0
   56.1720   23.0300   43.0300 C   0  0  0  0  0  0  0  0  0  0  0  0
   58.0740   22.5880   44.6360 C   0  0  0  0  0  0  0  0  0  0  0  0
   57.5400   25.6340   45.1930 C   0  0  0  0  0  0  0  0  0  0  0  0
   57.7970   27.0060   45.2680 C   0  0  0  0  0  0  0  0  0  0  0  0
   57.4238   31.0559   42.1634 H   0  0  0  0  0  0  0  0  0  0  0  0
   57.0643   32.7729   41.7771 H   0  0  0  0  0  0  0  0  0  0  0  0
   58.7631   32.1889   41.7771 H   0  0  0  0  0  0  0  0  0  0  0  0
   58.3786   34.5802   43.4409 H   0  0  0  0  0  0  0  0  0  0  0  0
   58.6194   34.7911   46.0543 H   0  0  0  0  0  0  0  0  0  0  0  0
   59.2280   29.4970   43.7980 H   0  0  0  0  0  0  0  0  0  0  0  0
   58.1963   27.6717   41.9417 H   0  0  0  0  0  0  0  0  0  0  0  0
   57.7558   25.2285   41.8030 H   0  0  0  0  0  0  0  0  0  0  0  0
   55.3617   22.6487   43.6687 H   0  0  0  0  0  0  0  0  0  0  0  0
   55.7873   23.8416   42.3949 H   0  0  0  0  0  0  0  0  0  0  0  0
   56.5521   22.2163   42.3949 H   0  0  0  0  0  0  0  0  0  0  0  0
   57.9274   22.7598   45.7126 H   0  0  0  0  0  0  0  0  0  0  0  0
   57.7690   21.5617   44.3836 H   0  0  0  0  0  0  0  0  0  0  0  0
   59.1355   22.7276   44.3836 H   0  0  0  0  0  0  0  0  0  0  0  0
   57.3468   25.0670   46.1156 H   0  0  0  0  0  0  0  0  0  0  0  0
   57.7907   27.5105   46.2455 H   0  0  0  0  0  0  0  0  0  0  0  0
  1  2  1  0
  2  3  1  0
  3  4  2  0
  4  5  1  0
  5  6  1  0
  6  7  1  0
  7  8  2  0
  7  9  1  0
  9 10  1  0
 10 11  2  0
 11 12  1  0
 12 13  2  0
 13 14  1  0
 14 15  1  0
 14 16  1  0
 13 17  1  0
 17 18  2  0
  6  2  2  0
 18 10  1  0
  1 19  1  0
  1 20  1  0
  1 21  1  0
  3 22  1  0
  4 23  1  0
  9 24  1  0
 11 25  1  0
 12 26  1  0
 15 27  1  0
 15 28  1  0
 15 29  1  0
 16 30  1  0
 16 31  1  0
 16 32  1  0
 17 33  1  0
 18 34  1  0
M  END
>  <UniqueID>  (11) 
11

>  <SMILES>  (11) 
Cc1ccsc1C(=O)Nc1ccc(N(C)C)cc1

>  <Energy>  (11) 
67.91924901285132

>  <Genealogy>  (11) 
Cc1ccsc1C(=O)Nc1ccc(N(C)C)cc1 (3D coordinates assigned)
Cc1ccsc1C(=O)Nc1ccc(N(C)C)cc1 (optimized conformer: 67.91924901285132 kcal/mol)

>  <smiles>  (11) 
Cc1ccsc1C(=O)Nc1ccc(N(C)C)cc1

>  <score_type>  (11) 
oracle

>  <origin>  (11) 
adg

>  <m_score__min__energy>  (11) 
-6.5499999999999998

>  <m_primary>  (11) 
energy

$$$$
11:0
     RDKit          3D

 27 28  0  0  0  0  0  0  0  0999 V2000
   55.5230   29.7580   43.5660 C   0  0  0  0  0  0  0  0  0  0  0  0
   56.0850   29.6910   44.8730 O   0  0  0  0  0  0  0  0  0  0  0  0
   57.4480   29.4900   45.1430 C   0  0  0  0  0  0  0  0  0  0  0  0
   58.0780   28.2480   44.9250 C   0  0  0  0  0  0  0  0  0  0  0  0
   59.4270   28.0750   45.2460 C   0  0  0  0  0  0  0  0  0  0  0  0
   60.1580   29.1290   45.7930 C   0  0  0  0  0  0  0  0  0  0  0  0
   59.5450   30.3670   46.0100 C   0  0  0  0  0  0  0  0  0  0  0  0
   58.2040   30.5620   45.6610 C   0  0  0  0  0  0  0  0  0  0  0  0
   57.6000   31.8390   45.9230 N   0  0  0  0  0  0  0  0  0  0  0  0
   58.2200   32.9620   46.1620 C   0  0  0  0  0  0  0  0  0  0  0  0
   58.5350   33.7970   45.0830 C   0  0  0  0  0  0  0  0  0  0  0  0
   59.1930   35.0090   45.3110 C   0  0  0  0  0  0  0  0  0  0  0  0
   59.5180   35.3830   46.5770 N   0  0  0  0  0  0  0  0  0  0  0  0
   59.2130   34.6020   47.6480 C   0  0  0  0  0  0  0  0  0  0  0  0
   58.5550   33.3820   47.4650 C   0  0  0  0  0  0  0  0  0  0  0  0
   54.4333   29.8879   43.6417 H   0  0  0  0  0  0  0  0  0  0  0  0
   55.9571   30.6107   43.0235 H   0  0  0  0  0  0  0  0  0  0  0  0
   55.7445   28.8271   43.0235 H   0  0  0  0  0  0  0  0  0  0  0  0
   57.5049   27.4108   44.5001 H   0  0  0  0  0  0  0  0  0  0  0  0
   59.9135   27.1049   45.0667 H   0  0  0  0  0  0  0  0  0  0  0  0
   61.2171   28.9866   46.0539 H   0  0  0  0  0  0  0  0  0  0  0  0
   60.1197   31.1915   46.4572 H   0  0  0  0  0  0  0  0  0  0  0  0
   58.2654   33.5000   44.0587 H   0  0  0  0  0  0  0  0  0  0  0  0
   59.4486   35.6621   44.4636 H   0  0  0  0  0  0  0  0  0  0  0  0
   60.0090   36.2930   46.7320 H   0  0  0  0  0  0  0  0  0  0  0  0
   59.4850   34.9314   48.6617 H   0  0  0  0  0  0  0  0  0  0  0  0
   58.3006   32.7544   48.3318 H   0  0  0  0  0  0  0  0  0  0  0  0
  1  2  1  0
  2  3  1  0
  3  4  2  0
  4  5  1  0
  5  6  2  0
  6  7  1  0
  7  8  2  0
  8  9  1  0
  9 10  2  3
 10 11  1  0
 11 12  2  0
 12 13  1  0
 13 14  1  0
 14 15  2  0
  8  3  1  0
 15 10  1  0
  1 16  1  0
  1 17  1  0
  1 18  1  0
  4 19  1  0
  5 20  1  0
  6 21  1  0
  7 22  1  0
 11 23  1  0
 12 24  1  0
 13 25  1  0
 14 26  1  0
 15 27  1  0
M  END
>  <UniqueID>  (12) 
12

>  <SMILES>  (12) 
COc1ccccc1N=c1cc[nH]cc1

>  <Energy>  (12) 
37.057778050288526

>  <Genealogy>  (12) 
COc1ccccc1N=c1cc[nH]cc1 (3D coordinates assigned)
COc1ccccc1N=c1cc[nH]cc1 (optimized conformer: 37.057778050288526 kcal/mol)

>  <smiles>  (12) 
COc1ccccc1N=c1cc[nH]cc1

>  <score_type>  (12) 
oracle

>  <origin>  (12) 
adg

>  <m_score__min__energy>  (12) 
-5.8799999999999999

>  <m_primary>  (12) 
energy

$$$$
12:0
     RDKit          3D

 52 55  0  0  0  0  0  0  0  0999 V2000
   60.3150   29.6790   47.5750 C   0  0  0  0  0  0  0  0  0  0  0  0
   60.3200   28.2900   47.6560 C   0  0  0  0  0  0  0  0  0  0  0  0
   59.5920   27.5430   46.7260 C   0  0  0  0  0  0  0  0  0  0  0  0
   59.5970   26.1410   46.7920 C   0  0  0  0  0  0  0  0  0  0  0  0
   58.8820   25.3910   45.8570 C   0  0  0  0  0  0  0  0  0  0  0  0
   58.1320   26.0340   44.8660 C   0  0  0  0  0  0  0  0  0  0  0  0
   58.1230   27.4320   44.7850 C   0  0  0  0  0  0  0  0  0  0  0  0
   58.8520   28.2060   45.7130 C   0  0  0  0  0  0  0  0  0  0  0  0
   58.8720   29.6260   45.6760 C   0  0  0  0  0  0  0  0  0  0  0  0
   58.1250   30.4130   44.6210 C   0  0  0  0  0  0  0  0  0  0  0  0
   57.3980   31.5380   45.2270 N   0  0  0  0  0  0  0  0  0  0  0  0
   57.4900   32.7760   44.4310 C   0  0  0  0  0  0  0  0  0  0  0  0
   57.1570   34.0310   45.2570 C   0  0  0  0  0  0  0  0  0  0  0  0
   57.5430   33.8270   46.7380 C   0  0  0  0  0  0  0  0  0  0  0  0
   58.9350   33.3750   46.9540 N   0  0  0  0  0  0  0  0  0  0  0  0
   59.2630   33.1380   48.3740 C   0  0  0  0  0  0  0  0  0  0  0  0
   60.7700   32.8610   48.5450 C   0  0  0  0  0  0  0  0  0  0  0  0
   61.3430   32.4470   47.3210 O   0  0  0  0  0  0  0  0  0  0  0  0
   61.3300   33.5190   46.3900 C   0  0  0  0  0  0  0  0  0  0  0  0
   59.9520   34.2110   46.2960 C   0  0  0  0  0  0  0  0  0  0  0  0
   59.6050   30.3110   46.6040 N   0  0  0  0  0  0  0  0  0  0  0  0
   57.3680   25.2360   43.9520 N   0  0  0  0  0  0  0  0  0  0  0  0
   57.1610   23.8120   44.2170 C   0  0  0  0  0  0  0  0  0  0  0  0
   58.4320   23.2000   44.8140 C   0  0  0  0  0  0  0  0  0  0  0  0
   58.9060   23.9930   45.9050 O   0  0  0  0  0  0  0  0  0  0  0  0
   60.8903   30.2701   48.3027 H   0  0  0  0  0  0  0  0  0  0  0  0
   60.8930   27.7834   48.4466 H   0  0  0  0  0  0  0  0  0  0  0  0
   60.1664   25.6316   47.5834 H   0  0  0  0  0  0  0  0  0  0  0  0
   57.5441   27.9299   43.9932 H   0  0  0  0  0  0  0  0  0  0  0  0
   58.8438   30.8025   43.8851 H   0  0  0  0  0  0  0  0  0  0  0  0
   57.3995   29.7467   44.1315 H   0  0  0  0  0  0  0  0  0  0  0  0
   57.7750   31.7070   46.1880 H   0  0  0  0  0  0  0  0  0  0  0  0
   58.5147   32.8706   44.0423 H   0  0  0  0  0  0  0  0  0  0  0  0
   56.7544   32.7061   43.6161 H   0  0  0  0  0  0  0  0  0  0  0  0
   57.7156   34.8881   44.8529 H   0  0  0  0  0  0  0  0  0  0  0  0
   56.0748   34.2181   45.1958 H   0  0  0  0  0  0  0  0  0  0  0  0
   57.4075   34.7841   47.2630 H   0  0  0  0  0  0  0  0  0  0  0  0
   56.8921   33.0282   47.1231 H   0  0  0  0  0  0  0  0  0  0  0  0
   58.9902   34.0273   48.9611 H   0  0  0  0  0  0  0  0  0  0  0  0
   58.6995   32.2613   48.7261 H   0  0  0  0  0  0  0  0  0  0  0  0
   61.2699   33.7798   48.8854 H   0  0  0  0  0  0  0  0  0  0  0  0
   60.9007   32.0589   49.2863 H   0  0  0  0  0  0  0  0  0  0  0  0
   62.0773   34.2639   46.7008 H   0  0  0  0  0  0  0  0  0  0  0  0
   61.5598   33.1008   45.3989 H   0  0  0  0  0  0  0  0  0  0  0  0
   59.9993   35.1905   46.7943 H   0  0  0  0  0  0  0  0  0  0  0  0
   59.6834   34.3491   45.2383 H   0  0  0  0  0  0  0  0  0  0  0  0
   59.6360   31.3550   46.5780 H   0  0  0  0  0  0  0  0  0  0  0  0
   56.8760   25.6820   43.1460 H   0  0  0  0  0  0  0  0  0  0  0  0
   56.3299   23.6907   44.9274 H   0  0  0  0  0  0  0  0  0  0  0  0
   56.9227   23.3000   43.2730 H   0  0  0  0  0  0  0  0  0  0  0  0
   58.2099   22.1847   45.1744 H   0  0  0  0  0  0  0  0  0  0  0  0
   59.2089   23.1653   44.0361 H   0  0  0  0  0  0  0  0  0  0  0  0
  1  2  2  0
  2  3  1  0
  3  4  2  0
  4  5  1  0
  5  6  2  0
  6  7  1  0
  7  8  2  0
  8  9  1  0
  9 10  1  0
 10 11  1  0
 11 12  1  0
 12 13  1  0
 13 14  1  0
 14 15  1  0
 15 16  1  0
 16 17  1  0
 17 18  1  0
 18 19  1  0
 19 20  1  0
  9 21  2  0
  6 22  1  0
 22 23  1  0
 23 24  1  0
 24 25  1  0
 21  1  1  0
  8  3  1  0
 20 15  1  0
 25  5  1  0
  1 26  1  0
  2 27  1  0
  4 28  1  0
  7 29  1  0
 10 30  1  0
 10 31  1  0
 11 32  1  0
 12 33  1  0
 12 34  1  0
 13 35  1  0
 13 36  1  0
 14 37  1  0
 14 38  1  0
 16 39  1  0
 16 40  1  0
 17 41  1  0
 17 42  1  0
 19 43  1  0
 19 44  1  0
 20 45  1  0
 20 46  1  0
 21 47  1  0
 22 48  1  0
 23 49  1  0
 23 50  1  0
 24 51  1  0
 24 52  1  0
M  CHG  1  21   1
M  END
>  <UniqueID>  (13) 
13

>  <SMILES>  (13) 
c1cc2cc3c(cc2c(CNCCCN2CCOCC2)[nH+]1)NCCO3

>  <Energy>  (13) 
69.55451914721125

>  <Genealogy>  (13) 
c1cc2cc3c(cc2c(CNCCCN2CCOCC2)[nH+]1)NCCO3 (protonated)
c1cc2cc3c(cc2c(CNCCCN2CCOCC2)[nH+]1)NCCO3 (3D coordinates assigned)
c1cc2cc3c(cc2c(CNCCCN2CCOCC2)[nH+]1)NCCO3 (nonaromatic ring conformer: 69.55451914721125 kcal/mol)

>  <smiles>  (13) 
c1cc2cc3c(cc2c(CNCCCN2CCOCC2)n1)NCCO3

>  <score_type>  (13) 
oracle

>  <origin>  (13) 
adg

>  <m_score__min__energy>  (13) 
-7.1399999999999997

>  <m_primary>  (13) 
energy

$$$$
13:0
     RDKit          3D

 47 48  0  0  0  0  0  0  0  0999 V2000
   56.2610   24.0670   44.2270 C   0  0  0  0  0  0  0  0  0  0  0  0
   55.2550   24.1510   45.3690 C   0  0  0  0  0  0  0  0  0  0  0  0
   55.7750   24.9780   46.4530 N   0  0  0  0  0  0  0  0  0  0  0  0
   56.2420   26.3180   46.2730 C   0  0  0  0  0  0  0  0  0  0  0  0
   55.5510   27.1570   45.6340 O   0  0  0  0  0  0  0  0  0  0  0  0
   57.5890   26.7110   46.7980 C   0  0  0  0  0  0  0  0  0  0  0  0
   58.5250   27.1830   45.6740 C   0  0  0  0  0  0  0  0  0  0  0  0
   57.9380   28.3480   44.8940 C   0  0  0  0  0  0  0  0  0  0  0  0
   57.5730   28.2110   43.5270 C   0  0  0  0  0  0  0  0  0  0  0  0
   57.8220   26.9370   42.7590 C   0  0  0  0  0  0  0  0  0  0  0  0
   57.0020   29.3010   42.8520 C   0  0  0  0  0  0  0  0  0  0  0  0
   56.7740   30.5050   43.5110 C   0  0  0  0  0  0  0  0  0  0  0  0
   57.1220   30.6470   44.8520 C   0  0  0  0  0  0  0  0  0  0  0  0
   57.7110   29.5800   45.5550 C   0  0  0  0  0  0  0  0  0  0  0  0
   58.0730   29.6980   46.9110 O   0  0  0  0  0  0  0  0  0  0  0  0
   59.2360   30.3550   47.4150 C   0  0  0  0  0  0  0  0  0  0  0  0
   58.8730   31.7280   47.9860 C   0  0  0  0  0  0  0  0  0  0  0  0
   58.7240   32.7380   46.8810 C   0  0  0  0  0  0  0  0  0  0  0  0
   59.8590   33.2400   46.2220 C   0  0  0  0  0  0  0  0  0  0  0  0
   59.7210   34.2030   45.2180 C   0  0  0  0  0  0  0  0  0  0  0  0
   58.4530   34.6780   44.8730 C   0  0  0  0  0  0  0  0  0  0  0  0
   57.3200   34.1940   45.5340 C   0  0  0  0  0  0  0  0  0  0  0  0
   57.4550   33.2300   46.5380 C   0  0  0  0  0  0  0  0  0  0  0  0
   57.2773   23.9821   44.6392 H   0  0  0  0  0  0  0  0  0  0  0  0
   56.0411   23.1841   43.6088 H   0  0  0  0  0  0  0  0  0  0  0  0
   56.1906   24.9742   43.6088 H   0  0  0  0  0  0  0  0  0  0  0  0
   54.3195   24.5923   44.9947 H   0  0  0  0  0  0  0  0  0  0  0  0
   55.0707   23.1372   45.7540 H   0  0  0  0  0  0  0  0  0  0  0  0
   57.4636   27.5283   47.5235 H   0  0  0  0  0  0  0  0  0  0  0  0
   58.0421   25.8276   47.2715 H   0  0  0  0  0  0  0  0  0  0  0  0
   59.4810   27.4985   46.1173 H   0  0  0  0  0  0  0  0  0  0  0  0
   58.6667   26.3446   44.9761 H   0  0  0  0  0  0  0  0  0  0  0  0
   57.9838   26.1090   43.4649 H   0  0  0  0  0  0  0  0  0  0  0  0
   56.9504   26.7141   42.1260 H   0  0  0  0  0  0  0  0  0  0  0  0
   58.7134   27.0587   42.1260 H   0  0  0  0  0  0  0  0  0  0  0  0
   56.7318   29.2023   41.7903 H   0  0  0  0  0  0  0  0  0  0  0  0
   56.3173   31.3475   42.9710 H   0  0  0  0  0  0  0  0  0  0  0  0
   56.9348   31.6014   45.3659 H   0  0  0  0  0  0  0  0  0  0  0  0
   59.6833   29.7396   48.2095 H   0  0  0  0  0  0  0  0  0  0  0  0
   59.9520   30.4911   46.5911 H   0  0  0  0  0  0  0  0  0  0  0  0
   57.9236   31.6513   48.5362 H   0  0  0  0  0  0  0  0  0  0  0  0
   59.6779   32.0559   48.6603 H   0  0  0  0  0  0  0  0  0  0  0  0
   60.8593   32.8741   46.4970 H   0  0  0  0  0  0  0  0  0  0  0  0
   60.6116   34.5872   44.6991 H   0  0  0  0  0  0  0  0  0  0  0  0
   58.3461   35.4334   44.0806 H   0  0  0  0  0  0  0  0  0  0  0  0
   56.3226   34.5714   45.2643 H   0  0  0  0  0  0  0  0  0  0  0  0
   56.5628   32.8556   47.0612 H   0  0  0  0  0  0  0  0  0  0  0  0
  1  2  1  0
  2  3  1  0
  3  4  1  0
  4  5  2  0
  4  6  1  0
  6  7  1  0
  7  8  1  0
  8  9  2  0
  9 10  1  0
  9 11  1  0
 11 12  2  0
 12 13  1  0
 13 14  2  0
 14 15  1  0
 15 16  1  0
 16 17  1  0
 17 18  1  0
 18 19  2  0
 19 20  1  0
 20 21  2  0
 21 22  1  0
 22 23  2  0
 14  8  1  0
 23 18  1  0
  1 24  1  0
  1 25  1  0
  1 26  1  0
  2 27  1  0
  2 28  1  0
  6 29  1  0
  6 30  1  0
  7 31  1  0
  7 32  1  0
 10 33  1  0
 10 34  1  0
 10 35  1  0
 11 36  1  0
 12 37  1  0
 13 38  1  0
 16 39  1  0
 16 40  1  0
 17 41  1  0
 17 42  1  0
 19 43  1  0
 20 44  1  0
 21 45  1  0
 22 46  1  0
 23 47  1  0
M  CHG  1   3  -1
M  END
>  <UniqueID>  (14) 
14

>  <SMILES>  (14) 
CC[N-]C(=O)CCc1c(C)cccc1OCCc1ccccc1

>  <Energy>  (14) 
37.33283745531

>  <Genealogy>  (14) 
CC[N-]C(=O)CCc1c(C)cccc1OCCc1ccccc1 (protonated)
CC[N-]C(=O)CCc1c(C)cccc1OCCc1ccccc1 (3D coordinates assigned)
CC[N-]C(=O)CCc1c(C)cccc1OCCc1ccccc1 (optimized conformer: 37.33283745531 kcal/mol)

>  <smiles>  (14) 
CCNC(=O)CCc1c(C)cccc1OCCc1ccccc1

>  <score_type>  (14) 
oracle

>  <origin>  (14) 
adg

>  <m_score__min__energy>  (14) 
-9.9100000000000001

>  <m_primary>  (14) 
energy

$$$$
14:0
     RDKit          3D

 46 47  0  0  0  0  0  0  0  0999 V2000
   57.0280   24.9530   44.8110 C   0  0  0  0  0  0  0  0  0  0  0  0
   55.7850   25.1910   45.6610 C   0  0  0  0  0  0  0  0  0  0  0  0
   55.8940   26.4210   46.3730 O   0  0  0  0  0  0  0  0  0  0  0  0
   57.1170   27.0350   46.6700 C   0  0  0  0  0  0  0  0  0  0  0  0
   57.9160   26.5110   47.4960 O   0  0  0  0  0  0  0  0  0  0  0  0
   57.4680   28.3460   46.0250 C   0  0  0  0  0  0  0  0  0  0  0  0
   56.6390   28.5690   44.7430 C   0  0  0  0  0  0  0  0  0  0  0  0
   57.4010   29.3290   43.6370 C   0  0  0  0  0  0  0  0  0  0  0  0
   58.3900   30.3030   44.1430 N   0  0  0  0  0  0  0  0  0  0  0  0
   57.6940   31.8660   44.5160 S   0  0  0  0  0  0  0  0  0  0  0  0
   56.2430   31.6940   44.8680 O   0  0  0  0  0  0  0  0  0  0  0  0
   57.7690   32.7420   43.2950 O   0  0  0  0  0  0  0  0  0  0  0  0
   58.5220   32.6750   45.8480 C   0  0  0  0  0  0  0  0  0  0  0  0
   59.3280   33.7930   45.6020 C   0  0  0  0  0  0  0  0  0  0  0  0
   59.9990   34.4230   46.6520 C   0  0  0  0  0  0  0  0  0  0  0  0
   59.8650   33.9510   47.9710 C   0  0  0  0  0  0  0  0  0  0  0  0
   60.5390   34.5530   49.0470 O   0  0  0  0  0  0  0  0  0  0  0  0
   61.8410   34.1850   49.4910 C   0  0  0  0  0  0  0  0  0  0  0  0
   59.0310   32.8440   48.2250 C   0  0  0  0  0  0  0  0  0  0  0  0
   58.8790   32.3150   49.6230 C   0  0  0  0  0  0  0  0  0  0  0  0
   58.3620   32.2150   47.1610 C   0  0  0  0  0  0  0  0  0  0  0  0
   59.3210   29.8110   45.1860 C   0  0  0  0  0  0  0  0  0  0  0  0
   58.9660   28.4210   45.7300 C   0  0  0  0  0  0  0  0  0  0  0  0
   57.8949   24.7870   45.4675 H   0  0  0  0  0  0  0  0  0  0  0  0
   56.8741   24.0680   44.1761 H   0  0  0  0  0  0  0  0  0  0  0  0
   57.2119   25.8322   44.1761 H   0  0  0  0  0  0  0  0  0  0  0  0
   54.9013   25.2286   45.0071 H   0  0  0  0  0  0  0  0  0  0  0  0
   55.6869   24.3688   46.3851 H   0  0  0  0  0  0  0  0  0  0  0  0
   57.2197   29.1521   46.7311 H   0  0  0  0  0  0  0  0  0  0  0  0
   56.3402   27.5871   44.3472 H   0  0  0  0  0  0  0  0  0  0  0  0
   55.7745   29.1890   45.0225 H   0  0  0  0  0  0  0  0  0  0  0  0
   57.9296   28.5927   43.0138 H   0  0  0  0  0  0  0  0  0  0  0  0
   56.6509   29.9036   43.0738 H   0  0  0  0  0  0  0  0  0  0  0  0
   59.4332   34.1770   44.5766 H   0  0  0  0  0  0  0  0  0  0  0  0
   60.6373   35.2950   46.4466 H   0  0  0  0  0  0  0  0  0  0  0  0
   61.8651   34.1782   50.5907 H   0  0  0  0  0  0  0  0  0  0  0  0
   62.0876   33.1820   49.1126 H   0  0  0  0  0  0  0  0  0  0  0  0
   62.5761   34.9106   49.1126 H   0  0  0  0  0  0  0  0  0  0  0  0
   59.1084   33.1134   50.3441 H   0  0  0  0  0  0  0  0  0  0  0  0
   57.8454   31.9702   49.7742 H   0  0  0  0  0  0  0  0  0  0  0  0
   59.5719   31.4741   49.7742 H   0  0  0  0  0  0  0  0  0  0  0  0
   57.7072   31.3541   47.3613 H   0  0  0  0  0  0  0  0  0  0  0  0
   60.3320   29.7664   44.7548 H   0  0  0  0  0  0  0  0  0  0  0  0
   59.2531   30.5118   46.0312 H   0  0  0  0  0  0  0  0  0  0  0  0
   59.2293   27.6583   44.9824 H   0  0  0  0  0  0  0  0  0  0  0  0
   59.5279   28.2405   46.6583 H   0  0  0  0  0  0  0  0  0  0  0  0
  1  2  1  0
  2  3  1  0
  3  4  1  0
  4  5  2  0
  4  6  1  0
  6  7  1  0
  7  8  1  0
  8  9  1  0
  9 10  1  0
 10 11  2  0
 10 12  2  0
 10 13  1  0
 13 14  2  0
 14 15  1  0
 15 16  2  0
 16 17  1  0
 17 18  1  0
 16 19  1  0
 19 20  1  0
 19 21  2  0
  9 22  1  0
 22 23  1  0
 23  6  1  0
 21 13  1  0
  1 24  1  0
  1 25  1  0
  1 26  1  0
  2 27  1  0
  2 28  1  0
  6 29  1  0
  7 30  1  0
  7 31  1  0
  8 32  1  0
  8 33  1  0
 14 34  1  0
 15 35  1  0
 18 36  1  0
 18 37  1  0
 18 38  1  0
 20 39  1  0
 20 40  1  0
 20 41  1  0
 21 42  1  0
 22 43  1  0
 22 44  1  0
 23 45  1  0
 23 46  1  0
M  END
>  <UniqueID>  (15) 
15

>  <SMILES>  (15) 
CCOC(=O)C1CCN(S(=O)(=O)c2ccc(OC)c(C)c2)CC1

>  <Energy>  (15) 
46.947864217931816

>  <Genealogy>  (15) 
CCOC(=O)C1CCN(S(=O)(=O)c2ccc(OC)c(C)c2)CC1 (3D coordinates assigned)
CCOC(=O)C1CCN(S(=O)(=O)c2ccc(OC)c(C)c2)CC1 (nonaromatic ring conformer: 46.947864217931816 kcal/mol)

>  <smiles>  (15) 
CCOC(=O)C1CCN(S(=O)(=O)c2ccc(OC)c(C)c2)CC1

>  <score_type>  (15) 
oracle

>  <origin>  (15) 
adg

>  <m_score__min__energy>  (15) 
-7.29

>  <m_primary>  (15) 
energy

$$$$
15:0
     RDKit          3D

 46 47  0  0  0  0  0  0  0  0999 V2000
   57.0650   34.1520   45.1120 C   0  0  0  0  0  0  0  0  0  0  0  0
   58.2600   33.9720   46.0010 C   0  0  0  0  0  0  0  0  0  0  0  0
   59.5310   34.3570   45.5530 C   0  0  0  0  0  0  0  0  0  0  0  0
   60.6430   34.2110   46.3850 C   0  0  0  0  0  0  0  0  0  0  0  0
   60.4900   33.6950   47.6750 C   0  0  0  0  0  0  0  0  0  0  0  0
   59.2250   33.3330   48.1530 C   0  0  0  0  0  0  0  0  0  0  0  0
   59.1380   32.8390   49.4660 O   0  0  0  0  0  0  0  0  0  0  0  0
   58.7190   31.5290   49.8580 C   0  0  0  0  0  0  0  0  0  0  0  0
   59.4930   30.4420   49.1020 C   0  0  0  0  0  0  0  0  0  0  0  0
   58.8640   30.0980   47.7480 C   0  0  0  0  0  0  0  0  0  0  0  0
   59.9300   30.0150   46.6450 C   0  0  0  0  0  0  0  0  0  0  0  0
   59.8450   28.7000   45.8530 C   0  0  0  0  0  0  0  0  0  0  0  0
   59.1600   28.8790   44.4910 C   0  0  0  0  0  0  0  0  0  0  0  0
   57.6990   29.1740   44.6710 C   0  0  0  0  0  0  0  0  0  0  0  0
   56.9930   30.2670   44.2040 C   0  0  0  0  0  0  0  0  0  0  0  0
   57.5530   31.4330   43.4560 C   0  0  0  0  0  0  0  0  0  0  0  0
   55.6890   30.1250   44.5110 N   0  0  0  0  0  0  0  0  0  0  0  0
   55.5320   28.9750   45.1510 N   0  0  0  0  0  0  0  0  0  0  0  0
   56.7330   28.3750   45.2520 C   0  0  0  0  0  0  0  0  0  0  0  0
   56.9530   27.0530   45.9130 C   0  0  0  0  0  0  0  0  0  0  0  0
   58.1070   33.4740   47.3050 C   0  0  0  0  0  0  0  0  0  0  0  0
   56.1652   34.2875   45.7301 H   0  0  0  0  0  0  0  0  0  0  0  0
   57.2106   35.0384   44.4770 H   0  0  0  0  0  0  0  0  0  0  0  0
   56.9430   33.2621   44.4770 H   0  0  0  0  0  0  0  0  0  0  0  0
   59.6530   34.7754   44.5430 H   0  0  0  0  0  0  0  0  0  0  0  0
   61.6406   34.5024   46.0247 H   0  0  0  0  0  0  0  0  0  0  0  0
   61.3720   33.5722   48.3208 H   0  0  0  0  0  0  0  0  0  0  0  0
   58.8924   31.4062   50.9373 H   0  0  0  0  0  0  0  0  0  0  0  0
   57.6507   31.4221   49.6185 H   0  0  0  0  0  0  0  0  0  0  0  0
   60.5206   30.7958   48.9324 H   0  0  0  0  0  0  0  0  0  0  0  0
   59.4715   29.5310   49.7181 H   0  0  0  0  0  0  0  0  0  0  0  0
   58.3525   29.1273   47.8263 H   0  0  0  0  0  0  0  0  0  0  0  0
   58.1505   30.8924   47.4836 H   0  0  0  0  0  0  0  0  0  0  0  0
   59.7878   30.8564   45.9509 H   0  0  0  0  0  0  0  0  0  0  0  0
   60.9181   30.0559   47.1266 H   0  0  0  0  0  0  0  0  0  0  0  0
   60.8643   28.3205   45.6884 H   0  0  0  0  0  0  0  0  0  0  0  0
   59.2412   27.9933   46.4412 H   0  0  0  0  0  0  0  0  0  0  0  0
   59.6343   29.7139   43.9544 H   0  0  0  0  0  0  0  0  0  0  0  0
   59.2662   27.9481   43.9147 H   0  0  0  0  0  0  0  0  0  0  0  0
   57.9152   32.1871   44.1702 H   0  0  0  0  0  0  0  0  0  0  0  0
   58.3877   31.0963   42.8236 H   0  0  0  0  0  0  0  0  0  0  0  0
   56.7684   31.8740   42.8236 H   0  0  0  0  0  0  0  0  0  0  0  0
   56.9317   27.1811   47.0053 H   0  0  0  0  0  0  0  0  0  0  0  0
   56.1587   26.3549   45.6101 H   0  0  0  0  0  0  0  0  0  0  0  0
   57.9306   26.6498   45.6101 H   0  0  0  0  0  0  0  0  0  0  0  0
   57.1076   33.1918   47.6678 H   0  0  0  0  0  0  0  0  0  0  0  0
  1  2  1  0
  2  3  2  0
  3  4  1  0
  4  5  2  0
  5  6  1  0
  6  7  1  0
  7  8  1  0
  8  9  1  0
  9 10  1  0
 10 11  1  0
 11 12  1  0
 12 13  1  0
 13 14  1  0
 14 15  1  0
 15 16  1  0
 15 17  2  0
 17 18  1  0
 18 19  1  0
 19 20  1  0
  6 21  2  0
 21  2  1  0
 19 14  2  0
  1 22  1  0
  1 23  1  0
  1 24  1  0
  3 25  1  0
  4 26  1  0
  5 27  1  0
  8 28  1  0
  8 29  1  0
  9 30  1  0
  9 31  1  0
 10 32  1  0
 10 33  1  0
 11 34  1  0
 11 35  1  0
 12 36  1  0
 12 37  1  0
 13 38  1  0
 13 39  1  0
 16 40  1  0
 16 41  1  0
 16 42  1  0
 20 43  1  0
 20 44  1  0
 20 45  1  0
 21 46  1  0
M  CHG  1  18  -1
M  END
>  <UniqueID>  (16) 
16

>  <SMILES>  (16) 
Cc1cccc(OCCCCCCc2c(C)n[n-]c2C)c1

>  <Energy>  (16) 
61.990725807208186

>  <Genealogy>  (16) 
Cc1cccc(OCCCCCCc2c(C)n[n-]c2C)c1 (protonated)
Cc1cccc(OCCCCCCc2c(C)n[n-]c2C)c1 (3D coordinates assigned)
Cc1cccc(OCCCCCCc2c(C)n[n-]c2C)c1 (optimized conformer: 61.990725807208186 kcal/mol)

>  <smiles>  (16) 
Cc1cccc(OCCCCCCc2c(C)n[nH]c2C)c1

>  <score_type>  (16) 
oracle

>  <origin>  (16) 
adg

>  <m_score__min__energy>  (16) 
-9.4600000000000009

>  <m_primary>  (16) 
energy

$$$$
16:0
     RDKit          3D

 48 51  0  0  0  0  0  0  0  0999 V2000
   56.7470   23.0930   43.9190 C   0  0  0  0  0  0  0  0  0  0  0  0
   55.7180   23.8590   44.6910 C   0  0  0  0  0  0  0  0  0  0  0  0
   54.3700   23.5700   44.7500 C   0  0  0  0  0  0  0  0  0  0  0  0
   53.8170   24.5310   45.5710 C   0  0  0  0  0  0  0  0  0  0  0  0
   54.7530   25.3530   45.9900 O   0  0  0  0  0  0  0  0  0  0  0  0
   55.9060   24.9830   45.4830 C   0  0  0  0  0  0  0  0  0  0  0  0
   57.1740   25.6890   45.7510 C   0  0  0  0  0  0  0  0  0  0  0  0
   58.0070   25.2010   46.5600 O   0  0  0  0  0  0  0  0  0  0  0  0
   57.4680   26.9130   45.0570 N   0  0  0  0  0  0  0  0  0  0  0  0
   58.5390   27.8030   45.4150 C   0  0  0  0  0  0  0  0  0  0  0  0
   59.5540   28.1360   44.5000 C   0  0  0  0  0  0  0  0  0  0  0  0
   60.5920   28.9880   44.8800 C   0  0  0  0  0  0  0  0  0  0  0  0
   60.6440   29.5000   46.1780 C   0  0  0  0  0  0  0  0  0  0  0  0
   59.6660   29.1390   47.1200 C   0  0  0  0  0  0  0  0  0  0  0  0
   59.7310   29.6790   48.5230 C   0  0  0  0  0  0  0  0  0  0  0  0
   60.0830   31.4780   48.5590 S   0  0  0  0  0  0  0  0  0  0  0  0
   58.4770   32.0580   47.8900 C   0  0  0  0  0  0  0  0  0  0  0  0
   58.6300   32.7130   46.5280 C   0  0  0  0  0  0  0  0  0  0  0  0
   59.3390   33.9260   46.4740 C   0  0  0  0  0  0  0  0  0  0  0  0
   59.4870   34.6030   45.2680 C   0  0  0  0  0  0  0  0  0  0  0  0
   58.9620   34.0900   44.1290 N   0  0  0  0  0  0  0  0  0  0  0  0
   58.2960   32.9070   44.1150 C   0  0  0  0  0  0  0  0  0  0  0  0
   57.7910   32.4270   42.9020 C   0  0  0  0  0  0  0  0  0  0  0  0
   57.1230   31.2050   42.8530 C   0  0  0  0  0  0  0  0  0  0  0  0
   56.9650   30.4500   44.0140 C   0  0  0  0  0  0  0  0  0  0  0  0
   57.4640   30.9140   45.2340 C   0  0  0  0  0  0  0  0  0  0  0  0
   58.1230   32.1640   45.3140 C   0  0  0  0  0  0  0  0  0  0  0  0
   58.6100   28.3000   46.7260 C   0  0  0  0  0  0  0  0  0  0  0  0
   57.4280   22.5861   44.6185 H   0  0  0  0  0  0  0  0  0  0  0  0
   56.2482   22.3446   43.2856 H   0  0  0  0  0  0  0  0  0  0  0  0
   57.3208   23.7855   43.2856 H   0  0  0  0  0  0  0  0  0  0  0  0
   53.8452   22.7446   44.2468 H   0  0  0  0  0  0  0  0  0  0  0  0
   52.7514   24.5991   45.8355 H   0  0  0  0  0  0  0  0  0  0  0  0
   56.9240   27.1290   44.1920 H   0  0  0  0  0  0  0  0  0  0  0  0
   59.5296   27.7232   43.4807 H   0  0  0  0  0  0  0  0  0  0  0  0
   61.3728   29.2574   44.1536 H   0  0  0  0  0  0  0  0  0  0  0  0
   61.4532   30.1881   46.4640 H   0  0  0  0  0  0  0  0  0  0  0  0
   58.7653   29.4973   49.0173 H   0  0  0  0  0  0  0  0  0  0  0  0
   60.5516   29.1645   49.0445 H   0  0  0  0  0  0  0  0  0  0  0  0
   57.7999   31.1963   47.7954 H   0  0  0  0  0  0  0  0  0  0  0  0
   58.0716   32.8089   48.5841 H   0  0  0  0  0  0  0  0  0  0  0  0
   59.7797   34.3424   47.3918 H   0  0  0  0  0  0  0  0  0  0  0  0
   60.0320   35.5580   45.2388 H   0  0  0  0  0  0  0  0  0  0  0  0
   57.9218   33.0168   41.9827 H   0  0  0  0  0  0  0  0  0  0  0  0
   56.7204   30.8362   41.8981 H   0  0  0  0  0  0  0  0  0  0  0  0
   56.4439   29.4823   43.9695 H   0  0  0  0  0  0  0  0  0  0  0  0
   57.3436   30.3023   46.1403 H   0  0  0  0  0  0  0  0  0  0  0  0
   57.8301   28.0295   47.4530 H   0  0  0  0  0  0  0  0  0  0  0  0
  1  2  1  0
  2  3  1  0
  3  4  2  0
  4  5  1  0
  5  6  1  0
  6  7  1  0
  7  8  2  0
  7  9  1  0
  9 10  1  0
 10 11  2  0
 11 12  1  0
 12 13  2  0
 13 14  1  0
 14 15  1  0
 15 16  1  0
 16 17  1  0
 17 18  1  0
 18 19  2  0
 19 20  1  0
 20 21  2  0
 21 22  1  0
 22 23  2  0
 23 24  1  0
 24 25  2  0
 25 26  1  0
 26 27  2  0
 14 28  2  0
  6  2  2  0
 28 10  1  0
 27 18  1  0
 27 22  1  0
  1 29  1  0
  1 30  1  0
  1 31  1  0
  3 32  1  0
  4 33  1  0
  9 34  1  0
 11 35  1  0
 12 36  1  0
 13 37  1  0
 15 38  1  0
 15 39  1  0
 17 40  1  0
 17 41  1  0
 19 42  1  0
 20 43  1  0
 23 44  1  0
 24 45  1  0
 25 46  1  0
 26 47  1  0
 28 48  1  0
M  END
>  <UniqueID>  (17) 
17

>  <SMILES>  (17) 
Cc1ccoc1C(=O)Nc1cccc(CSCc2ccnc3ccccc23)c1

>  <Energy>  (17) 
84.83343978723336

>  <Genealogy>  (17) 
Cc1ccoc1C(=O)Nc1cccc(CSCc2ccnc3ccccc23)c1 (3D coordinates assigned)
Cc1ccoc1C(=O)Nc1cccc(CSCc2ccnc3ccccc23)c1 (optimized conformer: 84.83343978723336 kcal/mol)

>  <smiles>  (17) 
Cc1ccoc1C(=O)Nc1cccc(CSCc2ccnc3ccccc23)c1

>  <score_type>  (17) 
oracle

>  <origin>  (17) 
adg

>  <m_score__min__energy>  (17) 
-9.75

>  <m_primary>  (17) 
energy

$$$$
17:0
     RDKit          3D

 32 34  0  0  0  0  0  0  0  0999 V2000
   56.0960   24.1040   47.1920 C   0  0  0  0  0  0  0  0  0  0  0  0
   55.7890   25.3410   46.6280 O   0  0  0  0  0  0  0  0  0  0  0  0
   56.5380   25.9630   45.6220 C   0  0  0  0  0  0  0  0  0  0  0  0
   57.0350   25.2630   44.5370 C   0  0  0  0  0  0  0  0  0  0  0  0
   57.7780   25.9140   43.5530 C   0  0  0  0  0  0  0  0  0  0  0  0
   58.0180   27.2820   43.6690 C   0  0  0  0  0  0  0  0  0  0  0  0
   57.5050   27.9520   44.7700 C   0  0  0  0  0  0  0  0  0  0  0  0
   57.7700   29.3840   44.8690 C   0  0  0  0  0  0  0  0  0  0  0  0
   57.9590   30.0740   46.0020 N   0  0  0  0  0  0  0  0  0  0  0  0
   58.1780   31.3680   45.7190 C   0  0  0  0  0  0  0  0  0  0  0  0
   58.4230   32.4690   46.5120 C   0  0  0  0  0  0  0  0  0  0  0  0
   58.6080   33.6880   45.8980 C   0  0  0  0  0  0  0  0  0  0  0  0
   58.8710   34.8680   46.7630 C   0  0  0  0  0  0  0  0  0  0  0  0
   58.5520   33.8080   44.5120 C   0  0  0  0  0  0  0  0  0  0  0  0
   58.3040   32.6910   43.7240 C   0  0  0  0  0  0  0  0  0  0  0  0
   58.1170   31.4620   44.3370 C   0  0  0  0  0  0  0  0  0  0  0  0
   57.8650   30.2340   43.8280 N   0  0  0  0  0  0  0  0  0  0  0  0
   56.7700   27.3160   45.7480 C   0  0  0  0  0  0  0  0  0  0  0  0
   56.0757   24.1859   48.2888 H   0  0  0  0  0  0  0  0  0  0  0  0
   55.3556   23.3586   46.8662 H   0  0  0  0  0  0  0  0  0  0  0  0
   57.0990   23.7912   46.8662 H   0  0  0  0  0  0  0  0  0  0  0  0
   56.8423   24.1835   44.4499 H   0  0  0  0  0  0  0  0  0  0  0  0
   58.1713   25.3528   42.6926 H   0  0  0  0  0  0  0  0  0  0  0  0
   58.6007   27.8179   42.9053 H   0  0  0  0  0  0  0  0  0  0  0  0
   58.4695   32.3762   47.6071 H   0  0  0  0  0  0  0  0  0  0  0  0
   58.8046   34.5700   47.8198 H   0  0  0  0  0  0  0  0  0  0  0  0
   59.8781   35.2582   46.5546 H   0  0  0  0  0  0  0  0  0  0  0  0
   58.1249   35.6490   46.5546 H   0  0  0  0  0  0  0  0  0  0  0  0
   58.7045   34.7897   44.0397 H   0  0  0  0  0  0  0  0  0  0  0  0
   58.2567   32.7807   42.6287 H   0  0  0  0  0  0  0  0  0  0  0  0
   57.7690   30.0250   42.8040 H   0  0  0  0  0  0  0  0  0  0  0  0
   56.3775   27.8759   46.6097 H   0  0  0  0  0  0  0  0  0  0  0  0
  1  2  1  0
  2  3  1  0
  3  4  2  0
  4  5  1  0
  5  6  2  0
  6  7  1  0
  7  8  1  0
  8  9  2  0
  9 10  1  0
 10 11  2  0
 11 12  1  0
 12 13  1  0
 12 14  2  0
 14 15  1  0
 15 16  2  0
 16 17  1  0
  7 18  2  0
 18  3  1  0
 17  8  1  0
 16 10  1  0
  1 19  1  0
  1 20  1  0
  1 21  1  0
  4 22  1  0
  5 23  1  0
  6 24  1  0
 11 25  1  0
 13 26  1  0
 13 27  1  0
 13 28  1  0
 14 29  1  0
 15 30  1  0
 17 31  1  0
 18 32  1  0
M  END
>  <smiles>  (18) 
COc1cccc(-c2nc3cc(C)ccc3[nH]2)c1

>  <score_type>  (18) 
oracle

>  <origin>  (18) 
adg

>  <m_score__min__energy>  (18) 
-6.7400000000000002

>  <m_primary>  (18) 
energy

$$$$
18:0
     RDKit          3D

 35 37  0  0  0  0  0  0  0  0999 V2000
   58.7710   31.3680   50.3480 C   0  0  0  0  0  0  0  0  0  0  0  0
   59.0260   32.3650   49.2560 C   0  0  0  0  0  0  0  0  0  0  0  0
   59.5770   33.6170   49.5610 C   0  0  0  0  0  0  0  0  0  0  0  0
   59.7780   34.5650   48.5540 C   0  0  0  0  0  0  0  0  0  0  0  0
   59.4220   34.2760   47.2290 C   0  0  0  0  0  0  0  0  0  0  0  0
   59.6170   35.2320   46.2210 C   0  0  0  0  0  0  0  0  0  0  0  0
   59.2520   34.9480   44.9040 C   0  0  0  0  0  0  0  0  0  0  0  0
   58.6940   33.7110   44.5800 C   0  0  0  0  0  0  0  0  0  0  0  0
   58.4960   32.7400   45.5700 C   0  0  0  0  0  0  0  0  0  0  0  0
   57.9370   31.4740   45.1990 N   0  0  0  0  0  0  0  0  0  0  0  0
   58.5560   30.2070   45.5380 C   0  0  0  0  0  0  0  0  0  0  0  0
   57.5200   29.1430   45.1910 C   0  0  0  0  0  0  0  0  0  0  0  0
   56.5020   29.8400   44.2780 C   0  0  1  0  0  0  0  0  0  0  0  0
   55.1430   29.3460   44.5130 N   0  0  0  0  0  0  0  0  0  0  0  0
   56.6410   31.3360   44.5670 C   0  0  0  0  0  0  0  0  0  0  0  0
   58.8540   33.0160   46.9090 C   0  0  0  0  0  0  0  0  0  0  0  0
   58.6500   32.0740   47.9360 C   0  0  0  0  0  0  0  0  0  0  0  0
   58.8957   31.8556   51.3261 H   0  0  0  0  0  0  0  0  0  0  0  0
   57.7450   30.9813   50.2592 H   0  0  0  0  0  0  0  0  0  0  0  0
   59.4853   30.5362   50.2592 H   0  0  0  0  0  0  0  0  0  0  0  0
   59.8528   33.8549   50.5989 H   0  0  0  0  0  0  0  0  0  0  0  0
   60.2175   35.5424   48.8021 H   0  0  0  0  0  0  0  0  0  0  0  0
   60.0588   36.2083   46.4692 H   0  0  0  0  0  0  0  0  0  0  0  0
   59.4049   35.7026   44.1184 H   0  0  0  0  0  0  0  0  0  0  0  0
   58.4075   33.4967   43.5398 H   0  0  0  0  0  0  0  0  0  0  0  0
   59.4731   30.0573   44.9494 H   0  0  0  0  0  0  0  0  0  0  0  0
   58.8458   30.1646   46.5983 H   0  0  0  0  0  0  0  0  0  0  0  0
   57.9949   28.3019   44.6647 H   0  0  0  0  0  0  0  0  0  0  0  0
   57.0428   28.7305   46.0922 H   0  0  0  0  0  0  0  0  0  0  0  0
   56.6972   29.6303   43.2160 H   0  0  0  0  0  0  0  0  0  0  0  0
   54.5710   30.1330   44.8980 H   0  0  0  0  0  0  0  0  0  0  0  0
   55.1630   28.5940   45.2400 H   0  0  0  0  0  0  0  0  0  0  0  0
   56.6020   31.9160   43.6331 H   0  0  0  0  0  0  0  0  0  0  0  0
   55.8271   31.7123   45.2042 H   0  0  0  0  0  0  0  0  0  0  0  0
   58.1920   31.1019   47.7012 H   0  0  0  0  0  0  0  0  0  0  0  0
  1  2  1  0
  2  3  2  0
  3  4  1  0
  4  5  2  0
  5  6  1  0
  6  7  2  0
  7  8  1  0
  8  9  2  0
  9 10  1  0
 10 11  1  0
 11 12  1  0
 12 13  1  0
 13 14  1  0
 13 15  1  0
  9 16  1  0
 16 17  2  0
 17  2  1  0
 16  5  1  0
 15 10  1  0
  1 18  1  0
  1 19  1  0
  1 20  1  0
  3 21  1  0
  4 22  1  0
  6 23  1  0
  7 24  1  0
  8 25  1  0
 11 26  1  0
 11 27  1  0
 12 28  1  0
 12 29  1  0
 13 30  1  6
 14 31  1  0
 14 32  1  0
 15 33  1  0
 15 34  1  0
 17 35  1  0
M  END
>  <UniqueID>  (19) 
18

>  <SMILES>  (19) 
Cc1ccc2cccc(N3CC[C@@H](N)C3)c2c1

>  <Energy>  (19) 
45.463629351142615

>  <Genealogy>  (19) 
Cc1ccc2cccc(N3CC[C@@H](N)C3)c2c1 (chirality)
Cc1ccc2cccc(N3CC[C@@H](N)C3)c2c1 (3D coordinates assigned)
Cc1ccc2cccc(N3CC[C@@H](N)C3)c2c1 (nonaromatic ring conformer: 45.463629351142615 kcal/mol)

>  <smiles>  (19) 
Cc1ccc2cccc(N3CCC(N)C3)c2c1

>  <score_type>  (19) 
oracle

>  <origin>  (19) 
adg

>  <m_score__min__energy>  (19) 
-7.7000000000000002

>  <m_primary>  (19) 
energy

$$$$
19:0
     RDKit          3D

 51 54  0  0  0  0  0  0  0  0999 V2000
   58.0950   34.2750   44.9860 C   0  0  0  0  0  0  0  0  0  0  0  0
   57.1850   33.5010   45.7350 O   0  0  0  0  0  0  0  0  0  0  0  0
   57.6070   33.4520   47.0820 C   0  0  0  0  0  0  0  0  0  0  0  0
   59.0630   33.0500   47.1550 C   0  0  0  0  0  0  0  0  0  0  0  0
   60.0100   33.9660   47.6540 C   0  0  0  0  0  0  0  0  0  0  0  0
   61.3600   33.6200   47.7360 C   0  0  0  0  0  0  0  0  0  0  0  0
   61.7890   32.3670   47.3030 C   0  0  0  0  0  0  0  0  0  0  0  0
   60.8710   31.4600   46.7720 C   0  0  0  0  0  0  0  0  0  0  0  0
   59.5100   31.7910   46.6820 C   0  0  0  0  0  0  0  0  0  0  0  0
   58.6030   30.8630   46.0670 N   0  0  0  0  0  0  0  0  0  0  0  0
   58.0240   31.0890   44.8970 N   0  0  0  0  0  0  0  0  0  0  0  0
   57.3100   29.9930   44.5810 C   0  0  0  0  0  0  0  0  0  0  0  0
   56.2730   29.8160   42.9930 Br  0  0  0  0  0  0  0  0  0  0  0  0
   57.4410   29.0390   45.5690 C   0  0  0  0  0  0  0  0  0  0  0  0
   58.2800   29.6220   46.4990 C   0  0  0  0  0  0  0  0  0  0  0  0
   58.6800   29.0250   47.7920 C   0  0  0  0  0  0  0  0  0  0  0  0
   58.5270   29.6850   48.8540 O   0  0  0  0  0  0  0  0  0  0  0  0
   59.1630   27.6790   47.8820 N   0  0  0  0  0  0  0  0  0  0  0  0
   58.6920   26.5620   47.1150 C   0  0  0  0  0  0  0  0  0  0  0  0
   57.3220   26.2600   47.0150 C   0  0  0  0  0  0  0  0  0  0  0  0
   56.8950   25.1730   46.2470 C   0  0  0  0  0  0  0  0  0  0  0  0
   57.8260   24.3850   45.5530 C   0  0  0  0  0  0  0  0  0  0  0  0
   57.3910   23.2580   44.7740 N   0  0  0  0  0  0  0  0  0  0  0  0
   57.2140   21.9600   45.4360 C   0  0  0  0  0  0  0  0  0  0  0  0
   56.9980   20.8430   44.4080 C   0  0  0  0  0  0  0  0  0  0  0  0
   55.9840   21.2140   43.4940 O   0  0  0  0  0  0  0  0  0  0  0  0
   56.4590   22.2350   42.6380 C   0  0  0  0  0  0  0  0  0  0  0  0
   56.9440   23.4270   43.4150 C   0  0  0  0  0  0  0  0  0  0  0  0
   57.0320   24.5480   42.8420 O   0  0  0  0  0  0  0  0  0  0  0  0
   59.1910   24.7020   45.6360 C   0  0  0  0  0  0  0  0  0  0  0  0
   59.6180   25.7890   46.4040 C   0  0  0  0  0  0  0  0  0  0  0  0
   58.7513   34.8332   45.6699 H   0  0  0  0  0  0  0  0  0  0  0  0
   58.7037   33.6137   44.3519 H   0  0  0  0  0  0  0  0  0  0  0  0
   57.5399   34.9820   44.3519 H   0  0  0  0  0  0  0  0  0  0  0  0
   57.4799   34.4442   47.5396 H   0  0  0  0  0  0  0  0  0  0  0  0
   57.0007   32.7105   47.6230 H   0  0  0  0  0  0  0  0  0  0  0  0
   59.6825   34.9635   47.9822 H   0  0  0  0  0  0  0  0  0  0  0  0
   62.0868   34.3382   48.1434 H   0  0  0  0  0  0  0  0  0  0  0  0
   62.8515   32.0927   47.3798 H   0  0  0  0  0  0  0  0  0  0  0  0
   61.2171   30.4767   46.4208 H   0  0  0  0  0  0  0  0  0  0  0  0
   56.9815   28.0403   45.6075 H   0  0  0  0  0  0  0  0  0  0  0  0
   56.5839   26.8815   47.5431 H   0  0  0  0  0  0  0  0  0  0  0  0
   55.8230   24.9339   46.1862 H   0  0  0  0  0  0  0  0  0  0  0  0
   58.1120   21.7337   46.0296 H   0  0  0  0  0  0  0  0  0  0  0  0
   56.3270   22.0156   46.0842 H   0  0  0  0  0  0  0  0  0  0  0  0
   57.9353   20.6665   43.8599 H   0  0  0  0  0  0  0  0  0  0  0  0
   56.6928   19.9252   44.9319 H   0  0  0  0  0  0  0  0  0  0  0  0
   57.2903   21.8386   42.0365 H   0  0  0  0  0  0  0  0  0  0  0  0
   55.6279   22.5587   41.9942 H   0  0  0  0  0  0  0  0  0  0  0  0
   59.9284   24.0918   45.0938 H   0  0  0  0  0  0  0  0  0  0  0  0
   60.6883   26.0387   46.4501 H   0  0  0  0  0  0  0  0  0  0  0  0
  1  2  1  0
  2  3  1  0
  3  4  1  0
  4  5  2  0
  5  6  1  0
  6  7  2  0
  7  8  1  0
  8  9  2  0
  9 10  1  0
 10 11  1  0
 11 12  2  0
 12 13  1  0
 12 14  1  0
 14 15  2  0
 15 16  1  0
 16 17  2  0
 16 18  1  0
 18 19  1  0
 19 20  2  0
 20 21  1  0
 21 22  2  0
 22 23  1  0
 23 24  1  0
 24 25  1  0
 25 26  1  0
 26 27  1  0
 27 28  1  0
 28 29  2  0
 22 30  1  0
 30 31  2  0
  9  4  1  0
 15 10  1  0
 31 19  1  0
 28 23  1  0
  1 32  1  0
  1 33  1  0
  1 34  1  0
  3 35  1  0
  3 36  1  0
  5 37  1  0
  6 38  1  0
  7 39  1  0
  8 40  1  0
 14 41  1  0
 20 42  1  0
 21 43  1  0
 24 44  1  0
 24 45  1  0
 25 46  1  0
 25 47  1  0
 27 48  1  0
 27 49  1  0
 30 50  1  0
 31 51  1  0
M  CHG  1  18  -1
M  END
>  <UniqueID>  (20) 
19

>  <SMILES>  (20) 
COCc1ccccc1-n1nc(Br)cc1C(=O)[N-]c1ccc(N2CCOCC2=O)cc1

>  <Energy>  (20) 
107.08288532612696

>  <Genealogy>  (20) 
COCc1ccccc1-n1nc(Br)cc1C(=O)[N-]c1ccc(N2CCOCC2=O)cc1 (protonated)
COCc1ccccc1-n1nc(Br)cc1C(=O)[N-]c1ccc(N2CCOCC2=O)cc1 (3D coordinates assigned)
COCc1ccccc1-n1nc(Br)cc1C(=O)[N-]c1ccc(N2CCOCC2=O)cc1 (nonaromatic ring conformer: 107.08288532612696 kcal/mol)

>  <smiles>  (20) 
COCc1ccccc1-n1nc(Br)cc1C(=O)Nc1ccc(N2CCOCC2=O)cc1

>  <score_type>  (20) 
oracle

>  <origin>  (20) 
adg

>  <m_score__min__energy>  (20) 
-10.25

>  <m_primary>  (20) 
energy

$$$$
20:0
     RDKit          3D

 30 31  0  0  0  0  0  0  0  0999 V2000
   59.3450   33.2900   46.0860 C   0  0  0  0  0  0  0  0  0  0  0  0
   58.4510   32.1530   45.6800 C   0  0  0  0  0  0  0  0  0  0  0  0
   58.7430   30.8410   46.0670 C   0  0  0  0  0  0  0  0  0  0  0  0
   57.9410   29.8000   45.6900 N   0  0  0  0  0  0  0  0  0  0  0  0
   58.3070   28.4330   46.1180 C   0  0  1  0  0  0  0  0  0  0  0  0
   57.1850   27.7420   46.6170 O   0  0  0  0  0  0  0  0  0  0  0  0
   57.3590   26.3750   46.3000 C   0  0  1  0  0  0  0  0  0  0  0  0
   56.0730   25.8300   45.6650 C   0  0  0  0  0  0  0  0  0  0  0  0
   54.9800   26.6460   45.9910 O   0  0  0  0  0  0  0  0  0  0  0  0
   58.5610   26.2180   45.3600 C   0  0  2  0  0  0  0  0  0  0  0  0
   59.6240   25.6500   46.0450 F   0  0  0  0  0  0  0  0  0  0  0  0
   58.8860   27.6320   44.9680 C   0  0  2  0  0  0  0  0  0  0  0  0
   60.2520   27.8350   44.8480 F   0  0  0  0  0  0  0  0  0  0  0  0
   56.8540   30.0420   44.8850 C   0  0  0  0  0  0  0  0  0  0  0  0
   56.1170   29.0950   44.4960 O   0  0  0  0  0  0  0  0  0  0  0  0
   56.5610   31.3110   44.4910 N   0  0  0  0  0  0  0  0  0  0  0  0
   57.3320   32.3640   44.8660 C   0  0  0  0  0  0  0  0  0  0  0  0
   57.0350   33.5260   44.4760 O   0  0  0  0  0  0  0  0  0  0  0  0
   59.3900   33.3472   47.1836 H   0  0  0  0  0  0  0  0  0  0  0  0
   60.3559   33.1225   45.6858 H   0  0  0  0  0  0  0  0  0  0  0  0
   58.9438   34.2328   45.6858 H   0  0  0  0  0  0  0  0  0  0  0  0
   59.6318   30.6437   46.6843 H   0  0  0  0  0  0  0  0  0  0  0  0
   59.0628   28.5404   46.9100 H   0  0  0  0  0  0  0  0  0  0  0  0
   57.5611   25.7957   47.2130 H   0  0  0  0  0  0  0  0  0  0  0  0
   56.1920   25.8040   44.5718 H   0  0  0  0  0  0  0  0  0  0  0  0
   55.8878   24.8166   46.0506 H   0  0  0  0  0  0  0  0  0  0  0  0
   55.1440   27.5260   45.5600 H   0  0  0  0  0  0  0  0  0  0  0  0
   58.3570   25.5702   44.4947 H   0  0  0  0  0  0  0  0  0  0  0  0
   58.4780   27.9123   43.9857 H   0  0  0  0  0  0  0  0  0  0  0  0
   55.7280   31.4790   43.8800 H   0  0  0  0  0  0  0  0  0  0  0  0
  1  2  1  0
  2  3  2  0
  3  4  1  0
  4  5  1  0
  5  6  1  0
  6  7  1  0
  7  8  1  0
  8  9  1  0
  7 10  1  0
 10 11  1  0
 10 12  1  0
 12 13  1  0
  4 14  1  0
 14 15  2  0
 14 16  1  0
 16 17  1  0
 17 18  2  0
 17  2  1  0
 12  5  1  0
  1 19  1  0
  1 20  1  0
  1 21  1  0
  3 22  1  0
  5 23  1  1
  7 24  1  1
  8 25  1  0
  8 26  1  0
  9 27  1  0
 10 28  1  6
 12 29  1  6
 16 30  1  0
M  END
>  <UniqueID>  (21) 
20

>  <SMILES>  (21) 
Cc1cn([C@H]2O[C@@H](CO)C(F)C2F)c(=O)[nH]c1=O

>  <Energy>  (21) 
32.673389051525355

>  <Genealogy>  (21) 
Cc1cn([C@H]2O[C@@H](CO)C(F)C2F)c(=O)[nH]c1=O (chirality)
Cc1cn([C@H]2O[C@@H](CO)C(F)C2F)c(=O)[nH]c1=O (3D coordinates assigned)
Cc1cn([C@H]2O[C@@H](CO)C(F)C2F)c(=O)[nH]c1=O (nonaromatic ring conformer: 32.673389051525355 kcal/mol)

>  <smiles>  (21) 
Cc1cn(C2OC(CO)C(F)C2F)c(=O)[nH]c1=O

>  <score_type>  (21) 
oracle

>  <origin>  (21) 
adg

>  <m_score__min__energy>  (21) 
-6.0700000000000003

>  <m_primary>  (21) 
energy

$$$$
21:0
     RDKit          3D

 33 34  0  0  0  0  0  0  0  0999 V2000
   57.0590   34.2150   45.0390 C   0  0  0  0  0  0  0  0  0  0  0  0
   58.0130   33.1050   44.9840 N   0  0  0  0  0  0  0  0  0  0  0  0
   58.4840   32.6270   43.6750 C   0  0  0  0  0  0  0  0  0  0  0  0
   57.3940   31.8290   42.9560 C   0  0  0  0  0  0  0  0  0  0  0  0
   57.4790   30.4140   43.3180 N   0  0  0  0  0  0  0  0  0  0  0  0
   56.5650   29.7920   44.2340 C   0  0  0  0  0  0  0  0  0  0  0  0
   55.4610   30.3410   44.4950 O   0  0  0  0  0  0  0  0  0  0  0  0
   56.8980   28.5180   44.8930 C   0  0  0  0  0  0  0  0  0  0  0  0
   58.1350   27.8990   44.9260 C   0  0  0  0  0  0  0  0  0  0  0  0
   57.9580   26.7550   45.6740 C   0  0  0  0  0  0  0  0  0  0  0  0
   56.6300   26.7430   46.0490 C   0  0  0  0  0  0  0  0  0  0  0  0
   56.0260   27.8060   45.5710 O   0  0  0  0  0  0  0  0  0  0  0  0
   58.2680   32.3550   46.1880 C   0  0  0  0  0  0  0  0  0  0  0  0
   57.8400   31.1720   46.2840 O   0  0  0  0  0  0  0  0  0  0  0  0
   58.9990   32.9370   47.3270 C   0  0  0  0  0  0  0  0  0  0  0  0
   58.9290   32.4900   48.6420 C   0  0  0  0  0  0  0  0  0  0  0  0
   59.6730   33.2710   49.5350 C   0  0  0  0  0  0  0  0  0  0  0  0
   60.3150   34.3460   48.9340 C   0  0  0  0  0  0  0  0  0  0  0  0
   59.9540   34.3230   47.2920 S   0  0  0  0  0  0  0  0  0  0  0  0
   56.8456   34.4633   46.0891 H   0  0  0  0  0  0  0  0  0  0  0  0
   57.4886   35.0931   44.5346 H   0  0  0  0  0  0  0  0  0  0  0  0
   56.1263   33.9222   44.5346 H   0  0  0  0  0  0  0  0  0  0  0  0
   58.7637   33.4921   43.0558 H   0  0  0  0  0  0  0  0  0  0  0  0
   59.3514   31.9695   43.8342 H   0  0  0  0  0  0  0  0  0  0  0  0
   56.4073   32.2192   43.2461 H   0  0  0  0  0  0  0  0  0  0  0  0
   57.5342   31.9297   41.8696 H   0  0  0  0  0  0  0  0  0  0  0  0
   58.3210   29.8890   42.9940 H   0  0  0  0  0  0  0  0  0  0  0  0
   59.0655   28.2472   44.4538 H   0  0  0  0  0  0  0  0  0  0  0  0
   58.7215   26.0030   45.9221 H   0  0  0  0  0  0  0  0  0  0  0  0
   56.1503   25.9613   46.6563 H   0  0  0  0  0  0  0  0  0  0  0  0
   58.3464   31.6094   48.9504 H   0  0  0  0  0  0  0  0  0  0  0  0
   59.7424   33.0536   50.6111 H   0  0  0  0  0  0  0  0  0  0  0  0
   60.9502   35.0851   49.4443 H   0  0  0  0  0  0  0  0  0  0  0  0
  1  2  1  0
  2  3  1  0
  3  4  1  0
  4  5  1  0
  5  6  1  0
  6  7  2  0
  6  8  1  0
  8  9  2  0
  9 10  1  0
 10 11  2  0
 11 12  1  0
  2 13  1  0
 13 14  2  0
 13 15  1  0
 15 16  2  0
 16 17  1  0
 17 18  2  0
 18 19  1  0
 12  8  1  0
 19 15  1  0
  1 20  1  0
  1 21  1  0
  1 22  1  0
  3 23  1  0
  3 24  1  0
  4 25  1  0
  4 26  1  0
  5 27  1  0
  9 28  1  0
 10 29  1  0
 11 30  1  0
 16 31  1  0
 17 32  1  0
 18 33  1  0
M  END
>  <UniqueID>  (22) 
21

>  <SMILES>  (22) 
CN(CCNC(=O)c1ccco1)C(=O)c1cccs1

>  <Energy>  (22) 
81.17569900813899

>  <Genealogy>  (22) 
CN(CCNC(=O)c1ccco1)C(=O)c1cccs1 (3D coordinates assigned)
CN(CCNC(=O)c1ccco1)C(=O)c1cccs1 (optimized conformer: 81.17569900813899 kcal/mol)

>  <smiles>  (22) 
CN(CCNC(=O)c1ccco1)C(=O)c1cccs1

>  <score_type>  (22) 
oracle

>  <origin>  (22) 
adg

>  <m_score__min__energy>  (22) 
-6.6600000000000001

>  <m_primary>  (22) 
energy

$$$$
22:0
     RDKit          3D

 47 49  0  0  0  0  0  0  0  0999 V2000
   58.1790   27.0820   42.9900 C   0  0  0  0  0  0  0  0  0  0  0  0
   58.6810   27.9610   44.1330 C   0  0  0  0  0  0  0  0  0  0  0  0
   57.5870   28.3180   45.0540 N   0  0  0  0  0  0  0  0  0  0  0  0
   57.2610   27.4010   46.1580 C   0  0  0  0  0  0  0  0  0  0  0  0
   58.4520   26.5050   46.4820 C   0  0  0  0  0  0  0  0  0  0  0  0
   56.6930   29.4170   44.7600 C   0  0  0  0  0  0  0  0  0  0  0  0
   55.5180   29.4130   45.2180 O   0  0  0  0  0  0  0  0  0  0  0  0
   57.1000   30.5430   43.8990 C   0  0  0  0  0  0  0  0  0  0  0  0
   56.6470   30.5710   42.5720 C   0  0  0  0  0  0  0  0  0  0  0  0
   57.0480   31.5940   41.7090 C   0  0  0  0  0  0  0  0  0  0  0  0
   57.9000   32.5990   42.1660 C   0  0  0  0  0  0  0  0  0  0  0  0
   58.3450   32.5930   43.4890 C   0  0  0  0  0  0  0  0  0  0  0  0
   57.9440   31.5750   44.3710 C   0  0  0  0  0  0  0  0  0  0  0  0
   58.3800   31.6210   45.7410 N   0  0  0  0  0  0  0  0  0  0  0  0
   57.8060   32.6500   46.6330 C   0  0  0  0  0  0  0  0  0  0  0  0
   58.5290   32.7350   47.9890 C   0  0  0  0  0  0  0  0  0  0  0  0
   58.9000   31.3660   48.4900 C   0  0  0  0  0  0  0  0  0  0  0  0
   58.7810   31.0260   49.8450 C   0  0  0  0  0  0  0  0  0  0  0  0
   59.1810   29.7620   50.2860 C   0  0  0  0  0  0  0  0  0  0  0  0
   59.7190   28.8400   49.3820 C   0  0  0  0  0  0  0  0  0  0  0  0
   59.8550   29.1790   48.0320 C   0  0  0  0  0  0  0  0  0  0  0  0
   59.4340   30.4390   47.5810 C   0  0  0  0  0  0  0  0  0  0  0  0
   59.5600   30.8410   46.1410 C   0  0  0  0  0  0  0  0  0  0  0  0
   57.6734   26.1967   43.4031 H   0  0  0  0  0  0  0  0  0  0  0  0
   57.4710   27.6534   42.3717 H   0  0  0  0  0  0  0  0  0  0  0  0
   59.0309   26.7626   42.3717 H   0  0  0  0  0  0  0  0  0  0  0  0
   59.4557   27.4150   44.6913 H   0  0  0  0  0  0  0  0  0  0  0  0
   59.0905   28.8876   43.7044 H   0  0  0  0  0  0  0  0  0  0  0  0
   56.9975   27.9884   47.0499 H   0  0  0  0  0  0  0  0  0  0  0  0
   56.4138   26.7683   45.8547 H   0  0  0  0  0  0  0  0  0  0  0  0
   58.5623   26.4220   47.5733 H   0  0  0  0  0  0  0  0  0  0  0  0
   58.2864   25.5057   46.0532 H   0  0  0  0  0  0  0  0  0  0  0  0
   59.3663   26.9411   46.0532 H   0  0  0  0  0  0  0  0  0  0  0  0
   55.9717   29.7825   42.2083 H   0  0  0  0  0  0  0  0  0  0  0  0
   56.6915   31.6067   40.6685 H   0  0  0  0  0  0  0  0  0  0  0  0
   58.2221   33.3983   41.4823 H   0  0  0  0  0  0  0  0  0  0  0  0
   59.0142   33.3907   43.8437 H   0  0  0  0  0  0  0  0  0  0  0  0
   57.8787   33.6277   46.1341 H   0  0  0  0  0  0  0  0  0  0  0  0
   56.7610   32.3699   46.8320 H   0  0  0  0  0  0  0  0  0  0  0  0
   59.4435   33.3350   47.8719 H   0  0  0  0  0  0  0  0  0  0  0  0
   57.8513   33.2028   48.7183 H   0  0  0  0  0  0  0  0  0  0  0  0
   58.3727   31.7545   50.5610 H   0  0  0  0  0  0  0  0  0  0  0  0
   59.0726   29.4912   51.3466 H   0  0  0  0  0  0  0  0  0  0  0  0
   60.0356   27.8469   49.7335 H   0  0  0  0  0  0  0  0  0  0  0  0
   60.2915   28.4586   47.3246 H   0  0  0  0  0  0  0  0  0  0  0  0
   60.4648   31.4527   46.0096 H   0  0  0  0  0  0  0  0  0  0  0  0
   59.6307   29.9392   45.5151 H   0  0  0  0  0  0  0  0  0  0  0  0
  1  2  1  0
  2  3  1  0
  3  4  1  0
  4  5  1  0
  3  6  1  0
  6  7  2  0
  6  8  1  0
  8  9  2  0
  9 10  1  0
 10 11  2  0
 11 12  1  0
 12 13  2  0
 13 14  1  0
 14 15  1  0
 15 16  1  0
 16 17  1  0
 17 18  2  0
 18 19  1  0
 19 20  2  0
 20 21  1  0
 21 22  2  0
 22 23  1  0
 13  8  1  0
 23 14  1  0
 22 17  1  0
  1 24  1  0
  1 25  1  0
  1 26  1  0
  2 27  1  0
  2 28  1  0
  4 29  1  0
  4 30  1  0
  5 31  1  0
  5 32  1  0
  5 33  1  0
  9 34  1  0
 10 35  1  0
 11 36  1  0
 12 37  1  0
 15 38  1  0
 15 39  1  0
 16 40  1  0
 16 41  1  0
 18 42  1  0
 19 43  1  0
 20 44  1  0
 21 45  1  0
 23 46  1  0
 23 47  1  0
M  END
>  <UniqueID>  (23) 
22

>  <SMILES>  (23) 
CCN(CC)C(=O)c1ccccc1N1CCc2ccccc2C1

>  <Energy>  (23) 
55.15489851223249

>  <Genealogy>  (23) 
CCN(CC)C(=O)c1ccccc1N1CCc2ccccc2C1 (3D coordinates assigned)
CCN(CC)C(=O)c1ccccc1N1CCc2ccccc2C1 (nonaromatic ring conformer: 55.15489851223249 kcal/mol)

>  <smiles>  (23) 
CCN(CC)C(=O)c1ccccc1N1CCc2ccccc2C1

>  <score_type>  (23) 
oracle

>  <origin>  (23) 
adg

>  <m_score__min__energy>  (23) 
-7.6100000000000003

>  <m_primary>  (23) 
energy

$$$$
23:0
     RDKit          3D

 58 62  0  0  0  0  0  0  0  0999 V2000
   57.2850   33.9170   45.1940 C   0  0  0  0  0  0  0  0  0  0  0  0
   56.9630   32.5310   45.2520 O   0  0  0  0  0  0  0  0  0  0  0  0
   57.7850   31.5320   45.7970 C   0  0  0  0  0  0  0  0  0  0  0  0
   58.9300   31.8670   46.5450 C   0  0  0  0  0  0  0  0  0  0  0  0
   59.7430   30.8770   47.1280 C   0  0  0  0  0  0  0  0  0  0  0  0
   61.0310   31.1950   47.8990 C   0  0  2  0  0  0  0  0  0  0  0  0
   60.8500   31.9040   49.2390 C   0  0  0  0  0  0  0  0  0  0  0  0
   59.6340   32.5010   49.6550 C   0  0  0  0  0  0  0  0  0  0  0  0
   59.6090   33.1320   50.8920 C   0  0  0  0  0  0  0  0  0  0  0  0
   60.7070   33.2210   51.6820 C   0  0  0  0  0  0  0  0  0  0  0  0
   61.9370   32.7020   51.2950 C   0  0  0  0  0  0  0  0  0  0  0  0
   62.0220   32.0610   50.0370 C   0  0  0  0  0  0  0  0  0  0  0  0
   63.3350   31.5520   49.4630 C   0  0  2  0  0  0  0  0  0  0  0  0
   64.4830   31.9770   50.2770 N   0  0  0  0  0  0  0  0  0  0  0  0
   65.0330   30.7070   51.3320 S   0  0  0  0  0  0  0  0  0  0  0  0
   65.0980   31.3030   53.0090 C   0  0  0  0  0  0  0  0  0  0  0  0
   66.4120   30.2880   50.9110 O   0  0  0  0  0  0  0  0  0  0  0  0
   64.1130   29.5210   51.2540 O   0  0  0  0  0  0  0  0  0  0  0  0
   63.4900   32.0440   47.9840 C   0  0  2  0  0  0  0  0  0  0  0  0
   63.9120   33.5380   47.8950 C   0  0  0  0  0  0  0  0  0  0  0  0
   62.8520   34.2140   47.2540 O   0  0  0  0  0  0  0  0  0  0  0  0
   61.8720   33.3500   46.8280 C   0  0  0  0  0  0  0  0  0  0  0  0
   60.8320   33.7600   46.2480 O   0  0  0  0  0  0  0  0  0  0  0  0
   62.1760   31.9200   47.1310 C   0  0  2  0  0  0  0  0  0  0  0  0
   60.3870   33.8980   52.8420 O   0  0  0  0  0  0  0  0  0  0  0  0
   59.0020   34.2610   52.7760 C   0  0  0  0  0  0  0  0  0  0  0  0
   58.5440   33.7560   51.5140 O   0  0  0  0  0  0  0  0  0  0  0  0
   59.4510   29.5330   46.8430 C   0  0  0  0  0  0  0  0  0  0  0  0
   58.3120   29.1730   46.1040 C   0  0  0  0  0  0  0  0  0  0  0  0
   57.9850   27.8300   45.8580 O   0  0  0  0  0  0  0  0  0  0  0  0
   58.1710   27.1640   44.6130 C   0  0  0  0  0  0  0  0  0  0  0  0
   57.4670   30.1670   45.5900 C   0  0  0  0  0  0  0  0  0  0  0  0
   56.3380   29.7250   44.8740 O   0  0  0  0  0  0  0  0  0  0  0  0
   56.1230   29.8390   43.4720 C   0  0  0  0  0  0  0  0  0  0  0  0
   57.3775   34.3150   46.2153 H   0  0  0  0  0  0  0  0  0  0  0  0
   58.2380   34.0500   44.6610 H   0  0  0  0  0  0  0  0  0  0  0  0
   56.4883   34.4565   44.6610 H   0  0  0  0  0  0  0  0  0  0  0  0
   59.1951   32.9264   46.6767 H   0  0  0  0  0  0  0  0  0  0  0  0
   61.3514   30.1564   48.0684 H   0  0  0  0  0  0  0  0  0  0  0  0
   58.7378   32.4658   49.0181 H   0  0  0  0  0  0  0  0  0  0  0  0
   62.8183   32.7873   51.9478 H   0  0  0  0  0  0  0  0  0  0  0  0
   63.3157   30.4523   49.4783 H   0  0  0  0  0  0  0  0  0  0  0  0
   65.0055   30.4549   53.7034 H   0  0  0  0  0  0  0  0  0  0  0  0
   66.0572   31.8137   53.1797 H   0  0  0  0  0  0  0  0  0  0  0  0
   64.2715   32.0085   53.1797 H   0  0  0  0  0  0  0  0  0  0  0  0
   64.2677   31.3787   47.5807 H   0  0  0  0  0  0  0  0  0  0  0  0
   64.0711   33.9490   48.9028 H   0  0  0  0  0  0  0  0  0  0  0  0
   64.8535   33.6539   47.3381 H   0  0  0  0  0  0  0  0  0  0  0  0
   62.2871   31.3010   46.2285 H   0  0  0  0  0  0  0  0  0  0  0  0
   58.4419   33.7999   53.6029 H   0  0  0  0  0  0  0  0  0  0  0  0
   58.8558   35.3478   52.8631 H   0  0  0  0  0  0  0  0  0  0  0  0
   60.1284   28.7460   47.2061 H   0  0  0  0  0  0  0  0  0  0  0  0
   58.4628   26.1193   44.7960 H   0  0  0  0  0  0  0  0  0  0  0  0
   57.2319   27.1875   44.0407 H   0  0  0  0  0  0  0  0  0  0  0  0
   58.9620   27.6707   44.0407 H   0  0  0  0  0  0  0  0  0  0  0  0
   55.1648   30.3470   43.2881 H   0  0  0  0  0  0  0  0  0  0  0  0
   56.9397   30.4225   43.0221 H   0  0  0  0  0  0  0  0  0  0  0  0
   56.0982   28.8355   43.0221 H   0  0  0  0  0  0  0  0  0  0  0  0
  1  2  1  0
  2  3  1  0
  3  4  2  0
  4  5  1  0
  5  6  1  0
  6  7  1  0
  7  8  2  0
  8  9  1  0
  9 10  2  0
 10 11  1  0
 11 12  2  0
 12 13  1  0
 13 14  1  0
 14 15  1  0
 15 16  1  0
 15 17  2  0
 15 18  2  0
 13 19  1  0
 19 20  1  0
 20 21  1  0
 21 22  1  0
 22 23  2  0
 22 24  1  0
 10 25  1  0
 25 26  1  0
 26 27  1  0
  5 28  2  0
 28 29  1  0
 29 30  1  0
 30 31  1  0
 29 32  2  0
 32 33  1  0
 33 34  1  0
 32  3  1  0
 24  6  1  0
 12  7  1  0
 24 19  1  0
 27  9  1  0
  1 35  1  0
  1 36  1  0
  1 37  1  0
  4 38  1  0
  6 39  1  1
  8 40  1  0
 11 41  1  0
 13 42  1  6
 16 43  1  0
 16 44  1  0
 16 45  1  0
 19 46  1  6
 20 47  1  0
 20 48  1  0
 24 49  1  6
 26 50  1  0
 26 51  1  0
 28 52  1  0
 31 53  1  0
 31 54  1  0
 31 55  1  0
 34 56  1  0
 34 57  1  0
 34 58  1  0
M  CHG  1  14  -1
M  END
>  <UniqueID>  (24) 
23

>  <SMILES>  (24) 
COc1cc([C@@H]2c3cc4c(cc3[C@H]([N-]S(C)(=O)=O)C3COC(=O)C32)OCO4)cc(OC)c1OC

>  <Energy>  (24) 
116.86075569232293

>  <Genealogy>  (24) 
COc1cc(C2c3cc4c(cc3C([N-]S(C)(=O)=O)C3COC(=O)C23)OCO4)cc(OC)c1OC (protonated)
COc1cc([C@@H]2c3cc4c(cc3[C@H]([N-]S(C)(=O)=O)C3COC(=O)C32)OCO4)cc(OC)c1OC (chirality)
COc1cc([C@@H]2c3cc4c(cc3[C@H]([N-]S(C)(=O)=O)C3COC(=O)C32)OCO4)cc(OC)c1OC (3D coordinates assigned)
COc1cc([C@@H]2c3cc4c(cc3[C@H]([N-]S(C)(=O)=O)C3COC(=O)C32)OCO4)cc(OC)c1OC (nonaromatic ring conformer: 116.86075569232293 kcal/mol)

>  <smiles>  (24) 
COc1cc(C2c3cc4c(cc3C(NS(C)(=O)=O)C3COC(=O)C23)OCO4)cc(OC)c1OC

>  <score_type>  (24) 
oracle

>  <origin>  (24) 
adg

>  <m_score__min__energy>  (24) 
-8.2300000000000004

>  <m_primary>  (24) 
energy

$$$$
24:0
     RDKit          3D

 37 39  0  0  0  0  0  0  0  0999 V2000
   57.0398   33.9568   44.1099 H   0  0  0  0  0  0  0  0  0  0  0  0
   57.6420   33.6110   44.9630 C   0  0  0  0  0  0  0  0  0  0  0  0
   58.4340   34.5220   45.6710 C   0  0  0  0  0  0  0  0  0  0  0  0
   58.4434   35.5836   45.3830 H   0  0  0  0  0  0  0  0  0  0  0  0
   59.2120   34.0820   46.7430 C   0  0  0  0  0  0  0  0  0  0  0  0
   59.2310   32.7240   47.0850 C   0  0  0  0  0  0  0  0  0  0  0  0
   58.4300   31.8140   46.3900 C   0  0  0  0  0  0  0  0  0  0  0  0
   58.4411   30.7501   46.6693 H   0  0  0  0  0  0  0  0  0  0  0  0
   57.6120   32.2510   45.3380 C   0  0  0  0  0  0  0  0  0  0  0  0
   56.8270   31.2770   44.6300 N   0  0  0  0  0  0  0  0  0  0  0  0
   56.9940   29.9890   44.6610 C   0  0  0  0  0  0  0  0  0  0  0  0
   56.5630   29.2020   45.6220 O   0  0  0  0  0  0  0  0  0  0  0  0
   56.9370   27.9840   45.3060 C   0  0  0  0  0  0  0  0  0  0  0  0
   56.6510   26.7870   46.1100 C   0  0  0  0  0  0  0  0  0  0  0  0
   55.5250   26.2260   46.0200 O   0  0  0  0  0  0  0  0  0  0  0  0
   57.6770   26.2430   47.0650 C   0  0  0  0  0  0  0  0  0  0  0  0
   58.1506   25.3594   46.6124 H   0  0  0  0  0  0  0  0  0  0  0  0
   57.1647   25.9824   48.0029 H   0  0  0  0  0  0  0  0  0  0  0  0
   58.7640   27.2770   47.3890 C   0  0  0  0  0  0  0  0  0  0  0  0
   59.0226   27.1957   48.4551 H   0  0  0  0  0  0  0  0  0  0  0  0
   58.3635   28.2724   47.1466 H   0  0  0  0  0  0  0  0  0  0  0  0
   60.0310   27.0690   46.5590 C   0  0  0  0  0  0  0  0  0  0  0  0
   60.8904   26.9279   47.2309 H   0  0  0  0  0  0  0  0  0  0  0  0
   59.9116   26.1784   45.9245 H   0  0  0  0  0  0  0  0  0  0  0  0
   60.2026   27.9510   45.9245 H   0  0  0  0  0  0  0  0  0  0  0  0
   57.6290   28.0320   44.1100 C   0  0  0  0  0  0  0  0  0  0  0  0
   58.0718   27.1744   43.5823 H   0  0  0  0  0  0  0  0  0  0  0  0
   57.6640   29.3150   43.7070 N   0  0  0  0  0  0  0  0  0  0  0  0
   58.1120   29.6970   42.8440 H   0  0  0  0  0  0  0  0  0  0  0  0
   60.0610   32.2980   48.1280 O   0  0  0  0  0  0  0  0  0  0  0  0
   61.0760   33.1520   48.6600 C   0  0  0  0  0  0  0  0  0  0  0  0
   61.3439   32.8111   49.6710 H   0  0  0  0  0  0  0  0  0  0  0  0
   61.9574   33.1124   48.0031 H   0  0  0  0  0  0  0  0  0  0  0  0
   60.5710   34.5990   48.7310 C   0  0  0  0  0  0  0  0  0  0  0  0
   59.8152   34.6813   49.5260 H   0  0  0  0  0  0  0  0  0  0  0  0
   61.4194   35.2645   48.9484 H   0  0  0  0  0  0  0  0  0  0  0  0
   59.9870   34.9810   47.4830 O   0  0  0  0  0  0  0  0  0  0  0  0
  1  2  1  0
  2  3  2  0
  3  4  1  0
  3  5  1  0
  5  6  2  0
  6  7  1  0
  7  8  1  0
  7  9  2  0
  9 10  1  0
 10 11  2  0
 11 12  1  0
 12 13  1  0
 13 14  1  0
 14 15  2  0
 14 16  1  0
 16 17  1  0
 16 18  1  0
 16 19  1  0
 19 20  1  0
 19 21  1  0
 19 22  1  0
 22 23  1  0
 22 24  1  0
 22 25  1  0
 13 26  2  0
 26 27  1  0
 26 28  1  0
 28 29  1  0
  6 30  1  0
 30 31  1  0
 31 32  1  0
 31 33  1  0
 31 34  1  0
 34 35  1  0
 34 36  1  0
 34 37  1  0
  9  2  1  0
 28 11  1  0
 37  5  1  0
M  END
>  <UniqueID>  (25) 
24

>  <SMILES>  (25) 
CCCC(=O)c1c[nH]/c(=N/c2ccc3c(c2)OCCO3)o1

>  <Energy>  (25) 
68.75637392394935

>  <Genealogy>  (25) 
CCCC(=O)c1c[nH]/c(=N/c2ccc3c(c2)OCCO3)o1 (cis-trans isomerization)
CCCC(=O)c1c[nH]/c(=N/c2ccc3c(c2)OCCO3)o1 (3D coordinates assigned)
CCCC(=O)c1c[nH]/c(=N/c2ccc3c(c2)OCCO3)o1 (nonaromatic ring conformer: 68.75637392394935 kcal/mol)

>  <smiles>  (25) 
CCCC(=O)c1c[nH]c(=Nc2ccc3c(c2)OCCO3)o1

>  <score_type>  (25) 
oracle

>  <origin>  (25) 
adg

>  <m_score__min__energy>  (25) 
-7.4000000000000004

>  <m_primary>  (25) 
energy

$$$$
25:0
     RDKit          3D

 40 42  0  0  0  0  0  0  0  0999 V2000
   56.2070   31.5690   44.5170 O   0  0  0  0  0  0  0  0  0  0  0  0
   57.6720   31.3290   44.2710 S   0  0  0  0  0  0  0  0  0  0  0  0
   57.9560   31.6320   42.8260 O   0  0  0  0  0  0  0  0  0  0  0  0
   58.0420   29.6350   44.5970 C   0  0  0  0  0  0  0  0  0  0  0  0
   58.9760   29.2850   45.5760 C   0  0  0  0  0  0  0  0  0  0  0  0
   59.2500   27.9420   45.8310 C   0  0  0  0  0  0  0  0  0  0  0  0
   58.5750   26.9470   45.1040 C   0  0  0  0  0  0  0  0  0  0  0  0
   58.8250   25.5830   45.3160 O   0  0  0  0  0  0  0  0  0  0  0  0
   58.1310   24.5250   44.7110 C   0  0  0  0  0  0  0  0  0  0  0  0
   58.5250   23.1860   44.8800 C   0  0  0  0  0  0  0  0  0  0  0  0
   57.7850   22.1710   44.2680 C   0  0  0  0  0  0  0  0  0  0  0  0
   56.6590   22.4940   43.5100 C   0  0  0  0  0  0  0  0  0  0  0  0
   56.2840   23.8320   43.3790 C   0  0  0  0  0  0  0  0  0  0  0  0
   57.0190   24.8070   43.9790 N   0  0  0  0  0  0  0  0  0  0  0  0
   57.6860   27.3110   44.1380 N   0  0  0  0  0  0  0  0  0  0  0  0
   57.4050   28.6170   43.8770 C   0  0  0  0  0  0  0  0  0  0  0  0
   58.6100   32.3980   45.2860 N   0  0  0  0  0  0  0  0  0  0  0  0
   58.1390   32.3170   46.6840 C   0  0  0  0  0  0  0  0  0  0  0  0
   58.7270   33.4390   47.5690 C   0  0  0  0  0  0  0  0  0  0  0  0
   59.9270   34.1180   46.9040 C   0  0  0  0  0  0  0  0  0  0  0  0
   59.5500   34.6730   45.5190 C   0  0  0  0  0  0  0  0  0  0  0  0
   58.5340   33.7790   44.7840 C   0  0  0  0  0  0  0  0  0  0  0  0
   59.4953   30.0697   46.1457 H   0  0  0  0  0  0  0  0  0  0  0  0
   59.9896   27.6633   46.5961 H   0  0  0  0  0  0  0  0  0  0  0  0
   59.4077   22.9397   45.4884 H   0  0  0  0  0  0  0  0  0  0  0  0
   58.0893   21.1203   44.3835 H   0  0  0  0  0  0  0  0  0  0  0  0
   56.0728   21.7022   43.0206 H   0  0  0  0  0  0  0  0  0  0  0  0
   55.3937   24.0983   42.7903 H   0  0  0  0  0  0  0  0  0  0  0  0
   57.1970   26.5700   43.5870 H   0  0  0  0  0  0  0  0  0  0  0  0
   56.6738   28.8740   43.0965 H   0  0  0  0  0  0  0  0  0  0  0  0
   57.0421   32.3984   46.6926 H   0  0  0  0  0  0  0  0  0  0  0  0
   58.4746   31.3539   47.0960 H   0  0  0  0  0  0  0  0  0  0  0  0
   57.9476   34.1933   47.7522 H   0  0  0  0  0  0  0  0  0  0  0  0
   59.0692   32.9869   48.5116 H   0  0  0  0  0  0  0  0  0  0  0  0
   60.2707   34.9458   47.5417 H   0  0  0  0  0  0  0  0  0  0  0  0
   60.7253   33.3719   46.7768 H   0  0  0  0  0  0  0  0  0  0  0  0
   59.1120   35.6739   45.6470 H   0  0  0  0  0  0  0  0  0  0  0  0
   60.4663   34.7082   44.9114 H   0  0  0  0  0  0  0  0  0  0  0  0
   57.5195   34.1701   44.9508 H   0  0  0  0  0  0  0  0  0  0  0  0
   58.7677   33.7818   43.7091 H   0  0  0  0  0  0  0  0  0  0  0  0
  1  2  2  0
  2  3  2  0
  2  4  1  0
  4  5  2  0
  5  6  1  0
  6  7  2  0
  7  8  1  0
  8  9  1  0
  9 10  2  0
 10 11  1  0
 11 12  2  0
 12 13  1  0
 13 14  2  0
  7 15  1  0
 15 16  2  0
  2 17  1  0
 17 18  1  0
 18 19  1  0
 19 20  1  0
 20 21  1  0
 21 22  1  0
 16  4  1  0
 22 17  1  0
 14  9  1  0
  5 23  1  0
  6 24  1  0
 10 25  1  0
 11 26  1  0
 12 27  1  0
 13 28  1  0
 15 29  1  0
 16 30  1  0
 18 31  1  0
 18 32  1  0
 19 33  1  0
 19 34  1  0
 20 35  1  0
 20 36  1  0
 21 37  1  0
 21 38  1  0
 22 39  1  0
 22 40  1  0
M  CHG  1  15   1
M  END
>  <UniqueID>  (26) 
25

>  <SMILES>  (26) 
O=S(=O)(c1ccc(Oc2ccccn2)[nH+]c1)N1CCCCC1

>  <Energy>  (26) 
51.21327336886834

>  <Genealogy>  (26) 
O=S(=O)(c1ccc(Oc2ccccn2)[nH+]c1)N1CCCCC1 (protonated)
O=S(=O)(c1ccc(Oc2ccccn2)[nH+]c1)N1CCCCC1 (3D coordinates assigned)
O=S(=O)(c1ccc(Oc2ccccn2)[nH+]c1)N1CCCCC1 (nonaromatic ring conformer: 51.21327336886834 kcal/mol)

>  <smiles>  (26) 
O=S(=O)(c1ccc(Oc2ccccn2)nc1)N1CCCCC1

>  <score_type>  (26) 
oracle

>  <origin>  (26) 
adg

>  <m_score__min__energy>  (26) 
-6.1900000000000004

>  <m_primary>  (26) 
energy

$$$$
26:0
     RDKit          3D

 56 59  0  0  0  0  0  0  0  0999 V2000
   63.3820   32.9680   46.9920 C   0  0  0  0  0  0  0  0  0  0  0  0
   62.3560   31.9470   47.3650 C   0  0  0  0  0  0  0  0  0  0  0  0
   61.3290   31.6290   46.6130 O   0  0  0  0  0  0  0  0  0  0  0  0
   60.6460   30.6990   47.2490 C   0  0  0  0  0  0  0  0  0  0  0  0
   59.4080   30.0870   46.7120 C   0  0  0  0  0  0  0  0  0  0  0  0
   58.7010   30.6690   45.6410 C   0  0  0  0  0  0  0  0  0  0  0  0
   57.5390   30.0640   45.1500 C   0  0  0  0  0  0  0  0  0  0  0  0
   57.0700   28.8780   45.7190 C   0  0  0  0  0  0  0  0  0  0  0  0
   55.9160   28.2800   45.2270 O   0  0  0  0  0  0  0  0  0  0  0  0
   57.7610   28.2940   46.7830 C   0  0  0  0  0  0  0  0  0  0  0  0
   58.9230   28.8950   47.2790 C   0  0  0  0  0  0  0  0  0  0  0  0
   61.2160   30.3900   48.4360 N   0  0  0  0  0  0  0  0  0  0  0  0
   62.2900   31.1960   48.5250 C   0  0  0  0  0  0  0  0  0  0  0  0
   63.2680   31.1950   49.6670 C   0  0  0  0  0  0  0  0  0  0  0  0
   62.5800   31.9700   51.1280 S   0  0  0  0  0  0  0  0  0  0  0  0
   62.6240   33.4620   50.9540 O   0  0  0  0  0  0  0  0  0  0  0  0
   63.4230   31.6080   52.3180 O   0  0  0  0  0  0  0  0  0  0  0  0
   60.8950   31.4380   51.4500 C   0  0  0  0  0  0  0  0  0  0  0  0
   59.9470   32.5910   51.8140 C   0  0  0  0  0  0  0  0  0  0  0  0
   58.6970   32.6390   50.9090 C   0  0  0  0  0  0  0  0  0  0  0  0
   58.9050   33.3290   49.6170 N   0  0  0  0  0  0  0  0  0  0  0  0
   60.3260   33.5180   49.2750 C   0  0  0  0  0  0  0  0  0  0  0  0
   60.4410   34.5990   48.1980 C   0  0  0  0  0  0  0  0  0  0  0  0
   59.4520   34.3860   47.0760 C   0  0  0  0  0  0  0  0  0  0  0  0
   59.6030   35.1050   45.8810 C   0  0  0  0  0  0  0  0  0  0  0  0
   58.6760   34.9570   44.8460 C   0  0  0  0  0  0  0  0  0  0  0  0
   57.5870   34.0970   44.9970 C   0  0  0  0  0  0  0  0  0  0  0  0
   57.4150   33.3870   46.1880 C   0  0  0  0  0  0  0  0  0  0  0  0
   58.3300   33.5390   47.2420 C   0  0  0  0  0  0  0  0  0  0  0  0
   58.1700   32.7150   48.4950 C   0  0  0  0  0  0  0  0  0  0  0  0
   63.8171   33.4010   47.9048 H   0  0  0  0  0  0  0  0  0  0  0  0
   64.1755   32.4905   46.3984 H   0  0  0  0  0  0  0  0  0  0  0  0
   62.9084   33.7638   46.3984 H   0  0  0  0  0  0  0  0  0  0  0  0
   59.0645   31.6036   45.1888 H   0  0  0  0  0  0  0  0  0  0  0  0
   56.9931   30.5240   44.3131 H   0  0  0  0  0  0  0  0  0  0  0  0
   57.3911   27.3602   47.2317 H   0  0  0  0  0  0  0  0  0  0  0  0
   59.4613   28.4316   48.1189 H   0  0  0  0  0  0  0  0  0  0  0  0
   60.9020   29.6860   49.1390 H   0  0  0  0  0  0  0  0  0  0  0  0
   63.5349   30.1552   49.9070 H   0  0  0  0  0  0  0  0  0  0  0  0
   64.1550   31.7684   49.3597 H   0  0  0  0  0  0  0  0  0  0  0  0
   60.5085   30.9410   50.5480 H   0  0  0  0  0  0  0  0  0  0  0  0
   60.9294   30.7616   52.3168 H   0  0  0  0  0  0  0  0  0  0  0  0
   59.6222   32.4642   52.8573 H   0  0  0  0  0  0  0  0  0  0  0  0
   60.4975   33.5328   51.6725 H   0  0  0  0  0  0  0  0  0  0  0  0
   58.3830   31.6056   50.7006 H   0  0  0  0  0  0  0  0  0  0  0  0
   57.9360   33.2162   51.4546 H   0  0  0  0  0  0  0  0  0  0  0  0
   60.8825   33.8299   50.1712 H   0  0  0  0  0  0  0  0  0  0  0  0
   60.7460   32.5734   48.8991 H   0  0  0  0  0  0  0  0  0  0  0  0
   60.2511   35.5802   48.6576 H   0  0  0  0  0  0  0  0  0  0  0  0
   61.4542   34.5490   47.7726 H   0  0  0  0  0  0  0  0  0  0  0  0
   60.4557   35.7889   45.7581 H   0  0  0  0  0  0  0  0  0  0  0  0
   58.8048   35.5198   43.9097 H   0  0  0  0  0  0  0  0  0  0  0  0
   56.8632   33.9781   44.1772 H   0  0  0  0  0  0  0  0  0  0  0  0
   56.5587   32.7057   46.3004 H   0  0  0  0  0  0  0  0  0  0  0  0
   57.1025   32.6527   48.7530 H   0  0  0  0  0  0  0  0  0  0  0  0
   58.5764   31.7093   48.3126 H   0  0  0  0  0  0  0  0  0  0  0  0
  1  2  1  0
  2  3  1  0
  3  4  1  0
  4  5  1  0
  5  6  2  0
  6  7  1  0
  7  8  2  0
  8  9  1  0
  8 10  1  0
 10 11  2  0
  4 12  2  0
 12 13  1  0
 13 14  1  0
 14 15  1  0
 15 16  2  0
 15 17  2  0
 15 18  1  0
 18 19  1  0
 19 20  1  0
 20 21  1  0
 21 22  1  0
 22 23  1  0
 23 24  1  0
 24 25  2  0
 25 26  1  0
 26 27  2  0
 27 28  1  0
 28 29  2  0
 29 30  1  0
 13  2  2  0
 30 21  1  0
 11  5  1  0
 29 24  1  0
  1 31  1  0
  1 32  1  0
  1 33  1  0
  6 34  1  0
  7 35  1  0
 10 36  1  0
 11 37  1  0
 12 38  1  0
 14 39  1  0
 14 40  1  0
 18 41  1  0
 18 42  1  0
 19 43  1  0
 19 44  1  0
 20 45  1  0
 20 46  1  0
 22 47  1  0
 22 48  1  0
 23 49  1  0
 23 50  1  0
 25 51  1  0
 26 52  1  0
 27 53  1  0
 28 54  1  0
 30 55  1  0
 30 56  1  0
M  CHG  2   9  -1  12   1
M  END
>  <UniqueID>  (27) 
26

>  <SMILES>  (27) 
Cc1oc(-c2ccc([O-])cc2)[nH+]c1CS(=O)(=O)CCCN1CCc2ccccc2C1

>  <Energy>  (27) 
85.30724633424026

>  <Genealogy>  (27) 
Cc1oc(-c2ccc([O-])cc2)[nH+]c1CS(=O)(=O)CCCN1CCc2ccccc2C1 (protonated)
Cc1oc(-c2ccc([O-])cc2)[nH+]c1CS(=O)(=O)CCCN1CCc2ccccc2C1 (3D coordinates assigned)
Cc1oc(-c2ccc([O-])cc2)[nH+]c1CS(=O)(=O)CCCN1CCc2ccccc2C1 (nonaromatic ring conformer: 85.30724633424026 kcal/mol)

>  <smiles>  (27) 
Cc1oc(-c2ccc(O)cc2)nc1CS(=O)(=O)CCCN1CCc2ccccc2C1

>  <score_type>  (27) 
oracle

>  <origin>  (27) 
adg

>  <m_score__min__energy>  (27) 
-10.83

>  <m_primary>  (27) 
energy

$$$$
27:0
     RDKit          3D

 35 36  0  0  0  0  0  0  0  0999 V2000
   59.2670   34.9550   47.2300 C   0  0  0  0  0  0  0  0  0  0  0  0
   59.2670   33.4760   47.0440 C   0  0  0  0  0  0  0  0  0  0  0  0
   60.3590   32.6960   46.7140 C   0  0  0  0  0  0  0  0  0  0  0  0
   59.8450   31.4150   46.6920 C   0  0  0  0  0  0  0  0  0  0  0  0
   60.6070   30.1540   46.4160 C   0  0  0  0  0  0  0  0  0  0  0  0
   59.6820   29.0650   46.0400 N   0  0  0  0  0  0  0  0  0  0  0  0
   60.3660   27.7580   46.1210 C   0  0  0  0  0  0  0  0  0  0  0  0
   59.1530   29.2850   44.6780 C   0  0  0  0  0  0  0  0  0  0  0  0
   57.6730   29.5430   44.7220 C   0  0  0  0  0  0  0  0  0  0  0  0
   56.9830   30.6620   44.3000 C   0  0  0  0  0  0  0  0  0  0  0  0
   57.5700   31.9050   43.7140 C   0  0  0  0  0  0  0  0  0  0  0  0
   55.6620   30.4690   44.4850 N   0  0  0  0  0  0  0  0  0  0  0  0
   55.5190   29.2800   44.9970 O   0  0  0  0  0  0  0  0  0  0  0  0
   56.6800   28.6870   45.1580 C   0  0  0  0  0  0  0  0  0  0  0  0
   56.8590   27.3060   45.6970 C   0  0  0  0  0  0  0  0  0  0  0  0
   58.5360   31.4610   46.9980 N   0  0  0  0  0  0  0  0  0  0  0  0
   58.2170   32.7030   47.2060 O   0  0  0  0  0  0  0  0  0  0  0  0
   60.3041   35.3188   47.2758 H   0  0  0  0  0  0  0  0  0  0  0  0
   58.7485   35.4309   46.3846 H   0  0  0  0  0  0  0  0  0  0  0  0
   58.7485   35.2067   48.1669 H   0  0  0  0  0  0  0  0  0  0  0  0
   61.3917   33.0189   46.5160 H   0  0  0  0  0  0  0  0  0  0  0  0
   61.3133   30.3305   45.5914 H   0  0  0  0  0  0  0  0  0  0  0  0
   61.1527   29.8607   47.3249 H   0  0  0  0  0  0  0  0  0  0  0  0
   60.5094   27.4840   47.1766 H   0  0  0  0  0  0  0  0  0  0  0  0
   59.7532   26.9920   45.6233 H   0  0  0  0  0  0  0  0  0  0  0  0
   61.3447   27.8249   45.6233 H   0  0  0  0  0  0  0  0  0  0  0  0
   59.6583   30.1530   44.2295 H   0  0  0  0  0  0  0  0  0  0  0  0
   59.3387   28.3839   44.0750 H   0  0  0  0  0  0  0  0  0  0  0  0
   57.8877   32.5777   44.5242 H   0  0  0  0  0  0  0  0  0  0  0  0
   58.4393   31.6426   43.0932 H   0  0  0  0  0  0  0  0  0  0  0  0
   56.8151   32.4097   43.0932 H   0  0  0  0  0  0  0  0  0  0  0  0
   56.8548   27.3381   46.7965 H   0  0  0  0  0  0  0  0  0  0  0  0
   56.0363   26.6658   45.3458 H   0  0  0  0  0  0  0  0  0  0  0  0
   57.8177   26.8967   45.3458 H   0  0  0  0  0  0  0  0  0  0  0  0
   57.8790   30.6530   47.0710 H   0  0  0  0  0  0  0  0  0  0  0  0
  1  2  1  0
  2  3  2  0
  3  4  1  0
  4  5  1  0
  5  6  1  0
  6  7  1  0
  6  8  1  0
  8  9  1  0
  9 10  1  0
 10 11  1  0
 10 12  2  0
 12 13  1  0
 13 14  1  0
 14 15  1  0
  4 16  2  0
 16 17  1  0
 17  2  1  0
 14  9  2  0
  1 18  1  0
  1 19  1  0
  1 20  1  0
  3 21  1  0
  5 22  1  0
  5 23  1  0
  7 24  1  0
  7 25  1  0
  7 26  1  0
  8 27  1  0
  8 28  1  0
 11 29  1  0
 11 30  1  0
 11 31  1  0
 15 32  1  0
 15 33  1  0
 15 34  1  0
 16 35  1  0
M  CHG  1  16   1
M  END
>  <UniqueID>  (28) 
27

>  <SMILES>  (28) 
Cc1cc(CN(C)Cc2c(C)noc2C)[nH+]o1

>  <Energy>  (28) 
91.17801513480048

>  <Genealogy>  (28) 
Cc1cc(CN(C)Cc2c(C)noc2C)[nH+]o1 (protonated)
Cc1cc(CN(C)Cc2c(C)noc2C)[nH+]o1 (3D coordinates assigned)
Cc1cc(CN(C)Cc2c(C)noc2C)[nH+]o1 (optimized conformer: 91.17801513480048 kcal/mol)

>  <smiles>  (28) 
Cc1cc(CN(C)Cc2c(C)noc2C)no1

>  <score_type>  (28) 
oracle

>  <origin>  (28) 
adg

>  <m_score__min__energy>  (28) 
-4.9100000000000001

>  <m_primary>  (28) 
energy

$$$$
28:0
     RDKit          3D

 36 37  0  0  0  0  0  0  0  0999 V2000
   55.9200   29.7210   44.0780 C   0  0  0  0  0  0  0  0  0  0  0  0
   55.6140   28.6930   45.0140 O   0  0  0  0  0  0  0  0  0  0  0  0
   56.5650   27.8470   45.6090 C   0  0  0  0  0  0  0  0  0  0  0  0
   57.9180   28.2190   45.7330 C   0  0  0  0  0  0  0  0  0  0  0  0
   58.8390   27.3540   46.3370 C   0  0  0  0  0  0  0  0  0  0  0  0
   60.5210   27.8520   46.4950 S   0  0  0  0  0  0  0  0  0  0  0  0
   61.3680   26.7360   47.0420 O   0  0  0  0  0  0  0  0  0  0  0  0
   61.0440   28.2320   45.1400 O   0  0  0  0  0  0  0  0  0  0  0  0
   60.6270   29.2240   47.5520 N   0  0  0  0  0  0  0  0  0  0  0  0
   60.3510   30.5800   47.1780 C   0  0  0  0  0  0  0  0  0  0  0  0
   61.2980   31.5650   47.4810 C   0  0  0  0  0  0  0  0  0  0  0  0
   61.0690   32.8990   47.1330 C   0  0  0  0  0  0  0  0  0  0  0  0
   59.8870   33.2660   46.4820 C   0  0  0  0  0  0  0  0  0  0  0  0
   59.6340   34.9530   46.0590 Cl  0  0  0  0  0  0  0  0  0  0  0  0
   58.9270   32.2870   46.1780 C   0  0  0  0  0  0  0  0  0  0  0  0
   57.4260   32.7040   45.3650 Cl  0  0  0  0  0  0  0  0  0  0  0  0
   59.1600   30.9500   46.5260 C   0  0  0  0  0  0  0  0  0  0  0  0
   58.4090   26.1180   46.8320 C   0  0  0  0  0  0  0  0  0  0  0  0
   57.0690   25.7440   46.7160 C   0  0  0  0  0  0  0  0  0  0  0  0
   56.1450   26.5930   46.0830 C   0  0  0  0  0  0  0  0  0  0  0  0
   54.7600   26.2370   45.9760 N   0  0  0  0  0  0  0  0  0  0  0  0
   54.2310   24.9630   45.5830 C   0  0  0  0  0  0  0  0  0  0  0  0
   55.1080   23.8560   45.0820 C   0  0  0  0  0  0  0  0  0  0  0  0
   52.9860   24.7840   45.6210 O   0  0  0  0  0  0  0  0  0  0  0  0
   56.1934   30.6393   44.6183 H   0  0  0  0  0  0  0  0  0  0  0  0
   56.7624   29.4028   43.4462 H   0  0  0  0  0  0  0  0  0  0  0  0
   55.0407   29.9152   43.4462 H   0  0  0  0  0  0  0  0  0  0  0  0
   58.2533   29.1953   45.3529 H   0  0  0  0  0  0  0  0  0  0  0  0
   62.2291   31.2872   47.9967 H   0  0  0  0  0  0  0  0  0  0  0  0
   61.8222   33.6641   47.3723 H   0  0  0  0  0  0  0  0  0  0  0  0
   58.4069   30.1843   46.2880 H   0  0  0  0  0  0  0  0  0  0  0  0
   59.1284   25.4394   47.3137 H   0  0  0  0  0  0  0  0  0  0  0  0
   56.7341   24.7784   47.1227 H   0  0  0  0  0  0  0  0  0  0  0  0
   55.5379   23.3134   45.9368 H   0  0  0  0  0  0  0  0  0  0  0  0
   54.5109   23.1633   44.4707 H   0  0  0  0  0  0  0  0  0  0  0  0
   55.9189   24.2787   44.4707 H   0  0  0  0  0  0  0  0  0  0  0  0
  1  2  1  0
  2  3  1  0
  3  4  2  0
  4  5  1  0
  5  6  1  0
  6  7  2  0
  6  8  2  0
  6  9  1  0
  9 10  1  0
 10 11  2  0
 11 12  1  0
 12 13  2  0
 13 14  1  0
 13 15  1  0
 15 16  1  0
 15 17  2  0
  5 18  2  0
 18 19  1  0
 19 20  2  0
 20 21  1  0
 21 22  1  0
 22 23  1  0
 22 24  2  0
 20  3  1  0
 17 10  1  0
  1 25  1  0
  1 26  1  0
  1 27  1  0
  4 28  1  0
 11 29  1  0
 12 30  1  0
 17 31  1  0
 18 32  1  0
 19 33  1  0
 23 34  1  0
 23 35  1  0
 23 36  1  0
M  CHG  2   9  -1  21  -1
M  END
>  <UniqueID>  (29) 
28

>  <SMILES>  (29) 
COc1cc(S(=O)(=O)[N-]c2ccc(Cl)c(Cl)c2)ccc1[N-]C(C)=O

>  <Energy>  (29) 
43.08259087866726

>  <Genealogy>  (29) 
COc1cc(S(=O)(=O)[N-]c2ccc(Cl)c(Cl)c2)ccc1[N-]C(C)=O (protonated)
COc1cc(S(=O)(=O)[N-]c2ccc(Cl)c(Cl)c2)ccc1[N-]C(C)=O (3D coordinates assigned)
COc1cc(S(=O)(=O)[N-]c2ccc(Cl)c(Cl)c2)ccc1[N-]C(C)=O (optimized conformer: 43.08259087866726 kcal/mol)

>  <smiles>  (29) 
COc1cc(S(=O)(=O)Nc2ccc(Cl)c(Cl)c2)ccc1NC(C)=O

>  <score_type>  (29) 
oracle

>  <origin>  (29) 
adg

>  <m_score__min__energy>  (29) 
-11.27

>  <m_primary>  (29) 
energy

$$$$
29:0
     RDKit          3D

 24 24  0  0  0  0  0  0  0  0999 V2000
   60.7240   28.1840   49.5460 C   0  0  0  0  0  0  0  0  0  0  0  0
   60.5850   27.7260   48.2050 O   0  0  0  0  0  0  0  0  0  0  0  0
   59.4670   27.9740   47.3940 C   0  0  0  0  0  0  0  0  0  0  0  0
   59.2760   29.2690   46.9060 C   0  0  0  0  0  0  0  0  0  0  0  0
   58.1850   29.5670   46.0890 C   0  0  0  0  0  0  0  0  0  0  0  0
   57.2550   28.5680   45.7460 C   0  0  0  0  0  0  0  0  0  0  0  0
   56.1550   28.8340   44.9120 O   0  0  0  0  0  0  0  0  0  0  0  0
   56.1860   29.7080   43.7890 C   0  0  0  0  0  0  0  0  0  0  0  0
   57.4290   27.2630   46.2490 C   0  0  0  0  0  0  0  0  0  0  0  0
   56.4680   26.1660   45.8790 C   0  0  0  0  0  0  0  0  0  0  0  0
   55.1560   26.6460   45.9760 O   0  0  0  0  0  0  0  0  0  0  0  0
   58.5410   26.9690   47.0580 C   0  0  0  0  0  0  0  0  0  0  0  0
   60.4761   27.3673   50.2399 H   0  0  0  0  0  0  0  0  0  0  0  0
   61.7611   28.5084   49.7170 H   0  0  0  0  0  0  0  0  0  0  0  0
   60.0422   29.0301   49.7170 H   0  0  0  0  0  0  0  0  0  0  0  0
   59.9926   30.0613   47.1684 H   0  0  0  0  0  0  0  0  0  0  0  0
   58.0507   30.5909   45.7100 H   0  0  0  0  0  0  0  0  0  0  0  0
   56.2230   30.7509   44.1369 H   0  0  0  0  0  0  0  0  0  0  0  0
   57.0771   29.4924   43.1811 H   0  0  0  0  0  0  0  0  0  0  0  0
   55.2819   29.5561   43.1811 H   0  0  0  0  0  0  0  0  0  0  0  0
   56.6639   25.8387   44.8472 H   0  0  0  0  0  0  0  0  0  0  0  0
   56.5999   25.3150   46.5634 H   0  0  0  0  0  0  0  0  0  0  0  0
   55.1370   27.4990   45.4700 H   0  0  0  0  0  0  0  0  0  0  0  0
   58.6883   25.9448   47.4313 H   0  0  0  0  0  0  0  0  0  0  0  0
  1  2  1  0
  2  3  1  0
  3  4  2  0
  4  5  1  0
  5  6  2  0
  6  7  1  0
  7  8  1  0
  6  9  1  0
  9 10  1  0
 10 11  1  0
  9 12  2  0
 12  3  1  0
  1 13  1  0
  1 14  1  0
  1 15  1  0
  4 16  1  0
  5 17  1  0
  8 18  1  0
  8 19  1  0
  8 20  1  0
 10 21  1  0
 10 22  1  0
 11 23  1  0
 12 24  1  0
M  END
>  <UniqueID>  (30) 
29

>  <SMILES>  (30) 
COc1ccc(OC)c(CO)c1

>  <Energy>  (30) 
20.540161278191434

>  <Genealogy>  (30) 
COc1ccc(OC)c(CO)c1 (3D coordinates assigned)
COc1ccc(OC)c(CO)c1 (optimized conformer: 20.540161278191434 kcal/mol)

>  <smiles>  (30) 
COc1ccc(OC)c(CO)c1

>  <score_type>  (30) 
oracle

>  <origin>  (30) 
adg

>  <m_score__min__energy>  (30) 
-4.8700000000000001

>  <m_primary>  (30) 
energy

$$$$
30:0
     RDKit          3D

 32 33  0  0  0  0  0  0  0  0999 V2000
   66.1000   33.0440   50.1480 N   0  0  0  0  0  0  0  0  0  0  0  0
   65.1030   33.0910   49.5620 C   0  0  0  0  0  0  0  0  0  0  0  0
   63.8640   33.1480   48.8310 C   0  0  0  0  0  0  0  0  0  0  0  0
   63.8660   33.4650   47.4670 C   0  0  0  0  0  0  0  0  0  0  0  0
   62.6630   33.5220   46.7570 C   0  0  0  0  0  0  0  0  0  0  0  0
   61.4440   33.2480   47.4050 C   0  0  0  0  0  0  0  0  0  0  0  0
   60.1840   33.3180   46.7200 N   0  0  0  0  0  0  0  0  0  0  0  0
   59.2670   32.2370   46.5110 C   0  0  0  0  0  0  0  0  0  0  0  0
   58.0360   32.4650   46.3600 O   0  0  0  0  0  0  0  0  0  0  0  0
   59.7800   30.9040   46.3790 N   0  0  0  0  0  0  0  0  0  0  0  0
   58.9630   29.7220   46.3500 C   0  0  0  0  0  0  0  0  0  0  0  0
   58.8850   28.8550   47.4560 C   0  0  0  0  0  0  0  0  0  0  0  0
   58.1020   27.6990   47.3940 C   0  0  0  0  0  0  0  0  0  0  0  0
   57.3940   27.3880   46.2260 C   0  0  0  0  0  0  0  0  0  0  0  0
   56.4210   25.9230   46.1450 S   0  0  0  0  0  0  0  0  0  0  0  0
   54.7500   26.3450   46.0270 N   0  0  0  0  0  0  0  0  0  0  0  0
   56.8220   25.1110   44.9460 O   0  0  0  0  0  0  0  0  0  0  0  0
   56.6420   25.0960   47.3810 O   0  0  0  0  0  0  0  0  0  0  0  0
   57.4920   28.2320   45.1120 C   0  0  0  0  0  0  0  0  0  0  0  0
   58.2760   29.3880   45.1730 C   0  0  0  0  0  0  0  0  0  0  0  0
   61.4480   32.9570   48.7750 C   0  0  0  0  0  0  0  0  0  0  0  0
   62.6520   32.8980   49.4850 C   0  0  0  0  0  0  0  0  0  0  0  0
   64.8166   33.6697   46.9528 H   0  0  0  0  0  0  0  0  0  0  0  0
   62.6692   33.7819   45.6882 H   0  0  0  0  0  0  0  0  0  0  0  0
   60.8070   30.7990   46.2170 H   0  0  0  0  0  0  0  0  0  0  0  0
   59.4435   29.0886   48.3744 H   0  0  0  0  0  0  0  0  0  0  0  0
   58.0415   27.0308   48.2657 H   0  0  0  0  0  0  0  0  0  0  0  0
   54.5720   27.0870   46.7380 H   0  0  0  0  0  0  0  0  0  0  0  0
   56.9507   27.9845   44.1869 H   0  0  0  0  0  0  0  0  0  0  0  0
   58.3549   30.0409   44.2912 H   0  0  0  0  0  0  0  0  0  0  0  0
   60.4972   32.7734   49.2967 H   0  0  0  0  0  0  0  0  0  0  0  0
   62.6462   32.6550   50.5578 H   0  0  0  0  0  0  0  0  0  0  0  0
  1  2  3  0
  2  3  1  0
  3  4  2  0
  4  5  1  0
  5  6  2  0
  6  7  1  0
  7  8  1  0
  8  9  2  0
  8 10  1  0
 10 11  1  0
 11 12  2  0
 12 13  1  0
 13 14  2  0
 14 15  1  0
 15 16  1  0
 15 17  2  0
 15 18  2  0
 14 19  1  0
 19 20  2  0
  6 21  1  0
 21 22  2  0
 22  3  1  0
 20 11  1  0
  4 23  1  0
  5 24  1  0
 10 25  1  0
 12 26  1  0
 13 27  1  0
 16 28  1  0
 19 29  1  0
 20 30  1  0
 21 31  1  0
 22 32  1  0
M  CHG  2   7  -1  16  -1
M  END
>  <UniqueID>  (31) 
30

>  <SMILES>  (31) 
N#Cc1ccc([N-]C(=O)Nc2ccc(S([NH-])(=O)=O)cc2)cc1

>  <Energy>  (31) 
38.2002412809485

>  <Genealogy>  (31) 
N#Cc1ccc([N-]C(=O)Nc2ccc(S([NH-])(=O)=O)cc2)cc1 (protonated)
N#Cc1ccc([N-]C(=O)Nc2ccc(S([NH-])(=O)=O)cc2)cc1 (3D coordinates assigned)
N#Cc1ccc([N-]C(=O)Nc2ccc(S([NH-])(=O)=O)cc2)cc1 (optimized conformer: 38.2002412809485 kcal/mol)

>  <smiles>  (31) 
N#Cc1ccc(NC(=O)Nc2ccc(S(N)(=O)=O)cc2)cc1

>  <score_type>  (31) 
oracle

>  <origin>  (31) 
adg

>  <m_score__min__energy>  (31) 
-10.859999999999999

>  <m_primary>  (31) 
energy

$$$$
31:0
     RDKit          3D

 58 61  0  0  0  0  0  0  0  0999 V2000
   60.0190   25.9220   46.7260 C   0  0  0  0  0  0  0  0  0  0  0  0
   59.1080   26.8600   45.9880 C   0  0  0  0  0  0  0  0  0  0  0  0
   59.6330   27.7630   45.0500 C   0  0  0  0  0  0  0  0  0  0  0  0
   58.7910   28.6580   44.3840 C   0  0  0  0  0  0  0  0  0  0  0  0
   57.4160   28.6630   44.6410 C   0  0  0  0  0  0  0  0  0  0  0  0
   56.5810   29.5940   43.9370 N   0  0  0  0  0  0  0  0  0  0  0  0
   56.9620   30.9000   43.4780 C   0  0  0  0  0  0  0  0  0  0  0  0
   56.6500   31.2400   42.3060 O   0  0  0  0  0  0  0  0  0  0  0  0
   57.6700   31.8680   44.3500 C   0  0  0  0  0  0  0  0  0  0  0  0
   57.7730   31.6490   45.7350 C   0  0  0  0  0  0  0  0  0  0  0  0
   58.4720   32.5490   46.5430 C   0  0  0  0  0  0  0  0  0  0  0  0
   59.0620   33.6930   45.9850 C   0  0  0  0  0  0  0  0  0  0  0  0
   59.8660   34.6350   46.8420 C   0  0  0  0  0  0  0  0  0  0  0  0
   61.0100   33.9360   47.4670 N   0  0  0  0  0  0  0  0  0  0  0  0
   61.3000   34.4810   48.8140 C   0  0  0  0  0  0  0  0  0  0  0  0
   62.7310   34.1610   49.3070 C   0  0  0  0  0  0  0  0  0  0  0  0
   63.3520   33.0300   48.5910 N   0  0  0  0  0  0  0  0  0  0  0  0
   63.1250   31.6910   49.1810 C   0  0  0  0  0  0  0  0  0  0  0  0
   61.7540   31.1160   48.8930 C   0  0  0  0  0  0  0  0  0  0  0  0
   61.4960   30.4790   47.6660 C   0  0  0  0  0  0  0  0  0  0  0  0
   60.2470   29.9060   47.4150 C   0  0  0  0  0  0  0  0  0  0  0  0
   59.2440   29.9580   48.3850 C   0  0  0  0  0  0  0  0  0  0  0  0
   59.4910   30.5780   49.6110 C   0  0  0  0  0  0  0  0  0  0  0  0
   60.7380   31.1540   49.8700 C   0  0  0  0  0  0  0  0  0  0  0  0
   60.9560   31.7330   51.0780 F   0  0  0  0  0  0  0  0  0  0  0  0
   63.2970   33.1040   47.1150 C   0  0  0  0  0  0  0  0  0  0  0  0
   62.1970   34.0440   46.6040 C   0  0  0  0  0  0  0  0  0  0  0  0
   58.9310   33.9310   44.6100 C   0  0  0  0  0  0  0  0  0  0  0  0
   58.2360   33.0290   43.7990 C   0  0  0  0  0  0  0  0  0  0  0  0
   56.8950   27.7910   45.6130 C   0  0  0  0  0  0  0  0  0  0  0  0
   57.7340   26.8930   46.2800 C   0  0  0  0  0  0  0  0  0  0  0  0
   57.2080   26.0590   47.2120 F   0  0  0  0  0  0  0  0  0  0  0  0
   59.8863   26.0586   47.8094 H   0  0  0  0  0  0  0  0  0  0  0  0
   59.7748   24.8844   46.4546 H   0  0  0  0  0  0  0  0  0  0  0  0
   61.0633   26.1358   46.4546 H   0  0  0  0  0  0  0  0  0  0  0  0
   60.7124   27.7662   44.8381 H   0  0  0  0  0  0  0  0  0  0  0  0
   59.2125   29.3633   43.6527 H   0  0  0  0  0  0  0  0  0  0  0  0
   57.3003   30.7636   46.1851 H   0  0  0  0  0  0  0  0  0  0  0  0
   58.5603   32.3596   47.6230 H   0  0  0  0  0  0  0  0  0  0  0  0
   60.2446   35.4566   46.2162 H   0  0  0  0  0  0  0  0  0  0  0  0
   59.2160   35.0260   47.6386 H   0  0  0  0  0  0  0  0  0  0  0  0
   61.1774   35.5737   48.7826 H   0  0  0  0  0  0  0  0  0  0  0  0
   60.5990   34.0060   49.5161 H   0  0  0  0  0  0  0  0  0  0  0  0
   63.3583   35.0530   49.1629 H   0  0  0  0  0  0  0  0  0  0  0  0
   62.6561   33.8761   50.3668 H   0  0  0  0  0  0  0  0  0  0  0  0
   63.8811   31.0020   48.7766 H   0  0  0  0  0  0  0  0  0  0  0  0
   63.1988   31.8072   50.2724 H   0  0  0  0  0  0  0  0  0  0  0  0
   62.2829   30.4317   46.8989 H   0  0  0  0  0  0  0  0  0  0  0  0
   60.0532   29.4127   46.4511 H   0  0  0  0  0  0  0  0  0  0  0  0
   58.2596   29.5106   48.1831 H   0  0  0  0  0  0  0  0  0  0  0  0
   58.7015   30.6134   50.3761 H   0  0  0  0  0  0  0  0  0  0  0  0
   64.2677   33.4663   46.7455 H   0  0  0  0  0  0  0  0  0  0  0  0
   63.0675   32.0947   46.7426 H   0  0  0  0  0  0  0  0  0  0  0  0
   62.5661   35.0801   46.6183 H   0  0  0  0  0  0  0  0  0  0  0  0
   61.9261   33.7618   45.5759 H   0  0  0  0  0  0  0  0  0  0  0  0
   59.3777   34.8330   44.1663 H   0  0  0  0  0  0  0  0  0  0  0  0
   58.1319   33.2300   42.7225 H   0  0  0  0  0  0  0  0  0  0  0  0
   55.8211   27.8153   45.8502 H   0  0  0  0  0  0  0  0  0  0  0  0
  1  2  1  0
  2  3  2  0
  3  4  1  0
  4  5  2  0
  5  6  1  0
  6  7  1  0
  7  8  2  0
  7  9  1  0
  9 10  2  0
 10 11  1  0
 11 12  2  0
 12 13  1  0
 13 14  1  0
 14 15  1  0
 15 16  1  0
 16 17  1  0
 17 18  1  0
 18 19  1  0
 19 20  2  0
 20 21  1  0
 21 22  2  0
 22 23  1  0
 23 24  2  0
 24 25  1  0
 17 26  1  0
 26 27  1  0
 12 28  1  0
 28 29  2  0
  5 30  1  0
 30 31  2  0
 31 32  1  0
 31  2  1  0
 29  9  1  0
 27 14  1  0
 24 19  1  0
  1 33  1  0
  1 34  1  0
  1 35  1  0
  3 36  1  0
  4 37  1  0
 10 38  1  0
 11 39  1  0
 13 40  1  0
 13 41  1  0
 15 42  1  0
 15 43  1  0
 16 44  1  0
 16 45  1  0
 18 46  1  0
 18 47  1  0
 20 48  1  0
 21 49  1  0
 22 50  1  0
 23 51  1  0
 26 52  1  0
 26 53  1  0
 27 54  1  0
 27 55  1  0
 28 56  1  0
 29 57  1  0
 30 58  1  0
M  CHG  1   6  -1
M  END
>  <UniqueID>  (32) 
31

>  <SMILES>  (32) 
Cc1ccc([N-]C(=O)c2ccc(CN3CCN(Cc4ccccc4F)CC3)cc2)cc1F

>  <Energy>  (32) 
78.4568567940644

>  <Genealogy>  (32) 
Cc1ccc([N-]C(=O)c2ccc(CN3CCN(Cc4ccccc4F)CC3)cc2)cc1F (protonated)
Cc1ccc([N-]C(=O)c2ccc(CN3CCN(Cc4ccccc4F)CC3)cc2)cc1F (3D coordinates assigned)
Cc1ccc([N-]C(=O)c2ccc(CN3CCN(Cc4ccccc4F)CC3)cc2)cc1F (nonaromatic ring conformer: 78.4568567940644 kcal/mol)

>  <smiles>  (32) 
Cc1ccc(NC(=O)c2ccc(CN3CCN(Cc4ccccc4F)CC3)cc2)cc1F

>  <score_type>  (32) 
oracle

>  <origin>  (32) 
adg

>  <m_score__min__energy>  (32) 
-10.800000000000001

>  <m_primary>  (32) 
energy

$$$$
32:0
     RDKit          3D

 17 18  0  0  0  0  0  0  0  0999 V2000
   55.3490   29.3600   44.0600 F   0  0  0  0  0  0  0  0  0  0  0  0
   56.5300   29.6860   43.4200 C   0  0  0  0  0  0  0  0  0  0  0  0
   57.4320   28.6510   43.5690 F   0  0  0  0  0  0  0  0  0  0  0  0
   56.2740   29.8770   42.0730 F   0  0  0  0  0  0  0  0  0  0  0  0
   57.1020   30.9330   44.0140 C   0  0  0  0  0  0  0  0  0  0  0  0
   56.6950   31.4590   45.1970 N   0  0  0  0  0  0  0  0  0  0  0  0
   57.3930   32.5730   45.3230 N   0  0  0  0  0  0  0  0  0  0  0  0
   57.3560   33.4700   46.3350 C   0  0  0  0  0  0  0  0  0  0  0  0
   58.1600   34.5670   46.2560 N   0  0  0  0  0  0  0  0  0  0  0  0
   58.9850   34.7610   45.1790 C   0  0  0  0  0  0  0  0  0  0  0  0
   59.0170   33.8280   44.1300 C   0  0  0  0  0  0  0  0  0  0  0  0
   58.1810   32.7230   44.2560 C   0  0  0  0  0  0  0  0  0  0  0  0
   58.0270   31.7080   43.3920 N   0  0  0  0  0  0  0  0  0  0  0  0
   56.6935   33.3175   47.1998 H   0  0  0  0  0  0  0  0  0  0  0  0
   59.6264   35.6536   45.1360 H   0  0  0  0  0  0  0  0  0  0  0  0
   59.6689   33.9637   43.2545 H   0  0  0  0  0  0  0  0  0  0  0  0
   58.4920   31.5600   42.4690 H   0  0  0  0  0  0  0  0  0  0  0  0
  1  2  1  0
  2  3  1  0
  2  4  1  0
  2  5  1  0
  5  6  2  0
  6  7  1  0
  7  8  1  0
  8  9  2  0
  9 10  1  0
 10 11  2  0
 11 12  1  0
 12 13  2  0
 13  5  1  0
 12  7  1  0
  8 14  1  0
 10 15  1  0
 11 16  1  0
 13 17  1  0
M  CHG  1  13   1
M  END
>  <UniqueID>  (33) 
32

>  <SMILES>  (33) 
FC(F)(F)c1nn2cnccc2[nH+]1

>  <Energy>  (33) 
57.800801237550516

>  <Genealogy>  (33) 
FC(F)(F)c1nn2cnccc2[nH+]1 (protonated)
FC(F)(F)c1nn2cnccc2[nH+]1 (3D coordinates assigned)
FC(F)(F)c1nn2cnccc2[nH+]1 (optimized conformer: 57.800801237550516 kcal/mol)

>  <smiles>  (33) 
FC(F)(F)c1nc2ccncn2n1

>  <score_type>  (33) 
oracle

>  <origin>  (33) 
adg

>  <m_score__min__energy>  (33) 
-3.0600000000000001

>  <m_primary>  (33) 
energy

$$$$
33:0
     RDKit          3D

 48 50  0  0  0  0  0  0  0  0999 V2000
   56.4310   23.3270   43.0020 C   0  0  0  0  0  0  0  0  0  0  0  0
   55.8890   22.1600   43.7010 N   0  0  0  0  0  0  0  0  0  0  0  0
   57.0310   21.3950   44.1730 C   0  0  0  0  0  0  0  0  0  0  0  0
   55.1870   22.6480   44.8710 C   0  0  0  0  0  0  0  0  0  0  0  0
   56.0820   22.7580   46.0740 C   0  0  0  0  0  0  0  0  0  0  0  0
   57.0400   23.8110   46.0160 N   0  0  0  0  0  0  0  0  0  0  0  0
   56.7340   25.1950   45.9860 C   0  0  0  0  0  0  0  0  0  0  0  0
   55.5200   25.5780   46.0120 O   0  0  0  0  0  0  0  0  0  0  0  0
   57.8250   26.1920   45.9260 C   0  0  0  0  0  0  0  0  0  0  0  0
   57.7670   26.9380   44.6370 C   0  0  0  0  0  0  0  0  0  0  0  0
   58.9360   27.8940   44.5780 C   0  0  0  0  0  0  0  0  0  0  0  0
   58.8500   28.7620   45.7240 N   0  0  0  0  0  0  0  0  0  0  0  0
   58.7880   30.1960   45.6040 C   0  0  0  0  0  0  0  0  0  0  0  0
   59.4120   30.9780   46.5340 N   0  0  0  0  0  0  0  0  0  0  0  0
   59.1890   32.2550   46.1870 C   0  0  0  0  0  0  0  0  0  0  0  0
   59.5700   33.4670   46.7480 C   0  0  0  0  0  0  0  0  0  0  0  0
   59.1850   34.6560   46.1550 C   0  0  0  0  0  0  0  0  0  0  0  0
   59.5800   35.8190   46.7380 F   0  0  0  0  0  0  0  0  0  0  0  0
   58.4240   34.6160   45.0100 C   0  0  0  0  0  0  0  0  0  0  0  0
   58.0320   33.4310   44.4330 C   0  0  0  0  0  0  0  0  0  0  0  0
   58.4210   32.2420   45.0300 C   0  0  0  0  0  0  0  0  0  0  0  0
   58.1870   30.9490   44.6910 N   0  0  0  0  0  0  0  0  0  0  0  0
   58.8300   28.1830   47.0310 C   0  0  0  0  0  0  0  0  0  0  0  0
   57.9050   27.0150   47.1610 C   0  0  0  0  0  0  0  0  0  0  0  0
   56.7752   24.0682   43.7383 H   0  0  0  0  0  0  0  0  0  0  0  0
   57.2770   23.0164   42.3713 H   0  0  0  0  0  0  0  0  0  0  0  0
   55.6479   23.7730   42.3713 H   0  0  0  0  0  0  0  0  0  0  0  0
   57.0393   21.3895   45.2730 H   0  0  0  0  0  0  0  0  0  0  0  0
   56.9592   20.3621   43.8016 H   0  0  0  0  0  0  0  0  0  0  0  0
   57.9589   21.8545   43.8016 H   0  0  0  0  0  0  0  0  0  0  0  0
   54.7745   23.6426   44.6458 H   0  0  0  0  0  0  0  0  0  0  0  0
   54.3924   21.9258   45.1099 H   0  0  0  0  0  0  0  0  0  0  0  0
   55.4477   22.9217   46.9577 H   0  0  0  0  0  0  0  0  0  0  0  0
   56.6565   21.8210   46.1172 H   0  0  0  0  0  0  0  0  0  0  0  0
   58.0800   23.5730   45.9910 H   0  0  0  0  0  0  0  0  0  0  0  0
   58.7984   25.6798   45.9170 H   0  0  0  0  0  0  0  0  0  0  0  0
   57.8246   26.2304   43.7968 H   0  0  0  0  0  0  0  0  0  0  0  0
   56.8219   27.4967   44.5693 H   0  0  0  0  0  0  0  0  0  0  0  0
   59.8812   27.3320   44.6038 H   0  0  0  0  0  0  0  0  0  0  0  0
   58.9077   28.4802   43.6477 H   0  0  0  0  0  0  0  0  0  0  0  0
   60.1783   33.4815   47.6644 H   0  0  0  0  0  0  0  0  0  0  0  0
   58.1190   35.5629   44.5405 H   0  0  0  0  0  0  0  0  0  0  0  0
   57.4227   33.4267   43.5172 H   0  0  0  0  0  0  0  0  0  0  0  0
   57.6390   30.5770   43.8720 H   0  0  0  0  0  0  0  0  0  0  0  0
   59.8483   27.8477   47.2771 H   0  0  0  0  0  0  0  0  0  0  0  0
   58.4638   28.9592   47.7191 H   0  0  0  0  0  0  0  0  0  0  0  0
   58.2604   26.3773   47.9838 H   0  0  0  0  0  0  0  0  0  0  0  0
   56.8984   27.4147   47.3536 H   0  0  0  0  0  0  0  0  0  0  0  0
  1  2  1  0
  2  3  1  0
  2  4  1  0
  4  5  1  0
  5  6  1  0
  6  7  1  0
  7  8  2  0
  7  9  1  0
  9 10  1  0
 10 11  1  0
 11 12  1  0
 12 13  1  0
 13 14  2  0
 14 15  1  0
 15 16  2  0
 16 17  1  0
 17 18  1  0
 17 19  2  0
 19 20  1  0
 20 21  2  0
 21 22  1  0
 12 23  1  0
 23 24  1  0
 24  9  1  0
 22 13  1  0
 21 15  1  0
  1 25  1  0
  1 26  1  0
  1 27  1  0
  3 28  1  0
  3 29  1  0
  3 30  1  0
  4 31  1  0
  4 32  1  0
  5 33  1  0
  5 34  1  0
  6 35  1  0
  9 36  1  0
 10 37  1  0
 10 38  1  0
 11 39  1  0
 11 40  1  0
 16 41  1  0
 19 42  1  0
 20 43  1  0
 22 44  1  0
 23 45  1  0
 23 46  1  0
 24 47  1  0
 24 48  1  0
M  END
>  <smiles>  (34) 
CN(C)CCNC(=O)C1CCN(c2nc3cc(F)ccc3[nH]2)CC1

>  <score_type>  (34) 
oracle

>  <origin>  (34) 
adg

>  <m_score__min__energy>  (34) 
-7.1299999999999999

>  <m_primary>  (34) 
energy

$$$$
34:0
     RDKit          3D

 51 54  0  0  0  0  0  0  0  0999 V2000
   57.2400   31.2180   42.5880 C   0  0  0  0  0  0  0  0  0  0  0  0
   56.3470   30.3860   43.5070 C   0  0  0  0  0  0  0  0  0  0  0  0
   56.5070   30.7940   44.8690 O   0  0  0  0  0  0  0  0  0  0  0  0
   57.4160   31.7590   45.3460 C   0  0  0  0  0  0  0  0  0  0  0  0
   57.1670   33.1360   45.2250 C   0  0  0  0  0  0  0  0  0  0  0  0
   58.0890   34.0680   45.6920 C   0  0  0  0  0  0  0  0  0  0  0  0
   59.2760   33.6480   46.3000 C   0  0  0  0  0  0  0  0  0  0  0  0
   60.1970   34.5950   46.7660 C   0  0  0  0  0  0  0  0  0  0  0  0
   61.3810   34.1820   47.3660 C   0  0  0  0  0  0  0  0  0  0  0  0
   61.6530   32.8230   47.5160 C   0  0  0  0  0  0  0  0  0  0  0  0
   60.7460   31.8680   47.0610 C   0  0  0  0  0  0  0  0  0  0  0  0
   59.5480   32.2640   46.4360 C   0  0  0  0  0  0  0  0  0  0  0  0
   58.6150   31.3200   45.9440 C   0  0  0  0  0  0  0  0  0  0  0  0
   58.8830   29.8670   46.0100 C   0  0  0  0  0  0  0  0  0  0  0  0
   59.0900   29.1890   44.8740 C   0  0  0  0  0  0  0  0  0  0  0  0
   59.3720   27.7150   44.8850 C   0  0  0  0  0  0  0  0  0  0  0  0
   58.7110   27.0320   46.0180 N   0  0  0  0  0  0  0  0  0  0  0  0
   57.2300   26.9810   45.8970 C   0  0  0  0  0  0  0  0  0  0  0  0
   56.7680   25.6950   45.2530 C   0  0  0  0  0  0  0  0  0  0  0  0
   57.3950   25.2110   44.0920 C   0  0  0  0  0  0  0  0  0  0  0  0
   56.9560   24.0270   43.4960 C   0  0  0  0  0  0  0  0  0  0  0  0
   55.8790   23.3280   44.0430 C   0  0  0  0  0  0  0  0  0  0  0  0
   55.2410   23.8100   45.1900 C   0  0  0  0  0  0  0  0  0  0  0  0
   55.6790   24.9910   45.7930 C   0  0  0  0  0  0  0  0  0  0  0  0
   59.1320   27.6630   47.2920 C   0  0  0  0  0  0  0  0  0  0  0  0
   58.7880   29.1660   47.3440 C   0  0  0  0  0  0  0  0  0  0  0  0
   57.9107   31.8429   43.1959 H   0  0  0  0  0  0  0  0  0  0  0  0
   57.8384   30.5479   41.9532 H   0  0  0  0  0  0  0  0  0  0  0  0
   56.6139   31.8622   41.9532 H   0  0  0  0  0  0  0  0  0  0  0  0
   55.2966   30.5216   43.2100 H   0  0  0  0  0  0  0  0  0  0  0  0
   56.6342   29.3279   43.4177 H   0  0  0  0  0  0  0  0  0  0  0  0
   56.2337   33.4813   44.7563 H   0  0  0  0  0  0  0  0  0  0  0  0
   57.8824   35.1428   45.5820 H   0  0  0  0  0  0  0  0  0  0  0  0
   59.9827   35.6684   46.6569 H   0  0  0  0  0  0  0  0  0  0  0  0
   62.1049   34.9292   47.7232 H   0  0  0  0  0  0  0  0  0  0  0  0
   62.5892   32.5026   47.9964 H   0  0  0  0  0  0  0  0  0  0  0  0
   60.9672   30.7983   47.1909 H   0  0  0  0  0  0  0  0  0  0  0  0
   59.0526   29.7233   43.9132 H   0  0  0  0  0  0  0  0  0  0  0  0
   59.0069   27.2767   43.9445 H   0  0  0  0  0  0  0  0  0  0  0  0
   60.4581   27.5781   44.9931 H   0  0  0  0  0  0  0  0  0  0  0  0
   56.7871   27.0565   46.9011 H   0  0  0  0  0  0  0  0  0  0  0  0
   56.9080   27.8189   45.2612 H   0  0  0  0  0  0  0  0  0  0  0  0
   58.2352   25.7673   43.6509 H   0  0  0  0  0  0  0  0  0  0  0  0
   57.4591   23.6452   42.5953 H   0  0  0  0  0  0  0  0  0  0  0  0
   55.5317   22.3969   43.5713 H   0  0  0  0  0  0  0  0  0  0  0  0
   54.3918   23.2575   45.6185 H   0  0  0  0  0  0  0  0  0  0  0  0
   55.1707   25.3703   46.6917 H   0  0  0  0  0  0  0  0  0  0  0  0
   58.6222   27.1547   48.1237 H   0  0  0  0  0  0  0  0  0  0  0  0
   60.2249   27.5655   47.3702 H   0  0  0  0  0  0  0  0  0  0  0  0
   57.7587   29.2720   47.7174 H   0  0  0  0  0  0  0  0  0  0  0  0
   59.5303   29.6385   48.0041 H   0  0  0  0  0  0  0  0  0  0  0  0
  1  2  1  0
  2  3  1  0
  3  4  1  0
  4  5  2  0
  5  6  1  0
  6  7  2  0
  7  8  1  0
  8  9  2  0
  9 10  1  0
 10 11  2  0
 11 12  1  0
 12 13  2  0
 13 14  1  0
 14 15  2  0
 15 16  1  0
 16 17  1  0
 17 18  1  0
 18 19  1  0
 19 20  2  0
 20 21  1  0
 21 22  2  0
 22 23  1  0
 23 24  2  0
 17 25  1  0
 25 26  1  0
 13  4  1  0
 26 14  1  0
 12  7  1  0
 24 19  1  0
  1 27  1  0
  1 28  1  0
  1 29  1  0
  2 30  1  0
  2 31  1  0
  5 32  1  0
  6 33  1  0
  8 34  1  0
  9 35  1  0
 10 36  1  0
 11 37  1  0
 15 38  1  0
 16 39  1  0
 16 40  1  0
 18 41  1  0
 18 42  1  0
 20 43  1  0
 21 44  1  0
 22 45  1  0
 23 46  1  0
 24 47  1  0
 25 48  1  0
 25 49  1  0
 26 50  1  0
 26 51  1  0
M  END
>  <UniqueID>  (35) 
33

>  <SMILES>  (35) 
CCOc1ccc2ccccc2c1C1=CCN(Cc2ccccc2)CC1

>  <Energy>  (35) 
69.4076212094702

>  <Genealogy>  (35) 
CCOc1ccc2ccccc2c1C1=CCN(Cc2ccccc2)CC1 (3D coordinates assigned)
CCOc1ccc2ccccc2c1C1=CCN(Cc2ccccc2)CC1 (nonaromatic ring conformer: 69.4076212094702 kcal/mol)

>  <smiles>  (35) 
CCOc1ccc2ccccc2c1C1=CCN(Cc2ccccc2)CC1

>  <score_type>  (35) 
oracle

>  <origin>  (35) 
adg

>  <m_score__min__energy>  (35) 
-8.8200000000000003

>  <m_primary>  (35) 
energy

$$$$
35:0
     RDKit          3D

 41 43  0  0  0  0  0  0  0  0999 V2000
   63.1720   31.6890   49.0120 C   0  0  0  0  0  0  0  0  0  0  0  0
   63.5190   33.0600   48.5910 N   0  0  0  0  0  0  0  0  0  0  0  0
   62.5800   34.0560   49.1480 C   0  0  0  0  0  0  0  0  0  0  0  0
   61.1630   33.8870   48.5820 C   0  0  0  0  0  0  0  0  0  0  0  0
   61.1950   33.6090   47.1420 N   0  0  0  0  0  0  0  0  0  0  0  0
   59.9460   33.6300   46.4270 C   0  0  0  0  0  0  0  0  0  0  0  0
   59.6610   34.7040   45.5670 C   0  0  0  0  0  0  0  0  0  0  0  0
   58.4290   34.7800   44.9150 C   0  0  0  0  0  0  0  0  0  0  0  0
   57.4660   33.7910   45.1190 C   0  0  0  0  0  0  0  0  0  0  0  0
   57.7380   32.7170   45.9680 C   0  0  0  0  0  0  0  0  0  0  0  0
   58.9790   32.6200   46.6140 C   0  0  0  0  0  0  0  0  0  0  0  0
   59.3060   31.1820   47.6440 S   0  0  0  0  0  0  0  0  0  0  0  0
   58.9740   30.0260   46.3130 C   0  0  0  0  0  0  0  0  0  0  0  0
   57.6580   29.6480   46.0190 C   0  0  0  0  0  0  0  0  0  0  0  0
   57.4020   28.7420   44.9860 C   0  0  0  0  0  0  0  0  0  0  0  0
   58.4600   28.2140   44.2390 C   0  0  0  0  0  0  0  0  0  0  0  0
   58.1390   27.0750   42.9430 Cl  0  0  0  0  0  0  0  0  0  0  0  0
   59.7750   28.5980   44.5240 C   0  0  0  0  0  0  0  0  0  0  0  0
   60.0320   29.5040   45.5580 C   0  0  0  0  0  0  0  0  0  0  0  0
   62.4430   33.8000   46.3950 C   0  0  0  0  0  0  0  0  0  0  0  0
   63.6550   33.1630   47.1120 C   0  0  0  0  0  0  0  0  0  0  0  0
   63.1584   31.6352   50.1106 H   0  0  0  0  0  0  0  0  0  0  0  0
   62.1788   31.4253   48.6196 H   0  0  0  0  0  0  0  0  0  0  0  0
   63.9202   30.9845   48.6196 H   0  0  0  0  0  0  0  0  0  0  0  0
   64.4580   33.2670   49.0090 H   0  0  0  0  0  0  0  0  0  0  0  0
   62.5428   33.9372   50.2409 H   0  0  0  0  0  0  0  0  0  0  0  0
   62.9408   35.0572   48.8697 H   0  0  0  0  0  0  0  0  0  0  0  0
   60.6683   33.0507   49.0977 H   0  0  0  0  0  0  0  0  0  0  0  0
   60.6103   34.8243   48.7429 H   0  0  0  0  0  0  0  0  0  0  0  0
   60.4136   35.4900   45.4065 H   0  0  0  0  0  0  0  0  0  0  0  0
   58.2169   35.6214   44.2389 H   0  0  0  0  0  0  0  0  0  0  0  0
   56.4927   33.8577   44.6108 H   0  0  0  0  0  0  0  0  0  0  0  0
   56.9745   31.9421   46.1313 H   0  0  0  0  0  0  0  0  0  0  0  0
   56.8239   30.0651   46.6024 H   0  0  0  0  0  0  0  0  0  0  0  0
   56.3675   28.4439   44.7603 H   0  0  0  0  0  0  0  0  0  0  0  0
   60.6075   28.1869   43.9342 H   0  0  0  0  0  0  0  0  0  0  0  0
   61.0662   29.8070   45.7786 H   0  0  0  0  0  0  0  0  0  0  0  0
   62.3359   33.3386   45.4022 H   0  0  0  0  0  0  0  0  0  0  0  0
   62.6273   34.8815   46.3157 H   0  0  0  0  0  0  0  0  0  0  0  0
   63.7972   32.1492   46.7095 H   0  0  0  0  0  0  0  0  0  0  0  0
   64.5115   33.8272   46.9242 H   0  0  0  0  0  0  0  0  0  0  0  0
  1  2  1  0
  2  3  1  0
  3  4  1  0
  4  5  1  0
  5  6  1  0
  6  7  2  0
  7  8  1  0
  8  9  2  0
  9 10  1  0
 10 11  2  0
 11 12  1  0
 12 13  1  0
 13 14  2  0
 14 15  1  0
 15 16  2  0
 16 17  1  0
 16 18  1  0
 18 19  2  0
  5 20  1  0
 20 21  1  0
 21  2  1  0
 11  6  1  0
 19 13  1  0
  1 22  1  0
  1 23  1  0
  1 24  1  0
  2 25  1  0
  3 26  1  0
  3 27  1  0
  4 28  1  0
  4 29  1  0
  7 30  1  0
  8 31  1  0
  9 32  1  0
 10 33  1  0
 14 34  1  0
 15 35  1  0
 18 36  1  0
 19 37  1  0
 20 38  1  0
 20 39  1  0
 21 40  1  0
 21 41  1  0
M  CHG  1   2   1
M  END
>  <UniqueID>  (36) 
34

>  <SMILES>  (36) 
C[NH+]1CCN(c2ccccc2Sc2ccc(Cl)cc2)CC1

>  <Energy>  (36) 
49.46831979174757

>  <Genealogy>  (36) 
C[NH+]1CCN(c2ccccc2Sc2ccc(Cl)cc2)CC1 (protonated)
C[NH+]1CCN(c2ccccc2Sc2ccc(Cl)cc2)CC1 (3D coordinates assigned)
C[NH+]1CCN(c2ccccc2Sc2ccc(Cl)cc2)CC1 (nonaromatic ring conformer: 49.46831979174757 kcal/mol)

>  <smiles>  (36) 
CN1CCN(c2ccccc2Sc2ccc(Cl)cc2)CC1

>  <score_type>  (36) 
oracle

>  <origin>  (36) 
adg

>  <m_score__min__energy>  (36) 
-6.2300000000000004

>  <m_primary>  (36) 
energy

$$$$
36:0
     RDKit          3D

 35 37  0  0  0  0  0  0  0  0999 V2000
   58.3670   32.4040   43.2300 O   0  0  0  0  0  0  0  0  0  0  0  0
   57.9630   32.2210   44.4110 C   0  0  0  0  0  0  0  0  0  0  0  0
   58.0610   30.8560   44.9600 C   0  0  0  0  0  0  0  0  0  0  0  0
   59.1590   30.4180   45.7140 C   0  0  0  0  0  0  0  0  0  0  0  0
   59.0430   29.0980   46.1220 C   0  0  0  0  0  0  0  0  0  0  0  0
   60.2040   28.2280   47.1010 Cl  0  0  0  0  0  0  0  0  0  0  0  0
   57.6070   28.4590   45.5260 S   0  0  0  0  0  0  0  0  0  0  0  0
   57.1070   29.8630   44.7490 C   0  0  0  0  0  0  0  0  0  0  0  0
   55.6460   30.0030   43.7890 Cl  0  0  0  0  0  0  0  0  0  0  0  0
   57.4320   33.3510   45.1600 N   0  0  0  0  0  0  0  0  0  0  0  0
   57.3240   33.1660   46.6200 C   0  0  0  0  0  0  0  0  0  0  0  0
   58.6790   33.1430   47.3580 C   0  0  0  0  0  0  0  0  0  0  0  0
   59.7910   33.8200   46.6580 N   0  0  0  0  0  0  0  0  0  0  0  0
   61.1340   33.7400   47.2020 C   0  0  0  0  0  0  0  0  0  0  0  0
   61.3900   33.8630   48.5850 C   0  0  0  0  0  0  0  0  0  0  0  0
   62.7000   33.7630   49.0570 C   0  0  0  0  0  0  0  0  0  0  0  0
   63.7490   33.5430   48.1660 C   0  0  0  0  0  0  0  0  0  0  0  0
   63.4700   33.4290   46.8040 C   0  0  0  0  0  0  0  0  0  0  0  0
   62.1880   33.5280   46.3610 N   0  0  0  0  0  0  0  0  0  0  0  0
   59.6320   34.4960   45.3570 C   0  0  0  0  0  0  0  0  0  0  0  0
   58.1800   34.5870   44.8840 C   0  0  0  0  0  0  0  0  0  0  0  0
   60.0223   31.0551   45.9565 H   0  0  0  0  0  0  0  0  0  0  0  0
   56.4570   33.5010   44.8080 H   0  0  0  0  0  0  0  0  0  0  0  0
   56.7229   33.9917   47.0286 H   0  0  0  0  0  0  0  0  0  0  0  0
   56.8609   32.1811   46.7798 H   0  0  0  0  0  0  0  0  0  0  0  0
   58.5431   33.6329   48.3335 H   0  0  0  0  0  0  0  0  0  0  0  0
   58.9666   32.0839   47.4330 H   0  0  0  0  0  0  0  0  0  0  0  0
   60.5613   34.0368   49.2872 H   0  0  0  0  0  0  0  0  0  0  0  0
   62.9046   33.8580   50.1336 H   0  0  0  0  0  0  0  0  0  0  0  0
   64.7831   33.4604   48.5319 H   0  0  0  0  0  0  0  0  0  0  0  0
   64.2874   33.2589   46.0878 H   0  0  0  0  0  0  0  0  0  0  0  0
   60.0332   35.5165   45.4447 H   0  0  0  0  0  0  0  0  0  0  0  0
   60.1748   33.8937   44.6136 H   0  0  0  0  0  0  0  0  0  0  0  0
   57.6889   35.4229   45.4038 H   0  0  0  0  0  0  0  0  0  0  0  0
   58.1866   34.7442   43.7953 H   0  0  0  0  0  0  0  0  0  0  0  0
  1  2  2  0
  2  3  1  0
  3  4  1  0
  4  5  2  0
  5  6  1  0
  5  7  1  0
  7  8  1  0
  8  9  1  0
  2 10  1  0
 10 11  1  0
 11 12  1  0
 12 13  1  0
 13 14  1  0
 14 15  2  0
 15 16  1  0
 16 17  2  0
 17 18  1  0
 18 19  2  0
 13 20  1  0
 20 21  1  0
  8  3  2  0
 21 10  1  0
 19 14  1  0
  4 22  1  0
 10 23  1  0
 11 24  1  0
 11 25  1  0
 12 26  1  0
 12 27  1  0
 15 28  1  0
 16 29  1  0
 17 30  1  0
 18 31  1  0
 20 32  1  0
 20 33  1  0
 21 34  1  0
 21 35  1  0
M  CHG  1  10   1
M  END
>  <UniqueID>  (37) 
35

>  <SMILES>  (37) 
O=C(c1cc(Cl)sc1Cl)[NH+]1CCN(c2ccccn2)CC1

>  <Energy>  (37) 
82.14771166305704

>  <Genealogy>  (37) 
O=C(c1cc(Cl)sc1Cl)[NH+]1CCN(c2ccccn2)CC1 (protonated)
O=C(c1cc(Cl)sc1Cl)[NH+]1CCN(c2ccccn2)CC1 (3D coordinates assigned)
O=C(c1cc(Cl)sc1Cl)[NH+]1CCN(c2ccccn2)CC1 (nonaromatic ring conformer: 82.14771166305704 kcal/mol)

>  <smiles>  (37) 
O=C(c1cc(Cl)sc1Cl)N1CCN(c2ccccn2)CC1

>  <score_type>  (37) 
oracle

>  <origin>  (37) 
adg

>  <m_score__min__energy>  (37) 
-6.1100000000000003

>  <m_primary>  (37) 
energy

$$$$
37:0
     RDKit          3D

 57 60  0  0  0  0  0  0  0  0999 V2000
   58.0140   27.4490   43.0410 O   0  0  0  0  0  0  0  0  0  0  0  0
   57.7780   28.2410   43.9440 C   0  0  0  0  0  0  0  0  0  0  0  0
   56.8470   29.3940   43.6300 C   0  0  0  0  0  0  0  0  0  0  0  0
   56.6290   30.2460   44.7520 O   0  0  0  0  0  0  0  0  0  0  0  0
   57.5270   31.2400   45.1730 C   0  0  0  0  0  0  0  0  0  0  0  0
   57.7130   32.4420   44.4660 C   0  0  0  0  0  0  0  0  0  0  0  0
   58.5820   33.3520   44.8960 O   0  0  0  0  0  0  0  0  0  0  0  0
   59.3140   33.1890   45.9960 C   0  0  0  0  0  0  0  0  0  0  0  0
   60.2920   34.2660   46.4020 C   0  0  0  0  0  0  0  0  0  0  0  0
   61.4020   33.7700   47.2440 N   0  0  0  0  0  0  0  0  0  0  0  0
   62.7190   33.8710   46.5920 C   0  0  0  0  0  0  0  0  0  0  0  0
   63.7200   32.9930   47.3460 C   0  0  0  0  0  0  0  0  0  0  0  0
   63.5430   33.1250   48.7990 N   0  0  0  0  0  0  0  0  0  0  0  0
   64.2210   32.2200   49.6920 C   0  0  0  0  0  0  0  0  0  0  0  0
   63.5070   31.2040   50.3480 C   0  0  0  0  0  0  0  0  0  0  0  0
   64.1610   30.3290   51.2200 C   0  0  0  0  0  0  0  0  0  0  0  0
   65.5330   30.4600   51.4450 C   0  0  0  0  0  0  0  0  0  0  0  0
   66.3520   29.3680   52.5470 Cl  0  0  0  0  0  0  0  0  0  0  0  0
   66.2540   31.4630   50.7890 C   0  0  0  0  0  0  0  0  0  0  0  0
   65.6040   32.3380   49.9140 C   0  0  0  0  0  0  0  0  0  0  0  0
   62.7490   34.2410   49.3280 C   0  0  0  0  0  0  0  0  0  0  0  0
   61.3820   34.3290   48.6180 C   0  0  0  0  0  0  0  0  0  0  0  0
   59.1720   32.0230   46.7610 C   0  0  0  0  0  0  0  0  0  0  0  0
   58.2760   31.0420   46.3380 C   0  0  0  0  0  0  0  0  0  0  0  0
   58.1480   29.9800   47.0040 O   0  0  0  0  0  0  0  0  0  0  0  0
   58.4000   28.0310   45.2430 N   0  0  0  0  0  0  0  0  0  0  0  0
   58.0680   26.7240   45.8320 C   0  0  0  0  0  0  0  0  0  0  0  0
   59.2720   26.2910   46.6460 C   0  0  0  0  0  0  0  0  0  0  0  0
   60.4540   26.9810   45.9950 C   0  0  0  0  0  0  0  0  0  0  0  0
   59.8690   28.1560   45.2180 C   0  0  0  0  0  0  0  0  0  0  0  0
   57.2862   29.9894   42.8160 H   0  0  0  0  0  0  0  0  0  0  0  0
   55.8747   28.9673   43.3428 H   0  0  0  0  0  0  0  0  0  0  0  0
   57.1346   32.6307   43.5496 H   0  0  0  0  0  0  0  0  0  0  0  0
   60.7184   34.7102   45.4905 H   0  0  0  0  0  0  0  0  0  0  0  0
   59.7338   34.9992   47.0027 H   0  0  0  0  0  0  0  0  0  0  0  0
   62.6411   33.5287   45.5495 H   0  0  0  0  0  0  0  0  0  0  0  0
   63.0598   34.9168   46.6055 H   0  0  0  0  0  0  0  0  0  0  0  0
   63.5658   31.9425   47.0584 H   0  0  0  0  0  0  0  0  0  0  0  0
   64.7382   33.3173   47.0851 H   0  0  0  0  0  0  0  0  0  0  0  0
   62.4261   31.0961   50.1744 H   0  0  0  0  0  0  0  0  0  0  0  0
   63.5941   29.5360   51.7298 H   0  0  0  0  0  0  0  0  0  0  0  0
   67.3356   31.5635   50.9622 H   0  0  0  0  0  0  0  0  0  0  0  0
   66.1769   33.1220   49.3971 H   0  0  0  0  0  0  0  0  0  0  0  0
   62.5863   34.0885   50.4052 H   0  0  0  0  0  0  0  0  0  0  0  0
   63.2979   35.1778   49.1513 H   0  0  0  0  0  0  0  0  0  0  0  0
   60.6427   33.7715   49.2119 H   0  0  0  0  0  0  0  0  0  0  0  0
   61.1243   35.3951   48.5343 H   0  0  0  0  0  0  0  0  0  0  0  0
   59.7586   31.8840   47.6811 H   0  0  0  0  0  0  0  0  0  0  0  0
   58.0370   28.7640   45.9010 H   0  0  0  0  0  0  0  0  0  0  0  0
   57.1848   26.8148   46.4814 H   0  0  0  0  0  0  0  0  0  0  0  0
   57.8349   25.9866   45.0498 H   0  0  0  0  0  0  0  0  0  0  0  0
   59.1661   26.6109   47.6931 H   0  0  0  0  0  0  0  0  0  0  0  0
   59.3889   25.1973   46.6613 H   0  0  0  0  0  0  0  0  0  0  0  0
   61.1580   27.3397   46.7603 H   0  0  0  0  0  0  0  0  0  0  0  0
   61.0121   26.2974   45.3383 H   0  0  0  0  0  0  0  0  0  0  0  0
   60.1714   29.1029   45.6891 H   0  0  0  0  0  0  0  0  0  0  0  0
   60.2360   28.1498   44.1810 H   0  0  0  0  0  0  0  0  0  0  0  0
  1  2  2  0
  2  3  1  0
  3  4  1  0
  4  5  1  0
  5  6  2  0
  6  7  1  0
  7  8  1  0
  8  9  1  0
  9 10  1  0
 10 11  1  0
 11 12  1  0
 12 13  1  0
 13 14  1  0
 14 15  2  0
 15 16  1  0
 16 17  2  0
 17 18  1  0
 17 19  1  0
 19 20  2  0
 13 21  1  0
 21 22  1  0
  8 23  2  0
 23 24  1  0
 24 25  2  0
  2 26  1  0
 26 27  1  0
 27 28  1  0
 28 29  1  0
 29 30  1  0
 24  5  1  0
 30 26  1  0
 22 10  1  0
 20 14  1  0
  3 31  1  0
  3 32  1  0
  6 33  1  0
  9 34  1  0
  9 35  1  0
 11 36  1  0
 11 37  1  0
 12 38  1  0
 12 39  1  0
 15 40  1  0
 16 41  1  0
 19 42  1  0
 20 43  1  0
 21 44  1  0
 21 45  1  0
 22 46  1  0
 22 47  1  0
 23 48  1  0
 26 49  1  0
 27 50  1  0
 27 51  1  0
 28 52  1  0
 28 53  1  0
 29 54  1  0
 29 55  1  0
 30 56  1  0
 30 57  1  0
M  CHG  1  26   1
M  END
>  <UniqueID>  (38) 
36

>  <SMILES>  (38) 
O=C(COc1coc(CN2CCN(c3ccc(Cl)cc3)CC2)cc1=O)[NH+]1CCCC1

>  <Energy>  (38) 
77.91027510679142

>  <Genealogy>  (38) 
O=C(COc1coc(CN2CCN(c3ccc(Cl)cc3)CC2)cc1=O)[NH+]1CCCC1 (protonated)
O=C(COc1coc(CN2CCN(c3ccc(Cl)cc3)CC2)cc1=O)[NH+]1CCCC1 (3D coordinates assigned)
O=C(COc1coc(CN2CCN(c3ccc(Cl)cc3)CC2)cc1=O)[NH+]1CCCC1 (nonaromatic ring conformer: 77.91027510679142 kcal/mol)

>  <smiles>  (38) 
O=C(COc1coc(CN2CCN(c3ccc(Cl)cc3)CC2)cc1=O)N1CCCC1

>  <score_type>  (38) 
oracle

>  <origin>  (38) 
adg

>  <m_score__min__energy>  (38) 
-6.5099999999999998

>  <m_primary>  (38) 
energy

$$$$
38:0
     RDKit          3D

 51 52  0  0  0  0  0  0  0  0999 V2000
   58.5270   32.9650   46.5630 C   0  0  0  0  0  0  0  0  0  0  0  0
   58.9270   31.7040   47.3440 C   0  0  0  0  0  0  0  0  0  0  0  0
   60.3210   31.2680   47.0980 N   0  0  0  0  0  0  0  0  0  0  0  0
   61.3080   32.3590   47.2820 C   0  0  0  0  0  0  0  0  0  0  0  0
   62.6990   31.7640   47.4540 C   0  0  0  0  0  0  0  0  0  0  0  0
   60.6680   30.0310   47.8310 C   0  0  0  0  0  0  0  0  0  0  0  0
   59.5900   28.9540   47.6260 C   0  0  0  0  0  0  0  0  0  0  0  0
   60.0610   27.5640   48.0750 C   0  0  0  0  0  0  0  0  0  0  0  0
   59.7740   26.5260   47.0350 C   0  0  0  0  0  0  0  0  0  0  0  0
   60.5030   26.4480   46.0090 O   0  0  0  0  0  0  0  0  0  0  0  0
   58.7410   25.6070   47.2520 O   0  0  0  0  0  0  0  0  0  0  0  0
   58.1730   24.8410   46.2280 C   0  0  0  0  0  0  0  0  0  0  0  0
   58.7870   23.6260   45.8990 C   0  0  0  0  0  0  0  0  0  0  0  0
   58.3000   22.8470   44.8490 C   0  0  0  0  0  0  0  0  0  0  0  0
   57.1870   23.2710   44.1230 C   0  0  0  0  0  0  0  0  0  0  0  0
   56.5780   22.2910   42.8010 Cl  0  0  0  0  0  0  0  0  0  0  0  0
   56.5460   24.4680   44.4590 C   0  0  0  0  0  0  0  0  0  0  0  0
   57.0150   25.2590   45.5250 C   0  0  0  0  0  0  0  0  0  0  0  0
   56.2570   26.4720   45.9100 C   0  0  0  0  0  0  0  0  0  0  0  0
   55.0090   26.4120   46.0750 O   0  0  0  0  0  0  0  0  0  0  0  0
   56.9520   27.7100   46.1160 N   0  0  0  0  0  0  0  0  0  0  0  0
   56.9800   28.8360   45.2270 C   0  0  0  0  0  0  0  0  0  0  0  0
   55.8120   29.3440   44.6270 C   0  0  0  0  0  0  0  0  0  0  0  0
   55.8880   30.4310   43.7500 C   0  0  0  0  0  0  0  0  0  0  0  0
   57.1260   31.0090   43.4550 C   0  0  0  0  0  0  0  0  0  0  0  0
   58.2910   30.4940   44.0290 C   0  0  0  0  0  0  0  0  0  0  0  0
   58.2190   29.4070   44.9050 C   0  0  0  0  0  0  0  0  0  0  0  0
   58.2721   33.7685   47.2697 H   0  0  0  0  0  0  0  0  0  0  0  0
   59.3673   33.2863   45.9301 H   0  0  0  0  0  0  0  0  0  0  0  0
   57.6551   32.7431   45.9301 H   0  0  0  0  0  0  0  0  0  0  0  0
   58.8121   31.9100   48.4184 H   0  0  0  0  0  0  0  0  0  0  0  0
   58.2706   30.8912   46.9998 H   0  0  0  0  0  0  0  0  0  0  0  0
   61.2970   33.0156   46.3995 H   0  0  0  0  0  0  0  0  0  0  0  0
   61.0462   32.9420   48.1773 H   0  0  0  0  0  0  0  0  0  0  0  0
   62.9263   31.6668   48.5259 H   0  0  0  0  0  0  0  0  0  0  0  0
   62.7346   30.7719   46.9802 H   0  0  0  0  0  0  0  0  0  0  0  0
   63.4410   32.4235   46.9802 H   0  0  0  0  0  0  0  0  0  0  0  0
   61.6320   29.6513   47.4615 H   0  0  0  0  0  0  0  0  0  0  0  0
   60.7340   30.2639   48.9040 H   0  0  0  0  0  0  0  0  0  0  0  0
   58.6987   29.2305   48.2084 H   0  0  0  0  0  0  0  0  0  0  0  0
   59.3673   28.9020   46.5500 H   0  0  0  0  0  0  0  0  0  0  0  0
   61.1451   27.5959   48.2588 H   0  0  0  0  0  0  0  0  0  0  0  0
   59.5166   27.2942   48.9919 H   0  0  0  0  0  0  0  0  0  0  0  0
   59.6604   23.2831   46.4731 H   0  0  0  0  0  0  0  0  0  0  0  0
   58.7940   21.8980   44.5935 H   0  0  0  0  0  0  0  0  0  0  0  0
   55.6666   24.7946   43.8845 H   0  0  0  0  0  0  0  0  0  0  0  0
   54.8372   28.8849   44.8485 H   0  0  0  0  0  0  0  0  0  0  0  0
   54.9718   30.8317   43.2916 H   0  0  0  0  0  0  0  0  0  0  0  0
   57.1830   31.8688   42.7713 H   0  0  0  0  0  0  0  0  0  0  0  0
   59.2660   30.9444   43.7913 H   0  0  0  0  0  0  0  0  0  0  0  0
   59.1404   28.9972   45.3444 H   0  0  0  0  0  0  0  0  0  0  0  0
  1  2  1  0
  2  3  1  0
  3  4  1  0
  4  5  1  0
  3  6  1  0
  6  7  1  0
  7  8  1  0
  8  9  1  0
  9 10  2  0
  9 11  1  0
 11 12  1  0
 12 13  2  0
 13 14  1  0
 14 15  2  0
 15 16  1  0
 15 17  1  0
 17 18  2  0
 18 19  1  0
 19 20  2  0
 19 21  1  0
 21 22  1  0
 22 23  2  0
 23 24  1  0
 24 25  2  0
 25 26  1  0
 26 27  2  0
 18 12  1  0
 27 22  1  0
  1 28  1  0
  1 29  1  0
  1 30  1  0
  2 31  1  0
  2 32  1  0
  4 33  1  0
  4 34  1  0
  5 35  1  0
  5 36  1  0
  5 37  1  0
  6 38  1  0
  6 39  1  0
  7 40  1  0
  7 41  1  0
  8 42  1  0
  8 43  1  0
 13 44  1  0
 14 45  1  0
 17 46  1  0
 23 47  1  0
 24 48  1  0
 25 49  1  0
 26 50  1  0
 27 51  1  0
M  CHG  1  21  -1
M  END
>  <UniqueID>  (39) 
37

>  <SMILES>  (39) 
CCN(CC)CCCC(=O)Oc1ccc(Cl)cc1C(=O)[N-]c1ccccc1

>  <Energy>  (39) 
60.49079845530157

>  <Genealogy>  (39) 
CCN(CC)CCCC(=O)Oc1ccc(Cl)cc1C(=O)[N-]c1ccccc1 (protonated)
CCN(CC)CCCC(=O)Oc1ccc(Cl)cc1C(=O)[N-]c1ccccc1 (3D coordinates assigned)
CCN(CC)CCCC(=O)Oc1ccc(Cl)cc1C(=O)[N-]c1ccccc1 (optimized conformer: 60.49079845530157 kcal/mol)

>  <smiles>  (39) 
CCN(CC)CCCC(=O)Oc1ccc(Cl)cc1C(=O)Nc1ccccc1

>  <score_type>  (39) 
oracle

>  <origin>  (39) 
adg

>  <m_score__min__energy>  (39) 
-10.15

>  <m_primary>  (39) 
energy

$$$$
39:0
     RDKit          3D

 44 45  0  0  0  0  0  0  0  0999 V2000
   56.8630   30.4960   43.6460 C   0  0  0  0  0  0  0  0  0  0  0  0
   56.7390   31.2110   44.8710 O   0  0  0  0  0  0  0  0  0  0  0  0
   57.6290   32.2060   45.3020 C   0  0  0  0  0  0  0  0  0  0  0  0
   57.6050   33.5140   44.7870 C   0  0  0  0  0  0  0  0  0  0  0  0
   58.5120   34.4680   45.2520 C   0  0  0  0  0  0  0  0  0  0  0  0
   59.4510   34.1270   46.2280 C   0  0  0  0  0  0  0  0  0  0  0  0
   59.4970   32.8230   46.7510 C   0  0  0  0  0  0  0  0  0  0  0  0
   60.4700   32.4690   47.7590 N   0  0  0  0  0  0  0  0  0  0  0  0
   60.0520   31.8690   49.0310 C   0  0  0  0  0  0  0  0  0  0  0  0
   59.7250   30.4150   48.8540 C   0  0  0  0  0  0  0  0  0  0  0  0
   58.7440   29.9170   49.4700 O   0  0  0  0  0  0  0  0  0  0  0  0
   60.5160   29.5960   47.9790 N   0  0  0  0  0  0  0  0  0  0  0  0
   60.4070   28.1380   47.9630 C   0  0  0  0  0  0  0  0  0  0  0  0
   59.3440   27.7080   46.9830 C   0  0  0  0  0  0  0  0  0  0  0  0
   58.2640   26.9270   47.4330 C   0  0  0  0  0  0  0  0  0  0  0  0
   57.2930   26.4780   46.5350 C   0  0  0  0  0  0  0  0  0  0  0  0
   57.3880   26.8000   45.1800 C   0  0  0  0  0  0  0  0  0  0  0  0
   58.4560   27.5710   44.7190 C   0  0  0  0  0  0  0  0  0  0  0  0
   59.4390   28.0230   45.6090 C   0  0  0  0  0  0  0  0  0  0  0  0
   60.7830   28.9590   44.9630 Cl  0  0  0  0  0  0  0  0  0  0  0  0
   62.1690   32.7440   47.4720 S   0  0  0  0  0  0  0  0  0  0  0  0
   62.9170   33.4660   48.9160 C   0  0  0  0  0  0  0  0  0  0  0  0
   62.3470   33.7000   46.3250 O   0  0  0  0  0  0  0  0  0  0  0  0
   62.8470   31.4480   47.1330 O   0  0  0  0  0  0  0  0  0  0  0  0
   58.5720   31.8730   46.2810 C   0  0  0  0  0  0  0  0  0  0  0  0
   57.0474   29.4327   43.8591 H   0  0  0  0  0  0  0  0  0  0  0  0
   55.9338   30.5980   43.0662 H   0  0  0  0  0  0  0  0  0  0  0  0
   57.7036   30.9049   43.0662 H   0  0  0  0  0  0  0  0  0  0  0  0
   56.8696   33.7864   44.0156 H   0  0  0  0  0  0  0  0  0  0  0  0
   58.4870   35.4910   44.8486 H   0  0  0  0  0  0  0  0  0  0  0  0
   60.1606   34.8853   46.5905 H   0  0  0  0  0  0  0  0  0  0  0  0
   60.8681   31.9685   49.7618 H   0  0  0  0  0  0  0  0  0  0  0  0
   59.1520   32.3913   49.3876 H   0  0  0  0  0  0  0  0  0  0  0  0
   61.2360   30.0470   47.3710 H   0  0  0  0  0  0  0  0  0  0  0  0
   61.3731   27.7043   47.6653 H   0  0  0  0  0  0  0  0  0  0  0  0
   60.1327   27.7866   48.9686 H   0  0  0  0  0  0  0  0  0  0  0  0
   58.1837   26.6682   48.4991 H   0  0  0  0  0  0  0  0  0  0  0  0
   56.4512   25.8691   46.8964 H   0  0  0  0  0  0  0  0  0  0  0  0
   56.6209   26.4460   44.4755 H   0  0  0  0  0  0  0  0  0  0  0  0
   58.5264   27.8252   43.6511 H   0  0  0  0  0  0  0  0  0  0  0  0
   62.4656   33.0303   49.8195 H   0  0  0  0  0  0  0  0  0  0  0  0
   63.9977   33.2608   48.9106 H   0  0  0  0  0  0  0  0  0  0  0  0
   62.7502   34.5533   48.9106 H   0  0  0  0  0  0  0  0  0  0  0  0
   58.5902   30.8519   46.6896 H   0  0  0  0  0  0  0  0  0  0  0  0
  1  2  1  0
  2  3  1  0
  3  4  2  0
  4  5  1  0
  5  6  2  0
  6  7  1  0
  7  8  1  0
  8  9  1  0
  9 10  1  0
 10 11  2  0
 10 12  1  0
 12 13  1  0
 13 14  1  0
 14 15  2  0
 15 16  1  0
 16 17  2  0
 17 18  1  0
 18 19  2  0
 19 20  1  0
  8 21  1  0
 21 22  1  0
 21 23  2  0
 21 24  2  0
  7 25  2  0
 25  3  1  0
 19 14  1  0
  1 26  1  0
  1 27  1  0
  1 28  1  0
  4 29  1  0
  5 30  1  0
  6 31  1  0
  9 32  1  0
  9 33  1  0
 12 34  1  0
 13 35  1  0
 13 36  1  0
 15 37  1  0
 16 38  1  0
 17 39  1  0
 18 40  1  0
 22 41  1  0
 22 42  1  0
 22 43  1  0
 25 44  1  0
M  END
>  <UniqueID>  (40) 
38

>  <SMILES>  (40) 
COc1cccc(N(CC(=O)NCc2ccccc2Cl)S(C)(=O)=O)c1

>  <Energy>  (40) 
38.47506102748048

>  <Genealogy>  (40) 
COc1cccc(N(CC(=O)NCc2ccccc2Cl)S(C)(=O)=O)c1 (3D coordinates assigned)
COc1cccc(N(CC(=O)NCc2ccccc2Cl)S(C)(=O)=O)c1 (optimized conformer: 38.47506102748048 kcal/mol)

>  <smiles>  (40) 
COc1cccc(N(CC(=O)NCc2ccccc2Cl)S(C)(=O)=O)c1

>  <score_type>  (40) 
oracle

>  <origin>  (40) 
adg

>  <m_score__min__energy>  (40) 
-8.5600000000000005

>  <m_primary>  (40) 
energy

$$$$
40:0
     RDKit          3D

 45 48  0  0  0  0  0  0  0  0999 V2000
   60.7870   26.8140   48.6900 C   0  0  0  0  0  0  0  0  0  0  0  0
   60.2630   26.4210   47.4260 O   0  0  0  0  0  0  0  0  0  0  0  0
   58.9850   26.7380   46.9350 C   0  0  0  0  0  0  0  0  0  0  0  0
   58.7830   28.0510   46.4950 C   0  0  0  0  0  0  0  0  0  0  0  0
   57.5540   28.4500   45.9570 C   0  0  0  0  0  0  0  0  0  0  0  0
   57.3770   29.8390   45.4870 C   0  0  0  0  0  0  0  0  0  0  0  0
   56.3330   30.2410   44.7260 N   0  0  0  0  0  0  0  0  0  0  0  0
   56.4800   31.5420   44.4960 N   0  0  0  0  0  0  0  0  0  0  0  0
   57.6160   31.9060   45.1170 C   0  0  0  0  0  0  0  0  0  0  0  0
   58.1840   33.1750   45.1270 C   0  0  0  0  0  0  0  0  0  0  0  0
   59.4060   33.3320   45.8010 C   0  0  0  0  0  0  0  0  0  0  0  0
   60.0350   32.2280   46.4300 C   0  0  0  0  0  0  0  0  0  0  0  0
   61.3380   32.3910   47.1230 C   0  0  0  0  0  0  0  0  0  0  0  0
   61.7260   31.4980   48.1380 C   0  0  0  0  0  0  0  0  0  0  0  0
   62.9570   31.6680   48.7760 C   0  0  0  0  0  0  0  0  0  0  0  0
   63.7760   32.6930   48.4190 N   0  0  0  0  0  0  0  0  0  0  0  0
   63.4300   33.5720   47.4440 C   0  0  0  0  0  0  0  0  0  0  0  0
   62.2090   33.4400   46.7780 C   0  0  0  0  0  0  0  0  0  0  0  0
   59.4000   30.9680   46.3750 C   0  0  0  0  0  0  0  0  0  0  0  0
   58.2030   30.8750   45.7370 N   0  0  0  0  0  0  0  0  0  0  0  0
   56.5360   27.5020   45.7990 C   0  0  0  0  0  0  0  0  0  0  0  0
   56.7080   26.1820   46.2260 C   0  0  0  0  0  0  0  0  0  0  0  0
   55.6520   25.2880   45.9800 O   0  0  0  0  0  0  0  0  0  0  0  0
   55.6480   24.2640   44.9900 C   0  0  0  0  0  0  0  0  0  0  0  0
   57.9160   25.8110   46.8670 C   0  0  0  0  0  0  0  0  0  0  0  0
   58.0300   24.5630   47.4780 O   0  0  0  0  0  0  0  0  0  0  0  0
   56.9530   24.0190   48.2330 C   0  0  0  0  0  0  0  0  0  0  0  0
   60.1853   26.3627   49.4927 H   0  0  0  0  0  0  0  0  0  0  0  0
   61.8292   26.4729   48.7770 H   0  0  0  0  0  0  0  0  0  0  0  0
   60.7514   27.9100   48.7770 H   0  0  0  0  0  0  0  0  0  0  0  0
   59.6025   28.7806   46.5731 H   0  0  0  0  0  0  0  0  0  0  0  0
   57.6949   34.0235   44.6262 H   0  0  0  0  0  0  0  0  0  0  0  0
   59.8808   34.3234   45.8414 H   0  0  0  0  0  0  0  0  0  0  0  0
   61.0631   30.6695   48.4281 H   0  0  0  0  0  0  0  0  0  0  0  0
   63.2646   30.9708   49.5693 H   0  0  0  0  0  0  0  0  0  0  0  0
   64.1137   34.3914   47.1773 H   0  0  0  0  0  0  0  0  0  0  0  0
   61.9303   34.1528   45.9879 H   0  0  0  0  0  0  0  0  0  0  0  0
   59.8625   30.0833   46.8370 H   0  0  0  0  0  0  0  0  0  0  0  0
   55.5860   27.8004   45.3316 H   0  0  0  0  0  0  0  0  0  0  0  0
   55.6442   23.2795   45.4808 H   0  0  0  0  0  0  0  0  0  0  0  0
   54.7502   24.3643   44.3623 H   0  0  0  0  0  0  0  0  0  0  0  0
   56.5465   24.3573   44.3623 H   0  0  0  0  0  0  0  0  0  0  0  0
   57.1666   24.1269   49.3067 H   0  0  0  0  0  0  0  0  0  0  0  0
   56.0251   24.5565   47.9879 H   0  0  0  0  0  0  0  0  0  0  0  0
   56.8350   22.9532   47.9879 H   0  0  0  0  0  0  0  0  0  0  0  0
  1  2  1  0
  2  3  1  0
  3  4  2  0
  4  5  1  0
  5  6  1  0
  6  7  2  0
  7  8  1  0
  8  9  2  0
  9 10  1  0
 10 11  2  0
 11 12  1  0
 12 13  1  0
 13 14  2  0
 14 15  1  0
 15 16  2  0
 16 17  1  0
 17 18  2  0
 12 19  2  0
 19 20  1  0
  5 21  2  0
 21 22  1  0
 22 23  1  0
 23 24  1  0
 22 25  2  0
 25 26  1  0
 26 27  1  0
 25  3  1  0
 20  6  1  0
 20  9  1  0
 18 13  1  0
  1 28  1  0
  1 29  1  0
  1 30  1  0
  4 31  1  0
 10 32  1  0
 11 33  1  0
 14 34  1  0
 15 35  1  0
 17 36  1  0
 18 37  1  0
 19 38  1  0
 21 39  1  0
 24 40  1  0
 24 41  1  0
 24 42  1  0
 27 43  1  0
 27 44  1  0
 27 45  1  0
M  END
>  <UniqueID>  (41) 
39

>  <SMILES>  (41) 
COc1cc(-c2nnc3ccc(-c4ccncc4)cn23)cc(OC)c1OC

>  <Energy>  (41) 
113.21007246947103

>  <Genealogy>  (41) 
COc1cc(-c2nnc3ccc(-c4ccncc4)cn23)cc(OC)c1OC (3D coordinates assigned)
COc1cc(-c2nnc3ccc(-c4ccncc4)cn23)cc(OC)c1OC (optimized conformer: 113.21007246947103 kcal/mol)

>  <smiles>  (41) 
COc1cc(-c2nnc3ccc(-c4ccncc4)cn23)cc(OC)c1OC

>  <score_type>  (41) 
oracle

>  <origin>  (41) 
adg

>  <m_score__min__energy>  (41) 
-8

>  <m_primary>  (41) 
energy

$$$$
41:0
     RDKit          3D

 50 53  0  0  0  0  0  0  0  0999 V2000
   59.7230   31.7000   46.6540 C   0  0  0  0  0  0  0  0  0  0  0  0
   59.7570   33.1470   46.2480 C   0  0  0  0  0  0  0  0  0  0  0  0
   58.8350   33.8150   45.4550 C   0  0  0  0  0  0  0  0  0  0  0  0
   57.5510   33.3300   44.9090 C   0  0  0  0  0  0  0  0  0  0  0  0
   56.4770   33.8210   45.3450 O   0  0  0  0  0  0  0  0  0  0  0  0
   57.4920   32.3070   43.9050 N   0  0  0  0  0  0  0  0  0  0  0  0
   57.3290   30.9060   44.1680 C   0  0  0  0  0  0  0  0  0  0  0  0
   56.0710   30.3610   44.4750 C   0  0  0  0  0  0  0  0  0  0  0  0
   55.9600   29.0260   44.8700 C   0  0  0  0  0  0  0  0  0  0  0  0
   57.1010   28.2150   44.9380 C   0  0  0  0  0  0  0  0  0  0  0  0
   56.9860   26.5870   45.5930 S   0  0  0  0  0  0  0  0  0  0  0  0
   55.6060   26.3570   46.1450 O   0  0  0  0  0  0  0  0  0  0  0  0
   57.2370   25.5900   44.4960 O   0  0  0  0  0  0  0  0  0  0  0  0
   58.1910   26.3970   46.8430 N   0  0  0  0  0  0  0  0  0  0  0  0
   59.4900   26.0270   46.2800 C   0  0  0  0  0  0  0  0  0  0  0  0
   60.5470   26.5480   47.2420 C   0  0  0  0  0  0  0  0  0  0  0  0
   59.8360   27.5810   48.1030 C   0  0  0  0  0  0  0  0  0  0  0  0
   58.4190   27.6500   47.5590 C   0  0  0  0  0  0  0  0  0  0  0  0
   58.3460   28.7400   44.5670 C   0  0  0  0  0  0  0  0  0  0  0  0
   58.4570   30.0760   44.1690 C   0  0  0  0  0  0  0  0  0  0  0  0
   59.2750   35.1240   45.4210 C   0  0  0  0  0  0  0  0  0  0  0  0
   60.3720   35.2460   46.1930 N   0  0  0  0  0  0  0  0  0  0  0  0
   60.6650   34.0500   46.6810 N   0  0  0  0  0  0  0  0  0  0  0  0
   61.6960   33.8390   47.6540 C   0  0  0  0  0  0  0  0  0  0  0  0
   62.9460   33.3250   47.2770 C   0  0  0  0  0  0  0  0  0  0  0  0
   63.9380   33.1100   48.2390 C   0  0  0  0  0  0  0  0  0  0  0  0
   63.6920   33.4200   49.5800 C   0  0  0  0  0  0  0  0  0  0  0  0
   62.4560   33.9520   49.9580 C   0  0  0  0  0  0  0  0  0  0  0  0
   61.4610   34.1640   48.9990 C   0  0  0  0  0  0  0  0  0  0  0  0
   59.7213   31.6271   47.7516 H   0  0  0  0  0  0  0  0  0  0  0  0
   58.8135   31.2281   46.2538 H   0  0  0  0  0  0  0  0  0  0  0  0
   60.6093   31.1859   46.2538 H   0  0  0  0  0  0  0  0  0  0  0  0
   55.1701   30.9881   44.4040 H   0  0  0  0  0  0  0  0  0  0  0  0
   54.9749   28.6102   45.1283 H   0  0  0  0  0  0  0  0  0  0  0  0
   59.5662   24.9334   46.1889 H   0  0  0  0  0  0  0  0  0  0  0  0
   59.6229   26.4557   45.2757 H   0  0  0  0  0  0  0  0  0  0  0  0
   60.9366   25.7298   47.8655 H   0  0  0  0  0  0  0  0  0  0  0  0
   61.4066   26.9812   46.7096 H   0  0  0  0  0  0  0  0  0  0  0  0
   59.8292   27.2653   49.1567 H   0  0  0  0  0  0  0  0  0  0  0  0
   60.3371   28.5596   48.0670 H   0  0  0  0  0  0  0  0  0  0  0  0
   57.6991   27.7530   48.3843 H   0  0  0  0  0  0  0  0  0  0  0  0
   58.2880   28.5179   46.8960 H   0  0  0  0  0  0  0  0  0  0  0  0
   59.2395   28.0988   44.5889 H   0  0  0  0  0  0  0  0  0  0  0  0
   59.4327   30.4760   43.8559 H   0  0  0  0  0  0  0  0  0  0  0  0
   58.8034   35.9391   44.8525 H   0  0  0  0  0  0  0  0  0  0  0  0
   63.1463   33.0904   46.2212 H   0  0  0  0  0  0  0  0  0  0  0  0
   64.9127   32.6966   47.9404 H   0  0  0  0  0  0  0  0  0  0  0  0
   64.4707   33.2453   50.3370 H   0  0  0  0  0  0  0  0  0  0  0  0
   62.2658   34.2043   51.0117 H   0  0  0  0  0  0  0  0  0  0  0  0
   60.4910   34.5868   49.2995 H   0  0  0  0  0  0  0  0  0  0  0  0
  1  2  1  0
  2  3  2  0
  3  4  1  0
  4  5  2  0
  4  6  1  0
  6  7  1  0
  7  8  2  0
  8  9  1  0
  9 10  2  0
 10 11  1  0
 11 12  2  0
 11 13  2  0
 11 14  1  0
 14 15  1  0
 15 16  1  0
 16 17  1  0
 17 18  1  0
 10 19  1  0
 19 20  2  0
  3 21  1  0
 21 22  2  0
 22 23  1  0
 23 24  1  0
 24 25  2  0
 25 26  1  0
 26 27  2  0
 27 28  1  0
 28 29  2  0
 23  2  1  0
 29 24  1  0
 20  7  1  0
 18 14  1  0
  1 30  1  0
  1 31  1  0
  1 32  1  0
  8 33  1  0
  9 34  1  0
 15 35  1  0
 15 36  1  0
 16 37  1  0
 16 38  1  0
 17 39  1  0
 17 40  1  0
 18 41  1  0
 18 42  1  0
 19 43  1  0
 20 44  1  0
 21 45  1  0
 25 46  1  0
 26 47  1  0
 27 48  1  0
 28 49  1  0
 29 50  1  0
M  CHG  1   6  -1
M  END
>  <UniqueID>  (42) 
40

>  <SMILES>  (42) 
Cc1c(C(=O)[N-]c2ccc(S(=O)(=O)N3CCCC3)cc2)cnn1-c1ccccc1

>  <Energy>  (42) 
94.44138968681318

>  <Genealogy>  (42) 
Cc1c(C(=O)[N-]c2ccc(S(=O)(=O)N3CCCC3)cc2)cnn1-c1ccccc1 (protonated)
Cc1c(C(=O)[N-]c2ccc(S(=O)(=O)N3CCCC3)cc2)cnn1-c1ccccc1 (3D coordinates assigned)
Cc1c(C(=O)[N-]c2ccc(S(=O)(=O)N3CCCC3)cc2)cnn1-c1ccccc1 (nonaromatic ring conformer: 94.44138968681318 kcal/mol)

>  <smiles>  (42) 
Cc1c(C(=O)Nc2ccc(S(=O)(=O)N3CCCC3)cc2)cnn1-c1ccccc1

>  <score_type>  (42) 
oracle

>  <origin>  (42) 
adg

>  <m_score__min__energy>  (42) 
-10.49

>  <m_primary>  (42) 
energy

$$$$
42:0
     RDKit          3D

 36 37  0  0  0  0  0  0  0  0999 V2000
   58.5548   32.8480   47.2420 H   0  0  0  0  0  0  0  0  0  0  0  0
   58.3610   32.5300   46.2070 C   0  0  0  0  0  0  0  0  0  0  0  0
   58.1530   31.1770   45.9260 C   0  0  0  0  0  0  0  0  0  0  0  0
   58.1917   30.4366   46.7386 H   0  0  0  0  0  0  0  0  0  0  0  0
   57.8950   30.7590   44.6120 C   0  0  0  0  0  0  0  0  0  0  0  0
   57.7090   29.3000   44.3020 C   0  0  0  0  0  0  0  0  0  0  0  0
   57.5550   29.1743   43.2201 H   0  0  0  0  0  0  0  0  0  0  0  0
   58.6056   28.7466   44.6181 H   0  0  0  0  0  0  0  0  0  0  0  0
   56.5190   28.7680   45.0370 C   0  0  0  0  0  0  0  0  0  0  0  0
   55.4050   29.3460   44.9140 O   0  0  0  0  0  0  0  0  0  0  0  0
   56.6800   27.6380   45.9070 N   0  0  0  0  0  0  0  0  0  0  0  0
   56.3940   26.4030   45.6190 C   0  0  0  0  0  0  0  0  0  0  0  0
   55.2530   25.7780   45.9880 N   0  0  0  0  0  0  0  0  0  0  0  0
   55.2210   24.4880   45.5530 C   0  0  0  0  0  0  0  0  0  0  0  0
   54.0460   23.6100   45.8520 C   0  0  0  0  0  0  0  0  0  0  0  0
   53.9241   23.5189   46.9414 H   0  0  0  0  0  0  0  0  0  0  0  0
   53.1376   24.0524   45.4171 H   0  0  0  0  0  0  0  0  0  0  0  0
   54.2128   22.6135   45.4171 H   0  0  0  0  0  0  0  0  0  0  0  0
   56.3530   24.0830   44.8280 C   0  0  0  0  0  0  0  0  0  0  0  0
   56.6180   22.7570   44.2280 C   0  0  0  0  0  0  0  0  0  0  0  0
   55.8440   22.2880   43.3500 O   0  0  0  0  0  0  0  0  0  0  0  0
   57.8060   21.9510   44.6520 C   0  0  0  0  0  0  0  0  0  0  0  0
   57.8539   21.9185   45.7505 H   0  0  0  0  0  0  0  0  0  0  0  0
   57.7143   20.9279   44.2585 H   0  0  0  0  0  0  0  0  0  0  0  0
   58.7228   22.4143   44.2585 H   0  0  0  0  0  0  0  0  0  0  0  0
   57.4100   25.3980   44.7450 S   0  0  0  0  0  0  0  0  0  0  0  0
   57.8710   31.7100   43.5790 C   0  0  0  0  0  0  0  0  0  0  0  0
   57.6879   31.3888   42.5430 H   0  0  0  0  0  0  0  0  0  0  0  0
   58.0790   33.0640   43.8620 C   0  0  0  0  0  0  0  0  0  0  0  0
   58.0504   33.8041   43.0487 H   0  0  0  0  0  0  0  0  0  0  0  0
   58.3250   33.4840   45.1840 C   0  0  0  0  0  0  0  0  0  0  0  0
   58.5410   34.8290   45.5170 O   0  0  0  0  0  0  0  0  0  0  0  0
   59.6960   35.3150   46.1950 C   0  0  0  0  0  0  0  0  0  0  0  0
   59.5383   35.2487   47.2816 H   0  0  0  0  0  0  0  0  0  0  0  0
   60.5690   34.7079   45.9134 H   0  0  0  0  0  0  0  0  0  0  0  0
   59.8724   36.3636   45.9134 H   0  0  0  0  0  0  0  0  0  0  0  0
  1  2  1  0
  2  3  2  0
  3  4  1  0
  3  5  1  0
  5  6  1  0
  6  7  1  0
  6  8  1  0
  6  9  1  0
  9 10  2  0
  9 11  1  0
 11 12  2  0
 12 13  1  0
 13 14  1  0
 14 15  1  0
 15 16  1  0
 15 17  1  0
 15 18  1  0
 14 19  2  0
 19 20  1  0
 20 21  2  0
 20 22  1  0
 22 23  1  0
 22 24  1  0
 22 25  1  0
 19 26  1  0
  5 27  2  0
 27 28  1  0
 27 29  1  0
 29 30  1  0
 29 31  2  0
 31 32  1  0
 32 33  1  0
 33 34  1  0
 33 35  1  0
 33 36  1  0
 31  2  1  0
 26 12  1  0
M  CHG  1  13  -1
M  END
>  <UniqueID>  (43) 
41

>  <SMILES>  (43) 
COc1ccc(CC(=O)/N=c2\[n-]c(C)c(C(C)=O)s2)cc1

>  <Energy>  (43) 
63.500271636078686

>  <Genealogy>  (43) 
COc1ccc(CC(=O)N=c2[n-]c(C)c(C(C)=O)s2)cc1 (protonated)
COc1ccc(CC(=O)/N=c2\[n-]c(C)c(C(C)=O)s2)cc1 (cis-trans isomerization)
COc1ccc(CC(=O)/N=c2\[n-]c(C)c(C(C)=O)s2)cc1 (3D coordinates assigned)
COc1ccc(CC(=O)/N=c2\[n-]c(C)c(C(C)=O)s2)cc1 (optimized conformer: 63.500271636078686 kcal/mol)

>  <smiles>  (43) 
COc1ccc(CC(=O)N=c2[nH]c(C)c(C(C)=O)s2)cc1

>  <score_type>  (43) 
oracle

>  <origin>  (43) 
adg

>  <m_score__min__energy>  (43) 
-9.5399999999999991

>  <m_primary>  (43) 
energy

$$$$
43:0
     RDKit          3D

 37 40  0  0  0  0  0  0  0  0999 V2000
   55.1840   29.7260   43.7560 C   0  0  0  0  0  0  0  0  0  0  0  0
   56.2920   29.4590   44.7190 C   0  0  0  0  0  0  0  0  0  0  0  0
   56.4450   28.2100   45.2600 N   0  0  0  0  0  0  0  0  0  0  0  0
   57.4240   27.9550   46.1740 C   0  0  0  0  0  0  0  0  0  0  0  0
   57.5530   26.8050   46.6710 O   0  0  0  0  0  0  0  0  0  0  0  0
   58.2590   29.0020   46.5400 C   0  0  0  0  0  0  0  0  0  0  0  0
   59.2540   28.9910   47.4470 N   0  0  0  0  0  0  0  0  0  0  0  0
   59.7240   30.2640   47.4510 C   0  0  0  0  0  0  0  0  0  0  0  0
   60.8380   30.7120   48.3090 C   0  0  0  0  0  0  0  0  0  0  0  0
   61.7990   31.5810   47.7690 C   0  0  0  0  0  0  0  0  0  0  0  0
   62.8830   32.0080   48.5420 C   0  0  0  0  0  0  0  0  0  0  0  0
   64.0860   33.0800   47.8500 Cl  0  0  0  0  0  0  0  0  0  0  0  0
   63.0080   31.5780   49.8660 C   0  0  0  0  0  0  0  0  0  0  0  0
   62.0470   30.7320   50.4200 C   0  0  0  0  0  0  0  0  0  0  0  0
   60.9570   30.2990   49.6540 C   0  0  0  0  0  0  0  0  0  0  0  0
   59.7300   29.3060   50.4360 Cl  0  0  0  0  0  0  0  0  0  0  0  0
   58.9820   31.0340   46.5470 C   0  0  0  0  0  0  0  0  0  0  0  0
   59.0730   32.4910   46.2920 C   0  0  0  0  0  0  0  0  0  0  0  0
   58.8920   32.9940   44.9930 C   0  0  0  0  0  0  0  0  0  0  0  0
   58.9880   34.3680   44.7490 C   0  0  0  0  0  0  0  0  0  0  0  0
   59.2610   35.2490   45.7980 C   0  0  0  0  0  0  0  0  0  0  0  0
   59.4380   34.7590   47.0940 C   0  0  0  0  0  0  0  0  0  0  0  0
   59.3430   33.3870   47.3430 C   0  0  0  0  0  0  0  0  0  0  0  0
   58.0810   30.2070   45.9900 N   0  0  0  0  0  0  0  0  0  0  0  0
   57.1170   30.4720   45.1110 N   0  0  0  0  0  0  0  0  0  0  0  0
   54.2610   29.9484   44.3115 H   0  0  0  0  0  0  0  0  0  0  0  0
   55.4475   30.5864   43.1233 H   0  0  0  0  0  0  0  0  0  0  0  0
   55.0267   28.8401   43.1233 H   0  0  0  0  0  0  0  0  0  0  0  0
   59.5910   28.1840   48.0180 H   0  0  0  0  0  0  0  0  0  0  0  0
   61.6986   31.9286   46.7302 H   0  0  0  0  0  0  0  0  0  0  0  0
   63.8651   31.9070   50.4719 H   0  0  0  0  0  0  0  0  0  0  0  0
   62.1458   30.4029   51.4649 H   0  0  0  0  0  0  0  0  0  0  0  0
   58.6738   32.3045   44.1642 H   0  0  0  0  0  0  0  0  0  0  0  0
   58.8482   34.7555   43.7290 H   0  0  0  0  0  0  0  0  0  0  0  0
   59.3366   36.3290   45.6034 H   0  0  0  0  0  0  0  0  0  0  0  0
   59.6524   35.4537   47.9195 H   0  0  0  0  0  0  0  0  0  0  0  0
   59.4800   33.0056   48.3656 H   0  0  0  0  0  0  0  0  0  0  0  0
  1  2  1  0
  2  3  2  0
  3  4  1  0
  4  5  2  0
  4  6  1  0
  6  7  2  0
  7  8  1  0
  8  9  1  0
  9 10  2  0
 10 11  1  0
 11 12  1  0
 11 13  2  0
 13 14  1  0
 14 15  2  0
 15 16  1  0
  8 17  2  0
 17 18  1  0
 18 19  2  0
 19 20  1  0
 20 21  2  0
 21 22  1  0
 22 23  2  0
 17 24  1  0
 24 25  1  0
 25  2  1  0
 24  6  1  0
 15  9  1  0
 23 18  1  0
  1 26  1  0
  1 27  1  0
  1 28  1  0
  7 29  1  0
 10 30  1  0
 13 31  1  0
 14 32  1  0
 19 33  1  0
 20 34  1  0
 21 35  1  0
 22 36  1  0
 23 37  1  0
M  CHG  2   7   1  25  -1
M  END
>  <UniqueID>  (44) 
42

>  <SMILES>  (44) 
Cc1nc(=O)c2[nH+]c(-c3cc(Cl)ccc3Cl)c(-c3ccccc3)n2[n-]1

>  <Energy>  (44) 
90.59855241645162

>  <Genealogy>  (44) 
Cc1nc(=O)c2[nH+]c(-c3cc(Cl)ccc3Cl)c(-c3ccccc3)n2[n-]1 (protonated)
Cc1nc(=O)c2[nH+]c(-c3cc(Cl)ccc3Cl)c(-c3ccccc3)n2[n-]1 (3D coordinates assigned)
Cc1nc(=O)c2[nH+]c(-c3cc(Cl)ccc3Cl)c(-c3ccccc3)n2[n-]1 (optimized conformer: 90.59855241645162 kcal/mol)

>  <smiles>  (44) 
Cc1nc(=O)c2nc(-c3cc(Cl)ccc3Cl)c(-c3ccccc3)n2[nH]1

>  <score_type>  (44) 
oracle

>  <origin>  (44) 
adg

>  <m_score__min__energy>  (44) 
-8.3599999999999994

>  <m_primary>  (44) 
energy

$$$$
44:0
     RDKit          3D

 58 62  0  0  0  0  0  0  0  0999 V2000
   61.4450   34.1990   49.4460 C   0  0  0  0  0  0  0  0  0  0  0  0
   60.1140   34.6000   49.1430 O   0  0  0  0  0  0  0  0  0  0  0  0
   59.6110   34.6190   47.8380 C   0  0  0  0  0  0  0  0  0  0  0  0
   59.6070   35.6950   47.1780 O   0  0  0  0  0  0  0  0  0  0  0  0
   58.9880   33.3670   47.2490 C   0  0  2  0  0  0  0  0  0  0  0  0
   57.5270   33.5930   46.7550 C   0  0  0  0  0  0  0  0  0  0  0  0
   57.6070   33.3570   45.2650 C   0  0  0  0  0  0  0  0  0  0  0  0
   56.9380   32.3040   44.7610 C   0  0  0  0  0  0  0  0  0  0  0  0
   57.7530   31.1170   44.2980 C   0  0  2  0  0  0  0  0  0  0  0  0
   56.9190   29.9630   43.7890 C   0  0  0  0  0  0  0  0  0  0  0  0
   57.8160   28.7540   44.0230 C   0  0  0  0  0  0  0  0  0  0  0  0
   58.8560   29.1320   45.0090 N   0  0  2  0  0  0  0  0  0  0  0  0
   58.9910   27.9270   46.2850 S   0  0  0  0  0  0  0  0  0  0  0  0
   58.5850   28.5700   47.5820 O   0  0  0  0  0  0  0  0  0  0  0  0
   60.4250   27.4970   46.4300 O   0  0  0  0  0  0  0  0  0  0  0  0
   58.0140   26.4760   46.0090 C   0  0  0  0  0  0  0  0  0  0  0  0
   58.6310   25.2560   45.6910 C   0  0  0  0  0  0  0  0  0  0  0  0
   57.8620   24.1100   45.4830 C   0  0  0  0  0  0  0  0  0  0  0  0
   56.4700   24.1720   45.5820 C   0  0  0  0  0  0  0  0  0  0  0  0
   55.8350   25.3830   45.8760 C   0  0  0  0  0  0  0  0  0  0  0  0
   54.4350   25.3950   45.9720 O   0  0  0  0  0  0  0  0  0  0  0  0
   53.5800   24.4330   45.3600 C   0  0  0  0  0  0  0  0  0  0  0  0
   56.6130   26.5400   46.0690 C   0  0  0  0  0  0  0  0  0  0  0  0
   58.5200   30.5000   45.4740 C   0  0  1  0  0  0  0  0  0  0  0  0
   59.7700   31.3220   46.0340 C   0  0  2  0  0  0  0  0  0  0  0  0
   59.7680   31.1720   47.5170 C   0  0  0  0  0  0  0  0  0  0  0  0
   60.3590   30.2560   48.1450 O   0  0  0  0  0  0  0  0  0  0  0  0
   59.1050   32.2400   48.1680 N   0  0  0  0  0  0  0  0  0  0  0  0
   58.5410   32.1640   49.5130 C   0  0  0  0  0  0  0  0  0  0  0  0
   59.7610   32.9040   45.9880 C   0  0  1  0  0  0  0  0  0  0  0  0
   59.0240   33.5760   44.8550 C   0  0  0  0  0  0  0  0  0  0  0  0
   61.5765   34.1594   50.5374 H   0  0  0  0  0  0  0  0  0  0  0  0
   61.6347   33.2038   49.0174 H   0  0  0  0  0  0  0  0  0  0  0  0
   62.1529   34.9238   49.0174 H   0  0  0  0  0  0  0  0  0  0  0  0
   56.8387   32.8773   47.2283 H   0  0  0  0  0  0  0  0  0  0  0  0
   57.1440   34.5931   47.0063 H   0  0  0  0  0  0  0  0  0  0  0  0
   55.8404   32.3063   44.6885 H   0  0  0  0  0  0  0  0  0  0  0  0
   58.3911   31.5285   43.5021 H   0  0  0  0  0  0  0  0  0  0  0  0
   55.9811   29.8738   44.3567 H   0  0  0  0  0  0  0  0  0  0  0  0
   56.6184   30.0795   42.7373 H   0  0  0  0  0  0  0  0  0  0  0  0
   57.2185   27.9174   44.4144 H   0  0  0  0  0  0  0  0  0  0  0  0
   58.2845   28.4403   43.0785 H   0  0  0  0  0  0  0  0  0  0  0  0
   59.7760   29.1590   44.5090 H   0  0  0  0  0  0  0  0  0  0  0  0
   59.7264   25.2028   45.6053 H   0  0  0  0  0  0  0  0  0  0  0  0
   58.3531   23.1560   45.2406 H   0  0  0  0  0  0  0  0  0  0  0  0
   55.8698   23.2632   45.4278 H   0  0  0  0  0  0  0  0  0  0  0  0
   53.0642   23.8526   46.1391 H   0  0  0  0  0  0  0  0  0  0  0  0
   52.8366   24.9486   44.7342 H   0  0  0  0  0  0  0  0  0  0  0  0
   54.1793   23.7553   44.7342 H   0  0  0  0  0  0  0  0  0  0  0  0
   56.1190   27.5024   46.2685 H   0  0  0  0  0  0  0  0  0  0  0  0
   57.8908   30.5065   46.3763 H   0  0  0  0  0  0  0  0  0  0  0  0
   60.5800   30.9277   45.4028 H   0  0  0  0  0  0  0  0  0  0  0  0
   59.3460   32.2725   50.2548 H   0  0  0  0  0  0  0  0  0  0  0  0
   57.8062   32.9712   49.6486 H   0  0  0  0  0  0  0  0  0  0  0  0
   58.0461   31.1910   49.6486 H   0  0  0  0  0  0  0  0  0  0  0  0
   60.8211   33.1801   45.8885 H   0  0  0  0  0  0  0  0  0  0  0  0
   59.2659   34.6474   44.7954 H   0  0  0  0  0  0  0  0  0  0  0  0
   59.2724   33.1838   43.8578 H   0  0  0  0  0  0  0  0  0  0  0  0
  1  2  1  0
  2  3  1  0
  3  4  2  0
  5  3  1  1
  5  6  1  0
  6  7  1  0
  7  8  2  0
  8  9  1  0
  9 10  1  0
 10 11  1  0
 11 12  1  0
 12 13  1  0
 13 14  2  0
 13 15  2  0
 13 16  1  0
 16 17  2  0
 17 18  1  0
 18 19  2  0
 19 20  1  0
 20 21  1  0
 21 22  1  0
 20 23  2  0
 12 24  1  0
 24 25  1  0
 25 26  1  0
 26 27  2  0
 26 28  1  0
 28 29  1  0
 25 30  1  0
 30 31  1  0
 28  5  1  0
 30  5  1  0
 31  7  1  0
 24  9  1  0
 23 16  1  0
  1 32  1  0
  1 33  1  0
  1 34  1  0
  6 35  1  0
  6 36  1  0
  8 37  1  0
  9 38  1  6
 10 39  1  0
 10 40  1  0
 11 41  1  0
 11 42  1  0
 12 43  1  6
 17 44  1  0
 18 45  1  0
 19 46  1  0
 22 47  1  0
 22 48  1  0
 22 49  1  0
 23 50  1  0
 24 51  1  1
 25 52  1  6
 29 53  1  0
 29 54  1  0
 29 55  1  0
 30 56  1  1
 31 57  1  0
 31 58  1  0
M  CHG  1  12   1
M  END
>  <UniqueID>  (45) 
43

>  <SMILES>  (45) 
COC(=O)[C@]12CC3=C[C@@H]4CC[NH+](S(=O)(=O)c5cccc(OC)c5)C4C(C(=O)N1C)C2C3

>  <Energy>  (45) 
122.64296872441942

>  <Genealogy>  (45) 
COC(=O)C12CC3=CC4CC[NH+](S(=O)(=O)c5cccc(OC)c5)C4C(C(=O)N1C)C2C3 (protonated)
COC(=O)[C@]12CC3=C[C@@H]4CC[NH+](S(=O)(=O)c5cccc(OC)c5)C4C(C(=O)N1C)C2C3 (chirality)
COC(=O)[C@]12CC3=C[C@@H]4CC[NH+](S(=O)(=O)c5cccc(OC)c5)C4C(C(=O)N1C)C2C3 (3D coordinates assigned)
COC(=O)[C@]12CC3=C[C@@H]4CC[NH+](S(=O)(=O)c5cccc(OC)c5)C4C(C(=O)N1C)C2C3 (nonaromatic ring conformer: 122.64296872441942 kcal/mol)

>  <smiles>  (45) 
COC(=O)C12CC3=CC4CCN(S(=O)(=O)c5cccc(OC)c5)C4C(C(=O)N1C)C2C3

>  <score_type>  (45) 
oracle

>  <origin>  (45) 
adg

>  <m_score__min__energy>  (45) 
-7.1600000000000001

>  <m_primary>  (45) 
energy

$$$$
45:0
     RDKit          3D

 39 42  0  0  0  0  0  0  0  0999 V2000
   55.2050   29.6340   44.8710 O   0  0  0  0  0  0  0  0  0  0  0  0
   56.5850   29.7300   44.2820 S   0  0  0  0  0  0  0  0  0  0  0  0
   56.4570   30.0360   42.8170 O   0  0  0  0  0  0  0  0  0  0  0  0
   57.4120   28.2140   44.4760 N   0  0  0  0  0  0  0  0  0  0  0  0
   57.3670   27.8010   45.8770 C   0  0  0  0  0  0  0  0  0  0  0  0
   56.6490   26.4610   45.9970 C   0  0  0  0  0  0  0  0  0  0  0  0
   55.2800   26.6560   45.9670 F   0  0  0  0  0  0  0  0  0  0  0  0
   56.9970   25.8430   47.1850 F   0  0  0  0  0  0  0  0  0  0  0  0
   57.0130   25.6460   44.9400 F   0  0  0  0  0  0  0  0  0  0  0  0
   57.4920   31.0240   45.0620 C   0  0  0  0  0  0  0  0  0  0  0  0
   57.0670   32.3550   44.9560 C   0  0  0  0  0  0  0  0  0  0  0  0
   57.7810   33.3750   45.5930 C   0  0  0  0  0  0  0  0  0  0  0  0
   58.9400   33.0730   46.3330 C   0  0  0  0  0  0  0  0  0  0  0  0
   59.6840   34.0850   47.0330 N   0  0  0  0  0  0  0  0  0  0  0  0
   60.6780   33.8950   47.8530 C   0  0  0  0  0  0  0  0  0  0  0  0
   60.4980   33.8330   49.2090 N   0  0  0  0  0  0  0  0  0  0  0  0
   61.5510   33.6600   50.0680 C   0  0  0  0  0  0  0  0  0  0  0  0
   61.3550   33.5910   51.4480 C   0  0  0  0  0  0  0  0  0  0  0  0
   62.4220   33.4200   52.2790 N   0  0  0  0  0  0  0  0  0  0  0  0
   63.6940   33.3130   51.8010 C   0  0  0  0  0  0  0  0  0  0  0  0
   63.9420   33.3760   50.4260 C   0  0  0  0  0  0  0  0  0  0  0  0
   62.8630   33.5510   49.5540 C   0  0  0  0  0  0  0  0  0  0  0  0
   63.0070   33.6280   48.2080 N   0  0  0  0  0  0  0  0  0  0  0  0
   64.1000   33.5660   47.4740 N   0  0  0  0  0  0  0  0  0  0  0  0
   63.7380   33.6940   46.2000 N   0  0  0  0  0  0  0  0  0  0  0  0
   62.4160   33.8400   46.1010 N   0  0  0  0  0  0  0  0  0  0  0  0
   61.9830   33.7950   47.3720 C   0  0  0  0  0  0  0  0  0  0  0  0
   59.3360   31.7360   46.4670 C   0  0  0  0  0  0  0  0  0  0  0  0
   58.6220   30.7180   45.8280 C   0  0  0  0  0  0  0  0  0  0  0  0
   58.3927   27.7016   46.2617 H   0  0  0  0  0  0  0  0  0  0  0  0
   56.8240   28.5580   46.4618 H   0  0  0  0  0  0  0  0  0  0  0  0
   56.1687   32.5985   44.3697 H   0  0  0  0  0  0  0  0  0  0  0  0
   57.4359   34.4166   45.5156 H   0  0  0  0  0  0  0  0  0  0  0  0
   60.3405   33.6745   51.8648 H   0  0  0  0  0  0  0  0  0  0  0  0
   62.2600   33.3700   53.3100 H   0  0  0  0  0  0  0  0  0  0  0  0
   64.5311   33.1762   52.5014 H   0  0  0  0  0  0  0  0  0  0  0  0
   64.9675   33.2894   50.0375 H   0  0  0  0  0  0  0  0  0  0  0  0
   60.2148   31.4854   47.0792 H   0  0  0  0  0  0  0  0  0  0  0  0
   58.9498   29.6727   45.9278 H   0  0  0  0  0  0  0  0  0  0  0  0
  1  2  2  0
  2  3  2  0
  2  4  1  0
  4  5  1  0
  5  6  1  0
  6  7  1  0
  6  8  1  0
  6  9  1  0
  2 10  1  0
 10 11  2  0
 11 12  1  0
 12 13  2  0
 13 14  1  0
 14 15  2  3
 15 16  1  0
 16 17  1  0
 17 18  2  0
 18 19  1  0
 19 20  2  0
 20 21  1  0
 21 22  2  0
 22 23  1  0
 23 24  1  0
 24 25  2  0
 25 26  1  0
 26 27  2  0
 13 28  1  0
 28 29  2  0
 29 10  1  0
 27 15  1  0
 22 17  1  0
 27 23  1  0
  5 30  1  0
  5 31  1  0
 11 32  1  0
 12 33  1  0
 18 34  1  0
 19 35  1  0
 20 36  1  0
 21 37  1  0
 28 38  1  0
 29 39  1  0
M  CHG  3   4  -1  16  -1  19   1
M  END
>  <UniqueID>  (46) 
44

>  <SMILES>  (46) 
O=S(=O)([N-]CC(F)(F)F)c1ccc(N=c2[n-]c3c[nH+]ccc3n3nnnc23)cc1

>  <Energy>  (46) 
96.86961996321826

>  <Genealogy>  (46) 
O=S(=O)([N-]CC(F)(F)F)c1ccc(N=c2[n-]c3c[nH+]ccc3n3nnnc23)cc1 (protonated)
O=S(=O)([N-]CC(F)(F)F)c1ccc(N=c2[n-]c3c[nH+]ccc3n3nnnc23)cc1 (3D coordinates assigned)
O=S(=O)([N-]CC(F)(F)F)c1ccc(N=c2[n-]c3c[nH+]ccc3n3nnnc23)cc1 (optimized conformer: 96.86961996321826 kcal/mol)

>  <smiles>  (46) 
O=S(=O)(NCC(F)(F)F)c1ccc(N=c2[nH]c3cnccc3n3nnnc23)cc1

>  <score_type>  (46) 
oracle

>  <origin>  (46) 
adg

>  <m_score__min__energy>  (46) 
-9.6799999999999997

>  <m_primary>  (46) 
energy

$$$$
46:0
     RDKit          3D

 39 40  0  0  0  0  0  0  0  0999 V2000
   56.1440   30.0100   43.2970 C   0  0  0  0  0  0  0  0  0  0  0  0
   57.0180   31.2320   43.5490 C   0  0  0  0  0  0  0  0  0  0  0  0
   56.7970   31.7390   44.8620 O   0  0  0  0  0  0  0  0  0  0  0  0
   57.3250   32.9500   45.3260 C   0  0  0  0  0  0  0  0  0  0  0  0
   56.6470   34.0110   45.2350 O   0  0  0  0  0  0  0  0  0  0  0  0
   58.6830   32.9740   45.9250 C   0  0  0  0  0  0  0  0  0  0  0  0
   59.4330   34.0910   45.8280 C   0  0  0  0  0  0  0  0  0  0  0  0
   60.8200   34.2040   46.4010 C   0  0  0  0  0  0  0  0  0  0  0  0
   61.0590   33.2100   47.5360 C   0  0  0  0  0  0  0  0  0  0  0  0
   60.6400   31.8120   47.0900 C   0  0  0  0  0  0  0  0  0  0  0  0
   59.1400   31.7770   46.7530 C   0  0  2  0  0  0  0  0  0  0  0  0
   58.8470   30.5310   46.0370 N   0  0  0  0  0  0  0  0  0  0  0  0
   58.7510   29.2510   46.6900 C   0  0  0  0  0  0  0  0  0  0  0  0
   58.9370   29.1670   47.9350 O   0  0  0  0  0  0  0  0  0  0  0  0
   58.3890   28.0340   45.9300 C   0  0  0  0  0  0  0  0  0  0  0  0
   57.9550   26.8660   46.5850 C   0  0  0  0  0  0  0  0  0  0  0  0
   57.6280   25.7220   45.8500 C   0  0  0  0  0  0  0  0  0  0  0  0
   57.7230   25.7320   44.4570 C   0  0  0  0  0  0  0  0  0  0  0  0
   58.1420   26.8880   43.7950 C   0  0  0  0  0  0  0  0  0  0  0  0
   58.2330   26.8970   42.4420 F   0  0  0  0  0  0  0  0  0  0  0  0
   58.4690   28.0350   44.5250 C   0  0  0  0  0  0  0  0  0  0  0  0
   55.8338   29.5763   44.2592 H   0  0  0  0  0  0  0  0  0  0  0  0
   55.2530   30.3081   42.7249 H   0  0  0  0  0  0  0  0  0  0  0  0
   56.7141   29.2632   42.7249 H   0  0  0  0  0  0  0  0  0  0  0  0
   58.0757   30.9491   43.4431 H   0  0  0  0  0  0  0  0  0  0  0  0
   56.7600   32.0119   42.8175 H   0  0  0  0  0  0  0  0  0  0  0  0
   59.0104   34.9614   45.3048 H   0  0  0  0  0  0  0  0  0  0  0  0
   61.5503   34.0108   45.6014 H   0  0  0  0  0  0  0  0  0  0  0  0
   60.9339   35.2183   46.8112 H   0  0  0  0  0  0  0  0  0  0  0  0
   62.1270   33.2053   47.7995 H   0  0  0  0  0  0  0  0  0  0  0  0
   60.4644   33.5070   48.4125 H   0  0  0  0  0  0  0  0  0  0  0  0
   61.2175   31.5292   46.1975 H   0  0  0  0  0  0  0  0  0  0  0  0
   60.8353   31.1053   47.9100 H   0  0  0  0  0  0  0  0  0  0  0  0
   58.5841   31.8262   47.7009 H   0  0  0  0  0  0  0  0  0  0  0  0
   58.6390   30.6020   45.0170 H   0  0  0  0  0  0  0  0  0  0  0  0
   57.8726   26.8530   47.6818 H   0  0  0  0  0  0  0  0  0  0  0  0
   57.2951   24.8120   46.3706 H   0  0  0  0  0  0  0  0  0  0  0  0
   57.4680   24.8299   43.8814 H   0  0  0  0  0  0  0  0  0  0  0  0
   58.7911   28.9447   43.9971 H   0  0  0  0  0  0  0  0  0  0  0  0
  1  2  1  0
  2  3  1  0
  3  4  1  0
  4  5  2  0
  4  6  1  0
  6  7  2  0
  7  8  1  0
  8  9  1  0
  9 10  1  0
 10 11  1  0
 11 12  1  0
 12 13  1  0
 13 14  2  0
 13 15  1  0
 15 16  2  0
 16 17  1  0
 17 18  2  0
 18 19  1  0
 19 20  1  0
 19 21  2  0
 11  6  1  0
 21 15  1  0
  1 22  1  0
  1 23  1  0
  1 24  1  0
  2 25  1  0
  2 26  1  0
  7 27  1  0
  8 28  1  0
  8 29  1  0
  9 30  1  0
  9 31  1  0
 10 32  1  0
 10 33  1  0
 11 34  1  1
 12 35  1  0
 16 36  1  0
 17 37  1  0
 18 38  1  0
 21 39  1  0
M  END
>  <UniqueID>  (47) 
45

>  <SMILES>  (47) 
CCOC(=O)C1=CCCC[C@@H]1NC(=O)c1cccc(F)c1

>  <Energy>  (47) 
34.61393407829417

>  <Genealogy>  (47) 
CCOC(=O)C1=CCCC[C@@H]1NC(=O)c1cccc(F)c1 (chirality)
CCOC(=O)C1=CCCC[C@@H]1NC(=O)c1cccc(F)c1 (3D coordinates assigned)
CCOC(=O)C1=CCCC[C@@H]1NC(=O)c1cccc(F)c1 (nonaromatic ring conformer: 34.61393407829417 kcal/mol)

>  <smiles>  (47) 
CCOC(=O)C1=CCCCC1NC(=O)c1cccc(F)c1

>  <score_type>  (47) 
oracle

>  <origin>  (47) 
adg

>  <m_score__min__energy>  (47) 
-6.5700000000000003

>  <m_primary>  (47) 
energy

$$$$
47:0
     RDKit          3D

 39 41  0  0  0  0  0  0  0  0999 V2000
   57.3650   31.5250   42.1910 C   0  0  0  0  0  0  0  0  0  0  0  0
   57.6210   31.4350   43.3650 C   0  0  0  0  0  0  0  0  0  0  0  0
   57.9350   31.3220   44.7950 C   0  0  0  0  0  0  0  0  0  0  0  0
   57.9400   29.9040   45.2000 N   0  0  0  0  0  0  0  0  0  0  0  0
   56.7620   29.1900   45.2090 C   0  0  0  0  0  0  0  0  0  0  0  0
   55.6640   29.7230   44.8880 O   0  0  0  0  0  0  0  0  0  0  0  0
   56.8070   27.8560   45.5710 C   0  0  0  0  0  0  0  0  0  0  0  0
   55.8200   26.9540   45.6290 N   0  0  0  0  0  0  0  0  0  0  0  0
   56.4530   25.8150   46.0060 C   0  0  0  0  0  0  0  0  0  0  0  0
   55.7610   24.4950   46.1270 C   0  0  0  0  0  0  0  0  0  0  0  0
   56.3230   23.5310   45.1190 C   0  0  0  0  0  0  0  0  0  0  0  0
   57.4730   22.7800   45.4220 C   0  0  0  0  0  0  0  0  0  0  0  0
   58.0180   21.9140   44.4690 C   0  0  0  0  0  0  0  0  0  0  0  0
   57.4260   21.7970   43.2090 C   0  0  0  0  0  0  0  0  0  0  0  0
   56.2910   22.5500   42.8960 C   0  0  0  0  0  0  0  0  0  0  0  0
   55.7430   23.4190   43.8450 C   0  0  0  0  0  0  0  0  0  0  0  0
   57.7960   25.9630   46.1690 N   0  0  0  0  0  0  0  0  0  0  0  0
   57.9780   27.2680   45.8940 C   0  0  0  0  0  0  0  0  0  0  0  0
   59.1590   27.9450   45.8820 N   0  0  0  0  0  0  0  0  0  0  0  0
   60.4210   27.2500   46.1870 C   0  0  0  0  0  0  0  0  0  0  0  0
   60.4590   26.8370   47.6550 C   0  0  0  0  0  0  0  0  0  0  0  0
   59.1360   29.2750   45.5140 C   0  0  0  0  0  0  0  0  0  0  0  0
   60.2200   29.9220   45.4510 O   0  0  0  0  0  0  0  0  0  0  0  0
   57.1313   31.6072   41.1193 H   0  0  0  0  0  0  0  0  0  0  0  0
   58.9264   31.7588   44.9858 H   0  0  0  0  0  0  0  0  0  0  0  0
   57.1718   31.8606   45.3758 H   0  0  0  0  0  0  0  0  0  0  0  0
   54.8080   27.0880   45.4110 H   0  0  0  0  0  0  0  0  0  0  0  0
   55.9134   24.0943   47.1400 H   0  0  0  0  0  0  0  0  0  0  0  0
   54.6855   24.6302   45.9399 H   0  0  0  0  0  0  0  0  0  0  0  0
   57.9448   22.8742   46.4112 H   0  0  0  0  0  0  0  0  0  0  0  0
   58.9141   21.3240   44.7117 H   0  0  0  0  0  0  0  0  0  0  0  0
   57.8536   21.1115   42.4625 H   0  0  0  0  0  0  0  0  0  0  0  0
   55.8282   22.4591   41.9022 H   0  0  0  0  0  0  0  0  0  0  0  0
   54.8547   24.0167   43.5926 H   0  0  0  0  0  0  0  0  0  0  0  0
   60.5025   26.3528   45.5558 H   0  0  0  0  0  0  0  0  0  0  0  0
   61.2611   27.9310   45.9859 H   0  0  0  0  0  0  0  0  0  0  0  0
   60.3767   27.7316   48.2898 H   0  0  0  0  0  0  0  0  0  0  0  0
   59.6195   26.1585   47.8669 H   0  0  0  0  0  0  0  0  0  0  0  0
   61.4082   26.3231   47.8669 H   0  0  0  0  0  0  0  0  0  0  0  0
  1  2  3  0
  2  3  1  0
  3  4  1  0
  4  5  1  0
  5  6  2  0
  5  7  1  0
  7  8  1  0
  8  9  1  0
  9 10  1  0
 10 11  1  0
 11 12  2  0
 12 13  1  0
 13 14  2  0
 14 15  1  0
 15 16  2  0
  9 17  2  0
 17 18  1  0
 18 19  1  0
 19 20  1  0
 20 21  1  0
 19 22  1  0
 22 23  2  0
 22  4  1  0
 18  7  2  0
 16 11  1  0
  1 24  1  0
  3 25  1  0
  3 26  1  0
  8 27  1  0
 10 28  1  0
 10 29  1  0
 12 30  1  0
 13 31  1  0
 14 32  1  0
 15 33  1  0
 16 34  1  0
 20 35  1  0
 20 36  1  0
 21 37  1  0
 21 38  1  0
 21 39  1  0
M  END
>  <UniqueID>  (48) 
46

>  <SMILES>  (48) 
C#CCn1c(=O)c2[nH]c(Cc3ccccc3)nc2n(CC)c1=O

>  <Energy>  (48) 
77.52466780323712

>  <Genealogy>  (48) 
C#CCn1c(=O)c2[nH]c(Cc3ccccc3)nc2n(CC)c1=O (3D coordinates assigned)
C#CCn1c(=O)c2[nH]c(Cc3ccccc3)nc2n(CC)c1=O (optimized conformer: 77.52466780323712 kcal/mol)

>  <smiles>  (48) 
C#CCn1c(=O)c2[nH]c(Cc3ccccc3)nc2n(CC)c1=O

>  <score_type>  (48) 
oracle

>  <origin>  (48) 
adg

>  <m_score__min__energy>  (48) 
-7.1500000000000004

>  <m_primary>  (48) 
energy

$$$$
