0:0
     RDKit          3D

 42 43  0  0  0  0  0  0  0  0999 V2000
   56.1460   29.9650   43.6630 C   0  0  0  0  0  0  0  0  0  0  0  0
   57.2450   31.0100   43.8680 C   0  0  0  0  0  0  0  0  0  0  0  0
   57.2320   31.6300   45.2100 N   0  0  0  0  0  0  0  0  0  0  0  0
   58.1490   31.0320   46.2030 C   0  0  0  0  0  0  0  0  0  0  0  0
   59.4970   31.7810   46.3530 C   0  0  0  0  0  0  0  0  0  0  0  0
   59.4660   33.1910   45.8890 N   0  0  0  0  0  0  0  0  0  0  0  0
   60.5410   33.9700   46.5630 C   0  0  0  0  0  0  0  0  0  0  0  0
   61.2610   33.1920   47.7030 C   0  0  0  0  0  0  0  0  0  0  0  0
   61.7200   34.1450   48.8430 C   0  0  0  0  0  0  0  0  0  0  0  0
   62.9490   33.6080   49.5830 C   0  0  0  0  0  0  0  0  0  0  0  0
   64.1590   33.4660   48.6410 C   0  0  0  0  0  0  0  0  0  0  0  0
   63.7670   33.1210   47.1900 C   0  0  0  0  0  0  0  0  0  0  0  0
   62.4400   32.3570   47.1280 C   0  0  0  0  0  0  0  0  0  0  0  0
   58.1360   33.7830   46.1290 C   0  0  0  0  0  0  0  0  0  0  0  0
   57.0910   33.1010   45.2360 C   0  0  0  0  0  0  0  0  0  0  0  0
   55.7820   29.6189   44.6416 H   0  0  0  0  0  0  0  0  0  0  0  0
   55.3141   30.4134   43.1000 H   0  0  0  0  0  0  0  0  0  0  0  0
   56.5519   29.1116   43.1000 H   0  0  0  0  0  0  0  0  0  0  0  0
   58.2199   30.5225   43.7200 H   0  0  0  0  0  0  0  0  0  0  0  0
   57.0636   31.8146   43.1402 H   0  0  0  0  0  0  0  0  0  0  0  0
   57.6449   31.0294   47.1807 H   0  0  0  0  0  0  0  0  0  0  0  0
   58.3875   30.0198   45.8444 H   0  0  0  0  0  0  0  0  0  0  0  0
   59.7788   31.7741   47.4163 H   0  0  0  0  0  0  0  0  0  0  0  0
   60.2230   31.2549   45.7156 H   0  0  0  0  0  0  0  0  0  0  0  0
   59.6490   33.1850   44.8610 H   0  0  0  0  0  0  0  0  0  0  0  0
   61.2903   34.2515   45.8085 H   0  0  0  0  0  0  0  0  0  0  0  0
   60.0604   34.8444   47.0261 H   0  0  0  0  0  0  0  0  0  0  0  0
   60.5418   32.4914   48.1522 H   0  0  0  0  0  0  0  0  0  0  0  0
   61.9677   35.1246   48.4082 H   0  0  0  0  0  0  0  0  0  0  0  0
   60.8969   34.2268   49.5681 H   0  0  0  0  0  0  0  0  0  0  0  0
   63.2085   34.3026   50.3956 H   0  0  0  0  0  0  0  0  0  0  0  0
   62.7037   32.6125   49.9814 H   0  0  0  0  0  0  0  0  0  0  0  0
   64.7111   34.4174   48.6364 H   0  0  0  0  0  0  0  0  0  0  0  0
   64.7699   32.6332   49.0196 H   0  0  0  0  0  0  0  0  0  0  0  0
   63.6683   34.0541   46.6159 H   0  0  0  0  0  0  0  0  0  0  0  0
   64.5528   32.4786   46.7659 H   0  0  0  0  0  0  0  0  0  0  0  0
   62.2214   32.1091   46.0788 H   0  0  0  0  0  0  0  0  0  0  0  0
   62.5422   31.4475   47.7382 H   0  0  0  0  0  0  0  0  0  0  0  0
   57.8601   33.6438   47.1847 H   0  0  0  0  0  0  0  0  0  0  0  0
   58.1696   34.8565   45.8915 H   0  0  0  0  0  0  0  0  0  0  0  0
   56.0887   33.3513   45.6138 H   0  0  0  0  0  0  0  0  0  0  0  0
   57.2433   33.4664   44.2097 H   0  0  0  0  0  0  0  0  0  0  0  0
  1  2  1  0
  2  3  1  0
  3  4  1  0
  4  5  1  0
  5  6  1  0
  6  7  1  0
  7  8  1  0
  8  9  1  0
  9 10  1  0
 10 11  1  0
 11 12  1  0
 12 13  1  0
  6 14  1  0
 14 15  1  0
 15  3  1  0
 13  8  1  0
  1 16  1  0
  1 17  1  0
  1 18  1  0
  2 19  1  0
  2 20  1  0
  4 21  1  0
  4 22  1  0
  5 23  1  0
  5 24  1  0
  6 25  1  0
  7 26  1  0
  7 27  1  0
  8 28  1  0
  9 29  1  0
  9 30  1  0
 10 31  1  0
 10 32  1  0
 11 33  1  0
 11 34  1  0
 12 35  1  0
 12 36  1  0
 13 37  1  0
 13 38  1  0
 14 39  1  0
 14 40  1  0
 15 41  1  0
 15 42  1  0
M  CHG  1   6   1
M  END
>  <UniqueID>  (1) 
1

>  <SMILES>  (1) 
CCN1CC[NH+](CC2CCCCC2)CC1

>  <Energy>  (1) 
58.13091629412106

>  <Genealogy>  (1) 
CCN1CC[NH+](CC2CCCCC2)CC1 (protonated)
CCN1CC[NH+](CC2CCCCC2)CC1 (3D coordinates assigned)
CCN1CC[NH+](CC2CCCCC2)CC1 (nonaromatic ring conformer: 58.13091629412106 kcal/mol)

>  <smiles>  (1) 
CC[N+]1CCN(CC2CCCCC2)CC1

>  <score_type>  (1) 
oracle

>  <origin>  (1) 
adg

>  <m_score__min__energy>  (1) 
-4.6699999999999999

>  <m_primary>  (1) 
energy

$$$$
1:0
     RDKit          3D

 54 56  0  0  0  0  0  0  0  0999 V2000
   55.8920   24.0660   44.3620 C   0  0  0  0  0  0  0  0  0  0  0  0
   55.0300   24.4780   45.5510 C   0  0  0  0  0  0  0  0  0  0  0  0
   55.4100   25.8180   46.0080 N   0  0  0  0  0  0  0  0  0  0  0  0
   56.7170   25.7780   46.6760 C   0  0  0  0  0  0  0  0  0  0  0  0
   57.7190   26.6760   45.9500 C   0  0  0  0  0  0  0  0  0  0  0  0
   57.0150   27.6120   45.0640 N   0  0  0  0  0  0  0  0  0  0  0  0
   57.9370   28.2700   44.1260 C   0  0  0  0  0  0  0  0  0  0  0  0
   57.8310   29.7950   44.2310 C   0  0  0  0  0  0  0  0  0  0  0  0
   57.6130   30.2080   45.6170 N   0  0  0  0  0  0  0  0  0  0  0  0
   58.6140   30.9490   46.3370 C   0  0  0  0  0  0  0  0  0  0  0  0
   58.8400   32.3070   46.0480 C   0  0  0  0  0  0  0  0  0  0  0  0
   58.0480   32.9920   45.1010 C   0  0  0  0  0  0  0  0  0  0  0  0
   58.2520   34.3450   44.8460 C   0  0  0  0  0  0  0  0  0  0  0  0
   59.2350   35.0430   45.5370 C   0  0  0  0  0  0  0  0  0  0  0  0
   60.0410   34.3850   46.4640 C   0  0  0  0  0  0  0  0  0  0  0  0
   59.8880   32.9980   46.7160 C   0  0  0  0  0  0  0  0  0  0  0  0
   60.7160   32.3220   47.5910 N   0  0  0  0  0  0  0  0  0  0  0  0
   61.9770   32.9490   48.0490 C   0  0  0  0  0  0  0  0  0  0  0  0
   60.3790   31.0520   48.0220 C   0  0  0  0  0  0  0  0  0  0  0  0
   61.0330   30.4400   49.1210 C   0  0  0  0  0  0  0  0  0  0  0  0
   60.7150   29.1370   49.5250 C   0  0  0  0  0  0  0  0  0  0  0  0
   61.3990   28.5240   50.7120 C   0  0  0  0  0  0  0  0  0  0  0  0
   59.6960   28.4440   48.8690 C   0  0  0  0  0  0  0  0  0  0  0  0
   59.0100   29.0360   47.8130 C   0  0  0  0  0  0  0  0  0  0  0  0
   59.3360   30.3360   47.3770 C   0  0  0  0  0  0  0  0  0  0  0  0
   56.8286   23.6183   44.7258 H   0  0  0  0  0  0  0  0  0  0  0  0
   55.3472   23.3309   43.7514 H   0  0  0  0  0  0  0  0  0  0  0  0
   56.1218   24.9516   43.7514 H   0  0  0  0  0  0  0  0  0  0  0  0
   53.9722   24.4828   45.2492 H   0  0  0  0  0  0  0  0  0  0  0  0
   55.1818   23.7612   46.3714 H   0  0  0  0  0  0  0  0  0  0  0  0
   55.5010   26.4320   45.1640 H   0  0  0  0  0  0  0  0  0  0  0  0
   56.6040   26.1268   47.7131 H   0  0  0  0  0  0  0  0  0  0  0  0
   57.0916   24.7439   46.6615 H   0  0  0  0  0  0  0  0  0  0  0  0
   58.2999   27.2448   46.6909 H   0  0  0  0  0  0  0  0  0  0  0  0
   58.3908   26.0480   45.3463 H   0  0  0  0  0  0  0  0  0  0  0  0
   56.3300   27.0590   44.4970 H   0  0  0  0  0  0  0  0  0  0  0  0
   58.9673   27.9640   44.3601 H   0  0  0  0  0  0  0  0  0  0  0  0
   57.6690   27.9696   43.1023 H   0  0  0  0  0  0  0  0  0  0  0  0
   58.7637   30.2472   43.8627 H   0  0  0  0  0  0  0  0  0  0  0  0
   56.9764   30.1308   43.6253 H   0  0  0  0  0  0  0  0  0  0  0  0
   56.6400   30.1700   45.9970 H   0  0  0  0  0  0  0  0  0  0  0  0
   57.2600   32.4497   44.5580 H   0  0  0  0  0  0  0  0  0  0  0  0
   57.6345   34.8622   44.0968 H   0  0  0  0  0  0  0  0  0  0  0  0
   59.3773   36.1179   45.3517 H   0  0  0  0  0  0  0  0  0  0  0  0
   60.8096   34.9517   47.0100 H   0  0  0  0  0  0  0  0  0  0  0  0
   62.0020   32.9614   49.1486 H   0  0  0  0  0  0  0  0  0  0  0  0
   62.8327   32.3714   47.6693 H   0  0  0  0  0  0  0  0  0  0  0  0
   62.0330   33.9799   47.6693 H   0  0  0  0  0  0  0  0  0  0  0  0
   61.8061   30.9999   49.6677 H   0  0  0  0  0  0  0  0  0  0  0  0
   60.9553   28.9217   51.6367 H   0  0  0  0  0  0  0  0  0  0  0  0
   61.2721   27.4317   50.6847 H   0  0  0  0  0  0  0  0  0  0  0  0
   62.4709   28.7694   50.6847 H   0  0  0  0  0  0  0  0  0  0  0  0
   59.4340   27.4246   49.1886 H   0  0  0  0  0  0  0  0  0  0  0  0
   58.2026   28.4820   47.3118 H   0  0  0  0  0  0  0  0  0  0  0  0
  1  2  1  0
  2  3  1  0
  3  4  1  0
  4  5  1  0
  5  6  1  0
  6  7  1  0
  7  8  1  0
  8  9  1  0
  9 10  1  0
 10 11  2  0
 11 12  1  0
 12 13  2  0
 13 14  1  0
 14 15  2  0
 15 16  1  0
 16 17  2  0
 17 18  1  0
 17 19  1  0
 19 20  2  0
 20 21  1  0
 21 22  1  0
 21 23  2  0
 23 24  1  0
 24 25  2  0
 25 10  1  0
 16 11  1  0
 25 19  1  0
  1 26  1  0
  1 27  1  0
  1 28  1  0
  2 29  1  0
  2 30  1  0
  3 31  1  0
  4 32  1  0
  4 33  1  0
  5 34  1  0
  5 35  1  0
  6 36  1  0
  7 37  1  0
  7 38  1  0
  8 39  1  0
  8 40  1  0
  9 41  1  0
 12 42  1  0
 13 43  1  0
 14 44  1  0
 15 45  1  0
 18 46  1  0
 18 47  1  0
 18 48  1  0
 20 49  1  0
 22 50  1  0
 22 51  1  0
 22 52  1  0
 23 53  1  0
 24 54  1  0
M  CHG  1  17   1
M  END
>  <UniqueID>  (2) 
2

>  <SMILES>  (2) 
CCNCCNCCNc1c2ccccc2[n+](C)c2cc(C)ccc12

>  <Energy>  (2) 
71.38549658783097

>  <Genealogy>  (2) 
CCNCCNCCNc1c2ccccc2[n+](C)c2cc(C)ccc12 (3D coordinates assigned)
CCNCCNCCNc1c2ccccc2[n+](C)c2cc(C)ccc12 (optimized conformer: 71.38549658783097 kcal/mol)

>  <smiles>  (2) 
CCNCCNCCNc1c2ccccc2[n+](C)c2cc(C)ccc12

>  <score_type>  (2) 
oracle

>  <origin>  (2) 
adg

>  <m_score__min__energy>  (2) 
-7.04

>  <m_primary>  (2) 
energy

$$$$
2:0
     RDKit          3D

 20 20  0  0  0  0  0  0  0  0999 V2000
   57.8942   29.6578   46.3476 H   0  0  0  0  0  0  0  0  0  0  0  0
   57.2370   29.5360   45.4740 C   0  0  0  0  0  0  0  0  0  0  0  0
   56.6680   30.5730   44.9360 N   0  0  0  0  0  0  0  0  0  0  0  0
   56.9710   31.8910   45.2470 O   0  0  0  0  0  0  0  0  0  0  0  0
   57.7500   32.7420   44.4100 C   0  0  0  0  0  0  0  0  0  0  0  0
   57.2771   32.8146   43.4195 H   0  0  0  0  0  0  0  0  0  0  0  0
   58.7621   32.3246   44.3037 H   0  0  0  0  0  0  0  0  0  0  0  0
   57.8360   34.1260   45.0330 C   0  0  0  0  0  0  0  0  0  0  0  0
   57.8304   34.0356   46.1293 H   0  0  0  0  0  0  0  0  0  0  0  0
   58.7663   34.6162   44.7103 H   0  0  0  0  0  0  0  0  0  0  0  0
   56.9735   34.7276   44.7103 H   0  0  0  0  0  0  0  0  0  0  0  0
   56.9940   28.1730   44.8990 C   0  0  2  0  0  0  0  0  0  0  0  0
   56.7627   28.3274   43.8347 H   0  0  0  0  0  0  0  0  0  0  0  0
   55.9060   27.5130   45.6130 N   0  0  0  0  0  0  0  0  0  0  0  0
   56.4350   26.3000   46.0990 C   0  0  0  0  0  0  0  0  0  0  0  0
   55.7580   25.4680   46.7570 O   0  0  0  0  0  0  0  0  0  0  0  0
   57.7610   26.1200   45.7870 O   0  0  0  0  0  0  0  0  0  0  0  0
   58.2290   27.2440   45.0550 C   0  0  0  0  0  0  0  0  0  0  0  0
   58.6043   26.9328   44.0690 H   0  0  0  0  0  0  0  0  0  0  0  0
   59.0612   27.7497   45.5666 H   0  0  0  0  0  0  0  0  0  0  0  0
  1  2  1  0
  2  3  2  0
  3  4  1  0
  4  5  1  0
  5  6  1  0
  5  7  1  0
  5  8  1  0
  8  9  1  0
  8 10  1  0
  8 11  1  0
  2 12  1  0
 12 13  1  6
 12 14  1  0
 14 15  1  0
 15 16  2  0
 15 17  1  0
 17 18  1  0
 18 19  1  0
 18 20  1  0
 18 12  1  0
M  CHG  1  14  -1
M  END
>  <UniqueID>  (3) 
3

>  <SMILES>  (3) 
CCO/N=C/[C@H]1COC(=O)[N-]1

>  <Energy>  (3) 
28.148186254917565

>  <Genealogy>  (3) 
CCON=CC1COC(=O)[N-]1 (protonated)
CCON=C[C@H]1COC(=O)[N-]1 (chirality)
CCO/N=C/[C@H]1COC(=O)[N-]1 (cis-trans isomerization)
CCO/N=C/[C@H]1COC(=O)[N-]1 (3D coordinates assigned)
CCO/N=C/[C@H]1COC(=O)[N-]1 (nonaromatic ring conformer: 28.148186254917565 kcal/mol)

>  <smiles>  (3) 
CCON=CC1COC(=O)N1

>  <score_type>  (3) 
oracle

>  <origin>  (3) 
adg

>  <m_score__min__energy>  (3) 
-6.5599999999999996

>  <m_primary>  (3) 
energy

$$$$
3:0
     RDKit          3D

 34 36  0  0  0  0  0  0  0  0999 V2000
   62.1980   33.4750   48.0590 C   0  0  0  0  0  0  0  0  0  0  0  0
   61.3380   34.2170   49.0760 C   0  0  0  0  0  0  0  0  0  0  0  0
   59.9540   34.1150   48.7390 O   0  0  0  0  0  0  0  0  0  0  0  0
   59.4410   33.6570   47.5140 C   0  0  0  0  0  0  0  0  0  0  0  0
   59.4940   34.4220   46.3310 C   0  0  0  0  0  0  0  0  0  0  0  0
   58.9700   33.9200   45.1360 C   0  0  0  0  0  0  0  0  0  0  0  0
   58.3880   32.6450   45.1050 C   0  0  0  0  0  0  0  0  0  0  0  0
   57.8470   32.0890   43.9350 C   0  0  0  0  0  0  0  0  0  0  0  0
   57.2880   30.8350   43.9490 C   0  0  0  0  0  0  0  0  0  0  0  0
   57.2480   30.0860   45.1330 C   0  0  0  0  0  0  0  0  0  0  0  0
   56.6440   28.7180   45.1710 C   0  0  0  0  0  0  0  0  0  0  0  0
   57.7750   30.6270   46.2700 N   0  0  0  0  0  0  0  0  0  0  0  0
   58.3370   31.8700   46.2890 C   0  0  0  0  0  0  0  0  0  0  0  0
   58.8630   32.3810   47.4790 C   0  0  0  0  0  0  0  0  0  0  0  0
   56.7750   30.4380   42.6140 C   0  0  0  0  0  0  0  0  0  0  0  0
   57.0900   31.6440   41.7130 C   0  0  0  0  0  0  0  0  0  0  0  0
   57.7850   32.7050   42.5850 C   0  0  0  0  0  0  0  0  0  0  0  0
   62.9286   32.8446   48.5871 H   0  0  0  0  0  0  0  0  0  0  0  0
   61.5562   32.8425   47.4281 H   0  0  0  0  0  0  0  0  0  0  0  0
   62.7297   34.2025   47.4281 H   0  0  0  0  0  0  0  0  0  0  0  0
   61.4999   33.7801   50.0725 H   0  0  0  0  0  0  0  0  0  0  0  0
   61.6247   35.2790   49.0728 H   0  0  0  0  0  0  0  0  0  0  0  0
   59.9515   35.4222   46.3483 H   0  0  0  0  0  0  0  0  0  0  0  0
   59.0144   34.5261   44.2191 H   0  0  0  0  0  0  0  0  0  0  0  0
   56.5066   28.4068   46.2171 H   0  0  0  0  0  0  0  0  0  0  0  0
   55.6690   28.7334   44.6619 H   0  0  0  0  0  0  0  0  0  0  0  0
   57.3123   28.0079   44.6619 H   0  0  0  0  0  0  0  0  0  0  0  0
   58.8228   31.7757   48.3966 H   0  0  0  0  0  0  0  0  0  0  0  0
   57.2891   29.5356   42.2514 H   0  0  0  0  0  0  0  0  0  0  0  0
   55.7025   30.1943   42.6309 H   0  0  0  0  0  0  0  0  0  0  0  0
   57.7562   31.3365   40.8935 H   0  0  0  0  0  0  0  0  0  0  0  0
   56.1673   32.0492   41.2721 H   0  0  0  0  0  0  0  0  0  0  0  0
   58.7959   32.9181   42.2074 H   0  0  0  0  0  0  0  0  0  0  0  0
   57.2480   33.6650   42.5859 H   0  0  0  0  0  0  0  0  0  0  0  0
  1  2  1  0
  2  3  1  0
  3  4  1  0
  4  5  2  0
  5  6  1  0
  6  7  2  0
  7  8  1  0
  8  9  2  0
  9 10  1  0
 10 11  1  0
 10 12  2  0
 12 13  1  0
 13 14  2  0
  9 15  1  0
 15 16  1  0
 16 17  1  0
 14  4  1  0
 13  7  1  0
 17  8  1  0
  1 18  1  0
  1 19  1  0
  1 20  1  0
  2 21  1  0
  2 22  1  0
  5 23  1  0
  6 24  1  0
 11 25  1  0
 11 26  1  0
 11 27  1  0
 14 28  1  0
 15 29  1  0
 15 30  1  0
 16 31  1  0
 16 32  1  0
 17 33  1  0
 17 34  1  0
M  END
>  <UniqueID>  (4) 
4

>  <SMILES>  (4) 
CCOc1ccc2c3c(c(C)nc2c1)CCC3

>  <Energy>  (4) 
43.16067130851687

>  <Genealogy>  (4) 
CCOc1ccc2c3c(c(C)nc2c1)CCC3 (3D coordinates assigned)
CCOc1ccc2c3c(c(C)nc2c1)CCC3 (nonaromatic ring conformer: 43.16067130851687 kcal/mol)

>  <smiles>  (4) 
CCOc1ccc2c3c(c(C)nc2c1)CCC3

>  <score_type>  (4) 
oracle

>  <origin>  (4) 
adg

>  <m_score__min__energy>  (4) 
-6.5099999999999998

>  <m_primary>  (4) 
energy

$$$$
4:0
     RDKit          3D

 65 69  0  0  0  0  0  0  0  0999 V2000
   59.3420   26.7380   47.6920 C   0  0  0  0  0  0  0  0  0  0  0  0
   58.7950   27.9100   46.9350 C   0  0  0  0  0  0  0  0  0  0  0  0
   59.3060   29.2040   47.0090 C   0  0  0  0  0  0  0  0  0  0  0  0
   58.5600   29.9370   46.1130 C   0  0  0  0  0  0  0  0  0  0  0  0
   58.6580   31.2770   45.7550 C   0  0  0  0  0  0  0  0  0  0  0  0
   57.7960   31.7620   44.7470 C   0  0  0  0  0  0  0  0  0  0  0  0
   57.9000   33.1930   44.2910 C   0  0  0  0  0  0  0  0  0  0  0  0
   59.2720   33.7210   44.4310 N   0  0  0  0  0  0  0  0  0  0  0  0
   59.6170   34.3900   45.7100 C   0  0  0  0  0  0  0  0  0  0  0  0
   60.8690   33.7810   46.3770 C   0  0  0  0  0  0  0  0  0  0  0  0
   60.9260   34.1940   47.8480 C   0  0  0  0  0  0  0  0  0  0  0  0
   59.8000   33.6030   48.6060 N   0  0  0  0  0  0  0  0  0  0  0  0
   59.6840   34.2080   49.9490 C   0  0  0  0  0  0  0  0  0  0  0  0
   59.4340   33.1260   51.0110 C   0  0  0  0  0  0  0  0  0  0  0  0
   60.4150   31.9650   50.8780 C   0  0  0  0  0  0  0  0  0  0  0  0
   59.9320   30.6350   50.7810 C   0  0  0  0  0  0  0  0  0  0  0  0
   58.5290   30.3130   50.8860 C   0  0  0  0  0  0  0  0  0  0  0  0
   57.4020   30.0590   50.9630 N   0  0  0  0  0  0  0  0  0  0  0  0
   60.8300   29.5790   50.6150 C   0  0  0  0  0  0  0  0  0  0  0  0
   62.1660   29.8060   50.5580 N   0  0  0  0  0  0  0  0  0  0  0  0
   62.6830   31.0620   50.6600 C   0  0  0  0  0  0  0  0  0  0  0  0
   64.0770   31.2450   50.6150 C   0  0  0  0  0  0  0  0  0  0  0  0
   64.6240   32.5230   50.7190 C   0  0  0  0  0  0  0  0  0  0  0  0
   63.7900   33.6300   50.8640 C   0  0  0  0  0  0  0  0  0  0  0  0
   64.3280   34.8710   50.9640 F   0  0  0  0  0  0  0  0  0  0  0  0
   62.4020   33.4670   50.9130 C   0  0  0  0  0  0  0  0  0  0  0  0
   61.8210   32.1810   50.8150 C   0  0  0  0  0  0  0  0  0  0  0  0
   58.5030   33.5700   47.8750 C   0  0  0  0  0  0  0  0  0  0  0  0
   58.4300   34.5610   46.6980 C   0  0  0  0  0  0  0  0  0  0  0  0
   56.8340   30.8940   44.1700 C   0  0  0  0  0  0  0  0  0  0  0  0
   56.7590   29.5440   44.5570 C   0  0  0  0  0  0  0  0  0  0  0  0
   57.6450   29.0910   45.5390 C   0  0  0  0  0  0  0  0  0  0  0  0
   57.7700   27.8470   46.0460 N   0  0  0  0  0  0  0  0  0  0  0  0
   57.0470   26.6450   45.6220 C   0  0  0  0  0  0  0  0  0  0  0  0
   59.2543   26.9260   48.7723 H   0  0  0  0  0  0  0  0  0  0  0  0
   58.7727   25.8340   47.4297 H   0  0  0  0  0  0  0  0  0  0  0  0
   60.4005   26.5937   47.4297 H   0  0  0  0  0  0  0  0  0  0  0  0
   60.1280   29.5628   47.6458 H   0  0  0  0  0  0  0  0  0  0  0  0
   59.3866   31.9408   46.2433 H   0  0  0  0  0  0  0  0  0  0  0  0
   57.6036   33.2509   43.2333 H   0  0  0  0  0  0  0  0  0  0  0  0
   57.2365   33.8000   44.9245 H   0  0  0  0  0  0  0  0  0  0  0  0
   59.4160   34.4200   43.6640 H   0  0  0  0  0  0  0  0  0  0  0  0
   59.8766   35.4193   45.4215 H   0  0  0  0  0  0  0  0  0  0  0  0
   60.8227   32.6842   46.3074 H   0  0  0  0  0  0  0  0  0  0  0  0
   61.7691   34.1478   45.8620 H   0  0  0  0  0  0  0  0  0  0  0  0
   61.8748   33.8469   48.2831 H   0  0  0  0  0  0  0  0  0  0  0  0
   60.8540   35.2900   47.9087 H   0  0  0  0  0  0  0  0  0  0  0  0
   60.6169   34.7397   50.1876 H   0  0  0  0  0  0  0  0  0  0  0  0
   58.8355   34.9080   49.9500 H   0  0  0  0  0  0  0  0  0  0  0  0
   59.5458   33.5742   52.0093 H   0  0  0  0  0  0  0  0  0  0  0  0
   58.4169   32.7329   50.8661 H   0  0  0  0  0  0  0  0  0  0  0  0
   60.4495   28.5505   50.5294 H   0  0  0  0  0  0  0  0  0  0  0  0
   62.8020   28.9830   50.4410 H   0  0  0  0  0  0  0  0  0  0  0  0
   64.7393   30.3747   50.4971 H   0  0  0  0  0  0  0  0  0  0  0  0
   65.7152   32.6578   50.6866 H   0  0  0  0  0  0  0  0  0  0  0  0
   61.7547   34.3488   51.0291 H   0  0  0  0  0  0  0  0  0  0  0  0
   58.3511   32.5535   47.4830 H   0  0  0  0  0  0  0  0  0  0  0  0
   57.7224   33.8645   48.5919 H   0  0  0  0  0  0  0  0  0  0  0  0
   57.4891   34.3946   46.1530 H   0  0  0  0  0  0  0  0  0  0  0  0
   58.4796   35.5792   47.1113 H   0  0  0  0  0  0  0  0  0  0  0  0
   56.1384   31.2813   43.4109 H   0  0  0  0  0  0  0  0  0  0  0  0
   56.0246   28.8643   44.1003 H   0  0  0  0  0  0  0  0  0  0  0  0
   56.7114   26.0871   46.5086 H   0  0  0  0  0  0  0  0  0  0  0  0
   56.1738   26.9357   45.0195 H   0  0  0  0  0  0  0  0  0  0  0  0
   57.7131   26.0099   45.0195 H   0  0  0  0  0  0  0  0  0  0  0  0
  1  2  1  0
  2  3  2  0
  3  4  1  0
  4  5  2  0
  5  6  1  0
  6  7  1  0
  7  8  1  0
  8  9  1  0
  9 10  1  0
 10 11  1  0
 11 12  1  0
 12 13  1  0
 13 14  1  0
 14 15  1  0
 15 16  2  0
 16 17  1  0
 17 18  3  0
 16 19  1  0
 19 20  2  0
 20 21  1  0
 21 22  2  0
 22 23  1  0
 23 24  2  0
 24 25  1  0
 24 26  1  0
 26 27  2  0
 12 28  1  0
 28 29  1  0
  6 30  2  0
 30 31  1  0
 31 32  2  0
 32 33  1  0
 33 34  1  0
 33  2  1  0
 32  4  1  0
 29  9  1  0
 27 15  1  0
 27 21  1  0
  1 35  1  0
  1 36  1  0
  1 37  1  0
  3 38  1  0
  5 39  1  0
  7 40  1  0
  7 41  1  0
  8 42  1  0
  9 43  1  0
 10 44  1  0
 10 45  1  0
 11 46  1  0
 11 47  1  0
 13 48  1  0
 13 49  1  0
 14 50  1  0
 14 51  1  0
 19 52  1  0
 20 53  1  0
 22 54  1  0
 23 55  1  0
 26 56  1  0
 28 57  1  0
 28 58  1  0
 29 59  1  0
 29 60  1  0
 30 61  1  0
 31 62  1  0
 34 63  1  0
 34 64  1  0
 34 65  1  0
M  CHG  1  20   1
M  END
>  <UniqueID>  (5) 
5

>  <SMILES>  (5) 
Cc1cc2cc(CNC3CCN(CCc4c(C#N)c[nH+]c5ccc(F)cc45)CC3)ccc2n1C

>  <Energy>  (5) 
119.23847279602819

>  <Genealogy>  (5) 
Cc1cc2cc(CNC3CCN(CCc4c(C#N)c[nH+]c5ccc(F)cc45)CC3)ccc2n1C (protonated)
Cc1cc2cc(CNC3CCN(CCc4c(C#N)c[nH+]c5ccc(F)cc45)CC3)ccc2n1C (3D coordinates assigned)
Cc1cc2cc(CNC3CCN(CCc4c(C#N)c[nH+]c5ccc(F)cc45)CC3)ccc2n1C (nonaromatic ring conformer: 119.23847279602819 kcal/mol)

>  <smiles>  (5) 
Cc1cc2cc(CNC3CCN(CCc4c(C#N)cnc5ccc(F)cc45)CC3)ccc2n1C

>  <score_type>  (5) 
oracle

>  <origin>  (5) 
adg

>  <m_score__min__energy>  (5) 
-8.1199999999999992

>  <m_primary>  (5) 
energy

$$$$
5:0
     RDKit          3D

 90 93  0  0  0  0  0  0  0  0999 V2000
   59.2340   32.9210   50.8820 C   0  0  0  0  0  0  0  0  0  0  0  0
   58.1190   33.2140   51.7970 N   0  0  0  0  0  0  0  0  0  0  0  0
   58.5510   34.2680   52.7300 C   0  0  0  0  0  0  0  0  0  0  0  0
   57.7240   32.0060   52.5610 C   0  0  0  0  0  0  0  0  0  0  0  0
   56.6320   31.1890   51.8480 C   0  0  0  0  0  0  0  0  0  0  0  0
   57.0770   29.8570   51.6630 O   0  0  0  0  0  0  0  0  0  0  0  0
   58.4370   29.7320   52.0810 C   0  0  0  0  0  0  0  0  0  0  0  0
   59.3640   29.5520   50.8800 C   0  0  0  0  0  0  0  0  0  0  0  0
   58.6720   28.9890   49.7800 O   0  0  0  0  0  0  0  0  0  0  0  0
   59.0330   29.6360   48.5700 C   0  0  0  0  0  0  0  0  0  0  0  0
   59.9430   28.7540   47.7160 C   0  0  0  0  0  0  0  0  0  0  0  0
   60.6960   29.5230   46.6950 N   0  0  0  0  0  0  0  0  0  0  0  0
   59.9130   30.6620   46.2260 C   0  0  0  0  0  0  0  0  0  0  0  0
   58.8280   30.4270   45.3230 C   0  0  0  0  0  0  0  0  0  0  0  0
   58.5010   29.1220   44.8620 C   0  0  0  0  0  0  0  0  0  0  0  0
   57.4270   28.8930   44.0000 C   0  0  0  0  0  0  0  0  0  0  0  0
   56.6070   29.9350   43.6270 C   0  0  0  0  0  0  0  0  0  0  0  0
   56.8810   31.2200   44.0810 C   0  0  0  0  0  0  0  0  0  0  0  0
   57.9990   31.5090   44.9040 C   0  0  0  0  0  0  0  0  0  0  0  0
   58.2500   32.7950   45.3500 N   0  0  0  0  0  0  0  0  0  0  0  0
   57.3820   33.9040   44.8530 C   0  0  0  0  0  0  0  0  0  0  0  0
   59.2270   33.0320   46.3070 C   0  0  0  0  0  0  0  0  0  0  0  0
   59.3720   34.3280   46.8900 C   0  0  0  0  0  0  0  0  0  0  0  0
   60.3030   34.5980   47.8710 C   0  0  0  0  0  0  0  0  0  0  0  0
   61.1500   33.6030   48.3090 C   0  0  0  0  0  0  0  0  0  0  0  0
   61.0910   32.3120   47.7640 C   0  0  0  0  0  0  0  0  0  0  0  0
   62.0300   31.3810   48.2120 O   0  0  0  0  0  0  0  0  0  0  0  0
   62.7210   31.4620   49.4610 C   0  0  0  0  0  0  0  0  0  0  0  0
   64.0950   32.1180   49.2420 C   0  0  0  0  0  0  0  0  0  0  0  0
   64.8860   32.3890   50.4880 N   0  0  0  0  0  0  0  0  0  0  0  0
   64.6300   33.7750   50.9380 C   0  0  0  0  0  0  0  0  0  0  0  0
   64.4070   31.4720   51.5710 C   0  0  0  0  0  0  0  0  0  0  0  0
   65.2040   30.1570   51.6210 C   0  0  0  0  0  0  0  0  0  0  0  0
   66.6530   30.3810   51.9310 N   0  0  0  0  0  0  0  0  0  0  0  0
   66.8800   30.2230   53.3860 C   0  0  0  0  0  0  0  0  0  0  0  0
   67.4780   29.3640   51.2230 C   0  0  0  0  0  0  0  0  0  0  0  0
   67.1050   31.7370   51.5070 C   0  0  0  0  0  0  0  0  0  0  0  0
   66.3530   32.2170   50.2540 C   0  0  0  0  0  0  0  0  0  0  0  0
   60.0970   31.9820   46.7660 C   0  0  0  0  0  0  0  0  0  0  0  0
   60.1353   32.6842   51.4664 H   0  0  0  0  0  0  0  0  0  0  0  0
   58.9717   32.0613   50.2479 H   0  0  0  0  0  0  0  0  0  0  0  0
   59.4283   33.7986   50.2479 H   0  0  0  0  0  0  0  0  0  0  0  0
   58.4094   33.9224   53.7647 H   0  0  0  0  0  0  0  0  0  0  0  0
   59.6142   34.4939   52.5612 H   0  0  0  0  0  0  0  0  0  0  0  0
   57.9521   35.1751   52.5612 H   0  0  0  0  0  0  0  0  0  0  0  0
   58.6102   31.3684   52.6958 H   0  0  0  0  0  0  0  0  0  0  0  0
   57.3153   32.3397   53.5262 H   0  0  0  0  0  0  0  0  0  0  0  0
   55.7180   31.1876   52.4601 H   0  0  0  0  0  0  0  0  0  0  0  0
   56.4195   31.6416   50.8682 H   0  0  0  0  0  0  0  0  0  0  0  0
   58.7300   30.6398   52.6288 H   0  0  0  0  0  0  0  0  0  0  0  0
   58.5251   28.8466   52.7278 H   0  0  0  0  0  0  0  0  0  0  0  0
   59.7665   30.5329   50.5870 H   0  0  0  0  0  0  0  0  0  0  0  0
   60.1776   28.8694   51.1666 H   0  0  0  0  0  0  0  0  0  0  0  0
   58.1202   29.8655   48.0007 H   0  0  0  0  0  0  0  0  0  0  0  0
   59.5793   30.5575   48.8198 H   0  0  0  0  0  0  0  0  0  0  0  0
   60.6627   28.2482   48.3765 H   0  0  0  0  0  0  0  0  0  0  0  0
   59.3027   28.0353   47.1835 H   0  0  0  0  0  0  0  0  0  0  0  0
   61.6410   29.7920   47.0020 H   0  0  0  0  0  0  0  0  0  0  0  0
   60.9530   28.8950   45.9240 H   0  0  0  0  0  0  0  0  0  0  0  0
   59.1114   28.2692   45.1939 H   0  0  0  0  0  0  0  0  0  0  0  0
   57.2354   27.8793   43.6183 H   0  0  0  0  0  0  0  0  0  0  0  0
   55.7409   29.7515   42.9741 H   0  0  0  0  0  0  0  0  0  0  0  0
   56.2077   32.0405   43.7920 H   0  0  0  0  0  0  0  0  0  0  0  0
   56.9562   34.4481   45.7090 H   0  0  0  0  0  0  0  0  0  0  0  0
   57.9825   34.5940   44.2420 H   0  0  0  0  0  0  0  0  0  0  0  0
   56.5680   33.4868   44.2420 H   0  0  0  0  0  0  0  0  0  0  0  0
   58.7168   35.1408   46.5436 H   0  0  0  0  0  0  0  0  0  0  0  0
   60.3695   35.6071   48.3037 H   0  0  0  0  0  0  0  0  0  0  0  0
   61.8836   33.8247   49.0981 H   0  0  0  0  0  0  0  0  0  0  0  0
   62.1335   32.0672   50.1671 H   0  0  0  0  0  0  0  0  0  0  0  0
   62.8575   30.4509   49.8721 H   0  0  0  0  0  0  0  0  0  0  0  0
   64.6905   31.4518   48.6004 H   0  0  0  0  0  0  0  0  0  0  0  0
   63.8926   33.1012   48.7922 H   0  0  0  0  0  0  0  0  0  0  0  0
   64.6238   33.8083   52.0375 H   0  0  0  0  0  0  0  0  0  0  0  0
   65.4211   34.4367   50.5555 H   0  0  0  0  0  0  0  0  0  0  0  0
   63.6547   34.1104   50.5555 H   0  0  0  0  0  0  0  0  0  0  0  0
   64.5098   31.9844   52.5389 H   0  0  0  0  0  0  0  0  0  0  0  0
   63.3576   31.2203   51.3577 H   0  0  0  0  0  0  0  0  0  0  0  0
   64.7717   29.5108   52.3991 H   0  0  0  0  0  0  0  0  0  0  0  0
   65.1412   29.6877   50.6281 H   0  0  0  0  0  0  0  0  0  0  0  0
   66.1000   30.7659   53.9399 H   0  0  0  0  0  0  0  0  0  0  0  0
   66.8412   29.1557   53.6494 H   0  0  0  0  0  0  0  0  0  0  0  0
   67.8674   30.6300   53.6494 H   0  0  0  0  0  0  0  0  0  0  0  0
   67.9919   28.7305   51.9609 H   0  0  0  0  0  0  0  0  0  0  0  0
   66.8283   28.7392   50.5925 H   0  0  0  0  0  0  0  0  0  0  0  0
   68.2233   29.8709   50.5925 H   0  0  0  0  0  0  0  0  0  0  0  0
   66.9224   32.4470   52.3271 H   0  0  0  0  0  0  0  0  0  0  0  0
   68.1770   31.6833   51.2661 H   0  0  0  0  0  0  0  0  0  0  0  0
   66.7744   33.1834   49.9401 H   0  0  0  0  0  0  0  0  0  0  0  0
   66.4763   31.4465   49.4787 H   0  0  0  0  0  0  0  0  0  0  0  0
  1  2  1  0
  2  3  1  0
  2  4  1  0
  4  5  1  0
  5  6  1  0
  6  7  1  0
  7  8  1  0
  8  9  1  0
  9 10  1  0
 10 11  1  0
 11 12  1  0
 12 13  1  0
 13 14  2  0
 14 15  1  0
 15 16  2  0
 16 17  1  0
 17 18  2  0
 18 19  1  0
 19 20  2  0
 20 21  1  0
 20 22  1  0
 22 23  2  0
 23 24  1  0
 24 25  2  0
 25 26  1  0
 26 27  1  0
 27 28  1  0
 28 29  1  0
 29 30  1  0
 30 31  1  0
 30 32  1  0
 32 33  1  0
 33 34  1  0
 34 35  1  0
 34 36  1  0
 34 37  1  0
 37 38  1  0
 26 39  2  0
 39 13  1  0
 19 14  1  0
 39 22  1  0
 38 30  1  0
  1 40  1  0
  1 41  1  0
  1 42  1  0
  3 43  1  0
  3 44  1  0
  3 45  1  0
  4 46  1  0
  4 47  1  0
  5 48  1  0
  5 49  1  0
  7 50  1  0
  7 51  1  0
  8 52  1  0
  8 53  1  0
 10 54  1  0
 10 55  1  0
 11 56  1  0
 11 57  1  0
 12 58  1  0
 12 59  1  0
 15 60  1  0
 16 61  1  0
 17 62  1  0
 18 63  1  0
 21 64  1  0
 21 65  1  0
 21 66  1  0
 23 67  1  0
 24 68  1  0
 25 69  1  0
 28 70  1  0
 28 71  1  0
 29 72  1  0
 29 73  1  0
 31 74  1  0
 31 75  1  0
 31 76  1  0
 32 77  1  0
 32 78  1  0
 33 79  1  0
 33 80  1  0
 35 81  1  0
 35 82  1  0
 35 83  1  0
 36 84  1  0
 36 85  1  0
 36 86  1  0
 37 87  1  0
 37 88  1  0
 38 89  1  0
 38 90  1  0
M  CHG  4  12   1  20   1  30   1  34   1
M  END
>  <UniqueID>  (6) 
6

>  <SMILES>  (6) 
CN(C)CCOCCOCC[NH2+]c1c2ccccc2[n+](C)c2cccc(OCC[N+]3(C)CC[N+](C)(C)CC3)c12

>  <Energy>  (6) 
163.36577526227046

>  <Genealogy>  (6) 
CN(C)CCOCCOCC[NH2+]c1c2ccccc2[n+](C)c2cccc(OCC[N+]3(C)CC[N+](C)(C)CC3)c12 (protonated)
CN(C)CCOCCOCC[NH2+]c1c2ccccc2[n+](C)c2cccc(OCC[N+]3(C)CC[N+](C)(C)CC3)c12 (3D coordinates assigned)
CN(C)CCOCCOCC[NH2+]c1c2ccccc2[n+](C)c2cccc(OCC[N+]3(C)CC[N+](C)(C)CC3)c12 (nonaromatic ring conformer: 163.36577526227046 kcal/mol)

>  <smiles>  (6) 
CN(C)CCOCCOCCNc1c2ccccc2[n+](C)c2cccc(OCC[N+]3(C)CC[N+](C)(C)CC3)c12

>  <score_type>  (6) 
oracle

>  <origin>  (6) 
adg

>  <m_score__min__energy>  (6) 
-3.3199999999999998

>  <m_primary>  (6) 
energy

$$$$
6:0
     RDKit          3D

 61 64  0  0  0  0  0  0  0  0999 V2000
   62.6590   34.1790   49.3860 C   0  0  0  0  0  0  0  0  0  0  0  0
   62.4410   32.7790   49.9560 C   0  0  0  0  0  0  0  0  0  0  0  0
   61.4210   32.8010   50.9390 O   0  0  0  0  0  0  0  0  0  0  0  0
   61.9510   33.0320   52.2310 C   0  0  0  0  0  0  0  0  0  0  0  0
   60.8300   33.4020   53.2010 C   0  0  0  0  0  0  0  0  0  0  0  0
   59.8850   34.2030   52.5240 O   0  0  0  0  0  0  0  0  0  0  0  0
   58.5880   33.9260   53.0150 C   0  0  0  0  0  0  0  0  0  0  0  0
   57.8160   33.0920   51.9840 C   0  0  0  0  0  0  0  0  0  0  0  0
   58.6970   32.2640   51.1420 N   0  0  0  0  0  0  0  0  0  0  0  0
   58.5210   30.8290   51.3980 C   0  0  0  0  0  0  0  0  0  0  0  0
   58.8430   30.0080   50.1410 C   0  0  0  0  0  0  0  0  0  0  0  0
   59.8510   30.6450   49.2670 N   0  0  0  0  0  0  0  0  0  0  0  0
   59.3230   30.9600   47.9500 C   0  0  0  0  0  0  0  0  0  0  0  0
   58.9460   29.9400   47.0600 C   0  0  0  0  0  0  0  0  0  0  0  0
   58.5390   30.2300   45.7650 C   0  0  0  0  0  0  0  0  0  0  0  0
   58.3910   31.5120   45.3110 N   0  0  0  0  0  0  0  0  0  0  0  0
   57.7920   31.7580   43.9860 C   0  0  0  0  0  0  0  0  0  0  0  0
   58.8030   32.5550   46.1240 C   0  0  0  0  0  0  0  0  0  0  0  0
   58.8290   33.8910   45.6500 C   0  0  0  0  0  0  0  0  0  0  0  0
   59.1920   34.9460   46.4830 C   0  0  0  0  0  0  0  0  0  0  0  0
   59.5500   34.7040   47.8020 C   0  0  0  0  0  0  0  0  0  0  0  0
   59.5770   33.4020   48.2950 C   0  0  0  0  0  0  0  0  0  0  0  0
   59.2370   32.3020   47.4710 C   0  0  0  0  0  0  0  0  0  0  0  0
   58.3200   28.9530   45.0600 C   0  0  0  0  0  0  0  0  0  0  0  0
   58.0460   28.7270   43.7470 N   0  0  0  0  0  0  0  0  0  0  0  0
   57.9480   27.4450   43.2860 C   0  0  0  0  0  0  0  0  0  0  0  0
   58.1520   26.3550   44.1570 C   0  0  0  0  0  0  0  0  0  0  0  0
   58.4680   26.5900   45.5040 C   0  0  0  0  0  0  0  0  0  0  0  0
   58.5480   27.9130   45.9290 C   0  0  0  0  0  0  0  0  0  0  0  0
   58.9210   28.4710   47.2170 C   0  0  0  0  0  0  0  0  0  0  0  0
   59.1180   27.8030   48.2650 O   0  0  0  0  0  0  0  0  0  0  0  0
   62.7709   34.8976   50.2113 H   0  0  0  0  0  0  0  0  0  0  0  0
   63.5690   34.1857   48.7681 H   0  0  0  0  0  0  0  0  0  0  0  0
   61.7941   34.4621   48.7681 H   0  0  0  0  0  0  0  0  0  0  0  0
   62.1471   32.0982   49.1435 H   0  0  0  0  0  0  0  0  0  0  0  0
   63.3764   32.4319   50.4191 H   0  0  0  0  0  0  0  0  0  0  0  0
   62.4532   32.1202   52.5864 H   0  0  0  0  0  0  0  0  0  0  0  0
   62.6717   33.8615   52.1810 H   0  0  0  0  0  0  0  0  0  0  0  0
   60.3426   32.4869   53.5684 H   0  0  0  0  0  0  0  0  0  0  0  0
   61.2447   33.9568   54.0555 H   0  0  0  0  0  0  0  0  0  0  0  0
   58.6654   33.3636   53.9572 H   0  0  0  0  0  0  0  0  0  0  0  0
   58.0549   34.8714   53.1939 H   0  0  0  0  0  0  0  0  0  0  0  0
   57.1183   32.4307   52.5187 H   0  0  0  0  0  0  0  0  0  0  0  0
   57.2880   33.7928   51.3206 H   0  0  0  0  0  0  0  0  0  0  0  0
   59.6980   32.5250   51.3060 H   0  0  0  0  0  0  0  0  0  0  0  0
   59.1949   30.5224   52.2116 H   0  0  0  0  0  0  0  0  0  0  0  0
   57.4734   30.6467   51.6797 H   0  0  0  0  0  0  0  0  0  0  0  0
   59.2244   29.0250   50.4546 H   0  0  0  0  0  0  0  0  0  0  0  0
   57.9132   29.9263   49.5590 H   0  0  0  0  0  0  0  0  0  0  0  0
   60.2390   31.4860   49.7420 H   0  0  0  0  0  0  0  0  0  0  0  0
   60.6740   30.0090   49.1690 H   0  0  0  0  0  0  0  0  0  0  0  0
   56.7812   32.1731   44.1119 H   0  0  0  0  0  0  0  0  0  0  0  0
   58.4152   32.4730   43.4289 H   0  0  0  0  0  0  0  0  0  0  0  0
   57.7328   30.8114   43.4289 H   0  0  0  0  0  0  0  0  0  0  0  0
   58.5572   34.0980   44.6044 H   0  0  0  0  0  0  0  0  0  0  0  0
   59.1951   35.9750   46.0943 H   0  0  0  0  0  0  0  0  0  0  0  0
   59.8136   35.5445   48.4608 H   0  0  0  0  0  0  0  0  0  0  0  0
   59.8671   33.2253   49.3412 H   0  0  0  0  0  0  0  0  0  0  0  0
   57.7083   27.2616   42.2282 H   0  0  0  0  0  0  0  0  0  0  0  0
   58.0638   25.3246   43.7822 H   0  0  0  0  0  0  0  0  0  0  0  0
   58.6464   25.7572   46.2001 H   0  0  0  0  0  0  0  0  0  0  0  0
  1  2  1  0
  2  3  1  0
  3  4  1  0
  4  5  1  0
  5  6  1  0
  6  7  1  0
  7  8  1  0
  8  9  1  0
  9 10  1  0
 10 11  1  0
 11 12  1  0
 12 13  1  0
 13 14  2  0
 14 15  1  0
 15 16  2  0
 16 17  1  0
 16 18  1  0
 18 19  2  0
 19 20  1  0
 20 21  2  0
 21 22  1  0
 22 23  2  0
 15 24  1  0
 24 25  2  0
 25 26  1  0
 26 27  2  0
 27 28  1  0
 28 29  2  0
 29 30  1  0
 30 31  2  0
 23 13  1  0
 29 24  1  0
 30 14  1  0
 23 18  1  0
  1 32  1  0
  1 33  1  0
  1 34  1  0
  2 35  1  0
  2 36  1  0
  4 37  1  0
  4 38  1  0
  5 39  1  0
  5 40  1  0
  7 41  1  0
  7 42  1  0
  8 43  1  0
  8 44  1  0
  9 45  1  0
 10 46  1  0
 10 47  1  0
 11 48  1  0
 11 49  1  0
 12 50  1  0
 12 51  1  0
 17 52  1  0
 17 53  1  0
 17 54  1  0
 19 55  1  0
 20 56  1  0
 21 57  1  0
 22 58  1  0
 26 59  1  0
 27 60  1  0
 28 61  1  0
M  CHG  2  12   1  16   1
M  END
>  <UniqueID>  (7) 
7

>  <SMILES>  (7) 
CCOCCOCCNCC[NH2+]c1c2c([n+](C)c3ccccc13)-c1ncccc1C2=O

>  <Energy>  (7) 
114.92432023302538

>  <Genealogy>  (7) 
CCOCCOCCNCC[NH2+]c1c2c([n+](C)c3ccccc13)-c1ncccc1C2=O (protonated)
CCOCCOCCNCC[NH2+]c1c2c([n+](C)c3ccccc13)-c1ncccc1C2=O (3D coordinates assigned)
CCOCCOCCNCC[NH2+]c1c2c([n+](C)c3ccccc13)-c1ncccc1C2=O (nonaromatic ring conformer: 114.92432023302538 kcal/mol)

>  <smiles>  (7) 
CCOCCOCCNCCNc1c2c([n+](C)c3ccccc13)-c1ncccc1C2=O

>  <score_type>  (7) 
oracle

>  <origin>  (7) 
adg

>  <m_score__min__energy>  (7) 
-4.2400000000000002

>  <m_primary>  (7) 
energy

$$$$
7:0
     RDKit          3D

 63 66  0  0  0  0  0  0  0  0999 V2000
   59.6640   34.3990   49.0680 C   0  0  0  0  0  0  0  0  0  0  0  0
   60.1990   33.7100   50.3250 C   0  0  0  0  0  0  0  0  0  0  0  0
   59.0970   33.3910   51.3470 C   0  0  0  0  0  0  0  0  0  0  0  0
   58.0870   32.3220   50.8830 C   0  0  0  0  0  0  0  0  0  0  0  0
   58.4720   30.9590   51.3550 N   0  0  0  0  0  0  0  0  0  0  0  0
   57.3510   30.3210   52.0940 C   0  0  0  0  0  0  0  0  0  0  0  0
   56.1940   31.2960   52.3630 C   0  0  0  0  0  0  0  0  0  0  0  0
   54.8360   30.6900   52.0150 C   0  0  0  0  0  0  0  0  0  0  0  0
   58.8480   30.0780   50.2160 C   0  0  0  0  0  0  0  0  0  0  0  0
   60.3530   29.7510   50.1610 C   0  0  0  0  0  0  0  0  0  0  0  0
   60.8080   29.3800   48.8020 N   0  0  0  0  0  0  0  0  0  0  0  0
   60.5780   30.4530   47.8520 C   0  0  0  0  0  0  0  0  0  0  0  0
   59.5200   30.3960   46.9300 C   0  0  0  0  0  0  0  0  0  0  0  0
   59.3010   31.4170   46.0150 C   0  0  0  0  0  0  0  0  0  0  0  0
   60.0170   32.5840   46.0520 N   0  0  0  0  0  0  0  0  0  0  0  0
   59.5380   33.7650   45.3110 C   0  0  0  0  0  0  0  0  0  0  0  0
   61.1410   32.6480   46.8560 C   0  0  0  0  0  0  0  0  0  0  0  0
   62.0470   33.7330   46.7660 C   0  0  0  0  0  0  0  0  0  0  0  0
   63.1460   33.8270   47.6170 C   0  0  0  0  0  0  0  0  0  0  0  0
   63.3770   32.8450   48.5710 C   0  0  0  0  0  0  0  0  0  0  0  0
   62.5310   31.7420   48.6630 C   0  0  0  0  0  0  0  0  0  0  0  0
   61.4200   31.6020   47.7980 C   0  0  0  0  0  0  0  0  0  0  0  0
   58.1780   31.0230   45.1280 C   0  0  0  0  0  0  0  0  0  0  0  0
   57.6990   31.5710   43.9270 C   0  0  0  0  0  0  0  0  0  0  0  0
   56.6560   30.9140   43.2540 C   0  0  0  0  0  0  0  0  0  0  0  0
   56.1340   29.7050   43.7510 C   0  0  0  0  0  0  0  0  0  0  0  0
   56.6680   29.1300   44.9130 C   0  0  0  0  0  0  0  0  0  0  0  0
   57.6930   29.8070   45.5730 C   0  0  0  0  0  0  0  0  0  0  0  0
   58.4950   29.3690   46.7000 C   0  0  0  0  0  0  0  0  0  0  0  0
   58.3260   28.2980   47.3380 O   0  0  0  0  0  0  0  0  0  0  0  0
   59.0132   35.2371   49.3580 H   0  0  0  0  0  0  0  0  0  0  0  0
   60.5065   34.7785   48.4711 H   0  0  0  0  0  0  0  0  0  0  0  0
   59.0877   33.6768   48.4711 H   0  0  0  0  0  0  0  0  0  0  0  0
   60.6863   32.7692   50.0292 H   0  0  0  0  0  0  0  0  0  0  0  0
   60.9049   34.4030   50.8062 H   0  0  0  0  0  0  0  0  0  0  0  0
   59.5769   33.0331   52.2698 H   0  0  0  0  0  0  0  0  0  0  0  0
   58.5259   34.3198   51.4926 H   0  0  0  0  0  0  0  0  0  0  0  0
   57.0938   32.5713   51.2847 H   0  0  0  0  0  0  0  0  0  0  0  0
   58.0759   32.3143   49.7831 H   0  0  0  0  0  0  0  0  0  0  0  0
   56.9707   29.4777   51.4989 H   0  0  0  0  0  0  0  0  0  0  0  0
   57.7395   29.9862   53.0671 H   0  0  0  0  0  0  0  0  0  0  0  0
   56.1987   31.5657   53.4294 H   0  0  0  0  0  0  0  0  0  0  0  0
   56.3425   32.1802   51.7257 H   0  0  0  0  0  0  0  0  0  0  0  0
   54.2942   30.4482   52.9413 H   0  0  0  0  0  0  0  0  0  0  0  0
   54.2519   31.4128   51.4265 H   0  0  0  0  0  0  0  0  0  0  0  0
   54.9839   29.7725   51.4265 H   0  0  0  0  0  0  0  0  0  0  0  0
   58.2900   29.1344   50.3070 H   0  0  0  0  0  0  0  0  0  0  0  0
   58.6016   30.6217   49.2920 H   0  0  0  0  0  0  0  0  0  0  0  0
   60.9175   30.6352   50.4919 H   0  0  0  0  0  0  0  0  0  0  0  0
   60.5293   28.8864   50.8178 H   0  0  0  0  0  0  0  0  0  0  0  0
   60.3670   28.4900   48.4880 H   0  0  0  0  0  0  0  0  0  0  0  0
   61.8280   29.1510   48.8220 H   0  0  0  0  0  0  0  0  0  0  0  0
   59.2229   34.5418   46.0233 H   0  0  0  0  0  0  0  0  0  0  0  0
   60.3491   34.1548   44.6784 H   0  0  0  0  0  0  0  0  0  0  0  0
   58.6845   33.4796   44.6784 H   0  0  0  0  0  0  0  0  0  0  0  0
   61.8799   34.5152   46.0109 H   0  0  0  0  0  0  0  0  0  0  0  0
   63.8330   34.6820   47.5329 H   0  0  0  0  0  0  0  0  0  0  0  0
   64.2317   32.9383   49.2571 H   0  0  0  0  0  0  0  0  0  0  0  0
   62.7297   30.9684   49.4194 H   0  0  0  0  0  0  0  0  0  0  0  0
   58.1324   32.4970   43.5212 H   0  0  0  0  0  0  0  0  0  0  0  0
   56.2437   31.3478   42.3310 H   0  0  0  0  0  0  0  0  0  0  0  0
   55.3041   29.2095   43.2259 H   0  0  0  0  0  0  0  0  0  0  0  0
   56.2885   28.1704   45.2939 H   0  0  0  0  0  0  0  0  0  0  0  0
  1  2  1  0
  2  3  1  0
  3  4  1  0
  4  5  1  0
  5  6  1  0
  6  7  1  0
  7  8  1  0
  5  9  1  0
  9 10  1  0
 10 11  1  0
 11 12  1  0
 12 13  2  0
 13 14  1  0
 14 15  2  0
 15 16  1  0
 15 17  1  0
 17 18  2  0
 18 19  1  0
 19 20  2  0
 20 21  1  0
 21 22  2  0
 14 23  1  0
 23 24  2  0
 24 25  1  0
 25 26  2  0
 26 27  1  0
 27 28  2  0
 28 29  1  0
 29 30  2  0
 22 12  1  0
 28 23  1  0
 29 13  1  0
 22 17  1  0
  1 31  1  0
  1 32  1  0
  1 33  1  0
  2 34  1  0
  2 35  1  0
  3 36  1  0
  3 37  1  0
  4 38  1  0
  4 39  1  0
  6 40  1  0
  6 41  1  0
  7 42  1  0
  7 43  1  0
  8 44  1  0
  8 45  1  0
  8 46  1  0
  9 47  1  0
  9 48  1  0
 10 49  1  0
 10 50  1  0
 11 51  1  0
 11 52  1  0
 16 53  1  0
 16 54  1  0
 16 55  1  0
 18 56  1  0
 19 57  1  0
 20 58  1  0
 21 59  1  0
 24 60  1  0
 25 61  1  0
 26 62  1  0
 27 63  1  0
M  CHG  2  11   1  15   1
M  END
>  <UniqueID>  (8) 
8

>  <SMILES>  (8) 
CCCCN(CCC)CC[NH2+]c1c2c([n+](C)c3ccccc13)-c1ccccc1C2=O

>  <Energy>  (8) 
116.93725551337427

>  <Genealogy>  (8) 
CCCCN(CCC)CC[NH2+]c1c2c([n+](C)c3ccccc13)-c1ccccc1C2=O (protonated)
CCCCN(CCC)CC[NH2+]c1c2c([n+](C)c3ccccc13)-c1ccccc1C2=O (3D coordinates assigned)
CCCCN(CCC)CC[NH2+]c1c2c([n+](C)c3ccccc13)-c1ccccc1C2=O (nonaromatic ring conformer: 116.93725551337427 kcal/mol)

>  <smiles>  (8) 
CCCCN(CCC)CCNc1c2c([n+](C)c3ccccc13)-c1ccccc1C2=O

>  <score_type>  (8) 
oracle

>  <origin>  (8) 
adg

>  <m_score__min__energy>  (8) 
-4.9900000000000002

>  <m_primary>  (8) 
energy

$$$$
8:0
     RDKit          3D

 43 44  0  0  0  0  0  0  0  0999 V2000
   57.1440   30.8780   46.3860 H   0  0  0  0  0  0  0  0  0  0  0  0
   58.0050   30.4800   46.8170 N   0  0  0  0  0  0  0  0  0  0  0  0
   59.1250   31.1330   46.9010 C   0  0  0  0  0  0  0  0  0  0  0  0
   60.2690   30.5730   47.3730 N   0  0  0  0  0  0  0  0  0  0  0  0
   60.4480   29.2300   47.9300 C   0  0  0  0  0  0  0  0  0  0  0  0
   61.4643   29.1397   48.3411 H   0  0  0  0  0  0  0  0  0  0  0  0
   59.7052   29.0696   48.7253 H   0  0  0  0  0  0  0  0  0  0  0  0
   60.2490   28.1790   46.8450 C   0  0  0  0  0  0  0  0  0  0  0  0
   60.0637   27.2004   47.3120 H   0  0  0  0  0  0  0  0  0  0  0  0
   59.3873   28.4560   46.2198 H   0  0  0  0  0  0  0  0  0  0  0  0
   61.1523   28.1218   46.2198 H   0  0  0  0  0  0  0  0  0  0  0  0
   61.1850   31.5580   47.2730 C   0  0  0  0  0  0  0  0  0  0  0  0
   62.5390   31.5310   47.6140 C   0  0  0  0  0  0  0  0  0  0  0  0
   62.9972   30.6318   48.0517 H   0  0  0  0  0  0  0  0  0  0  0  0
   63.2970   32.6920   47.3790 C   0  0  0  0  0  0  0  0  0  0  0  0
   64.3666   32.7072   47.6353 H   0  0  0  0  0  0  0  0  0  0  0  0
   62.6940   33.8390   46.8160 C   0  0  0  0  0  0  0  0  0  0  0  0
   63.2990   34.7392   46.6327 H   0  0  0  0  0  0  0  0  0  0  0  0
   61.3260   33.8390   46.4880 C   0  0  0  0  0  0  0  0  0  0  0  0
   60.8469   34.7264   46.0486 H   0  0  0  0  0  0  0  0  0  0  0  0
   60.5960   32.6740   46.7390 C   0  0  0  0  0  0  0  0  0  0  0  0
   59.2870   32.4280   46.5120 N   0  0  0  0  0  0  0  0  0  0  0  0
   58.3080   33.3270   45.8920 C   0  0  0  0  0  0  0  0  0  0  0  0
   57.4316   33.4192   46.5503 H   0  0  0  0  0  0  0  0  0  0  0  0
   58.7712   34.3134   45.7425 H   0  0  0  0  0  0  0  0  0  0  0  0
   57.8670   32.7750   44.5410 C   0  0  0  0  0  0  0  0  0  0  0  0
   57.4703   33.5925   43.9211 H   0  0  0  0  0  0  0  0  0  0  0  0
   58.7266   32.3165   44.0302 H   0  0  0  0  0  0  0  0  0  0  0  0
   56.8610   31.8040   44.7430 O   0  0  0  0  0  0  0  0  0  0  0  0
   56.6270   31.0750   43.5520 C   0  0  0  0  0  0  0  0  0  0  0  0
   56.0062   31.6787   42.8736 H   0  0  0  0  0  0  0  0  0  0  0  0
   57.5930   30.8467   43.0779 H   0  0  0  0  0  0  0  0  0  0  0  0
   55.9040   29.7620   43.8630 C   0  0  0  0  0  0  0  0  0  0  0  0
   54.8237   29.8975   43.7059 H   0  0  0  0  0  0  0  0  0  0  0  0
   56.2885   28.9770   43.1952 H   0  0  0  0  0  0  0  0  0  0  0  0
   56.1350   29.3750   45.2060 O   0  0  0  0  0  0  0  0  0  0  0  0
   56.9130   28.1980   45.2560 C   0  0  0  0  0  0  0  0  0  0  0  0
   57.3784   28.1065   46.2485 H   0  0  0  0  0  0  0  0  0  0  0  0
   56.2718   27.3231   45.0733 H   0  0  0  0  0  0  0  0  0  0  0  0
   57.9960   28.2690   44.1910 C   0  0  0  0  0  0  0  0  0  0  0  0
   58.9820   28.3336   44.6744 H   0  0  0  0  0  0  0  0  0  0  0  0
   57.9535   27.3661   43.5641 H   0  0  0  0  0  0  0  0  0  0  0  0
   57.8360   29.1586   43.5641 H   0  0  0  0  0  0  0  0  0  0  0  0
  1  2  1  0
  2  3  2  0
  3  4  1  0
  4  5  1  0
  5  6  1  0
  5  7  1  0
  5  8  1  0
  8  9  1  0
  8 10  1  0
  8 11  1  0
  4 12  1  0
 12 13  2  0
 13 14  1  0
 13 15  1  0
 15 16  1  0
 15 17  2  0
 17 18  1  0
 17 19  1  0
 19 20  1  0
 19 21  2  0
 21 22  1  0
 22 23  1  0
 23 24  1  0
 23 25  1  0
 23 26  1  0
 26 27  1  0
 26 28  1  0
 26 29  1  0
 29 30  1  0
 30 31  1  0
 30 32  1  0
 30 33  1  0
 33 34  1  0
 33 35  1  0
 33 36  1  0
 36 37  1  0
 37 38  1  0
 37 39  1  0
 37 40  1  0
 40 41  1  0
 40 42  1  0
 40 43  1  0
 22  3  1  0
 21 12  1  0
M  END
>  <UniqueID>  (9) 
9

>  <SMILES>  (9) 
[H]/N=c1/n(CC)c2ccccc2n1CCOCCOCC

>  <Energy>  (9) 
77.75038568818495

>  <Genealogy>  (9) 
[H]/N=c1/n(CC)c2ccccc2n1CCOCCOCC (cis-trans isomerization)
[H]/N=c1/n(CC)c2ccccc2n1CCOCCOCC (3D coordinates assigned)
[H]/N=c1/n(CC)c2ccccc2n1CCOCCOCC (optimized conformer: 77.75038568818495 kcal/mol)

>  <smiles>  (9) 
CCOCCOCCn1c(=N)n(CC)c2ccccc21

>  <score_type>  (9) 
oracle

>  <origin>  (9) 
adg

>  <m_score__min__energy>  (9) 
-5.3099999999999996

>  <m_primary>  (9) 
energy

$$$$
9:0
     RDKit          3D

 48 50  0  0  0  0  0  0  0  0999 V2000
   50.5650   23.6600   45.2840 C   0  0  0  0  0  0  0  0  0  0  0  0
   51.8320   24.0260   44.5150 C   0  0  0  0  0  0  0  0  0  0  0  0
   52.9000   23.1710   44.8790 O   0  0  0  0  0  0  0  0  0  0  0  0
   53.6130   23.7110   45.9740 C   0  0  0  0  0  0  0  0  0  0  0  0
   54.8720   24.4360   45.4740 C   0  0  0  0  0  0  0  0  0  0  0  0
   55.0250   25.7480   45.9900 O   0  0  0  0  0  0  0  0  0  0  0  0
   56.2840   25.9600   46.6080 C   0  0  0  0  0  0  0  0  0  0  0  0
   57.2160   26.8640   45.7840 C   0  0  0  0  0  0  0  0  0  0  0  0
   56.5250   27.9980   45.2560 O   0  0  0  0  0  0  0  0  0  0  0  0
   56.9920   29.3220   45.2780 C   0  0  0  0  0  0  0  0  0  0  0  0
   56.3240   30.2700   44.4960 C   0  0  0  0  0  0  0  0  0  0  0  0
   56.7650   31.5950   44.4450 C   0  0  0  0  0  0  0  0  0  0  0  0
   57.8900   31.9910   45.1870 C   0  0  0  0  0  0  0  0  0  0  0  0
   58.3860   33.3030   45.1560 C   0  0  0  0  0  0  0  0  0  0  0  0
   57.8330   34.1910   44.4500 O   0  0  0  0  0  0  0  0  0  0  0  0
   59.5120   33.6290   45.9140 C   0  0  0  0  0  0  0  0  0  0  0  0
   60.1250   32.6350   46.6980 C   0  0  0  0  0  0  0  0  0  0  0  0
   61.3300   32.9180   47.5190 C   0  0  0  0  0  0  0  0  0  0  0  0
   61.2410   33.8320   48.5860 C   0  0  0  0  0  0  0  0  0  0  0  0
   62.3630   34.1210   49.3680 C   0  0  0  0  0  0  0  0  0  0  0  0
   63.5870   33.5090   49.0930 C   0  0  0  0  0  0  0  0  0  0  0  0
   63.6920   32.6100   48.0290 C   0  0  0  0  0  0  0  0  0  0  0  0
   62.5740   32.3160   47.2420 C   0  0  0  0  0  0  0  0  0  0  0  0
   59.6280   31.3990   46.6970 O   0  0  0  0  0  0  0  0  0  0  0  0
   58.5600   31.0450   45.9900 C   0  0  0  0  0  0  0  0  0  0  0  0
   58.1050   29.7230   46.0430 C   0  0  0  0  0  0  0  0  0  0  0  0
   50.7626   23.7171   46.3646 H   0  0  0  0  0  0  0  0  0  0  0  0
   49.7605   24.3625   45.0207 H   0  0  0  0  0  0  0  0  0  0  0  0
   50.2590   22.6367   45.0207 H   0  0  0  0  0  0  0  0  0  0  0  0
   51.6414   23.9272   43.4362 H   0  0  0  0  0  0  0  0  0  0  0  0
   52.1082   25.0624   44.7592 H   0  0  0  0  0  0  0  0  0  0  0  0
   52.9706   24.4245   46.5110 H   0  0  0  0  0  0  0  0  0  0  0  0
   53.9099   22.8953   46.6496 H   0  0  0  0  0  0  0  0  0  0  0  0
   55.7515   23.8441   45.7674 H   0  0  0  0  0  0  0  0  0  0  0  0
   54.7715   24.5327   44.3829 H   0  0  0  0  0  0  0  0  0  0  0  0
   56.1179   26.4297   47.5887 H   0  0  0  0  0  0  0  0  0  0  0  0
   56.7741   24.9794   46.6986 H   0  0  0  0  0  0  0  0  0  0  0  0
   58.0344   27.2147   46.4300 H   0  0  0  0  0  0  0  0  0  0  0  0
   57.6035   26.2759   44.9391 H   0  0  0  0  0  0  0  0  0  0  0  0
   55.4406   29.9688   43.9139 H   0  0  0  0  0  0  0  0  0  0  0  0
   56.2307   32.3285   43.8233 H   0  0  0  0  0  0  0  0  0  0  0  0
   59.9155   34.6522   45.8983 H   0  0  0  0  0  0  0  0  0  0  0  0
   60.2813   34.3225   48.8060 H   0  0  0  0  0  0  0  0  0  0  0  0
   62.2811   34.8328   50.2026 H   0  0  0  0  0  0  0  0  0  0  0  0
   64.4673   33.7342   49.7130 H   0  0  0  0  0  0  0  0  0  0  0  0
   64.6578   32.1315   47.8093 H   0  0  0  0  0  0  0  0  0  0  0  0
   62.6659   31.6113   46.4024 H   0  0  0  0  0  0  0  0  0  0  0  0
   58.6190   28.9928   46.6854 H   0  0  0  0  0  0  0  0  0  0  0  0
  1  2  1  0
  2  3  1  0
  3  4  1  0
  4  5  1  0
  5  6  1  0
  6  7  1  0
  7  8  1  0
  8  9  1  0
  9 10  1  0
 10 11  2  0
 11 12  1  0
 12 13  2  0
 13 14  1  0
 14 15  2  0
 14 16  1  0
 16 17  2  0
 17 18  1  0
 18 19  2  0
 19 20  1  0
 20 21  2  0
 21 22  1  0
 22 23  2  0
 17 24  1  0
 24 25  1  0
 25 26  2  0
 26 10  1  0
 25 13  1  0
 23 18  1  0
  1 27  1  0
  1 28  1  0
  1 29  1  0
  2 30  1  0
  2 31  1  0
  4 32  1  0
  4 33  1  0
  5 34  1  0
  5 35  1  0
  7 36  1  0
  7 37  1  0
  8 38  1  0
  8 39  1  0
 11 40  1  0
 12 41  1  0
 16 42  1  0
 19 43  1  0
 20 44  1  0
 21 45  1  0
 22 46  1  0
 23 47  1  0
 26 48  1  0
M  END
>  <UniqueID>  (10) 
10

>  <SMILES>  (10) 
CCOCCOCCOc1ccc2c(=O)cc(-c3ccccc3)oc2c1

>  <Energy>  (10) 
60.10839649235433

>  <Genealogy>  (10) 
CCOCCOCCOc1ccc2c(=O)cc(-c3ccccc3)oc2c1 (3D coordinates assigned)
CCOCCOCCOc1ccc2c(=O)cc(-c3ccccc3)oc2c1 (optimized conformer: 60.10839649235433 kcal/mol)

>  <smiles>  (10) 
CCOCCOCCOc1ccc2c(=O)cc(-c3ccccc3)oc2c1

>  <score_type>  (10) 
oracle

>  <origin>  (10) 
adg

>  <m_score__min__energy>  (10) 
-7.7999999999999998

>  <m_primary>  (10) 
energy

$$$$
10:0
     RDKit          3D

 61 64  0  0  0  0  0  0  0  0999 V2000
   63.0710   33.0820   47.3770 C   0  0  0  0  0  0  0  0  0  0  0  0
   62.6580   31.6220   47.4830 C   0  0  0  0  0  0  0  0  0  0  0  0
   61.9510   31.4290   48.6870 O   0  0  0  0  0  0  0  0  0  0  0  0
   62.8600   31.2710   49.7540 C   0  0  0  0  0  0  0  0  0  0  0  0
   62.2740   30.2960   50.7670 C   0  0  0  0  0  0  0  0  0  0  0  0
   60.8840   30.1700   50.5450 O   0  0  0  0  0  0  0  0  0  0  0  0
   60.3710   29.0420   51.2260 C   0  0  0  0  0  0  0  0  0  0  0  0
   59.0070   29.3660   51.8390 C   0  0  0  0  0  0  0  0  0  0  0  0
   58.1500   29.9190   50.8590 O   0  0  0  0  0  0  0  0  0  0  0  0
   57.9820   31.3140   51.0260 C   0  0  0  0  0  0  0  0  0  0  0  0
   58.4830   32.0960   49.7990 C   0  0  0  0  0  0  0  0  0  0  0  0
   59.4380   31.3340   48.9680 N   0  0  0  0  0  0  0  0  0  0  0  0
   59.1160   31.3970   47.5540 C   0  0  0  0  0  0  0  0  0  0  0  0
   58.8070   30.2200   46.8560 C   0  0  0  0  0  0  0  0  0  0  0  0
   58.5050   30.2340   45.5050 C   0  0  0  0  0  0  0  0  0  0  0  0
   58.3560   31.4050   44.8120 N   0  0  0  0  0  0  0  0  0  0  0  0
   57.7010   31.4000   43.4940 C   0  0  0  0  0  0  0  0  0  0  0  0
   58.7680   32.5840   45.4080 C   0  0  0  0  0  0  0  0  0  0  0  0
   58.8630   33.7820   44.6600 C   0  0  0  0  0  0  0  0  0  0  0  0
   59.2450   34.9770   45.2610 C   0  0  0  0  0  0  0  0  0  0  0  0
   59.5510   35.0130   46.6140 C   0  0  0  0  0  0  0  0  0  0  0  0
   59.4980   33.8500   47.3790 C   0  0  0  0  0  0  0  0  0  0  0  0
   59.1290   32.6120   46.8010 C   0  0  0  0  0  0  0  0  0  0  0  0
   58.3100   28.8320   45.0530 C   0  0  0  0  0  0  0  0  0  0  0  0
   58.2120   28.2680   43.7720 C   0  0  0  0  0  0  0  0  0  0  0  0
   58.1170   26.8700   43.6540 C   0  0  0  0  0  0  0  0  0  0  0  0
   58.1700   26.0510   44.7980 C   0  0  0  0  0  0  0  0  0  0  0  0
   58.3430   26.6220   46.0670 C   0  0  0  0  0  0  0  0  0  0  0  0
   58.4190   28.0100   46.1620 C   0  0  0  0  0  0  0  0  0  0  0  0
   58.7250   28.8300   47.3220 C   0  0  0  0  0  0  0  0  0  0  0  0
   58.8920   28.4060   48.4950 O   0  0  0  0  0  0  0  0  0  0  0  0
   63.1902   33.5035   48.3860 H   0  0  0  0  0  0  0  0  0  0  0  0
   64.0250   33.1547   46.8342 H   0  0  0  0  0  0  0  0  0  0  0  0
   62.2965   33.6437   46.8342 H   0  0  0  0  0  0  0  0  0  0  0  0
   62.0137   31.3587   46.6312 H   0  0  0  0  0  0  0  0  0  0  0  0
   63.5526   30.9820   47.4719 H   0  0  0  0  0  0  0  0  0  0  0  0
   63.8126   30.8762   49.3711 H   0  0  0  0  0  0  0  0  0  0  0  0
   63.0388   32.2435   50.2359 H   0  0  0  0  0  0  0  0  0  0  0  0
   62.7549   29.3134   50.6518 H   0  0  0  0  0  0  0  0  0  0  0  0
   62.4516   30.6721   51.7853 H   0  0  0  0  0  0  0  0  0  0  0  0
   60.2611   28.2088   50.5163 H   0  0  0  0  0  0  0  0  0  0  0  0
   61.0673   28.7628   52.0305 H   0  0  0  0  0  0  0  0  0  0  0  0
   58.5582   28.4431   52.2351 H   0  0  0  0  0  0  0  0  0  0  0  0
   59.1425   30.0961   52.6505 H   0  0  0  0  0  0  0  0  0  0  0  0
   56.9136   31.5296   51.1748 H   0  0  0  0  0  0  0  0  0  0  0  0
   58.5719   31.6294   51.8993 H   0  0  0  0  0  0  0  0  0  0  0  0
   57.6155   32.3629   49.1775 H   0  0  0  0  0  0  0  0  0  0  0  0
   59.0143   32.9832   50.1739 H   0  0  0  0  0  0  0  0  0  0  0  0
   59.5440   30.3610   49.3240 H   0  0  0  0  0  0  0  0  0  0  0  0
   60.3890   31.7480   49.1040 H   0  0  0  0  0  0  0  0  0  0  0  0
   56.6091   31.3917   43.6272 H   0  0  0  0  0  0  0  0  0  0  0  0
   57.9953   32.3004   42.9349 H   0  0  0  0  0  0  0  0  0  0  0  0
   58.0090   30.5042   42.9349 H   0  0  0  0  0  0  0  0  0  0  0  0
   58.6307   33.7678   43.5849 H   0  0  0  0  0  0  0  0  0  0  0  0
   59.3047   35.8972   44.6612 H   0  0  0  0  0  0  0  0  0  0  0  0
   59.8370   35.9650   47.0850 H   0  0  0  0  0  0  0  0  0  0  0  0
   59.7470   33.8946   48.4495 H   0  0  0  0  0  0  0  0  0  0  0  0
   58.2095   28.9074   42.8769 H   0  0  0  0  0  0  0  0  0  0  0  0
   58.0004   26.4128   42.6603 H   0  0  0  0  0  0  0  0  0  0  0  0
   58.0754   24.9598   44.6960 H   0  0  0  0  0  0  0  0  0  0  0  0
   58.4168   25.9903   46.9645 H   0  0  0  0  0  0  0  0  0  0  0  0
  1  2  1  0
  2  3  1  0
  3  4  1  0
  4  5  1  0
  5  6  1  0
  6  7  1  0
  7  8  1  0
  8  9  1  0
  9 10  1  0
 10 11  1  0
 11 12  1  0
 12 13  1  0
 13 14  2  0
 14 15  1  0
 15 16  2  0
 16 17  1  0
 16 18  1  0
 18 19  2  0
 19 20  1  0
 20 21  2  0
 21 22  1  0
 22 23  2  0
 15 24  1  0
 24 25  2  0
 25 26  1  0
 26 27  2  0
 27 28  1  0
 28 29  2  0
 29 30  1  0
 30 31  2  0
 23 13  1  0
 29 24  1  0
 30 14  1  0
 23 18  1  0
  1 32  1  0
  1 33  1  0
  1 34  1  0
  2 35  1  0
  2 36  1  0
  4 37  1  0
  4 38  1  0
  5 39  1  0
  5 40  1  0
  7 41  1  0
  7 42  1  0
  8 43  1  0
  8 44  1  0
 10 45  1  0
 10 46  1  0
 11 47  1  0
 11 48  1  0
 12 49  1  0
 12 50  1  0
 17 51  1  0
 17 52  1  0
 17 53  1  0
 19 54  1  0
 20 55  1  0
 21 56  1  0
 22 57  1  0
 25 58  1  0
 26 59  1  0
 27 60  1  0
 28 61  1  0
M  CHG  2  12   1  16   1
M  END
>  <UniqueID>  (11) 
11

>  <SMILES>  (11) 
CCOCCOCCOCC[NH2+]c1c2c([n+](C)c3ccccc13)-c1ccccc1C2=O

>  <Energy>  (11) 
116.27858591414407

>  <Genealogy>  (11) 
CCOCCOCCOCC[NH2+]c1c2c([n+](C)c3ccccc13)-c1ccccc1C2=O (protonated)
CCOCCOCCOCC[NH2+]c1c2c([n+](C)c3ccccc13)-c1ccccc1C2=O (3D coordinates assigned)
CCOCCOCCOCC[NH2+]c1c2c([n+](C)c3ccccc13)-c1ccccc1C2=O (nonaromatic ring conformer: 116.27858591414407 kcal/mol)

>  <smiles>  (11) 
CCOCCOCCOCCNc1c2c([n+](C)c3ccccc13)-c1ccccc1C2=O

>  <score_type>  (11) 
oracle

>  <origin>  (11) 
adg

>  <m_score__min__energy>  (11) 
-4.4800000000000004

>  <m_primary>  (11) 
energy

$$$$
11:0
     RDKit          3D

 50 52  0  0  0  0  0  0  0  0999 V2000
   60.2340   33.8400   49.6960 C   0  0  0  0  0  0  0  0  0  0  0  0
   61.6740   33.7010   50.1800 C   0  0  0  0  0  0  0  0  0  0  0  0
   62.6760   34.1870   49.1250 C   0  0  0  0  0  0  0  0  0  0  0  0
   63.9610   33.3460   49.1590 C   0  0  0  0  0  0  0  0  0  0  0  0
   64.1380   32.6070   47.8950 N   0  0  0  0  0  0  0  0  0  0  0  0
   62.8710   32.4830   47.1460 C   0  0  0  0  0  0  0  0  0  0  0  0
   62.3110   31.0480   47.1840 C   0  0  0  0  0  0  0  0  0  0  0  0
   60.8930   31.0470   47.5470 N   0  0  0  0  0  0  0  0  0  0  0  0
   59.8400   30.9710   46.5670 C   0  0  0  0  0  0  0  0  0  0  0  0
   59.4710   29.7210   46.0240 C   0  0  0  0  0  0  0  0  0  0  0  0
   60.0760   28.5280   46.4840 C   0  0  0  0  0  0  0  0  0  0  0  0
   59.7530   27.2990   45.9140 C   0  0  0  0  0  0  0  0  0  0  0  0
   58.8380   27.2350   44.8720 C   0  0  0  0  0  0  0  0  0  0  0  0
   58.2090   28.3950   44.4160 C   0  0  0  0  0  0  0  0  0  0  0  0
   58.4750   29.6590   45.0120 C   0  0  0  0  0  0  0  0  0  0  0  0
   57.8070   30.8100   44.6160 N   0  0  0  0  0  0  0  0  0  0  0  0
   56.6050   30.7160   43.7550 C   0  0  0  0  0  0  0  0  0  0  0  0
   58.2540   32.0510   45.0440 C   0  0  0  0  0  0  0  0  0  0  0  0
   57.7490   33.2580   44.4860 C   0  0  0  0  0  0  0  0  0  0  0  0
   58.1860   34.5030   44.9390 C   0  0  0  0  0  0  0  0  0  0  0  0
   59.1540   34.5850   45.9300 C   0  0  0  0  0  0  0  0  0  0  0  0
   59.5830   35.8000   46.3570 F   0  0  0  0  0  0  0  0  0  0  0  0
   59.7040   33.4250   46.4670 C   0  0  0  0  0  0  0  0  0  0  0  0
   59.2640   32.1480   46.0420 C   0  0  0  0  0  0  0  0  0  0  0  0
   59.5604   33.9050   50.5632 H   0  0  0  0  0  0  0  0  0  0  0  0
   60.1379   34.7516   49.0879 H   0  0  0  0  0  0  0  0  0  0  0  0
   59.9653   32.9636   49.0879 H   0  0  0  0  0  0  0  0  0  0  0  0
   61.8019   34.2981   51.0950 H   0  0  0  0  0  0  0  0  0  0  0  0
   61.8695   32.6360   50.3740 H   0  0  0  0  0  0  0  0  0  0  0  0
   62.2179   34.1041   48.1284 H   0  0  0  0  0  0  0  0  0  0  0  0
   62.9356   35.2334   49.3434 H   0  0  0  0  0  0  0  0  0  0  0  0
   64.8235   34.0116   49.3112 H   0  0  0  0  0  0  0  0  0  0  0  0
   63.8859   32.6213   49.9831 H   0  0  0  0  0  0  0  0  0  0  0  0
   64.5380   31.6590   48.0850 H   0  0  0  0  0  0  0  0  0  0  0  0
   64.8220   33.1300   47.2980 H   0  0  0  0  0  0  0  0  0  0  0  0
   62.1296   33.1645   47.5886 H   0  0  0  0  0  0  0  0  0  0  0  0
   63.0730   32.7392   46.0955 H   0  0  0  0  0  0  0  0  0  0  0  0
   62.4283   30.5898   46.1909 H   0  0  0  0  0  0  0  0  0  0  0  0
   62.8667   30.4752   47.9411 H   0  0  0  0  0  0  0  0  0  0  0  0
   60.6370   31.2660   48.5390 H   0  0  0  0  0  0  0  0  0  0  0  0
   60.8104   28.5715   47.3018 H   0  0  0  0  0  0  0  0  0  0  0  0
   60.2233   26.3783   46.2898 H   0  0  0  0  0  0  0  0  0  0  0  0
   58.6077   26.2666   44.4038 H   0  0  0  0  0  0  0  0  0  0  0  0
   57.4954   28.3304   43.5814 H   0  0  0  0  0  0  0  0  0  0  0  0
   55.7066   30.6457   44.3859 H   0  0  0  0  0  0  0  0  0  0  0  0
   56.5379   31.6116   43.1199 H   0  0  0  0  0  0  0  0  0  0  0  0
   56.6780   29.8208   43.1199 H   0  0  0  0  0  0  0  0  0  0  0  0
   56.9998   33.2088   43.6821 H   0  0  0  0  0  0  0  0  0  0  0  0
   57.7620   35.4225   44.5093 H   0  0  0  0  0  0  0  0  0  0  0  0
   60.4910   33.5011   47.2318 H   0  0  0  0  0  0  0  0  0  0  0  0
  1  2  1  0
  2  3  1  0
  3  4  1  0
  4  5  1  0
  5  6  1  0
  6  7  1  0
  7  8  1  0
  8  9  1  0
  9 10  2  0
 10 11  1  0
 11 12  2  0
 12 13  1  0
 13 14  2  0
 14 15  1  0
 15 16  2  0
 16 17  1  0
 16 18  1  0
 18 19  2  0
 19 20  1  0
 20 21  2  0
 21 22  1  0
 21 23  1  0
 23 24  2  0
 24  9  1  0
 15 10  1  0
 24 18  1  0
  1 25  1  0
  1 26  1  0
  1 27  1  0
  2 28  1  0
  2 29  1  0
  3 30  1  0
  3 31  1  0
  4 32  1  0
  4 33  1  0
  5 34  1  0
  5 35  1  0
  6 36  1  0
  6 37  1  0
  7 38  1  0
  7 39  1  0
  8 40  1  0
 11 41  1  0
 12 42  1  0
 13 43  1  0
 14 44  1  0
 17 45  1  0
 17 46  1  0
 17 47  1  0
 19 48  1  0
 20 49  1  0
 23 50  1  0
M  CHG  2   5   1  16   1
M  END
>  <UniqueID>  (12) 
12

>  <SMILES>  (12) 
CCCC[NH2+]CCNc1c2ccccc2[n+](C)c2ccc(F)cc12

>  <Energy>  (12) 
70.74710736564056

>  <Genealogy>  (12) 
CCCC[NH2+]CCNc1c2ccccc2[n+](C)c2ccc(F)cc12 (protonated)
CCCC[NH2+]CCNc1c2ccccc2[n+](C)c2ccc(F)cc12 (3D coordinates assigned)
CCCC[NH2+]CCNc1c2ccccc2[n+](C)c2ccc(F)cc12 (optimized conformer: 70.74710736564056 kcal/mol)

>  <smiles>  (12) 
CCCCNCCNc1c2ccccc2[n+](C)c2ccc(F)cc12

>  <score_type>  (12) 
oracle

>  <origin>  (12) 
adg

>  <m_score__min__energy>  (12) 
-4.4400000000000004

>  <m_primary>  (12) 
energy

$$$$
12:0
     RDKit          3D

 44 47  0  0  0  0  0  0  0  0999 V2000
   64.0640   32.3010   49.6200 C   0  0  0  0  0  0  0  0  0  0  0  0
   63.4010   32.8930   48.4620 N   0  0  0  0  0  0  0  0  0  0  0  0
   63.9640   33.0270   47.2710 N   0  0  0  0  0  0  0  0  0  0  0  0
   63.0810   33.5960   46.4280 C   0  0  0  0  0  0  0  0  0  0  0  0
   61.9100   33.8410   47.1200 C   0  0  0  0  0  0  0  0  0  0  0  0
   62.1390   33.3710   48.4040 C   0  0  0  0  0  0  0  0  0  0  0  0
   61.1430   33.3930   49.5310 C   0  0  0  0  0  0  0  0  0  0  0  0
   59.8190   32.7110   49.1420 C   0  0  0  0  0  0  0  0  0  0  0  0
   58.9240   33.5460   48.2040 C   0  0  0  0  0  0  0  0  0  0  0  0
   59.4660   33.5970   46.8340 N   0  0  0  0  0  0  0  0  0  0  0  0
   58.7570   32.9930   45.7260 C   0  0  0  0  0  0  0  0  0  0  0  0
   57.9840   31.8330   45.8920 C   0  0  0  0  0  0  0  0  0  0  0  0
   57.3290   31.2920   44.7840 C   0  0  0  0  0  0  0  0  0  0  0  0
   56.5560   30.1360   44.9410 O   0  0  0  0  0  0  0  0  0  0  0  0
   57.0550   28.8180   44.7230 C   0  0  0  0  0  0  0  0  0  0  0  0
   58.3020   28.5750   45.5830 C   0  0  0  0  0  0  0  0  0  0  0  0
   59.6320   28.8300   44.8910 C   0  0  0  0  0  0  0  0  0  0  0  0
   59.1700   27.4040   45.1500 C   0  0  0  0  0  0  0  0  0  0  0  0
   57.4490   31.8950   43.5710 N   0  0  0  0  0  0  0  0  0  0  0  0
   58.2010   33.0140   43.4180 C   0  0  0  0  0  0  0  0  0  0  0  0
   58.8450   33.5500   44.4860 N   0  0  0  0  0  0  0  0  0  0  0  0
   60.6460   34.4420   46.5660 C   0  0  0  0  0  0  0  0  0  0  0  0
   63.6169   32.7002   50.5423 H   0  0  0  0  0  0  0  0  0  0  0  0
   63.9392   31.2084   49.5951 H   0  0  0  0  0  0  0  0  0  0  0  0
   65.1356   32.5483   49.5951 H   0  0  0  0  0  0  0  0  0  0  0  0
   64.9360   32.7300   47.0300 H   0  0  0  0  0  0  0  0  0  0  0  0
   63.2614   33.8268   45.3677 H   0  0  0  0  0  0  0  0  0  0  0  0
   61.5732   32.8667   50.3958 H   0  0  0  0  0  0  0  0  0  0  0  0
   60.9262   34.4439   49.7732 H   0  0  0  0  0  0  0  0  0  0  0  0
   60.0557   31.7626   48.6375 H   0  0  0  0  0  0  0  0  0  0  0  0
   59.2522   32.5709   50.0743 H   0  0  0  0  0  0  0  0  0  0  0  0
   57.9211   33.0951   48.1738 H   0  0  0  0  0  0  0  0  0  0  0  0
   58.8833   34.5735   48.5946 H   0  0  0  0  0  0  0  0  0  0  0  0
   57.8957   31.3575   46.8800 H   0  0  0  0  0  0  0  0  0  0  0  0
   56.2792   28.0864   44.9929 H   0  0  0  0  0  0  0  0  0  0  0  0
   57.3232   28.7065   43.6620 H   0  0  0  0  0  0  0  0  0  0  0  0
   57.8420   28.8979   46.5286 H   0  0  0  0  0  0  0  0  0  0  0  0
   59.6511   29.2241   43.8642 H   0  0  0  0  0  0  0  0  0  0  0  0
   60.5349   29.4109   45.1307 H   0  0  0  0  0  0  0  0  0  0  0  0
   58.8551   26.7668   44.3105 H   0  0  0  0  0  0  0  0  0  0  0  0
   59.6004   26.5264   45.6546 H   0  0  0  0  0  0  0  0  0  0  0  0
   58.2888   33.4868   42.4287 H   0  0  0  0  0  0  0  0  0  0  0  0
   60.7571   34.5614   45.4782 H   0  0  0  0  0  0  0  0  0  0  0  0
   60.4873   35.4121   47.0597 H   0  0  0  0  0  0  0  0  0  0  0  0
  1  2  1  0
  2  3  1  0
  3  4  2  0
  4  5  1  0
  5  6  2  0
  6  7  1  0
  7  8  1  0
  8  9  1  0
  9 10  1  0
 10 11  1  0
 11 12  2  0
 12 13  1  0
 13 14  1  0
 14 15  1  0
 15 16  1  0
 16 17  1  0
 17 18  1  0
 13 19  2  0
 19 20  1  0
 20 21  2  0
 10 22  1  0
  6  2  1  0
 21 11  1  0
 22  5  1  0
 18 16  1  0
  1 23  1  0
  1 24  1  0
  1 25  1  0
  3 26  1  0
  4 27  1  0
  7 28  1  0
  7 29  1  0
  8 30  1  0
  8 31  1  0
  9 32  1  0
  9 33  1  0
 12 34  1  0
 15 35  1  0
 15 36  1  0
 16 37  1  0
 17 38  1  0
 17 39  1  0
 18 40  1  0
 18 41  1  0
 20 42  1  0
 22 43  1  0
 22 44  1  0
M  CHG  1   3   1
M  END
>  <UniqueID>  (13) 
13

>  <SMILES>  (13) 
Cn1[nH+]cc2c1CCCN(c1cc(OCC3CC3)ncn1)C2

>  <Energy>  (13) 
344.66871561394527

>  <Genealogy>  (13) 
Cn1[nH+]cc2c1CCCN(c1cc(OCC3CC3)ncn1)C2 (protonated)
Cn1[nH+]cc2c1CCCN(c1cc(OCC3CC3)ncn1)C2 (3D coordinates assigned)
Cn1[nH+]cc2c1CCCN(c1cc(OCC3CC3)ncn1)C2 (nonaromatic ring conformer: 344.66871561394527 kcal/mol)

>  <smiles>  (13) 
Cn1ncc2c1CCCN(c1cc(OCC3CC3)ncn1)C2

>  <score_type>  (13) 
oracle

>  <origin>  (13) 
adg

>  <m_score__min__energy>  (13) 
-4.96

>  <m_primary>  (13) 
energy

$$$$
13:0
     RDKit          3D

 51 53  0  0  0  0  0  0  0  0999 V2000
   63.3530   33.7510   46.7060 C   0  0  0  0  0  0  0  0  0  0  0  0
   63.4920   32.3200   47.2120 C   0  0  0  0  0  0  0  0  0  0  0  0
   63.2310   32.2650   48.6010 O   0  0  0  0  0  0  0  0  0  0  0  0
   63.9320   33.2870   49.2790 C   0  0  0  0  0  0  0  0  0  0  0  0
   62.9740   34.0310   50.2040 C   0  0  0  0  0  0  0  0  0  0  0  0
   62.1670   33.0720   50.9710 N   0  0  0  0  0  0  0  0  0  0  0  0
   60.7440   33.4390   50.9740 C   0  0  0  0  0  0  0  0  0  0  0  0
   59.9590   32.6360   49.9230 C   0  0  0  0  0  0  0  0  0  0  0  0
   60.8070   32.1440   48.8190 N   0  0  0  0  0  0  0  0  0  0  0  0
   60.0330   31.8840   47.6080 C   0  0  0  0  0  0  0  0  0  0  0  0
   59.6350   32.9400   46.7350 C   0  0  0  0  0  0  0  0  0  0  0  0
   59.9830   34.2960   46.9710 C   0  0  0  0  0  0  0  0  0  0  0  0
   59.6410   35.3000   46.0710 C   0  0  0  0  0  0  0  0  0  0  0  0
   58.9560   34.9890   44.9080 C   0  0  0  0  0  0  0  0  0  0  0  0
   58.5730   33.6770   44.6560 C   0  0  0  0  0  0  0  0  0  0  0  0
   58.8600   32.6360   45.5770 C   0  0  0  0  0  0  0  0  0  0  0  0
   58.4100   31.3520   45.3540 N   0  0  0  0  0  0  0  0  0  0  0  0
   57.3420   31.1050   44.3570 C   0  0  0  0  0  0  0  0  0  0  0  0
   58.9240   30.3000   46.0830 C   0  0  0  0  0  0  0  0  0  0  0  0
   58.7070   28.9550   45.6830 C   0  0  0  0  0  0  0  0  0  0  0  0
   59.1550   27.8890   46.4560 C   0  0  0  0  0  0  0  0  0  0  0  0
   58.8580   26.2380   45.9390 Cl  0  0  0  0  0  0  0  0  0  0  0  0
   59.8380   28.1310   47.6400 C   0  0  0  0  0  0  0  0  0  0  0  0
   60.1110   29.4370   48.0340 C   0  0  0  0  0  0  0  0  0  0  0  0
   59.6960   30.5460   47.2520 C   0  0  0  0  0  0  0  0  0  0  0  0
   63.2863   34.4379   47.5625 H   0  0  0  0  0  0  0  0  0  0  0  0
   64.2301   34.0107   46.0951 H   0  0  0  0  0  0  0  0  0  0  0  0
   62.4423   33.8371   46.0951 H   0  0  0  0  0  0  0  0  0  0  0  0
   62.7749   31.6760   46.6819 H   0  0  0  0  0  0  0  0  0  0  0  0
   64.5187   31.9719   47.0259 H   0  0  0  0  0  0  0  0  0  0  0  0
   64.7447   32.8430   49.8726 H   0  0  0  0  0  0  0  0  0  0  0  0
   64.3558   33.9899   48.5467 H   0  0  0  0  0  0  0  0  0  0  0  0
   63.5522   34.6579   50.8988 H   0  0  0  0  0  0  0  0  0  0  0  0
   62.3059   34.6616   49.5991 H   0  0  0  0  0  0  0  0  0  0  0  0
   62.2550   32.1400   50.5000 H   0  0  0  0  0  0  0  0  0  0  0  0
   60.3230   33.2344   51.9695 H   0  0  0  0  0  0  0  0  0  0  0  0
   60.6600   34.5081   50.7289 H   0  0  0  0  0  0  0  0  0  0  0  0
   59.4932   31.7716   50.4188 H   0  0  0  0  0  0  0  0  0  0  0  0
   59.2099   33.3123   49.4853 H   0  0  0  0  0  0  0  0  0  0  0  0
   61.6160   32.7800   48.6730 H   0  0  0  0  0  0  0  0  0  0  0  0
   61.2890   31.2680   49.1190 H   0  0  0  0  0  0  0  0  0  0  0  0
   60.5351   34.5584   47.8855 H   0  0  0  0  0  0  0  0  0  0  0  0
   59.9153   36.3438   46.2835 H   0  0  0  0  0  0  0  0  0  0  0  0
   58.7150   35.7808   44.1835 H   0  0  0  0  0  0  0  0  0  0  0  0
   58.0371   33.4409   43.7248 H   0  0  0  0  0  0  0  0  0  0  0  0
   56.3979   30.8866   44.8775 H   0  0  0  0  0  0  0  0  0  0  0  0
   57.2153   31.9975   43.7267 H   0  0  0  0  0  0  0  0  0  0  0  0
   57.6200   30.2474   43.7267 H   0  0  0  0  0  0  0  0  0  0  0  0
   58.1737   28.7519   44.7426 H   0  0  0  0  0  0  0  0  0  0  0  0
   60.1640   27.2886   48.2678 H   0  0  0  0  0  0  0  0  0  0  0  0
   60.6598   29.6136   48.9708 H   0  0  0  0  0  0  0  0  0  0  0  0
  1  2  1  0
  2  3  1  0
  3  4  1  0
  4  5  1  0
  5  6  1  0
  6  7  1  0
  7  8  1  0
  8  9  1  0
  9 10  1  0
 10 11  2  0
 11 12  1  0
 12 13  2  0
 13 14  1  0
 14 15  2  0
 15 16  1  0
 16 17  2  0
 17 18  1  0
 17 19  1  0
 19 20  2  0
 20 21  1  0
 21 22  1  0
 21 23  2  0
 23 24  1  0
 24 25  2  0
 25 10  1  0
 16 11  1  0
 25 19  1  0
  1 26  1  0
  1 27  1  0
  1 28  1  0
  2 29  1  0
  2 30  1  0
  4 31  1  0
  4 32  1  0
  5 33  1  0
  5 34  1  0
  6 35  1  0
  7 36  1  0
  7 37  1  0
  8 38  1  0
  8 39  1  0
  9 40  1  0
  9 41  1  0
 12 42  1  0
 13 43  1  0
 14 44  1  0
 15 45  1  0
 18 46  1  0
 18 47  1  0
 18 48  1  0
 20 49  1  0
 23 50  1  0
 24 51  1  0
M  CHG  2   9   1  17   1
M  END
>  <UniqueID>  (14) 
14

>  <SMILES>  (14) 
CCOCCNCC[NH2+]c1c2ccccc2[n+](C)c2cc(Cl)ccc12

>  <Energy>  (14) 
78.39725033619798

>  <Genealogy>  (14) 
CCOCCNCC[NH2+]c1c2ccccc2[n+](C)c2cc(Cl)ccc12 (protonated)
CCOCCNCC[NH2+]c1c2ccccc2[n+](C)c2cc(Cl)ccc12 (3D coordinates assigned)
CCOCCNCC[NH2+]c1c2ccccc2[n+](C)c2cc(Cl)ccc12 (optimized conformer: 78.39725033619798 kcal/mol)

>  <smiles>  (14) 
CCOCCNCCNc1c2ccccc2[n+](C)c2cc(Cl)ccc12

>  <score_type>  (14) 
oracle

>  <origin>  (14) 
adg

>  <m_score__min__energy>  (14) 
-4.3399999999999999

>  <m_primary>  (14) 
energy

$$$$
14:0
     RDKit          3D

 49 52  0  0  0  0  0  0  0  0999 V2000
   60.0020   36.1630   45.9710 C   0  0  0  0  0  0  0  0  0  0  0  0
   59.4080   34.9080   46.4210 N   0  0  0  0  0  0  0  0  0  0  0  0
   59.2640   34.5010   47.7050 C   0  0  0  0  0  0  0  0  0  0  0  0
   58.6410   33.2590   47.7540 C   0  0  0  0  0  0  0  0  0  0  0  0
   58.4040   32.9170   46.4390 C   0  0  0  0  0  0  0  0  0  0  0  0
   57.8010   31.7860   45.8950 C   0  0  0  0  0  0  0  0  0  0  0  0
   57.6900   31.7070   44.4910 C   0  0  0  0  0  0  0  0  0  0  0  0
   56.9080   30.3140   43.7500 S   0  0  0  0  0  0  0  0  0  0  0  0
   55.6480   29.9950   44.5080 O   0  0  0  0  0  0  0  0  0  0  0  0
   56.5470   30.6510   42.3290 O   0  0  0  0  0  0  0  0  0  0  0  0
   58.0190   28.9620   43.7760 N   0  0  1  0  0  0  0  0  0  0  0  0
   59.2630   29.2710   44.4870 C   0  0  0  0  0  0  0  0  0  0  0  0
   59.8500   27.9380   44.9440 C   0  0  0  0  0  0  0  0  0  0  0  0
   58.7720   26.8960   44.6710 C   0  0  0  0  0  0  0  0  0  0  0  0
   57.5090   27.7050   44.3590 C   0  0  1  0  0  0  0  0  0  0  0  0
   56.6570   27.8950   45.6450 C   0  0  0  0  0  0  0  0  0  0  0  0
   55.5490   26.9920   45.6670 O   0  0  0  0  0  0  0  0  0  0  0  0
   55.6150   25.6250   45.9800 C   0  0  0  0  0  0  0  0  0  0  0  0
   54.5730   24.7970   45.5420 C   0  0  0  0  0  0  0  0  0  0  0  0
   54.5870   23.4290   45.8270 C   0  0  0  0  0  0  0  0  0  0  0  0
   55.6470   22.8740   46.5480 C   0  0  0  0  0  0  0  0  0  0  0  0
   56.6940   23.6880   46.9850 C   0  0  0  0  0  0  0  0  0  0  0  0
   56.6850   25.0580   46.7030 C   0  0  0  0  0  0  0  0  0  0  0  0
   58.1710   32.7640   43.6810 C   0  0  0  0  0  0  0  0  0  0  0  0
   58.7760   33.8930   44.2630 C   0  0  0  0  0  0  0  0  0  0  0  0
   58.8780   33.9360   45.6550 C   0  0  0  0  0  0  0  0  0  0  0  0
   60.2880   36.7673   46.8445 H   0  0  0  0  0  0  0  0  0  0  0  0
   60.8946   35.9495   45.3647 H   0  0  0  0  0  0  0  0  0  0  0  0
   59.2710   36.7180   45.3647 H   0  0  0  0  0  0  0  0  0  0  0  0
   59.5936   35.0727   48.5851 H   0  0  0  0  0  0  0  0  0  0  0  0
   58.3904   32.6735   48.6509 H   0  0  0  0  0  0  0  0  0  0  0  0
   57.4229   30.9792   46.5400 H   0  0  0  0  0  0  0  0  0  0  0  0
   58.2660   28.7680   42.7750 H   0  0  0  0  0  0  0  0  0  0  0  0
   59.9663   29.7844   43.8148 H   0  0  0  0  0  0  0  0  0  0  0  0
   59.0746   29.9348   45.3437 H   0  0  0  0  0  0  0  0  0  0  0  0
   60.7615   27.7050   44.3740 H   0  0  0  0  0  0  0  0  0  0  0  0
   60.1309   27.9619   46.0073 H   0  0  0  0  0  0  0  0  0  0  0  0
   59.0505   26.2674   43.8124 H   0  0  0  0  0  0  0  0  0  0  0  0
   58.6277   26.2172   45.5245 H   0  0  0  0  0  0  0  0  0  0  0  0
   56.8216   27.2124   43.6556 H   0  0  0  0  0  0  0  0  0  0  0  0
   57.2895   27.7090   46.5256 H   0  0  0  0  0  0  0  0  0  0  0  0
   56.2689   28.9242   45.6578 H   0  0  0  0  0  0  0  0  0  0  0  0
   53.7378   25.2269   44.9696 H   0  0  0  0  0  0  0  0  0  0  0  0
   53.7619   22.7881   45.4830 H   0  0  0  0  0  0  0  0  0  0  0  0
   55.6569   21.7969   46.7712 H   0  0  0  0  0  0  0  0  0  0  0  0
   57.5284   23.2505   47.5528 H   0  0  0  0  0  0  0  0  0  0  0  0
   57.5141   25.6944   47.0458 H   0  0  0  0  0  0  0  0  0  0  0  0
   58.0708   32.7019   42.5873 H   0  0  0  0  0  0  0  0  0  0  0  0
   59.1569   34.7163   43.6408 H   0  0  0  0  0  0  0  0  0  0  0  0
  1  2  1  0
  2  3  1  0
  3  4  2  0
  4  5  1  0
  5  6  2  0
  6  7  1  0
  7  8  1  0
  8  9  2  0
  8 10  2  0
  8 11  1  0
 11 12  1  0
 12 13  1  0
 13 14  1  0
 14 15  1  0
 15 16  1  0
 16 17  1  0
 17 18  1  0
 18 19  2  0
 19 20  1  0
 20 21  2  0
 21 22  1  0
 22 23  2  0
  7 24  2  0
 24 25  1  0
 25 26  2  0
 26  2  1  0
 26  5  1  0
 15 11  1  0
 23 18  1  0
  1 27  1  0
  1 28  1  0
  1 29  1  0
  3 30  1  0
  4 31  1  0
  6 32  1  0
 11 33  1  6
 12 34  1  0
 12 35  1  0
 13 36  1  0
 13 37  1  0
 14 38  1  0
 14 39  1  0
 15 40  1  6
 16 41  1  0
 16 42  1  0
 19 43  1  0
 20 44  1  0
 21 45  1  0
 22 46  1  0
 23 47  1  0
 24 48  1  0
 25 49  1  0
M  CHG  1  11   1
M  END
>  <UniqueID>  (15) 
15

>  <SMILES>  (15) 
Cn1ccc2cc(S(=O)(=O)[N@H+]3CCC[C@H]3COc3ccccc3)ccc21

>  <Energy>  (15) 
91.36083242027382

>  <Genealogy>  (15) 
Cn1ccc2cc(S(=O)(=O)[NH+]3CCCC3COc3ccccc3)ccc21 (protonated)
Cn1ccc2cc(S(=O)(=O)[N@H+]3CCC[C@H]3COc3ccccc3)ccc21 (chirality)
Cn1ccc2cc(S(=O)(=O)[N@H+]3CCC[C@H]3COc3ccccc3)ccc21 (3D coordinates assigned)
Cn1ccc2cc(S(=O)(=O)[N@H+]3CCC[C@H]3COc3ccccc3)ccc21 (nonaromatic ring conformer: 91.36083242027382 kcal/mol)

>  <smiles>  (15) 
Cn1ccc2cc(S(=O)(=O)N3CCCC3COc3ccccc3)ccc21

>  <score_type>  (15) 
oracle

>  <origin>  (15) 
adg

>  <m_score__min__energy>  (15) 
-8.1099999999999994

>  <m_primary>  (15) 
energy

$$$$
15:0
     RDKit          3D

 50 52  0  0  0  0  0  0  0  0999 V2000
   55.3920   23.7160   44.1810 C   0  0  0  0  0  0  0  0  0  0  0  0
   54.6080   24.4790   45.2450 C   0  0  0  0  0  0  0  0  0  0  0  0
   55.5070   25.2710   46.0960 N   0  0  0  0  0  0  0  0  0  0  0  0
   56.2200   24.4220   47.0610 C   0  0  0  0  0  0  0  0  0  0  0  0
   57.5520   25.0620   47.4680 C   0  0  0  0  0  0  0  0  0  0  0  0
   57.9740   26.1270   46.5010 C   0  0  0  0  0  0  0  0  0  0  0  0
   58.3850   25.7980   45.3560 O   0  0  0  0  0  0  0  0  0  0  0  0
   57.8010   27.5060   46.8520 N   0  0  0  0  0  0  0  0  0  0  0  0
   57.7060   28.6160   45.9400 C   0  0  0  0  0  0  0  0  0  0  0  0
   57.0200   28.4760   44.7320 C   0  0  0  0  0  0  0  0  0  0  0  0
   57.0020   29.5230   43.8250 C   0  0  0  0  0  0  0  0  0  0  0  0
   57.5610   30.7670   44.1580 C   0  0  0  0  0  0  0  0  0  0  0  0
   57.5640   31.8500   43.2380 C   0  0  0  0  0  0  0  0  0  0  0  0
   57.0370   31.7350   41.8200 C   0  0  0  0  0  0  0  0  0  0  0  0
   57.7670   32.6940   40.8820 C   0  0  0  0  0  0  0  0  0  0  0  0
   58.1270   33.0710   43.6210 C   0  0  0  0  0  0  0  0  0  0  0  0
   58.5330   33.2910   44.9360 C   0  0  0  0  0  0  0  0  0  0  0  0
   58.9300   34.5810   45.3260 C   0  0  0  0  0  0  0  0  0  0  0  0
   59.1820   34.8650   46.6660 C   0  0  0  0  0  0  0  0  0  0  0  0
   59.0080   33.8750   47.6300 C   0  0  0  0  0  0  0  0  0  0  0  0
   58.6390   32.5810   47.2500 C   0  0  0  0  0  0  0  0  0  0  0  0
   58.4790   32.2390   45.8870 C   0  0  0  0  0  0  0  0  0  0  0  0
   58.1470   30.9180   45.4490 C   0  0  0  0  0  0  0  0  0  0  0  0
   58.3740   29.7840   46.2150 N   0  0  0  0  0  0  0  0  0  0  0  0
   59.4560   29.7120   47.2180 C   0  0  0  0  0  0  0  0  0  0  0  0
   56.0985   23.0284   44.6688 H   0  0  0  0  0  0  0  0  0  0  0  0
   54.6949   23.1412   43.5536 H   0  0  0  0  0  0  0  0  0  0  0  0
   55.9477   24.4285   43.5536 H   0  0  0  0  0  0  0  0  0  0  0  0
   53.8938   25.1538   44.7505 H   0  0  0  0  0  0  0  0  0  0  0  0
   54.0774   23.7520   45.8775 H   0  0  0  0  0  0  0  0  0  0  0  0
   56.2220   25.7020   45.4670 H   0  0  0  0  0  0  0  0  0  0  0  0
   55.5947   24.2900   47.9563 H   0  0  0  0  0  0  0  0  0  0  0  0
   56.4252   23.4490   46.5908 H   0  0  0  0  0  0  0  0  0  0  0  0
   57.4417   25.5105   48.4664 H   0  0  0  0  0  0  0  0  0  0  0  0
   58.3226   24.2771   47.4713 H   0  0  0  0  0  0  0  0  0  0  0  0
   56.4954   27.5371   44.5012 H   0  0  0  0  0  0  0  0  0  0  0  0
   56.5455   29.3783   42.8347 H   0  0  0  0  0  0  0  0  0  0  0  0
   57.1835   30.7042   41.4649 H   0  0  0  0  0  0  0  0  0  0  0  0
   55.9682   31.9952   41.8226 H   0  0  0  0  0  0  0  0  0  0  0  0
   58.3281   33.4311   41.4752 H   0  0  0  0  0  0  0  0  0  0  0  0
   58.4640   32.1268   40.2476 H   0  0  0  0  0  0  0  0  0  0  0  0
   57.0347   33.2148   40.2476 H   0  0  0  0  0  0  0  0  0  0  0  0
   58.2512   33.8690   42.8742 H   0  0  0  0  0  0  0  0  0  0  0  0
   59.0424   35.3710   44.5689 H   0  0  0  0  0  0  0  0  0  0  0  0
   59.5179   35.8696   46.9625 H   0  0  0  0  0  0  0  0  0  0  0  0
   59.1613   34.1117   48.6932 H   0  0  0  0  0  0  0  0  0  0  0  0
   58.4705   31.8170   48.0232 H   0  0  0  0  0  0  0  0  0  0  0  0
   59.0219   29.7409   48.2283 H   0  0  0  0  0  0  0  0  0  0  0  0
   60.0163   28.7746   47.0863 H   0  0  0  0  0  0  0  0  0  0  0  0
   60.1355   30.5669   47.0863 H   0  0  0  0  0  0  0  0  0  0  0  0
  1  2  1  0
  2  3  1  0
  3  4  1  0
  4  5  1  0
  5  6  1  0
  6  7  2  0
  6  8  1  0
  8  9  1  0
  9 10  2  0
 10 11  1  0
 11 12  2  0
 12 13  1  0
 13 14  1  0
 14 15  1  0
 13 16  2  0
 16 17  1  0
 17 18  2  0
 18 19  1  0
 19 20  2  0
 20 21  1  0
 21 22  2  0
 22 23  1  0
 23 24  2  0
 24 25  1  0
 24  9  1  0
 23 12  1  0
 22 17  1  0
  1 26  1  0
  1 27  1  0
  1 28  1  0
  2 29  1  0
  2 30  1  0
  3 31  1  0
  4 32  1  0
  4 33  1  0
  5 34  1  0
  5 35  1  0
 10 36  1  0
 11 37  1  0
 14 38  1  0
 14 39  1  0
 15 40  1  0
 15 41  1  0
 15 42  1  0
 16 43  1  0
 18 44  1  0
 19 45  1  0
 20 46  1  0
 21 47  1  0
 25 48  1  0
 25 49  1  0
 25 50  1  0
M  CHG  2   8  -1  24   1
M  END
>  <UniqueID>  (16) 
16

>  <SMILES>  (16) 
CCNCCC(=O)[N-]c1ccc2c(CC)cc3ccccc3c2[n+]1C

>  <Energy>  (16) 
77.26226976308067

>  <Genealogy>  (16) 
CCNCCC(=O)[N-]c1ccc2c(CC)cc3ccccc3c2[n+]1C (protonated)
CCNCCC(=O)[N-]c1ccc2c(CC)cc3ccccc3c2[n+]1C (3D coordinates assigned)
CCNCCC(=O)[N-]c1ccc2c(CC)cc3ccccc3c2[n+]1C (optimized conformer: 77.26226976308067 kcal/mol)

>  <smiles>  (16) 
CCNCCC(=O)Nc1ccc2c(CC)cc3ccccc3c2[n+]1C

>  <score_type>  (16) 
oracle

>  <origin>  (16) 
adg

>  <m_score__min__energy>  (16) 
-8.5600000000000005

>  <m_primary>  (16) 
energy

$$$$
16:0
     RDKit          3D

 81 84  0  0  0  0  0  0  0  0999 V2000
   60.8290   29.3190   51.7270 C   0  0  0  0  0  0  0  0  0  0  0  0
   61.2220   29.3450   53.2010 C   0  0  0  0  0  0  0  0  0  0  0  0
   62.7460   29.2850   53.3670 C   0  0  0  0  0  0  0  0  0  0  0  0
   63.4940   29.0080   52.0550 C   0  0  0  0  0  0  0  0  0  0  0  0
   64.5400   30.0030   51.7590 N   0  0  0  0  0  0  0  0  0  0  0  0
   64.3130   31.3120   51.4170 C   0  0  0  0  0  0  0  0  0  0  0  0
   65.4150   31.9650   50.8700 C   0  0  0  0  0  0  0  0  0  0  0  0
   66.7300   30.9170   50.8640 S   0  0  0  0  0  0  0  0  0  0  0  0
   65.8380   29.6630   51.5390 C   0  0  0  0  0  0  0  0  0  0  0  0
   66.3060   28.5140   51.7530 O   0  0  0  0  0  0  0  0  0  0  0  0
   65.3180   33.2390   50.0850 C   0  0  0  0  0  0  0  0  0  0  0  0
   64.5130   33.0510   48.7780 C   0  0  0  0  0  0  0  0  0  0  0  0
   63.3220   32.0610   48.8490 C   0  0  0  0  0  0  0  0  0  0  0  0
   62.4540   32.2690   50.0860 C   0  0  0  0  0  0  0  0  0  0  0  0
   61.1800   32.8460   49.9860 C   0  0  0  0  0  0  0  0  0  0  0  0
   60.6190   33.1350   48.7000 N   0  0  0  0  0  0  0  0  0  0  0  0
   61.2280   34.1470   47.8350 C   0  0  0  0  0  0  0  0  0  0  0  0
   60.2190   34.6740   46.8160 C   0  0  0  0  0  0  0  0  0  0  0  0
   59.1430   33.7640   46.7050 O   0  0  0  0  0  0  0  0  0  0  0  0
   58.2060   34.2160   45.7440 C   0  0  0  0  0  0  0  0  0  0  0  0
   56.9140   33.4090   45.8380 C   0  0  0  0  0  0  0  0  0  0  0  0
   57.2120   32.0440   45.6330 O   0  0  0  0  0  0  0  0  0  0  0  0
   57.7730   31.8680   44.3480 C   0  0  0  0  0  0  0  0  0  0  0  0
   58.1750   30.4030   44.1610 C   0  0  0  0  0  0  0  0  0  0  0  0
   57.0200   29.5690   43.5750 C   0  0  0  0  0  0  0  0  0  0  0  0
   57.4250   28.1840   43.2670 N   0  0  0  0  0  0  0  0  0  0  0  0
   57.7480   27.4120   44.4780 C   0  0  0  0  0  0  0  0  0  0  0  0
   59.2380   27.5080   44.8020 C   0  0  0  0  0  0  0  0  0  0  0  0
   60.4660   33.1670   51.1520 C   0  0  0  0  0  0  0  0  0  0  0  0
   59.1800   33.7420   51.0710 C   0  0  0  0  0  0  0  0  0  0  0  0
   58.4900   34.1030   52.2240 C   0  0  0  0  0  0  0  0  0  0  0  0
   59.0710   33.9110   53.4720 C   0  0  0  0  0  0  0  0  0  0  0  0
   60.3420   33.3480   53.5770 C   0  0  0  0  0  0  0  0  0  0  0  0
   61.0660   32.9490   52.4220 C   0  0  0  0  0  0  0  0  0  0  0  0
   62.3250   32.3830   52.5100 N   0  0  0  0  0  0  0  0  0  0  0  0
   63.0370   32.3930   53.8080 C   0  0  0  0  0  0  0  0  0  0  0  0
   62.9690   31.9500   51.3670 C   0  0  0  0  0  0  0  0  0  0  0  0
   59.7348   29.2466   51.6405 H   0  0  0  0  0  0  0  0  0  0  0  0
   61.1751   30.2420   51.2389 H   0  0  0  0  0  0  0  0  0  0  0  0
   61.2937   28.4496   51.2389 H   0  0  0  0  0  0  0  0  0  0  0  0
   60.8472   30.2735   53.6565 H   0  0  0  0  0  0  0  0  0  0  0  0
   60.7816   28.4667   53.6957 H   0  0  0  0  0  0  0  0  0  0  0  0
   63.0909   30.2496   53.7676 H   0  0  0  0  0  0  0  0  0  0  0  0
   62.9649   28.4488   54.0473 H   0  0  0  0  0  0  0  0  0  0  0  0
   63.9650   28.0164   52.1243 H   0  0  0  0  0  0  0  0  0  0  0  0
   62.7553   29.0601   51.2416 H   0  0  0  0  0  0  0  0  0  0  0  0
   64.8199   34.0005   50.7031 H   0  0  0  0  0  0  0  0  0  0  0  0
   66.3375   33.5519   49.8155 H   0  0  0  0  0  0  0  0  0  0  0  0
   64.1165   34.0337   48.4828 H   0  0  0  0  0  0  0  0  0  0  0  0
   65.2185   32.6144   48.0557 H   0  0  0  0  0  0  0  0  0  0  0  0
   62.6972   32.1979   47.9541 H   0  0  0  0  0  0  0  0  0  0  0  0
   63.7388   31.0445   48.9037 H   0  0  0  0  0  0  0  0  0  0  0  0
   59.8580   32.5130   48.3420 H   0  0  0  0  0  0  0  0  0  0  0  0
   61.5838   34.9832   48.4548 H   0  0  0  0  0  0  0  0  0  0  0  0
   62.0665   33.6861   47.2923 H   0  0  0  0  0  0  0  0  0  0  0  0
   59.8396   35.6518   47.1475 H   0  0  0  0  0  0  0  0  0  0  0  0
   60.7091   34.7837   45.8374 H   0  0  0  0  0  0  0  0  0  0  0  0
   57.9839   35.2778   45.9262 H   0  0  0  0  0  0  0  0  0  0  0  0
   58.6350   34.0858   44.7395 H   0  0  0  0  0  0  0  0  0  0  0  0
   56.4659   33.5438   46.8335 H   0  0  0  0  0  0  0  0  0  0  0  0
   56.2022   33.7542   45.0737 H   0  0  0  0  0  0  0  0  0  0  0  0
   57.0320   32.1450   43.5837 H   0  0  0  0  0  0  0  0  0  0  0  0
   58.6624   32.5073   44.2464 H   0  0  0  0  0  0  0  0  0  0  0  0
   59.0346   30.3532   43.4764 H   0  0  0  0  0  0  0  0  0  0  0  0
   58.4335   29.9884   45.1465 H   0  0  0  0  0  0  0  0  0  0  0  0
   56.1978   29.5423   44.3053 H   0  0  0  0  0  0  0  0  0  0  0  0
   56.7080   30.0441   42.6332 H   0  0  0  0  0  0  0  0  0  0  0  0
   56.6650   27.7040   42.7300 H   0  0  0  0  0  0  0  0  0  0  0  0
   58.2770   28.2300   42.6590 H   0  0  0  0  0  0  0  0  0  0  0  0
   57.1687   27.8097   45.3243 H   0  0  0  0  0  0  0  0  0  0  0  0
   57.4931   26.3566   44.3014 H   0  0  0  0  0  0  0  0  0  0  0  0
   59.3761   27.5169   45.8933 H   0  0  0  0  0  0  0  0  0  0  0  0
   59.7631   26.6418   44.3730 H   0  0  0  0  0  0  0  0  0  0  0  0
   59.6476   28.4344   44.3730 H   0  0  0  0  0  0  0  0  0  0  0  0
   58.7183   33.9065   50.0862 H   0  0  0  0  0  0  0  0  0  0  0  0
   57.4837   34.5408   52.1478 H   0  0  0  0  0  0  0  0  0  0  0  0
   58.5254   34.2046   54.3809 H   0  0  0  0  0  0  0  0  0  0  0  0
   60.7919   33.2104   54.5713 H   0  0  0  0  0  0  0  0  0  0  0  0
   62.3042   32.3827   54.6283 H   0  0  0  0  0  0  0  0  0  0  0  0
   63.6805   31.5038   53.8801 H   0  0  0  0  0  0  0  0  0  0  0  0
   63.6553   33.2999   53.8801 H   0  0  0  0  0  0  0  0  0  0  0  0
  1  2  1  0
  2  3  1  0
  3  4  1  0
  4  5  1  0
  5  6  1  0
  6  7  2  0
  7  8  1  0
  8  9  1  0
  9 10  2  0
  7 11  1  0
 11 12  1  0
 12 13  1  0
 13 14  1  0
 14 15  2  0
 15 16  1  0
 16 17  1  0
 17 18  1  0
 18 19  1  0
 19 20  1  0
 20 21  1  0
 21 22  1  0
 22 23  1  0
 23 24  1  0
 24 25  1  0
 25 26  1  0
 26 27  1  0
 27 28  1  0
 15 29  1  0
 29 30  2  0
 30 31  1  0
 31 32  2  0
 32 33  1  0
 33 34  2  0
 34 35  1  0
 35 36  1  0
 35 37  2  0
  9  5  1  0
 37 14  1  0
 37  6  1  0
 34 29  1  0
  1 38  1  0
  1 39  1  0
  1 40  1  0
  2 41  1  0
  2 42  1  0
  3 43  1  0
  3 44  1  0
  4 45  1  0
  4 46  1  0
 11 47  1  0
 11 48  1  0
 12 49  1  0
 12 50  1  0
 13 51  1  0
 13 52  1  0
 16 53  1  0
 17 54  1  0
 17 55  1  0
 18 56  1  0
 18 57  1  0
 20 58  1  0
 20 59  1  0
 21 60  1  0
 21 61  1  0
 23 62  1  0
 23 63  1  0
 24 64  1  0
 24 65  1  0
 25 66  1  0
 25 67  1  0
 26 68  1  0
 26 69  1  0
 27 70  1  0
 27 71  1  0
 28 72  1  0
 28 73  1  0
 28 74  1  0
 30 75  1  0
 31 76  1  0
 32 77  1  0
 33 78  1  0
 36 79  1  0
 36 80  1  0
 36 81  1  0
M  CHG  2  26   1  35   1
M  END
>  <UniqueID>  (17) 
17

>  <SMILES>  (17) 
CCCCn1c2c(sc1=O)CCCc1c(NCCOCCOCCC[NH2+]CC)c3ccccc3[n+](C)c1-2

>  <Energy>  (17) 
136.8569969698132

>  <Genealogy>  (17) 
CCCCn1c2c(sc1=O)CCCc1c(NCCOCCOCCC[NH2+]CC)c3ccccc3[n+](C)c1-2 (protonated)
CCCCn1c2c(sc1=O)CCCc1c(NCCOCCOCCC[NH2+]CC)c3ccccc3[n+](C)c1-2 (3D coordinates assigned)
CCCCn1c2c(sc1=O)CCCc1c(NCCOCCOCCC[NH2+]CC)c3ccccc3[n+](C)c1-2 (nonaromatic ring conformer: 136.8569969698132 kcal/mol)

>  <smiles>  (17) 
CCCCn1c2c(sc1=O)CCCc1c(NCCOCCOCCCNCC)c3ccccc3[n+](C)c1-2

>  <score_type>  (17) 
oracle

>  <origin>  (17) 
adg

>  <m_score__min__energy>  (17) 
-4.3099999999999996

>  <m_primary>  (17) 
energy

$$$$
17:0
     RDKit          3D

 53 55  0  0  0  0  0  0  0  0999 V2000
   56.6130   22.4500   42.9900 C   0  0  0  0  0  0  0  0  0  0  0  0
   56.1050   23.7370   43.6430 C   0  0  0  0  0  0  0  0  0  0  0  0
   57.0380   24.2530   44.7490 C   0  0  0  0  0  0  0  0  0  0  0  0
   56.3940   25.3510   45.6030 C   0  0  0  0  0  0  0  0  0  0  0  0
   57.1270   26.6100   45.4090 N   0  0  0  0  0  0  0  0  0  0  0  0
   58.5060   26.3830   44.9470 C   0  0  0  0  0  0  0  0  0  0  0  0
   59.4970   26.3730   46.1230 C   0  0  0  0  0  0  0  0  0  0  0  0
   60.0090   27.7820   46.4620 C   0  0  0  0  0  0  0  0  0  0  0  0
   58.8960   28.6710   46.8390 N   0  0  0  0  0  0  0  0  0  0  0  0
   59.0820   29.9980   46.2750 C   0  0  0  0  0  0  0  0  0  0  0  0
   58.3660   30.3960   45.1160 C   0  0  0  0  0  0  0  0  0  0  0  0
   57.5850   29.4750   44.3710 C   0  0  0  0  0  0  0  0  0  0  0  0
   56.9200   29.8700   43.2130 C   0  0  0  0  0  0  0  0  0  0  0  0
   57.0220   31.1770   42.7620 C   0  0  0  0  0  0  0  0  0  0  0  0
   57.7780   32.1050   43.4740 C   0  0  0  0  0  0  0  0  0  0  0  0
   58.4420   31.7470   44.6760 C   0  0  0  0  0  0  0  0  0  0  0  0
   59.1580   32.6730   45.4050 N   0  0  0  0  0  0  0  0  0  0  0  0
   58.9650   34.1190   45.1510 C   0  0  0  0  0  0  0  0  0  0  0  0
   60.0490   32.2510   46.3700 C   0  0  0  0  0  0  0  0  0  0  0  0
   61.0240   33.1320   46.9060 C   0  0  0  0  0  0  0  0  0  0  0  0
   61.9050   32.7130   47.9010 C   0  0  0  0  0  0  0  0  0  0  0  0
   63.1020   33.8270   48.5400 Cl  0  0  0  0  0  0  0  0  0  0  0  0
   61.8520   31.4090   48.3720 C   0  0  0  0  0  0  0  0  0  0  0  0
   60.9280   30.5100   47.8460 C   0  0  0  0  0  0  0  0  0  0  0  0
   60.0150   30.9080   46.8380 C   0  0  0  0  0  0  0  0  0  0  0  0
   56.8973   21.7298   43.7714 H   0  0  0  0  0  0  0  0  0  0  0  0
   55.8181   22.0177   42.3646 H   0  0  0  0  0  0  0  0  0  0  0  0
   57.4889   22.6772   42.3646 H   0  0  0  0  0  0  0  0  0  0  0  0
   56.0162   24.5127   42.8681 H   0  0  0  0  0  0  0  0  0  0  0  0
   55.1341   23.5110   44.1081 H   0  0  0  0  0  0  0  0  0  0  0  0
   57.3071   23.4108   45.4034 H   0  0  0  0  0  0  0  0  0  0  0  0
   57.9224   24.6882   44.2608 H   0  0  0  0  0  0  0  0  0  0  0  0
   55.3455   25.4856   45.2988 H   0  0  0  0  0  0  0  0  0  0  0  0
   56.4317   25.0624   46.6638 H   0  0  0  0  0  0  0  0  0  0  0  0
   56.6270   27.1600   44.6710 H   0  0  0  0  0  0  0  0  0  0  0  0
   58.5551   25.4137   44.4293 H   0  0  0  0  0  0  0  0  0  0  0  0
   58.7830   27.2026   44.2677 H   0  0  0  0  0  0  0  0  0  0  0  0
   58.9929   25.9568   47.0077 H   0  0  0  0  0  0  0  0  0  0  0  0
   60.3624   25.7603   45.8305 H   0  0  0  0  0  0  0  0  0  0  0  0
   60.7166   27.7154   47.3016 H   0  0  0  0  0  0  0  0  0  0  0  0
   60.5048   28.1984   45.5727 H   0  0  0  0  0  0  0  0  0  0  0  0
   57.9800   28.2790   46.5240 H   0  0  0  0  0  0  0  0  0  0  0  0
   58.7990   28.7080   47.8790 H   0  0  0  0  0  0  0  0  0  0  0  0
   57.5036   28.4328   44.7134 H   0  0  0  0  0  0  0  0  0  0  0  0
   56.3121   29.1430   42.6546 H   0  0  0  0  0  0  0  0  0  0  0  0
   56.5049   31.4816   41.8401 H   0  0  0  0  0  0  0  0  0  0  0  0
   57.8620   33.1351   43.0974 H   0  0  0  0  0  0  0  0  0  0  0  0
   58.8937   34.6534   46.1098 H   0  0  0  0  0  0  0  0  0  0  0  0
   59.8192   34.5077   44.5772 H   0  0  0  0  0  0  0  0  0  0  0  0
   58.0387   34.2701   44.5772 H   0  0  0  0  0  0  0  0  0  0  0  0
   61.0853   34.1637   46.5294 H   0  0  0  0  0  0  0  0  0  0  0  0
   62.5427   31.0841   49.1641 H   0  0  0  0  0  0  0  0  0  0  0  0
   60.9064   29.4752   48.2185 H   0  0  0  0  0  0  0  0  0  0  0  0
  1  2  1  0
  2  3  1  0
  3  4  1  0
  4  5  1  0
  5  6  1  0
  6  7  1  0
  7  8  1  0
  8  9  1  0
  9 10  1  0
 10 11  2  0
 11 12  1  0
 12 13  2  0
 13 14  1  0
 14 15  2  0
 15 16  1  0
 16 17  2  0
 17 18  1  0
 17 19  1  0
 19 20  2  0
 20 21  1  0
 21 22  1  0
 21 23  2  0
 23 24  1  0
 24 25  2  0
 25 10  1  0
 16 11  1  0
 25 19  1  0
  1 26  1  0
  1 27  1  0
  1 28  1  0
  2 29  1  0
  2 30  1  0
  3 31  1  0
  3 32  1  0
  4 33  1  0
  4 34  1  0
  5 35  1  0
  6 36  1  0
  6 37  1  0
  7 38  1  0
  7 39  1  0
  8 40  1  0
  8 41  1  0
  9 42  1  0
  9 43  1  0
 12 44  1  0
 13 45  1  0
 14 46  1  0
 15 47  1  0
 18 48  1  0
 18 49  1  0
 18 50  1  0
 20 51  1  0
 23 52  1  0
 24 53  1  0
M  CHG  2   9   1  17   1
M  END
>  <UniqueID>  (18) 
18

>  <SMILES>  (18) 
CCCCNCCC[NH2+]c1c2ccccc2[n+](C)c2cc(Cl)ccc12

>  <Energy>  (18) 
71.2104511601674

>  <Genealogy>  (18) 
CCCCNCCC[NH2+]c1c2ccccc2[n+](C)c2cc(Cl)ccc12 (protonated)
CCCCNCCC[NH2+]c1c2ccccc2[n+](C)c2cc(Cl)ccc12 (3D coordinates assigned)
CCCCNCCC[NH2+]c1c2ccccc2[n+](C)c2cc(Cl)ccc12 (optimized conformer: 71.2104511601674 kcal/mol)

>  <smiles>  (18) 
CCCCNCCCNc1c2ccccc2[n+](C)c2cc(Cl)ccc12

>  <score_type>  (18) 
oracle

>  <origin>  (18) 
adg

>  <m_score__min__energy>  (18) 
-4.3399999999999999

>  <m_primary>  (18) 
energy

$$$$
18:0
     RDKit          3D

 42 43  0  0  0  0  0  0  0  0999 V2000
   58.4320   22.0120   44.7140 C   0  0  0  0  0  0  0  0  0  0  0  0
   57.5660   21.5800   45.8870 C   0  0  0  0  0  0  0  0  0  0  0  0
   57.5340   22.6200   46.8620 O   0  0  0  0  0  0  0  0  0  0  0  0
   57.3790   23.9830   46.5660 C   0  0  0  0  0  0  0  0  0  0  0  0
   56.1180   24.4320   46.1670 C   0  0  0  0  0  0  0  0  0  0  0  0
   55.9050   25.7760   45.8600 C   0  0  0  0  0  0  0  0  0  0  0  0
   56.9600   26.7030   45.9460 C   0  0  0  0  0  0  0  0  0  0  0  0
   58.2420   26.2610   46.3480 C   0  0  0  0  0  0  0  0  0  0  0  0
   58.4420   24.9010   46.6560 C   0  0  0  0  0  0  0  0  0  0  0  0
   59.2650   27.1630   46.4380 N   0  0  0  0  0  0  0  0  0  0  0  0
   60.5150   26.7500   46.8520 O   0  0  0  0  0  0  0  0  0  0  0  0
   59.0680   28.4790   46.1290 C   0  0  0  0  0  0  0  0  0  0  0  0
   60.1490   29.4240   46.3000 C   0  0  0  0  0  0  0  0  0  0  0  0
   61.0140   30.1790   46.4370 N   0  0  0  0  0  0  0  0  0  0  0  0
   57.7990   28.9120   45.7000 C   0  0  0  0  0  0  0  0  0  0  0  0
   57.5710   30.2850   45.3350 N   0  0  0  0  0  0  0  0  0  0  0  0
   58.2600   30.8990   44.2000 C   0  0  0  0  0  0  0  0  0  0  0  0
   58.1470   32.4280   44.2550 C   0  0  0  0  0  0  0  0  0  0  0  0
   57.3780   32.8760   45.4370 N   0  0  0  0  0  0  0  0  0  0  0  0
   56.8050   34.2180   45.2260 C   0  0  0  0  0  0  0  0  0  0  0  0
   58.2420   32.8940   46.6260 C   0  0  0  0  0  0  0  0  0  0  0  0
   56.7680   28.0210   45.6430 N   0  0  0  0  0  0  0  0  0  0  0  0
   55.5230   28.4620   45.2460 O   0  0  0  0  0  0  0  0  0  0  0  0
   59.3567   22.4733   45.0912 H   0  0  0  0  0  0  0  0  0  0  0  0
   58.6838   21.1339   44.1012 H   0  0  0  0  0  0  0  0  0  0  0  0
   57.8820   22.7413   44.1012 H   0  0  0  0  0  0  0  0  0  0  0  0
   56.5443   21.3772   45.5335 H   0  0  0  0  0  0  0  0  0  0  0  0
   57.9859   20.6682   46.3368 H   0  0  0  0  0  0  0  0  0  0  0  0
   55.2841   23.7183   46.0941 H   0  0  0  0  0  0  0  0  0  0  0  0
   54.9054   26.1134   45.5486 H   0  0  0  0  0  0  0  0  0  0  0  0
   59.4375   24.5536   46.9695 H   0  0  0  0  0  0  0  0  0  0  0  0
   56.6690   30.7230   45.6300 H   0  0  0  0  0  0  0  0  0  0  0  0
   59.3223   30.6149   44.2267 H   0  0  0  0  0  0  0  0  0  0  0  0
   57.7915   30.5445   43.2700 H   0  0  0  0  0  0  0  0  0  0  0  0
   59.1579   32.8590   44.3027 H   0  0  0  0  0  0  0  0  0  0  0  0
   57.6175   32.7662   43.3521 H   0  0  0  0  0  0  0  0  0  0  0  0
   56.6042   34.6882   46.1999 H   0  0  0  0  0  0  0  0  0  0  0  0
   57.5176   34.8362   44.6603 H   0  0  0  0  0  0  0  0  0  0  0  0
   55.8656   34.1308   44.6603 H   0  0  0  0  0  0  0  0  0  0  0  0
   57.6188   32.8810   47.5323 H   0  0  0  0  0  0  0  0  0  0  0  0
   58.8956   32.0093   46.6177 H   0  0  0  0  0  0  0  0  0  0  0  0
   58.8582   33.8052   46.6177 H   0  0  0  0  0  0  0  0  0  0  0  0
  1  2  1  0
  2  3  1  0
  3  4  1  0
  4  5  2  0
  5  6  1  0
  6  7  2  0
  7  8  1  0
  8  9  2  0
  8 10  1  0
 10 11  1  0
 10 12  2  0
 12 13  1  0
 13 14  3  0
 12 15  1  0
 15 16  1  0
 16 17  1  0
 17 18  1  0
 18 19  1  0
 19 20  1  0
 19 21  1  0
 15 22  2  0
 22 23  1  0
  9  4  1  0
 22  7  1  0
  1 24  1  0
  1 25  1  0
  1 26  1  0
  2 27  1  0
  2 28  1  0
  5 29  1  0
  6 30  1  0
  9 31  1  0
 16 32  1  0
 17 33  1  0
 17 34  1  0
 18 35  1  0
 18 36  1  0
 20 37  1  0
 20 38  1  0
 20 39  1  0
 21 40  1  0
 21 41  1  0
 21 42  1  0
M  CHG  4  10   1  11  -1  22   1  23  -1
M  END
>  <UniqueID>  (19) 
19

>  <SMILES>  (19) 
CCOc1ccc2c(c1)[n+]([O-])c(C#N)c(NCCN(C)C)[n+]2[O-]

>  <Energy>  (19) 
47.469508827734685

>  <Genealogy>  (19) 
CCOc1ccc2c(c1)[n+]([O-])c(C#N)c(NCCN(C)C)[n+]2[O-] (3D coordinates assigned)
CCOc1ccc2c(c1)[n+]([O-])c(C#N)c(NCCN(C)C)[n+]2[O-] (optimized conformer: 47.469508827734685 kcal/mol)

>  <smiles>  (19) 
CCOc1ccc2c(c1)[n+]([O-])c(C#N)c(NCCN(C)C)[n+]2[O-]

>  <score_type>  (19) 
oracle

>  <origin>  (19) 
adg

>  <m_score__min__energy>  (19) 
-6.6299999999999999

>  <m_primary>  (19) 
energy

$$$$
19:0
     RDKit          3D

108107  0  0  0  0  0  0  0  0999 V2000
   58.9030   29.1580   47.7110 C   0  0  0  0  0  0  0  0  0  0  0  0
   60.0020   29.7330   46.8180 C   0  0  0  0  0  0  0  0  0  0  0  0
   59.5770   29.8300   45.3440 C   0  0  0  0  0  0  0  0  0  0  0  0
   58.1150   30.2870   45.1820 C   0  0  0  0  0  0  0  0  0  0  0  0
   57.9630   31.4800   44.2230 C   0  0  0  0  0  0  0  0  0  0  0  0
   57.4080   32.7340   44.9200 C   0  0  0  0  0  0  0  0  0  0  0  0
   58.1680   33.0890   46.2100 C   0  0  0  0  0  0  0  0  0  0  0  0
   58.5210   34.5790   46.3740 C   0  0  0  0  0  0  0  0  0  0  0  0
   60.0370   34.8440   46.3220 C   0  0  0  0  0  0  0  0  0  0  0  0
   60.8650   33.5480   46.3600 C   0  0  0  0  0  0  0  0  0  0  0  0
   62.3770   33.8110   46.4070 C   0  0  0  0  0  0  0  0  0  0  0  0
   63.0880   32.7730   47.2910 C   0  0  0  0  0  0  0  0  0  0  0  0
   64.1270   33.4070   48.2300 C   0  0  0  0  0  0  0  0  0  0  0  0
   64.6000   32.4450   49.3330 C   0  0  0  0  0  0  0  0  0  0  0  0
   64.2620   32.9680   50.7460 C   0  0  0  0  0  0  0  0  0  0  0  0
   63.3370   34.1980   50.7430 C   0  0  0  0  0  0  0  0  0  0  0  0
   61.8480   33.8280   50.8610 C   0  0  0  0  0  0  0  0  0  0  0  0
   61.0480   34.1940   49.6010 C   0  0  0  0  0  0  0  0  0  0  0  0
   59.6590   33.5330   49.5730 C   0  0  0  0  0  0  0  0  0  0  0  0
   59.7460   32.0370   49.2680 C   0  0  0  0  0  0  0  0  0  0  0  0
   58.9430   31.3230   50.1860 O   0  0  0  0  0  0  0  0  0  0  0  0
   57.7580   32.0290   50.5080 C   0  0  0  0  0  0  0  0  0  0  0  0
   57.5260   32.0950   52.0440 C   0  0  2  0  0  0  0  0  0  0  0  0
   58.1270   33.3920   52.6410 C   0  0  0  0  0  0  0  0  0  0  0  0
   59.4550   33.1750   53.2410 N   0  0  0  0  0  0  0  0  0  0  0  0
   59.7750   34.2540   54.1870 C   0  0  0  0  0  0  0  0  0  0  0  0
   61.2370   34.1780   54.6260 C   0  0  0  0  0  0  0  0  0  0  0  0
   58.1040   30.9210   52.7440 N   0  0  0  0  0  0  0  0  0  0  0  0
   57.2470   29.7260   52.6940 C   0  0  0  0  0  0  0  0  0  0  0  0
   57.8770   28.5610   53.4690 C   0  0  0  0  0  0  0  0  0  0  0  0
   59.3470   28.3630   53.0900 C   0  0  0  0  0  0  0  0  0  0  0  0
   59.5450   28.7090   51.6720 N   0  0  0  0  0  0  0  0  0  0  0  0
   60.8780   28.3420   51.1680 C   0  0  0  0  0  0  0  0  0  0  0  0
   61.3510   29.3180   50.0820 C   0  0  0  0  0  0  0  0  0  0  0  0
   62.2580   30.4070   50.6650 C   0  0  0  0  0  0  0  0  0  0  0  0
   61.9940   30.5960   52.1630 C   0  0  0  0  0  0  0  0  0  0  0  0
   60.6250   31.0530   52.3800 N   0  0  0  0  0  0  0  0  0  0  0  0
   59.1763   29.3010   48.7669 H   0  0  0  0  0  0  0  0  0  0  0  0
   57.9545   29.6754   47.5044 H   0  0  0  0  0  0  0  0  0  0  0  0
   58.7872   28.0838   47.5044 H   0  0  0  0  0  0  0  0  0  0  0  0
   60.2570   30.7407   47.1780 H   0  0  0  0  0  0  0  0  0  0  0  0
   60.8644   29.0522   46.8715 H   0  0  0  0  0  0  0  0  0  0  0  0
   60.2313   30.5529   44.8348 H   0  0  0  0  0  0  0  0  0  0  0  0
   59.6647   28.8259   44.9034 H   0  0  0  0  0  0  0  0  0  0  0  0
   57.5254   29.4448   44.7906 H   0  0  0  0  0  0  0  0  0  0  0  0
   57.7593   30.6114   46.1710 H   0  0  0  0  0  0  0  0  0  0  0  0
   58.9498   31.7198   43.8003 H   0  0  0  0  0  0  0  0  0  0  0  0
   57.2458   31.1891   43.4413 H   0  0  0  0  0  0  0  0  0  0  0  0
   57.4812   33.5832   44.2247 H   0  0  0  0  0  0  0  0  0  0  0  0
   56.3654   32.5218   45.1993 H   0  0  0  0  0  0  0  0  0  0  0  0
   57.5441   32.7909   47.0655 H   0  0  0  0  0  0  0  0  0  0  0  0
   59.1267   32.5522   46.1571 H   0  0  0  0  0  0  0  0  0  0  0  0
   58.0375   35.1456   45.5645 H   0  0  0  0  0  0  0  0  0  0  0  0
   58.1639   34.8961   47.3649 H   0  0  0  0  0  0  0  0  0  0  0  0
   60.2688   35.3832   45.3917 H   0  0  0  0  0  0  0  0  0  0  0  0
   60.3028   35.4357   47.2104 H   0  0  0  0  0  0  0  0  0  0  0  0
   60.5798   32.9744   47.2542 H   0  0  0  0  0  0  0  0  0  0  0  0
   60.6535   32.9918   45.4349 H   0  0  0  0  0  0  0  0  0  0  0  0
   62.7842   33.7543   45.3867 H   0  0  0  0  0  0  0  0  0  0  0  0
   62.5464   34.8106   46.8337 H   0  0  0  0  0  0  0  0  0  0  0  0
   62.3336   32.2534   47.9001 H   0  0  0  0  0  0  0  0  0  0  0  0
   63.6213   32.0785   46.6252 H   0  0  0  0  0  0  0  0  0  0  0  0
   64.9989   33.7135   47.6335 H   0  0  0  0  0  0  0  0  0  0  0  0
   63.6473   34.2654   48.7230 H   0  0  0  0  0  0  0  0  0  0  0  0
   64.1090   31.4713   49.1886 H   0  0  0  0  0  0  0  0  0  0  0  0
   65.6938   32.3562   49.2580 H   0  0  0  0  0  0  0  0  0  0  0  0
   63.7661   32.1614   51.3059 H   0  0  0  0  0  0  0  0  0  0  0  0
   65.2097   33.2783   51.2102 H   0  0  0  0  0  0  0  0  0  0  0  0
   63.6070   34.8422   51.5928 H   0  0  0  0  0  0  0  0  0  0  0  0
   63.4741   34.7117   49.7800 H   0  0  0  0  0  0  0  0  0  0  0  0
   61.7663   32.7438   51.0280 H   0  0  0  0  0  0  0  0  0  0  0  0
   61.4275   34.4000   51.7013 H   0  0  0  0  0  0  0  0  0  0  0  0
   60.9198   35.2860   49.5692 H   0  0  0  0  0  0  0  0  0  0  0  0
   61.6104   33.8276   48.7295 H   0  0  0  0  0  0  0  0  0  0  0  0
   59.1806   33.6688   50.5542 H   0  0  0  0  0  0  0  0  0  0  0  0
   59.0702   34.0100   48.7756 H   0  0  0  0  0  0  0  0  0  0  0  0
   59.3885   31.8497   48.2447 H   0  0  0  0  0  0  0  0  0  0  0  0
   60.7906   31.7041   49.3573 H   0  0  0  0  0  0  0  0  0  0  0  0
   57.8357   33.0535   50.1151 H   0  0  0  0  0  0  0  0  0  0  0  0
   56.9084   31.4962   50.0559 H   0  0  0  0  0  0  0  0  0  0  0  0
   56.4368   32.0906   52.1978 H   0  0  0  0  0  0  0  0  0  0  0  0
   58.2202   34.1392   51.8391 H   0  0  0  0  0  0  0  0  0  0  0  0
   57.4524   33.7364   53.4387 H   0  0  0  0  0  0  0  0  0  0  0  0
   59.4630   32.2630   53.7570 H   0  0  0  0  0  0  0  0  0  0  0  0
   60.1820   33.1560   52.4880 H   0  0  0  0  0  0  0  0  0  0  0  0
   59.5947   35.2243   53.7011 H   0  0  0  0  0  0  0  0  0  0  0  0
   59.1351   34.1444   55.0750 H   0  0  0  0  0  0  0  0  0  0  0  0
   61.2903   34.1752   55.7247 H   0  0  0  0  0  0  0  0  0  0  0  0
   61.6899   33.2551   54.2346 H   0  0  0  0  0  0  0  0  0  0  0  0
   61.7831   35.0490   54.2346 H   0  0  0  0  0  0  0  0  0  0  0  0
   59.0360   30.6590   52.3460 H   0  0  0  0  0  0  0  0  0  0  0  0
   56.2697   29.9661   53.1381 H   0  0  0  0  0  0  0  0  0  0  0  0
   57.1304   29.4236   51.6428 H   0  0  0  0  0  0  0  0  0  0  0  0
   57.8112   28.7718   54.5466 H   0  0  0  0  0  0  0  0  0  0  0  0
   57.3289   27.6418   53.2150 H   0  0  0  0  0  0  0  0  0  0  0  0
   59.9767   29.0122   53.7162 H   0  0  0  0  0  0  0  0  0  0  0  0
   59.6262   27.3112   53.2508 H   0  0  0  0  0  0  0  0  0  0  0  0
   59.4530   29.7480   51.5740 H   0  0  0  0  0  0  0  0  0  0  0  0
   61.5942   28.3599   52.0027 H   0  0  0  0  0  0  0  0  0  0  0  0
   60.8183   27.3354   50.7284 H   0  0  0  0  0  0  0  0  0  0  0  0
   61.9096   28.7588   49.3170 H   0  0  0  0  0  0  0  0  0  0  0  0
   60.4664   29.8027   49.6433 H   0  0  0  0  0  0  0  0  0  0  0  0
   63.3089   30.1168   50.5185 H   0  0  0  0  0  0  0  0  0  0  0  0
   62.0451   31.3547   50.1487 H   0  0  0  0  0  0  0  0  0  0  0  0
   62.1437   29.6378   52.6820 H   0  0  0  0  0  0  0  0  0  0  0  0
   62.6908   31.3500   52.5578 H   0  0  0  0  0  0  0  0  0  0  0  0
   60.0930   30.9280   51.4880 H   0  0  0  0  0  0  0  0  0  0  0  0
   60.1850   30.4140   53.0800 H   0  0  0  0  0  0  0  0  0  0  0  0
  1  2  1  0
  2  3  1  0
  3  4  1  0
  4  5  1  0
  5  6  1  0
  6  7  1  0
  7  8  1  0
  8  9  1  0
  9 10  1  0
 10 11  1  0
 11 12  1  0
 12 13  1  0
 13 14  1  0
 14 15  1  0
 15 16  1  0
 16 17  1  0
 17 18  1  0
 18 19  1  0
 19 20  1  0
 20 21  1  0
 21 22  1  0
 22 23  1  0
 23 24  1  0
 24 25  1  0
 25 26  1  0
 26 27  1  0
 23 28  1  0
 28 29  1  0
 29 30  1  0
 30 31  1  0
 31 32  1  0
 32 33  1  0
 33 34  1  0
 34 35  1  0
 35 36  1  0
 36 37  1  0
  1 38  1  0
  1 39  1  0
  1 40  1  0
  2 41  1  0
  2 42  1  0
  3 43  1  0
  3 44  1  0
  4 45  1  0
  4 46  1  0
  5 47  1  0
  5 48  1  0
  6 49  1  0
  6 50  1  0
  7 51  1  0
  7 52  1  0
  8 53  1  0
  8 54  1  0
  9 55  1  0
  9 56  1  0
 10 57  1  0
 10 58  1  0
 11 59  1  0
 11 60  1  0
 12 61  1  0
 12 62  1  0
 13 63  1  0
 13 64  1  0
 14 65  1  0
 14 66  1  0
 15 67  1  0
 15 68  1  0
 16 69  1  0
 16 70  1  0
 17 71  1  0
 17 72  1  0
 18 73  1  0
 18 74  1  0
 19 75  1  0
 19 76  1  0
 20 77  1  0
 20 78  1  0
 22 79  1  0
 22 80  1  0
 23 81  1  6
 24 82  1  0
 24 83  1  0
 25 84  1  0
 25 85  1  0
 26 86  1  0
 26 87  1  0
 27 88  1  0
 27 89  1  0
 27 90  1  0
 28 91  1  0
 29 92  1  0
 29 93  1  0
 30 94  1  0
 30 95  1  0
 31 96  1  0
 31 97  1  0
 32 98  1  0
 33 99  1  0
 33100  1  0
 34101  1  0
 34102  1  0
 35103  1  0
 35104  1  0
 36105  1  0
 36106  1  0
 37107  1  0
 37108  1  0
M  CHG  1  25   1
M  END
>  <UniqueID>  (20) 
20

>  <SMILES>  (20) 
CCCCCCCCCCCCCCCCCCCCOC[C@H](C[NH2+]CC)NCCCNCCCCN

>  <Energy>  (20) 
63.081488064528095

>  <Genealogy>  (20) 
CCCCCCCCCCCCCCCCCCCCOCC(C[NH2+]CC)NCCCNCCCCN (protonated)
CCCCCCCCCCCCCCCCCCCCOC[C@H](C[NH2+]CC)NCCCNCCCCN (chirality)
CCCCCCCCCCCCCCCCCCCCOC[C@H](C[NH2+]CC)NCCCNCCCCN (3D coordinates assigned)
CCCCCCCCCCCCCCCCCCCCOC[C@H](C[NH2+]CC)NCCCNCCCCN (optimized conformer: 63.081488064528095 kcal/mol)

>  <smiles>  (20) 
CCCCCCCCCCCCCCCCCCCCOCC(CNCC)NCCCNCCCCN

>  <score_type>  (20) 
oracle

>  <origin>  (20) 
adg

>  <m_score__min__energy>  (20) 
-2.2999999999999998

>  <m_primary>  (20) 
energy

$$$$
20:0
     RDKit          3D

 61 63  0  0  0  0  0  0  0  0999 V2000
   56.3390   30.2090   44.0760 C   0  0  0  0  0  0  0  0  0  0  0  0
   57.3900   31.1950   43.5750 C   0  0  0  0  0  0  0  0  0  0  0  0
   57.4640   32.4390   44.4870 C   0  0  0  0  0  0  0  0  0  0  0  0
   57.7310   32.1230   45.9110 N   0  0  0  0  0  0  0  0  0  0  0  0
   59.0720   31.5270   46.1360 C   0  0  0  0  0  0  0  0  0  0  0  0
   58.9690   30.3230   47.0810 C   0  0  0  0  0  0  0  0  0  0  0  0
   60.3260   29.6670   47.3280 C   0  0  0  0  0  0  0  0  0  0  0  0
   57.4300   33.2600   46.8100 C   0  0  0  0  0  0  0  0  0  0  0  0
   58.5620   34.2940   46.8010 C   0  0  0  0  0  0  0  0  0  0  0  0
   59.1800   34.4200   48.1240 N   0  0  0  0  0  0  0  0  0  0  0  0
   60.0900   33.4280   48.6340 C   0  0  0  0  0  0  0  0  0  0  0  0
   61.3820   33.2970   48.0930 C   0  0  0  0  0  0  0  0  0  0  0  0
   61.7490   33.9950   46.9210 C   0  0  0  0  0  0  0  0  0  0  0  0
   63.0200   33.8460   46.3720 C   0  0  0  0  0  0  0  0  0  0  0  0
   63.9360   32.9820   46.9610 C   0  0  0  0  0  0  0  0  0  0  0  0
   63.5900   32.2650   48.1070 C   0  0  0  0  0  0  0  0  0  0  0  0
   62.3140   32.4220   48.7110 C   0  0  0  0  0  0  0  0  0  0  0  0
   61.9620   31.7300   49.8570 N   0  0  0  0  0  0  0  0  0  0  0  0
   63.0010   31.0510   50.6650 C   0  0  0  0  0  0  0  0  0  0  0  0
   60.6380   31.6910   50.2600 C   0  0  0  0  0  0  0  0  0  0  0  0
   60.1890   30.7930   51.2600 C   0  0  0  0  0  0  0  0  0  0  0  0
   58.8670   30.8090   51.7050 C   0  0  0  0  0  0  0  0  0  0  0  0
   57.9450   31.7110   51.1630 C   0  0  0  0  0  0  0  0  0  0  0  0
   56.5800   31.7260   51.6300 N   0  0  0  0  0  0  0  0  0  0  0  0
   56.3560   30.6320   52.5760 C   0  0  0  0  0  0  0  0  0  0  0  0
   58.3500   32.5560   50.1240 C   0  0  0  0  0  0  0  0  0  0  0  0
   59.6860   32.5630   49.6660 C   0  0  0  0  0  0  0  0  0  0  0  0
   56.3348   30.2050   45.1760 H   0  0  0  0  0  0  0  0  0  0  0  0
   55.3477   30.5106   43.7066 H   0  0  0  0  0  0  0  0  0  0  0  0
   56.5767   29.2005   43.7066 H   0  0  0  0  0  0  0  0  0  0  0  0
   58.3717   30.6989   43.5636 H   0  0  0  0  0  0  0  0  0  0  0  0
   57.1097   31.5202   42.5622 H   0  0  0  0  0  0  0  0  0  0  0  0
   58.2703   33.0908   44.1195 H   0  0  0  0  0  0  0  0  0  0  0  0
   56.4779   32.9247   44.4464 H   0  0  0  0  0  0  0  0  0  0  0  0
   59.4886   31.1974   45.1728 H   0  0  0  0  0  0  0  0  0  0  0  0
   59.7275   32.2838   46.5916 H   0  0  0  0  0  0  0  0  0  0  0  0
   58.5588   30.6621   48.0437 H   0  0  0  0  0  0  0  0  0  0  0  0
   58.3138   29.5768   46.6078 H   0  0  0  0  0  0  0  0  0  0  0  0
   60.5008   29.5825   48.4107 H   0  0  0  0  0  0  0  0  0  0  0  0
   60.3364   28.6644   46.8756 H   0  0  0  0  0  0  0  0  0  0  0  0
   61.1182   30.2816   46.8756 H   0  0  0  0  0  0  0  0  0  0  0  0
   56.5003   33.7440   46.4762 H   0  0  0  0  0  0  0  0  0  0  0  0
   57.3222   32.8730   47.8340 H   0  0  0  0  0  0  0  0  0  0  0  0
   59.3278   33.9803   46.0764 H   0  0  0  0  0  0  0  0  0  0  0  0
   58.1380   35.2699   46.5220 H   0  0  0  0  0  0  0  0  0  0  0  0
   58.9890   35.2720   48.6990 H   0  0  0  0  0  0  0  0  0  0  0  0
   61.0225   34.6639   46.4365 H   0  0  0  0  0  0  0  0  0  0  0  0
   63.2995   34.4125   45.4714 H   0  0  0  0  0  0  0  0  0  0  0  0
   64.9375   32.8631   46.5219 H   0  0  0  0  0  0  0  0  0  0  0  0
   64.3165   31.5675   48.5494 H   0  0  0  0  0  0  0  0  0  0  0  0
   62.7846   31.1924   51.7342 H   0  0  0  0  0  0  0  0  0  0  0  0
   63.0037   29.9763   50.4305 H   0  0  0  0  0  0  0  0  0  0  0  0
   63.9864   31.4800   50.4305 H   0  0  0  0  0  0  0  0  0  0  0  0
   60.8958   30.0701   51.6933 H   0  0  0  0  0  0  0  0  0  0  0  0
   58.5468   30.1066   52.4886 H   0  0  0  0  0  0  0  0  0  0  0  0
   55.9240   31.6200   50.8210 H   0  0  0  0  0  0  0  0  0  0  0  0
   56.3630   32.6370   52.0970 H   0  0  0  0  0  0  0  0  0  0  0  0
   56.4343   31.0146   53.6043 H   0  0  0  0  0  0  0  0  0  0  0  0
   55.3528   30.2097   52.4173 H   0  0  0  0  0  0  0  0  0  0  0  0
   57.1125   29.8494   52.4173 H   0  0  0  0  0  0  0  0  0  0  0  0
   57.6148   33.2268   49.6555 H   0  0  0  0  0  0  0  0  0  0  0  0
  1  2  1  0
  2  3  1  0
  3  4  1  0
  4  5  1  0
  5  6  1  0
  6  7  1  0
  4  8  1  0
  8  9  1  0
  9 10  1  0
 10 11  1  0
 11 12  2  0
 12 13  1  0
 13 14  2  0
 14 15  1  0
 15 16  2  0
 16 17  1  0
 17 18  2  0
 18 19  1  0
 18 20  1  0
 20 21  2  0
 21 22  1  0
 22 23  2  0
 23 24  1  0
 24 25  1  0
 23 26  1  0
 26 27  2  0
 27 11  1  0
 17 12  1  0
 27 20  1  0
  1 28  1  0
  1 29  1  0
  1 30  1  0
  2 31  1  0
  2 32  1  0
  3 33  1  0
  3 34  1  0
  5 35  1  0
  5 36  1  0
  6 37  1  0
  6 38  1  0
  7 39  1  0
  7 40  1  0
  7 41  1  0
  8 42  1  0
  8 43  1  0
  9 44  1  0
  9 45  1  0
 10 46  1  0
 13 47  1  0
 14 48  1  0
 15 49  1  0
 16 50  1  0
 19 51  1  0
 19 52  1  0
 19 53  1  0
 21 54  1  0
 22 55  1  0
 24 56  1  0
 24 57  1  0
 25 58  1  0
 25 59  1  0
 25 60  1  0
 26 61  1  0
M  CHG  2  18   1  24   1
M  END
>  <UniqueID>  (21) 
21

>  <SMILES>  (21) 
CCCN(CCC)CCNc1c2ccccc2[n+](C)c2ccc([NH2+]C)cc12

>  <Energy>  (21) 
80.27324468368707

>  <Genealogy>  (21) 
CCCN(CCC)CCNc1c2ccccc2[n+](C)c2ccc([NH2+]C)cc12 (protonated)
CCCN(CCC)CCNc1c2ccccc2[n+](C)c2ccc([NH2+]C)cc12 (3D coordinates assigned)
CCCN(CCC)CCNc1c2ccccc2[n+](C)c2ccc([NH2+]C)cc12 (optimized conformer: 80.27324468368707 kcal/mol)

>  <smiles>  (21) 
CCCN(CCC)CCNc1c2ccccc2[n+](C)c2ccc(NC)cc12

>  <score_type>  (21) 
oracle

>  <origin>  (21) 
adg

>  <m_score__min__energy>  (21) 
-4.6399999999999997

>  <m_primary>  (21) 
energy

$$$$
21:0
     RDKit          3D

 54 57  0  0  0  0  0  0  0  0999 V2000
   60.3470   28.9850   49.1880 C   0  0  0  0  0  0  0  0  0  0  0  0
   58.9030   29.3330   49.5110 C   0  0  0  0  0  0  0  0  0  0  0  0
   58.7980   29.6640   50.8830 O   0  0  0  0  0  0  0  0  0  0  0  0
   57.5350   30.1260   51.1590 N   0  0  0  0  0  0  0  0  0  0  0  0
   57.4640   30.4940   52.5750 C   0  0  0  0  0  0  0  0  0  0  0  0
   57.7070   31.9980   52.7390 C   0  0  0  0  0  0  0  0  0  0  0  0
   59.0830   32.3060   53.3660 C   0  0  0  0  0  0  0  0  0  0  0  0
   60.1640   32.6560   52.3280 C   0  0  0  0  0  0  0  0  0  0  0  0
   60.1710   31.7160   51.1940 N   0  0  0  0  0  0  0  0  0  0  0  0
   60.8760   32.2910   50.0660 C   0  0  0  0  0  0  0  0  0  0  0  0
   60.1770   32.6920   48.9210 C   0  0  0  0  0  0  0  0  0  0  0  0
   60.8400   33.1860   47.8100 C   0  0  0  0  0  0  0  0  0  0  0  0
   62.2040   33.2850   47.7530 N   0  0  0  0  0  0  0  0  0  0  0  0
   62.8600   33.6510   46.4850 C   0  0  0  0  0  0  0  0  0  0  0  0
   62.9310   33.0450   48.9080 C   0  0  0  0  0  0  0  0  0  0  0  0
   64.3180   33.3270   48.9770 C   0  0  0  0  0  0  0  0  0  0  0  0
   65.0480   33.0720   50.1340 C   0  0  0  0  0  0  0  0  0  0  0  0
   64.4230   32.5490   51.2580 C   0  0  0  0  0  0  0  0  0  0  0  0
   63.0560   32.2860   51.2420 C   0  0  0  0  0  0  0  0  0  0  0  0
   62.2820   32.5260   50.0830 C   0  0  0  0  0  0  0  0  0  0  0  0
   59.8270   33.5610   46.8080 C   0  0  0  0  0  0  0  0  0  0  0  0
   59.9870   34.1900   45.6150 N   0  0  0  0  0  0  0  0  0  0  0  0
   58.8900   34.5100   44.8650 C   0  0  0  0  0  0  0  0  0  0  0  0
   57.5930   34.2170   45.3350 C   0  0  0  0  0  0  0  0  0  0  0  0
   57.4280   33.5990   46.5840 C   0  0  0  0  0  0  0  0  0  0  0  0
   58.5740   33.2790   47.3050 C   0  0  0  0  0  0  0  0  0  0  0  0
   58.7310   32.7230   48.6390 C   0  0  0  0  0  0  0  0  0  0  0  0
   57.7930   32.3920   49.4110 O   0  0  0  0  0  0  0  0  0  0  0  0
   60.9096   28.8494   50.1235 H   0  0  0  0  0  0  0  0  0  0  0  0
   60.3778   28.0537   48.6034 H   0  0  0  0  0  0  0  0  0  0  0  0
   60.7986   29.8000   48.6034 H   0  0  0  0  0  0  0  0  0  0  0  0
   58.5864   30.1915   48.9005 H   0  0  0  0  0  0  0  0  0  0  0  0
   58.2573   28.4705   49.2893 H   0  0  0  0  0  0  0  0  0  0  0  0
   57.2340   30.9330   50.5550 H   0  0  0  0  0  0  0  0  0  0  0  0
   56.4680   30.2411   52.9675 H   0  0  0  0  0  0  0  0  0  0  0  0
   58.2357   29.9411   53.1307 H   0  0  0  0  0  0  0  0  0  0  0  0
   57.6553   32.4744   51.7488 H   0  0  0  0  0  0  0  0  0  0  0  0
   56.9341   32.3910   53.4159 H   0  0  0  0  0  0  0  0  0  0  0  0
   58.9703   33.1580   54.0526 H   0  0  0  0  0  0  0  0  0  0  0  0
   59.4145   31.3944   53.8847 H   0  0  0  0  0  0  0  0  0  0  0  0
   59.9738   33.6700   51.9465 H   0  0  0  0  0  0  0  0  0  0  0  0
   61.1431   32.5927   52.8254 H   0  0  0  0  0  0  0  0  0  0  0  0
   60.5930   30.8010   51.4670 H   0  0  0  0  0  0  0  0  0  0  0  0
   59.1900   31.4950   50.9140 H   0  0  0  0  0  0  0  0  0  0  0  0
   63.8024   34.1768   46.6981 H   0  0  0  0  0  0  0  0  0  0  0  0
   63.0712   32.7404   45.9052 H   0  0  0  0  0  0  0  0  0  0  0  0
   62.1960   34.3090   45.9052 H   0  0  0  0  0  0  0  0  0  0  0  0
   64.8266   33.7550   48.1006 H   0  0  0  0  0  0  0  0  0  0  0  0
   66.1267   33.2861   50.1581 H   0  0  0  0  0  0  0  0  0  0  0  0
   65.0102   32.3416   52.1647 H   0  0  0  0  0  0  0  0  0  0  0  0
   62.5707   31.8856   52.1443 H   0  0  0  0  0  0  0  0  0  0  0  0
   59.0197   34.9993   43.8884 H   0  0  0  0  0  0  0  0  0  0  0  0
   56.7140   34.4720   44.7248 H   0  0  0  0  0  0  0  0  0  0  0  0
   56.4263   33.3751   46.9797 H   0  0  0  0  0  0  0  0  0  0  0  0
  1  2  1  0
  2  3  1  0
  3  4  1  0
  4  5  1  0
  5  6  1  0
  6  7  1  0
  7  8  1  0
  8  9  1  0
  9 10  1  0
 10 11  2  0
 11 12  1  0
 12 13  2  0
 13 14  1  0
 13 15  1  0
 15 16  2  0
 16 17  1  0
 17 18  2  0
 18 19  1  0
 19 20  2  0
 12 21  1  0
 21 22  2  0
 22 23  1  0
 23 24  2  0
 24 25  1  0
 25 26  2  0
 26 27  1  0
 27 28  2  0
 20 10  1  0
 26 21  1  0
 27 11  1  0
 20 15  1  0
  1 29  1  0
  1 30  1  0
  1 31  1  0
  2 32  1  0
  2 33  1  0
  4 34  1  0
  5 35  1  0
  5 36  1  0
  6 37  1  0
  6 38  1  0
  7 39  1  0
  7 40  1  0
  8 41  1  0
  8 42  1  0
  9 43  1  0
  9 44  1  0
 14 45  1  0
 14 46  1  0
 14 47  1  0
 16 48  1  0
 17 49  1  0
 18 50  1  0
 19 51  1  0
 23 52  1  0
 24 53  1  0
 25 54  1  0
M  CHG  2   9   1  13   1
M  END
>  <UniqueID>  (22) 
22

>  <SMILES>  (22) 
CCONCCCC[NH2+]c1c2c([n+](C)c3ccccc13)-c1ncccc1C2=O

>  <Energy>  (22) 
108.05434702159805

>  <Genealogy>  (22) 
CCONCCCC[NH2+]c1c2c([n+](C)c3ccccc13)-c1ncccc1C2=O (protonated)
CCONCCCC[NH2+]c1c2c([n+](C)c3ccccc13)-c1ncccc1C2=O (3D coordinates assigned)
CCONCCCC[NH2+]c1c2c([n+](C)c3ccccc13)-c1ncccc1C2=O (nonaromatic ring conformer: 108.05434702159805 kcal/mol)

>  <smiles>  (22) 
CCONCCCCNc1c2c([n+](C)c3ccccc13)-c1ncccc1C2=O

>  <score_type>  (22) 
oracle

>  <origin>  (22) 
adg

>  <m_score__min__energy>  (22) 
-3.8100000000000001

>  <m_primary>  (22) 
energy

$$$$
22:0
     RDKit          3D

 53 54  0  0  0  0  0  0  0  0999 V2000
   62.9030   34.2460   49.2870 C   0  0  0  0  0  0  0  0  0  0  0  0
   63.7690   33.1170   48.7390 C   0  0  0  0  0  0  0  0  0  0  0  0
   63.2380   32.6120   47.3910 C   0  0  0  0  0  0  0  0  0  0  0  0
   61.7860   32.8590   47.2810 N   0  0  0  0  0  0  0  0  0  0  0  0
   61.3860   33.8060   46.3810 C   0  0  0  0  0  0  0  0  0  0  0  0
   60.0440   34.1050   46.1910 C   0  0  0  0  0  0  0  0  0  0  0  0
   59.0600   33.4450   46.9320 C   0  0  0  0  0  0  0  0  0  0  0  0
   57.6640   33.7380   46.6960 N   0  0  0  0  0  0  0  0  0  0  0  0
   57.0490   33.8090   45.3680 C   0  0  0  0  0  0  0  0  0  0  0  0
   57.4230   32.5990   44.4780 C   0  0  0  0  0  0  0  0  0  0  0  0
   57.0880   31.2570   45.0310 N   0  0  0  0  0  0  0  0  0  0  0  0
   58.2700   30.4250   45.3480 C   0  0  0  0  0  0  0  0  0  0  0  0
   57.8770   29.1120   46.0260 C   0  0  0  0  0  0  0  0  0  0  0  0
   56.1020   30.4830   44.2370 C   0  0  0  0  0  0  0  0  0  0  0  0
   56.6200   30.1120   42.8460 C   0  0  0  0  0  0  0  0  0  0  0  0
   59.4620   32.4880   47.8960 C   0  0  0  0  0  0  0  0  0  0  0  0
   58.5200   31.8340   48.7210 C   0  0  0  0  0  0  0  0  0  0  0  0
   58.9200   30.9150   49.6900 C   0  0  0  0  0  0  0  0  0  0  0  0
   57.9290   30.3050   50.4770 O   0  0  0  0  0  0  0  0  0  0  0  0
   57.3940   30.8620   51.6730 C   0  0  0  0  0  0  0  0  0  0  0  0
   60.2820   30.6360   49.8510 C   0  0  0  0  0  0  0  0  0  0  0  0
   61.2320   31.2740   49.0570 C   0  0  0  0  0  0  0  0  0  0  0  0
   60.8510   32.2090   48.0660 C   0  0  0  0  0  0  0  0  0  0  0  0
   62.9216   34.2217   50.3866 H   0  0  0  0  0  0  0  0  0  0  0  0
   63.2940   35.2120   48.9349 H   0  0  0  0  0  0  0  0  0  0  0  0
   61.8687   34.1187   48.9349 H   0  0  0  0  0  0  0  0  0  0  0  0
   64.7963   33.4864   48.6039 H   0  0  0  0  0  0  0  0  0  0  0  0
   63.7469   32.2828   49.4557 H   0  0  0  0  0  0  0  0  0  0  0  0
   63.7574   33.1390   46.5771 H   0  0  0  0  0  0  0  0  0  0  0  0
   63.4209   31.5296   47.3198 H   0  0  0  0  0  0  0  0  0  0  0  0
   62.1448   34.3437   45.7936 H   0  0  0  0  0  0  0  0  0  0  0  0
   59.7531   34.8664   45.4524 H   0  0  0  0  0  0  0  0  0  0  0  0
   57.0200   33.8320   47.5120 H   0  0  0  0  0  0  0  0  0  0  0  0
   55.9557   33.8358   45.4862 H   0  0  0  0  0  0  0  0  0  0  0  0
   57.4238   34.7172   44.8734 H   0  0  0  0  0  0  0  0  0  0  0  0
   56.8953   32.7098   43.5192 H   0  0  0  0  0  0  0  0  0  0  0  0
   58.5194   32.6204   44.3916 H   0  0  0  0  0  0  0  0  0  0  0  0
   58.8053   30.1970   44.4144 H   0  0  0  0  0  0  0  0  0  0  0  0
   58.9085   30.9901   46.0430 H   0  0  0  0  0  0  0  0  0  0  0  0
   57.9146   29.2377   47.1181 H   0  0  0  0  0  0  0  0  0  0  0  0
   56.8564   28.8344   45.7238 H   0  0  0  0  0  0  0  0  0  0  0  0
   58.5773   28.3193   45.7238 H   0  0  0  0  0  0  0  0  0  0  0  0
   55.8619   29.5575   44.7808 H   0  0  0  0  0  0  0  0  0  0  0  0
   55.2147   31.1187   44.1009 H   0  0  0  0  0  0  0  0  0  0  0  0
   57.5107   29.4741   42.9445 H   0  0  0  0  0  0  0  0  0  0  0  0
   55.8379   29.5674   42.2967 H   0  0  0  0  0  0  0  0  0  0  0  0
   56.8838   31.0278   42.2967 H   0  0  0  0  0  0  0  0  0  0  0  0
   57.4495   32.0543   48.5963 H   0  0  0  0  0  0  0  0  0  0  0  0
   57.8597   30.3771   52.5436 H   0  0  0  0  0  0  0  0  0  0  0  0
   57.6022   31.9418   51.6997 H   0  0  0  0  0  0  0  0  0  0  0  0
   56.3067   30.6975   51.6997 H   0  0  0  0  0  0  0  0  0  0  0  0
   60.6044   29.9078   50.6098 H   0  0  0  0  0  0  0  0  0  0  0  0
   62.2983   31.0467   49.2032 H   0  0  0  0  0  0  0  0  0  0  0  0
  1  2  1  0
  2  3  1  0
  3  4  1  0
  4  5  2  0
  5  6  1  0
  6  7  2  0
  7  8  1  0
  8  9  1  0
  9 10  1  0
 10 11  1  0
 11 12  1  0
 12 13  1  0
 11 14  1  0
 14 15  1  0
  7 16  1  0
 16 17  2  0
 17 18  1  0
 18 19  1  0
 19 20  1  0
 18 21  2  0
 21 22  1  0
 22 23  2  0
 23  4  1  0
 23 16  1  0
  1 24  1  0
  1 25  1  0
  1 26  1  0
  2 27  1  0
  2 28  1  0
  3 29  1  0
  3 30  1  0
  5 31  1  0
  6 32  1  0
  8 33  1  0
  9 34  1  0
  9 35  1  0
 10 36  1  0
 10 37  1  0
 12 38  1  0
 12 39  1  0
 13 40  1  0
 13 41  1  0
 13 42  1  0
 14 43  1  0
 14 44  1  0
 15 45  1  0
 15 46  1  0
 15 47  1  0
 17 48  1  0
 20 49  1  0
 20 50  1  0
 20 51  1  0
 21 52  1  0
 22 53  1  0
M  CHG  1   4   1
M  END
>  <UniqueID>  (23) 
23

>  <SMILES>  (23) 
CCC[n+]1ccc(NCCN(CC)CC)c2cc(OC)ccc21

>  <Energy>  (23) 
60.55045645481061

>  <Genealogy>  (23) 
CCC[n+]1ccc(NCCN(CC)CC)c2cc(OC)ccc21 (3D coordinates assigned)
CCC[n+]1ccc(NCCN(CC)CC)c2cc(OC)ccc21 (optimized conformer: 60.55045645481061 kcal/mol)

>  <smiles>  (23) 
CCC[n+]1ccc(NCCN(CC)CC)c2cc(OC)ccc21

>  <score_type>  (23) 
oracle

>  <origin>  (23) 
adg

>  <m_score__min__energy>  (23) 
-5.1900000000000004

>  <m_primary>  (23) 
energy

$$$$
23:0
     RDKit          3D

 63 65  0  0  0  0  0  0  0  0999 V2000
   63.1340   32.8270   47.6660 C   0  0  0  0  0  0  0  0  0  0  0  0
   62.6390   33.4750   48.9700 C   0  0  0  0  0  0  0  0  0  0  0  0
   62.4490   32.5430   50.1160 N   0  0  1  0  0  0  0  0  0  0  0  0
   63.2810   31.3240   50.0540 C   0  0  0  0  0  0  0  0  0  0  0  0
   62.4750   33.1960   51.4520 C   0  0  0  0  0  0  0  0  0  0  0  0
   61.1000   33.5340   52.0560 C   0  0  0  0  0  0  0  0  0  0  0  0
   60.1230   33.5530   51.0370 O   0  0  0  0  0  0  0  0  0  0  0  0
   58.9010   33.0540   51.5390 C   0  0  0  0  0  0  0  0  0  0  0  0
   58.6930   31.6340   51.0310 C   0  0  0  0  0  0  0  0  0  0  0  0
   59.9440   31.0550   50.7290 O   0  0  0  0  0  0  0  0  0  0  0  0
   59.7160   29.7460   50.4340 N   0  0  0  0  0  0  0  0  0  0  0  0
   60.7590   29.3030   49.5070 C   0  0  0  0  0  0  0  0  0  0  0  0
   60.4350   29.7000   48.0630 C   0  0  0  0  0  0  0  0  0  0  0  0
   59.5220   30.8440   48.0250 N   0  0  0  0  0  0  0  0  0  0  0  0
   59.0240   31.3670   46.7800 C   0  0  0  0  0  0  0  0  0  0  0  0
   59.2360   32.7160   46.4400 C   0  0  0  0  0  0  0  0  0  0  0  0
   59.8070   33.6140   47.3670 C   0  0  0  0  0  0  0  0  0  0  0  0
   59.9910   34.9550   47.0390 C   0  0  0  0  0  0  0  0  0  0  0  0
   59.5880   35.4300   45.7980 C   0  0  0  0  0  0  0  0  0  0  0  0
   59.0110   34.5640   44.8690 C   0  0  0  0  0  0  0  0  0  0  0  0
   58.8400   33.1850   45.1590 C   0  0  0  0  0  0  0  0  0  0  0  0
   58.2840   32.3120   44.2430 N   0  0  0  0  0  0  0  0  0  0  0  0
   58.1420   32.7200   42.8270 C   0  0  0  0  0  0  0  0  0  0  0  0
   57.8810   31.0530   44.6450 C   0  0  0  0  0  0  0  0  0  0  0  0
   57.0720   30.2300   43.8200 C   0  0  0  0  0  0  0  0  0  0  0  0
   56.7440   28.9300   44.2000 C   0  0  0  0  0  0  0  0  0  0  0  0
   57.2010   28.4180   45.4100 C   0  0  0  0  0  0  0  0  0  0  0  0
   56.8030   26.7720   45.8730 Cl  0  0  0  0  0  0  0  0  0  0  0  0
   57.9600   29.2160   46.2620 C   0  0  0  0  0  0  0  0  0  0  0  0
   58.2830   30.5460   45.9110 C   0  0  0  0  0  0  0  0  0  0  0  0
   63.7858   31.9737   47.9050 H   0  0  0  0  0  0  0  0  0  0  0  0
   62.2714   32.4767   47.0802 H   0  0  0  0  0  0  0  0  0  0  0  0
   63.6989   33.5671   47.0802 H   0  0  0  0  0  0  0  0  0  0  0  0
   63.3737   34.2365   49.2704 H   0  0  0  0  0  0  0  0  0  0  0  0
   61.6433   33.8848   48.7451 H   0  0  0  0  0  0  0  0  0  0  0  0
   61.4650   32.1930   50.0220 H   0  0  0  0  0  0  0  0  0  0  0  0
   63.5121   30.9855   51.0748 H   0  0  0  0  0  0  0  0  0  0  0  0
   62.7334   30.5331   49.5205 H   0  0  0  0  0  0  0  0  0  0  0  0
   64.2171   31.5457   49.5205 H   0  0  0  0  0  0  0  0  0  0  0  0
   62.9934   32.5205   52.1484 H   0  0  0  0  0  0  0  0  0  0  0  0
   62.9834   34.1603   51.3049 H   0  0  0  0  0  0  0  0  0  0  0  0
   60.8327   32.7734   52.8044 H   0  0  0  0  0  0  0  0  0  0  0  0
   61.1461   34.5235   52.5342 H   0  0  0  0  0  0  0  0  0  0  0  0
   58.9290   33.0508   52.6386 H   0  0  0  0  0  0  0  0  0  0  0  0
   58.0732   33.6932   51.1981 H   0  0  0  0  0  0  0  0  0  0  0  0
   58.1902   31.0371   51.8062 H   0  0  0  0  0  0  0  0  0  0  0  0
   58.0705   31.6562   50.1243 H   0  0  0  0  0  0  0  0  0  0  0  0
   58.8060   29.7030   49.9170 H   0  0  0  0  0  0  0  0  0  0  0  0
   61.7146   29.7635   49.7981 H   0  0  0  0  0  0  0  0  0  0  0  0
   60.8207   28.2059   49.5569 H   0  0  0  0  0  0  0  0  0  0  0  0
   61.3682   29.9673   47.5455 H   0  0  0  0  0  0  0  0  0  0  0  0
   59.9490   28.8474   47.5661 H   0  0  0  0  0  0  0  0  0  0  0  0
   59.0620   31.1320   48.9180 H   0  0  0  0  0  0  0  0  0  0  0  0
   60.1102   33.2506   48.3600 H   0  0  0  0  0  0  0  0  0  0  0  0
   60.4563   35.6389   47.7641 H   0  0  0  0  0  0  0  0  0  0  0  0
   59.7241   36.4922   45.5467 H   0  0  0  0  0  0  0  0  0  0  0  0
   58.6829   34.9564   43.8951 H   0  0  0  0  0  0  0  0  0  0  0  0
   57.7808   33.7579   42.7789 H   0  0  0  0  0  0  0  0  0  0  0  0
   59.1181   32.6479   42.3250 H   0  0  0  0  0  0  0  0  0  0  0  0
   57.4216   32.0574   42.3250 H   0  0  0  0  0  0  0  0  0  0  0  0
   56.6972   30.6247   42.8641 H   0  0  0  0  0  0  0  0  0  0  0  0
   56.1217   28.3067   43.5410 H   0  0  0  0  0  0  0  0  0  0  0  0
   58.3124   28.8060   47.2200 H   0  0  0  0  0  0  0  0  0  0  0  0
  1  2  1  0
  2  3  1  0
  3  4  1  0
  3  5  1  0
  5  6  1  0
  6  7  1  0
  7  8  1  0
  8  9  1  0
  9 10  1  0
 10 11  1  0
 11 12  1  0
 12 13  1  0
 13 14  1  0
 14 15  1  0
 15 16  2  0
 16 17  1  0
 17 18  2  0
 18 19  1  0
 19 20  2  0
 20 21  1  0
 21 22  2  0
 22 23  1  0
 22 24  1  0
 24 25  2  0
 25 26  1  0
 26 27  2  0
 27 28  1  0
 27 29  1  0
 29 30  2  0
 30 15  1  0
 21 16  1  0
 30 24  1  0
  1 31  1  0
  1 32  1  0
  1 33  1  0
  2 34  1  0
  2 35  1  0
  3 36  1  6
  4 37  1  0
  4 38  1  0
  4 39  1  0
  5 40  1  0
  5 41  1  0
  6 42  1  0
  6 43  1  0
  8 44  1  0
  8 45  1  0
  9 46  1  0
  9 47  1  0
 11 48  1  0
 12 49  1  0
 12 50  1  0
 13 51  1  0
 13 52  1  0
 14 53  1  0
 17 54  1  0
 18 55  1  0
 19 56  1  0
 20 57  1  0
 23 58  1  0
 23 59  1  0
 23 60  1  0
 25 61  1  0
 26 62  1  0
 29 63  1  0
M  CHG  2   3   1  22   1
M  END
>  <UniqueID>  (24) 
24

>  <SMILES>  (24) 
CC[N@@H+](C)CCOCCONCCNc1c2ccccc2[n+](C)c2ccc(Cl)cc12

>  <Energy>  (24) 
87.48127735468725

>  <Genealogy>  (24) 
CC[NH+](C)CCOCCONCCNc1c2ccccc2[n+](C)c2ccc(Cl)cc12 (protonated)
CC[N@@H+](C)CCOCCONCCNc1c2ccccc2[n+](C)c2ccc(Cl)cc12 (chirality)
CC[N@@H+](C)CCOCCONCCNc1c2ccccc2[n+](C)c2ccc(Cl)cc12 (3D coordinates assigned)
CC[N@@H+](C)CCOCCONCCNc1c2ccccc2[n+](C)c2ccc(Cl)cc12 (optimized conformer: 87.48127735468725 kcal/mol)

>  <smiles>  (24) 
CCN(C)CCOCCONCCNc1c2ccccc2[n+](C)c2ccc(Cl)cc12

>  <score_type>  (24) 
oracle

>  <origin>  (24) 
adg

>  <m_score__min__energy>  (24) 
-4

>  <m_primary>  (24) 
energy

$$$$
