0:0
     RDKit          3D

 50 52  0  0  0  0  0  0  0  0999 V2000
   63.9880   32.5880   46.7620 O   0  0  0  0  0  0  0  0  0  0  0  0
   63.4540   33.7630   47.3050 C   0  0  0  0  0  0  0  0  0  0  0  0
   62.5670   33.4480   48.5190 C   0  0  0  0  0  0  0  0  0  0  0  0
   62.3900   32.0000   48.7600 N   0  0  0  0  0  0  0  0  0  0  0  0
   61.3230   31.3960   47.9770 C   0  0  0  0  0  0  0  0  0  0  0  0
   61.6380   30.4810   46.9510 C   0  0  0  0  0  0  0  0  0  0  0  0
   60.6350   29.8420   46.2250 C   0  0  0  0  0  0  0  0  0  0  0  0
   59.2900   30.1330   46.4670 C   0  0  0  0  0  0  0  0  0  0  0  0
   58.2560   29.4590   45.7280 N   0  0  0  0  0  0  0  0  0  0  0  0
   57.4650   30.2170   44.7490 C   0  0  0  0  0  0  0  0  0  0  0  0
   56.3300   29.3650   44.1930 C   0  0  0  0  0  0  0  0  0  0  0  0
   55.7700   28.5990   45.2350 O   0  0  0  0  0  0  0  0  0  0  0  0
   56.6470   27.5390   45.5720 C   0  0  0  0  0  0  0  0  0  0  0  0
   58.0960   28.0020   45.8620 C   0  0  0  0  0  0  0  0  0  0  0  0
   58.9620   31.0990   47.4270 C   0  0  0  0  0  0  0  0  0  0  0  0
   59.9580   31.7480   48.1820 C   0  0  0  0  0  0  0  0  0  0  0  0
   59.5910   32.8160   49.0790 N   0  0  0  0  0  0  0  0  0  0  0  0
   59.2950   34.1860   48.6500 C   0  0  0  0  0  0  0  0  0  0  0  0
   58.8390   34.2020   47.2180 C   0  0  0  0  0  0  0  0  0  0  0  0
   59.7160   34.6010   46.1950 C   0  0  0  0  0  0  0  0  0  0  0  0
   59.3000   34.5730   44.8600 C   0  0  0  0  0  0  0  0  0  0  0  0
   58.0070   34.1490   44.5370 C   0  0  0  0  0  0  0  0  0  0  0  0
   57.1290   33.7510   45.5490 C   0  0  0  0  0  0  0  0  0  0  0  0
   57.5430   33.7730   46.8850 C   0  0  0  0  0  0  0  0  0  0  0  0
   64.9590   32.7490   46.6490 H   0  0  0  0  0  0  0  0  0  0  0  0
   64.2770   34.4211   47.6206 H   0  0  0  0  0  0  0  0  0  0  0  0
   62.8402   34.2588   46.5386 H   0  0  0  0  0  0  0  0  0  0  0  0
   63.0272   33.8959   49.4121 H   0  0  0  0  0  0  0  0  0  0  0  0
   61.5711   33.8653   48.3091 H   0  0  0  0  0  0  0  0  0  0  0  0
   63.3120   31.5470   48.5770 H   0  0  0  0  0  0  0  0  0  0  0  0
   62.1670   31.8570   49.7720 H   0  0  0  0  0  0  0  0  0  0  0  0
   62.6923   30.2684   46.7203 H   0  0  0  0  0  0  0  0  0  0  0  0
   60.9040   29.1031   45.4558 H   0  0  0  0  0  0  0  0  0  0  0  0
   57.0416   31.1064   45.2387 H   0  0  0  0  0  0  0  0  0  0  0  0
   58.1226   30.5133   43.9184 H   0  0  0  0  0  0  0  0  0  0  0  0
   55.5576   30.0183   43.7610 H   0  0  0  0  0  0  0  0  0  0  0  0
   56.7197   28.6959   43.4118 H   0  0  0  0  0  0  0  0  0  0  0  0
   56.2564   27.0363   46.4690 H   0  0  0  0  0  0  0  0  0  0  0  0
   56.6909   26.8674   44.7019 H   0  0  0  0  0  0  0  0  0  0  0  0
   58.3614   27.7103   46.8889 H   0  0  0  0  0  0  0  0  0  0  0  0
   58.7558   27.5225   45.1239 H   0  0  0  0  0  0  0  0  0  0  0  0
   57.9056   31.3557   47.5944 H   0  0  0  0  0  0  0  0  0  0  0  0
   59.5680   32.6270   50.1070 H   0  0  0  0  0  0  0  0  0  0  0  0
   58.5006   34.6014   49.2876 H   0  0  0  0  0  0  0  0  0  0  0  0
   60.2086   34.7921   48.7393 H   0  0  0  0  0  0  0  0  0  0  0  0
   60.7333   34.9365   46.4451 H   0  0  0  0  0  0  0  0  0  0  0  0
   59.9908   34.8849   44.0629 H   0  0  0  0  0  0  0  0  0  0  0  0
   57.6811   34.1287   43.4866 H   0  0  0  0  0  0  0  0  0  0  0  0
   56.1113   33.4201   45.2946 H   0  0  0  0  0  0  0  0  0  0  0  0
   56.8512   33.4532   47.6782 H   0  0  0  0  0  0  0  0  0  0  0  0
  1  2  1  0
  2  3  1  0
  3  4  1  0
  4  5  1  0
  5  6  2  0
  6  7  1  0
  7  8  2  0
  8  9  1  0
  9 10  1  0
 10 11  1  0
 11 12  1  0
 12 13  1  0
 13 14  1  0
  8 15  1  0
 15 16  2  0
 16 17  1  0
 17 18  1  0
 18 19  1  0
 19 20  2  0
 20 21  1  0
 21 22  2  0
 22 23  1  0
 23 24  2  0
 16  5  1  0
 24 19  1  0
 14  9  1  0
  1 25  1  0
  2 26  1  0
  2 27  1  0
  3 28  1  0
  3 29  1  0
  4 30  1  0
  4 31  1  0
  6 32  1  0
  7 33  1  0
 10 34  1  0
 10 35  1  0
 11 36  1  0
 11 37  1  0
 13 38  1  0
 13 39  1  0
 14 40  1  0
 14 41  1  0
 15 42  1  0
 17 43  1  0
 18 44  1  0
 18 45  1  0
 20 46  1  0
 21 47  1  0
 22 48  1  0
 23 49  1  0
 24 50  1  0
M  CHG  1   4   1
M  END
>  <UniqueID>  (1) 
1

>  <SMILES>  (1) 
OCC[NH2+]c1ccc(N2CCOCC2)cc1NCc1ccccc1

>  <Energy>  (1) 
65.77803800873592

>  <Genealogy>  (1) 
OCC[NH2+]c1ccc(N2CCOCC2)cc1NCc1ccccc1 (protonated)
OCC[NH2+]c1ccc(N2CCOCC2)cc1NCc1ccccc1 (3D coordinates assigned)
OCC[NH2+]c1ccc(N2CCOCC2)cc1NCc1ccccc1 (nonaromatic ring conformer: 65.77803800873592 kcal/mol)

>  <smiles>  (1) 
OCCNc1ccc(N2CCOCC2)cc1NCc1ccccc1

>  <score_type>  (1) 
oracle

>  <origin>  (1) 
adg

>  <m_score__min__energy>  (1) 
-6.8600000000000003

>  <m_primary>  (1) 
energy

$$$$
1:0
     RDKit          3D

 25 26  0  0  0  0  0  0  0  0999 V2000
   57.6480   29.0120   52.9700 C   0  0  0  0  0  0  0  0  0  0  0  0
   56.2200   29.4170   52.7690 C   0  0  0  0  0  0  0  0  0  0  0  0
   55.8140   30.5780   52.1150 C   0  0  0  0  0  0  0  0  0  0  0  0
   54.4370   30.5410   52.1400 C   0  0  0  0  0  0  0  0  0  0  0  0
   53.5050   31.4330   51.6130 C   0  0  0  0  0  0  0  0  0  0  0  0
   52.1310   31.1330   51.7630 C   0  0  0  0  0  0  0  0  0  0  0  0
   51.1010   32.0500   51.2230 C   0  0  0  0  0  0  0  0  0  0  0  0
   50.1620   32.6780   52.0920 N   0  0  0  0  0  0  0  0  0  0  0  0
   51.0440   32.2820   49.9850 O   0  0  0  0  0  0  0  0  0  0  0  0
   51.7490   29.9410   52.4360 C   0  0  0  0  0  0  0  0  0  0  0  0
   52.7150   29.0610   52.9530 C   0  0  0  0  0  0  0  0  0  0  0  0
   54.0620   29.3950   52.7920 C   0  0  0  0  0  0  0  0  0  0  0  0
   55.1460   28.7040   53.1980 N   0  0  0  0  0  0  0  0  0  0  0  0
   55.1560   27.4020   53.8650 C   0  0  0  0  0  0  0  0  0  0  0  0
   57.8637   28.9508   54.0469 H   0  0  0  0  0  0  0  0  0  0  0  0
   57.8194   28.0298   52.5053 H   0  0  0  0  0  0  0  0  0  0  0  0
   58.3096   29.7579   52.5053 H   0  0  0  0  0  0  0  0  0  0  0  0
   56.4544   31.3561   51.6740 H   0  0  0  0  0  0  0  0  0  0  0  0
   53.8296   32.3468   51.0938 H   0  0  0  0  0  0  0  0  0  0  0  0
   49.9350   33.6930   51.9940 H   0  0  0  0  0  0  0  0  0  0  0  0
   50.6814   29.7037   52.5540 H   0  0  0  0  0  0  0  0  0  0  0  0
   52.4191   28.1360   53.4695 H   0  0  0  0  0  0  0  0  0  0  0  0
   55.1549   27.5485   54.9552 H   0  0  0  0  0  0  0  0  0  0  0  0
   54.2622   26.8324   53.5707 H   0  0  0  0  0  0  0  0  0  0  0  0
   56.0584   26.8462   53.5707 H   0  0  0  0  0  0  0  0  0  0  0  0
  1  2  1  0
  2  3  2  0
  3  4  1  0
  4  5  2  0
  5  6  1  0
  6  7  1  0
  7  8  1  0
  7  9  2  0
  6 10  2  0
 10 11  1  0
 11 12  2  0
 12 13  1  0
 13 14  1  0
 13  2  1  0
 12  4  1  0
  1 15  1  0
  1 16  1  0
  1 17  1  0
  3 18  1  0
  5 19  1  0
  8 20  1  0
 10 21  1  0
 11 22  1  0
 14 23  1  0
 14 24  1  0
 14 25  1  0
M  CHG  1   8  -1
M  END
>  <UniqueID>  (2) 
2

>  <SMILES>  (2) 
Cc1cc2cc(C([NH-])=O)ccc2n1C

>  <Energy>  (2) 
57.73320629816634

>  <Genealogy>  (2) 
Cc1cc2cc(C([NH-])=O)ccc2n1C (protonated)
Cc1cc2cc(C([NH-])=O)ccc2n1C (3D coordinates assigned)
Cc1cc2cc(C([NH-])=O)ccc2n1C (optimized conformer: 57.73320629816634 kcal/mol)

>  <smiles>  (2) 
Cc1cc2cc(C(N)=O)ccc2n1C

>  <score_type>  (2) 
oracle

>  <origin>  (2) 
adg

>  <m_score__min__energy>  (2) 
-9.3499999999999996

>  <m_primary>  (2) 
energy

$$$$
2:0
     RDKit          3D

 34 36  0  0  0  0  0  0  0  0999 V2000
   57.3810   28.1220   44.8640 C   0  0  0  0  0  0  0  0  0  0  0  0
   57.3590   29.6100   44.9870 C   0  0  0  0  0  0  0  0  0  0  0  0
   56.3430   30.3650   44.6410 O   0  0  0  0  0  0  0  0  0  0  0  0
   56.5880   31.6230   44.8730 N   0  0  0  0  0  0  0  0  0  0  0  0
   57.8320   31.6970   45.3870 C   0  0  0  0  0  0  0  0  0  0  0  0
   58.4530   32.9640   45.8170 C   0  0  0  0  0  0  0  0  0  0  0  0
   58.9600   33.8480   44.8500 C   0  0  0  0  0  0  0  0  0  0  0  0
   59.5220   35.0670   45.2350 C   0  0  0  0  0  0  0  0  0  0  0  0
   59.5990   35.4080   46.5890 C   0  0  0  0  0  0  0  0  0  0  0  0
   59.1190   34.5250   47.5580 C   0  0  0  0  0  0  0  0  0  0  0  0
   58.5490   33.3050   47.1800 C   0  0  0  0  0  0  0  0  0  0  0  0
   58.1220   32.4470   48.1400 F   0  0  0  0  0  0  0  0  0  0  0  0
   58.3570   30.4170   45.4990 C   0  0  0  0  0  0  0  0  0  0  0  0
   59.6780   29.9760   46.0720 C   0  0  0  0  0  0  0  0  0  0  0  0
   59.8590   30.4870   47.3910 O   0  0  0  0  0  0  0  0  0  0  0  0
   61.1160   30.6790   47.9750 C   0  0  0  0  0  0  0  0  0  0  0  0
   61.5160   29.9240   48.9030 O   0  0  0  0  0  0  0  0  0  0  0  0
   61.9620   31.7870   47.5250 C   0  0  0  0  0  0  0  0  0  0  0  0
   63.3120   31.9260   47.7810 C   0  0  0  0  0  0  0  0  0  0  0  0
   63.6890   33.0930   47.1510 C   0  0  0  0  0  0  0  0  0  0  0  0
   62.5470   33.5920   46.5540 C   0  0  0  0  0  0  0  0  0  0  0  0
   61.5340   32.7910   46.7960 O   0  0  0  0  0  0  0  0  0  0  0  0
   57.3877   27.6712   45.8674 H   0  0  0  0  0  0  0  0  0  0  0  0
   56.4877   27.7860   44.3170 H   0  0  0  0  0  0  0  0  0  0  0  0
   58.2838   27.8126   44.3170 H   0  0  0  0  0  0  0  0  0  0  0  0
   58.9141   33.5787   43.7845 H   0  0  0  0  0  0  0  0  0  0  0  0
   59.9049   35.7604   44.4717 H   0  0  0  0  0  0  0  0  0  0  0  0
   60.0373   36.3709   46.8902 H   0  0  0  0  0  0  0  0  0  0  0  0
   59.1894   34.7899   48.6233 H   0  0  0  0  0  0  0  0  0  0  0  0
   59.7069   28.8769   46.1049 H   0  0  0  0  0  0  0  0  0  0  0  0
   60.4845   30.3637   45.4322 H   0  0  0  0  0  0  0  0  0  0  0  0
   63.9520   31.2481   48.3648 H   0  0  0  0  0  0  0  0  0  0  0  0
   64.6952   33.5370   47.1282 H   0  0  0  0  0  0  0  0  0  0  0  0
   62.4940   34.5196   45.9652 H   0  0  0  0  0  0  0  0  0  0  0  0
  1  2  1  0
  2  3  1  0
  3  4  1  0
  4  5  2  0
  5  6  1  0
  6  7  2  0
  7  8  1  0
  8  9  2  0
  9 10  1  0
 10 11  2  0
 11 12  1  0
  5 13  1  0
 13 14  1  0
 14 15  1  0
 15 16  1  0
 16 17  2  0
 16 18  1  0
 18 19  2  0
 19 20  1  0
 20 21  2  0
 21 22  1  0
 13  2  2  0
 22 18  1  0
 11  6  1  0
  1 23  1  0
  1 24  1  0
  1 25  1  0
  7 26  1  0
  8 27  1  0
  9 28  1  0
 10 29  1  0
 14 30  1  0
 14 31  1  0
 19 32  1  0
 20 33  1  0
 21 34  1  0
M  END
>  <UniqueID>  (3) 
3

>  <SMILES>  (3) 
Cc1onc(-c2ccccc2F)c1COC(=O)c1ccco1

>  <Energy>  (3) 
92.18294651337084

>  <Genealogy>  (3) 
Cc1onc(-c2ccccc2F)c1COC(=O)c1ccco1 (3D coordinates assigned)
Cc1onc(-c2ccccc2F)c1COC(=O)c1ccco1 (optimized conformer: 92.18294651337084 kcal/mol)

>  <smiles>  (3) 
Cc1onc(-c2ccccc2F)c1COC(=O)c1ccco1

>  <score_type>  (3) 
oracle

>  <origin>  (3) 
adg

>  <m_score__min__energy>  (3) 
-7.1799999999999997

>  <m_primary>  (3) 
energy

$$$$
3:0
     RDKit          3D

 37 39  0  0  0  0  0  0  0  0999 V2000
   64.0300   33.4110   50.2970 C   0  0  0  0  0  0  0  0  0  0  0  0
   63.0220   34.1710   49.6370 O   0  0  0  0  0  0  0  0  0  0  0  0
   61.9740   33.6180   48.8850 C   0  0  0  0  0  0  0  0  0  0  0  0
   60.7400   33.2660   49.4650 C   0  0  0  0  0  0  0  0  0  0  0  0
   59.7160   32.7180   48.6840 C   0  0  0  0  0  0  0  0  0  0  0  0
   58.1840   32.3230   49.4590 Cl  0  0  0  0  0  0  0  0  0  0  0  0
   59.9150   32.5160   47.3060 C   0  0  0  0  0  0  0  0  0  0  0  0
   58.8560   31.9290   46.4550 C   0  0  0  0  0  0  0  0  0  0  0  0
   58.8580   30.5530   46.2080 C   0  0  0  0  0  0  0  0  0  0  0  0
   57.8660   29.9900   45.3940 C   0  0  0  0  0  0  0  0  0  0  0  0
   57.8190   28.5340   45.1020 C   0  0  0  0  0  0  0  0  0  0  0  0
   57.4840   27.5950   46.0980 C   0  0  0  0  0  0  0  0  0  0  0  0
   57.4520   26.2290   45.8020 C   0  0  0  0  0  0  0  0  0  0  0  0
   57.7590   25.7820   44.5150 C   0  0  0  0  0  0  0  0  0  0  0  0
   58.1040   26.7010   43.5220 C   0  0  0  0  0  0  0  0  0  0  0  0
   58.1390   28.0680   43.8120 C   0  0  0  0  0  0  0  0  0  0  0  0
   56.9110   30.8070   44.8720 N   0  0  0  0  0  0  0  0  0  0  0  0
   56.9010   32.1200   45.1050 N   0  0  0  0  0  0  0  0  0  0  0  0
   57.8400   32.7180   45.8830 C   0  0  0  0  0  0  0  0  0  0  0  0
   57.7620   34.1990   46.1070 C   0  0  0  0  0  0  0  0  0  0  0  0
   61.1450   32.8640   46.7290 C   0  0  0  0  0  0  0  0  0  0  0  0
   62.1660   33.4120   47.5110 C   0  0  0  0  0  0  0  0  0  0  0  0
   63.6930   33.8380   46.7510 Cl  0  0  0  0  0  0  0  0  0  0  0  0
   63.9058   33.5047   51.3859 H   0  0  0  0  0  0  0  0  0  0  0  0
   63.9406   32.3536   50.0074 H   0  0  0  0  0  0  0  0  0  0  0  0
   65.0220   33.7879   50.0074 H   0  0  0  0  0  0  0  0  0  0  0  0
   60.5794   33.4232   50.5418 H   0  0  0  0  0  0  0  0  0  0  0  0
   59.6360   29.9141   46.6513 H   0  0  0  0  0  0  0  0  0  0  0  0
   57.2461   27.9392   47.1153 H   0  0  0  0  0  0  0  0  0  0  0  0
   57.1843   25.5043   46.5850 H   0  0  0  0  0  0  0  0  0  0  0  0
   57.7290   24.7070   44.2838 H   0  0  0  0  0  0  0  0  0  0  0  0
   58.3488   26.3485   42.5092 H   0  0  0  0  0  0  0  0  0  0  0  0
   58.4187   28.7854   43.0265 H   0  0  0  0  0  0  0  0  0  0  0  0
   57.7511   34.4064   47.1872 H   0  0  0  0  0  0  0  0  0  0  0  0
   58.6358   34.6856   45.6490 H   0  0  0  0  0  0  0  0  0  0  0  0
   56.8420   34.5912   45.6490 H   0  0  0  0  0  0  0  0  0  0  0  0
   61.3076   32.7045   45.6528 H   0  0  0  0  0  0  0  0  0  0  0  0
  1  2  1  0
  2  3  1  0
  3  4  2  0
  4  5  1  0
  5  6  1  0
  5  7  2  0
  7  8  1  0
  8  9  2  0
  9 10  1  0
 10 11  1  0
 11 12  2  0
 12 13  1  0
 13 14  2  0
 14 15  1  0
 15 16  2  0
 10 17  2  0
 17 18  1  0
 18 19  2  0
 19 20  1  0
  7 21  1  0
 21 22  2  0
 22 23  1  0
 22  3  1  0
 19  8  1  0
 16 11  1  0
  1 24  1  0
  1 25  1  0
  1 26  1  0
  4 27  1  0
  9 28  1  0
 12 29  1  0
 13 30  1  0
 14 31  1  0
 15 32  1  0
 16 33  1  0
 20 34  1  0
 20 35  1  0
 20 36  1  0
 21 37  1  0
M  END
>  <UniqueID>  (4) 
4

>  <SMILES>  (4) 
COc1cc(Cl)c(-c2cc(-c3ccccc3)nnc2C)cc1Cl

>  <Energy>  (4) 
51.95643461472738

>  <Genealogy>  (4) 
COc1cc(Cl)c(-c2cc(-c3ccccc3)nnc2C)cc1Cl (3D coordinates assigned)
COc1cc(Cl)c(-c2cc(-c3ccccc3)nnc2C)cc1Cl (optimized conformer: 51.95643461472738 kcal/mol)

>  <smiles>  (4) 
COc1cc(Cl)c(-c2cc(-c3ccccc3)nnc2C)cc1Cl

>  <score_type>  (4) 
oracle

>  <origin>  (4) 
adg

>  <m_score__min__energy>  (4) 
-8.25

>  <m_primary>  (4) 
energy

$$$$
4:0
     RDKit          3D

 57 60  0  0  0  0  0  0  0  0999 V2000
   58.9368   34.5043   47.6626 H   0  0  0  0  0  0  0  0  0  0  0  0
   58.6130   33.8690   46.8250 C   0  0  0  0  0  0  0  0  0  0  0  0
   58.2900   34.4580   45.5830 C   0  0  0  0  0  0  0  0  0  0  0  0
   58.3681   35.5484   45.4604 H   0  0  0  0  0  0  0  0  0  0  0  0
   57.8690   33.6630   44.5000 C   0  0  0  0  0  0  0  0  0  0  0  0
   57.6191   34.1151   43.5289 H   0  0  0  0  0  0  0  0  0  0  0  0
   57.7780   32.2800   44.6960 C   0  0  0  0  0  0  0  0  0  0  0  0
   58.1030   31.7130   45.9130 C   0  0  0  0  0  0  0  0  0  0  0  0
   58.5240   32.4780   46.9990 C   0  0  0  0  0  0  0  0  0  0  0  0
   58.7782   32.0082   47.9606 H   0  0  0  0  0  0  0  0  0  0  0  0
   57.9440   30.3550   45.7620 C   0  0  0  0  0  0  0  0  0  0  0  0
   58.1450   29.3010   46.6500 C   0  0  0  0  0  0  0  0  0  0  0  0
   58.4616   29.4868   47.6869 H   0  0  0  0  0  0  0  0  0  0  0  0
   57.9300   27.9840   46.1790 C   0  0  0  0  0  0  0  0  0  0  0  0
   58.0830   26.8380   47.0350 N   0  0  0  0  0  0  0  0  0  0  0  0
   57.3490   25.7630   47.0410 C   0  0  0  0  0  0  0  0  0  0  0  0
   56.2030   25.6860   46.3180 N   0  0  0  0  0  0  0  0  0  0  0  0
   55.4360   24.5680   46.3490 C   0  0  0  0  0  0  0  0  0  0  0  0
   54.3500   24.5400   45.6300 N   0  0  0  0  0  0  0  0  0  0  0  0
   54.1180   23.7060   44.4530 C   0  0  0  0  0  0  0  0  0  0  0  0
   53.2858   24.1222   43.8664 H   0  0  0  0  0  0  0  0  0  0  0  0
   53.8657   22.6836   44.7707 H   0  0  0  0  0  0  0  0  0  0  0  0
   55.3840   23.6770   43.5940 C   0  0  0  0  0  0  0  0  0  0  0  0
   55.9672   24.5876   43.7957 H   0  0  0  0  0  0  0  0  0  0  0  0
   55.0701   23.6200   42.5413 H   0  0  0  0  0  0  0  0  0  0  0  0
   56.2680   22.4530   43.8820 C   0  0  0  0  0  0  0  0  0  0  0  0
   56.2566   21.7957   43.0000 H   0  0  0  0  0  0  0  0  0  0  0  0
   55.8586   21.9502   44.7706 H   0  0  0  0  0  0  0  0  0  0  0  0
   57.7160   22.8290   44.1920 C   0  0  0  0  0  0  0  0  0  0  0  0
   57.8598   22.8663   45.2819 H   0  0  0  0  0  0  0  0  0  0  0  0
   58.3911   22.0764   43.7586 H   0  0  0  0  0  0  0  0  0  0  0  0
   57.9396   23.8150   43.7586 H   0  0  0  0  0  0  0  0  0  0  0  0
   55.8190   23.5100   47.1250 N   0  0  0  0  0  0  0  0  0  0  0  0
   55.2400   22.6440   47.1450 H   0  0  0  0  0  0  0  0  0  0  0  0
   56.9630   23.5900   47.8720 C   0  0  0  0  0  0  0  0  0  0  0  0
   57.3630   22.6120   48.6360 N   0  0  0  0  0  0  0  0  0  0  0  0
   56.5900   21.9070   49.6580 C   0  0  0  0  0  0  0  0  0  0  0  0
   55.6477   22.4468   49.8332 H   0  0  0  0  0  0  0  0  0  0  0  0
   56.3872   20.8857   49.3033 H   0  0  0  0  0  0  0  0  0  0  0  0
   57.3690   21.8230   50.9680 C   0  0  0  0  0  0  0  0  0  0  0  0
   56.6712   21.8982   51.8150 H   0  0  0  0  0  0  0  0  0  0  0  0
   57.9023   20.8621   51.0165 H   0  0  0  0  0  0  0  0  0  0  0  0
   58.0949   22.6481   51.0165 H   0  0  0  0  0  0  0  0  0  0  0  0
   57.7160   24.7180   47.8200 N   0  0  0  0  0  0  0  0  0  0  0  0
   57.4820   27.7810   44.8530 C   0  0  0  0  0  0  0  0  0  0  0  0
   57.2812   26.7585   44.5005 H   0  0  0  0  0  0  0  0  0  0  0  0
   57.2890   28.8640   43.9780 C   0  0  0  0  0  0  0  0  0  0  0  0
   56.9591   28.7015   42.9413 H   0  0  0  0  0  0  0  0  0  0  0  0
   57.5280   30.1530   44.4620 C   0  0  0  0  0  0  0  0  0  0  0  0
   57.4070   31.3320   43.7990 N   0  0  0  0  0  0  0  0  0  0  0  0
   57.0510   31.5280   42.3910 C   0  0  0  0  0  0  0  0  0  0  0  0
   56.9673   30.5481   41.8982 H   0  0  0  0  0  0  0  0  0  0  0  0
   56.0904   32.0612   42.3361 H   0  0  0  0  0  0  0  0  0  0  0  0
   58.1180   32.3560   41.6850 C   0  0  0  0  0  0  0  0  0  0  0  0
   58.7543   32.8498   42.4342 H   0  0  0  0  0  0  0  0  0  0  0  0
   58.7356   31.6984   41.0556 H   0  0  0  0  0  0  0  0  0  0  0  0
   57.6343   33.1175   41.0556 H   0  0  0  0  0  0  0  0  0  0  0  0
  1  2  1  0
  2  3  2  0
  3  4  1  0
  3  5  1  0
  5  6  1  0
  5  7  2  0
  7  8  1  0
  8  9  2  0
  9 10  1  0
  8 11  1  0
 11 12  2  0
 12 13  1  0
 12 14  1  0
 14 15  1  0
 15 16  2  0
 16 17  1  0
 17 18  1  0
 18 19  2  3
 19 20  1  0
 20 21  1  0
 20 22  1  0
 20 23  1  0
 23 24  1  0
 23 25  1  0
 23 26  1  0
 26 27  1  0
 26 28  1  0
 26 29  1  0
 29 30  1  0
 29 31  1  0
 29 32  1  0
 18 33  1  0
 33 34  1  0
 33 35  1  0
 35 36  2  0
 36 37  1  0
 37 38  1  0
 37 39  1  0
 37 40  1  0
 40 41  1  0
 40 42  1  0
 40 43  1  0
 35 44  1  0
 14 45  2  0
 45 46  1  0
 45 47  1  0
 47 48  1  0
 47 49  2  0
 49 50  1  0
 50 51  1  0
 51 52  1  0
 51 53  1  0
 51 54  1  0
 54 55  1  0
 54 56  1  0
 54 57  1  0
  9  2  1  0
 49 11  1  0
 50  7  1  0
 44 16  1  0
M  CHG  2  17  -1  44  -1
M  END
>  <UniqueID>  (5) 
5

>  <SMILES>  (5) 
CCCCN=c1[n-]/c(=N\c2ccc3c(c2)c2ccccc2n3CC)[n-]/c(=N/CC)[nH]1

>  <Energy>  (5) 
98.93630970558371

>  <Genealogy>  (5) 
CCCCN=c1[n-]c(=Nc2ccc3c(c2)c2ccccc2n3CC)[n-]c(=NCC)[nH]1 (protonated)
CCCCN=c1[n-]/c(=N\c2ccc3c(c2)c2ccccc2n3CC)[n-]/c(=N/CC)[nH]1 (cis-trans isomerization)
CCCCN=c1[n-]/c(=N\c2ccc3c(c2)c2ccccc2n3CC)[n-]/c(=N/CC)[nH]1 (3D coordinates assigned)
CCCCN=c1[n-]/c(=N\c2ccc3c(c2)c2ccccc2n3CC)[n-]/c(=N/CC)[nH]1 (optimized conformer: 98.93630970558371 kcal/mol)

>  <smiles>  (5) 
CCCCN=c1[nH]c(=NCC)[nH]c(=Nc2ccc3c(c2)c2ccccc2n3CC)[nH]1

>  <score_type>  (5) 
oracle

>  <origin>  (5) 
adg

>  <m_score__min__energy>  (5) 
-11.720000000000001

>  <m_primary>  (5) 
energy

$$$$
5:0
     RDKit          3D

 38 40  0  0  0  0  0  0  0  0999 V2000
   58.7740   34.2690   45.8560 C   0  0  0  0  0  0  0  0  0  0  0  0
   59.9700   34.6180   46.3380 C   0  0  0  0  0  0  0  0  0  0  0  0
   61.2240   33.8880   45.9430 C   0  0  0  0  0  0  0  0  0  0  0  0
   61.6530   32.9790   47.0190 N   0  0  0  0  0  0  0  0  0  0  0  0
   62.7300   33.2810   47.8270 C   0  0  0  0  0  0  0  0  0  0  0  0
   63.3430   34.3740   47.6610 O   0  0  0  0  0  0  0  0  0  0  0  0
   63.1440   32.4030   48.8170 N   0  0  0  0  0  0  0  0  0  0  0  0
   64.2790   32.7540   49.6920 C   0  0  0  0  0  0  0  0  0  0  0  0
   63.8520   33.7850   50.7310 C   0  0  0  0  0  0  0  0  0  0  0  0
   62.4650   31.2210   49.0170 C   0  0  0  0  0  0  0  0  0  0  0  0
   62.7990   30.4150   49.9280 O   0  0  0  0  0  0  0  0  0  0  0  0
   61.3940   30.9310   48.1920 C   0  0  0  0  0  0  0  0  0  0  0  0
   60.6030   29.8490   48.1900 N   0  0  0  0  0  0  0  0  0  0  0  0
   59.7420   30.1160   47.1700 C   0  0  0  0  0  0  0  0  0  0  0  0
   58.6580   29.1930   46.7670 C   0  0  0  0  0  0  0  0  0  0  0  0
   58.6810   27.8480   47.1750 C   0  0  0  0  0  0  0  0  0  0  0  0
   57.6560   26.9760   46.7950 C   0  0  0  0  0  0  0  0  0  0  0  0
   56.5990   27.4360   46.0050 C   0  0  0  0  0  0  0  0  0  0  0  0
   55.5850   26.5610   45.6310 O   0  0  0  0  0  0  0  0  0  0  0  0
   56.5630   28.7720   45.5910 C   0  0  0  0  0  0  0  0  0  0  0  0
   55.5060   29.2240   44.8040 O   0  0  0  0  0  0  0  0  0  0  0  0
   57.5900   29.6480   45.9730 C   0  0  0  0  0  0  0  0  0  0  0  0
   59.9650   31.3080   46.5510 N   0  0  0  0  0  0  0  0  0  0  0  0
   61.0180   31.7930   47.2270 C   0  0  0  0  0  0  0  0  0  0  0  0
   57.8743   34.8222   46.1636 H   0  0  0  0  0  0  0  0  0  0  0  0
   58.6889   33.4285   45.1515 H   0  0  0  0  0  0  0  0  0  0  0  0
   60.0393   35.4607   47.0416 H   0  0  0  0  0  0  0  0  0  0  0  0
   61.0306   33.3037   45.0313 H   0  0  0  0  0  0  0  0  0  0  0  0
   62.0211   34.6238   45.7604 H   0  0  0  0  0  0  0  0  0  0  0  0
   64.6343   31.8483   50.2053 H   0  0  0  0  0  0  0  0  0  0  0  0
   65.0845   33.1811   49.0765 H   0  0  0  0  0  0  0  0  0  0  0  0
   64.0197   33.3800   51.7399 H   0  0  0  0  0  0  0  0  0  0  0  0
   64.4439   34.7031   50.6013 H   0  0  0  0  0  0  0  0  0  0  0  0
   62.7843   34.0157   50.6013 H   0  0  0  0  0  0  0  0  0  0  0  0
   59.5101   27.4793   47.7968 H   0  0  0  0  0  0  0  0  0  0  0  0
   57.6818   25.9251   47.1188 H   0  0  0  0  0  0  0  0  0  0  0  0
   54.7690   28.5980   44.4960 H   0  0  0  0  0  0  0  0  0  0  0  0
   57.5598   30.6988   45.6491 H   0  0  0  0  0  0  0  0  0  0  0  0
  1  2  2  0
  2  3  1  0
  3  4  1  0
  4  5  1  0
  5  6  2  0
  5  7  1  0
  7  8  1  0
  8  9  1  0
  7 10  1  0
 10 11  2  0
 10 12  1  0
 12 13  1  0
 13 14  1  0
 14 15  1  0
 15 16  2  0
 16 17  1  0
 17 18  2  0
 18 19  1  0
 18 20  1  0
 20 21  1  0
 20 22  2  0
 14 23  2  0
 23 24  1  0
 24  4  1  0
 24 12  2  0
 22 15  1  0
  1 25  1  0
  1 26  1  0
  2 27  1  0
  3 28  1  0
  3 29  1  0
  8 30  1  0
  8 31  1  0
  9 32  1  0
  9 33  1  0
  9 34  1  0
 16 35  1  0
 17 36  1  0
 21 37  1  0
 22 38  1  0
M  CHG  2  13  -1  19  -1
M  END
>  <UniqueID>  (6) 
6

>  <SMILES>  (6) 
C=CCn1c(=O)n(CC)c(=O)c2[n-]c(-c3ccc([O-])c(O)c3)nc21

>  <Energy>  (6) 
77.35510121607797

>  <Genealogy>  (6) 
C=CCn1c(=O)n(CC)c(=O)c2[n-]c(-c3ccc([O-])c(O)c3)nc21 (protonated)
C=CCn1c(=O)n(CC)c(=O)c2[n-]c(-c3ccc([O-])c(O)c3)nc21 (3D coordinates assigned)
C=CCn1c(=O)n(CC)c(=O)c2[n-]c(-c3ccc([O-])c(O)c3)nc21 (optimized conformer: 77.35510121607797 kcal/mol)

>  <smiles>  (6) 
C=CCn1c(=O)n(CC)c(=O)c2[nH]c(-c3ccc(O)c(O)c3)nc21

>  <score_type>  (6) 
oracle

>  <origin>  (6) 
adg

>  <m_score__min__energy>  (6) 
-10.390000000000001

>  <m_primary>  (6) 
energy

$$$$
6:0
     RDKit          3D

 41 43  0  0  0  0  0  0  0  0999 V2000
   56.6710   29.4250   43.6020 C   0  0  0  0  0  0  0  0  0  0  0  0
   56.7650   29.9660   44.9150 O   0  0  0  0  0  0  0  0  0  0  0  0
   57.4210   31.1660   45.2370 C   0  0  0  0  0  0  0  0  0  0  0  0
   57.0520   32.3950   44.6540 C   0  0  0  0  0  0  0  0  0  0  0  0
   57.7290   33.5700   44.9920 C   0  0  0  0  0  0  0  0  0  0  0  0
   58.7770   33.5350   45.9130 C   0  0  0  0  0  0  0  0  0  0  0  0
   59.7040   35.1420   46.3670 Br  0  0  0  0  0  0  0  0  0  0  0  0
   59.1500   32.3250   46.5010 C   0  0  0  0  0  0  0  0  0  0  0  0
   58.4790   31.1350   46.1700 C   0  0  0  0  0  0  0  0  0  0  0  0
   58.9160   29.8320   46.7950 C   0  0  0  0  0  0  0  0  0  0  0  0
   59.1270   28.7900   45.7760 N   0  0  0  0  0  0  0  0  0  0  0  0
   59.9130   27.6440   46.2650 C   0  0  0  0  0  0  0  0  0  0  0  0
   59.1730   26.3440   46.1330 C   0  0  0  0  0  0  0  0  0  0  0  0
   59.7360   25.0960   45.9910 C   0  0  0  0  0  0  0  0  0  0  0  0
   58.7540   24.2400   45.8540 O   0  0  0  0  0  0  0  0  0  0  0  0
   57.6300   24.9220   45.9020 C   0  0  0  0  0  0  0  0  0  0  0  0
   56.2920   24.3090   45.7750 C   0  0  0  0  0  0  0  0  0  0  0  0
   55.7350   24.0850   44.5050 C   0  0  0  0  0  0  0  0  0  0  0  0
   54.4670   23.5080   44.3810 C   0  0  0  0  0  0  0  0  0  0  0  0
   53.7420   23.1510   45.5230 C   0  0  0  0  0  0  0  0  0  0  0  0
   52.4800   22.5770   45.3850 O   0  0  0  0  0  0  0  0  0  0  0  0
   54.2910   23.3720   46.7920 C   0  0  0  0  0  0  0  0  0  0  0  0
   55.5590   23.9490   46.9190 C   0  0  0  0  0  0  0  0  0  0  0  0
   57.8330   26.2460   46.0730 N   0  0  0  0  0  0  0  0  0  0  0  0
   56.4830   28.3430   43.6639 H   0  0  0  0  0  0  0  0  0  0  0  0
   55.8438   29.9107   43.0637 H   0  0  0  0  0  0  0  0  0  0  0  0
   57.6136   29.6032   43.0637 H   0  0  0  0  0  0  0  0  0  0  0  0
   56.2260   32.4296   43.9284 H   0  0  0  0  0  0  0  0  0  0  0  0
   57.4352   34.5246   44.5311 H   0  0  0  0  0  0  0  0  0  0  0  0
   59.9748   32.3027   47.2285 H   0  0  0  0  0  0  0  0  0  0  0  0
   59.8574   29.9948   47.3403 H   0  0  0  0  0  0  0  0  0  0  0  0
   58.1226   29.4927   47.4772 H   0  0  0  0  0  0  0  0  0  0  0  0
   58.1910   28.4440   45.4620 H   0  0  0  0  0  0  0  0  0  0  0  0
   60.8446   27.5808   45.6835 H   0  0  0  0  0  0  0  0  0  0  0  0
   60.1152   27.8077   47.3338 H   0  0  0  0  0  0  0  0  0  0  0  0
   60.8106   24.8612   45.9923 H   0  0  0  0  0  0  0  0  0  0  0  0
   56.2992   24.3649   43.6031 H   0  0  0  0  0  0  0  0  0  0  0  0
   54.0386   23.3344   43.3828 H   0  0  0  0  0  0  0  0  0  0  0  0
   52.1610   22.2060   44.4980 H   0  0  0  0  0  0  0  0  0  0  0  0
   53.7236   23.0911   47.6916 H   0  0  0  0  0  0  0  0  0  0  0  0
   55.9843   24.1218   47.9186 H   0  0  0  0  0  0  0  0  0  0  0  0
  1  2  1  0
  2  3  1  0
  3  4  2  0
  4  5  1  0
  5  6  2  0
  6  7  1  0
  6  8  1  0
  8  9  2  0
  9 10  1  0
 10 11  1  0
 11 12  1  0
 12 13  1  0
 13 14  2  0
 14 15  1  0
 15 16  1  0
 16 17  1  0
 17 18  2  0
 18 19  1  0
 19 20  2  0
 20 21  1  0
 20 22  1  0
 22 23  2  0
 16 24  2  0
  9  3  1  0
 24 13  1  0
 23 17  1  0
  1 25  1  0
  1 26  1  0
  1 27  1  0
  4 28  1  0
  5 29  1  0
  8 30  1  0
 10 31  1  0
 10 32  1  0
 11 33  1  0
 12 34  1  0
 12 35  1  0
 14 36  1  0
 18 37  1  0
 19 38  1  0
 21 39  1  0
 22 40  1  0
 23 41  1  0
M  END
>  <UniqueID>  (7) 
7

>  <SMILES>  (7) 
COc1ccc(Br)cc1CNCc1coc(-c2ccc(O)cc2)n1

>  <Energy>  (7) 
70.93806111832835

>  <Genealogy>  (7) 
COc1ccc(Br)cc1CNCc1coc(-c2ccc(O)cc2)n1 (3D coordinates assigned)
COc1ccc(Br)cc1CNCc1coc(-c2ccc(O)cc2)n1 (optimized conformer: 70.93806111832835 kcal/mol)

>  <smiles>  (7) 
COc1ccc(Br)cc1CNCc1coc(-c2ccc(O)cc2)n1

>  <score_type>  (7) 
oracle

>  <origin>  (7) 
adg

>  <m_score__min__energy>  (7) 
-7.8200000000000003

>  <m_primary>  (7) 
energy

$$$$
7:0
     RDKit          3D

 50 52  0  0  0  0  0  0  0  0999 V2000
   65.1640   32.3100   50.1310 C   0  0  0  0  0  0  0  0  0  0  0  0
   64.8990   33.1310   48.9960 O   0  0  0  0  0  0  0  0  0  0  0  0
   63.6030   33.4830   48.5750 C   0  0  0  0  0  0  0  0  0  0  0  0
   63.3110   33.4220   47.2130 C   0  0  0  0  0  0  0  0  0  0  0  0
   62.0340   33.7450   46.7370 C   0  0  0  0  0  0  0  0  0  0  0  0
   61.0280   34.1610   47.6230 C   0  0  0  0  0  0  0  0  0  0  0  0
   59.6370   34.4950   47.1150 C   0  0  0  0  0  0  0  0  0  0  0  0
   59.0510   33.3330   46.4060 N   0  0  0  0  0  0  0  0  0  0  0  0
   58.8250   33.4710   44.9790 C   0  0  0  0  0  0  0  0  0  0  0  0
   59.2100   34.5050   44.3600 O   0  0  0  0  0  0  0  0  0  0  0  0
   58.1440   32.4020   44.2390 C   0  0  0  0  0  0  0  0  0  0  0  0
   57.8400   32.5420   42.9170 N   0  0  0  0  0  0  0  0  0  0  0  0
   57.1340   31.5940   42.2290 C   0  0  0  0  0  0  0  0  0  0  0  0
   56.6810   30.4440   42.8850 C   0  0  0  0  0  0  0  0  0  0  0  0
   56.9780   30.2780   44.2420 C   0  0  0  0  0  0  0  0  0  0  0  0
   57.7320   31.2560   44.9270 C   0  0  0  0  0  0  0  0  0  0  0  0
   58.0520   31.1060   46.3210 N   0  0  0  0  0  0  0  0  0  0  0  0
   59.0490   31.9610   46.9970 C   0  0  2  0  0  0  0  0  0  0  0  0
   58.7870   31.9170   48.5460 C   0  0  0  0  0  0  0  0  0  0  0  0
   59.7260   30.9620   49.3560 C   0  0  0  0  0  0  0  0  0  0  0  0
   61.0360   30.6930   48.5840 C   0  0  0  0  0  0  0  0  0  0  0  0
   59.0000   29.6100   49.5480 C   0  0  0  0  0  0  0  0  0  0  0  0
   60.0470   31.5300   50.7560 C   0  0  0  0  0  0  0  0  0  0  0  0
   61.3200   34.2270   48.9990 C   0  0  0  0  0  0  0  0  0  0  0  0
   62.5960   33.8950   49.4730 C   0  0  0  0  0  0  0  0  0  0  0  0
   64.9785   32.8846   51.0505 H   0  0  0  0  0  0  0  0  0  0  0  0
   64.5042   31.4301   50.1091 H   0  0  0  0  0  0  0  0  0  0  0  0
   66.2137   31.9819   50.1091 H   0  0  0  0  0  0  0  0  0  0  0  0
   64.0937   33.1162   46.5031 H   0  0  0  0  0  0  0  0  0  0  0  0
   61.8179   33.6721   45.6609 H   0  0  0  0  0  0  0  0  0  0  0  0
   58.9944   34.7608   47.9673 H   0  0  0  0  0  0  0  0  0  0  0  0
   59.7072   35.3407   46.4151 H   0  0  0  0  0  0  0  0  0  0  0  0
   56.9221   31.7357   41.1589 H   0  0  0  0  0  0  0  0  0  0  0  0
   56.1009   29.6829   42.3426 H   0  0  0  0  0  0  0  0  0  0  0  0
   56.6236   29.3842   44.7763 H   0  0  0  0  0  0  0  0  0  0  0  0
   57.7030   30.2380   46.8080 H   0  0  0  0  0  0  0  0  0  0  0  0
   60.0693   31.5826   46.8363 H   0  0  0  0  0  0  0  0  0  0  0  0
   58.9151   32.9354   48.9415 H   0  0  0  0  0  0  0  0  0  0  0  0
   57.7686   31.5206   48.6712 H   0  0  0  0  0  0  0  0  0  0  0  0
   61.8550   30.5248   49.2989 H   0  0  0  0  0  0  0  0  0  0  0  0
   60.9125   29.8015   47.9516 H   0  0  0  0  0  0  0  0  0  0  0  0
   61.2738   31.5611   47.9516 H   0  0  0  0  0  0  0  0  0  0  0  0
   58.8888   29.4029   50.6226 H   0  0  0  0  0  0  0  0  0  0  0  0
   58.0061   29.6576   49.0790 H   0  0  0  0  0  0  0  0  0  0  0  0
   59.5887   28.8078   49.0790 H   0  0  0  0  0  0  0  0  0  0  0  0
   59.6607   30.8465   51.5264 H   0  0  0  0  0  0  0  0  0  0  0  0
   61.1364   31.6321   50.8693 H   0  0  0  0  0  0  0  0  0  0  0  0
   59.5725   32.5159   50.8693 H   0  0  0  0  0  0  0  0  0  0  0  0
   60.5398   34.5418   49.7076 H   0  0  0  0  0  0  0  0  0  0  0  0
   62.8135   33.9558   50.5496 H   0  0  0  0  0  0  0  0  0  0  0  0
  1  2  1  0
  2  3  1  0
  3  4  2  0
  4  5  1  0
  5  6  2  0
  6  7  1  0
  7  8  1  0
  8  9  1  0
  9 10  2  0
  9 11  1  0
 11 12  2  0
 12 13  1  0
 13 14  2  0
 14 15  1  0
 15 16  2  0
 16 17  1  0
 17 18  1  0
 18 19  1  0
 19 20  1  0
 20 21  1  0
 20 22  1  0
 20 23  1  0
  6 24  1  0
 24 25  2  0
 25  3  1  0
 18  8  1  0
 16 11  1  0
  1 26  1  0
  1 27  1  0
  1 28  1  0
  4 29  1  0
  5 30  1  0
  7 31  1  0
  7 32  1  0
 13 33  1  0
 14 34  1  0
 15 35  1  0
 17 36  1  0
 18 37  1  1
 19 38  1  0
 19 39  1  0
 21 40  1  0
 21 41  1  0
 21 42  1  0
 22 43  1  0
 22 44  1  0
 22 45  1  0
 23 46  1  0
 23 47  1  0
 23 48  1  0
 24 49  1  0
 25 50  1  0
M  END
>  <UniqueID>  (8) 
8

>  <SMILES>  (8) 
COc1ccc(CN2C(=O)c3ncccc3N[C@@H]2CC(C)(C)C)cc1

>  <Energy>  (8) 
57.865230076167315

>  <Genealogy>  (8) 
COc1ccc(CN2C(=O)c3ncccc3N[C@@H]2CC(C)(C)C)cc1 (chirality)
COc1ccc(CN2C(=O)c3ncccc3N[C@@H]2CC(C)(C)C)cc1 (3D coordinates assigned)
COc1ccc(CN2C(=O)c3ncccc3N[C@@H]2CC(C)(C)C)cc1 (nonaromatic ring conformer: 57.865230076167315 kcal/mol)

>  <smiles>  (8) 
COc1ccc(CN2C(=O)c3ncccc3NC2CC(C)(C)C)cc1

>  <score_type>  (8) 
oracle

>  <origin>  (8) 
adg

>  <m_score__min__energy>  (8) 
-6.9299999999999997

>  <m_primary>  (8) 
energy

$$$$
8:0
     RDKit          3D

 73 77  0  0  0  0  0  0  0  0999 V2000
   60.9520   34.2460   48.8530 C   0  0  0  0  0  0  0  0  0  0  0  0
   60.8140   34.0480   47.4010 N   0  0  0  0  0  0  0  0  0  0  0  0
   62.1220   33.8300   46.7640 C   0  0  0  0  0  0  0  0  0  0  0  0
   60.0200   35.1150   46.7480 C   0  0  0  0  0  0  0  0  0  0  0  0
   58.8730   34.5980   45.8600 C   0  0  0  0  0  0  0  0  0  0  0  0
   58.7770   33.1460   45.9640 N   0  0  0  0  0  0  0  0  0  0  0  0
   58.0430   32.3520   45.0140 C   0  0  0  0  0  0  0  0  0  0  0  0
   57.5480   32.8980   43.9900 O   0  0  0  0  0  0  0  0  0  0  0  0
   57.8650   30.8960   45.2140 C   0  0  0  0  0  0  0  0  0  0  0  0
   57.2520   30.1170   44.2190 C   0  0  0  0  0  0  0  0  0  0  0  0
   57.1020   28.7370   44.3910 C   0  0  0  0  0  0  0  0  0  0  0  0
   57.5630   28.1080   45.5560 C   0  0  0  0  0  0  0  0  0  0  0  0
   57.4270   26.6400   45.7140 C   0  0  0  0  0  0  0  0  0  0  0  0
   57.3540   25.7890   44.5970 C   0  0  0  0  0  0  0  0  0  0  0  0
   57.2290   24.4120   44.7840 C   0  0  0  0  0  0  0  0  0  0  0  0
   57.1850   23.8820   46.0810 C   0  0  0  0  0  0  0  0  0  0  0  0
   57.0620   22.5050   46.3460 C   0  0  0  0  0  0  0  0  0  0  0  0
   57.0060   21.5360   45.2920 N   0  0  0  0  0  0  0  0  0  0  0  0
   56.1400   20.3590   45.4680 C   0  0  0  0  0  0  0  0  0  0  0  0
   55.8380   19.6130   44.1430 C   0  0  0  0  0  0  0  0  0  0  0  0
   56.0690   20.4030   42.9960 O   0  0  0  0  0  0  0  0  0  0  0  0
   57.4190   20.8030   42.9770 C   0  0  0  0  0  0  0  0  0  0  0  0
   57.6360   21.8910   44.0140 C   0  0  0  0  0  0  0  0  0  0  0  0
   56.9880   22.0810   47.6340 N   0  0  0  0  0  0  0  0  0  0  0  0
   57.0400   22.9460   48.6830 C   0  0  0  0  0  0  0  0  0  0  0  0
   56.9740   22.4440   50.0340 N   0  0  0  0  0  0  0  0  0  0  0  0
   55.7240   21.8470   50.5310 C   0  0  0  0  0  0  0  0  0  0  0  0
   55.9800   21.0350   51.8090 C   0  0  0  0  0  0  0  0  0  0  0  0
   56.6670   21.8220   52.8610 N   0  0  0  0  0  0  0  0  0  0  0  0
   55.7010   22.4980   53.7430 C   0  0  0  0  0  0  0  0  0  0  0  0
   57.6860   22.7810   52.3550 C   0  0  0  0  0  0  0  0  0  0  0  0
   58.1410   22.4790   50.9210 C   0  0  0  0  0  0  0  0  0  0  0  0
   57.1660   24.2810   48.4430 N   0  0  0  0  0  0  0  0  0  0  0  0
   57.2380   24.7650   47.1770 C   0  0  0  0  0  0  0  0  0  0  0  0
   57.3540   26.1040   46.9660 N   0  0  0  0  0  0  0  0  0  0  0  0
   58.1340   28.8940   46.5690 C   0  0  0  0  0  0  0  0  0  0  0  0
   58.2840   30.2720   46.4010 C   0  0  0  0  0  0  0  0  0  0  0  0
   60.4014   33.4560   49.3847 H   0  0  0  0  0  0  0  0  0  0  0  0
   62.0157   34.2014   49.1297 H   0  0  0  0  0  0  0  0  0  0  0  0
   60.5420   35.2285   49.1297 H   0  0  0  0  0  0  0  0  0  0  0  0
   62.8910   33.7018   47.5401 H   0  0  0  0  0  0  0  0  0  0  0  0
   62.0789   32.9267   46.1378 H   0  0  0  0  0  0  0  0  0  0  0  0
   62.3742   34.6985   46.1378 H   0  0  0  0  0  0  0  0  0  0  0  0
   59.5873   35.7521   47.5334 H   0  0  0  0  0  0  0  0  0  0  0  0
   60.7092   35.6604   46.0865 H   0  0  0  0  0  0  0  0  0  0  0  0
   57.9256   35.0502   46.1887 H   0  0  0  0  0  0  0  0  0  0  0  0
   59.0743   34.8725   44.8140 H   0  0  0  0  0  0  0  0  0  0  0  0
   59.2660   32.6840   46.7670 H   0  0  0  0  0  0  0  0  0  0  0  0
   56.8873   30.5955   43.2981 H   0  0  0  0  0  0  0  0  0  0  0  0
   56.6177   28.1395   43.6046 H   0  0  0  0  0  0  0  0  0  0  0  0
   57.3953   26.2070   43.5804 H   0  0  0  0  0  0  0  0  0  0  0  0
   57.1650   23.7423   43.9137 H   0  0  0  0  0  0  0  0  0  0  0  0
   56.6376   19.6598   46.1562 H   0  0  0  0  0  0  0  0  0  0  0  0
   55.1791   20.7192   45.8641 H   0  0  0  0  0  0  0  0  0  0  0  0
   56.4805   18.7217   44.0891 H   0  0  0  0  0  0  0  0  0  0  0  0
   54.7695   19.3516   44.1507 H   0  0  0  0  0  0  0  0  0  0  0  0
   58.0609   19.9405   43.2098 H   0  0  0  0  0  0  0  0  0  0  0  0
   57.6743   21.1894   41.9793 H   0  0  0  0  0  0  0  0  0  0  0  0
   58.7161   22.0271   44.1714 H   0  0  0  0  0  0  0  0  0  0  0  0
   57.1790   22.8212   43.6455 H   0  0  0  0  0  0  0  0  0  0  0  0
   55.0036   22.6487   50.7509 H   0  0  0  0  0  0  0  0  0  0  0  0
   55.3226   21.1739   49.7591 H   0  0  0  0  0  0  0  0  0  0  0  0
   55.0140   20.6876   52.2042 H   0  0  0  0  0  0  0  0  0  0  0  0
   56.6372   20.1944   51.5416 H   0  0  0  0  0  0  0  0  0  0  0  0
   55.9694   22.3102   54.7931 H   0  0  0  0  0  0  0  0  0  0  0  0
   55.7209   23.5803   53.5474 H   0  0  0  0  0  0  0  0  0  0  0  0
   54.6910   22.1086   53.5474 H   0  0  0  0  0  0  0  0  0  0  0  0
   57.2560   23.7932   52.3795 H   0  0  0  0  0  0  0  0  0  0  0  0
   58.5697   22.6916   53.0039 H   0  0  0  0  0  0  0  0  0  0  0  0
   58.8343   23.2635   50.5836 H   0  0  0  0  0  0  0  0  0  0  0  0
   58.6495   21.5039   50.8958 H   0  0  0  0  0  0  0  0  0  0  0  0
   58.4665   28.4199   47.5042 H   0  0  0  0  0  0  0  0  0  0  0  0
   58.7338   30.8738   47.2044 H   0  0  0  0  0  0  0  0  0  0  0  0
  1  2  1  0
  2  3  1  0
  2  4  1  0
  4  5  1  0
  5  6  1  0
  6  7  1  0
  7  8  2  0
  7  9  1  0
  9 10  2  0
 10 11  1  0
 11 12  2  0
 12 13  1  0
 13 14  2  0
 14 15  1  0
 15 16  2  0
 16 17  1  0
 17 18  1  0
 18 19  1  0
 19 20  1  0
 20 21  1  0
 21 22  1  0
 22 23  1  0
 17 24  2  0
 24 25  1  0
 25 26  1  0
 26 27  1  0
 27 28  1  0
 28 29  1  0
 29 30  1  0
 29 31  1  0
 31 32  1  0
 25 33  2  0
 33 34  1  0
 34 35  2  0
 12 36  1  0
 36 37  2  0
 37  9  1  0
 35 13  1  0
 34 16  1  0
 23 18  1  0
 32 26  1  0
  1 38  1  0
  1 39  1  0
  1 40  1  0
  3 41  1  0
  3 42  1  0
  3 43  1  0
  4 44  1  0
  4 45  1  0
  5 46  1  0
  5 47  1  0
  6 48  1  0
 10 49  1  0
 11 50  1  0
 14 51  1  0
 15 52  1  0
 19 53  1  0
 19 54  1  0
 20 55  1  0
 20 56  1  0
 22 57  1  0
 22 58  1  0
 23 59  1  0
 23 60  1  0
 27 61  1  0
 27 62  1  0
 28 63  1  0
 28 64  1  0
 30 65  1  0
 30 66  1  0
 30 67  1  0
 31 68  1  0
 31 69  1  0
 32 70  1  0
 32 71  1  0
 36 72  1  0
 37 73  1  0
M  END
>  <UniqueID>  (9) 
9

>  <SMILES>  (9) 
CN(C)CCNC(=O)c1ccc(-c2ccc3c(N4CCOCC4)nc(N4CCN(C)CC4)nc3n2)cc1

>  <Energy>  (9) 
104.68110915565518

>  <Genealogy>  (9) 
CN(C)CCNC(=O)c1ccc(-c2ccc3c(N4CCOCC4)nc(N4CCN(C)CC4)nc3n2)cc1 (3D coordinates assigned)
CN(C)CCNC(=O)c1ccc(-c2ccc3c(N4CCOCC4)nc(N4CCN(C)CC4)nc3n2)cc1 (nonaromatic ring conformer: 104.68110915565518 kcal/mol)

>  <smiles>  (9) 
CN(C)CCNC(=O)c1ccc(-c2ccc3c(N4CCOCC4)nc(N4CCN(C)CC4)nc3n2)cc1

>  <score_type>  (9) 
oracle

>  <origin>  (9) 
adg

>  <m_score__min__energy>  (9) 
-7.5899999999999999

>  <m_primary>  (9) 
energy

$$$$
9:0
     RDKit          3D

 36 38  0  0  0  0  0  0  0  0999 V2000
   59.5320   28.6210   44.5730 C   0  0  0  0  0  0  0  0  0  0  0  0
   60.1210   29.3310   45.7870 C   0  0  0  0  0  0  0  0  0  0  0  0
   59.1660   30.2090   46.3530 O   0  0  0  0  0  0  0  0  0  0  0  0
   59.7600   31.0150   47.3500 C   0  0  0  0  0  0  0  0  0  0  0  0
   60.1350   32.3850   46.7610 C   0  0  2  0  0  0  0  0  0  0  0  0
   61.4110   32.8790   47.3910 C   0  0  0  0  0  0  0  0  0  0  0  0
   62.9750   32.3240   47.1250 S   0  0  0  0  0  0  0  0  0  0  0  0
   63.6470   33.3800   48.2570 C   0  0  0  0  0  0  0  0  0  0  0  0
   62.6970   34.1500   48.8370 N   0  0  0  0  0  0  0  0  0  0  0  0
   61.4600   33.8740   48.3480 C   0  0  0  0  0  0  0  0  0  0  0  0
   60.2170   34.5580   48.8040 C   0  0  0  0  0  0  0  0  0  0  0  0
   59.2380   34.6570   47.6290 C   0  0  0  0  0  0  0  0  0  0  0  0
   59.0250   33.3440   46.9850 N   0  0  0  0  0  0  0  0  0  0  0  0
   57.7860   33.1310   46.2890 C   0  0  0  0  0  0  0  0  0  0  0  0
   56.7010   33.4630   46.8370 O   0  0  0  0  0  0  0  0  0  0  0  0
   57.7730   32.5600   44.9270 C   0  0  0  0  0  0  0  0  0  0  0  0
   57.0960   31.3740   44.5960 C   0  0  0  0  0  0  0  0  0  0  0  0
   57.1940   31.0330   43.2550 C   0  0  0  0  0  0  0  0  0  0  0  0
   58.1130   32.2090   42.4820 S   0  0  0  0  0  0  0  0  0  0  0  0
   58.3980   33.1610   43.8370 C   0  0  0  0  0  0  0  0  0  0  0  0
   58.8631   27.8147   44.9085 H   0  0  0  0  0  0  0  0  0  0  0  0
   58.9627   29.3415   43.9673 H   0  0  0  0  0  0  0  0  0  0  0  0
   60.3452   28.1946   43.9673 H   0  0  0  0  0  0  0  0  0  0  0  0
   60.4158   28.5828   46.5375 H   0  0  0  0  0  0  0  0  0  0  0  0
   60.9991   29.9130   45.4704 H   0  0  0  0  0  0  0  0  0  0  0  0
   59.0484   31.1559   48.1769 H   0  0  0  0  0  0  0  0  0  0  0  0
   60.6690   30.5197   47.7220 H   0  0  0  0  0  0  0  0  0  0  0  0
   60.2998   32.2903   45.6775 H   0  0  0  0  0  0  0  0  0  0  0  0
   64.7199   33.4354   48.4932 H   0  0  0  0  0  0  0  0  0  0  0  0
   59.7567   33.9803   49.6191 H   0  0  0  0  0  0  0  0  0  0  0  0
   60.4618   35.5668   49.1679 H   0  0  0  0  0  0  0  0  0  0  0  0
   58.2731   35.0335   47.9993 H   0  0  0  0  0  0  0  0  0  0  0  0
   59.6664   35.3409   46.8815 H   0  0  0  0  0  0  0  0  0  0  0  0
   56.5407   30.7727   45.3309 H   0  0  0  0  0  0  0  0  0  0  0  0
   56.7478   30.1469   42.7800 H   0  0  0  0  0  0  0  0  0  0  0  0
   58.9772   34.0959   43.8593 H   0  0  0  0  0  0  0  0  0  0  0  0
  1  2  1  0
  2  3  1  0
  3  4  1  0
  4  5  1  0
  5  6  1  0
  6  7  1  0
  7  8  1  0
  8  9  2  0
  9 10  1  0
 10 11  1  0
 11 12  1  0
 12 13  1  0
 13 14  1  0
 14 15  2  0
 14 16  1  0
 16 17  1  0
 17 18  2  0
 18 19  1  0
 19 20  1  0
 13  5  1  0
 20 16  2  0
 10  6  2  0
  1 21  1  0
  1 22  1  0
  1 23  1  0
  2 24  1  0
  2 25  1  0
  4 26  1  0
  4 27  1  0
  5 28  1  6
  8 29  1  0
 11 30  1  0
 11 31  1  0
 12 32  1  0
 12 33  1  0
 17 34  1  0
 18 35  1  0
 20 36  1  0
M  END
>  <UniqueID>  (10) 
10

>  <SMILES>  (10) 
CCOC[C@@H]1c2scnc2CCN1C(=O)c1ccsc1

>  <Energy>  (10) 
96.6039807054511

>  <Genealogy>  (10) 
CCOC[C@@H]1c2scnc2CCN1C(=O)c1ccsc1 (chirality)
CCOC[C@@H]1c2scnc2CCN1C(=O)c1ccsc1 (3D coordinates assigned)
CCOC[C@@H]1c2scnc2CCN1C(=O)c1ccsc1 (nonaromatic ring conformer: 96.6039807054511 kcal/mol)

>  <smiles>  (10) 
CCOCC1c2scnc2CCN1C(=O)c1ccsc1

>  <score_type>  (10) 
oracle

>  <origin>  (10) 
adg

>  <m_score__min__energy>  (10) 
-6.54

>  <m_primary>  (10) 
energy

$$$$
10:0
     RDKit          3D

 33 36  0  0  0  0  0  0  0  0999 V2000
   64.1610   33.4480   48.2470 C   0  0  0  0  0  0  0  0  0  0  0  0
   63.5390   33.2100   47.0260 C   0  0  0  0  0  0  0  0  0  0  0  0
   62.1440   33.1810   46.9340 C   0  0  0  0  0  0  0  0  0  0  0  0
   61.3330   33.3900   48.0750 C   0  0  0  0  0  0  0  0  0  0  0  0
   59.8980   33.3750   48.0660 C   0  0  0  0  0  0  0  0  0  0  0  0
   59.0270   33.1410   46.8710 C   0  0  0  0  0  0  0  0  0  0  0  0
   58.3170   34.1770   46.2550 C   0  0  0  0  0  0  0  0  0  0  0  0
   57.4590   33.5380   44.9600 S   0  0  0  0  0  0  0  0  0  0  0  0
   58.0130   31.9700   45.2180 C   0  0  0  0  0  0  0  0  0  0  0  0
   57.6590   30.7800   44.4110 C   0  0  0  0  0  0  0  0  0  0  0  0
   56.6460   30.8380   43.4400 C   0  0  0  0  0  0  0  0  0  0  0  0
   56.3360   29.6960   42.6950 C   0  0  0  0  0  0  0  0  0  0  0  0
   57.0100   28.5340   42.9080 N   0  0  0  0  0  0  0  0  0  0  0  0
   57.9960   28.4490   43.8420 C   0  0  0  0  0  0  0  0  0  0  0  0
   58.3370   29.5660   44.6080 C   0  0  0  0  0  0  0  0  0  0  0  0
   58.8450   31.9280   46.2820 N   0  0  0  0  0  0  0  0  0  0  0  0
   59.2400   33.5930   49.2410 N   0  0  0  0  0  0  0  0  0  0  0  0
   59.8640   33.8220   50.4200 C   0  0  0  0  0  0  0  0  0  0  0  0
   61.2480   33.8450   50.4810 C   0  0  0  0  0  0  0  0  0  0  0  0
   61.9920   33.6320   49.3180 C   0  0  0  0  0  0  0  0  0  0  0  0
   63.3940   33.6570   49.3890 C   0  0  0  0  0  0  0  0  0  0  0  0
   65.2590   33.4710   48.3099 H   0  0  0  0  0  0  0  0  0  0  0  0
   64.1490   33.0433   46.1259 H   0  0  0  0  0  0  0  0  0  0  0  0
   61.6695   32.9928   45.9596 H   0  0  0  0  0  0  0  0  0  0  0  0
   58.3201   35.2321   46.5662 H   0  0  0  0  0  0  0  0  0  0  0  0
   56.0994   31.7767   43.2665 H   0  0  0  0  0  0  0  0  0  0  0  0
   55.5435   29.7376   41.9333 H   0  0  0  0  0  0  0  0  0  0  0  0
   56.7660   27.6900   42.3430 H   0  0  0  0  0  0  0  0  0  0  0  0
   58.5263   27.4973   43.9942 H   0  0  0  0  0  0  0  0  0  0  0  0
   59.1339   29.4951   45.3630 H   0  0  0  0  0  0  0  0  0  0  0  0
   59.2714   33.9901   51.3313 H   0  0  0  0  0  0  0  0  0  0  0  0
   61.7573   34.0297   51.4384 H   0  0  0  0  0  0  0  0  0  0  0  0
   63.8892   33.8430   50.3535 H   0  0  0  0  0  0  0  0  0  0  0  0
  1  2  2  0
  2  3  1  0
  3  4  2  0
  4  5  1  0
  5  6  1  0
  6  7  2  0
  7  8  1  0
  8  9  1  0
  9 10  1  0
 10 11  2  0
 11 12  1  0
 12 13  2  0
 13 14  1  0
 14 15  2  0
  9 16  2  0
  5 17  2  0
 17 18  1  0
 18 19  2  0
 19 20  1  0
 20 21  2  0
 21  1  1  0
 20  4  1  0
 16  6  1  0
 15 10  1  0
  1 22  1  0
  2 23  1  0
  3 24  1  0
  7 25  1  0
 11 26  1  0
 12 27  1  0
 13 28  1  0
 14 29  1  0
 15 30  1  0
 18 31  1  0
 19 32  1  0
 21 33  1  0
M  CHG  1  13   1
M  END
>  <UniqueID>  (11) 
11

>  <SMILES>  (11) 
c1ccc2c(-c3csc(-c4cc[nH+]cc4)n3)nccc2c1

>  <Energy>  (11) 
80.94992737618819

>  <Genealogy>  (11) 
c1ccc2c(-c3csc(-c4cc[nH+]cc4)n3)nccc2c1 (protonated)
c1ccc2c(-c3csc(-c4cc[nH+]cc4)n3)nccc2c1 (3D coordinates assigned)
c1ccc2c(-c3csc(-c4cc[nH+]cc4)n3)nccc2c1 (optimized conformer: 80.94992737618819 kcal/mol)

>  <smiles>  (11) 
c1ccc2c(-c3csc(-c4ccncc4)n3)nccc2c1

>  <score_type>  (11) 
oracle

>  <origin>  (11) 
adg

>  <m_score__min__energy>  (11) 
-6.6299999999999999

>  <m_primary>  (11) 
energy

$$$$
11:0
     RDKit          3D

 50 53  0  0  0  0  0  0  0  0999 V2000
   57.3040   31.5990   42.2530 C   0  0  0  0  0  0  0  0  0  0  0  0
   57.9040   31.0530   43.4880 N   0  0  2  0  0  0  0  0  0  0  0  0
   56.9400   30.2190   44.1900 C   0  0  0  0  0  0  0  0  0  0  0  0
   55.8890   30.7220   44.5700 O   0  0  0  0  0  0  0  0  0  0  0  0
   57.1400   28.7240   44.4650 C   0  0  1  0  0  0  0  0  0  0  0  0
   58.3490   28.0580   43.7510 C   0  0  1  0  0  0  0  0  0  0  0  0
   59.6820   28.3200   44.4960 C   0  0  0  0  0  0  0  0  0  0  0  0
   59.5860   27.8080   45.9520 C   0  0  2  0  0  0  0  0  0  0  0  0
   59.3260   26.2860   45.9350 C   0  0  0  0  0  0  0  0  0  0  0  0
   57.9980   26.0040   45.2000 C   0  0  2  0  0  0  0  0  0  0  0  0
   58.1050   26.5250   43.7430 C   0  0  0  0  0  0  0  0  0  0  0  0
   56.8410   26.7210   45.9450 C   0  0  0  0  0  0  0  0  0  0  0  0
   57.0900   28.2550   45.9490 C   0  0  1  0  0  0  0  0  0  0  0  0
   58.4250   28.5050   46.6960 C   0  0  0  0  0  0  0  0  0  0  0  0
   58.5020   32.0790   44.3950 C   0  0  0  0  0  0  0  0  0  0  0  0
   58.9090   31.5360   45.7980 C   0  0  0  0  0  0  0  0  0  0  0  0
   59.2110   32.6910   46.7580 C   0  0  0  0  0  0  0  0  0  0  0  0
   57.9740   33.5810   47.0000 C   0  0  0  0  0  0  0  0  0  0  0  0
   56.9470   33.5280   45.8540 C   0  0  0  0  0  0  0  0  0  0  0  0
   57.6270   33.3700   44.4880 C   0  0  0  0  0  0  0  0  0  0  0  0
   56.5140   32.3179   42.5159 H   0  0  0  0  0  0  0  0  0  0  0  0
   58.0801   32.1071   41.6618 H   0  0  0  0  0  0  0  0  0  0  0  0
   56.8712   30.7785   41.6618 H   0  0  0  0  0  0  0  0  0  0  0  0
   58.6800   30.4520   43.1620 H   0  0  0  0  0  0  0  0  0  0  0  0
   56.2168   28.3559   43.9936 H   0  0  0  0  0  0  0  0  0  0  0  0
   58.4300   28.4802   42.7385 H   0  0  0  0  0  0  0  0  0  0  0  0
   59.8887   29.4004   44.5030 H   0  0  0  0  0  0  0  0  0  0  0  0
   60.4940   27.7872   43.9796 H   0  0  0  0  0  0  0  0  0  0  0  0
   60.5300   28.0319   46.4704 H   0  0  0  0  0  0  0  0  0  0  0  0
   59.2610   25.9127   46.9677 H   0  0  0  0  0  0  0  0  0  0  0  0
   60.1507   25.7768   45.4148 H   0  0  0  0  0  0  0  0  0  0  0  0
   57.7956   24.9229   45.1814 H   0  0  0  0  0  0  0  0  0  0  0  0
   57.1695   26.3066   43.2072 H   0  0  0  0  0  0  0  0  0  0  0  0
   58.9453   26.0254   43.2388 H   0  0  0  0  0  0  0  0  0  0  0  0
   56.7922   26.3560   46.9815 H   0  0  0  0  0  0  0  0  0  0  0  0
   55.8912   26.5080   45.4326 H   0  0  0  0  0  0  0  0  0  0  0  0
   56.2981   28.8217   46.4607 H   0  0  0  0  0  0  0  0  0  0  0  0
   58.3522   28.1015   47.7167 H   0  0  0  0  0  0  0  0  0  0  0  0
   58.6194   29.5870   46.7352 H   0  0  0  0  0  0  0  0  0  0  0  0
   59.4509   32.3623   43.9162 H   0  0  0  0  0  0  0  0  0  0  0  0
   58.0836   30.9338   46.2057 H   0  0  0  0  0  0  0  0  0  0  0  0
   59.8136   30.9195   45.6902 H   0  0  0  0  0  0  0  0  0  0  0  0
   59.5428   32.2749   47.7207 H   0  0  0  0  0  0  0  0  0  0  0  0
   59.9942   33.3149   46.3026 H   0  0  0  0  0  0  0  0  0  0  0  0
   57.4810   33.2482   47.9253 H   0  0  0  0  0  0  0  0  0  0  0  0
   58.3303   34.6195   47.0681 H   0  0  0  0  0  0  0  0  0  0  0  0
   56.2740   32.6735   46.0179 H   0  0  0  0  0  0  0  0  0  0  0  0
   56.3883   34.4756   45.8508 H   0  0  0  0  0  0  0  0  0  0  0  0
   56.8495   33.3247   43.7111 H   0  0  0  0  0  0  0  0  0  0  0  0
   58.2935   34.2336   44.3471 H   0  0  0  0  0  0  0  0  0  0  0  0
  1  2  1  0
  2  3  1  0
  3  4  2  0
  3  5  1  0
  5  6  1  0
  6  7  1  0
  7  8  1  0
  8  9  1  0
  9 10  1  0
 10 11  1  0
 10 12  1  0
 12 13  1  0
 13 14  1  0
  2 15  1  0
 15 16  1  0
 16 17  1  0
 17 18  1  0
 18 19  1  0
 19 20  1  0
 13  5  1  0
 20 15  1  0
 11  6  1  0
 14  8  1  0
  1 21  1  0
  1 22  1  0
  1 23  1  0
  2 24  1  6
  5 25  1  6
  6 26  1  6
  7 27  1  0
  7 28  1  0
  8 29  1  1
  9 30  1  0
  9 31  1  0
 10 32  1  6
 11 33  1  0
 11 34  1  0
 12 35  1  0
 12 36  1  0
 13 37  1  1
 14 38  1  0
 14 39  1  0
 15 40  1  0
 16 41  1  0
 16 42  1  0
 17 43  1  0
 17 44  1  0
 18 45  1  0
 18 46  1  0
 19 47  1  0
 19 48  1  0
 20 49  1  0
 20 50  1  0
M  CHG  1   2   1
M  END
>  <UniqueID>  (12) 
12

>  <SMILES>  (12) 
C[N@H+](C(=O)C1C2CC3CC(C2)CC1C3)C1CCCCC1

>  <Energy>  (12) 
68.2924826315008

>  <Genealogy>  (12) 
C[NH+](C(=O)C1C2CC3CC(C2)CC1C3)C1CCCCC1 (protonated)
C[N@H+](C(=O)C1C2CC3CC(C2)CC1C3)C1CCCCC1 (chirality)
C[N@H+](C(=O)C1C2CC3CC(C2)CC1C3)C1CCCCC1 (3D coordinates assigned)
C[N@H+](C(=O)C1C2CC3CC(C2)CC1C3)C1CCCCC1 (nonaromatic ring conformer: 68.2924826315008 kcal/mol)

>  <smiles>  (12) 
CN(C(=O)C1C2CC3CC(C2)CC1C3)C1CCCCC1

>  <score_type>  (12) 
oracle

>  <origin>  (12) 
adg

>  <m_score__min__energy>  (12) 
-7.3700000000000001

>  <m_primary>  (12) 
energy

$$$$
12:0
     RDKit          3D

 55 59  0  0  0  0  0  0  0  0999 V2000
   58.7970   29.6860   51.2000 C   0  0  0  0  0  0  0  0  0  0  0  0
   59.7320   29.9950   50.0690 C   0  0  0  0  0  0  0  0  0  0  0  0
   59.9190   29.2210   48.9380 C   0  0  0  0  0  0  0  0  0  0  0  0
   59.2170   28.0100   48.6260 N   0  0  0  0  0  0  0  0  0  0  0  0
   59.3600   27.2280   47.4360 C   0  0  0  0  0  0  0  0  0  0  0  0
   60.1030   26.2100   47.4210 O   0  0  0  0  0  0  0  0  0  0  0  0
   58.5910   27.5850   46.2360 C   0  0  0  0  0  0  0  0  0  0  0  0
   58.0070   26.7250   45.3080 C   0  0  0  0  0  0  0  0  0  0  0  0
   57.3930   27.4580   44.3500 N   0  0  0  0  0  0  0  0  0  0  0  0
   57.5670   28.7390   44.6360 N   0  0  0  0  0  0  0  0  0  0  0  0
   57.1220   29.8300   43.9530 C   0  0  0  0  0  0  0  0  0  0  0  0
   56.3090   29.6930   42.6950 C   0  0  0  0  0  0  0  0  0  0  0  0
   54.9640   29.6500   43.0110 F   0  0  0  0  0  0  0  0  0  0  0  0
   56.5540   30.7670   41.8610 F   0  0  0  0  0  0  0  0  0  0  0  0
   57.4440   31.0990   44.4720 C   0  0  0  0  0  0  0  0  0  0  0  0
   58.2140   31.1890   45.6600 C   0  0  0  0  0  0  0  0  0  0  0  0
   58.5830   32.5010   46.2530 C   0  0  0  0  0  0  0  0  0  0  0  0
   58.6170   32.6490   47.6530 C   0  0  0  0  0  0  0  0  0  0  0  0
   58.9790   33.8690   48.2310 C   0  0  0  0  0  0  0  0  0  0  0  0
   59.3190   34.9540   47.4200 C   0  0  0  0  0  0  0  0  0  0  0  0
   59.3000   34.8190   46.0300 C   0  0  0  0  0  0  0  0  0  0  0  0
   58.9400   33.6000   45.4470 C   0  0  0  0  0  0  0  0  0  0  0  0
   58.6140   30.0450   46.2890 N   0  0  0  0  0  0  0  0  0  0  0  0
   58.2820   28.8420   45.7620 C   0  0  0  0  0  0  0  0  0  0  0  0
   60.7900   29.9460   48.1480 C   0  0  0  0  0  0  0  0  0  0  0  0
   61.1940   29.6320   46.9970 O   0  0  0  0  0  0  0  0  0  0  0  0
   61.1260   31.0860   48.7880 N   0  0  0  0  0  0  0  0  0  0  0  0
   62.0280   32.0940   48.2940 C   0  0  0  0  0  0  0  0  0  0  0  0
   61.7830   32.7220   47.0630 C   0  0  0  0  0  0  0  0  0  0  0  0
   62.6550   33.7080   46.5900 C   0  0  0  0  0  0  0  0  0  0  0  0
   63.7720   34.0750   47.3440 C   0  0  0  0  0  0  0  0  0  0  0  0
   64.0180   33.4600   48.5760 C   0  0  0  0  0  0  0  0  0  0  0  0
   63.1470   32.4750   49.0520 C   0  0  0  0  0  0  0  0  0  0  0  0
   60.4670   31.1280   49.9440 N   0  0  0  0  0  0  0  0  0  0  0  0
   60.5120   32.2310   50.9080 C   0  0  0  0  0  0  0  0  0  0  0  0
   59.3111   29.8559   52.1575 H   0  0  0  0  0  0  0  0  0  0  0  0
   57.9152   30.3405   51.1360 H   0  0  0  0  0  0  0  0  0  0  0  0
   58.4789   28.6349   51.1360 H   0  0  0  0  0  0  0  0  0  0  0  0
   58.0398   25.6262   45.3477 H   0  0  0  0  0  0  0  0  0  0  0  0
   56.8710   27.0800   43.5280 H   0  0  0  0  0  0  0  0  0  0  0  0
   56.5927   28.7622   42.1821 H   0  0  0  0  0  0  0  0  0  0  0  0
   57.1019   32.0112   43.9613 H   0  0  0  0  0  0  0  0  0  0  0  0
   58.3563   31.7966   48.2976 H   0  0  0  0  0  0  0  0  0  0  0  0
   58.9961   33.9747   49.3258 H   0  0  0  0  0  0  0  0  0  0  0  0
   59.6016   35.9144   47.8758 H   0  0  0  0  0  0  0  0  0  0  0  0
   59.5689   35.6739   45.3921 H   0  0  0  0  0  0  0  0  0  0  0  0
   58.9355   33.4985   44.3517 H   0  0  0  0  0  0  0  0  0  0  0  0
   60.9024   32.4378   46.4683 H   0  0  0  0  0  0  0  0  0  0  0  0
   62.4609   34.1950   45.6230 H   0  0  0  0  0  0  0  0  0  0  0  0
   64.4586   34.8481   46.9687 H   0  0  0  0  0  0  0  0  0  0  0  0
   64.8966   33.7512   49.1704 H   0  0  0  0  0  0  0  0  0  0  0  0
   63.3391   31.9968   50.0238 H   0  0  0  0  0  0  0  0  0  0  0  0
   60.4955   31.8254   51.9303 H   0  0  0  0  0  0  0  0  0  0  0  0
   61.4346   32.8111   50.7586 H   0  0  0  0  0  0  0  0  0  0  0  0
   59.6398   32.8844   50.7586 H   0  0  0  0  0  0  0  0  0  0  0  0
  1  2  1  0
  2  3  2  0
  3  4  1  0
  4  5  1  0
  5  6  2  0
  5  7  1  0
  7  8  1  0
  8  9  2  0
  9 10  1  0
 10 11  1  0
 11 12  1  0
 12 13  1  0
 12 14  1  0
 11 15  2  0
 15 16  1  0
 16 17  1  0
 17 18  2  0
 18 19  1  0
 19 20  2  0
 20 21  1  0
 21 22  2  0
 16 23  2  0
 23 24  1  0
  3 25  1  0
 25 26  2  0
 25 27  1  0
 27 28  1  0
 28 29  2  0
 29 30  1  0
 30 31  2  0
 31 32  1  0
 32 33  2  0
 27 34  1  0
 34 35  1  0
 34  2  1  0
 24  7  2  0
 33 28  1  0
 24 10  1  0
 22 17  1  0
  1 36  1  0
  1 37  1  0
  1 38  1  0
  8 39  1  0
  9 40  1  0
 12 41  1  0
 15 42  1  0
 18 43  1  0
 19 44  1  0
 20 45  1  0
 21 46  1  0
 22 47  1  0
 29 48  1  0
 30 49  1  0
 31 50  1  0
 32 51  1  0
 33 52  1  0
 35 53  1  0
 35 54  1  0
 35 55  1  0
M  CHG  2   4  -1   9   1
M  END
>  <UniqueID>  (13) 
13

>  <SMILES>  (13) 
Cc1c([N-]C(=O)c2c[nH+]n3c(C(F)F)cc(-c4ccccc4)nc23)c(=O)n(-c2ccccc2)n1C

>  <Energy>  (13) 
145.75450942035903

>  <Genealogy>  (13) 
Cc1c([N-]C(=O)c2c[nH+]n3c(C(F)F)cc(-c4ccccc4)nc23)c(=O)n(-c2ccccc2)n1C (protonated)
Cc1c([N-]C(=O)c2c[nH+]n3c(C(F)F)cc(-c4ccccc4)nc23)c(=O)n(-c2ccccc2)n1C (3D coordinates assigned)
Cc1c([N-]C(=O)c2c[nH+]n3c(C(F)F)cc(-c4ccccc4)nc23)c(=O)n(-c2ccccc2)n1C (optimized conformer: 145.75450942035903 kcal/mol)

>  <smiles>  (13) 
Cc1c(NC(=O)c2cnn3c(C(F)F)cc(-c4ccccc4)nc23)c(=O)n(-c2ccccc2)n1C

>  <score_type>  (13) 
oracle

>  <origin>  (13) 
adg

>  <m_score__min__energy>  (13) 
-8.8800000000000008

>  <m_primary>  (13) 
energy

$$$$
13:0
     RDKit          3D

 37 39  0  0  0  0  0  0  0  0999 V2000
   57.5614   24.7009   47.4607 H   0  0  0  0  0  0  0  0  0  0  0  0
   57.3300   25.5200   46.7640 C   0  0  0  0  0  0  0  0  0  0  0  0
   58.4510   26.3940   45.8570 S   0  0  0  0  0  0  0  0  0  0  0  0
   57.2760   27.3570   45.1440 C   0  0  0  0  0  0  0  0  0  0  0  0
   57.5430   28.2930   44.2850 N   0  0  0  0  0  0  0  0  0  0  0  0
   56.5750   29.7110   44.0370 S   0  0  0  0  0  0  0  0  0  0  0  0
   56.2470   29.8720   42.5790 O   0  0  0  0  0  0  0  0  0  0  0  0
   55.2980   29.5760   44.8190 O   0  0  0  0  0  0  0  0  0  0  0  0
   57.4840   31.1310   44.5890 C   0  0  0  0  0  0  0  0  0  0  0  0
   57.4110   32.3040   43.8230 C   0  0  0  0  0  0  0  0  0  0  0  0
   56.8063   32.3163   42.9042 H   0  0  0  0  0  0  0  0  0  0  0  0
   58.0950   33.4530   44.2120 C   0  0  0  0  0  0  0  0  0  0  0  0
   58.0223   34.3656   43.6022 H   0  0  0  0  0  0  0  0  0  0  0  0
   58.8700   33.4530   45.3680 C   0  0  0  0  0  0  0  0  0  0  0  0
   59.4031   34.3677   45.6664 H   0  0  0  0  0  0  0  0  0  0  0  0
   58.9780   32.2950   46.1580 C   0  0  0  0  0  0  0  0  0  0  0  0
   59.7650   32.2910   47.3330 C   0  0  0  0  0  0  0  0  0  0  0  0
   60.5110   33.4550   47.7310 N   0  0  0  0  0  0  0  0  0  0  0  0
   61.8150   33.7090   47.1240 C   0  0  0  0  0  0  0  0  0  0  0  0
   62.5654   33.8552   47.9149 H   0  0  0  0  0  0  0  0  0  0  0  0
   62.1025   32.8500   46.5000 H   0  0  0  0  0  0  0  0  0  0  0  0
   61.7591   34.6131   46.5000 H   0  0  0  0  0  0  0  0  0  0  0  0
   59.7950   34.5720   48.3450 C   0  0  0  0  0  0  0  0  0  0  0  0
   59.8505   34.4854   49.4402 H   0  0  0  0  0  0  0  0  0  0  0  0
   60.2540   35.5202   48.0284 H   0  0  0  0  0  0  0  0  0  0  0  0
   58.7418   34.5508   48.0284 H   0  0  0  0  0  0  0  0  0  0  0  0
   59.8360   31.1340   48.1190 C   0  0  0  0  0  0  0  0  0  0  0  0
   60.4418   31.1339   49.0371 H   0  0  0  0  0  0  0  0  0  0  0  0
   59.1460   29.9850   47.7470 C   0  0  0  0  0  0  0  0  0  0  0  0
   59.2101   29.0824   48.3725 H   0  0  0  0  0  0  0  0  0  0  0  0
   58.3740   29.9700   46.5870 C   0  0  0  0  0  0  0  0  0  0  0  0
   57.8377   29.0526   46.3030 H   0  0  0  0  0  0  0  0  0  0  0  0
   58.2720   31.1180   45.7720 C   0  0  0  0  0  0  0  0  0  0  0  0
   56.0360   27.0340   45.5790 N   0  0  0  0  0  0  0  0  0  0  0  0
   55.1500   27.4970   45.2780 H   0  0  0  0  0  0  0  0  0  0  0  0
   56.0610   26.0150   46.4780 C   0  0  0  0  0  0  0  0  0  0  0  0
   55.1491   25.6127   46.9434 H   0  0  0  0  0  0  0  0  0  0  0  0
  1  2  1  0
  2  3  1  0
  3  4  1  0
  4  5  2  0
  5  6  1  0
  6  7  2  0
  6  8  2  0
  6  9  1  0
  9 10  2  0
 10 11  1  0
 10 12  1  0
 12 13  1  0
 12 14  2  0
 14 15  1  0
 14 16  1  0
 16 17  2  0
 17 18  1  0
 18 19  1  0
 19 20  1  0
 19 21  1  0
 19 22  1  0
 18 23  1  0
 23 24  1  0
 23 25  1  0
 23 26  1  0
 17 27  1  0
 27 28  1  0
 27 29  2  0
 29 30  1  0
 29 31  1  0
 31 32  1  0
 31 33  2  0
  4 34  1  0
 34 35  1  0
 34 36  1  0
 36 37  1  0
 36  2  2  0
 33  9  1  0
 33 16  1  0
M  END
>  <UniqueID>  (14) 
14

>  <SMILES>  (14) 
CN(C)c1cccc2c(S(=O)(=O)/N=c3\[nH]ccs3)cccc12

>  <Energy>  (14) 
84.30456283053071

>  <Genealogy>  (14) 
CN(C)c1cccc2c(S(=O)(=O)/N=c3\[nH]ccs3)cccc12 (cis-trans isomerization)
CN(C)c1cccc2c(S(=O)(=O)/N=c3\[nH]ccs3)cccc12 (3D coordinates assigned)
CN(C)c1cccc2c(S(=O)(=O)/N=c3\[nH]ccs3)cccc12 (optimized conformer: 84.30456283053071 kcal/mol)

>  <smiles>  (14) 
CN(C)c1cccc2c(S(=O)(=O)N=c3[nH]ccs3)cccc12

>  <score_type>  (14) 
oracle

>  <origin>  (14) 
adg

>  <m_score__min__energy>  (14) 
-8.1799999999999997

>  <m_primary>  (14) 
energy

$$$$
14:0
     RDKit          3D

 55 57  0  0  0  0  0  0  0  0999 V2000
   63.3820   33.8300   46.4370 C   0  0  0  0  0  0  0  0  0  0  0  0
   62.6160   32.6870   47.1020 C   0  0  0  0  0  0  0  0  0  0  0  0
   61.7230   33.2120   48.2330 C   0  0  0  0  0  0  0  0  0  0  0  0
   61.7520   32.3090   49.4760 C   0  0  0  0  0  0  0  0  0  0  0  0
   61.1870   30.9350   49.2440 C   0  0  0  0  0  0  0  0  0  0  0  0
   60.4090   30.5830   48.2040 N   0  0  0  0  0  0  0  0  0  0  0  0
   60.2000   29.2760   48.4680 C   0  0  0  0  0  0  0  0  0  0  0  0
   59.4290   28.4190   47.6220 N   0  0  0  0  0  0  0  0  0  0  0  0
   58.4900   28.8970   46.6180 C   0  0  0  0  0  0  0  0  0  0  0  0
   57.8570   27.6280   45.9870 C   0  0  1  0  0  0  0  0  0  0  0  0
   57.7770   27.7000   44.4480 C   0  0  0  0  0  0  0  0  0  0  0  0
   57.6840   29.1530   43.9550 C   0  0  0  0  0  0  0  0  0  0  0  0
   56.5290   29.9050   44.5670 C   0  0  0  0  0  0  0  0  0  0  0  0
   55.4870   29.2700   44.8790 O   0  0  0  0  0  0  0  0  0  0  0  0
   56.5800   31.3130   44.8610 N   0  0  0  0  0  0  0  0  0  0  0  0
   57.7190   32.1850   45.1570 C   0  0  0  0  0  0  0  0  0  0  0  0
   58.1550   32.1190   46.6470 C   0  0  0  0  0  0  0  0  0  0  0  0
   58.2540   33.5050   47.3080 C   0  0  0  0  0  0  0  0  0  0  0  0
   59.0890   34.4780   46.4590 C   0  0  0  0  0  0  0  0  0  0  0  0
   58.6970   34.5040   44.9610 C   0  0  0  0  0  0  0  0  0  0  0  0
   57.4910   33.6140   44.6350 C   0  0  0  0  0  0  0  0  0  0  0  0
   58.7000   26.4290   46.4700 C   0  0  0  0  0  0  0  0  0  0  0  0
   59.5620   27.0150   47.5160 C   0  0  0  0  0  0  0  0  0  0  0  0
   60.3510   26.3370   48.2260 O   0  0  0  0  0  0  0  0  0  0  0  0
   60.8150   28.8610   49.5880 N   0  0  0  0  0  0  0  0  0  0  0  0
   61.4150   29.9190   50.0390 O   0  0  0  0  0  0  0  0  0  0  0  0
   63.8170   34.4791   47.2112 H   0  0  0  0  0  0  0  0  0  0  0  0
   64.1863   33.4168   45.8106 H   0  0  0  0  0  0  0  0  0  0  0  0
   62.6941   34.4168   45.8106 H   0  0  0  0  0  0  0  0  0  0  0  0
   61.9879   32.1883   46.3491 H   0  0  0  0  0  0  0  0  0  0  0  0
   63.3417   31.9781   47.5273 H   0  0  0  0  0  0  0  0  0  0  0  0
   62.0699   34.2160   48.5187 H   0  0  0  0  0  0  0  0  0  0  0  0
   60.6886   33.2314   47.8592 H   0  0  0  0  0  0  0  0  0  0  0  0
   62.7969   32.2032   49.8029 H   0  0  0  0  0  0  0  0  0  0  0  0
   61.1187   32.7907   50.2355 H   0  0  0  0  0  0  0  0  0  0  0  0
   57.7132   29.5192   47.0865 H   0  0  0  0  0  0  0  0  0  0  0  0
   58.9910   29.5172   45.8601 H   0  0  0  0  0  0  0  0  0  0  0  0
   56.8103   27.5267   46.3096 H   0  0  0  0  0  0  0  0  0  0  0  0
   58.6779   27.2350   44.0213 H   0  0  0  0  0  0  0  0  0  0  0  0
   56.8703   27.1676   44.1247 H   0  0  0  0  0  0  0  0  0  0  0  0
   58.6184   29.6725   44.2140 H   0  0  0  0  0  0  0  0  0  0  0  0
   57.5212   29.1239   42.8675 H   0  0  0  0  0  0  0  0  0  0  0  0
   58.5827   31.7954   44.5982 H   0  0  0  0  0  0  0  0  0  0  0  0
   57.4186   31.5185   47.2011 H   0  0  0  0  0  0  0  0  0  0  0  0
   59.1583   31.6690   46.6759 H   0  0  0  0  0  0  0  0  0  0  0  0
   57.2409   33.9159   47.4293 H   0  0  0  0  0  0  0  0  0  0  0  0
   58.7491   33.3868   48.2832 H   0  0  0  0  0  0  0  0  0  0  0  0
   58.9606   35.4912   46.8676 H   0  0  0  0  0  0  0  0  0  0  0  0
   60.1312   34.1296   46.5089 H   0  0  0  0  0  0  0  0  0  0  0  0
   58.4526   35.5395   44.6818 H   0  0  0  0  0  0  0  0  0  0  0  0
   59.5539   34.1133   44.3927 H   0  0  0  0  0  0  0  0  0  0  0  0
   56.5923   34.0339   45.1103 H   0  0  0  0  0  0  0  0  0  0  0  0
   57.3607   33.5773   43.5434 H   0  0  0  0  0  0  0  0  0  0  0  0
   58.0579   25.6388   46.8863 H   0  0  0  0  0  0  0  0  0  0  0  0
   59.2717   25.9523   45.6601 H   0  0  0  0  0  0  0  0  0  0  0  0
  1  2  1  0
  2  3  1  0
  3  4  1  0
  4  5  1  0
  5  6  2  0
  6  7  1  0
  7  8  1  0
  8  9  1  0
  9 10  1  0
 10 11  1  0
 11 12  1  0
 12 13  1  0
 13 14  2  0
 13 15  1  0
 15 16  1  0
 16 17  1  0
 17 18  1  0
 18 19  1  0
 19 20  1  0
 20 21  1  0
 10 22  1  0
 22 23  1  0
 23 24  2  0
  7 25  2  0
 25 26  1  0
 26  5  1  0
 23  8  1  0
 21 16  1  0
  1 27  1  0
  1 28  1  0
  1 29  1  0
  2 30  1  0
  2 31  1  0
  3 32  1  0
  3 33  1  0
  4 34  1  0
  4 35  1  0
  9 36  1  0
  9 37  1  0
 10 38  1  1
 11 39  1  0
 11 40  1  0
 12 41  1  0
 12 42  1  0
 16 43  1  0
 17 44  1  0
 17 45  1  0
 18 46  1  0
 18 47  1  0
 19 48  1  0
 19 49  1  0
 20 50  1  0
 20 51  1  0
 21 52  1  0
 21 53  1  0
 22 54  1  0
 22 55  1  0
M  CHG  1  15  -1
M  END
>  <UniqueID>  (15) 
15

>  <SMILES>  (15) 
CCCCc1nc(N2C[C@@H](CCC(=O)[N-]C3CCCCC3)CC2=O)no1

>  <Energy>  (15) 
91.01430027955242

>  <Genealogy>  (15) 
CCCCc1nc(N2CC(CCC(=O)[N-]C3CCCCC3)CC2=O)no1 (protonated)
CCCCc1nc(N2C[C@@H](CCC(=O)[N-]C3CCCCC3)CC2=O)no1 (chirality)
CCCCc1nc(N2C[C@@H](CCC(=O)[N-]C3CCCCC3)CC2=O)no1 (3D coordinates assigned)
CCCCc1nc(N2C[C@@H](CCC(=O)[N-]C3CCCCC3)CC2=O)no1 (nonaromatic ring conformer: 91.01430027955242 kcal/mol)

>  <smiles>  (15) 
CCCCc1nc(N2CC(CCC(=O)NC3CCCCC3)CC2=O)no1

>  <score_type>  (15) 
oracle

>  <origin>  (15) 
adg

>  <m_score__min__energy>  (15) 
-11.109999999999999

>  <m_primary>  (15) 
energy

$$$$
15:0
     RDKit          3D

 42 44  0  0  0  0  0  0  0  0999 V2000
   61.9260   31.0830   47.1870 C   0  0  0  0  0  0  0  0  0  0  0  0
   60.7300   30.1830   47.2070 C   0  0  0  0  0  0  0  0  0  0  0  0
   60.2250   29.8720   48.3200 O   0  0  0  0  0  0  0  0  0  0  0  0
   60.1420   29.6800   45.9880 N   0  0  0  0  0  0  0  0  0  0  0  0
   60.6450   28.4300   45.4110 C   0  0  0  0  0  0  0  0  0  0  0  0
   59.7730   27.2840   45.8210 C   0  0  0  0  0  0  0  0  0  0  0  0
   60.2770   26.0790   46.1600 N   0  0  0  0  0  0  0  0  0  0  0  0
   59.1920   25.3230   46.4150 C   0  0  0  0  0  0  0  0  0  0  0  0
   58.0540   26.0710   46.2210 C   0  0  0  0  0  0  0  0  0  0  0  0
   58.4180   27.3020   45.8230 N   0  0  0  0  0  0  0  0  0  0  0  0
   57.4920   28.4230   45.6120 C   0  0  0  0  0  0  0  0  0  0  0  0
   58.0470   29.4740   44.6190 C   0  0  1  0  0  0  0  0  0  0  0  0
   56.9150   30.2940   43.9590 C   0  0  0  0  0  0  0  0  0  0  0  0
   56.5220   31.4310   44.7880 N   0  0  0  0  0  0  0  0  0  0  0  0
   57.1340   32.7230   44.7210 C   0  0  0  0  0  0  0  0  0  0  0  0
   57.7350   33.0950   43.6770 O   0  0  0  0  0  0  0  0  0  0  0  0
   56.9950   33.6600   45.8740 C   0  0  0  0  0  0  0  0  0  0  0  0
   58.3030   33.8710   46.4860 N   0  0  0  0  0  0  0  0  0  0  0  0
   59.4230   34.2480   45.8430 C   0  0  0  0  0  0  0  0  0  0  0  0
   60.4660   34.2190   46.7420 C   0  0  0  0  0  0  0  0  0  0  0  0
   59.8980   33.7990   47.9280 C   0  0  0  0  0  0  0  0  0  0  0  0
   58.5800   33.5820   47.7470 N   0  0  0  0  0  0  0  0  0  0  0  0
   59.0700   30.4180   45.3000 C   0  0  0  0  0  0  0  0  0  0  0  0
   62.2300   31.3118   48.2191 H   0  0  0  0  0  0  0  0  0  0  0  0
   62.7535   30.5816   46.6636 H   0  0  0  0  0  0  0  0  0  0  0  0
   61.6734   32.0169   46.6636 H   0  0  0  0  0  0  0  0  0  0  0  0
   60.6468   28.5110   44.3140 H   0  0  0  0  0  0  0  0  0  0  0  0
   61.6673   28.2518   45.7759 H   0  0  0  0  0  0  0  0  0  0  0  0
   59.2127   24.2693   46.7300 H   0  0  0  0  0  0  0  0  0  0  0  0
   57.0214   25.7210   46.3668 H   0  0  0  0  0  0  0  0  0  0  0  0
   56.5453   28.0281   45.2147 H   0  0  0  0  0  0  0  0  0  0  0  0
   57.3476   28.9232   46.5810 H   0  0  0  0  0  0  0  0  0  0  0  0
   58.5683   28.9157   43.8275 H   0  0  0  0  0  0  0  0  0  0  0  0
   57.2650   30.6663   42.9849 H   0  0  0  0  0  0  0  0  0  0  0  0
   56.0405   29.6380   43.8372 H   0  0  0  0  0  0  0  0  0  0  0  0
   56.5960   34.6218   45.5195 H   0  0  0  0  0  0  0  0  0  0  0  0
   56.3064   33.2303   46.6164 H   0  0  0  0  0  0  0  0  0  0  0  0
   59.4936   34.5306   44.7823 H   0  0  0  0  0  0  0  0  0  0  0  0
   61.5197   34.4743   46.5559 H   0  0  0  0  0  0  0  0  0  0  0  0
   60.4385   33.6623   48.8762 H   0  0  0  0  0  0  0  0  0  0  0  0
   59.5217   31.0629   44.5318 H   0  0  0  0  0  0  0  0  0  0  0  0
   58.5308   31.0086   46.0553 H   0  0  0  0  0  0  0  0  0  0  0  0
  1  2  1  0
  2  3  2  0
  2  4  1  0
  4  5  1  0
  5  6  1  0
  6  7  2  0
  7  8  1  0
  8  9  2  0
  9 10  1  0
 10 11  1  0
 11 12  1  0
 12 13  1  0
 13 14  1  0
 14 15  1  0
 15 16  2  0
 15 17  1  0
 17 18  1  0
 18 19  1  0
 19 20  2  0
 20 21  1  0
 21 22  2  0
 12 23  1  0
 23  4  1  0
 10  6  1  0
 22 18  1  0
  1 24  1  0
  1 25  1  0
  1 26  1  0
  5 27  1  0
  5 28  1  0
  8 29  1  0
  9 30  1  0
 11 31  1  0
 11 32  1  0
 12 33  1  6
 13 34  1  0
 13 35  1  0
 17 36  1  0
 17 37  1  0
 19 38  1  0
 20 39  1  0
 21 40  1  0
 23 41  1  0
 23 42  1  0
M  CHG  1  14  -1
M  END
>  <UniqueID>  (16) 
16

>  <SMILES>  (16) 
CC(=O)N1Cc2nccn2C[C@@H](C[N-]C(=O)Cn2cccn2)C1

>  <Energy>  (16) 
97.92966464923877

>  <Genealogy>  (16) 
CC(=O)N1Cc2nccn2CC(C[N-]C(=O)Cn2cccn2)C1 (protonated)
CC(=O)N1Cc2nccn2C[C@@H](C[N-]C(=O)Cn2cccn2)C1 (chirality)
CC(=O)N1Cc2nccn2C[C@@H](C[N-]C(=O)Cn2cccn2)C1 (3D coordinates assigned)
CC(=O)N1Cc2nccn2C[C@@H](C[N-]C(=O)Cn2cccn2)C1 (nonaromatic ring conformer: 97.92966464923877 kcal/mol)

>  <smiles>  (16) 
CC(=O)N1Cc2nccn2CC(CNC(=O)Cn2cccn2)C1

>  <score_type>  (16) 
oracle

>  <origin>  (16) 
adg

>  <m_score__min__energy>  (16) 
-6.25

>  <m_primary>  (16) 
energy

$$$$
16:0
     RDKit          3D

 39 41  0  0  0  0  0  0  0  0999 V2000
   58.1480   27.1940   43.9010 C   0  0  0  0  0  0  0  0  0  0  0  0
   57.7830   27.8940   45.0860 O   0  0  0  0  0  0  0  0  0  0  0  0
   58.2510   29.1710   45.4340 C   0  0  0  0  0  0  0  0  0  0  0  0
   59.5440   29.3780   45.9500 C   0  0  0  0  0  0  0  0  0  0  0  0
   59.9730   30.6660   46.2980 C   0  0  0  0  0  0  0  0  0  0  0  0
   59.1240   31.7630   46.1020 C   0  0  0  0  0  0  0  0  0  0  0  0
   57.8350   31.5610   45.5830 C   0  0  0  0  0  0  0  0  0  0  0  0
   57.3930   30.2660   45.2520 C   0  0  0  0  0  0  0  0  0  0  0  0
   56.1090   30.0260   44.7350 O   0  0  0  0  0  0  0  0  0  0  0  0
   55.8290   29.7440   43.3670 C   0  0  0  0  0  0  0  0  0  0  0  0
   59.6090   33.1130   46.4520 C   0  0  0  0  0  0  0  0  0  0  0  0
   58.9480   34.1310   46.1050 O   0  0  0  0  0  0  0  0  0  0  0  0
   60.9380   33.2900   47.1600 C   0  0  1  0  0  0  0  0  0  0  0  0
   60.8170   34.3920   48.2490 C   0  0  0  0  0  0  0  0  0  0  0  0
   61.8090   34.2020   49.4060 C   0  0  0  0  0  0  0  0  0  0  0  0
   63.0940   33.5330   48.9250 C   0  0  0  0  0  0  0  0  0  0  0  0
   62.8110   32.1580   48.2820 C   0  0  0  0  0  0  0  0  0  0  0  0
   61.4240   32.0170   47.7610 N   0  0  2  0  0  0  0  0  0  0  0  0
   61.3780   30.8990   46.7900 C   0  0  0  0  0  0  0  0  0  0  0  0
   58.6410   26.2484   44.1708 H   0  0  0  0  0  0  0  0  0  0  0  0
   57.2461   26.9811   43.3084 H   0  0  0  0  0  0  0  0  0  0  0  0
   58.8388   27.8117   43.3084 H   0  0  0  0  0  0  0  0  0  0  0  0
   60.2229   28.5225   46.0811 H   0  0  0  0  0  0  0  0  0  0  0  0
   57.1656   32.4210   45.4339 H   0  0  0  0  0  0  0  0  0  0  0  0
   55.0552   28.9647   43.3042 H   0  0  0  0  0  0  0  0  0  0  0  0
   55.4704   30.6576   42.8702 H   0  0  0  0  0  0  0  0  0  0  0  0
   56.7451   29.3920   42.8702 H   0  0  0  0  0  0  0  0  0  0  0  0
   61.6789   33.5995   46.4081 H   0  0  0  0  0  0  0  0  0  0  0  0
   61.0065   35.3695   47.7814 H   0  0  0  0  0  0  0  0  0  0  0  0
   59.8029   34.3289   48.6706 H   0  0  0  0  0  0  0  0  0  0  0  0
   62.0544   35.1853   49.8337 H   0  0  0  0  0  0  0  0  0  0  0  0
   61.3417   33.5560   50.1638 H   0  0  0  0  0  0  0  0  0  0  0  0
   63.5780   34.1826   48.1808 H   0  0  0  0  0  0  0  0  0  0  0  0
   63.7487   33.3783   49.7953 H   0  0  0  0  0  0  0  0  0  0  0  0
   63.5123   32.0139   47.4469 H   0  0  0  0  0  0  0  0  0  0  0  0
   62.9374   31.4015   49.0705 H   0  0  0  0  0  0  0  0  0  0  0  0
   60.7990   31.7640   48.5650 H   0  0  0  0  0  0  0  0  0  0  0  0
   62.0235   31.1408   45.9327 H   0  0  0  0  0  0  0  0  0  0  0  0
   61.7287   29.9852   47.2921 H   0  0  0  0  0  0  0  0  0  0  0  0
  1  2  1  0
  2  3  1  0
  3  4  2  0
  4  5  1  0
  5  6  2  0
  6  7  1  0
  7  8  2  0
  8  9  1  0
  9 10  1  0
  6 11  1  0
 11 12  2  0
 11 13  1  0
 13 14  1  0
 14 15  1  0
 15 16  1  0
 16 17  1  0
 17 18  1  0
 18 19  1  0
  8  3  1  0
 18 13  1  0
 19  5  1  0
  1 20  1  0
  1 21  1  0
  1 22  1  0
  4 23  1  0
  7 24  1  0
 10 25  1  0
 10 26  1  0
 10 27  1  0
 13 28  1  6
 14 29  1  0
 14 30  1  0
 15 31  1  0
 15 32  1  0
 16 33  1  0
 16 34  1  0
 17 35  1  0
 17 36  1  0
 18 37  1  1
 19 38  1  0
 19 39  1  0
M  CHG  1  18   1
M  END
>  <UniqueID>  (17) 
17

>  <SMILES>  (17) 
COc1cc2c(cc1OC)C(=O)[C@H]1CCCC[N@@H+]1C2

>  <Energy>  (17) 
49.86865117056337

>  <Genealogy>  (17) 
COc1cc2c(cc1OC)C(=O)C1CCCC[NH+]1C2 (protonated)
COc1cc2c(cc1OC)C(=O)[C@H]1CCCC[N@@H+]1C2 (chirality)
COc1cc2c(cc1OC)C(=O)[C@H]1CCCC[N@@H+]1C2 (3D coordinates assigned)
COc1cc2c(cc1OC)C(=O)[C@H]1CCCC[N@@H+]1C2 (nonaromatic ring conformer: 49.86865117056337 kcal/mol)

>  <smiles>  (17) 
COc1cc2c(cc1OC)C(=O)C1CCCCN1C2

>  <score_type>  (17) 
oracle

>  <origin>  (17) 
adg

>  <m_score__min__energy>  (17) 
-4.9100000000000001

>  <m_primary>  (17) 
energy

$$$$
17:0
     RDKit          3D

 29 30  0  0  0  0  0  0  0  0999 V2000
   61.0990   25.8310   46.0930 C   0  0  0  0  0  0  0  0  0  0  0  0
   59.6330   26.1480   46.0510 C   0  0  0  0  0  0  0  0  0  0  0  0
   58.6860   25.1160   46.0920 C   0  0  0  0  0  0  0  0  0  0  0  0
   57.3220   25.4110   46.0660 C   0  0  0  0  0  0  0  0  0  0  0  0
   56.8850   26.7400   46.0230 C   0  0  0  0  0  0  0  0  0  0  0  0
   55.5140   26.9930   45.9900 O   0  0  0  0  0  0  0  0  0  0  0  0
   57.8250   27.7890   46.0250 C   0  0  0  0  0  0  0  0  0  0  0  0
   57.3610   29.1460   45.9660 N   0  0  0  0  0  0  0  0  0  0  0  0
   56.4970   29.7140   44.9710 C   0  0  0  0  0  0  0  0  0  0  0  0
   55.3110   29.3000   44.8530 O   0  0  0  0  0  0  0  0  0  0  0  0
   57.0130   30.7490   44.0450 C   0  0  0  0  0  0  0  0  0  0  0  0
   56.7550   30.6660   42.6640 C   0  0  0  0  0  0  0  0  0  0  0  0
   57.2420   31.6440   41.7910 C   0  0  0  0  0  0  0  0  0  0  0  0
   57.9900   32.7150   42.2860 C   0  0  0  0  0  0  0  0  0  0  0  0
   58.2530   32.8090   43.6530 C   0  0  0  0  0  0  0  0  0  0  0  0
   57.7690   31.8350   44.5310 C   0  0  0  0  0  0  0  0  0  0  0  0
   59.1990   27.4830   46.0250 C   0  0  0  0  0  0  0  0  0  0  0  0
   61.4289   25.7597   47.1399 H   0  0  0  0  0  0  0  0  0  0  0  0
   61.2816   24.8726   45.5849 H   0  0  0  0  0  0  0  0  0  0  0  0
   61.6613   26.6283   45.5849 H   0  0  0  0  0  0  0  0  0  0  0  0
   59.0190   24.0689   46.1449 H   0  0  0  0  0  0  0  0  0  0  0  0
   56.5858   24.5938   46.0794 H   0  0  0  0  0  0  0  0  0  0  0  0
   55.1360   27.9310   45.9380 H   0  0  0  0  0  0  0  0  0  0  0  0
   56.1659   29.8256   42.2683 H   0  0  0  0  0  0  0  0  0  0  0  0
   57.0358   31.5698   40.7131 H   0  0  0  0  0  0  0  0  0  0  0  0
   58.3715   33.4840   41.5982 H   0  0  0  0  0  0  0  0  0  0  0  0
   58.8431   33.6523   44.0410 H   0  0  0  0  0  0  0  0  0  0  0  0
   57.9793   31.9164   45.6076 H   0  0  0  0  0  0  0  0  0  0  0  0
   59.9389   28.2967   46.0045 H   0  0  0  0  0  0  0  0  0  0  0  0
  1  2  1  0
  2  3  2  0
  3  4  1  0
  4  5  2  0
  5  6  1  0
  5  7  1  0
  7  8  1  0
  8  9  1  0
  9 10  2  0
  9 11  1  0
 11 12  2  0
 12 13  1  0
 13 14  2  0
 14 15  1  0
 15 16  2  0
  7 17  2  0
 17  2  1  0
 16 11  1  0
  1 18  1  0
  1 19  1  0
  1 20  1  0
  3 21  1  0
  4 22  1  0
  6 23  1  0
 12 24  1  0
 13 25  1  0
 14 26  1  0
 15 27  1  0
 16 28  1  0
 17 29  1  0
M  CHG  1   8  -1
M  END
>  <UniqueID>  (18) 
18

>  <SMILES>  (18) 
Cc1ccc(O)c([N-]C(=O)c2ccccc2)c1

>  <Energy>  (18) 
33.63734535294955

>  <Genealogy>  (18) 
Cc1ccc(O)c([N-]C(=O)c2ccccc2)c1 (protonated)
Cc1ccc(O)c([N-]C(=O)c2ccccc2)c1 (3D coordinates assigned)
Cc1ccc(O)c([N-]C(=O)c2ccccc2)c1 (optimized conformer: 33.63734535294955 kcal/mol)

>  <smiles>  (18) 
Cc1ccc(O)c(NC(=O)c2ccccc2)c1

>  <score_type>  (18) 
oracle

>  <origin>  (18) 
adg

>  <m_score__min__energy>  (18) 
-10.029999999999999

>  <m_primary>  (18) 
energy

$$$$
18:0
     RDKit          3D

 38 41  0  0  0  0  0  0  0  0999 V2000
   59.1300   30.5370   48.8120 O   0  0  0  0  0  0  0  0  0  0  0  0
   59.3220   31.7640   49.0300 C   0  0  0  0  0  0  0  0  0  0  0  0
   58.9040   32.3690   50.3190 C   0  0  0  0  0  0  0  0  0  0  0  0
   57.8370   31.8220   51.0550 C   0  0  0  0  0  0  0  0  0  0  0  0
   57.4470   32.3960   52.2690 C   0  0  0  0  0  0  0  0  0  0  0  0
   58.1170   33.5170   52.7610 C   0  0  0  0  0  0  0  0  0  0  0  0
   59.1790   34.0680   52.0420 C   0  0  0  0  0  0  0  0  0  0  0  0
   59.5730   33.4990   50.8260 C   0  0  0  0  0  0  0  0  0  0  0  0
   59.9430   32.5640   48.0110 N   0  0  0  0  0  0  0  0  0  0  0  0
   59.1490   33.1270   46.9380 C   0  0  0  0  0  0  0  0  0  0  0  0
   57.7560   32.9220   46.8520 C   0  0  0  0  0  0  0  0  0  0  0  0
   57.0240   33.4770   45.7990 C   0  0  0  0  0  0  0  0  0  0  0  0
   57.6670   34.2400   44.8220 C   0  0  0  0  0  0  0  0  0  0  0  0
   59.0460   34.4520   44.8960 C   0  0  0  0  0  0  0  0  0  0  0  0
   59.7860   33.9000   45.9470 C   0  0  0  0  0  0  0  0  0  0  0  0
   61.1640   34.1210   46.0060 O   0  0  0  0  0  0  0  0  0  0  0  0
   61.9540   33.5890   47.0290 C   0  0  0  0  0  0  0  0  0  0  0  0
   63.3280   33.8450   47.0370 C   0  0  0  0  0  0  0  0  0  0  0  0
   64.1370   33.3160   48.0440 C   0  0  0  0  0  0  0  0  0  0  0  0
   63.5840   32.5030   49.0460 C   0  0  0  0  0  0  0  0  0  0  0  0
   64.4480   31.9630   50.1580 C   0  0  0  0  0  0  0  0  0  0  0  0
   65.7740   31.8930   49.7640 F   0  0  0  0  0  0  0  0  0  0  0  0
   64.0380   30.6900   50.5160 F   0  0  0  0  0  0  0  0  0  0  0  0
   64.3480   32.7950   51.2570 F   0  0  0  0  0  0  0  0  0  0  0  0
   62.1970   32.2710   49.0520 C   0  0  0  0  0  0  0  0  0  0  0  0
   61.3710   32.8050   48.0410 C   0  0  0  0  0  0  0  0  0  0  0  0
   57.3063   30.9374   50.6731 H   0  0  0  0  0  0  0  0  0  0  0  0
   56.6105   31.9631   52.8373 H   0  0  0  0  0  0  0  0  0  0  0  0
   57.8080   33.9667   53.7161 H   0  0  0  0  0  0  0  0  0  0  0  0
   59.7069   34.9508   52.4319 H   0  0  0  0  0  0  0  0  0  0  0  0
   60.4103   33.9372   50.2630 H   0  0  0  0  0  0  0  0  0  0  0  0
   57.2431   32.3219   47.6181 H   0  0  0  0  0  0  0  0  0  0  0  0
   55.9380   33.3124   45.7395 H   0  0  0  0  0  0  0  0  0  0  0  0
   57.0876   34.6742   43.9939 H   0  0  0  0  0  0  0  0  0  0  0  0
   59.5508   35.0542   44.1263 H   0  0  0  0  0  0  0  0  0  0  0  0
   63.7738   34.4661   46.2462 H   0  0  0  0  0  0  0  0  0  0  0  0
   65.2144   33.5375   48.0525 H   0  0  0  0  0  0  0  0  0  0  0  0
   61.7508   31.6657   49.8549 H   0  0  0  0  0  0  0  0  0  0  0  0
  1  2  2  0
  2  3  1  0
  3  4  2  0
  4  5  1  0
  5  6  2  0
  6  7  1  0
  7  8  2  0
  2  9  1  0
  9 10  1  0
 10 11  2  0
 11 12  1  0
 12 13  2  0
 13 14  1  0
 14 15  2  0
 15 16  1  0
 16 17  1  0
 17 18  2  0
 18 19  1  0
 19 20  2  0
 20 21  1  0
 21 22  1  0
 21 23  1  0
 21 24  1  0
 20 25  1  0
 25 26  2  0
  8  3  1  0
 26  9  1  0
 15 10  1  0
 26 17  1  0
  4 27  1  0
  5 28  1  0
  6 29  1  0
  7 30  1  0
  8 31  1  0
 11 32  1  0
 12 33  1  0
 13 34  1  0
 14 35  1  0
 18 36  1  0
 19 37  1  0
 25 38  1  0
M  END
>  <UniqueID>  (19) 
19

>  <SMILES>  (19) 
O=C(c1ccccc1)N1c2ccccc2Oc2ccc(C(F)(F)F)cc21

>  <Energy>  (19) 
55.80590996596986

>  <Genealogy>  (19) 
O=C(c1ccccc1)N1c2ccccc2Oc2ccc(C(F)(F)F)cc21 (3D coordinates assigned)
O=C(c1ccccc1)N1c2ccccc2Oc2ccc(C(F)(F)F)cc21 (nonaromatic ring conformer: 55.80590996596986 kcal/mol)

>  <smiles>  (19) 
O=C(c1ccccc1)N1c2ccccc2Oc2ccc(C(F)(F)F)cc21

>  <score_type>  (19) 
oracle

>  <origin>  (19) 
adg

>  <m_score__min__energy>  (19) 
-7.4299999999999997

>  <m_primary>  (19) 
energy

$$$$
19:0
     RDKit          3D

 18 19  0  0  0  0  0  0  0  0999 V2000
   62.1820   33.7880   47.8730 Cl  0  0  0  0  0  0  0  0  0  0  0  0
   60.8950   32.9280   47.0490 C   0  0  0  0  0  0  0  0  0  0  0  0
   60.8540   31.5330   47.0830 C   0  0  0  0  0  0  0  0  0  0  0  0
   59.8290   30.8460   46.4270 C   0  0  0  0  0  0  0  0  0  0  0  0
   58.8300   31.5450   45.7250 C   0  0  0  0  0  0  0  0  0  0  0  0
   57.7950   30.8110   45.0420 N   0  0  0  0  0  0  0  0  0  0  0  0
   57.9010   29.6280   44.4100 C   0  0  0  0  0  0  0  0  0  0  0  0
   56.7140   29.3160   43.8660 N   0  0  0  0  0  0  0  0  0  0  0  0
   55.8910   30.3100   44.1610 N   0  0  0  0  0  0  0  0  0  0  0  0
   56.5460   31.2180   44.8710 N   0  0  0  0  0  0  0  0  0  0  0  0
   58.8740   32.9590   45.7010 C   0  0  0  0  0  0  0  0  0  0  0  0
   57.6310   33.9270   44.9170 Cl  0  0  0  0  0  0  0  0  0  0  0  0
   59.9070   33.6370   46.3620 C   0  0  0  0  0  0  0  0  0  0  0  0
   61.6296   30.9738   47.6269 H   0  0  0  0  0  0  0  0  0  0  0  0
   59.8030   29.7468   46.4599 H   0  0  0  0  0  0  0  0  0  0  0  0
   58.8127   29.0156   44.3489 H   0  0  0  0  0  0  0  0  0  0  0  0
   56.4650   28.4650   43.3160 H   0  0  0  0  0  0  0  0  0  0  0  0
   59.9400   34.7363   46.3396 H   0  0  0  0  0  0  0  0  0  0  0  0
  1  2  1  0
  2  3  2  0
  3  4  1  0
  4  5  2  0
  5  6  1  0
  6  7  1  0
  7  8  2  0
  8  9  1  0
  9 10  2  0
  5 11  1  0
 11 12  1  0
 11 13  2  0
 13  2  1  0
 10  6  1  0
  3 14  1  0
  4 15  1  0
  7 16  1  0
  8 17  1  0
 13 18  1  0
M  CHG  1   8   1
M  END
>  <UniqueID>  (20) 
20

>  <SMILES>  (20) 
Clc1ccc(-n2c[nH+]nn2)c(Cl)c1

>  <Energy>  (20) 
64.55219250964696

>  <Genealogy>  (20) 
Clc1ccc(-n2c[nH+]nn2)c(Cl)c1 (protonated)
Clc1ccc(-n2c[nH+]nn2)c(Cl)c1 (3D coordinates assigned)
Clc1ccc(-n2c[nH+]nn2)c(Cl)c1 (optimized conformer: 64.55219250964696 kcal/mol)

>  <smiles>  (20) 
Clc1ccc(-n2cnnn2)c(Cl)c1

>  <score_type>  (20) 
oracle

>  <origin>  (20) 
adg

>  <m_score__min__energy>  (20) 
-5.1299999999999999

>  <m_primary>  (20) 
energy

$$$$
20:0
     RDKit          3D

 32 33  0  0  0  0  0  0  0  0999 V2000
   56.7140   26.8020   45.8640 C   0  0  0  0  0  0  0  0  0  0  0  0
   55.9590   27.9370   45.4550 O   0  0  0  0  0  0  0  0  0  0  0  0
   56.5080   29.0790   44.8520 C   0  0  0  0  0  0  0  0  0  0  0  0
   56.1950   29.3390   43.5130 C   0  0  0  0  0  0  0  0  0  0  0  0
   56.7190   30.4580   42.8630 C   0  0  0  0  0  0  0  0  0  0  0  0
   57.5640   31.3450   43.5490 C   0  0  0  0  0  0  0  0  0  0  0  0
   57.8740   31.0990   44.9000 C   0  0  0  0  0  0  0  0  0  0  0  0
   57.3580   29.9630   45.5420 C   0  0  0  0  0  0  0  0  0  0  0  0
   58.8340   32.0140   45.6180 C   0  0  0  0  0  0  0  0  0  0  0  0
   58.7090   33.4680   45.0940 C   0  0  0  0  0  0  0  0  0  0  0  0
   57.4100   34.1150   45.6100 C   0  0  0  0  0  0  0  0  0  0  0  0
   59.9100   34.2970   45.5750 C   0  0  0  0  0  0  0  0  0  0  0  0
   58.6950   33.4780   43.6240 N   0  0  0  0  0  0  0  0  0  0  0  0
   58.1460   32.5470   42.8960 C   0  0  0  0  0  0  0  0  0  0  0  0
   58.1400   32.7080   41.4050 C   0  0  0  0  0  0  0  0  0  0  0  0
   56.7434   26.7577   46.9627 H   0  0  0  0  0  0  0  0  0  0  0  0
   56.2432   25.8881   45.4727 H   0  0  0  0  0  0  0  0  0  0  0  0
   57.7389   26.8830   45.4727 H   0  0  0  0  0  0  0  0  0  0  0  0
   55.5292   28.6546   42.9669 H   0  0  0  0  0  0  0  0  0  0  0  0
   56.4687   30.6456   41.8084 H   0  0  0  0  0  0  0  0  0  0  0  0
   57.6196   29.7622   46.5914 H   0  0  0  0  0  0  0  0  0  0  0  0
   58.6092   31.9986   46.6947 H   0  0  0  0  0  0  0  0  0  0  0  0
   59.8596   31.6612   45.4346 H   0  0  0  0  0  0  0  0  0  0  0  0
   57.4118   34.1141   46.7100 H   0  0  0  0  0  0  0  0  0  0  0  0
   57.3457   35.1504   45.2443 H   0  0  0  0  0  0  0  0  0  0  0  0
   56.5448   33.5425   45.2443 H   0  0  0  0  0  0  0  0  0  0  0  0
   59.9294   34.3104   46.6747 H   0  0  0  0  0  0  0  0  0  0  0  0
   60.8404   33.8479   45.1973 H   0  0  0  0  0  0  0  0  0  0  0  0
   59.8200   35.3262   45.1973 H   0  0  0  0  0  0  0  0  0  0  0  0
   58.1001   33.7777   41.1519 H   0  0  0  0  0  0  0  0  0  0  0  0
   59.0553   32.2656   40.9847 H   0  0  0  0  0  0  0  0  0  0  0  0
   57.2602   32.1987   40.9847 H   0  0  0  0  0  0  0  0  0  0  0  0
  1  2  1  0
  2  3  1  0
  3  4  2  0
  4  5  1  0
  5  6  2  0
  6  7  1  0
  7  8  2  0
  7  9  1  0
  9 10  1  0
 10 11  1  0
 10 12  1  0
 10 13  1  0
 13 14  2  0
 14 15  1  0
  8  3  1  0
 14  6  1  0
  1 16  1  0
  1 17  1  0
  1 18  1  0
  4 19  1  0
  5 20  1  0
  8 21  1  0
  9 22  1  0
  9 23  1  0
 11 24  1  0
 11 25  1  0
 11 26  1  0
 12 27  1  0
 12 28  1  0
 12 29  1  0
 15 30  1  0
 15 31  1  0
 15 32  1  0
M  END
>  <UniqueID>  (21) 
21

>  <SMILES>  (21) 
COc1ccc2c(c1)CC(C)(C)N=C2C

>  <Energy>  (21) 
30.009596206853782

>  <Genealogy>  (21) 
COc1ccc2c(c1)CC(C)(C)N=C2C (3D coordinates assigned)
COc1ccc2c(c1)CC(C)(C)N=C2C (nonaromatic ring conformer: 30.009596206853782 kcal/mol)

>  <smiles>  (21) 
COc1ccc2c(c1)CC(C)(C)N=C2C

>  <score_type>  (21) 
oracle

>  <origin>  (21) 
adg

>  <m_score__min__energy>  (21) 
-6.6699999999999999

>  <m_primary>  (21) 
energy

$$$$
21:0
     RDKit          3D

 37 38  0  0  0  0  0  0  0  0999 V2000
   54.4160   25.1230   45.5960 C   0  0  0  0  0  0  0  0  0  0  0  0
   55.1340   26.2880   45.9920 O   0  0  0  0  0  0  0  0  0  0  0  0
   56.5290   26.4250   45.9350 C   0  0  0  0  0  0  0  0  0  0  0  0
   57.3860   25.3120   46.0670 C   0  0  0  0  0  0  0  0  0  0  0  0
   58.7690   25.4670   45.9570 C   0  0  0  0  0  0  0  0  0  0  0  0
   59.3150   26.7250   45.7080 C   0  0  0  0  0  0  0  0  0  0  0  0
   58.4800   27.8360   45.5810 C   0  0  0  0  0  0  0  0  0  0  0  0
   57.0930   27.7040   45.7220 C   0  0  0  0  0  0  0  0  0  0  0  0
   56.2840   28.8830   45.5920 N   0  0  0  0  0  0  0  0  0  0  0  0
   55.9730   29.5770   44.3770 C   0  0  0  0  0  0  0  0  0  0  0  0
   54.8200   29.4420   43.8880 O   0  0  0  0  0  0  0  0  0  0  0  0
   56.9550   30.3750   43.6820 N   0  0  0  0  0  0  0  0  0  0  0  0
   56.6500   30.8310   42.3230 C   0  0  0  0  0  0  0  0  0  0  0  0
   58.2910   30.6140   44.2560 C   0  0  0  0  0  0  0  0  0  0  0  0
   58.3430   31.9520   44.9450 C   0  0  0  0  0  0  0  0  0  0  0  0
   57.8320   33.1010   44.3200 C   0  0  0  0  0  0  0  0  0  0  0  0
   57.8760   34.3360   44.9710 C   0  0  0  0  0  0  0  0  0  0  0  0
   58.4350   34.4360   46.2480 C   0  0  0  0  0  0  0  0  0  0  0  0
   58.9540   33.2990   46.8750 C   0  0  0  0  0  0  0  0  0  0  0  0
   59.7200   33.4370   48.6200 Br  0  0  0  0  0  0  0  0  0  0  0  0
   58.9110   32.0610   46.2260 C   0  0  0  0  0  0  0  0  0  0  0  0
   54.0800   24.5777   46.4903 H   0  0  0  0  0  0  0  0  0  0  0  0
   53.5422   25.4171   44.9960 H   0  0  0  0  0  0  0  0  0  0  0  0
   55.0714   24.4746   44.9960 H   0  0  0  0  0  0  0  0  0  0  0  0
   56.9615   24.3153   46.2579 H   0  0  0  0  0  0  0  0  0  0  0  0
   59.4294   24.5942   46.0671 H   0  0  0  0  0  0  0  0  0  0  0  0
   60.4045   26.8422   45.6115 H   0  0  0  0  0  0  0  0  0  0  0  0
   58.9150   28.8237   45.3684 H   0  0  0  0  0  0  0  0  0  0  0  0
   56.0390   31.7444   42.3712 H   0  0  0  0  0  0  0  0  0  0  0  0
   57.5876   31.0447   41.7889 H   0  0  0  0  0  0  0  0  0  0  0  0
   56.0945   30.0461   41.7889 H   0  0  0  0  0  0  0  0  0  0  0  0
   58.5171   29.8229   44.9861 H   0  0  0  0  0  0  0  0  0  0  0  0
   59.0317   30.6061   43.4428 H   0  0  0  0  0  0  0  0  0  0  0  0
   57.3951   33.0281   43.3131 H   0  0  0  0  0  0  0  0  0  0  0  0
   57.4700   35.2314   44.4777 H   0  0  0  0  0  0  0  0  0  0  0  0
   58.4667   35.4091   46.7599 H   0  0  0  0  0  0  0  0  0  0  0  0
   59.3234   31.1689   46.7201 H   0  0  0  0  0  0  0  0  0  0  0  0
  1  2  1  0
  2  3  1  0
  3  4  2  0
  4  5  1  0
  5  6  2  0
  6  7  1  0
  7  8  2  0
  8  9  1  0
  9 10  1  0
 10 11  2  0
 10 12  1  0
 12 13  1  0
 12 14  1  0
 14 15  1  0
 15 16  2  0
 16 17  1  0
 17 18  2  0
 18 19  1  0
 19 20  1  0
 19 21  2  0
  8  3  1  0
 21 15  1  0
  1 22  1  0
  1 23  1  0
  1 24  1  0
  4 25  1  0
  5 26  1  0
  6 27  1  0
  7 28  1  0
 13 29  1  0
 13 30  1  0
 13 31  1  0
 14 32  1  0
 14 33  1  0
 16 34  1  0
 17 35  1  0
 18 36  1  0
 21 37  1  0
M  CHG  1   9  -1
M  END
>  <UniqueID>  (22) 
22

>  <SMILES>  (22) 
COc1ccccc1[N-]C(=O)N(C)Cc1cccc(Br)c1

>  <Energy>  (22) 
40.52606493883027

>  <Genealogy>  (22) 
COc1ccccc1[N-]C(=O)N(C)Cc1cccc(Br)c1 (protonated)
COc1ccccc1[N-]C(=O)N(C)Cc1cccc(Br)c1 (3D coordinates assigned)
COc1ccccc1[N-]C(=O)N(C)Cc1cccc(Br)c1 (optimized conformer: 40.52606493883027 kcal/mol)

>  <smiles>  (22) 
COc1ccccc1NC(=O)N(C)Cc1cccc(Br)c1

>  <score_type>  (22) 
oracle

>  <origin>  (22) 
adg

>  <m_score__min__energy>  (22) 
-9.8300000000000001

>  <m_primary>  (22) 
energy

$$$$
22:0
     RDKit          3D

 22 22  0  0  0  0  0  0  0  0999 V2000
   59.2390   34.2570   44.5110 C   0  0  0  0  0  0  0  0  0  0  0  0
   58.2800   33.1100   44.5130 C   0  0  0  0  0  0  0  0  0  0  0  0
   58.1100   32.1820   43.5060 C   0  0  0  0  0  0  0  0  0  0  0  0
   57.1750   31.2860   43.9900 C   0  0  0  0  0  0  0  0  0  0  0  0
   56.6700   30.0750   43.2700 C   0  0  0  0  0  0  0  0  0  0  0  0
   55.2520   29.7170   43.7210 C   0  0  0  0  0  0  0  0  0  0  0  0
   55.2460   29.2790   45.0530 O   0  0  0  0  0  0  0  0  0  0  0  0
   56.8080   31.6210   45.2080 O   0  0  0  0  0  0  0  0  0  0  0  0
   57.4570   32.7100   45.5520 C   0  0  0  0  0  0  0  0  0  0  0  0
   57.3080   33.3860   46.8740 C   0  0  0  0  0  0  0  0  0  0  0  0
   59.4751   34.5394   45.5476 H   0  0  0  0  0  0  0  0  0  0  0  0
   60.1628   33.9617   43.9920 H   0  0  0  0  0  0  0  0  0  0  0  0
   58.7847   35.1139   43.9920 H   0  0  0  0  0  0  0  0  0  0  0  0
   58.6114   32.1599   42.5272 H   0  0  0  0  0  0  0  0  0  0  0  0
   56.6628   30.2769   42.1887 H   0  0  0  0  0  0  0  0  0  0  0  0
   57.3341   29.2290   43.5010 H   0  0  0  0  0  0  0  0  0  0  0  0
   54.6104   30.6060   43.6314 H   0  0  0  0  0  0  0  0  0  0  0  0
   54.8747   28.9047   43.0823 H   0  0  0  0  0  0  0  0  0  0  0  0
   55.3300   30.0910   45.6190 H   0  0  0  0  0  0  0  0  0  0  0  0
   57.4692   32.6549   47.6799 H   0  0  0  0  0  0  0  0  0  0  0  0
   58.0496   34.1940   46.9583 H   0  0  0  0  0  0  0  0  0  0  0  0
   56.2954   33.8074   46.9583 H   0  0  0  0  0  0  0  0  0  0  0  0
  1  2  1  0
  2  3  1  0
  3  4  2  0
  4  5  1  0
  5  6  1  0
  6  7  1  0
  4  8  1  0
  8  9  1  0
  9 10  1  0
  9  2  2  0
  1 11  1  0
  1 12  1  0
  1 13  1  0
  3 14  1  0
  5 15  1  0
  5 16  1  0
  6 17  1  0
  6 18  1  0
  7 19  1  0
 10 20  1  0
 10 21  1  0
 10 22  1  0
M  END
>  <UniqueID>  (23) 
23

>  <SMILES>  (23) 
Cc1cc(CCO)oc1C

>  <Energy>  (23) 
40.11439894882475

>  <Genealogy>  (23) 
Cc1cc(CCO)oc1C (3D coordinates assigned)
Cc1cc(CCO)oc1C (optimized conformer: 40.11439894882475 kcal/mol)

>  <smiles>  (23) 
Cc1cc(CCO)oc1C

>  <score_type>  (23) 
oracle

>  <origin>  (23) 
adg

>  <m_score__min__energy>  (23) 
-5.5800000000000001

>  <m_primary>  (23) 
energy

$$$$
23:0
     RDKit          3D

 55 58  0  0  0  0  0  0  0  0999 V2000
   56.3240   29.6780   42.6240 C   0  0  0  0  0  0  0  0  0  0  0  0
   56.9780   29.5140   44.0100 C   0  0  0  0  0  0  0  0  0  0  0  0
   58.1410   30.5190   44.1710 C   0  0  0  0  0  0  0  0  0  0  0  0
   57.3560   28.0900   44.2780 N   0  0  2  0  0  0  0  0  0  0  0  0
   56.8960   27.6600   45.6270 C   0  0  0  0  0  0  0  0  0  0  0  0
   57.5300   26.3270   46.0440 C   0  0  0  0  0  0  0  0  0  0  0  0
   59.0710   26.4310   46.1350 C   0  0  2  0  0  0  0  0  0  0  0  0
   59.4870   26.6340   47.4870 O   0  0  0  0  0  0  0  0  0  0  0  0
   59.6450   27.8810   48.1160 C   0  0  0  0  0  0  0  0  0  0  0  0
   58.7470   28.9510   47.9260 C   0  0  0  0  0  0  0  0  0  0  0  0
   58.9570   30.1710   48.5740 C   0  0  0  0  0  0  0  0  0  0  0  0
   60.0530   30.3350   49.4280 C   0  0  0  0  0  0  0  0  0  0  0  0
   60.3080   31.9000   50.2670 S   0  0  0  0  0  0  0  0  0  0  0  0
   61.0060   32.6870   48.8030 C   0  0  0  0  0  0  0  0  0  0  0  0
   62.4010   32.7450   48.6900 C   0  0  0  0  0  0  0  0  0  0  0  0
   63.0010   33.3170   47.5680 C   0  0  0  0  0  0  0  0  0  0  0  0
   62.2170   33.8490   46.5470 C   0  0  0  0  0  0  0  0  0  0  0  0
   60.8180   33.8180   46.6410 C   0  0  0  0  0  0  0  0  0  0  0  0
   60.0320   34.3630   45.6140 C   0  0  0  0  0  0  0  0  0  0  0  0
   58.6400   34.3390   45.7060 C   0  0  0  0  0  0  0  0  0  0  0  0
   58.0200   33.7780   46.8240 C   0  0  0  0  0  0  0  0  0  0  0  0
   58.7890   33.2320   47.8550 C   0  0  0  0  0  0  0  0  0  0  0  0
   60.1960   33.2370   47.7790 C   0  0  0  0  0  0  0  0  0  0  0  0
   60.9480   29.2770   49.6190 C   0  0  0  0  0  0  0  0  0  0  0  0
   60.7430   28.0580   48.9670 C   0  0  0  0  0  0  0  0  0  0  0  0
   59.6230   27.5840   45.2750 C   0  0  0  0  0  0  0  0  0  0  0  0
   58.7890   27.7670   43.9980 C   0  0  0  0  0  0  0  0  0  0  0  0
   55.2638   29.9439   42.7480 H   0  0  0  0  0  0  0  0  0  0  0  0
   56.8392   30.4748   42.0674 H   0  0  0  0  0  0  0  0  0  0  0  0
   56.4023   28.7324   42.0674 H   0  0  0  0  0  0  0  0  0  0  0  0
   56.2427   29.7600   44.7902 H   0  0  0  0  0  0  0  0  0  0  0  0
   58.3352   30.6868   45.2406 H   0  0  0  0  0  0  0  0  0  0  0  0
   59.0450   30.1132   43.6935 H   0  0  0  0  0  0  0  0  0  0  0  0
   57.8706   31.4723   43.6935 H   0  0  0  0  0  0  0  0  0  0  0  0
   56.7950   27.5070   43.6100 H   0  0  0  0  0  0  0  0  0  0  0  0
   57.1727   28.4314   46.3607 H   0  0  0  0  0  0  0  0  0  0  0  0
   55.8050   27.5244   45.5903 H   0  0  0  0  0  0  0  0  0  0  0  0
   57.1335   26.0358   47.0278 H   0  0  0  0  0  0  0  0  0  0  0  0
   57.2811   25.5749   45.2809 H   0  0  0  0  0  0  0  0  0  0  0  0
   59.4715   25.4797   45.7547 H   0  0  0  0  0  0  0  0  0  0  0  0
   57.8771   28.8249   47.2647 H   0  0  0  0  0  0  0  0  0  0  0  0
   58.2584   31.0051   48.4122 H   0  0  0  0  0  0  0  0  0  0  0  0
   63.0298   32.3353   49.4942 H   0  0  0  0  0  0  0  0  0  0  0  0
   64.0977   33.3480   47.4893 H   0  0  0  0  0  0  0  0  0  0  0  0
   62.6970   34.2952   45.6635 H   0  0  0  0  0  0  0  0  0  0  0  0
   60.5152   34.8108   44.7331 H   0  0  0  0  0  0  0  0  0  0  0  0
   58.0294   34.7633   44.8954 H   0  0  0  0  0  0  0  0  0  0  0  0
   56.9223   33.7658   46.8935 H   0  0  0  0  0  0  0  0  0  0  0  0
   58.2918   32.7946   48.7333 H   0  0  0  0  0  0  0  0  0  0  0  0
   61.8150   29.4048   50.2838 H   0  0  0  0  0  0  0  0  0  0  0  0
   61.4503   27.2303   49.1236 H   0  0  0  0  0  0  0  0  0  0  0  0
   59.5938   28.5150   45.8601 H   0  0  0  0  0  0  0  0  0  0  0  0
   60.6566   27.3421   44.9866 H   0  0  0  0  0  0  0  0  0  0  0  0
   59.2248   28.5876   43.4092 H   0  0  0  0  0  0  0  0  0  0  0  0
   58.8107   26.8129   43.4510 H   0  0  0  0  0  0  0  0  0  0  0  0
  1  2  1  0
  2  3  1  0
  2  4  1  0
  4  5  1  0
  5  6  1  0
  6  7  1  0
  7  8  1  0
  8  9  1  0
  9 10  2  0
 10 11  1  0
 11 12  2  0
 12 13  1  0
 13 14  1  0
 14 15  2  0
 15 16  1  0
 16 17  2  0
 17 18  1  0
 18 19  2  0
 19 20  1  0
 20 21  2  0
 21 22  1  0
 22 23  2  0
 12 24  1  0
 24 25  2  0
  7 26  1  0
 26 27  1  0
 27  4  1  0
 25  9  1  0
 23 14  1  0
 23 18  1  0
  1 28  1  0
  1 29  1  0
  1 30  1  0
  2 31  1  0
  3 32  1  0
  3 33  1  0
  3 34  1  0
  4 35  1  6
  5 36  1  0
  5 37  1  0
  6 38  1  0
  6 39  1  0
  7 40  1  6
 10 41  1  0
 11 42  1  0
 15 43  1  0
 16 44  1  0
 17 45  1  0
 19 46  1  0
 20 47  1  0
 21 48  1  0
 22 49  1  0
 24 50  1  0
 25 51  1  0
 26 52  1  0
 26 53  1  0
 27 54  1  0
 27 55  1  0
M  CHG  1   4   1
M  END
>  <UniqueID>  (24) 
24

>  <SMILES>  (24) 
CC(C)[NH+]1CCC(Oc2ccc(Sc3cccc4ccccc34)cc2)CC1

>  <Energy>  (24) 
69.18380113531381

>  <Genealogy>  (24) 
CC(C)[NH+]1CCC(Oc2ccc(Sc3cccc4ccccc34)cc2)CC1 (protonated)
CC(C)[NH+]1CCC(Oc2ccc(Sc3cccc4ccccc34)cc2)CC1 (3D coordinates assigned)
CC(C)[NH+]1CCC(Oc2ccc(Sc3cccc4ccccc34)cc2)CC1 (nonaromatic ring conformer: 69.18380113531381 kcal/mol)

>  <smiles>  (24) 
CC(C)N1CCC(Oc2ccc(Sc3cccc4ccccc34)cc2)CC1

>  <score_type>  (24) 
oracle

>  <origin>  (24) 
adg

>  <m_score__min__energy>  (24) 
-7.5599999999999996

>  <m_primary>  (24) 
energy

$$$$
24:0
     RDKit          3D

 38 40  0  0  0  0  0  0  0  0999 V2000
   60.3030   28.1630   48.0590 C   0  0  0  0  0  0  0  0  0  0  0  0
   59.4530   29.0280   47.5030 C   0  0  0  0  0  0  0  0  0  0  0  0
   59.7590   29.6670   46.1780 C   0  0  0  0  0  0  0  0  0  0  0  0
   58.5510   30.2630   45.6030 N   0  0  0  0  0  0  0  0  0  0  0  0
   57.6630   29.6890   44.7650 C   0  0  0  0  0  0  0  0  0  0  0  0
   57.7860   28.0170   44.1200 S   0  0  0  0  0  0  0  0  0  0  0  0
   57.4660   27.1990   45.7210 C   0  0  0  0  0  0  0  0  0  0  0  0
   56.3010   26.2590   45.6200 C   0  0  0  0  0  0  0  0  0  0  0  0
   55.1660   26.6480   46.0060 O   0  0  0  0  0  0  0  0  0  0  0  0
   56.4560   24.8850   45.1060 C   0  0  0  0  0  0  0  0  0  0  0  0
   57.0070   24.5100   43.8820 C   0  0  0  0  0  0  0  0  0  0  0  0
   57.0190   23.1250   43.6810 C   0  0  0  0  0  0  0  0  0  0  0  0
   56.4800   22.4130   44.7410 C   0  0  0  0  0  0  0  0  0  0  0  0
   56.3190   20.5160   44.8470 Br  0  0  0  0  0  0  0  0  0  0  0  0
   55.9870   23.4920   45.9300 S   0  0  0  0  0  0  0  0  0  0  0  0
   56.6230   30.5040   44.5110 N   0  0  0  0  0  0  0  0  0  0  0  0
   56.8390   31.6250   45.1820 N   0  0  0  0  0  0  0  0  0  0  0  0
   58.0070   31.4770   45.8390 C   0  0  0  0  0  0  0  0  0  0  0  0
   58.5780   32.5170   46.7210 C   0  0  0  0  0  0  0  0  0  0  0  0
   58.7150   32.2620   48.0950 C   0  0  0  0  0  0  0  0  0  0  0  0
   59.2670   33.2250   48.9430 C   0  0  0  0  0  0  0  0  0  0  0  0
   59.6950   34.4500   48.4260 C   0  0  0  0  0  0  0  0  0  0  0  0
   59.5730   34.7120   47.0600 C   0  0  0  0  0  0  0  0  0  0  0  0
   59.0210   33.7530   46.2010 C   0  0  0  0  0  0  0  0  0  0  0  0
   58.8560   34.1560   44.4950 Cl  0  0  0  0  0  0  0  0  0  0  0  0
   60.0641   27.7039   49.0296 H   0  0  0  0  0  0  0  0  0  0  0  0
   61.2427   27.9089   47.5468 H   0  0  0  0  0  0  0  0  0  0  0  0
   58.5154   29.2768   48.0217 H   0  0  0  0  0  0  0  0  0  0  0  0
   60.5165   30.4517   46.3212 H   0  0  0  0  0  0  0  0  0  0  0  0
   60.1362   28.8956   45.4905 H   0  0  0  0  0  0  0  0  0  0  0  0
   58.3602   26.6330   46.0210 H   0  0  0  0  0  0  0  0  0  0  0  0
   57.2303   27.9708   46.4685 H   0  0  0  0  0  0  0  0  0  0  0  0
   57.3940   25.2310   43.1469 H   0  0  0  0  0  0  0  0  0  0  0  0
   57.4165   22.6490   42.7725 H   0  0  0  0  0  0  0  0  0  0  0  0
   58.3852   31.2967   48.5066 H   0  0  0  0  0  0  0  0  0  0  0  0
   59.3647   33.0185   50.0190 H   0  0  0  0  0  0  0  0  0  0  0  0
   60.1281   35.2082   49.0950 H   0  0  0  0  0  0  0  0  0  0  0  0
   59.9124   35.6772   46.6560 H   0  0  0  0  0  0  0  0  0  0  0  0
  1  2  2  0
  2  3  1  0
  3  4  1  0
  4  5  1  0
  5  6  1  0
  6  7  1  0
  7  8  1  0
  8  9  2  0
  8 10  1  0
 10 11  2  0
 11 12  1  0
 12 13  2  0
 13 14  1  0
 13 15  1  0
  5 16  2  0
 16 17  1  0
 17 18  2  0
 18 19  1  0
 19 20  2  0
 20 21  1  0
 21 22  2  0
 22 23  1  0
 23 24  2  0
 24 25  1  0
 18  4  1  0
 24 19  1  0
 15 10  1  0
  1 26  1  0
  1 27  1  0
  2 28  1  0
  3 29  1  0
  3 30  1  0
  7 31  1  0
  7 32  1  0
 11 33  1  0
 12 34  1  0
 20 35  1  0
 21 36  1  0
 22 37  1  0
 23 38  1  0
M  END
>  <UniqueID>  (25) 
25

>  <SMILES>  (25) 
C=CCn1c(SCC(=O)c2ccc(Br)s2)nnc1-c1ccccc1Cl

>  <Energy>  (25) 
99.24492663061439

>  <Genealogy>  (25) 
C=CCn1c(SCC(=O)c2ccc(Br)s2)nnc1-c1ccccc1Cl (3D coordinates assigned)
C=CCn1c(SCC(=O)c2ccc(Br)s2)nnc1-c1ccccc1Cl (optimized conformer: 99.24492663061439 kcal/mol)

>  <smiles>  (25) 
C=CCn1c(SCC(=O)c2ccc(Br)s2)nnc1-c1ccccc1Cl

>  <score_type>  (25) 
oracle

>  <origin>  (25) 
adg

>  <m_score__min__energy>  (25) 
-9.5099999999999998

>  <m_primary>  (25) 
energy

$$$$
25:0
     RDKit          3D

 53 57  0  0  0  0  0  0  0  0999 V2000
   55.8310   24.8990   45.2750 C   0  0  0  0  0  0  0  0  0  0  0  0
   57.0720   25.4960   44.7560 N   0  0  0  0  0  0  0  0  0  0  0  0
   57.3890   24.9030   43.4440 C   0  0  0  0  0  0  0  0  0  0  0  0
   58.1770   25.2860   45.7200 C   0  0  0  0  0  0  0  0  0  0  0  0
   58.6780   26.6130   46.3110 C   0  0  0  0  0  0  0  0  0  0  0  0
   59.4470   27.4470   45.2800 C   0  0  0  0  0  0  0  0  0  0  0  0
   58.5790   28.5390   44.7400 C   0  0  0  0  0  0  0  0  0  0  0  0
   57.4270   28.3480   44.0390 N   0  0  0  0  0  0  0  0  0  0  0  0
   56.8170   29.5210   43.8740 N   0  0  0  0  0  0  0  0  0  0  0  0
   55.4730   29.6990   43.3410 C   0  0  0  0  0  0  0  0  0  0  0  0
   57.5780   30.4400   44.4850 C   0  0  0  0  0  0  0  0  0  0  0  0
   57.3790   32.0390   44.9350 S   0  0  0  0  0  0  0  0  0  0  0  0
   58.8240   32.0050   45.8700 C   0  0  0  0  0  0  0  0  0  0  0  0
   59.3320   33.1160   46.6250 N   0  0  0  0  0  0  0  0  0  0  0  0
   58.8350   34.3850   46.7040 C   0  0  0  0  0  0  0  0  0  0  0  0
   59.5620   35.2150   47.5120 N   0  0  0  0  0  0  0  0  0  0  0  0
   60.5380   34.3940   47.9350 C   0  0  0  0  0  0  0  0  0  0  0  0
   61.6310   34.5800   48.7680 C   0  0  0  0  0  0  0  0  0  0  0  0
   62.3680   33.3780   48.8720 C   0  0  0  0  0  0  0  0  0  0  0  0
   63.6040   33.1860   49.6730 C   0  0  0  0  0  0  0  0  0  0  0  0
   64.5200   32.1710   49.3360 C   0  0  0  0  0  0  0  0  0  0  0  0
   65.6850   31.9850   50.0860 C   0  0  0  0  0  0  0  0  0  0  0  0
   65.9520   32.8060   51.1840 C   0  0  0  0  0  0  0  0  0  0  0  0
   67.4140   32.5690   52.1240 Cl  0  0  0  0  0  0  0  0  0  0  0  0
   65.0510   33.8140   51.5330 C   0  0  0  0  0  0  0  0  0  0  0  0
   63.8840   34.0040   50.7860 C   0  0  0  0  0  0  0  0  0  0  0  0
   61.6240   32.1500   47.9180 S   0  0  0  0  0  0  0  0  0  0  0  0
   60.4050   33.1810   47.4210 C   0  0  0  0  0  0  0  0  0  0  0  0
   59.4130   30.7250   45.8440 C   0  0  0  0  0  0  0  0  0  0  0  0
   58.6590   29.8840   45.0400 C   0  0  0  0  0  0  0  0  0  0  0  0
   55.8514   24.9088   46.3748 H   0  0  0  0  0  0  0  0  0  0  0  0
   54.9677   25.4803   44.9191 H   0  0  0  0  0  0  0  0  0  0  0  0
   55.7464   23.8616   44.9191 H   0  0  0  0  0  0  0  0  0  0  0  0
   57.9029   23.9416   43.5907 H   0  0  0  0  0  0  0  0  0  0  0  0
   56.4582   24.7391   42.8812 H   0  0  0  0  0  0  0  0  0  0  0  0
   58.0424   25.5859   42.8812 H   0  0  0  0  0  0  0  0  0  0  0  0
   57.8185   24.6444   46.5385 H   0  0  0  0  0  0  0  0  0  0  0  0
   59.0131   24.8128   45.1842 H   0  0  0  0  0  0  0  0  0  0  0  0
   57.8129   27.1938   46.6636 H   0  0  0  0  0  0  0  0  0  0  0  0
   59.3640   26.3789   47.1384 H   0  0  0  0  0  0  0  0  0  0  0  0
   60.3315   27.8911   45.7601 H   0  0  0  0  0  0  0  0  0  0  0  0
   59.7551   26.7933   44.4507 H   0  0  0  0  0  0  0  0  0  0  0  0
   57.0350   27.4270   43.7400 H   0  0  0  0  0  0  0  0  0  0  0  0
   54.7585   29.7936   44.1720 H   0  0  0  0  0  0  0  0  0  0  0  0
   55.4407   30.6093   42.7243 H   0  0  0  0  0  0  0  0  0  0  0  0
   55.2049   28.8285   42.7243 H   0  0  0  0  0  0  0  0  0  0  0  0
   57.9320   34.7103   46.1667 H   0  0  0  0  0  0  0  0  0  0  0  0
   61.8867   35.5231   49.2731 H   0  0  0  0  0  0  0  0  0  0  0  0
   64.3169   31.5182   48.4743 H   0  0  0  0  0  0  0  0  0  0  0  0
   66.3934   31.1898   49.8106 H   0  0  0  0  0  0  0  0  0  0  0  0
   65.2597   34.4606   52.3981 H   0  0  0  0  0  0  0  0  0  0  0  0
   63.1785   34.7989   51.0696 H   0  0  0  0  0  0  0  0  0  0  0  0
   60.3299   30.4374   46.3793 H   0  0  0  0  0  0  0  0  0  0  0  0
  1  2  1  0
  2  3  1  0
  2  4  1  0
  4  5  1  0
  5  6  1  0
  6  7  1  0
  7  8  2  0
  8  9  1  0
  9 10  1  0
  9 11  1  0
 11 12  1  0
 12 13  1  0
 13 14  1  0
 14 15  1  0
 15 16  2  0
 16 17  1  0
 17 18  1  0
 18 19  2  0
 19 20  1  0
 20 21  2  0
 21 22  1  0
 22 23  2  0
 23 24  1  0
 23 25  1  0
 25 26  2  0
 19 27  1  0
 27 28  1  0
 13 29  2  0
 29 30  1  0
 30  7  1  0
 30 11  2  0
 28 14  1  0
 28 17  2  0
 26 20  1  0
  1 31  1  0
  1 32  1  0
  1 33  1  0
  3 34  1  0
  3 35  1  0
  3 36  1  0
  4 37  1  0
  4 38  1  0
  5 39  1  0
  5 40  1  0
  6 41  1  0
  6 42  1  0
  8 43  1  0
 10 44  1  0
 10 45  1  0
 10 46  1  0
 15 47  1  0
 18 48  1  0
 21 49  1  0
 22 50  1  0
 25 51  1  0
 26 52  1  0
 29 53  1  0
M  CHG  1   8   1
M  END
>  <UniqueID>  (26) 
26

>  <SMILES>  (26) 
CN(C)CCCc1[nH+]n(C)c2sc(-n3cnc4cc(-c5ccc(Cl)cc5)sc43)cc12

>  <Energy>  (26) 
218.89811514742263

>  <Genealogy>  (26) 
CN(C)CCCc1[nH+]n(C)c2sc(-n3cnc4cc(-c5ccc(Cl)cc5)sc43)cc12 (protonated)
CN(C)CCCc1[nH+]n(C)c2sc(-n3cnc4cc(-c5ccc(Cl)cc5)sc43)cc12 (3D coordinates assigned)
CN(C)CCCc1[nH+]n(C)c2sc(-n3cnc4cc(-c5ccc(Cl)cc5)sc43)cc12 (optimized conformer: 218.89811514742263 kcal/mol)

>  <smiles>  (26) 
CN(C)CCCc1nn(C)c2sc(-n3cnc4cc(-c5ccc(Cl)cc5)sc43)cc12

>  <score_type>  (26) 
oracle

>  <origin>  (26) 
adg

>  <m_score__min__energy>  (26) 
-7.96

>  <m_primary>  (26) 
energy

$$$$
26:0
     RDKit          3D

 35 38  0  0  0  0  0  0  0  0999 V2000
   58.4730   34.8280   45.0200 F   0  0  0  0  0  0  0  0  0  0  0  0
   57.5310   34.1340   45.7580 C   0  0  0  0  0  0  0  0  0  0  0  0
   57.7580   34.3750   47.1000 F   0  0  0  0  0  0  0  0  0  0  0  0
   56.2750   34.5950   45.4070 F   0  0  0  0  0  0  0  0  0  0  0  0
   57.6540   32.6640   45.4770 C   0  0  0  0  0  0  0  0  0  0  0  0
   56.6760   31.9540   44.8780 N   0  0  0  0  0  0  0  0  0  0  0  0
   57.0710   30.6890   44.8450 N   0  0  0  0  0  0  0  0  0  0  0  0
   58.2910   30.6520   45.4110 C   0  0  0  0  0  0  0  0  0  0  0  0
   58.6940   31.8670   45.8150 N   0  0  0  0  0  0  0  0  0  0  0  0
   59.9550   32.1730   46.4430 C   0  0  0  0  0  0  0  0  0  0  0  0
   60.6920   33.2900   46.0110 C   0  0  0  0  0  0  0  0  0  0  0  0
   61.9270   33.5970   46.5820 C   0  0  0  0  0  0  0  0  0  0  0  0
   62.4580   32.7790   47.5780 C   0  0  0  0  0  0  0  0  0  0  0  0
   64.0130   33.1650   48.2910 Cl  0  0  0  0  0  0  0  0  0  0  0  0
   61.7580   31.6470   47.9970 C   0  0  0  0  0  0  0  0  0  0  0  0
   60.5100   31.3180   47.4350 C   0  0  0  0  0  0  0  0  0  0  0  0
   59.8080   30.0940   47.9390 C   0  0  0  0  0  0  0  0  0  0  0  0
   59.8140   29.8010   49.3930 C   0  0  0  0  0  0  0  0  0  0  0  0
   60.3640   28.5860   49.8430 C   0  0  0  0  0  0  0  0  0  0  0  0
   60.4000   28.2820   51.2060 C   0  0  0  0  0  0  0  0  0  0  0  0
   59.8850   29.1860   52.1370 C   0  0  0  0  0  0  0  0  0  0  0  0
   59.3310   30.3920   51.7070 C   0  0  0  0  0  0  0  0  0  0  0  0
   59.2890   30.7080   50.3430 C   0  0  0  0  0  0  0  0  0  0  0  0
   58.5130   32.2170   49.8680 Cl  0  0  0  0  0  0  0  0  0  0  0  0
   59.1810   29.2680   47.1460 N   0  0  0  0  0  0  0  0  0  0  0  0
   59.0500   29.4060   45.7020 C   0  0  0  0  0  0  0  0  0  0  0  0
   60.2892   33.9301   45.2122 H   0  0  0  0  0  0  0  0  0  0  0  0
   62.4823   34.4852   46.2461 H   0  0  0  0  0  0  0  0  0  0  0  0
   62.1876   31.0023   48.7779 H   0  0  0  0  0  0  0  0  0  0  0  0
   60.7695   27.8688   49.1142 H   0  0  0  0  0  0  0  0  0  0  0  0
   60.8342   27.3302   51.5458 H   0  0  0  0  0  0  0  0  0  0  0  0
   59.9161   28.9472   53.2103 H   0  0  0  0  0  0  0  0  0  0  0  0
   58.9243   31.0998   52.4443 H   0  0  0  0  0  0  0  0  0  0  0  0
   60.0481   29.4644   45.2433 H   0  0  0  0  0  0  0  0  0  0  0  0
   58.5179   28.5367   45.2882 H   0  0  0  0  0  0  0  0  0  0  0  0
  1  2  1  0
  2  3  1  0
  2  4  1  0
  2  5  1  0
  5  6  2  0
  6  7  1  0
  7  8  2  0
  8  9  1  0
  9 10  1  0
 10 11  2  0
 11 12  1  0
 12 13  2  0
 13 14  1  0
 13 15  1  0
 15 16  2  0
 16 17  1  0
 17 18  1  0
 18 19  2  0
 19 20  1  0
 20 21  2  0
 21 22  1  0
 22 23  2  0
 23 24  1  0
 17 25  2  0
 25 26  1  0
  9  5  1  0
 16 10  1  0
 23 18  1  0
 26  8  1  0
 11 27  1  0
 12 28  1  0
 15 29  1  0
 19 30  1  0
 20 31  1  0
 21 32  1  0
 22 33  1  0
 26 34  1  0
 26 35  1  0
M  END
>  <UniqueID>  (27) 
27

>  <SMILES>  (27) 
FC(F)(F)c1nnc2n1-c1ccc(Cl)cc1C(c1ccccc1Cl)=NC2

>  <Energy>  (27) 
93.5086881756284

>  <Genealogy>  (27) 
FC(F)(F)c1nnc2n1-c1ccc(Cl)cc1C(c1ccccc1Cl)=NC2 (3D coordinates assigned)
FC(F)(F)c1nnc2n1-c1ccc(Cl)cc1C(c1ccccc1Cl)=NC2 (nonaromatic ring conformer: 93.5086881756284 kcal/mol)

>  <smiles>  (27) 
FC(F)(F)c1nnc2n1-c1ccc(Cl)cc1C(c1ccccc1Cl)=NC2

>  <score_type>  (27) 
oracle

>  <origin>  (27) 
adg

>  <m_score__min__energy>  (27) 
-7.5

>  <m_primary>  (27) 
energy

$$$$
27:0
     RDKit          3D

 33 35  0  0  0  0  0  0  0  0999 V2000
   54.5000   29.3690   43.6870 O   0  0  0  0  0  0  0  0  0  0  0  0
   55.6130   29.4140   44.2750 C   0  0  0  0  0  0  0  0  0  0  0  0
   55.9220   28.3980   45.2400 N   0  0  0  0  0  0  0  0  0  0  0  0
   57.2330   28.0180   45.6830 C   0  0  0  0  0  0  0  0  0  0  0  0
   57.7020   26.7330   45.3880 C   0  0  0  0  0  0  0  0  0  0  0  0
   58.9630   26.3250   45.8270 C   0  0  0  0  0  0  0  0  0  0  0  0
   59.7750   27.2060   46.5450 C   0  0  0  0  0  0  0  0  0  0  0  0
   59.3460   28.5200   46.8010 C   0  0  0  0  0  0  0  0  0  0  0  0
   60.1950   29.4600   47.6200 C   0  0  0  0  0  0  0  0  0  0  0  0
   59.4010   30.3920   48.2650 F   0  0  0  0  0  0  0  0  0  0  0  0
   60.8940   28.7320   48.5650 F   0  0  0  0  0  0  0  0  0  0  0  0
   61.0950   30.1390   46.8170 F   0  0  0  0  0  0  0  0  0  0  0  0
   58.0700   28.9170   46.3680 C   0  0  0  0  0  0  0  0  0  0  0  0
   56.5290   30.5420   44.0060 C   0  0  0  0  0  0  0  0  0  0  0  0
   57.0130   30.8440   42.7350 C   0  0  0  0  0  0  0  0  0  0  0  0
   58.0230   32.1820   42.8740 S   0  0  0  0  0  0  0  0  0  0  0  0
   57.7960   32.3300   44.5370 C   0  0  0  0  0  0  0  0  0  0  0  0
   58.4310   33.3240   45.4210 C   0  0  0  0  0  0  0  0  0  0  0  0
   59.0500   34.4760   44.9090 C   0  0  0  0  0  0  0  0  0  0  0  0
   59.6480   35.3810   45.7890 C   0  0  0  0  0  0  0  0  0  0  0  0
   59.6270   35.1340   47.1620 C   0  0  0  0  0  0  0  0  0  0  0  0
   59.0040   33.9790   47.6380 C   0  0  0  0  0  0  0  0  0  0  0  0
   58.4260   33.1090   46.7660 N   0  0  0  0  0  0  0  0  0  0  0  0
   56.9570   31.3750   44.9940 N   0  0  0  0  0  0  0  0  0  0  0  0
   57.0742   26.0410   44.8075 H   0  0  0  0  0  0  0  0  0  0  0  0
   59.3179   25.3073   45.6069 H   0  0  0  0  0  0  0  0  0  0  0  0
   60.7558   26.8697   46.9122 H   0  0  0  0  0  0  0  0  0  0  0  0
   57.7219   29.9414   46.5667 H   0  0  0  0  0  0  0  0  0  0  0  0
   56.7768   30.3039   41.8063 H   0  0  0  0  0  0  0  0  0  0  0  0
   59.0638   34.6638   43.8252 H   0  0  0  0  0  0  0  0  0  0  0  0
   60.1349   36.2874   45.4000 H   0  0  0  0  0  0  0  0  0  0  0  0
   60.0961   35.8415   47.8616 H   0  0  0  0  0  0  0  0  0  0  0  0
   58.9804   33.7722   48.7181 H   0  0  0  0  0  0  0  0  0  0  0  0
  1  2  2  0
  2  3  1  0
  3  4  1  0
  4  5  2  0
  5  6  1  0
  6  7  2  0
  7  8  1  0
  8  9  1  0
  9 10  1  0
  9 11  1  0
  9 12  1  0
  8 13  2  0
  2 14  1  0
 14 15  2  0
 15 16  1  0
 16 17  1  0
 17 18  1  0
 18 19  2  0
 19 20  1  0
 20 21  2  0
 21 22  1  0
 22 23  2  0
 17 24  2  0
 13  4  1  0
 24 14  1  0
 23 18  1  0
  5 25  1  0
  6 26  1  0
  7 27  1  0
 13 28  1  0
 15 29  1  0
 19 30  1  0
 20 31  1  0
 21 32  1  0
 22 33  1  0
M  CHG  1   3  -1
M  END
>  <UniqueID>  (28) 
28

>  <SMILES>  (28) 
O=C([N-]c1cccc(C(F)(F)F)c1)c1csc(-c2ccccn2)n1

>  <Energy>  (28) 
70.51142414554029

>  <Genealogy>  (28) 
O=C([N-]c1cccc(C(F)(F)F)c1)c1csc(-c2ccccn2)n1 (protonated)
O=C([N-]c1cccc(C(F)(F)F)c1)c1csc(-c2ccccn2)n1 (3D coordinates assigned)
O=C([N-]c1cccc(C(F)(F)F)c1)c1csc(-c2ccccn2)n1 (optimized conformer: 70.51142414554029 kcal/mol)

>  <smiles>  (28) 
O=C(Nc1cccc(C(F)(F)F)c1)c1csc(-c2ccccn2)n1

>  <score_type>  (28) 
oracle

>  <origin>  (28) 
adg

>  <m_score__min__energy>  (28) 
-9.8900000000000006

>  <m_primary>  (28) 
energy

$$$$
28:0
     RDKit          3D

 51 55  0  0  0  0  0  0  0  0999 V2000
   58.6298   26.8656   44.4523 H   0  0  0  0  0  0  0  0  0  0  0  0
   57.8220   27.1180   45.1550 C   0  0  0  0  0  0  0  0  0  0  0  0
   57.2410   26.0300   45.9610 C   0  0  0  0  0  0  0  0  0  0  0  0
   57.9820   25.0770   46.5530 N   0  0  0  0  0  0  0  0  0  0  0  0
   57.0720   24.3520   47.2380 C   0  0  0  0  0  0  0  0  0  0  0  0
   57.3850   23.3440   47.9230 O   0  0  0  0  0  0  0  0  0  0  0  0
   55.8020   24.7980   47.1400 N   0  0  0  0  0  0  0  0  0  0  0  0
   55.9260   25.8680   46.3380 C   0  0  0  0  0  0  0  0  0  0  0  0
   54.8670   26.7040   46.0050 O   0  0  0  0  0  0  0  0  0  0  0  0
   57.4260   28.3970   45.2260 C   0  0  0  0  0  0  0  0  0  0  0  0
   56.3110   29.0110   44.6550 C   0  0  0  0  0  0  0  0  0  0  0  0
   55.5396   28.4976   44.0623 H   0  0  0  0  0  0  0  0  0  0  0  0
   56.3220   30.3360   44.9410 N   0  0  0  0  0  0  0  0  0  0  0  0
   57.4040   30.5710   45.6670 N   0  0  0  0  0  0  0  0  0  0  0  0
   57.8540   31.7510   46.1840 C   0  0  0  0  0  0  0  0  0  0  0  0
   57.2290   32.8830   46.0300 N   0  0  0  0  0  0  0  0  0  0  0  0
   57.4550   33.8650   44.9740 C   0  0  0  0  0  0  0  0  0  0  0  0
   56.4270   34.2502   44.9040 H   0  0  0  0  0  0  0  0  0  0  0  0
   58.8440   34.4730   45.0380 C   0  0  0  0  0  0  0  0  0  0  0  0
   58.9958   35.5281   44.7665 H   0  0  0  0  0  0  0  0  0  0  0  0
   59.6201   34.5610   45.8126 H   0  0  0  0  0  0  0  0  0  0  0  0
   58.5080   33.4510   43.9620 C   0  0  0  0  0  0  0  0  0  0  0  0
   58.4167   33.7669   42.9123 H   0  0  0  0  0  0  0  0  0  0  0  0
   58.9402   32.4935   43.6358 H   0  0  0  0  0  0  0  0  0  0  0  0
   59.0200   31.7310   46.8870 N   0  0  0  0  0  0  0  0  0  0  0  0
   59.7170   30.5660   47.0690 C   0  0  0  0  0  0  0  0  0  0  0  0
   60.8330   30.5530   47.7330 N   0  0  0  0  0  0  0  0  0  0  0  0
   61.7390   31.6940   47.8790 C   0  0  0  0  0  0  0  0  0  0  0  0
   61.3746   32.5217   47.2528 H   0  0  0  0  0  0  0  0  0  0  0  0
   62.7446   31.3775   47.5650 H   0  0  0  0  0  0  0  0  0  0  0  0
   61.8180   32.1690   49.3360 C   0  0  0  0  0  0  0  0  0  0  0  0
   61.9183   33.2643   49.3500 H   0  0  0  0  0  0  0  0  0  0  0  0
   62.6883   31.6902   49.8086 H   0  0  0  0  0  0  0  0  0  0  0  0
   60.5850   31.7800   50.1110 C   0  0  0  0  0  0  0  0  0  0  0  0
   59.3830   32.4840   49.9300 C   0  0  0  0  0  0  0  0  0  0  0  0
   59.3484   33.3404   49.2406 H   0  0  0  0  0  0  0  0  0  0  0  0
   58.2310   32.1010   50.6220 C   0  0  0  0  0  0  0  0  0  0  0  0
   57.2937   32.6580   50.4762 H   0  0  0  0  0  0  0  0  0  0  0  0
   58.2650   31.0100   51.5010 C   0  0  0  0  0  0  0  0  0  0  0  0
   56.8070   30.5140   52.3540 S   0  0  0  0  0  0  0  0  0  0  0  0
   56.7070   29.0150   52.3620 O   0  0  0  0  0  0  0  0  0  0  0  0
   56.8600   31.0010   53.7750 O   0  0  0  0  0  0  0  0  0  0  0  0
   55.4200   31.1800   51.5680 N   0  0  0  0  0  0  0  0  0  0  0  0
   55.7510   31.6010   50.6710 H   0  0  0  0  0  0  0  0  0  0  0  0
   55.0810   31.9700   52.1630 H   0  0  0  0  0  0  0  0  0  0  0  0
   59.4580   30.2950   51.6690 C   0  0  0  0  0  0  0  0  0  0  0  0
   59.4867   29.4292   52.3469 H   0  0  0  0  0  0  0  0  0  0  0  0
   60.6120   30.6770   50.9790 C   0  0  0  0  0  0  0  0  0  0  0  0
   61.5451   30.1110   51.1167 H   0  0  0  0  0  0  0  0  0  0  0  0
   59.2440   29.4010   46.5440 N   0  0  0  0  0  0  0  0  0  0  0  0
   58.0840   29.4340   45.8460 C   0  0  0  0  0  0  0  0  0  0  0  0
  1  2  1  0
  2  3  1  0
  3  4  1  0
  4  5  1  0
  5  6  2  0
  5  7  1  0
  7  8  1  0
  8  9  1  0
  2 10  2  0
 10 11  1  0
 11 12  1  0
 11 13  2  0
 13 14  1  0
 14 15  1  0
 15 16  2  3
 16 17  1  0
 17 18  1  0
 17 19  1  0
 19 20  1  0
 19 21  1  0
 19 22  1  0
 22 23  1  0
 22 24  1  0
 15 25  1  0
 25 26  1  0
 26 27  2  0
 27 28  1  0
 28 29  1  0
 28 30  1  0
 28 31  1  0
 31 32  1  0
 31 33  1  0
 31 34  1  0
 34 35  2  0
 35 36  1  0
 35 37  1  0
 37 38  1  0
 37 39  2  0
 39 40  1  0
 40 41  2  0
 40 42  2  0
 40 43  1  0
 43 44  1  0
 43 45  1  0
 39 46  1  0
 46 47  1  0
 46 48  2  0
 48 49  1  0
 26 50  1  0
 50 51  2  0
  8  3  2  0
 51 10  1  0
 51 14  1  0
 22 17  1  0
 48 34  1  0
M  CHG  4   4  -1   7  -1   9  -1  25  -1
M  END
>  <UniqueID>  (29) 
29

>  <SMILES>  (29) 
NS(=O)(=O)c1ccc(CC/N=c2/nc3/c(=C/c4[n-]c(=O)[n-]c4[O-])cnn3c(=NC3CC3)[n-]2)cc1

>  <Energy>  (29) 
392.44566493763216

>  <Genealogy>  (29) 
NS(=O)(=O)c1ccc(CCN=c2nc3c(=Cc4[n-]c(=O)[n-]c4[O-])cnn3c(=NC3CC3)[n-]2)cc1 (protonated)
NS(=O)(=O)c1ccc(CC/N=c2/nc3/c(=C/c4[n-]c(=O)[n-]c4[O-])cnn3c(=NC3CC3)[n-]2)cc1 (cis-trans isomerization)
NS(=O)(=O)c1ccc(CC/N=c2/nc3/c(=C/c4[n-]c(=O)[n-]c4[O-])cnn3c(=NC3CC3)[n-]2)cc1 (3D coordinates assigned)
NS(=O)(=O)c1ccc(CC/N=c2/nc3/c(=C/c4[n-]c(=O)[n-]c4[O-])cnn3c(=NC3CC3)[n-]2)cc1 (nonaromatic ring conformer: 392.44566493763216 kcal/mol)

>  <smiles>  (29) 
NS(=O)(=O)c1ccc(CCN=c2nc3c(=Cc4[nH]c(=O)[nH]c4O)cnn3c(=NC3CC3)[nH]2)cc1

>  <score_type>  (29) 
oracle

>  <origin>  (29) 
adg

>  <m_score__min__energy>  (29) 
-19.550000000000001

>  <m_primary>  (29) 
energy

$$$$
29:0
     RDKit          3D

 34 36  0  0  0  0  0  0  0  0999 V2000
   56.4210   30.4450   43.2410 C   0  0  0  0  0  0  0  0  0  0  0  0
   56.2910   31.1500   44.4710 O   0  0  0  0  0  0  0  0  0  0  0  0
   57.3500   31.7910   45.1310 C   0  0  0  0  0  0  0  0  0  0  0  0
   57.5480   33.1840   45.0670 C   0  0  0  0  0  0  0  0  0  0  0  0
   58.6140   33.7770   45.7490 C   0  0  0  0  0  0  0  0  0  0  0  0
   59.5060   32.9900   46.4940 C   0  0  0  0  0  0  0  0  0  0  0  0
   59.3080   31.6020   46.5550 C   0  0  0  0  0  0  0  0  0  0  0  0
   58.2340   31.0090   45.8840 C   0  0  0  0  0  0  0  0  0  0  0  0
   60.3870   30.6120   47.5830 S   0  0  0  0  0  0  0  0  0  0  0  0
   59.5660   31.2170   49.0620 C   0  0  0  0  0  0  0  0  0  0  0  0
   58.7870   30.3030   49.7840 C   0  0  0  0  0  0  0  0  0  0  0  0
   58.1450   30.6800   50.9650 C   0  0  0  0  0  0  0  0  0  0  0  0
   57.3860   29.7180   51.6470 O   0  0  0  0  0  0  0  0  0  0  0  0
   56.3930   30.0210   52.6210 C   0  0  0  0  0  0  0  0  0  0  0  0
   58.2860   31.9980   51.4290 C   0  0  0  0  0  0  0  0  0  0  0  0
   59.0430   32.9220   50.7080 C   0  0  0  0  0  0  0  0  0  0  0  0
   59.6840   32.5600   49.5080 C   0  0  0  0  0  0  0  0  0  0  0  0
   60.4210   33.6260   48.7560 C   0  0  0  0  0  0  0  0  0  0  0  0
   60.9060   34.5910   49.4060 O   0  0  0  0  0  0  0  0  0  0  0  0
   60.6430   33.6240   47.2600 C   0  0  0  0  0  0  0  0  0  0  0  0
   56.6170   29.3823   43.4464 H   0  0  0  0  0  0  0  0  0  0  0  0
   55.4900   30.5411   42.6631 H   0  0  0  0  0  0  0  0  0  0  0  0
   57.2565   30.8669   42.6631 H   0  0  0  0  0  0  0  0  0  0  0  0
   56.8603   33.8081   44.4774 H   0  0  0  0  0  0  0  0  0  0  0  0
   58.7548   34.8669   45.7017 H   0  0  0  0  0  0  0  0  0  0  0  0
   58.0828   29.9213   45.9482 H   0  0  0  0  0  0  0  0  0  0  0  0
   58.6797   29.2725   49.4145 H   0  0  0  0  0  0  0  0  0  0  0  0
   56.8159   29.8920   53.6282 H   0  0  0  0  0  0  0  0  0  0  0  0
   56.0600   31.0616   52.4937 H   0  0  0  0  0  0  0  0  0  0  0  0
   55.5358   29.3435   52.4937 H   0  0  0  0  0  0  0  0  0  0  0  0
   57.7970   32.3035   52.3658 H   0  0  0  0  0  0  0  0  0  0  0  0
   59.1407   33.9512   51.0837 H   0  0  0  0  0  0  0  0  0  0  0  0
   60.7563   34.6644   46.9213 H   0  0  0  0  0  0  0  0  0  0  0  0
   61.5453   33.0266   47.0627 H   0  0  0  0  0  0  0  0  0  0  0  0
  1  2  1  0
  2  3  1  0
  3  4  2  0
  4  5  1  0
  5  6  2  0
  6  7  1  0
  7  8  2  0
  7  9  1  0
  9 10  1  0
 10 11  2  0
 11 12  1  0
 12 13  1  0
 13 14  1  0
 12 15  2  0
 15 16  1  0
 16 17  2  0
 17 18  1  0
 18 19  2  0
 18 20  1  0
  8  3  1  0
 17 10  1  0
 20  6  1  0
  1 21  1  0
  1 22  1  0
  1 23  1  0
  4 24  1  0
  5 25  1  0
  8 26  1  0
 11 27  1  0
 14 28  1  0
 14 29  1  0
 14 30  1  0
 15 31  1  0
 16 32  1  0
 20 33  1  0
 20 34  1  0
M  END
>  <UniqueID>  (30) 
30

>  <SMILES>  (30) 
COc1ccc2c(c1)Sc1cc(OC)ccc1C(=O)C2

>  <Energy>  (30) 
43.1911353837037

>  <Genealogy>  (30) 
COc1ccc2c(c1)Sc1cc(OC)ccc1C(=O)C2 (3D coordinates assigned)
COc1ccc2c(c1)Sc1cc(OC)ccc1C(=O)C2 (nonaromatic ring conformer: 43.1911353837037 kcal/mol)

>  <smiles>  (30) 
COc1ccc2c(c1)Sc1cc(OC)ccc1C(=O)C2

>  <score_type>  (30) 
oracle

>  <origin>  (30) 
adg

>  <m_score__min__energy>  (30) 
-5.5099999999999998

>  <m_primary>  (30) 
energy

$$$$
30:0
     RDKit          3D

 28 30  0  0  1  0  0  0  0  0999 V2000
   61.0820   28.5700   44.9060 C   0  0  0  0  0  0  0  0  0  0  0  0
   59.7420   29.1800   44.8830 C   0  0  0  0  0  0  0  0  0  0  0  0
   59.3960   30.1780   45.7480 C   0  0  0  0  0  0  0  0  0  0  0  0
   58.1190   30.6930   45.6570 C   0  0  0  0  0  0  0  0  0  0  0  0
   57.7730   31.6200   46.4500 N   0  0  0  0  0  0  0  0  0  0  0  0
   58.4350   32.8660   46.6250 C   0  0  0  0  0  0  0  0  0  0  0  0
   58.4970   33.6890   45.4960 C   0  0  0  0  0  0  0  0  0  0  0  0
   59.1180   34.9240   45.5570 C   0  0  0  0  0  0  0  0  0  0  0  0
   59.6820   35.3390   46.7520 C   0  0  0  0  0  0  0  0  0  0  0  0
   59.6200   34.5160   47.8820 C   0  0  0  0  0  0  0  0  0  0  0  0
   60.1800   34.9620   49.0120 F   0  0  0  0  0  0  0  0  0  0  0  0
   58.9930   33.2690   47.8190 C   0  0  0  0  0  0  0  0  0  0  0  0
   57.2420   30.2270   44.7480 N   0  0  0  0  0  0  0  0  0  0  0  0
   55.9900   30.5710   44.4930 N   0  0  0  0  0  0  0  0  0  0  0  0
   55.5270   29.8140   43.4820 C   0  0  0  0  0  0  0  0  0  0  0  0
   56.5290   28.9880   43.1160 N   0  0  0  0  0  0  0  0  0  0  0  0
   57.6030   29.2440   43.9040 C   0  0  0  0  0  0  0  0  0  0  0  0
   58.8550   28.7230   43.9760 N   0  0  0  0  0  0  0  0  0  0  0  0
   61.4009   28.4248   45.9487 H   0  0  0  0  0  0  0  0  0  0  0  0
   61.0509   27.5973   44.3932 H   0  0  0  0  0  0  0  0  0  0  0  0
   61.7952   29.2322   44.3932 H   0  0  0  0  0  0  0  0  0  0  0  0
   60.1110   30.5587   46.4923 H   0  0  0  0  0  0  0  0  0  0  0  0
   58.0478   33.3513   44.5504 H   0  0  0  0  0  0  0  0  0  0  0  0
   59.1632   35.5687   44.6668 H   0  0  0  0  0  0  0  0  0  0  0  0
   60.1799   36.3180   46.8129 H   0  0  0  0  0  0  0  0  0  0  0  0
   58.9456   32.6206   48.7063 H   0  0  0  0  0  0  0  0  0  0  0  0
   54.5217   29.8598   43.0378 H   0  0  0  0  0  0  0  0  0  0  0  0
   59.0740   27.9620   43.2950 H   0  0  0  0  0  0  0  0  0  0  0  0
  1  2  1  0
  2  3  2  0
  3  4  1  0
  4  5  2  0
  5  6  1  0
  6  7  2  0
  7  8  1  0
  8  9  2  0
  9 10  1  0
 10 11  1  0
 10 12  2  0
  4 13  1  0
 13 14  1  0
 14 15  2  0
 15 16  1  0
 16 17  2  0
 17 18  1  0
 18  2  1  0
 12  6  1  0
 17 13  1  0
  1 19  1  0
  1 20  1  0
  1 21  1  0
  3 22  1  0
  7 23  1  0
  8 24  1  0
  9 25  1  0
 12 26  1  0
 15 27  1  0
 18 28  1  0
M  END
>  <smiles>  (31) 
Cc1cc(=Nc2cccc(F)c2)n2ncnc2[nH]1

>  <score_type>  (31) 
oracle

>  <origin>  (31) 
adg

>  <m_score__min__energy>  (31) 
-6.1399999999999997

>  <m_primary>  (31) 
energy

$$$$
31:0
     RDKit          3D

 55 57  0  0  0  0  0  0  0  0999 V2000
   62.3530   32.2220   48.8270 C   0  0  0  0  0  0  0  0  0  0  0  0
   62.5600   33.6950   48.4640 C   0  0  0  0  0  0  0  0  0  0  0  0
   63.3520   33.8120   47.1640 C   0  0  0  0  0  0  0  0  0  0  0  0
   61.2990   34.3450   48.2920 O   0  0  0  0  0  0  0  0  0  0  0  0
   60.2600   33.9140   47.4480 C   0  0  0  0  0  0  0  0  0  0  0  0
   59.0920   33.4270   48.0420 C   0  0  0  0  0  0  0  0  0  0  0  0
   58.0270   32.9770   47.2560 C   0  0  0  0  0  0  0  0  0  0  0  0
   58.1220   32.9900   45.8540 C   0  0  0  0  0  0  0  0  0  0  0  0
   56.9730   32.4990   44.9960 C   0  0  0  0  0  0  0  0  0  0  0  0
   56.8790   31.0240   44.9120 N   0  0  0  0  0  0  0  0  0  0  0  0
   57.7490   30.2930   45.8680 C   0  0  0  0  0  0  0  0  0  0  0  0
   58.9100   29.5710   45.1680 C   0  0  0  0  0  0  0  0  0  0  0  0
   58.3920   28.5570   44.1190 C   0  0  0  0  0  0  0  0  0  0  0  0
   58.2650   27.2270   44.7200 N   0  0  0  0  0  0  0  0  0  0  0  0
   57.0750   26.8000   45.4000 C   0  0  0  0  0  0  0  0  0  0  0  0
   56.1470   27.6220   45.6260 O   0  0  0  0  0  0  0  0  0  0  0  0
   56.9490   25.4610   45.8880 N   0  0  0  0  0  0  0  0  0  0  0  0
   57.0280   24.2660   45.0980 C   0  0  0  0  0  0  0  0  0  0  0  0
   56.4880   24.2710   43.8060 C   0  0  0  0  0  0  0  0  0  0  0  0
   56.5710   23.1300   43.0010 C   0  0  0  0  0  0  0  0  0  0  0  0
   57.2100   21.9810   43.4770 C   0  0  0  0  0  0  0  0  0  0  0  0
   57.7740   21.9760   44.7560 C   0  0  0  0  0  0  0  0  0  0  0  0
   57.6930   23.1150   45.5620 C   0  0  0  0  0  0  0  0  0  0  0  0
   57.0390   28.9820   43.5060 C   0  0  0  0  0  0  0  0  0  0  0  0
   56.8840   30.5050   43.5240 C   0  0  0  0  0  0  0  0  0  0  0  0
   59.2870   33.4990   45.2580 C   0  0  0  0  0  0  0  0  0  0  0  0
   60.3510   33.9480   46.0440 C   0  0  0  0  0  0  0  0  0  0  0  0
   62.3376   32.1127   49.9215 H   0  0  0  0  0  0  0  0  0  0  0  0
   61.3969   31.8725   48.4102 H   0  0  0  0  0  0  0  0  0  0  0  0
   63.1757   31.6225   48.4102 H   0  0  0  0  0  0  0  0  0  0  0  0
   63.1160   34.1749   49.2829 H   0  0  0  0  0  0  0  0  0  0  0  0
   64.4158   33.9692   47.3956 H   0  0  0  0  0  0  0  0  0  0  0  0
   63.2367   32.8871   46.5799 H   0  0  0  0  0  0  0  0  0  0  0  0
   62.9742   34.6641   46.5799 H   0  0  0  0  0  0  0  0  0  0  0  0
   59.0101   33.3976   49.1386 H   0  0  0  0  0  0  0  0  0  0  0  0
   57.1088   32.6104   47.7381 H   0  0  0  0  0  0  0  0  0  0  0  0
   56.0339   32.8829   45.4210 H   0  0  0  0  0  0  0  0  0  0  0  0
   57.1544   32.8675   43.9756 H   0  0  0  0  0  0  0  0  0  0  0  0
   58.1638   31.0123   46.5894 H   0  0  0  0  0  0  0  0  0  0  0  0
   57.1326   29.5313   46.3678 H   0  0  0  0  0  0  0  0  0  0  0  0
   59.5432   30.3159   44.6639 H   0  0  0  0  0  0  0  0  0  0  0  0
   59.4850   29.0211   45.9276 H   0  0  0  0  0  0  0  0  0  0  0  0
   59.1315   28.5309   43.3051 H   0  0  0  0  0  0  0  0  0  0  0  0
   59.1210   26.6320   44.7930 H   0  0  0  0  0  0  0  0  0  0  0  0
   55.9960   25.1769   43.4221 H   0  0  0  0  0  0  0  0  0  0  0  0
   56.1329   23.1367   41.9920 H   0  0  0  0  0  0  0  0  0  0  0  0
   57.2688   21.0821   42.8457 H   0  0  0  0  0  0  0  0  0  0  0  0
   58.2823   21.0744   45.1286 H   0  0  0  0  0  0  0  0  0  0  0  0
   58.1504   23.1122   46.5624 H   0  0  0  0  0  0  0  0  0  0  0  0
   56.9878   28.6273   42.4660 H   0  0  0  0  0  0  0  0  0  0  0  0
   56.2285   28.5397   44.1038 H   0  0  0  0  0  0  0  0  0  0  0  0
   57.7220   30.9580   42.9740 H   0  0  0  0  0  0  0  0  0  0  0  0
   55.9257   30.7644   43.0504 H   0  0  0  0  0  0  0  0  0  0  0  0
   59.3626   33.5446   44.1615 H   0  0  0  0  0  0  0  0  0  0  0  0
   61.2639   34.3298   45.5635 H   0  0  0  0  0  0  0  0  0  0  0  0
  1  2  1  0
  2  3  1  0
  2  4  1  0
  4  5  1  0
  5  6  2  0
  6  7  1  0
  7  8  2  0
  8  9  1  0
  9 10  1  0
 10 11  1  0
 11 12  1  0
 12 13  1  0
 13 14  1  0
 14 15  1  0
 15 16  2  0
 15 17  1  0
 17 18  1  0
 18 19  2  0
 19 20  1  0
 20 21  2  0
 21 22  1  0
 22 23  2  0
 13 24  1  0
 24 25  1  0
  8 26  1  0
 26 27  2  0
 27  5  1  0
 25 10  1  0
 23 18  1  0
  1 28  1  0
  1 29  1  0
  1 30  1  0
  2 31  1  0
  3 32  1  0
  3 33  1  0
  3 34  1  0
  6 35  1  0
  7 36  1  0
  9 37  1  0
  9 38  1  0
 11 39  1  0
 11 40  1  0
 12 41  1  0
 12 42  1  0
 13 43  1  0
 14 44  1  0
 19 45  1  0
 20 46  1  0
 21 47  1  0
 22 48  1  0
 23 49  1  0
 24 50  1  0
 24 51  1  0
 25 52  1  0
 25 53  1  0
 26 54  1  0
 27 55  1  0
M  CHG  1  17  -1
M  END
>  <UniqueID>  (32) 
31

>  <SMILES>  (32) 
CC(C)Oc1ccc(CN2CCC(NC(=O)[N-]c3ccccc3)CC2)cc1

>  <Energy>  (32) 
64.49921742413957

>  <Genealogy>  (32) 
CC(C)Oc1ccc(CN2CCC(NC(=O)[N-]c3ccccc3)CC2)cc1 (protonated)
CC(C)Oc1ccc(CN2CCC(NC(=O)[N-]c3ccccc3)CC2)cc1 (3D coordinates assigned)
CC(C)Oc1ccc(CN2CCC(NC(=O)[N-]c3ccccc3)CC2)cc1 (nonaromatic ring conformer: 64.49921742413957 kcal/mol)

>  <smiles>  (32) 
CC(C)Oc1ccc(CN2CCC(NC(=O)Nc3ccccc3)CC2)cc1

>  <score_type>  (32) 
oracle

>  <origin>  (32) 
adg

>  <m_score__min__energy>  (32) 
-10.1

>  <m_primary>  (32) 
energy

$$$$
32:0
     RDKit          3D

 56 58  0  0  0  0  0  0  0  0999 V2000
   57.8220   21.1160   43.6130 C   0  0  0  0  0  0  0  0  0  0  0  0
   56.4770   22.2620   43.8100 S   0  0  0  0  0  0  0  0  0  0  0  0
   55.5180   21.7370   44.8410 O   0  0  0  0  0  0  0  0  0  0  0  0
   55.7480   22.4130   42.5050 O   0  0  0  0  0  0  0  0  0  0  0  0
   57.1100   23.8240   44.3200 C   0  0  0  0  0  0  0  0  0  0  0  0
   57.4460   24.0480   45.6600 C   0  0  0  0  0  0  0  0  0  0  0  0
   57.9600   25.2850   46.0610 C   0  0  0  0  0  0  0  0  0  0  0  0
   58.1480   26.3180   45.1220 C   0  0  0  0  0  0  0  0  0  0  0  0
   58.6930   27.6330   45.5460 C   0  0  0  0  0  0  0  0  0  0  0  0
   58.1450   28.3130   46.6470 C   0  0  0  0  0  0  0  0  0  0  0  0
   58.6560   29.5510   47.0460 C   0  0  0  0  0  0  0  0  0  0  0  0
   59.7330   30.1340   46.3570 C   0  0  0  0  0  0  0  0  0  0  0  0
   60.2610   31.4590   46.7800 C   0  0  0  0  0  0  0  0  0  0  0  0
   59.6520   32.5910   46.3670 C   0  0  0  0  0  0  0  0  0  0  0  0
   58.2300   32.9750   46.6940 C   0  0  0  0  0  0  0  0  0  0  0  0
   57.2670   32.8000   45.5040 C   0  0  0  0  0  0  0  0  0  0  0  0
   57.6390   31.6550   44.5400 C   0  0  0  0  0  0  0  0  0  0  0  0
   56.4570   31.1020   43.7280 C   0  0  0  0  0  0  0  0  0  0  0  0
   56.1990   29.6570   44.0280 C   0  0  0  0  0  0  0  0  0  0  0  0
   56.9500   28.7670   43.5500 O   0  0  0  0  0  0  0  0  0  0  0  0
   55.1490   29.2960   44.8640 O   0  0  0  0  0  0  0  0  0  0  0  0
   61.4450   31.4900   47.6690 C   0  0  0  0  0  0  0  0  0  0  0  0
   61.3450   31.1290   49.0200 C   0  0  0  0  0  0  0  0  0  0  0  0
   62.4720   31.1920   49.8410 C   0  0  0  0  0  0  0  0  0  0  0  0
   63.6850   31.6290   49.3080 C   0  0  0  0  0  0  0  0  0  0  0  0
   63.7650   31.9960   48.0000 N   0  0  0  0  0  0  0  0  0  0  0  0
   62.6790   31.9420   47.1800 C   0  0  0  0  0  0  0  0  0  0  0  0
   60.2760   29.4590   45.2490 C   0  0  0  0  0  0  0  0  0  0  0  0
   59.7630   28.2210   44.8510 C   0  0  0  0  0  0  0  0  0  0  0  0
   57.8150   26.0810   43.7760 C   0  0  0  0  0  0  0  0  0  0  0  0
   57.3020   24.8430   43.3790 C   0  0  0  0  0  0  0  0  0  0  0  0
   58.1868   20.8051   44.6031 H   0  0  0  0  0  0  0  0  0  0  0  0
   57.4731   20.2333   43.0570 H   0  0  0  0  0  0  0  0  0  0  0  0
   58.6381   21.6006   43.0570 H   0  0  0  0  0  0  0  0  0  0  0  0
   57.3051   23.2474   46.4010 H   0  0  0  0  0  0  0  0  0  0  0  0
   58.2193   25.4526   47.1168 H   0  0  0  0  0  0  0  0  0  0  0  0
   57.3056   27.8664   47.2002 H   0  0  0  0  0  0  0  0  0  0  0  0
   58.2116   30.0732   47.9062 H   0  0  0  0  0  0  0  0  0  0  0  0
   60.2364   33.2854   45.7455 H   0  0  0  0  0  0  0  0  0  0  0  0
   57.8791   32.3440   47.5239 H   0  0  0  0  0  0  0  0  0  0  0  0
   58.2317   34.0424   46.9599 H   0  0  0  0  0  0  0  0  0  0  0  0
   56.2616   32.5997   45.9028 H   0  0  0  0  0  0  0  0  0  0  0  0
   57.3218   33.7301   44.9192 H   0  0  0  0  0  0  0  0  0  0  0  0
   58.3955   32.0303   43.8351 H   0  0  0  0  0  0  0  0  0  0  0  0
   58.0081   30.8267   45.1626 H   0  0  0  0  0  0  0  0  0  0  0  0
   55.5552   31.6823   43.9728 H   0  0  0  0  0  0  0  0  0  0  0  0
   56.7073   31.1886   42.6604 H   0  0  0  0  0  0  0  0  0  0  0  0
   60.3807   30.7969   49.4320 H   0  0  0  0  0  0  0  0  0  0  0  0
   62.4044   30.8996   50.8993 H   0  0  0  0  0  0  0  0  0  0  0  0
   64.5792   31.6770   49.9468 H   0  0  0  0  0  0  0  0  0  0  0  0
   64.6780   32.3260   47.6170 H   0  0  0  0  0  0  0  0  0  0  0  0
   62.7703   32.2544   46.1293 H   0  0  0  0  0  0  0  0  0  0  0  0
   61.1107   29.9087   44.6913 H   0  0  0  0  0  0  0  0  0  0  0  0
   60.2012   27.7024   43.9856 H   0  0  0  0  0  0  0  0  0  0  0  0
   57.9595   26.8763   43.0300 H   0  0  0  0  0  0  0  0  0  0  0  0
   57.0480   24.6684   42.3230 H   0  0  0  0  0  0  0  0  0  0  0  0
  1  2  1  0
  2  3  2  0
  2  4  2  0
  2  5  1  0
  5  6  2  0
  6  7  1  0
  7  8  2  0
  8  9  1  0
  9 10  2  0
 10 11  1  0
 11 12  2  0
 12 13  1  0
 13 14  2  3
 14 15  1  0
 15 16  1  0
 16 17  1  0
 17 18  1  0
 18 19  1  0
 19 20  2  0
 19 21  1  0
 13 22  1  0
 22 23  2  0
 23 24  1  0
 24 25  2  0
 25 26  1  0
 26 27  2  0
 12 28  1  0
 28 29  2  0
  8 30  1  0
 30 31  2  0
 31  5  1  0
 29  9  1  0
 27 22  1  0
  1 32  1  0
  1 33  1  0
  1 34  1  0
  6 35  1  0
  7 36  1  0
 10 37  1  0
 11 38  1  0
 14 39  1  0
 15 40  1  0
 15 41  1  0
 16 42  1  0
 16 43  1  0
 17 44  1  0
 17 45  1  0
 18 46  1  0
 18 47  1  0
 23 48  1  0
 24 49  1  0
 25 50  1  0
 26 51  1  0
 27 52  1  0
 28 53  1  0
 29 54  1  0
 30 55  1  0
 31 56  1  0
M  CHG  2  21  -1  26   1
M  END
>  <UniqueID>  (33) 
32

>  <SMILES>  (33) 
CS(=O)(=O)c1ccc(-c2ccc(C(=CCCCCC(=O)[O-])c3ccc[nH+]c3)cc2)cc1

>  <Energy>  (33) 
65.11733732453736

>  <Genealogy>  (33) 
CS(=O)(=O)c1ccc(-c2ccc(C(=CCCCCC(=O)[O-])c3ccc[nH+]c3)cc2)cc1 (protonated)
CS(=O)(=O)c1ccc(-c2ccc(C(=CCCCCC(=O)[O-])c3ccc[nH+]c3)cc2)cc1 (3D coordinates assigned)
CS(=O)(=O)c1ccc(-c2ccc(C(=CCCCCC(=O)[O-])c3ccc[nH+]c3)cc2)cc1 (optimized conformer: 65.11733732453736 kcal/mol)

>  <smiles>  (33) 
CS(=O)(=O)c1ccc(-c2ccc(C(=CCCCCC(=O)O)c3cccnc3)cc2)cc1

>  <score_type>  (33) 
oracle

>  <origin>  (33) 
adg

>  <m_score__min__energy>  (33) 
-11.27

>  <m_primary>  (33) 
energy

$$$$
33:0
     RDKit          3D

 41 44  0  0  0  0  0  0  0  0999 V2000
   61.8230   31.5173   47.5173 H   0  0  0  0  0  0  0  0  0  0  0  0
   60.8620   31.8920   47.1350 C   0  0  0  0  0  0  0  0  0  0  0  0
   59.9460   31.0020   46.5690 C   0  0  0  0  0  0  0  0  0  0  0  0
   60.2034   29.9350   46.4958 H   0  0  0  0  0  0  0  0  0  0  0  0
   58.6920   31.4500   46.0880 C   0  0  0  0  0  0  0  0  0  0  0  0
   57.7340   30.5230   45.4900 N   0  0  0  0  0  0  0  0  0  0  0  0
   56.7700   31.0250   44.4870 C   0  0  0  0  0  0  0  0  0  0  0  0
   56.1188   31.7674   44.9716 H   0  0  0  0  0  0  0  0  0  0  0  0
   57.3572   31.4576   43.6636 H   0  0  0  0  0  0  0  0  0  0  0  0
   55.8880   29.9290   43.8820 C   0  0  0  0  0  0  0  0  0  0  0  0
   54.9792   30.3879   43.4655 H   0  0  0  0  0  0  0  0  0  0  0  0
   56.4581   29.4168   43.0929 H   0  0  0  0  0  0  0  0  0  0  0  0
   55.5200   28.9810   44.8560 O   0  0  0  0  0  0  0  0  0  0  0  0
   56.6690   28.2570   45.2250 C   0  0  0  0  0  0  0  0  0  0  0  0
   56.3710   27.4076   45.8572 H   0  0  0  0  0  0  0  0  0  0  0  0
   57.1672   27.9019   44.3108 H   0  0  0  0  0  0  0  0  0  0  0  0
   57.6490   29.1390   46.0020 C   0  0  0  0  0  0  0  0  0  0  0  0
   57.3254   29.1762   47.0527 H   0  0  0  0  0  0  0  0  0  0  0  0
   58.6470   28.6908   45.8870 H   0  0  0  0  0  0  0  0  0  0  0  0
   58.3950   32.8270   46.2250 C   0  0  0  0  0  0  0  0  0  0  0  0
   57.4223   33.2069   45.8792 H   0  0  0  0  0  0  0  0  0  0  0  0
   59.3160   33.7130   46.7920 C   0  0  0  0  0  0  0  0  0  0  0  0
   59.0548   34.7758   46.9024 H   0  0  0  0  0  0  0  0  0  0  0  0
   60.5650   33.2580   47.2190 C   0  0  0  0  0  0  0  0  0  0  0  0
   61.4690   34.1810   47.8490 N   0  0  0  0  0  0  0  0  0  0  0  0
   62.5450   33.9010   48.5300 C   0  0  0  0  0  0  0  0  0  0  0  0
   62.5560   34.1700   49.8620 N   0  0  0  0  0  0  0  0  0  0  0  0
   63.6450   33.9180   50.6340 C   0  0  0  0  0  0  0  0  0  0  0  0
   63.6230   34.1970   52.0050 C   0  0  0  0  0  0  0  0  0  0  0  0
   62.7204   34.6246   52.4660 H   0  0  0  0  0  0  0  0  0  0  0  0
   64.7510   33.9310   52.7880 C   0  0  0  0  0  0  0  0  0  0  0  0
   64.7344   34.1499   53.8659 H   0  0  0  0  0  0  0  0  0  0  0  0
   65.9010   33.3870   52.2040 C   0  0  0  0  0  0  0  0  0  0  0  0
   66.9910   33.1320   52.9690 F   0  0  0  0  0  0  0  0  0  0  0  0
   65.9280   33.1070   50.8340 C   0  0  0  0  0  0  0  0  0  0  0  0
   66.8337   32.6813   50.3774 H   0  0  0  0  0  0  0  0  0  0  0  0
   64.8000   33.3690   50.0420 C   0  0  0  0  0  0  0  0  0  0  0  0
   64.8040   33.1130   48.7040 N   0  0  0  0  0  0  0  0  0  0  0  0
   65.6580   32.7200   48.2460 H   0  0  0  0  0  0  0  0  0  0  0  0
   63.7110   33.3700   47.9370 C   0  0  0  0  0  0  0  0  0  0  0  0
   63.7352   33.1646   46.8566 H   0  0  0  0  0  0  0  0  0  0  0  0
  1  2  1  0
  2  3  2  0
  3  4  1  0
  3  5  1  0
  5  6  1  0
  6  7  1  0
  7  8  1  0
  7  9  1  0
  7 10  1  0
 10 11  1  0
 10 12  1  0
 10 13  1  0
 13 14  1  0
 14 15  1  0
 14 16  1  0
 14 17  1  0
 17 18  1  0
 17 19  1  0
  5 20  2  0
 20 21  1  0
 20 22  1  0
 22 23  1  0
 22 24  2  0
 24 25  1  0
 25 26  2  0
 26 27  1  0
 27 28  1  0
 28 29  2  0
 29 30  1  0
 29 31  1  0
 31 32  1  0
 31 33  2  0
 33 34  1  0
 33 35  1  0
 35 36  1  0
 35 37  2  0
 37 38  1  0
 38 39  1  0
 38 40  2  0
 40 41  1  0
 24  2  1  0
 40 26  1  0
 17  6  1  0
 37 28  1  0
M  CHG  2  27  -1  38   1
M  END
>  <UniqueID>  (34) 
33

>  <SMILES>  (34) 
Fc1ccc2[n-]/c(=N/c3ccc(N4CCOCC4)cc3)c[nH+]c2c1

>  <Energy>  (34) 
65.77179022888213

>  <Genealogy>  (34) 
Fc1ccc2[n-]c(=Nc3ccc(N4CCOCC4)cc3)c[nH+]c2c1 (protonated)
Fc1ccc2[n-]/c(=N/c3ccc(N4CCOCC4)cc3)c[nH+]c2c1 (cis-trans isomerization)
Fc1ccc2[n-]/c(=N/c3ccc(N4CCOCC4)cc3)c[nH+]c2c1 (3D coordinates assigned)
Fc1ccc2[n-]/c(=N/c3ccc(N4CCOCC4)cc3)c[nH+]c2c1 (nonaromatic ring conformer: 65.77179022888213 kcal/mol)

>  <smiles>  (34) 
Fc1ccc2[nH]c(=Nc3ccc(N4CCOCC4)cc3)cnc2c1

>  <score_type>  (34) 
oracle

>  <origin>  (34) 
adg

>  <m_score__min__energy>  (34) 
-6.8799999999999999

>  <m_primary>  (34) 
energy

$$$$
34:0
     RDKit          3D

 32 34  0  0  0  0  0  0  0  0999 V2000
   58.9250   32.1250   48.4260 C   0  0  0  0  0  0  0  0  0  0  0  0
   58.9530   32.9940   47.1970 C   0  0  0  0  0  0  0  0  0  0  0  0
   58.1390   32.6480   46.1030 C   0  0  0  0  0  0  0  0  0  0  0  0
   58.1120   33.4400   44.9560 C   0  0  0  0  0  0  0  0  0  0  0  0
   58.8900   34.5940   44.8850 C   0  0  0  0  0  0  0  0  0  0  0  0
   59.7090   34.9510   45.9560 C   0  0  0  0  0  0  0  0  0  0  0  0
   59.7750   34.1510   47.1120 C   0  0  0  0  0  0  0  0  0  0  0  0
   60.6790   34.5910   48.2470 C   0  0  0  0  0  0  0  0  0  0  0  0
   61.9910   33.9460   48.1500 N   0  0  0  0  0  0  0  0  0  0  0  0
   62.5490   33.3950   47.0430 C   0  0  0  0  0  0  0  0  0  0  0  0
   63.7700   32.8630   47.2910 N   0  0  0  0  0  0  0  0  0  0  0  0
   63.9750   33.0910   48.5990 C   0  0  0  0  0  0  0  0  0  0  0  0
   65.0790   32.7400   49.3740 C   0  0  0  0  0  0  0  0  0  0  0  0
   65.0520   33.0890   50.7380 C   0  0  0  0  0  0  0  0  0  0  0  0
   63.9390   33.7670   51.2850 C   0  0  0  0  0  0  0  0  0  0  0  0
   62.8410   34.1060   50.4720 C   0  0  0  0  0  0  0  0  0  0  0  0
   62.8990   33.7480   49.1240 C   0  0  0  0  0  0  0  0  0  0  0  0
   58.9454   32.7596   49.3243 H   0  0  0  0  0  0  0  0  0  0  0  0
   58.0069   31.5192   48.4259 H   0  0  0  0  0  0  0  0  0  0  0  0
   59.8022   31.4613   48.4259 H   0  0  0  0  0  0  0  0  0  0  0  0
   57.5168   31.7423   46.1532 H   0  0  0  0  0  0  0  0  0  0  0  0
   57.4756   33.1536   44.1057 H   0  0  0  0  0  0  0  0  0  0  0  0
   58.8581   35.2238   43.9837 H   0  0  0  0  0  0  0  0  0  0  0  0
   60.3111   35.8697   45.8964 H   0  0  0  0  0  0  0  0  0  0  0  0
   60.8098   35.6822   48.2010 H   0  0  0  0  0  0  0  0  0  0  0  0
   60.2137   34.2998   49.2002 H   0  0  0  0  0  0  0  0  0  0  0  0
   62.0647   33.3817   46.0554 H   0  0  0  0  0  0  0  0  0  0  0  0
   64.4050   32.3800   46.6170 H   0  0  0  0  0  0  0  0  0  0  0  0
   65.9385   32.2106   48.9369 H   0  0  0  0  0  0  0  0  0  0  0  0
   65.9047   32.8317   51.3835 H   0  0  0  0  0  0  0  0  0  0  0  0
   63.9308   34.0314   52.3527 H   0  0  0  0  0  0  0  0  0  0  0  0
   61.9685   34.6341   50.8842 H   0  0  0  0  0  0  0  0  0  0  0  0
  1  2  1  0
  2  3  2  0
  3  4  1  0
  4  5  2  0
  5  6  1  0
  6  7  2  0
  7  8  1  0
  8  9  1  0
  9 10  1  0
 10 11  2  0
 11 12  1  0
 12 13  2  0
 13 14  1  0
 14 15  2  0
 15 16  1  0
 16 17  2  0
  7  2  1  0
 17  9  1  0
 17 12  1  0
  1 18  1  0
  1 19  1  0
  1 20  1  0
  3 21  1  0
  4 22  1  0
  5 23  1  0
  6 24  1  0
  8 25  1  0
  8 26  1  0
 10 27  1  0
 11 28  1  0
 13 29  1  0
 14 30  1  0
 15 31  1  0
 16 32  1  0
M  CHG  1  11   1
M  END
>  <UniqueID>  (35) 
34

>  <SMILES>  (35) 
Cc1ccccc1Cn1c[nH+]c2ccccc21

>  <Energy>  (35) 
73.7674864951821

>  <Genealogy>  (35) 
Cc1ccccc1Cn1c[nH+]c2ccccc21 (protonated)
Cc1ccccc1Cn1c[nH+]c2ccccc21 (3D coordinates assigned)
Cc1ccccc1Cn1c[nH+]c2ccccc21 (optimized conformer: 73.7674864951821 kcal/mol)

>  <smiles>  (35) 
Cc1ccccc1Cn1cnc2ccccc21

>  <score_type>  (35) 
oracle

>  <origin>  (35) 
adg

>  <m_score__min__energy>  (35) 
-5.3499999999999996

>  <m_primary>  (35) 
energy

$$$$
35:0
     RDKit          3D

 39 39  0  0  0  0  0  0  0  0999 V2000
   58.2000   32.7823   40.9961 H   0  0  0  0  0  0  0  0  0  0  0  0
   57.4290   32.1760   41.4940 C   0  0  0  0  0  0  0  0  0  0  0  0
   56.4578   32.0112   41.0045 H   0  0  0  0  0  0  0  0  0  0  0  0
   57.6720   31.6400   42.6930 C   0  0  0  0  0  0  0  0  0  0  0  0
   58.6481   31.8141   43.1694 H   0  0  0  0  0  0  0  0  0  0  0  0
   56.6480   30.8060   43.4080 C   0  0  0  0  0  0  0  0  0  0  0  0
   55.6442   31.0843   43.0544 H   0  0  0  0  0  0  0  0  0  0  0  0
   56.8450   29.7446   43.1970 H   0  0  0  0  0  0  0  0  0  0  0  0
   56.7240   31.0170   44.8190 O   0  0  0  0  0  0  0  0  0  0  0  0
   57.9120   30.9420   45.5600 C   0  0  0  0  0  0  0  0  0  0  0  0
   58.5090   32.1330   45.9960 C   0  0  0  0  0  0  0  0  0  0  0  0
   57.7170   33.8260   45.5840 Br  0  0  0  0  0  0  0  0  0  0  0  0
   59.6790   32.0990   46.7570 C   0  0  0  0  0  0  0  0  0  0  0  0
   60.1407   33.0392   47.0929 H   0  0  0  0  0  0  0  0  0  0  0  0
   60.2680   30.8740   47.0950 C   0  0  0  0  0  0  0  0  0  0  0  0
   61.5480   30.8440   47.8880 C   0  0  0  0  0  0  0  0  0  0  0  0
   61.3815   31.3260   48.8627 H   0  0  0  0  0  0  0  0  0  0  0  0
   61.8541   29.7971   48.0303 H   0  0  0  0  0  0  0  0  0  0  0  0
   62.6110   31.5560   47.1730 N   0  0  0  0  0  0  0  0  0  0  0  0
   63.1020   31.0720   46.3850 H   0  0  0  0  0  0  0  0  0  0  0  0
   62.9450   32.7910   47.4170 C   0  0  0  0  0  0  0  0  0  0  0  0
   62.9046   33.5223   46.5962 H   0  0  0  0  0  0  0  0  0  0  0  0
   63.3640   33.2340   48.7170 N   0  0  0  0  0  0  0  0  0  0  0  0
   62.6360   34.3300   49.3510 C   0  0  0  0  0  0  0  0  0  0  0  0
   62.7023   34.2301   50.4445 H   0  0  0  0  0  0  0  0  0  0  0  0
   63.0768   35.2896   49.0430 H   0  0  0  0  0  0  0  0  0  0  0  0
   61.5806   34.2957   49.0430 H   0  0  0  0  0  0  0  0  0  0  0  0
   64.5690   32.6950   49.3480 C   0  0  0  0  0  0  0  0  0  0  0  0
   64.4627   32.7426   50.4418 H   0  0  0  0  0  0  0  0  0  0  0  0
   64.7084   31.6487   49.0383 H   0  0  0  0  0  0  0  0  0  0  0  0
   65.4419   33.2885   49.0383 H   0  0  0  0  0  0  0  0  0  0  0  0
   59.6990   29.6820   46.6250 C   0  0  0  0  0  0  0  0  0  0  0  0
   60.1742   28.7196   46.8657 H   0  0  0  0  0  0  0  0  0  0  0  0
   58.5240   29.7050   45.8470 C   0  0  0  0  0  0  0  0  0  0  0  0
   57.9620   28.5290   45.3280 O   0  0  0  0  0  0  0  0  0  0  0  0
   58.3990   27.8780   44.1380 C   0  0  0  0  0  0  0  0  0  0  0  0
   58.9941   26.9915   44.4024 H   0  0  0  0  0  0  0  0  0  0  0  0
   57.5244   27.5694   43.5465 H   0  0  0  0  0  0  0  0  0  0  0  0
   59.0158   28.5706   43.5465 H   0  0  0  0  0  0  0  0  0  0  0  0
  1  2  1  0
  2  3  1  0
  2  4  2  0
  4  5  1  0
  4  6  1  0
  6  7  1  0
  6  8  1  0
  6  9  1  0
  9 10  1  0
 10 11  2  0
 11 12  1  0
 11 13  1  0
 13 14  1  0
 13 15  2  0
 15 16  1  0
 16 17  1  0
 16 18  1  0
 16 19  1  0
 19 20  1  0
 19 21  2  0
 21 22  1  0
 21 23  1  0
 23 24  1  0
 24 25  1  0
 24 26  1  0
 24 27  1  0
 23 28  1  0
 28 29  1  0
 28 30  1  0
 28 31  1  0
 15 32  1  0
 32 33  1  0
 32 34  2  0
 34 35  1  0
 35 36  1  0
 36 37  1  0
 36 38  1  0
 36 39  1  0
 34 10  1  0
M  CHG  1  19   1
M  END
>  <UniqueID>  (36) 
35

>  <SMILES>  (36) 
C=CCOc1c(Br)cc(C/[NH+]=C\N(C)C)cc1OC

>  <Energy>  (36) 
40.39155157637477

>  <Genealogy>  (36) 
C=CCOc1c(Br)cc(C[NH+]=CN(C)C)cc1OC (protonated)
C=CCOc1c(Br)cc(C/[NH+]=C\N(C)C)cc1OC (cis-trans isomerization)
C=CCOc1c(Br)cc(C/[NH+]=C\N(C)C)cc1OC (3D coordinates assigned)
C=CCOc1c(Br)cc(C/[NH+]=C\N(C)C)cc1OC (optimized conformer: 40.39155157637477 kcal/mol)

>  <smiles>  (36) 
C=CCOc1c(Br)cc(CN=CN(C)C)cc1OC

>  <score_type>  (36) 
oracle

>  <origin>  (36) 
adg

>  <m_score__min__energy>  (36) 
-4.6200000000000001

>  <m_primary>  (36) 
energy

$$$$
36:0
     RDKit          3D

 36 37  0  0  0  0  0  0  0  0999 V2000
   55.1460   24.7010   45.6510 C   0  0  0  0  0  0  0  0  0  0  0  0
   55.4930   26.0770   46.0100 N   0  0  0  0  0  0  0  0  0  0  0  0
   56.8400   26.1280   46.5920 C   0  0  0  0  0  0  0  0  0  0  0  0
   57.8830   26.5120   45.5310 C   0  0  0  0  0  0  0  0  0  0  0  0
   58.5890   27.8460   45.8200 C   0  0  0  0  0  0  0  0  0  0  0  0
   57.6920   29.0280   45.5670 C   0  0  0  0  0  0  0  0  0  0  0  0
   56.4490   28.9770   44.9720 C   0  0  0  0  0  0  0  0  0  0  0  0
   56.0150   30.2300   44.7380 N   0  0  0  0  0  0  0  0  0  0  0  0
   56.9380   31.0830   45.1540 N   0  0  0  0  0  0  0  0  0  0  0  0
   57.9700   30.3840   45.6680 C   0  0  0  0  0  0  0  0  0  0  0  0
   59.1990   31.0240   46.1760 C   0  0  0  0  0  0  0  0  0  0  0  0
   59.2780   32.4230   46.2380 C   0  0  0  0  0  0  0  0  0  0  0  0
   60.4370   33.0450   46.7100 C   0  0  0  0  0  0  0  0  0  0  0  0
   61.5330   32.2760   47.1280 C   0  0  0  0  0  0  0  0  0  0  0  0
   62.7710   32.9440   47.6570 C   0  0  0  0  0  0  0  0  0  0  0  0
   63.7670   32.9620   46.6710 O   0  0  0  0  0  0  0  0  0  0  0  0
   61.4370   30.8770   47.1120 C   0  0  0  0  0  0  0  0  0  0  0  0
   60.2760   30.2540   46.6440 C   0  0  0  0  0  0  0  0  0  0  0  0
   54.9969   24.1097   46.5665 H   0  0  0  0  0  0  0  0  0  0  0  0
   54.2193   24.6993   45.0584 H   0  0  0  0  0  0  0  0  0  0  0  0
   55.9611   24.2600   45.0584 H   0  0  0  0  0  0  0  0  0  0  0  0
   55.4950   26.6390   45.1260 H   0  0  0  0  0  0  0  0  0  0  0  0
   56.8554   26.8755   47.3989 H   0  0  0  0  0  0  0  0  0  0  0  0
   57.0902   25.1317   46.9855 H   0  0  0  0  0  0  0  0  0  0  0  0
   58.6432   25.7182   45.4868 H   0  0  0  0  0  0  0  0  0  0  0  0
   57.3467   26.6296   44.5778 H   0  0  0  0  0  0  0  0  0  0  0  0
   58.9045   27.8593   46.8737 H   0  0  0  0  0  0  0  0  0  0  0  0
   59.4528   27.9255   45.1436 H   0  0  0  0  0  0  0  0  0  0  0  0
   55.8983   28.0569   44.7269 H   0  0  0  0  0  0  0  0  0  0  0  0
   58.4229   33.0340   45.9133 H   0  0  0  0  0  0  0  0  0  0  0  0
   60.4900   34.1428   46.7539 H   0  0  0  0  0  0  0  0  0  0  0  0
   62.5304   33.9766   47.9500 H   0  0  0  0  0  0  0  0  0  0  0  0
   63.1379   32.3834   48.5294 H   0  0  0  0  0  0  0  0  0  0  0  0
   64.5380   32.4550   47.0370 H   0  0  0  0  0  0  0  0  0  0  0  0
   62.2794   30.2666   47.4695 H   0  0  0  0  0  0  0  0  0  0  0  0
   60.2060   29.1562   46.6424 H   0  0  0  0  0  0  0  0  0  0  0  0
  1  2  1  0
  2  3  1  0
  3  4  1  0
  4  5  1  0
  5  6  1  0
  6  7  2  0
  7  8  1  0
  8  9  1  0
  9 10  2  0
 10 11  1  0
 11 12  2  0
 12 13  1  0
 13 14  2  0
 14 15  1  0
 15 16  1  0
 14 17  1  0
 17 18  2  0
 10  6  1  0
 18 11  1  0
  1 19  1  0
  1 20  1  0
  1 21  1  0
  2 22  1  0
  3 23  1  0
  3 24  1  0
  4 25  1  0
  4 26  1  0
  5 27  1  0
  5 28  1  0
  7 29  1  0
 12 30  1  0
 13 31  1  0
 15 32  1  0
 15 33  1  0
 16 34  1  0
 17 35  1  0
 18 36  1  0
M  CHG  1   8  -1
M  END
>  <UniqueID>  (37) 
36

>  <SMILES>  (37) 
CNCCCc1c[n-]nc1-c1ccc(CO)cc1

>  <Energy>  (37) 
61.17704749023524

>  <Genealogy>  (37) 
CNCCCc1c[n-]nc1-c1ccc(CO)cc1 (protonated)
CNCCCc1c[n-]nc1-c1ccc(CO)cc1 (3D coordinates assigned)
CNCCCc1c[n-]nc1-c1ccc(CO)cc1 (optimized conformer: 61.17704749023524 kcal/mol)

>  <smiles>  (37) 
CNCCCc1c[nH]nc1-c1ccc(CO)cc1

>  <score_type>  (37) 
oracle

>  <origin>  (37) 
adg

>  <m_score__min__energy>  (37) 
-8.7400000000000002

>  <m_primary>  (37) 
energy

$$$$
37:0
     RDKit          3D

 32 33  0  0  0  0  0  0  0  0999 V2000
   58.5930   26.1830   47.1560 C   0  0  0  0  0  0  0  0  0  0  0  0
   58.7720   27.3710   46.2580 C   0  0  0  0  0  0  0  0  0  0  0  0
   60.0580   27.7850   45.8780 C   0  0  0  0  0  0  0  0  0  0  0  0
   60.2190   28.8750   45.0190 C   0  0  0  0  0  0  0  0  0  0  0  0
   59.1010   29.5520   44.5250 C   0  0  0  0  0  0  0  0  0  0  0  0
   57.8130   29.1360   44.8820 C   0  0  0  0  0  0  0  0  0  0  0  0
   56.4120   30.0110   44.2650 S   0  0  0  0  0  0  0  0  0  0  0  0
   55.1440   29.3100   44.6650 O   0  0  0  0  0  0  0  0  0  0  0  0
   56.4850   30.0370   42.7640 O   0  0  0  0  0  0  0  0  0  0  0  0
   56.3810   31.6480   44.8580 N   0  0  0  0  0  0  0  0  0  0  0  0
   57.5410   32.4130   44.3930 C   0  0  0  0  0  0  0  0  0  0  0  0
   58.2510   33.0860   45.5380 C   0  0  0  0  0  0  0  0  0  0  0  0
   58.2360   32.5050   46.8170 C   0  0  0  0  0  0  0  0  0  0  0  0
   58.9040   33.1210   47.8790 C   0  0  0  0  0  0  0  0  0  0  0  0
   59.5890   34.3230   47.6740 C   0  0  0  0  0  0  0  0  0  0  0  0
   60.2380   34.9170   48.7040 F   0  0  0  0  0  0  0  0  0  0  0  0
   59.6040   34.9090   46.4060 C   0  0  0  0  0  0  0  0  0  0  0  0
   58.9350   34.2980   45.3410 C   0  0  0  0  0  0  0  0  0  0  0  0
   57.6500   28.0400   45.7420 C   0  0  0  0  0  0  0  0  0  0  0  0
   58.6418   26.5066   48.2062 H   0  0  0  0  0  0  0  0  0  0  0  0
   57.6149   25.7194   46.9602 H   0  0  0  0  0  0  0  0  0  0  0  0
   59.3911   25.4518   46.9602 H   0  0  0  0  0  0  0  0  0  0  0  0
   60.9412   27.2501   46.2573 H   0  0  0  0  0  0  0  0  0  0  0  0
   61.2292   29.2013   44.7307 H   0  0  0  0  0  0  0  0  0  0  0  0
   59.2333   30.4137   43.8542 H   0  0  0  0  0  0  0  0  0  0  0  0
   58.2413   31.7303   43.8894 H   0  0  0  0  0  0  0  0  0  0  0  0
   57.1873   33.1907   43.7002 H   0  0  0  0  0  0  0  0  0  0  0  0
   57.6962   31.5611   46.9834 H   0  0  0  0  0  0  0  0  0  0  0  0
   58.8909   32.6597   48.8775 H   0  0  0  0  0  0  0  0  0  0  0  0
   60.1437   35.8539   46.2449 H   0  0  0  0  0  0  0  0  0  0  0  0
   58.9440   34.7672   44.3461 H   0  0  0  0  0  0  0  0  0  0  0  0
   56.6388   27.7029   46.0136 H   0  0  0  0  0  0  0  0  0  0  0  0
  1  2  1  0
  2  3  2  0
  3  4  1  0
  4  5  2  0
  5  6  1  0
  6  7  1  0
  7  8  2  0
  7  9  2  0
  7 10  1  0
 10 11  1  0
 11 12  1  0
 12 13  2  0
 13 14  1  0
 14 15  2  0
 15 16  1  0
 15 17  1  0
 17 18  2  0
  6 19  2  0
 19  2  1  0
 18 12  1  0
  1 20  1  0
  1 21  1  0
  1 22  1  0
  3 23  1  0
  4 24  1  0
  5 25  1  0
 11 26  1  0
 11 27  1  0
 13 28  1  0
 14 29  1  0
 17 30  1  0
 18 31  1  0
 19 32  1  0
M  CHG  1  10  -1
M  END
>  <UniqueID>  (38) 
37

>  <SMILES>  (38) 
Cc1cccc(S(=O)(=O)[N-]Cc2ccc(F)cc2)c1

>  <Energy>  (38) 
29.860889879628356

>  <Genealogy>  (38) 
Cc1cccc(S(=O)(=O)[N-]Cc2ccc(F)cc2)c1 (protonated)
Cc1cccc(S(=O)(=O)[N-]Cc2ccc(F)cc2)c1 (3D coordinates assigned)
Cc1cccc(S(=O)(=O)[N-]Cc2ccc(F)cc2)c1 (optimized conformer: 29.860889879628356 kcal/mol)

>  <smiles>  (38) 
Cc1cccc(S(=O)(=O)NCc2ccc(F)cc2)c1

>  <score_type>  (38) 
oracle

>  <origin>  (38) 
adg

>  <m_score__min__energy>  (38) 
-8.9000000000000004

>  <m_primary>  (38) 
energy

$$$$
38:0
     RDKit          3D

 59 63  0  0  0  0  0  0  0  0999 V2000
   57.0230   30.0460   45.2720 O   0  0  0  0  0  0  0  0  0  0  0  0
   58.0250   29.7420   45.9740 C   0  0  0  0  0  0  0  0  0  0  0  0
   58.7190   30.7940   46.7520 C   0  0  0  0  0  0  0  0  0  0  0  0
   58.8430   30.6880   48.1470 C   0  0  0  0  0  0  0  0  0  0  0  0
   59.5260   31.6670   48.8740 C   0  0  0  0  0  0  0  0  0  0  0  0
   60.1090   32.7640   48.2190 C   0  0  0  0  0  0  0  0  0  0  0  0
   60.8370   33.7710   48.9410 N   0  0  0  0  0  0  0  0  0  0  0  0
   62.5700   33.8470   48.9580 S   0  0  0  0  0  0  0  0  0  0  0  0
   63.0080   35.1520   49.5610 O   0  0  0  0  0  0  0  0  0  0  0  0
   63.0820   33.7760   47.5470 O   0  0  0  0  0  0  0  0  0  0  0  0
   63.2020   32.4620   49.8530 C   0  0  0  0  0  0  0  0  0  0  0  0
   62.3010   31.4940   50.3420 C   0  0  0  0  0  0  0  0  0  0  0  0
   62.7640   30.3940   51.0870 C   0  0  0  0  0  0  0  0  0  0  0  0
   64.1310   30.2460   51.3600 C   0  0  0  0  0  0  0  0  0  0  0  0
   65.0050   31.2120   50.8730 C   0  0  0  0  0  0  0  0  0  0  0  0
   66.6690   31.3040   51.0610 S   0  0  0  0  0  0  0  0  0  0  0  0
   66.7710   32.7450   50.1790 C   0  0  0  0  0  0  0  0  0  0  0  0
   65.5540   33.1570   49.7470 N   0  0  0  0  0  0  0  0  0  0  0  0
   64.5700   32.3020   50.1330 C   0  0  0  0  0  0  0  0  0  0  0  0
   59.9730   32.8780   46.8280 C   0  0  0  0  0  0  0  0  0  0  0  0
   59.2950   31.8970   46.0990 C   0  0  0  0  0  0  0  0  0  0  0  0
   58.4860   28.3790   45.9930 N   0  0  0  0  0  0  0  0  0  0  0  0
   58.4180   27.5600   44.7870 C   0  0  0  0  0  0  0  0  0  0  0  0
   57.1960   26.6380   44.8520 C   0  0  0  0  0  0  0  0  0  0  0  0
   57.0140   25.8740   46.2090 C   0  0  0  0  0  0  0  0  0  0  0  0
   55.6480   25.5350   46.3250 O   0  0  0  0  0  0  0  0  0  0  0  0
   57.7550   24.5010   46.2090 C   0  0  0  0  0  0  0  0  0  0  0  0
   57.4240   23.5350   45.0970 C   0  0  0  0  0  0  0  0  0  0  0  0
   58.3210   22.5140   44.7480 C   0  0  0  0  0  0  0  0  0  0  0  0
   57.9870   21.5990   43.7480 C   0  0  0  0  0  0  0  0  0  0  0  0
   56.7450   21.7000   43.1180 C   0  0  0  0  0  0  0  0  0  0  0  0
   55.8700   22.6690   43.4920 N   0  0  0  0  0  0  0  0  0  0  0  0
   56.1710   23.5700   44.4640 C   0  0  0  0  0  0  0  0  0  0  0  0
   57.3950   26.7490   47.4540 C   0  0  0  0  0  0  0  0  0  0  0  0
   58.6130   27.6590   47.2560 C   0  0  0  0  0  0  0  0  0  0  0  0
   58.3995   29.8285   48.6710 H   0  0  0  0  0  0  0  0  0  0  0  0
   59.6075   31.5776   49.9673 H   0  0  0  0  0  0  0  0  0  0  0  0
   60.3220   34.6010   49.3100 H   0  0  0  0  0  0  0  0  0  0  0  0
   61.2251   31.5999   50.1389 H   0  0  0  0  0  0  0  0  0  0  0  0
   62.0486   29.6451   51.4577 H   0  0  0  0  0  0  0  0  0  0  0  0
   64.5019   29.3900   51.9429 H   0  0  0  0  0  0  0  0  0  0  0  0
   67.7104   33.2818   49.9805 H   0  0  0  0  0  0  0  0  0  0  0  0
   60.4031   33.7459   46.3067 H   0  0  0  0  0  0  0  0  0  0  0  0
   59.2116   31.9890   45.0060 H   0  0  0  0  0  0  0  0  0  0  0  0
   58.3354   28.2137   43.9062 H   0  0  0  0  0  0  0  0  0  0  0  0
   59.3296   26.9489   44.7119 H   0  0  0  0  0  0  0  0  0  0  0  0
   56.2977   27.2495   44.6815 H   0  0  0  0  0  0  0  0  0  0  0  0
   57.3515   25.8667   44.0833 H   0  0  0  0  0  0  0  0  0  0  0  0
   55.1670   26.2750   46.7770 H   0  0  0  0  0  0  0  0  0  0  0  0
   58.8341   24.7080   46.1564 H   0  0  0  0  0  0  0  0  0  0  0  0
   57.4189   23.9990   47.1282 H   0  0  0  0  0  0  0  0  0  0  0  0
   59.2895   22.4344   45.2635 H   0  0  0  0  0  0  0  0  0  0  0  0
   58.6942   20.8074   43.4596 H   0  0  0  0  0  0  0  0  0  0  0  0
   56.4751   20.9944   42.3184 H   0  0  0  0  0  0  0  0  0  0  0  0
   55.4305   24.3293   44.7559 H   0  0  0  0  0  0  0  0  0  0  0  0
   56.5315   27.3834   47.7027 H   0  0  0  0  0  0  0  0  0  0  0  0
   57.6635   26.0447   48.2551 H   0  0  0  0  0  0  0  0  0  0  0  0
   58.6696   28.3803   48.0845 H   0  0  0  0  0  0  0  0  0  0  0  0
   59.5270   27.0472   47.2374 H   0  0  0  0  0  0  0  0  0  0  0  0
  1  2  2  0
  2  3  1  0
  3  4  2  0
  4  5  1  0
  5  6  2  0
  6  7  1  0
  7  8  1  0
  8  9  2  0
  8 10  2  0
  8 11  1  0
 11 12  2  0
 12 13  1  0
 13 14  2  0
 14 15  1  0
 15 16  1  0
 16 17  1  0
 17 18  2  0
 18 19  1  0
  6 20  1  0
 20 21  2  0
  2 22  1  0
 22 23  1  0
 23 24  1  0
 24 25  1  0
 25 26  1  0
 25 27  1  0
 27 28  1  0
 28 29  2  0
 29 30  1  0
 30 31  2  0
 31 32  1  0
 32 33  2  0
 25 34  1  0
 34 35  1  0
 21  3  1  0
 35 22  1  0
 19 11  1  0
 33 28  1  0
 19 15  2  0
  4 36  1  0
  5 37  1  0
  7 38  1  0
 12 39  1  0
 13 40  1  0
 14 41  1  0
 17 42  1  0
 20 43  1  0
 21 44  1  0
 23 45  1  0
 23 46  1  0
 24 47  1  0
 24 48  1  0
 26 49  1  0
 27 50  1  0
 27 51  1  0
 29 52  1  0
 30 53  1  0
 31 54  1  0
 33 55  1  0
 34 56  1  0
 34 57  1  0
 35 58  1  0
 35 59  1  0
M  END
>  <UniqueID>  (39) 
38

>  <SMILES>  (39) 
O=C(c1ccc(NS(=O)(=O)c2cccc3scnc23)cc1)N1CCC(O)(Cc2cccnc2)CC1

>  <Energy>  (39) 
114.24971543183968

>  <Genealogy>  (39) 
O=C(c1ccc(NS(=O)(=O)c2cccc3scnc23)cc1)N1CCC(O)(Cc2cccnc2)CC1 (3D coordinates assigned)
O=C(c1ccc(NS(=O)(=O)c2cccc3scnc23)cc1)N1CCC(O)(Cc2cccnc2)CC1 (nonaromatic ring conformer: 114.24971543183968 kcal/mol)

>  <smiles>  (39) 
O=C(c1ccc(NS(=O)(=O)c2cccc3scnc23)cc1)N1CCC(O)(Cc2cccnc2)CC1

>  <score_type>  (39) 
oracle

>  <origin>  (39) 
adg

>  <m_score__min__energy>  (39) 
-10.16

>  <m_primary>  (39) 
energy

$$$$
39:0
     RDKit          3D

 29 32  0  0  0  0  0  0  0  0999 V2000
   56.6550   21.1120   42.9270 N   0  0  0  0  0  0  0  0  0  0  0  0
   56.6280   22.1000   43.5290 C   0  0  0  0  0  0  0  0  0  0  0  0
   56.5820   23.3180   44.2900 C   0  0  0  0  0  0  0  0  0  0  0  0
   55.9110   23.4170   45.4970 C   0  0  0  0  0  0  0  0  0  0  0  0
   55.9000   24.6250   46.1910 C   0  0  0  0  0  0  0  0  0  0  0  0
   56.5510   25.7510   45.7020 C   0  0  0  0  0  0  0  0  0  0  0  0
   56.6880   27.0130   46.1720 N   0  0  0  0  0  0  0  0  0  0  0  0
   57.4310   27.6600   45.2560 C   0  0  0  0  0  0  0  0  0  0  0  0
   57.8200   29.0570   45.3680 C   0  0  0  0  0  0  0  0  0  0  0  0
   57.4930   30.1240   44.5090 C   0  0  0  0  0  0  0  0  0  0  0  0
   57.9700   31.3280   44.8200 C   0  0  0  0  0  0  0  0  0  0  0  0
   57.7670   32.5370   44.0990 C   0  0  0  0  0  0  0  0  0  0  0  0
   58.3340   33.6980   44.5620 C   0  0  0  0  0  0  0  0  0  0  0  0
   59.1040   33.7980   45.6960 C   0  0  0  0  0  0  0  0  0  0  0  0
   59.3100   32.6280   46.4070 C   0  0  0  0  0  0  0  0  0  0  0  0
   58.7400   31.4790   45.9350 C   0  0  0  0  0  0  0  0  0  0  0  0
   58.8130   29.7660   46.6300 S   0  0  0  0  0  0  0  0  0  0  0  0
   57.7490   26.8330   44.2480 N   0  0  0  0  0  0  0  0  0  0  0  0
   57.2060   25.6090   44.4980 C   0  0  0  0  0  0  0  0  0  0  0  0
   57.2360   24.4280   43.7840 C   0  0  0  0  0  0  0  0  0  0  0  0
   55.3865   22.5418   45.9081 H   0  0  0  0  0  0  0  0  0  0  0  0
   55.3631   24.6889   47.1490 H   0  0  0  0  0  0  0  0  0  0  0  0
   56.2830   27.3870   47.0770 H   0  0  0  0  0  0  0  0  0  0  0  0
   56.8685   29.9692   43.6168 H   0  0  0  0  0  0  0  0  0  0  0  0
   57.1621   32.5415   43.1802 H   0  0  0  0  0  0  0  0  0  0  0  0
   58.1592   34.6165   43.9825 H   0  0  0  0  0  0  0  0  0  0  0  0
   59.5338   34.7568   46.0215 H   0  0  0  0  0  0  0  0  0  0  0  0
   59.9152   32.6233   47.3256 H   0  0  0  0  0  0  0  0  0  0  0  0
   57.7726   24.3698   42.8255 H   0  0  0  0  0  0  0  0  0  0  0  0
  1  2  3  0
  2  3  1  0
  3  4  2  0
  4  5  1  0
  5  6  2  0
  6  7  1  0
  7  8  1  0
  8  9  1  0
  9 10  2  0
 10 11  1  0
 11 12  2  0
 12 13  1  0
 13 14  2  0
 14 15  1  0
 15 16  2  0
 16 17  1  0
  8 18  2  0
 18 19  1  0
 19 20  2  0
 20  3  1  0
 19  6  1  0
 17  9  1  0
 16 11  1  0
  4 21  1  0
  5 22  1  0
  7 23  1  0
 10 24  1  0
 12 25  1  0
 13 26  1  0
 14 27  1  0
 15 28  1  0
 20 29  1  0
M  END
>  <smiles>  (40) 
N#Cc1ccc2[nH]c(-c3cc4ccccc4s3)nc2c1

>  <score_type>  (40) 
oracle

>  <origin>  (40) 
adg

>  <m_score__min__energy>  (40) 
-7.0199999999999996

>  <m_primary>  (40) 
energy

$$$$
40:0
     RDKit          3D

 34 36  0  0  0  0  0  0  0  0999 V2000
   58.9490   35.2160   47.1300 C   0  0  0  0  0  0  0  0  0  0  0  0
   59.8100   34.1930   47.1380 C   0  0  0  0  0  0  0  0  0  0  0  0
   60.8080   34.0970   48.0430 N   0  0  0  0  0  0  0  0  0  0  0  0
   61.4040   32.9220   47.9140 N   0  0  0  0  0  0  0  0  0  0  0  0
   62.5020   32.4750   48.7330 C   0  0  0  0  0  0  0  0  0  0  0  0
   63.7710   33.0660   48.5940 C   0  0  0  0  0  0  0  0  0  0  0  0
   64.8390   32.6420   49.3900 C   0  0  0  0  0  0  0  0  0  0  0  0
   64.6510   31.6310   50.3360 C   0  0  0  0  0  0  0  0  0  0  0  0
   63.3920   31.0440   50.4880 C   0  0  0  0  0  0  0  0  0  0  0  0
   62.3220   31.4620   49.6930 C   0  0  0  0  0  0  0  0  0  0  0  0
   60.8080   32.2560   46.9030 C   0  0  0  0  0  0  0  0  0  0  0  0
   61.1650   31.1160   46.4930 O   0  0  0  0  0  0  0  0  0  0  0  0
   59.7950   33.0270   46.3540 C   0  0  0  0  0  0  0  0  0  0  0  0
   59.0330   32.6630   45.3040 C   0  0  0  0  0  0  0  0  0  0  0  0
   58.1530   31.4830   45.2600 C   0  0  0  0  0  0  0  0  0  0  0  0
   57.0150   31.4950   44.4400 C   0  0  0  0  0  0  0  0  0  0  0  0
   56.1420   30.4030   44.4300 C   0  0  0  0  0  0  0  0  0  0  0  0
   56.3890   29.3010   45.2560 C   0  0  0  0  0  0  0  0  0  0  0  0
   55.5210   28.2160   45.2440 O   0  0  0  0  0  0  0  0  0  0  0  0
   57.5050   29.2950   46.0990 C   0  0  0  0  0  0  0  0  0  0  0  0
   58.3790   30.3870   46.1110 C   0  0  0  0  0  0  0  0  0  0  0  0
   58.1498   35.2563   46.3752 H   0  0  0  0  0  0  0  0  0  0  0  0
   59.0399   36.0172   47.8782 H   0  0  0  0  0  0  0  0  0  0  0  0
   61.0380   34.8010   48.7810 H   0  0  0  0  0  0  0  0  0  0  0  0
   63.9237   33.8662   47.8548 H   0  0  0  0  0  0  0  0  0  0  0  0
   65.8296   33.1053   49.2714 H   0  0  0  0  0  0  0  0  0  0  0  0
   65.4930   31.2976   50.9603 H   0  0  0  0  0  0  0  0  0  0  0  0
   63.2431   30.2508   51.2355 H   0  0  0  0  0  0  0  0  0  0  0  0
   61.3332   30.9966   49.8182 H   0  0  0  0  0  0  0  0  0  0  0  0
   59.0714   33.2987   44.4071 H   0  0  0  0  0  0  0  0  0  0  0  0
   56.8086   32.3671   43.8022 H   0  0  0  0  0  0  0  0  0  0  0  0
   55.2603   30.4102   43.7723 H   0  0  0  0  0  0  0  0  0  0  0  0
   57.6955   28.4312   46.7528 H   0  0  0  0  0  0  0  0  0  0  0  0
   59.2458   30.3882   46.7883 H   0  0  0  0  0  0  0  0  0  0  0  0
  1  2  2  0
  2  3  1  0
  3  4  1  0
  4  5  1  0
  5  6  2  0
  6  7  1  0
  7  8  2  0
  8  9  1  0
  9 10  2  0
  4 11  1  0
 11 12  2  0
 11 13  1  0
 13 14  2  3
 14 15  1  0
 15 16  2  0
 16 17  1  0
 17 18  2  0
 18 19  1  0
 18 20  1  0
 20 21  2  0
 13  2  1  0
 21 15  1  0
 10  5  1  0
  1 22  1  0
  1 23  1  0
  3 24  1  0
  6 25  1  0
  7 26  1  0
  8 27  1  0
  9 28  1  0
 10 29  1  0
 14 30  1  0
 16 31  1  0
 17 32  1  0
 20 33  1  0
 21 34  1  0
M  CHG  1  19  -1
M  END
>  <UniqueID>  (41) 
39

>  <SMILES>  (41) 
C=c1[nH]n(-c2ccccc2)c(=O)c1=Cc1ccc([O-])cc1

>  <Energy>  (41) 
87.43847268837696

>  <Genealogy>  (41) 
C=c1[nH]n(-c2ccccc2)c(=O)c1=Cc1ccc([O-])cc1 (protonated)
C=c1[nH]n(-c2ccccc2)c(=O)c1=Cc1ccc([O-])cc1 (3D coordinates assigned)
C=c1[nH]n(-c2ccccc2)c(=O)c1=Cc1ccc([O-])cc1 (optimized conformer: 87.43847268837696 kcal/mol)

>  <smiles>  (41) 
C=c1[nH]n(-c2ccccc2)c(=O)c1=Cc1ccc(O)cc1

>  <score_type>  (41) 
oracle

>  <origin>  (41) 
adg

>  <m_score__min__energy>  (41) 
-9.9499999999999993

>  <m_primary>  (41) 
energy

$$$$
41:0
     RDKit          3D

 31 33  0  0  0  0  0  0  0  0999 V2000
   55.1420   27.4550   46.0100 H   0  0  0  0  0  0  0  0  0  0  0  0
   55.1430   26.4100   45.9990 N   0  0  0  0  0  0  0  0  0  0  0  0
   56.7940   25.9080   46.0810 S   0  0  0  0  0  0  0  0  0  0  0  0
   56.9580   24.8980   47.1810 O   0  0  0  0  0  0  0  0  0  0  0  0
   57.1880   25.2700   44.7790 O   0  0  0  0  0  0  0  0  0  0  0  0
   57.8190   27.3040   46.3960 C   0  0  0  0  0  0  0  0  0  0  0  0
   58.9270   27.1900   47.2440 C   0  0  0  0  0  0  0  0  0  0  0  0
   59.1533   26.2258   47.7227 H   0  0  0  0  0  0  0  0  0  0  0  0
   59.7470   28.2960   47.4850 C   0  0  0  0  0  0  0  0  0  0  0  0
   60.6128   28.1968   48.1563 H   0  0  0  0  0  0  0  0  0  0  0  0
   59.4750   29.5340   46.8770 C   0  0  0  0  0  0  0  0  0  0  0  0
   60.3570   30.6920   47.1490 C   0  0  0  0  0  0  0  0  0  0  0  0
   60.1490   31.8930   46.6560 O   0  0  0  0  0  0  0  0  0  0  0  0
   61.1030   32.6940   47.0710 C   0  0  0  0  0  0  0  0  0  0  0  0
   61.1430   34.1310   46.7450 C   0  0  0  0  0  0  0  0  0  0  0  0
   62.1232   34.6284   46.7875 H   0  0  0  0  0  0  0  0  0  0  0  0
   60.0880   34.8850   46.4010 C   0  0  0  0  0  0  0  0  0  0  0  0
   60.2294   35.9759   46.3971 H   0  0  0  0  0  0  0  0  0  0  0  0
   58.7560   34.3770   46.0280 C   0  0  0  0  0  0  0  0  0  0  0  0
   58.1780   34.6200   44.8380 N   0  0  0  0  0  0  0  0  0  0  0  0
   56.9760   34.0770   44.9310 N   0  0  0  0  0  0  0  0  0  0  0  0
   56.8180   33.5380   46.1300 N   0  0  0  0  0  0  0  0  0  0  0  0
   57.9150   33.7190   46.8470 N   0  0  0  0  0  0  0  0  0  0  0  0
   61.9730   32.0000   47.8930 C   0  0  0  0  0  0  0  0  0  0  0  0
   62.8609   32.3982   48.4058 H   0  0  0  0  0  0  0  0  0  0  0  0
   61.4980   30.7070   47.9370 C   0  0  0  0  0  0  0  0  0  0  0  0
   61.9350   29.8595   48.4855 H   0  0  0  0  0  0  0  0  0  0  0  0
   58.3630   29.6400   46.0200 C   0  0  0  0  0  0  0  0  0  0  0  0
   58.1364   30.6011   45.5353 H   0  0  0  0  0  0  0  0  0  0  0  0
   57.5450   28.5320   45.7810 C   0  0  0  0  0  0  0  0  0  0  0  0
   56.6813   28.6251   45.1062 H   0  0  0  0  0  0  0  0  0  0  0  0
  1  2  1  0
  2  3  1  0
  3  4  2  0
  3  5  2  0
  3  6  1  0
  6  7  2  0
  7  8  1  0
  7  9  1  0
  9 10  1  0
  9 11  2  0
 11 12  1  0
 12 13  1  0
 13 14  1  0
 14 15  1  0
 15 16  1  0
 15 17  2  0
 17 18  1  0
 17 19  1  0
 19 20  1  0
 20 21  2  0
 21 22  1  0
 22 23  1  0
 14 24  2  0
 24 25  1  0
 24 26  1  0
 26 27  1  0
 11 28  1  0
 28 29  1  0
 28 30  2  0
 30 31  1  0
 30  6  1  0
 26 12  2  0
 23 19  2  0
M  CHG  2   2  -1  22  -1
M  END
>  <UniqueID>  (42) 
40

>  <SMILES>  (42) 
[NH-]S(=O)(=O)c1ccc(-c2ccc(/C=C\c3nn[n-]n3)o2)cc1

>  <Energy>  (42) 
104.8839623213926

>  <Genealogy>  (42) 
[NH-]S(=O)(=O)c1ccc(-c2ccc(C=Cc3nn[n-]n3)o2)cc1 (protonated)
[NH-]S(=O)(=O)c1ccc(-c2ccc(/C=C\c3nn[n-]n3)o2)cc1 (cis-trans isomerization)
[NH-]S(=O)(=O)c1ccc(-c2ccc(/C=C\c3nn[n-]n3)o2)cc1 (3D coordinates assigned)
[NH-]S(=O)(=O)c1ccc(-c2ccc(/C=C\c3nn[n-]n3)o2)cc1 (optimized conformer: 104.8839623213926 kcal/mol)

>  <smiles>  (42) 
NS(=O)(=O)c1ccc(-c2ccc(C=Cc3nn[nH]n3)o2)cc1

>  <score_type>  (42) 
oracle

>  <origin>  (42) 
adg

>  <m_score__min__energy>  (42) 
-10.960000000000001

>  <m_primary>  (42) 
energy

$$$$
42:0
     RDKit          3D

 43 45  0  0  0  0  0  0  0  0999 V2000
   54.1690   24.9210   45.6200 C   0  0  0  0  0  0  0  0  0  0  0  0
   54.7230   26.1800   45.9870 O   0  0  0  0  0  0  0  0  0  0  0  0
   56.0970   26.4610   46.0320 C   0  0  0  0  0  0  0  0  0  0  0  0
   56.6580   27.5570   45.3510 C   0  0  0  0  0  0  0  0  0  0  0  0
   58.0320   27.8230   45.4300 C   0  0  0  0  0  0  0  0  0  0  0  0
   58.8560   26.9900   46.2030 C   0  0  0  0  0  0  0  0  0  0  0  0
   58.3040   25.8780   46.8540 C   0  0  0  0  0  0  0  0  0  0  0  0
   56.9240   25.6160   46.7850 C   0  0  0  0  0  0  0  0  0  0  0  0
   56.3360   24.5320   47.4550 O   0  0  0  0  0  0  0  0  0  0  0  0
   56.6430   23.1650   47.2030 C   0  0  0  0  0  0  0  0  0  0  0  0
   60.3300   27.2670   46.3230 C   0  0  0  0  0  0  0  0  0  0  0  0
   60.6640   28.6960   46.1480 N   0  0  2  0  0  0  0  0  0  0  0  0
   60.4890   29.5370   47.3650 C   0  0  0  0  0  0  0  0  0  0  0  0
   60.6720   31.0240   47.1590 C   0  0  0  0  0  0  0  0  0  0  0  0
   61.8870   31.6450   47.4920 C   0  0  0  0  0  0  0  0  0  0  0  0
   62.0680   33.0140   47.2660 C   0  0  0  0  0  0  0  0  0  0  0  0
   63.7440   33.8330   47.6680 Br  0  0  0  0  0  0  0  0  0  0  0  0
   61.0260   33.7780   46.7350 C   0  0  0  0  0  0  0  0  0  0  0  0
   59.7960   33.1800   46.4470 C   0  0  0  0  0  0  0  0  0  0  0  0
   58.3730   34.2230   45.7160 Br  0  0  0  0  0  0  0  0  0  0  0  0
   59.6120   31.8130   46.6770 C   0  0  0  0  0  0  0  0  0  0  0  0
   60.0910   29.2640   44.9050 C   0  0  0  0  0  0  0  0  0  0  0  0
   58.5760   29.0400   44.7300 C   0  0  0  0  0  0  0  0  0  0  0  0
   53.9186   24.3520   46.5275 H   0  0  0  0  0  0  0  0  0  0  0  0
   53.2581   25.0808   45.0245 H   0  0  0  0  0  0  0  0  0  0  0  0
   54.9022   24.3573   45.0245 H   0  0  0  0  0  0  0  0  0  0  0  0
   56.0110   28.2126   44.7497 H   0  0  0  0  0  0  0  0  0  0  0  0
   58.9577   25.2026   47.4254 H   0  0  0  0  0  0  0  0  0  0  0  0
   56.7623   22.6338   48.1588 H   0  0  0  0  0  0  0  0  0  0  0  0
   55.8256   22.7057   46.6277 H   0  0  0  0  0  0  0  0  0  0  0  0
   57.5783   23.0993   46.6277 H   0  0  0  0  0  0  0  0  0  0  0  0
   60.6669   26.9476   47.3203 H   0  0  0  0  0  0  0  0  0  0  0  0
   60.8364   26.7096   45.5212 H   0  0  0  0  0  0  0  0  0  0  0  0
   61.7010   28.7070   45.9880 H   0  0  0  0  0  0  0  0  0  0  0  0
   59.4717   29.3705   47.7489 H   0  0  0  0  0  0  0  0  0  0  0  0
   61.2815   29.2284   48.0626 H   0  0  0  0  0  0  0  0  0  0  0  0
   62.7013   31.0515   47.9332 H   0  0  0  0  0  0  0  0  0  0  0  0
   61.1736   34.8511   46.5434 H   0  0  0  0  0  0  0  0  0  0  0  0
   58.6328   31.3521   46.4799 H   0  0  0  0  0  0  0  0  0  0  0  0
   60.2788   30.3479   44.9058 H   0  0  0  0  0  0  0  0  0  0  0  0
   60.5798   28.7393   44.0709 H   0  0  0  0  0  0  0  0  0  0  0  0
   58.0519   29.9236   45.1231 H   0  0  0  0  0  0  0  0  0  0  0  0
   58.4093   28.8788   43.6547 H   0  0  0  0  0  0  0  0  0  0  0  0
  1  2  1  0
  2  3  1  0
  3  4  2  0
  4  5  1  0
  5  6  2  0
  6  7  1  0
  7  8  2  0
  8  9  1  0
  9 10  1  0
  6 11  1  0
 11 12  1  0
 12 13  1  0
 13 14  1  0
 14 15  2  0
 15 16  1  0
 16 17  1  0
 16 18  2  0
 18 19  1  0
 19 20  1  0
 19 21  2  0
 12 22  1  0
 22 23  1  0
  8  3  1  0
 21 14  1  0
 23  5  1  0
  1 24  1  0
  1 25  1  0
  1 26  1  0
  4 27  1  0
  7 28  1  0
 10 29  1  0
 10 30  1  0
 10 31  1  0
 11 32  1  0
 11 33  1  0
 12 34  1  6
 13 35  1  0
 13 36  1  0
 15 37  1  0
 18 38  1  0
 21 39  1  0
 22 40  1  0
 22 41  1  0
 23 42  1  0
 23 43  1  0
M  CHG  1  12   1
M  END
>  <UniqueID>  (43) 
41

>  <SMILES>  (43) 
COc1cc2c(cc1OC)C[N@H+](Cc1cc(Br)cc(Br)c1)CC2

>  <Energy>  (43) 
52.09886249238928

>  <Genealogy>  (43) 
COc1cc2c(cc1OC)C[NH+](Cc1cc(Br)cc(Br)c1)CC2 (protonated)
COc1cc2c(cc1OC)C[N@H+](Cc1cc(Br)cc(Br)c1)CC2 (chirality)
COc1cc2c(cc1OC)C[N@H+](Cc1cc(Br)cc(Br)c1)CC2 (3D coordinates assigned)
COc1cc2c(cc1OC)C[N@H+](Cc1cc(Br)cc(Br)c1)CC2 (nonaromatic ring conformer: 52.09886249238928 kcal/mol)

>  <smiles>  (43) 
COc1cc2c(cc1OC)CN(Cc1cc(Br)cc(Br)c1)CC2

>  <score_type>  (43) 
oracle

>  <origin>  (43) 
adg

>  <m_score__min__energy>  (43) 
-6.75

>  <m_primary>  (43) 
energy

$$$$
43:0
     RDKit          3D

 41 45  0  0  0  0  0  0  0  0999 V2000
   56.9670   22.5100   54.1640 C   0  0  0  0  0  0  0  0  0  0  0  0
   56.4680   23.5390   55.0120 O   0  0  0  0  0  0  0  0  0  0  0  0
   56.3560   24.8870   54.6400 C   0  0  0  0  0  0  0  0  0  0  0  0
   57.4770   25.7600   54.6040 C   0  0  0  0  0  0  0  0  0  0  0  0
   57.3270   27.1060   54.2260 C   0  0  0  0  0  0  0  0  0  0  0  0
   56.0480   27.5590   53.9020 C   0  0  0  0  0  0  0  0  0  0  0  0
   55.5860   28.7950   53.4770 C   0  0  0  0  0  0  0  0  0  0  0  0
   54.2210   28.6170   53.2370 C   0  0  0  0  0  0  0  0  0  0  0  0
   53.8480   27.3470   53.5220 N   0  0  0  0  0  0  0  0  0  0  0  0
   54.9660   26.7140   53.9180 C   0  0  0  0  0  0  0  0  0  0  0  0
   55.0840   25.3760   54.2850 C   0  0  0  0  0  0  0  0  0  0  0  0
   53.2900   29.6680   52.7680 C   0  0  0  0  0  0  0  0  0  0  0  0
   51.9660   29.6840   53.2400 C   0  0  0  0  0  0  0  0  0  0  0  0
   51.0890   30.7000   52.8540 C   0  0  0  0  0  0  0  0  0  0  0  0
   51.5200   31.7100   51.9940 C   0  0  0  0  0  0  0  0  0  0  0  0
   50.6460   32.7230   51.6200 O   0  0  0  0  0  0  0  0  0  0  0  0
   52.8290   31.7010   51.5060 C   0  0  0  0  0  0  0  0  0  0  0  0
   53.7230   30.6780   51.8730 C   0  0  0  0  0  0  0  0  0  0  0  0
   55.0530   30.6470   51.3090 N   0  0  0  0  0  0  0  0  0  0  0  0
   56.0280   30.9810   52.3190 C   0  0  0  0  0  0  0  0  0  0  0  0
   56.6910   32.2220   52.2740 C   0  0  0  0  0  0  0  0  0  0  0  0
   57.6470   32.5510   53.2360 C   0  0  0  0  0  0  0  0  0  0  0  0
   57.9420   31.6530   54.2630 C   0  0  0  0  0  0  0  0  0  0  0  0
   57.2840   30.4240   54.3300 C   0  0  0  0  0  0  0  0  0  0  0  0
   56.3330   30.0690   53.3590 C   0  0  0  0  0  0  0  0  0  0  0  0
   57.3650   21.6892   54.7787 H   0  0  0  0  0  0  0  0  0  0  0  0
   56.1526   22.1310   53.5291 H   0  0  0  0  0  0  0  0  0  0  0  0
   57.7689   22.9148   53.5291 H   0  0  0  0  0  0  0  0  0  0  0  0
   58.4726   25.3786   54.8747 H   0  0  0  0  0  0  0  0  0  0  0  0
   58.1935   27.7825   54.1869 H   0  0  0  0  0  0  0  0  0  0  0  0
   52.8960   26.9300   53.4280 H   0  0  0  0  0  0  0  0  0  0  0  0
   54.2039   24.7162   54.2973 H   0  0  0  0  0  0  0  0  0  0  0  0
   51.6183   28.8907   53.9181 H   0  0  0  0  0  0  0  0  0  0  0  0
   50.0550   30.7037   53.2294 H   0  0  0  0  0  0  0  0  0  0  0  0
   53.1639   32.5006   50.8289 H   0  0  0  0  0  0  0  0  0  0  0  0
   55.1250   31.3030   50.4960 H   0  0  0  0  0  0  0  0  0  0  0  0
   55.2510   29.6920   50.9280 H   0  0  0  0  0  0  0  0  0  0  0  0
   56.4535   32.9385   51.4738 H   0  0  0  0  0  0  0  0  0  0  0  0
   58.1682   33.5183   53.1849 H   0  0  0  0  0  0  0  0  0  0  0  0
   58.6948   31.9145   55.0213 H   0  0  0  0  0  0  0  0  0  0  0  0
   57.5120   29.7274   55.1502 H   0  0  0  0  0  0  0  0  0  0  0  0
  1  2  1  0
  2  3  1  0
  3  4  2  0
  4  5  1  0
  5  6  2  0
  6  7  1  0
  7  8  2  0
  8  9  1  0
  9 10  1  0
 10 11  2  0
  8 12  1  0
 12 13  2  0
 13 14  1  0
 14 15  2  0
 15 16  1  0
 15 17  1  0
 17 18  2  0
 18 19  1  0
 19 20  1  0
 20 21  2  0
 21 22  1  0
 22 23  2  0
 23 24  1  0
 24 25  2  0
 11  3  1  0
 18 12  1  0
 25 20  1  0
 10  6  1  0
 25  7  1  0
  1 26  1  0
  1 27  1  0
  1 28  1  0
  4 29  1  0
  5 30  1  0
  9 31  1  0
 11 32  1  0
 13 33  1  0
 14 34  1  0
 17 35  1  0
 19 36  1  0
 19 37  1  0
 21 38  1  0
 22 39  1  0
 23 40  1  0
 24 41  1  0
M  CHG  2  16  -1  19   1
M  END
>  <UniqueID>  (44) 
42

>  <SMILES>  (44) 
COc1ccc2c3c([nH]c2c1)-c1ccc([O-])cc1[NH2+]c1ccccc1-3

>  <Energy>  (44) 
95.21260649431285

>  <Genealogy>  (44) 
COc1ccc2c3c([nH]c2c1)-c1ccc([O-])cc1[NH2+]c1ccccc1-3 (protonated)
COc1ccc2c3c([nH]c2c1)-c1ccc([O-])cc1[NH2+]c1ccccc1-3 (3D coordinates assigned)
COc1ccc2c3c([nH]c2c1)-c1ccc([O-])cc1[NH2+]c1ccccc1-3 (nonaromatic ring conformer: 95.21260649431285 kcal/mol)

>  <smiles>  (44) 
COc1ccc2c3c([nH]c2c1)-c1ccc(O)cc1Nc1ccccc1-3

>  <score_type>  (44) 
oracle

>  <origin>  (44) 
adg

>  <m_score__min__energy>  (44) 
-9.3399999999999999

>  <m_primary>  (44) 
energy

$$$$
44:0
     RDKit          3D

 33 35  0  0  0  0  0  0  0  0999 V2000
   58.5210   33.2840   43.8480 C   0  0  0  0  0  0  0  0  0  0  0  0
   58.1900   32.7710   45.1070 C   0  0  0  0  0  0  0  0  0  0  0  0
   57.4700   31.5760   45.2090 C   0  0  0  0  0  0  0  0  0  0  0  0
   57.0760   30.8950   44.0510 C   0  0  0  0  0  0  0  0  0  0  0  0
   56.1410   29.3650   44.1780 S   0  0  0  0  0  0  0  0  0  0  0  0
   57.4310   28.3390   43.5060 N   0  0  0  0  0  0  0  0  0  0  0  0
   58.4700   28.1220   44.4870 C   0  0  0  0  0  0  0  0  0  0  0  0
   59.5940   28.9700   44.5030 C   0  0  0  0  0  0  0  0  0  0  0  0
   60.5730   28.8380   45.4900 C   0  0  0  0  0  0  0  0  0  0  0  0
   60.4420   27.8630   46.4770 C   0  0  0  0  0  0  0  0  0  0  0  0
   59.3380   27.0100   46.4760 C   0  0  0  0  0  0  0  0  0  0  0  0
   58.3530   27.1170   45.4820 C   0  0  0  0  0  0  0  0  0  0  0  0
   57.2310   26.2240   45.5180 N   0  0  0  0  0  0  0  0  0  0  0  0
   57.0330   25.1570   44.7270 C   0  0  0  0  0  0  0  0  0  0  0  0
   55.7980   24.6290   45.0340 C   0  0  0  0  0  0  0  0  0  0  0  0
   55.2140   25.3730   45.9960 N   0  0  0  0  0  0  0  0  0  0  0  0
   56.1140   26.3420   46.2630 C   0  0  0  0  0  0  0  0  0  0  0  0
   57.4170   31.4040   42.7910 C   0  0  0  0  0  0  0  0  0  0  0  0
   58.1350   32.6000   42.6910 C   0  0  0  0  0  0  0  0  0  0  0  0
   59.0848   34.2252   43.7684 H   0  0  0  0  0  0  0  0  0  0  0  0
   58.4961   33.3077   46.0171 H   0  0  0  0  0  0  0  0  0  0  0  0
   57.2134   31.1714   46.1992 H   0  0  0  0  0  0  0  0  0  0  0  0
   57.0190   27.4270   43.2170 H   0  0  0  0  0  0  0  0  0  0  0  0
   57.8120   28.7860   42.6390 H   0  0  0  0  0  0  0  0  0  0  0  0
   59.7021   29.7448   43.7297 H   0  0  0  0  0  0  0  0  0  0  0  0
   61.4483   29.5042   45.4884 H   0  0  0  0  0  0  0  0  0  0  0  0
   61.2103   27.7658   47.2582 H   0  0  0  0  0  0  0  0  0  0  0  0
   59.2386   26.2465   47.2616 H   0  0  0  0  0  0  0  0  0  0  0  0
   57.7320   24.7731   43.9693 H   0  0  0  0  0  0  0  0  0  0  0  0
   55.3557   23.7371   44.5662 H   0  0  0  0  0  0  0  0  0  0  0  0
   55.9542   27.1383   47.0048 H   0  0  0  0  0  0  0  0  0  0  0  0
   57.1200   30.8630   41.8805 H   0  0  0  0  0  0  0  0  0  0  0  0
   58.3963   33.0030   41.7014 H   0  0  0  0  0  0  0  0  0  0  0  0
  1  2  2  0
  2  3  1  0
  3  4  2  0
  4  5  1  0
  5  6  1  0
  6  7  1  0
  7  8  2  0
  8  9  1  0
  9 10  2  0
 10 11  1  0
 11 12  2  0
 12 13  1  0
 13 14  1  0
 14 15  2  0
 15 16  1  0
 16 17  2  0
  4 18  1  0
 18 19  2  0
 19  1  1  0
 12  7  1  0
 17 13  1  0
  1 20  1  0
  2 21  1  0
  3 22  1  0
  6 23  1  0
  6 24  1  0
  8 25  1  0
  9 26  1  0
 10 27  1  0
 11 28  1  0
 14 29  1  0
 15 30  1  0
 17 31  1  0
 18 32  1  0
 19 33  1  0
M  CHG  1   6   1
M  END
>  <UniqueID>  (45) 
43

>  <SMILES>  (45) 
c1ccc(S[NH2+]c2ccccc2-n2ccnc2)cc1

>  <Energy>  (45) 
69.38541336044514

>  <Genealogy>  (45) 
c1ccc(S[NH2+]c2ccccc2-n2ccnc2)cc1 (protonated)
c1ccc(S[NH2+]c2ccccc2-n2ccnc2)cc1 (3D coordinates assigned)
c1ccc(S[NH2+]c2ccccc2-n2ccnc2)cc1 (optimized conformer: 69.38541336044514 kcal/mol)

>  <smiles>  (45) 
c1ccc(SNc2ccccc2-n2ccnc2)cc1

>  <score_type>  (45) 
oracle

>  <origin>  (45) 
adg

>  <m_score__min__energy>  (45) 
-5.9400000000000004

>  <m_primary>  (45) 
energy

$$$$
