0:0
     RDKit          3D

 35 36  0  0  0  0  0  0  0  0999 V2000
   64.0253   32.6950   47.2252 H   0  0  0  0  0  0  0  0  0  0  0  0
   62.9330   32.5860   47.1540 C   0  0  0  0  0  0  0  0  0  0  0  0
   62.1300   33.7150   47.0070 C   0  0  0  0  0  0  0  0  0  0  0  0
   62.5904   34.7131   46.9632 H   0  0  0  0  0  0  0  0  0  0  0  0
   60.7420   33.5840   46.9150 C   0  0  0  0  0  0  0  0  0  0  0  0
   59.7780   35.0460   46.7240 Cl  0  0  0  0  0  0  0  0  0  0  0  0
   60.1420   32.3090   46.9700 C   0  0  0  0  0  0  0  0  0  0  0  0
   58.3840   32.2020   46.8250 Cl  0  0  0  0  0  0  0  0  0  0  0  0
   60.9660   31.1580   47.1250 C   0  0  0  0  0  0  0  0  0  0  0  0
   60.4640   29.8140   47.1990 N   0  0  0  0  0  0  0  0  0  0  0  0
   60.1130   29.1280   46.1890 N   0  0  0  0  0  0  0  0  0  0  0  0
   58.7500   28.7720   45.9080 C   0  0  0  0  0  0  0  0  0  0  0  0
   58.0510   29.6000   45.0260 C   0  0  0  0  0  0  0  0  0  0  0  0
   58.5369   30.4995   44.6199 H   0  0  0  0  0  0  0  0  0  0  0  0
   56.7380   29.2930   44.6560 C   0  0  0  0  0  0  0  0  0  0  0  0
   55.9840   30.1980   43.7190 C   0  0  0  0  0  0  0  0  0  0  0  0
   55.3572   30.8850   44.3065 H   0  0  0  0  0  0  0  0  0  0  0  0
   55.3571   29.5810   43.0584 H   0  0  0  0  0  0  0  0  0  0  0  0
   56.9490   31.0090   42.8630 C   0  0  0  0  0  0  0  0  0  0  0  0
   57.6272   31.5790   43.5150 H   0  0  0  0  0  0  0  0  0  0  0  0
   57.5361   30.3292   42.2280 H   0  0  0  0  0  0  0  0  0  0  0  0
   56.3804   31.7043   42.2280 H   0  0  0  0  0  0  0  0  0  0  0  0
   56.1310   28.1930   45.1810 N   0  0  0  0  0  0  0  0  0  0  0  0
   55.1460   27.9730   44.9050 H   0  0  0  0  0  0  0  0  0  0  0  0
   56.7640   27.3750   46.0660 C   0  0  0  0  0  0  0  0  0  0  0  0
   56.1520   26.3680   46.5150 O   0  0  0  0  0  0  0  0  0  0  0  0
   58.0870   27.6510   46.4790 C   0  0  0  0  0  0  0  0  0  0  0  0
   58.7420   26.7610   47.5150 C   0  0  0  0  0  0  0  0  0  0  0  0
   57.9723   26.3689   48.1961 H   0  0  0  0  0  0  0  0  0  0  0  0
   59.2503   25.9298   47.0044 H   0  0  0  0  0  0  0  0  0  0  0  0
   59.7240   27.5200   48.2830 N   0  0  0  0  0  0  0  0  0  0  0  0
   59.3340   28.4750   48.4580 H   0  0  0  0  0  0  0  0  0  0  0  0
   60.5700   27.6480   47.6820 H   0  0  0  0  0  0  0  0  0  0  0  0
   62.3560   31.3200   47.2110 C   0  0  0  0  0  0  0  0  0  0  0  0
   62.9994   30.4351   47.3250 H   0  0  0  0  0  0  0  0  0  0  0  0
  1  2  1  0
  2  3  2  0
  3  4  1  0
  3  5  1  0
  5  6  1  0
  5  7  2  0
  7  8  1  0
  7  9  1  0
  9 10  1  0
 10 11  2  0
 11 12  1  0
 12 13  1  0
 13 14  1  0
 13 15  2  0
 15 16  1  0
 16 17  1  0
 16 18  1  0
 16 19  1  0
 19 20  1  0
 19 21  1  0
 19 22  1  0
 15 23  1  0
 23 24  1  0
 23 25  1  0
 25 26  2  0
 25 27  1  0
 27 28  1  0
 28 29  1  0
 28 30  1  0
 28 31  1  0
 31 32  1  0
 31 33  1  0
  9 34  2  0
 34 35  1  0
 34  2  1  0
 27 12  2  0
M  END
>  <UniqueID>  (1) 
1

>  <SMILES>  (1) 
CCc1cc(/N=N/c2cccc(Cl)c2Cl)c(CN)c(=O)[nH]1

>  <Energy>  (1) 
41.726533437076995

>  <Genealogy>  (1) 
CCc1cc(/N=N/c2cccc(Cl)c2Cl)c(CN)c(=O)[nH]1 (cis-trans isomerization)
CCc1cc(/N=N/c2cccc(Cl)c2Cl)c(CN)c(=O)[nH]1 (3D coordinates assigned)
CCc1cc(/N=N/c2cccc(Cl)c2Cl)c(CN)c(=O)[nH]1 (optimized conformer: 41.726533437076995 kcal/mol)

>  <smiles>  (1) 
CCc1cc(N=Nc2cccc(Cl)c2Cl)c(CN)c(=O)[nH]1

>  <score_type>  (1) 
oracle

>  <origin>  (1) 
adg

>  <m_score__min__energy>  (1) 
-7.1299999999999999

>  <m_primary>  (1) 
energy

$$$$
1:0
     RDKit          3D

 29 30  0  0  0  0  0  0  0  0999 V2000
   61.8400   34.1780   46.7480 C   0  0  0  0  0  0  0  0  0  0  0  0
   60.5140   34.6080   46.4580 O   0  0  0  0  0  0  0  0  0  0  0  0
   59.5010   33.7770   45.9540 C   0  0  0  0  0  0  0  0  0  0  0  0
   59.0760   33.8430   44.6130 C   0  0  0  0  0  0  0  0  0  0  0  0
   58.0600   33.0000   44.1520 C   0  0  0  0  0  0  0  0  0  0  0  0
   57.4450   32.0920   45.0180 C   0  0  0  0  0  0  0  0  0  0  0  0
   56.4140   31.2360   44.5070 N   0  0  0  0  0  0  0  0  0  0  0  0
   56.2820   29.8280   44.7510 C   0  0  0  0  0  0  0  0  0  0  0  0
   55.1270   29.3260   44.7750 O   0  0  0  0  0  0  0  0  0  0  0  0
   57.4530   28.9610   45.0220 C   0  0  0  0  0  0  0  0  0  0  0  0
   57.4460   28.0630   46.1030 C   0  0  0  0  0  0  0  0  0  0  0  0
   58.5580   27.2540   46.3340 C   0  0  0  0  0  0  0  0  0  0  0  0
   59.6620   27.3330   45.4860 C   0  0  0  0  0  0  0  0  0  0  0  0
   59.6340   28.2220   44.4110 C   0  0  0  0  0  0  0  0  0  0  0  0
   58.5410   29.0070   44.1970 N   0  0  0  0  0  0  0  0  0  0  0  0
   57.8840   32.0050   46.3500 C   0  0  0  0  0  0  0  0  0  0  0  0
   58.8980   32.8480   46.8160 C   0  0  0  0  0  0  0  0  0  0  0  0
   59.4130   32.7230   48.4920 Cl  0  0  0  0  0  0  0  0  0  0  0  0
   61.9805   34.1324   47.8380 H   0  0  0  0  0  0  0  0  0  0  0  0
   62.0049   33.1803   46.3150 H   0  0  0  0  0  0  0  0  0  0  0  0
   62.5590   34.8890   46.3150 H   0  0  0  0  0  0  0  0  0  0  0  0
   59.5456   34.5612   43.9248 H   0  0  0  0  0  0  0  0  0  0  0  0
   57.7426   33.0520   43.1001 H   0  0  0  0  0  0  0  0  0  0  0  0
   56.5684   27.9987   46.7631 H   0  0  0  0  0  0  0  0  0  0  0  0
   58.5642   26.5550   47.1833 H   0  0  0  0  0  0  0  0  0  0  0  0
   60.5452   26.7015   45.6626 H   0  0  0  0  0  0  0  0  0  0  0  0
   60.4979   28.2894   43.7334 H   0  0  0  0  0  0  0  0  0  0  0  0
   58.5570   29.6650   43.3860 H   0  0  0  0  0  0  0  0  0  0  0  0
   57.4278   31.2702   47.0296 H   0  0  0  0  0  0  0  0  0  0  0  0
  1  2  1  0
  2  3  1  0
  3  4  2  0
  4  5  1  0
  5  6  2  0
  6  7  1  0
  7  8  1  0
  8  9  2  0
  8 10  1  0
 10 11  2  0
 11 12  1  0
 12 13  2  0
 13 14  1  0
 14 15  2  0
  6 16  1  0
 16 17  2  0
 17 18  1  0
 17  3  1  0
 15 10  1  0
  1 19  1  0
  1 20  1  0
  1 21  1  0
  4 22  1  0
  5 23  1  0
 11 24  1  0
 12 25  1  0
 13 26  1  0
 14 27  1  0
 15 28  1  0
 16 29  1  0
M  CHG  2   7  -1  15   1
M  END
>  <UniqueID>  (2) 
2

>  <SMILES>  (2) 
COc1ccc([N-]C(=O)c2cccc[nH+]2)cc1Cl

>  <Energy>  (2) 
36.02040716477989

>  <Genealogy>  (2) 
COc1ccc([N-]C(=O)c2cccc[nH+]2)cc1Cl (protonated)
COc1ccc([N-]C(=O)c2cccc[nH+]2)cc1Cl (3D coordinates assigned)
COc1ccc([N-]C(=O)c2cccc[nH+]2)cc1Cl (optimized conformer: 36.02040716477989 kcal/mol)

>  <smiles>  (2) 
COc1ccc(NC(=O)c2ccccn2)cc1Cl

>  <score_type>  (2) 
oracle

>  <origin>  (2) 
adg

>  <m_score__min__energy>  (2) 
-6.4699999999999998

>  <m_primary>  (2) 
energy

$$$$
2:0
     RDKit          3D

 41 43  0  0  0  0  0  0  0  0999 V2000
   60.5854   34.7635   48.7232 H   0  0  0  0  0  0  0  0  0  0  0  0
   59.8770   34.4480   47.9430 C   0  0  0  0  0  0  0  0  0  0  0  0
   58.8930   33.4990   48.2350 C   0  0  0  0  0  0  0  0  0  0  0  0
   58.8299   33.0657   49.2441 H   0  0  0  0  0  0  0  0  0  0  0  0
   57.9890   33.1000   47.2460 C   0  0  0  0  0  0  0  0  0  0  0  0
   57.2200   32.3486   47.4784 H   0  0  0  0  0  0  0  0  0  0  0  0
   58.0580   33.6540   45.9570 C   0  0  0  0  0  0  0  0  0  0  0  0
   57.0680   33.2380   44.8970 C   0  0  0  0  0  0  0  0  0  0  0  0
   56.5299   34.1324   44.5498 H   0  0  0  0  0  0  0  0  0  0  0  0
   56.3898   32.5010   45.3517 H   0  0  0  0  0  0  0  0  0  0  0  0
   57.7200   32.5770   43.7070 C   0  0  0  0  0  0  0  0  0  0  0  0
   58.6660   33.1730   43.1250 O   0  0  0  0  0  0  0  0  0  0  0  0
   57.3520   31.2640   43.2610 N   0  0  0  0  0  0  0  0  0  0  0  0
   56.7260   30.3580   43.9550 C   0  0  0  0  0  0  0  0  0  0  0  0
   55.3910   30.3550   44.1280 N   0  0  0  0  0  0  0  0  0  0  0  0
   55.1390   29.3310   44.8990 O   0  0  0  0  0  0  0  0  0  0  0  0
   56.2070   28.6680   45.2440 N   0  0  0  0  0  0  0  0  0  0  0  0
   56.2170   27.8580   45.9030 H   0  0  0  0  0  0  0  0  0  0  0  0
   57.2440   29.2920   44.6600 C   0  0  0  0  0  0  0  0  0  0  0  0
   58.5020   29.0160   44.8420 N   0  0  0  0  0  0  0  0  0  0  0  0
   59.0770   28.3710   45.9890 C   0  0  0  0  0  0  0  0  0  0  0  0
   58.9680   26.9790   46.1600 C   0  0  0  0  0  0  0  0  0  0  0  0
   58.4130   26.3794   45.4234 H   0  0  0  0  0  0  0  0  0  0  0  0
   59.5600   26.3540   47.2590 C   0  0  0  0  0  0  0  0  0  0  0  0
   59.4579   25.2670   47.3935 H   0  0  0  0  0  0  0  0  0  0  0  0
   60.2810   27.1060   48.1870 C   0  0  0  0  0  0  0  0  0  0  0  0
   60.7349   26.6135   49.0596 H   0  0  0  0  0  0  0  0  0  0  0  0
   60.4270   28.4840   48.0090 C   0  0  0  0  0  0  0  0  0  0  0  0
   60.9976   29.0721   48.7429 H   0  0  0  0  0  0  0  0  0  0  0  0
   59.8500   29.1240   46.8990 C   0  0  0  0  0  0  0  0  0  0  0  0
   60.0110   30.6160   46.7360 C   0  0  0  0  0  0  0  0  0  0  0  0
   59.2862   31.1300   47.3844 H   0  0  0  0  0  0  0  0  0  0  0  0
   59.8340   30.8769   45.6822 H   0  0  0  0  0  0  0  0  0  0  0  0
   61.4220   31.0530   47.1180 C   0  0  0  0  0  0  0  0  0  0  0  0
   61.5131   31.0812   48.2139 H   0  0  0  0  0  0  0  0  0  0  0  0
   62.1508   30.3385   46.7078 H   0  0  0  0  0  0  0  0  0  0  0  0
   61.6194   32.0544   46.7078 H   0  0  0  0  0  0  0  0  0  0  0  0
   59.0600   34.5980   45.6680 C   0  0  0  0  0  0  0  0  0  0  0  0
   59.1349   35.0249   44.6570 H   0  0  0  0  0  0  0  0  0  0  0  0
   59.9610   34.9960   46.6600 C   0  0  0  0  0  0  0  0  0  0  0  0
   60.7369   35.7412   46.4306 H   0  0  0  0  0  0  0  0  0  0  0  0
  1  2  1  0
  2  3  2  0
  3  4  1  0
  3  5  1  0
  5  6  1  0
  5  7  2  0
  7  8  1  0
  8  9  1  0
  8 10  1  0
  8 11  1  0
 11 12  2  0
 11 13  1  0
 13 14  2  3
 14 15  1  0
 15 16  1  0
 16 17  1  0
 17 18  1  0
 17 19  1  0
 19 20  2  0
 20 21  1  0
 21 22  2  0
 22 23  1  0
 22 24  1  0
 24 25  1  0
 24 26  2  0
 26 27  1  0
 26 28  1  0
 28 29  1  0
 28 30  2  0
 30 31  1  0
 31 32  1  0
 31 33  1  0
 31 34  1  0
 34 35  1  0
 34 36  1  0
 34 37  1  0
  7 38  1  0
 38 39  1  0
 38 40  2  0
 40 41  1  0
 40  2  1  0
 19 14  1  0
 30 21  1  0
M  CHG  1  15  -1
M  END
>  <UniqueID>  (3) 
3

>  <SMILES>  (3) 
CCc1ccccc1/N=c1\[nH]o[n-]c1=NC(=O)Cc1ccccc1

>  <Energy>  (3) 
93.02419747146139

>  <Genealogy>  (3) 
CCc1ccccc1N=c1[nH]o[n-]c1=NC(=O)Cc1ccccc1 (protonated)
CCc1ccccc1/N=c1\[nH]o[n-]c1=NC(=O)Cc1ccccc1 (cis-trans isomerization)
CCc1ccccc1/N=c1\[nH]o[n-]c1=NC(=O)Cc1ccccc1 (3D coordinates assigned)
CCc1ccccc1/N=c1\[nH]o[n-]c1=NC(=O)Cc1ccccc1 (optimized conformer: 93.02419747146139 kcal/mol)

>  <smiles>  (3) 
CCc1ccccc1N=c1[nH]o[nH]c1=NC(=O)Cc1ccccc1

>  <score_type>  (3) 
oracle

>  <origin>  (3) 
adg

>  <m_score__min__energy>  (3) 
-10.289999999999999

>  <m_primary>  (3) 
energy

$$$$
3:0
     RDKit          3D

 53 55  0  0  0  0  0  0  0  0999 V2000
   58.5717   27.2031   46.3901 H   0  0  0  0  0  0  0  0  0  0  0  0
   58.2520   26.7200   45.4550 C   0  0  0  0  0  0  0  0  0  0  0  0
   57.5930   25.4900   45.4990 C   0  0  0  0  0  0  0  0  0  0  0  0
   57.3882   25.0224   46.4734 H   0  0  0  0  0  0  0  0  0  0  0  0
   57.1840   24.8340   44.3160 C   0  0  0  0  0  0  0  0  0  0  0  0
   56.4590   23.4770   44.4090 C   0  0  0  0  0  0  0  0  0  0  0  0
   55.0830   23.6740   45.0820 C   0  0  0  0  0  0  0  0  0  0  0  0
   55.2037   23.6567   46.1752 H   0  0  0  0  0  0  0  0  0  0  0  0
   54.6599   24.6419   44.7751 H   0  0  0  0  0  0  0  0  0  0  0  0
   54.4053   22.8637   44.7751 H   0  0  0  0  0  0  0  0  0  0  0  0
   56.2570   22.9000   42.9900 C   0  0  0  0  0  0  0  0  0  0  0  0
   55.8943   21.8641   43.0636 H   0  0  0  0  0  0  0  0  0  0  0  0
   55.5187   23.5093   42.4481 H   0  0  0  0  0  0  0  0  0  0  0  0
   57.2141   22.9158   42.4481 H   0  0  0  0  0  0  0  0  0  0  0  0
   57.2400   22.4260   45.2340 C   0  0  0  0  0  0  0  0  0  0  0  0
   57.0953   22.6207   46.3069 H   0  0  0  0  0  0  0  0  0  0  0  0
   56.8690   21.4194   44.9907 H   0  0  0  0  0  0  0  0  0  0  0  0
   58.3108   22.4908   44.9907 H   0  0  0  0  0  0  0  0  0  0  0  0
   57.4830   25.4610   43.0830 C   0  0  0  0  0  0  0  0  0  0  0  0
   57.1927   24.9719   42.1414 H   0  0  0  0  0  0  0  0  0  0  0  0
   58.1420   26.6930   43.0450 C   0  0  0  0  0  0  0  0  0  0  0  0
   58.3742   27.1551   42.0741 H   0  0  0  0  0  0  0  0  0  0  0  0
   58.5090   27.3440   44.2230 C   0  0  0  0  0  0  0  0  0  0  0  0
   59.2080   28.5960   44.1300 N   0  0  0  0  0  0  0  0  0  0  0  0
   58.9050   29.7040   44.7420 C   0  0  0  0  0  0  0  0  0  0  0  0
   59.7260   30.3520   45.5920 N   0  0  0  0  0  0  0  0  0  0  0  0
   59.0500   31.3790   46.0830 N   0  0  0  0  0  0  0  0  0  0  0  0
   59.6070   32.3090   47.0720 C   0  0  1  0  0  0  0  0  0  0  0  0
   58.7829   32.8360   47.5752 H   0  0  0  0  0  0  0  0  0  0  0  0
   60.3750   31.5430   48.1850 C   0  0  0  0  0  0  0  0  0  0  0  0
   60.0776   31.9512   49.1622 H   0  0  0  0  0  0  0  0  0  0  0  0
   60.1172   30.4776   48.0929 H   0  0  0  0  0  0  0  0  0  0  0  0
   61.8970   31.6640   48.0460 C   0  0  0  0  0  0  0  0  0  0  0  0
   62.3741   31.1281   48.8797 H   0  0  0  0  0  0  0  0  0  0  0  0
   62.1869   31.2293   47.0780 H   0  0  0  0  0  0  0  0  0  0  0  0
   62.3600   33.1330   48.0680 C   0  0  0  0  0  0  0  0  0  0  0  0
   62.4876   33.4412   49.1162 H   0  0  0  0  0  0  0  0  0  0  0  0
   63.2998   33.1822   47.4985 H   0  0  0  0  0  0  0  0  0  0  0  0
   61.3710   34.1060   47.3910 C   0  0  0  0  0  0  0  0  0  0  0  0
   60.7378   34.5646   48.1648 H   0  0  0  0  0  0  0  0  0  0  0  0
   61.9562   34.8671   46.8541 H   0  0  0  0  0  0  0  0  0  0  0  0
   60.4700   33.3920   46.3710 C   0  0  2  0  0  0  0  0  0  0  0  0
   61.1086   32.8965   45.6249 H   0  0  0  0  0  0  0  0  0  0  0  0
   59.6100   34.3680   45.6820 C   0  0  0  0  0  0  0  0  0  0  0  0
   58.9350   35.1370   45.1400 N   0  0  0  0  0  0  0  0  0  0  0  0
   57.7970   31.3880   45.5790 C   0  0  0  0  0  0  0  0  0  0  0  0
   57.0116   32.1182   45.8239 H   0  0  0  0  0  0  0  0  0  0  0  0
   57.6670   30.3260   44.7040 C   0  0  0  0  0  0  0  0  0  0  0  0
   56.4450   29.9580   43.9600 C   0  0  0  0  0  0  0  0  0  0  0  0
   55.3190   30.1770   44.4830 O   0  0  0  0  0  0  0  0  0  0  0  0
   56.5020   29.3780   42.6560 N   0  0  0  0  0  0  0  0  0  0  0  0
   55.6220   29.0750   42.1820 H   0  0  0  0  0  0  0  0  0  0  0  0
   57.3920   29.3220   42.1150 H   0  0  0  0  0  0  0  0  0  0  0  0
  1  2  1  0
  2  3  2  0
  3  4  1  0
  3  5  1  0
  5  6  1  0
  6  7  1  0
  7  8  1  0
  7  9  1  0
  7 10  1  0
  6 11  1  0
 11 12  1  0
 11 13  1  0
 11 14  1  0
  6 15  1  0
 15 16  1  0
 15 17  1  0
 15 18  1  0
  5 19  2  0
 19 20  1  0
 19 21  1  0
 21 22  1  0
 21 23  2  0
 23 24  1  0
 24 25  2  0
 25 26  1  0
 26 27  1  0
 27 28  1  0
 28 29  1  1
 28 30  1  0
 30 31  1  0
 30 32  1  0
 30 33  1  0
 33 34  1  0
 33 35  1  0
 33 36  1  0
 36 37  1  0
 36 38  1  0
 36 39  1  0
 39 40  1  0
 39 41  1  0
 39 42  1  0
 42 43  1  6
 42 44  1  0
 44 45  3  0
 27 46  1  0
 46 47  1  0
 46 48  2  0
 48 49  1  0
 49 50  2  0
 49 51  1  0
 51 52  1  0
 51 53  1  0
 23  2  1  0
 48 25  1  0
 42 28  1  0
M  CHG  1  26  -1
M  END
>  <UniqueID>  (4) 
4

>  <SMILES>  (4) 
CC(C)(C)c1ccc(/N=c2\[n-]n([C@H]3CCCC[C@@H]3C#N)cc2C(N)=O)cc1

>  <Energy>  (4) 
93.08944589071278

>  <Genealogy>  (4) 
CC(C)(C)c1ccc(N=c2[n-]n(C3CCCCC3C#N)cc2C(N)=O)cc1 (protonated)
CC(C)(C)c1ccc(N=c2[n-]n([C@H]3CCCC[C@@H]3C#N)cc2C(N)=O)cc1 (chirality)
CC(C)(C)c1ccc(/N=c2\[n-]n([C@H]3CCCC[C@@H]3C#N)cc2C(N)=O)cc1 (cis-trans isomerization)
CC(C)(C)c1ccc(/N=c2\[n-]n([C@H]3CCCC[C@@H]3C#N)cc2C(N)=O)cc1 (3D coordinates assigned)
CC(C)(C)c1ccc(/N=c2\[n-]n([C@H]3CCCC[C@@H]3C#N)cc2C(N)=O)cc1 (nonaromatic ring conformer: 93.08944589071278 kcal/mol)

>  <smiles>  (4) 
CC(C)(C)c1ccc(N=c2[nH]n(C3CCCCC3C#N)cc2C(N)=O)cc1

>  <score_type>  (4) 
oracle

>  <origin>  (4) 
adg

>  <m_score__min__energy>  (4) 
-9.7300000000000004

>  <m_primary>  (4) 
energy

$$$$
4:0
     RDKit          3D

 54 57  0  0  0  0  0  0  0  0999 V2000
   66.3290   31.7920   50.7480 C   0  0  0  0  0  0  0  0  0  0  0  0
   65.8850   32.5840   49.6500 O   0  0  0  0  0  0  0  0  0  0  0  0
   64.5890   33.1040   49.5230 C   0  0  0  0  0  0  0  0  0  0  0  0
   63.9030   33.6980   50.6010 C   0  0  0  0  0  0  0  0  0  0  0  0
   62.6130   34.2010   50.4220 C   0  0  0  0  0  0  0  0  0  0  0  0
   61.9930   34.1160   49.1730 C   0  0  0  0  0  0  0  0  0  0  0  0
   62.6620   33.5280   48.0900 C   0  0  0  0  0  0  0  0  0  0  0  0
   61.9780   33.4010   46.7500 C   0  0  0  0  0  0  0  0  0  0  0  0
   60.5230   33.2280   46.8920 N   0  0  0  0  0  0  0  0  0  0  0  0
   60.1730   31.8470   47.1320 C   0  0  0  0  0  0  0  0  0  0  0  0
   61.1390   30.8350   47.0050 C   0  0  0  0  0  0  0  0  0  0  0  0
   60.8140   29.5060   47.2900 C   0  0  0  0  0  0  0  0  0  0  0  0
   59.5130   29.1620   47.6790 C   0  0  0  0  0  0  0  0  0  0  0  0
   59.2320   27.8010   48.0330 N   0  0  0  0  0  0  0  0  0  0  0  0
   58.9260   26.7410   47.1170 C   0  0  0  0  0  0  0  0  0  0  0  0
   59.8710   26.0740   46.6230 O   0  0  0  0  0  0  0  0  0  0  0  0
   57.5370   26.4400   46.7100 C   0  0  0  0  0  0  0  0  0  0  0  0
   56.6760   27.1890   45.9170 C   0  0  0  0  0  0  0  0  0  0  0  0
   56.9710   28.4320   45.1710 C   0  0  0  0  0  0  0  0  0  0  0  0
   58.2850   28.7640   44.7960 C   0  0  0  0  0  0  0  0  0  0  0  0
   58.5440   29.9580   44.1160 C   0  0  0  0  0  0  0  0  0  0  0  0
   57.4940   30.8210   43.7880 C   0  0  0  0  0  0  0  0  0  0  0  0
   57.8210   32.3230   42.9440 Cl  0  0  0  0  0  0  0  0  0  0  0  0
   56.1810   30.4790   44.1240 C   0  0  0  0  0  0  0  0  0  0  0  0
   55.9190   29.2850   44.8040 C   0  0  0  0  0  0  0  0  0  0  0  0
   55.4700   26.5870   45.8860 N   0  0  0  0  0  0  0  0  0  0  0  0
   55.5260   25.4810   46.6130 N   0  0  0  0  0  0  0  0  0  0  0  0
   56.7680   25.3660   47.1180 C   0  0  0  0  0  0  0  0  0  0  0  0
   57.1940   24.2560   48.0240 C   0  0  0  0  0  0  0  0  0  0  0  0
   58.5370   30.1680   47.7830 C   0  0  0  0  0  0  0  0  0  0  0  0
   58.8640   31.4980   47.5080 C   0  0  0  0  0  0  0  0  0  0  0  0
   63.9600   33.0270   48.2730 C   0  0  0  0  0  0  0  0  0  0  0  0
   66.0524   32.2853   51.6915 H   0  0  0  0  0  0  0  0  0  0  0  0
   65.8552   30.8004   50.7001 H   0  0  0  0  0  0  0  0  0  0  0  0
   67.4221   31.6788   50.7001 H   0  0  0  0  0  0  0  0  0  0  0  0
   64.3856   33.7656   51.5872 H   0  0  0  0  0  0  0  0  0  0  0  0
   62.0833   34.6655   51.2668 H   0  0  0  0  0  0  0  0  0  0  0  0
   60.9756   34.5121   49.0385 H   0  0  0  0  0  0  0  0  0  0  0  0
   62.1726   34.3110   46.1635 H   0  0  0  0  0  0  0  0  0  0  0  0
   62.3800   32.5106   46.2444 H   0  0  0  0  0  0  0  0  0  0  0  0
   60.0300   33.5860   46.0410 H   0  0  0  0  0  0  0  0  0  0  0  0
   60.1970   33.8100   47.6980 H   0  0  0  0  0  0  0  0  0  0  0  0
   62.1581   31.0903   46.6790 H   0  0  0  0  0  0  0  0  0  0  0  0
   61.5846   28.7253   47.2084 H   0  0  0  0  0  0  0  0  0  0  0  0
   59.1127   28.0814   45.0387 H   0  0  0  0  0  0  0  0  0  0  0  0
   59.5760   30.2189   43.8385 H   0  0  0  0  0  0  0  0  0  0  0  0
   55.3524   31.1499   43.8532 H   0  0  0  0  0  0  0  0  0  0  0  0
   54.8825   29.0132   45.0524 H   0  0  0  0  0  0  0  0  0  0  0  0
   57.0733   24.5706   49.0711 H   0  0  0  0  0  0  0  0  0  0  0  0
   56.5726   23.3685   47.8338 H   0  0  0  0  0  0  0  0  0  0  0  0
   58.2496   24.0121   47.8338 H   0  0  0  0  0  0  0  0  0  0  0  0
   57.5112   29.9069   48.0822 H   0  0  0  0  0  0  0  0  0  0  0  0
   58.0920   32.2776   47.5862 H   0  0  0  0  0  0  0  0  0  0  0  0
   64.4901   32.5684   47.4252 H   0  0  0  0  0  0  0  0  0  0  0  0
  1  2  1  0
  2  3  1  0
  3  4  2  0
  4  5  1  0
  5  6  2  0
  6  7  1  0
  7  8  1  0
  8  9  1  0
  9 10  1  0
 10 11  2  0
 11 12  1  0
 12 13  2  0
 13 14  1  0
 14 15  1  0
 15 16  2  0
 15 17  1  0
 17 18  1  0
 18 19  1  0
 19 20  2  0
 20 21  1  0
 21 22  2  0
 22 23  1  0
 22 24  1  0
 24 25  2  0
 18 26  2  0
 26 27  1  0
 27 28  1  0
 28 29  1  0
 13 30  1  0
 30 31  2  0
  7 32  2  0
 32  3  1  0
 31 10  1  0
 28 17  2  0
 25 19  1  0
  1 33  1  0
  1 34  1  0
  1 35  1  0
  4 36  1  0
  5 37  1  0
  6 38  1  0
  8 39  1  0
  8 40  1  0
  9 41  1  0
  9 42  1  0
 11 43  1  0
 12 44  1  0
 20 45  1  0
 21 46  1  0
 24 47  1  0
 25 48  1  0
 29 49  1  0
 29 50  1  0
 29 51  1  0
 30 52  1  0
 31 53  1  0
 32 54  1  0
M  CHG  3   9   1  14  -1  27  -1
M  END
>  <UniqueID>  (5) 
5

>  <SMILES>  (5) 
COc1cccc(C[NH2+]c2ccc([N-]C(=O)c3c(-c4ccc(Cl)cc4)n[n-]c3C)cc2)c1

>  <Energy>  (5) 
93.4856668662417

>  <Genealogy>  (5) 
COc1cccc(C[NH2+]c2ccc([N-]C(=O)c3c(-c4ccc(Cl)cc4)n[n-]c3C)cc2)c1 (protonated)
COc1cccc(C[NH2+]c2ccc([N-]C(=O)c3c(-c4ccc(Cl)cc4)n[n-]c3C)cc2)c1 (3D coordinates assigned)
COc1cccc(C[NH2+]c2ccc([N-]C(=O)c3c(-c4ccc(Cl)cc4)n[n-]c3C)cc2)c1 (optimized conformer: 93.4856668662417 kcal/mol)

>  <smiles>  (5) 
COc1cccc(CNc2ccc(NC(=O)c3c(-c4ccc(Cl)cc4)n[nH]c3C)cc2)c1

>  <score_type>  (5) 
oracle

>  <origin>  (5) 
adg

>  <m_score__min__energy>  (5) 
-10.869999999999999

>  <m_primary>  (5) 
energy

$$$$
5:0
     RDKit          3D

 49 51  0  0  1  0  0  0  0  0999 V2000
   63.3810   33.7990   46.3960 C   0  0  0  0  0  0  0  0  0  0  0  0
   62.7310   32.7780   47.3260 C   0  0  0  0  0  0  0  0  0  0  0  0
   61.3260   32.9060   47.2800 N   0  0  0  0  0  0  0  0  0  0  0  0
   60.6640   31.7450   47.8620 C   0  0  0  0  0  0  0  0  0  0  0  0
   60.4590   30.6160   46.9040 C   0  0  0  0  0  0  0  0  0  0  0  0
   60.7670   34.1310   47.6610 C   0  0  0  0  0  0  0  0  0  0  0  0
   59.9690   34.9470   46.7290 C   0  0  0  0  0  0  0  0  0  0  0  0
   58.8770   34.3660   46.0200 N   0  0  0  0  0  0  0  0  0  0  0  0
   59.0380   33.2890   45.1900 C   0  0  0  0  0  0  0  0  0  0  0  0
   57.8260   32.9140   44.6680 C   0  0  0  0  0  0  0  0  0  0  0  0
   57.5600   31.8320   43.7550 N   0  0  0  0  0  0  0  0  0  0  0  0
   57.0630   30.7270   44.2270 C   0  0  0  0  0  0  0  0  0  0  0  0
   57.7670   29.5850   44.5550 C   0  0  0  0  0  0  0  0  0  0  0  0
   56.8840   28.6260   45.0220 C   0  0  0  0  0  0  0  0  0  0  0  0
   57.2750   27.2950   45.4610 C   0  0  0  0  0  0  0  0  0  0  0  0
   58.6140   26.9150   45.4280 C   0  0  0  0  0  0  0  0  0  0  0  0
   59.0460   25.6710   45.8280 C   0  0  0  0  0  0  0  0  0  0  0  0
   58.1560   24.7270   46.2900 C   0  0  0  0  0  0  0  0  0  0  0  0
   56.8220   25.0790   46.3320 C   0  0  0  0  0  0  0  0  0  0  0  0
   56.3910   26.3460   45.9220 C   0  0  0  0  0  0  0  0  0  0  0  0
   55.0390   26.6350   45.9910 O   0  0  0  0  0  0  0  0  0  0  0  0
   55.6790   29.2090   44.9660 N   0  0  0  0  0  0  0  0  0  0  0  0
   55.7760   30.4400   44.5010 N   0  0  0  0  0  0  0  0  0  0  0  0
   56.9070   33.7940   45.2010 C   0  0  0  0  0  0  0  0  0  0  0  0
   57.5850   34.6270   45.9910 N   0  0  0  0  0  0  0  0  0  0  0  0
   63.8765   34.5773   46.9950 H   0  0  0  0  0  0  0  0  0  0  0  0
   64.1251   33.2954   45.7614 H   0  0  0  0  0  0  0  0  0  0  0  0
   62.6098   34.2601   45.7614 H   0  0  0  0  0  0  0  0  0  0  0  0
   63.0146   31.7638   47.0081 H   0  0  0  0  0  0  0  0  0  0  0  0
   63.0756   32.9575   48.3551 H   0  0  0  0  0  0  0  0  0  0  0  0
   61.2778   31.3808   48.6990 H   0  0  0  0  0  0  0  0  0  0  0  0
   59.6647   32.0761   48.1809 H   0  0  0  0  0  0  0  0  0  0  0  0
   60.2900   29.6851   47.4651 H   0  0  0  0  0  0  0  0  0  0  0  0
   59.5844   30.8265   46.2710 H   0  0  0  0  0  0  0  0  0  0  0  0
   61.3518   30.5056   46.2710 H   0  0  0  0  0  0  0  0  0  0  0  0
   60.1145   33.9180   48.5206 H   0  0  0  0  0  0  0  0  0  0  0  0
   61.6595   34.7564   47.8107 H   0  0  0  0  0  0  0  0  0  0  0  0
   59.5578   35.7834   47.3132 H   0  0  0  0  0  0  0  0  0  0  0  0
   60.6861   35.1878   45.9303 H   0  0  0  0  0  0  0  0  0  0  0  0
   59.9977   32.7970   44.9736 H   0  0  0  0  0  0  0  0  0  0  0  0
   58.8555   29.4576   44.4604 H   0  0  0  0  0  0  0  0  0  0  0  0
   59.3583   27.6399   45.0668 H   0  0  0  0  0  0  0  0  0  0  0  0
   60.1175   25.4272   45.7780 H   0  0  0  0  0  0  0  0  0  0  0  0
   58.4949   23.7316   46.6129 H   0  0  0  0  0  0  0  0  0  0  0  0
   56.0830   24.3494   46.6948 H   0  0  0  0  0  0  0  0  0  0  0  0
   54.4060   25.9410   46.3640 H   0  0  0  0  0  0  0  0  0  0  0  0
   54.7680   28.7880   45.2400 H   0  0  0  0  0  0  0  0  0  0  0  0
   54.9740   31.1140   44.3580 H   0  0  0  0  0  0  0  0  0  0  0  0
   55.8236   33.8061   45.0109 H   0  0  0  0  0  0  0  0  0  0  0  0
  1  2  1  0
  2  3  1  0
  3  4  1  0
  4  5  1  0
  3  6  1  0
  6  7  1  0
  7  8  1  0
  8  9  1  0
  9 10  2  0
 10 11  1  0
 11 12  2  0
 12 13  1  0
 13 14  2  0
 14 15  1  0
 15 16  2  0
 16 17  1  0
 17 18  2  0
 18 19  1  0
 19 20  2  0
 20 21  1  0
 14 22  1  0
 22 23  1  0
 10 24  1  0
 24 25  2  0
 25  8  1  0
 23 12  1  0
 20 15  1  0
  1 26  1  0
  1 27  1  0
  1 28  1  0
  2 29  1  0
  2 30  1  0
  4 31  1  0
  4 32  1  0
  5 33  1  0
  5 34  1  0
  5 35  1  0
  6 36  1  0
  6 37  1  0
  7 38  1  0
  7 39  1  0
  9 40  1  0
 13 41  1  0
 16 42  1  0
 17 43  1  0
 18 44  1  0
 19 45  1  0
 21 46  1  0
 22 47  1  0
 23 48  1  0
 24 49  1  0
M  END
>  <smiles>  (6) 
CCN(CC)CCn1cc(N=c2cc(-c3ccccc3O)[nH][nH]2)cn1

>  <score_type>  (6) 
oracle

>  <origin>  (6) 
adg

>  <m_score__min__energy>  (6) 
-9.5899999999999999

>  <m_primary>  (6) 
energy

$$$$
6:0
     RDKit          3D

 30 32  0  0  0  0  0  0  0  0999 V2000
   61.5040   28.0530   44.9660 F   0  0  0  0  0  0  0  0  0  0  0  0
   60.3700   27.6580   45.6630 C   0  0  0  0  0  0  0  0  0  0  0  0
   60.7200   27.1340   46.8920 F   0  0  0  0  0  0  0  0  0  0  0  0
   59.4340   28.8010   45.8000 C   0  0  0  0  0  0  0  0  0  0  0  0
   59.4880   29.7790   46.7300 N   0  0  0  0  0  0  0  0  0  0  0  0
   58.4940   30.6360   46.5530 N   0  0  0  0  0  0  0  0  0  0  0  0
   58.3220   31.7950   47.4300 C   0  0  0  0  0  0  0  0  0  0  0  0
   58.6800   33.0470   46.6740 C   0  0  0  0  0  0  0  0  0  0  0  0
   57.8950   33.4280   45.5840 C   0  0  0  0  0  0  0  0  0  0  0  0
   58.1750   34.5670   44.8520 C   0  0  0  0  0  0  0  0  0  0  0  0
   59.2560   35.3200   45.2300 C   0  0  0  0  0  0  0  0  0  0  0  0
   60.0370   34.9440   46.3120 C   0  0  0  0  0  0  0  0  0  0  0  0
   59.7740   33.8110   47.0540 C   0  0  0  0  0  0  0  0  0  0  0  0
   57.7530   30.2560   45.5060 C   0  0  0  0  0  0  0  0  0  0  0  0
   56.6550   30.7880   44.9390 N   0  0  0  0  0  0  0  0  0  0  0  0
   56.1050   30.1720   43.8620 C   0  0  0  0  0  0  0  0  0  0  0  0
   56.6700   29.0450   43.3870 N   0  0  0  0  0  0  0  0  0  0  0  0
   57.7660   28.4870   43.9310 C   0  0  0  0  0  0  0  0  0  0  0  0
   58.4330   27.1090   43.3270 S   0  0  0  0  0  0  0  0  0  0  0  0
   58.3360   29.1000   45.0230 C   0  0  0  0  0  0  0  0  0  0  0  0
   59.8548   26.8659   45.0999 H   0  0  0  0  0  0  0  0  0  0  0  0
   57.2749   31.8527   47.7620 H   0  0  0  0  0  0  0  0  0  0  0  0
   58.9771   31.6940   48.3079 H   0  0  0  0  0  0  0  0  0  0  0  0
   57.0326   32.8067   45.3007 H   0  0  0  0  0  0  0  0  0  0  0  0
   57.5508   34.8592   43.9946 H   0  0  0  0  0  0  0  0  0  0  0  0
   59.5066   36.2324   44.6689 H   0  0  0  0  0  0  0  0  0  0  0  0
   60.8971   35.5714   46.5888 H   0  0  0  0  0  0  0  0  0  0  0  0
   60.4041   33.5259   47.9094 H   0  0  0  0  0  0  0  0  0  0  0  0
   55.2072   30.5886   43.3819 H   0  0  0  0  0  0  0  0  0  0  0  0
   56.2420   28.5720   42.5560 H   0  0  0  0  0  0  0  0  0  0  0  0
  1  2  1  0
  2  3  1  0
  2  4  1  0
  4  5  2  0
  5  6  1  0
  6  7  1  0
  7  8  1  0
  8  9  2  0
  9 10  1  0
 10 11  2  0
 11 12  1  0
 12 13  2  0
  6 14  1  0
 14 15  1  0
 15 16  2  0
 16 17  1  0
 17 18  1  0
 18 19  2  0
 18 20  1  0
 20  4  1  0
 13  8  1  0
 20 14  2  0
  2 21  1  0
  7 22  1  0
  7 23  1  0
  9 24  1  0
 10 25  1  0
 11 26  1  0
 12 27  1  0
 13 28  1  0
 16 29  1  0
 17 30  1  0
M  END
>  <smiles>  (7) 
FC(F)c1nn(Cc2ccccc2)c2nc[nH]c(=S)c12

>  <score_type>  (7) 
oracle

>  <origin>  (7) 
adg

>  <m_score__min__energy>  (7) 
-6.5800000000000001

>  <m_primary>  (7) 
energy

$$$$
7:0
     RDKit          3D

 41 43  0  0  0  0  0  0  0  0999 V2000
   60.9536   26.5874   45.4469 H   0  0  0  0  0  0  0  0  0  0  0  0
   60.3720   27.4920   45.6780 C   0  0  0  0  0  0  0  0  0  0  0  0
   59.4230   27.4140   46.6280 C   0  0  0  0  0  0  0  0  0  0  0  0
   58.0020   27.1980   46.2970 C   0  0  0  0  0  0  0  0  0  0  0  0
   57.3940   26.0480   46.4350 O   0  0  0  0  0  0  0  0  0  0  0  0
   56.1600   26.2240   46.0250 C   0  0  0  0  0  0  0  0  0  0  0  0
   55.2800   25.2680   46.0130 N   0  0  0  0  0  0  0  0  0  0  0  0
   55.5690   23.8780   46.3650 C   0  0  0  0  0  0  0  0  0  0  0  0
   56.3212   23.8579   47.1674 H   0  0  0  0  0  0  0  0  0  0  0  0
   54.6380   23.3982   46.7013 H   0  0  0  0  0  0  0  0  0  0  0  0
   56.0980   23.1240   45.1730 C   0  0  0  0  0  0  0  0  0  0  0  0
   55.3830   23.1110   43.9660 C   0  0  0  0  0  0  0  0  0  0  0  0
   54.4386   23.6688   43.8819 H   0  0  0  0  0  0  0  0  0  0  0  0
   55.8540   22.4110   42.9000 N   0  0  0  0  0  0  0  0  0  0  0  0
   57.0180   21.7100   42.9630 C   0  0  0  0  0  0  0  0  0  0  0  0
   57.3716   21.1520   42.0835 H   0  0  0  0  0  0  0  0  0  0  0  0
   57.7640   21.6980   44.1420 C   0  0  0  0  0  0  0  0  0  0  0  0
   58.7061   21.1329   44.1980 H   0  0  0  0  0  0  0  0  0  0  0  0
   57.3020   22.4110   45.2500 C   0  0  0  0  0  0  0  0  0  0  0  0
   57.8834   22.4131   46.1838 H   0  0  0  0  0  0  0  0  0  0  0  0
   55.9050   27.4870   45.6180 N   0  0  0  0  0  0  0  0  0  0  0  0
   57.0850   28.1120   45.7960 C   0  0  0  0  0  0  0  0  0  0  0  0
   57.2890   29.5570   45.5460 C   0  0  0  0  0  0  0  0  0  0  0  0
   58.1590   30.3880   46.2270 C   0  0  0  0  0  0  0  0  0  0  0  0
   58.8487   30.1176   47.0401 H   0  0  0  0  0  0  0  0  0  0  0  0
   57.9700   31.6330   45.6600 C   0  0  0  0  0  0  0  0  0  0  0  0
   58.5020   32.5500   45.9533 H   0  0  0  0  0  0  0  0  0  0  0  0
   57.0360   31.5540   44.6940 N   0  0  0  0  0  0  0  0  0  0  0  0
   56.6300   30.2960   44.6270 N   0  0  0  0  0  0  0  0  0  0  0  0
   55.6110   29.8360   43.6880 C   0  0  0  0  0  0  0  0  0  0  0  0
   54.7472   29.4461   44.2463 H   0  0  0  0  0  0  0  0  0  0  0  0
   55.2895   30.6763   43.0551 H   0  0  0  0  0  0  0  0  0  0  0  0
   56.0286   29.0391   43.0551 H   0  0  0  0  0  0  0  0  0  0  0  0
   59.8260   27.3840   48.0730 C   0  0  0  0  0  0  0  0  0  0  0  0
   58.9285   27.4508   48.7054 H   0  0  0  0  0  0  0  0  0  0  0  0
   60.3558   26.4439   48.2865 H   0  0  0  0  0  0  0  0  0  0  0  0
   60.4892   28.2353   48.2865 H   0  0  0  0  0  0  0  0  0  0  0  0
   60.6790   28.7480   44.9170 C   0  0  0  0  0  0  0  0  0  0  0  0
   60.8789   29.5660   45.6248 H   0  0  0  0  0  0  0  0  0  0  0  0
   61.5640   28.5862   44.2841 H   0  0  0  0  0  0  0  0  0  0  0  0
   59.8191   29.0127   44.2841 H   0  0  0  0  0  0  0  0  0  0  0  0
  1  2  1  0
  2  3  2  0
  3  4  1  0
  4  5  1  0
  5  6  1  0
  6  7  2  0
  7  8  1  0
  8  9  1  0
  8 10  1  0
  8 11  1  0
 11 12  2  0
 12 13  1  0
 12 14  1  0
 14 15  2  0
 15 16  1  0
 15 17  1  0
 17 18  1  0
 17 19  2  0
 19 20  1  0
  6 21  1  0
 21 22  1  0
 22 23  1  0
 23 24  2  0
 24 25  1  0
 24 26  1  0
 26 27  1  0
 26 28  2  0
 28 29  1  0
 29 30  1  0
 30 31  1  0
 30 32  1  0
 30 33  1  0
  3 34  1  0
 34 35  1  0
 34 36  1  0
 34 37  1  0
  2 38  1  0
 38 39  1  0
 38 40  1  0
 38 41  1  0
 22  4  2  0
 29 23  1  0
 19 11  1  0
M  CHG  1  21  -1
M  END
>  <UniqueID>  (8) 
6

>  <SMILES>  (8) 
C/C=C(/C)c1o/c(=N/Cc2cccnc2)[n-]c1-c1ccnn1C

>  <Energy>  (8) 
105.44642678589872

>  <Genealogy>  (8) 
CC=C(C)c1oc(=NCc2cccnc2)[n-]c1-c1ccnn1C (protonated)
C/C=C(/C)c1o/c(=N/Cc2cccnc2)[n-]c1-c1ccnn1C (cis-trans isomerization)
C/C=C(/C)c1o/c(=N/Cc2cccnc2)[n-]c1-c1ccnn1C (3D coordinates assigned)
C/C=C(/C)c1o/c(=N/Cc2cccnc2)[n-]c1-c1ccnn1C (optimized conformer: 105.44642678589872 kcal/mol)

>  <smiles>  (8) 
CC=C(C)c1oc(=NCc2cccnc2)[nH]c1-c1ccnn1C

>  <score_type>  (8) 
oracle

>  <origin>  (8) 
adg

>  <m_score__min__energy>  (8) 
-9.1300000000000008

>  <m_primary>  (8) 
energy

$$$$
8:0
     RDKit          3D

 41 43  0  0  0  0  0  0  0  0999 V2000
   55.2420   24.2590   45.5990 C   0  0  0  0  0  0  0  0  0  0  0  0
   55.7370   24.9430   46.7430 O   0  0  0  0  0  0  0  0  0  0  0  0
   57.0800   25.3060   46.8810 C   0  0  0  0  0  0  0  0  0  0  0  0
   57.9560   24.4340   47.1390 O   0  0  0  0  0  0  0  0  0  0  0  0
   57.4780   26.7460   46.7110 C   0  0  1  0  0  0  0  0  0  0  0  0
   59.0030   26.9460   46.9450 C   0  0  0  0  0  0  0  0  0  0  0  0
   59.7530   27.3740   45.6770 C   0  0  0  0  0  0  0  0  0  0  0  0
   59.1250   28.6410   45.0800 C   0  0  0  0  0  0  0  0  0  0  0  0
   57.6560   28.5500   45.0370 N   0  0  0  0  0  0  0  0  0  0  0  0
   56.8680   29.7510   44.9250 C   0  0  0  0  0  0  0  0  0  0  0  0
   55.6130   29.6650   44.8410 O   0  0  0  0  0  0  0  0  0  0  0  0
   57.4950   31.0910   44.9320 C   0  0  0  0  0  0  0  0  0  0  0  0
   57.6390   31.8110   43.7360 C   0  0  0  0  0  0  0  0  0  0  0  0
   58.2200   33.0790   43.7540 C   0  0  0  0  0  0  0  0  0  0  0  0
   58.6460   33.6310   44.9660 C   0  0  0  0  0  0  0  0  0  0  0  0
   59.2350   34.9030   45.0140 C   0  0  0  0  0  0  0  0  0  0  0  0
   59.6490   35.4360   46.2390 C   0  0  0  0  0  0  0  0  0  0  0  0
   59.4750   34.7070   47.4180 C   0  0  0  0  0  0  0  0  0  0  0  0
   58.8880   33.4380   47.3800 C   0  0  0  0  0  0  0  0  0  0  0  0
   58.4700   32.8900   46.1580 C   0  0  0  0  0  0  0  0  0  0  0  0
   57.8970   31.6510   46.1110 N   0  0  0  0  0  0  0  0  0  0  0  0
   57.0060   27.2690   45.3390 C   0  0  0  0  0  0  0  0  0  0  0  0
   54.6251   23.4066   45.9198 H   0  0  0  0  0  0  0  0  0  0  0  0
   54.6313   24.9472   44.9961 H   0  0  0  0  0  0  0  0  0  0  0  0
   56.0866   23.8941   44.9961 H   0  0  0  0  0  0  0  0  0  0  0  0
   56.9743   27.3487   47.4811 H   0  0  0  0  0  0  0  0  0  0  0  0
   59.1411   27.7217   47.7126 H   0  0  0  0  0  0  0  0  0  0  0  0
   59.4172   25.9772   47.2611 H   0  0  0  0  0  0  0  0  0  0  0  0
   60.8043   27.5761   45.9296 H   0  0  0  0  0  0  0  0  0  0  0  0
   59.6889   26.5634   44.9362 H   0  0  0  0  0  0  0  0  0  0  0  0
   59.4111   29.5057   45.6968 H   0  0  0  0  0  0  0  0  0  0  0  0
   59.4927   28.7542   44.0495 H   0  0  0  0  0  0  0  0  0  0  0  0
   57.2943   31.3762   42.7862 H   0  0  0  0  0  0  0  0  0  0  0  0
   58.3427   33.6430   42.8176 H   0  0  0  0  0  0  0  0  0  0  0  0
   59.3713   35.4813   44.0883 H   0  0  0  0  0  0  0  0  0  0  0  0
   60.1132   36.4326   46.2743 H   0  0  0  0  0  0  0  0  0  0  0  0
   59.8005   35.1322   48.3789 H   0  0  0  0  0  0  0  0  0  0  0  0
   58.7537   32.8679   48.3111 H   0  0  0  0  0  0  0  0  0  0  0  0
   57.7760   31.1110   46.9980 H   0  0  0  0  0  0  0  0  0  0  0  0
   55.9153   27.4102   45.3590 H   0  0  0  0  0  0  0  0  0  0  0  0
   57.2743   26.5372   44.5628 H   0  0  0  0  0  0  0  0  0  0  0  0
  1  2  1  0
  2  3  1  0
  3  4  2  0
  3  5  1  0
  5  6  1  0
  6  7  1  0
  7  8  1  0
  8  9  1  0
  9 10  1  0
 10 11  2  0
 10 12  1  0
 12 13  2  0
 13 14  1  0
 14 15  2  0
 15 16  1  0
 16 17  2  0
 17 18  1  0
 18 19  2  0
 19 20  1  0
 20 21  2  0
  9 22  1  0
 22  5  1  0
 21 12  1  0
 20 15  1  0
  1 23  1  0
  1 24  1  0
  1 25  1  0
  5 26  1  1
  6 27  1  0
  6 28  1  0
  7 29  1  0
  7 30  1  0
  8 31  1  0
  8 32  1  0
 13 33  1  0
 14 34  1  0
 16 35  1  0
 17 36  1  0
 18 37  1  0
 19 38  1  0
 21 39  1  0
 22 40  1  0
 22 41  1  0
M  CHG  1  21   1
M  END
>  <UniqueID>  (9) 
7

>  <SMILES>  (9) 
COC(=O)[C@H]1CCCN(C(=O)c2ccc3ccccc3[nH+]2)C1

>  <Energy>  (9) 
50.495334120750336

>  <Genealogy>  (9) 
COC(=O)C1CCCN(C(=O)c2ccc3ccccc3[nH+]2)C1 (protonated)
COC(=O)[C@H]1CCCN(C(=O)c2ccc3ccccc3[nH+]2)C1 (chirality)
COC(=O)[C@H]1CCCN(C(=O)c2ccc3ccccc3[nH+]2)C1 (3D coordinates assigned)
COC(=O)[C@H]1CCCN(C(=O)c2ccc3ccccc3[nH+]2)C1 (nonaromatic ring conformer: 50.495334120750336 kcal/mol)

>  <smiles>  (9) 
COC(=O)C1CCCN(C(=O)c2ccc3ccccc3n2)C1

>  <score_type>  (9) 
oracle

>  <origin>  (9) 
adg

>  <m_score__min__energy>  (9) 
-6.4100000000000001

>  <m_primary>  (9) 
energy

$$$$
9:0
     RDKit          3D

 30 30  0  0  0  0  0  0  0  0999 V2000
   57.8000   33.7000   46.8630 C   0  0  0  0  0  0  0  0  0  0  0  0
   58.2270   34.3820   45.6300 N   0  0  0  0  0  0  0  0  0  0  0  0
   59.5760   34.9430   45.8250 C   0  0  0  0  0  0  0  0  0  0  0  0
   58.2020   33.4460   44.4850 C   0  0  0  0  0  0  0  0  0  0  0  0
   58.0180   32.0040   44.9740 C   0  0  0  0  0  0  0  0  0  0  0  0
   56.6200   31.5780   44.8670 N   0  0  0  0  0  0  0  0  0  0  0  0
   56.4700   29.9110   44.3830 S   0  0  0  0  0  0  0  0  0  0  0  0
   55.1530   29.3490   44.8430 O   0  0  0  0  0  0  0  0  0  0  0  0
   56.5300   29.8320   42.8830 O   0  0  0  0  0  0  0  0  0  0  0  0
   57.8010   28.9700   45.0460 C   0  0  0  0  0  0  0  0  0  0  0  0
   57.5600   28.0580   46.0850 C   0  0  0  0  0  0  0  0  0  0  0  0
   58.6090   27.2950   46.6060 C   0  0  0  0  0  0  0  0  0  0  0  0
   59.9020   27.4400   46.0970 C   0  0  0  0  0  0  0  0  0  0  0  0
   60.1480   28.3510   45.0660 C   0  0  0  0  0  0  0  0  0  0  0  0
   59.1020   29.1150   44.5400 C   0  0  0  0  0  0  0  0  0  0  0  0
   58.1546   34.2663   47.7368 H   0  0  0  0  0  0  0  0  0  0  0  0
   56.7020   33.6387   46.8867 H   0  0  0  0  0  0  0  0  0  0  0  0
   58.2245   32.6855   46.8867 H   0  0  0  0  0  0  0  0  0  0  0  0
   59.7849   35.0299   46.9015 H   0  0  0  0  0  0  0  0  0  0  0  0
   60.3198   34.2796   45.3595 H   0  0  0  0  0  0  0  0  0  0  0  0
   59.6301   35.9382   45.3595 H   0  0  0  0  0  0  0  0  0  0  0  0
   57.3681   33.7114   43.8186 H   0  0  0  0  0  0  0  0  0  0  0  0
   59.1573   33.5193   43.9446 H   0  0  0  0  0  0  0  0  0  0  0  0
   58.6435   31.3363   44.3633 H   0  0  0  0  0  0  0  0  0  0  0  0
   58.3146   31.9565   46.0322 H   0  0  0  0  0  0  0  0  0  0  0  0
   56.5438   27.9433   46.4902 H   0  0  0  0  0  0  0  0  0  0  0  0
   58.4161   26.5789   47.4184 H   0  0  0  0  0  0  0  0  0  0  0  0
   60.7258   26.8376   46.5074 H   0  0  0  0  0  0  0  0  0  0  0  0
   61.1667   28.4671   44.6676 H   0  0  0  0  0  0  0  0  0  0  0  0
   59.2990   29.8308   43.7283 H   0  0  0  0  0  0  0  0  0  0  0  0
  1  2  1  0
  2  3  1  0
  2  4  1  0
  4  5  1  0
  5  6  1  0
  6  7  1  0
  7  8  2  0
  7  9  2  0
  7 10  1  0
 10 11  2  0
 11 12  1  0
 12 13  2  0
 13 14  1  0
 14 15  2  0
 15 10  1  0
  1 16  1  0
  1 17  1  0
  1 18  1  0
  3 19  1  0
  3 20  1  0
  3 21  1  0
  4 22  1  0
  4 23  1  0
  5 24  1  0
  5 25  1  0
 11 26  1  0
 12 27  1  0
 13 28  1  0
 14 29  1  0
 15 30  1  0
M  CHG  1   6  -1
M  END
>  <UniqueID>  (10) 
8

>  <SMILES>  (10) 
CN(C)CC[N-]S(=O)(=O)c1ccccc1

>  <Energy>  (10) 
26.887317039276553

>  <Genealogy>  (10) 
CN(C)CC[N-]S(=O)(=O)c1ccccc1 (protonated)
CN(C)CC[N-]S(=O)(=O)c1ccccc1 (3D coordinates assigned)
CN(C)CC[N-]S(=O)(=O)c1ccccc1 (optimized conformer: 26.887317039276553 kcal/mol)

>  <smiles>  (10) 
CN(C)CCNS(=O)(=O)c1ccccc1

>  <score_type>  (10) 
oracle

>  <origin>  (10) 
adg

>  <m_score__min__energy>  (10) 
-7.3700000000000001

>  <m_primary>  (10) 
energy

$$$$
10:0
     RDKit          3D

 50 54  0  0  0  0  0  0  0  0999 V2000
   57.7950   30.3010   42.1980 H   0  0  0  0  0  0  0  0  0  0  0  0
   57.3720   30.5730   43.1110 N   0  0  0  0  0  0  0  0  0  0  0  0
   57.8980   30.3620   44.2830 C   0  0  0  0  0  0  0  0  0  0  0  0
   58.2040   31.4920   45.0960 C   0  0  0  0  0  0  0  0  0  0  0  0
   57.7830   33.1640   44.5790 S   0  0  0  0  0  0  0  0  0  0  0  0
   57.5720   33.8160   46.2770 C   0  0  0  0  0  0  0  0  0  0  0  0
   56.9640   34.7318   46.2358 H   0  0  0  0  0  0  0  0  0  0  0  0
   57.0757   33.0451   46.8848 H   0  0  0  0  0  0  0  0  0  0  0  0
   58.8940   34.1360   46.9080 C   0  0  0  0  0  0  0  0  0  0  0  0
   58.9200   34.8600   47.9390 O   0  0  0  0  0  0  0  0  0  0  0  0
   60.0990   33.5540   46.3840 N   0  0  0  0  0  0  0  0  0  0  0  0
   60.0070   32.9300   45.5500 H   0  0  0  0  0  0  0  0  0  0  0  0
   61.3500   33.5340   47.0950 C   0  0  0  0  0  0  0  0  0  0  0  0
   61.3390   33.4430   48.4970 C   0  0  0  0  0  0  0  0  0  0  0  0
   60.3807   33.3769   49.0331 H   0  0  0  0  0  0  0  0  0  0  0  0
   62.5390   33.4360   49.2150 C   0  0  0  0  0  0  0  0  0  0  0  0
   62.5218   33.3753   50.3132 H   0  0  0  0  0  0  0  0  0  0  0  0
   63.7600   33.5060   48.5390 C   0  0  0  0  0  0  0  0  0  0  0  0
   64.9230   33.5070   49.2370 F   0  0  0  0  0  0  0  0  0  0  0  0
   63.7830   33.5670   47.1430 C   0  0  0  0  0  0  0  0  0  0  0  0
   64.7447   33.6111   46.6109 H   0  0  0  0  0  0  0  0  0  0  0  0
   62.5840   33.5720   46.4210 C   0  0  0  0  0  0  0  0  0  0  0  0
   62.6068   33.6058   45.3218 H   0  0  0  0  0  0  0  0  0  0  0  0
   58.8100   31.3260   46.3040 N   0  0  0  0  0  0  0  0  0  0  0  0
   59.1010   30.0750   46.7100 C   0  0  0  0  0  0  0  0  0  0  0  0
   59.6710   29.6380   47.8750 C   0  0  0  0  0  0  0  0  0  0  0  0
   60.1460   30.3150   48.9940 C   0  0  0  0  0  0  0  0  0  0  0  0
   60.1167   31.4131   49.0520 H   0  0  0  0  0  0  0  0  0  0  0  0
   60.6650   29.5420   50.0480 C   0  0  0  0  0  0  0  0  0  0  0  0
   61.0496   30.0383   50.9512 H   0  0  0  0  0  0  0  0  0  0  0  0
   60.6960   28.1310   49.9550 C   0  0  0  0  0  0  0  0  0  0  0  0
   61.1053   27.5391   50.7869 H   0  0  0  0  0  0  0  0  0  0  0  0
   60.2080   27.4770   48.8080 C   0  0  0  0  0  0  0  0  0  0  0  0
   60.2283   26.3800   48.7289 H   0  0  0  0  0  0  0  0  0  0  0  0
   59.6980   28.2630   47.7750 C   0  0  0  0  0  0  0  0  0  0  0  0
   59.1720   27.8350   46.6040 N   0  0  0  0  0  0  0  0  0  0  0  0
   59.0890   26.8420   46.2940 H   0  0  0  0  0  0  0  0  0  0  0  0
   58.7960   28.9700   45.9610 C   0  0  0  0  0  0  0  0  0  0  0  0
   58.1700   29.0790   44.7450 N   0  0  0  0  0  0  0  0  0  0  0  0
   57.8210   27.8710   43.9710 C   0  0  0  0  0  0  0  0  0  0  0  0
   56.9750   28.0992   43.3059 H   0  0  0  0  0  0  0  0  0  0  0  0
   58.6958   27.5624   43.3799 H   0  0  0  0  0  0  0  0  0  0  0  0
   57.4380   26.7520   44.8890 C   0  0  0  0  0  0  0  0  0  0  0  0
   56.8010   26.9190   46.0240 O   0  0  0  0  0  0  0  0  0  0  0  0
   56.6260   25.7430   46.5820 C   0  0  0  0  0  0  0  0  0  0  0  0
   56.1214   25.5667   47.5434 H   0  0  0  0  0  0  0  0  0  0  0  0
   57.1720   24.7610   45.7780 C   0  0  0  0  0  0  0  0  0  0  0  0
   57.1835   23.6784   45.9724 H   0  0  0  0  0  0  0  0  0  0  0  0
   57.6990   25.4110   44.6840 C   0  0  0  0  0  0  0  0  0  0  0  0
   58.2186   24.9576   43.8270 H   0  0  0  0  0  0  0  0  0  0  0  0
  1  2  1  0
  2  3  2  0
  3  4  1  0
  4  5  1  0
  5  6  1  0
  6  7  1  0
  6  8  1  0
  6  9  1  0
  9 10  2  0
  9 11  1  0
 11 12  1  0
 11 13  1  0
 13 14  2  0
 14 15  1  0
 14 16  1  0
 16 17  1  0
 16 18  2  0
 18 19  1  0
 18 20  1  0
 20 21  1  0
 20 22  2  0
 22 23  1  0
  4 24  2  0
 24 25  1  0
 25 26  1  0
 26 27  2  0
 27 28  1  0
 27 29  1  0
 29 30  1  0
 29 31  2  0
 31 32  1  0
 31 33  1  0
 33 34  1  0
 33 35  2  0
 35 36  1  0
 36 37  1  0
 36 38  1  0
 38 39  1  0
 39 40  1  0
 40 41  1  0
 40 42  1  0
 40 43  1  0
 43 44  1  0
 44 45  1  0
 45 46  1  0
 45 47  2  0
 47 48  1  0
 47 49  1  0
 49 50  1  0
 39  3  1  0
 49 43  2  0
 22 13  1  0
 38 25  2  0
 35 26  1  0
M  END
>  <UniqueID>  (11) 
9

>  <SMILES>  (11) 
[H]/N=c1/c(SCC(=O)Nc2ccc(F)cc2)nc2c3ccccc3[nH]c2n1Cc1ccco1

>  <Energy>  (11) 
129.22854277643088

>  <Genealogy>  (11) 
[H]/N=c1/c(SCC(=O)Nc2ccc(F)cc2)nc2c3ccccc3[nH]c2n1Cc1ccco1 (cis-trans isomerization)
[H]/N=c1/c(SCC(=O)Nc2ccc(F)cc2)nc2c3ccccc3[nH]c2n1Cc1ccco1 (3D coordinates assigned)
[H]/N=c1/c(SCC(=O)Nc2ccc(F)cc2)nc2c3ccccc3[nH]c2n1Cc1ccco1 (optimized conformer: 129.22854277643088 kcal/mol)

>  <smiles>  (11) 
N=c1c(SCC(=O)Nc2ccc(F)cc2)nc2c3ccccc3[nH]c2n1Cc1ccco1

>  <score_type>  (11) 
oracle

>  <origin>  (11) 
adg

>  <m_score__min__energy>  (11) 
-8.1300000000000008

>  <m_primary>  (11) 
energy

$$$$
11:0
     RDKit          3D

 35 37  0  0  0  0  0  0  0  0999 V2000
   63.4740   33.3300   50.9100 C   0  0  0  0  0  0  0  0  0  0  0  0
   63.1350   33.4190   49.4510 C   0  0  0  0  0  0  0  0  0  0  0  0
   64.0760   33.0640   48.4600 C   0  0  0  0  0  0  0  0  0  0  0  0
   63.7340   33.1210   47.0920 C   0  0  0  0  0  0  0  0  0  0  0  0
   62.4540   33.5380   46.6930 C   0  0  0  0  0  0  0  0  0  0  0  0
   61.5440   33.9090   47.6870 C   0  0  0  0  0  0  0  0  0  0  0  0
   60.2230   34.3190   47.6160 C   0  0  0  0  0  0  0  0  0  0  0  0
   59.3860   34.5370   46.4220 C   0  0  0  0  0  0  0  0  0  0  0  0
   59.4890   35.6270   45.7980 O   0  0  0  0  0  0  0  0  0  0  0  0
   58.4750   33.4960   45.9070 C   0  0  0  0  0  0  0  0  0  0  0  0
   57.3850   33.2720   46.4990 O   0  0  0  0  0  0  0  0  0  0  0  0
   58.8320   32.7390   44.7390 N   0  0  0  0  0  0  0  0  0  0  0  0
   58.1050   31.5800   44.2950 C   0  0  0  0  0  0  0  0  0  0  0  0
   57.3990   31.6090   43.0800 C   0  0  0  0  0  0  0  0  0  0  0  0
   56.6690   30.4970   42.6570 C   0  0  0  0  0  0  0  0  0  0  0  0
   56.6290   29.3470   43.4450 C   0  0  0  0  0  0  0  0  0  0  0  0
   57.3130   29.3020   44.6630 C   0  0  0  0  0  0  0  0  0  0  0  0
   57.2310   27.8310   45.6240 Cl  0  0  0  0  0  0  0  0  0  0  0  0
   58.0510   30.4200   45.0970 C   0  0  0  0  0  0  0  0  0  0  0  0
   58.9360   30.3510   46.6220 Cl  0  0  0  0  0  0  0  0  0  0  0  0
   59.7990   34.4450   48.9350 C   0  0  0  0  0  0  0  0  0  0  0  0
   60.8080   34.1570   49.7870 N   0  0  0  0  0  0  0  0  0  0  0  0
   61.8660   33.8310   49.0200 C   0  0  0  0  0  0  0  0  0  0  0  0
   62.5815   33.5643   51.5088 H   0  0  0  0  0  0  0  0  0  0  0  0
   63.8165   32.3115   51.1454 H   0  0  0  0  0  0  0  0  0  0  0  0
   64.2726   34.0489   51.1454 H   0  0  0  0  0  0  0  0  0  0  0  0
   65.0845   32.7402   48.7568 H   0  0  0  0  0  0  0  0  0  0  0  0
   64.4765   32.8363   46.3319 H   0  0  0  0  0  0  0  0  0  0  0  0
   62.1755   33.5717   45.6294 H   0  0  0  0  0  0  0  0  0  0  0  0
   59.6170   33.0900   44.1450 H   0  0  0  0  0  0  0  0  0  0  0  0
   57.4219   32.5155   42.4573 H   0  0  0  0  0  0  0  0  0  0  0  0
   56.1249   30.5277   41.7015 H   0  0  0  0  0  0  0  0  0  0  0  0
   56.0563   28.4711   43.1062 H   0  0  0  0  0  0  0  0  0  0  0  0
   58.7841   34.7381   49.2418 H   0  0  0  0  0  0  0  0  0  0  0  0
   60.7600   34.1720   50.8290 H   0  0  0  0  0  0  0  0  0  0  0  0
  1  2  1  0
  2  3  2  0
  3  4  1  0
  4  5  2  0
  5  6  1  0
  6  7  1  0
  7  8  1  0
  8  9  2  0
  8 10  1  0
 10 11  2  0
 10 12  1  0
 12 13  1  0
 13 14  2  0
 14 15  1  0
 15 16  2  0
 16 17  1  0
 17 18  1  0
 17 19  2  0
 19 20  1  0
  7 21  2  0
 21 22  1  0
 22 23  1  0
 23  2  1  0
 23  6  2  0
 19 13  1  0
  1 24  1  0
  1 25  1  0
  1 26  1  0
  3 27  1  0
  4 28  1  0
  5 29  1  0
 12 30  1  0
 14 31  1  0
 15 32  1  0
 16 33  1  0
 21 34  1  0
 22 35  1  0
M  END
>  <UniqueID>  (12) 
10

>  <SMILES>  (12) 
Cc1cccc2c(C(=O)C(=O)Nc3cccc(Cl)c3Cl)c[nH]c12

>  <Energy>  (12) 
79.50058904901238

>  <Genealogy>  (12) 
Cc1cccc2c(C(=O)C(=O)Nc3cccc(Cl)c3Cl)c[nH]c12 (3D coordinates assigned)
Cc1cccc2c(C(=O)C(=O)Nc3cccc(Cl)c3Cl)c[nH]c12 (optimized conformer: 79.50058904901238 kcal/mol)

>  <smiles>  (12) 
Cc1cccc2c(C(=O)C(=O)Nc3cccc(Cl)c3Cl)c[nH]c12

>  <score_type>  (12) 
oracle

>  <origin>  (12) 
adg

>  <m_score__min__energy>  (12) 
-8.3499999999999996

>  <m_primary>  (12) 
energy

$$$$
12:0
     RDKit          3D

 43 46  0  0  0  0  0  0  0  0999 V2000
   63.4550   33.8700   46.5140 C   0  0  0  0  0  0  0  0  0  0  0  0
   63.3600   33.2900   47.8640 N   0  0  0  0  0  0  0  0  0  0  0  0
   62.2200   33.8600   48.6320 C   0  0  0  0  0  0  0  0  0  0  0  0
   60.9990   32.9240   48.7290 C   0  0  0  0  0  0  0  0  0  0  0  0
   60.9180   32.0630   47.5470 N   0  0  0  0  0  0  0  0  0  0  0  0
   59.7010   31.9580   46.7910 C   0  0  0  0  0  0  0  0  0  0  0  0
   59.0620   33.1010   46.2760 C   0  0  0  0  0  0  0  0  0  0  0  0
   57.8700   32.9430   45.5420 C   0  0  0  0  0  0  0  0  0  0  0  0
   57.0550   34.3430   44.8770 Cl  0  0  0  0  0  0  0  0  0  0  0  0
   57.3360   31.7030   45.3510 N   0  0  0  0  0  0  0  0  0  0  0  0
   57.9660   30.6290   45.8850 C   0  0  0  0  0  0  0  0  0  0  0  0
   57.5960   29.3030   45.8430 C   0  0  0  0  0  0  0  0  0  0  0  0
   56.4270   28.6750   45.1950 C   0  0  0  0  0  0  0  0  0  0  0  0
   55.8420   29.2890   44.2650 O   0  0  0  0  0  0  0  0  0  0  0  0
   55.9090   27.4080   45.6200 N   0  0  0  0  0  0  0  0  0  0  0  0
   56.6650   26.2000   45.7740 C   0  0  0  0  0  0  0  0  0  0  0  0
   57.3670   25.6870   44.6780 C   0  0  0  0  0  0  0  0  0  0  0  0
   58.1040   24.5090   44.8080 C   0  0  0  0  0  0  0  0  0  0  0  0
   58.1460   23.8630   46.0440 C   0  0  0  0  0  0  0  0  0  0  0  0
   57.4820   24.3840   47.1090 N   0  0  0  0  0  0  0  0  0  0  0  0
   56.7540   25.5290   47.0060 C   0  0  0  0  0  0  0  0  0  0  0  0
   58.6140   28.6590   46.5430 C   0  0  0  0  0  0  0  0  0  0  0  0
   59.5180   29.5650   46.9870 N   0  0  0  0  0  0  0  0  0  0  0  0
   59.1100   30.7520   46.5690 N   0  0  0  0  0  0  0  0  0  0  0  0
   62.0830   31.2550   47.1760 C   0  0  0  0  0  0  0  0  0  0  0  0
   63.3590   31.8120   47.8310 C   0  0  0  0  0  0  0  0  0  0  0  0
   63.6324   34.9528   46.5918 H   0  0  0  0  0  0  0  0  0  0  0  0
   64.2881   33.4001   45.9708 H   0  0  0  0  0  0  0  0  0  0  0  0
   62.5155   33.6904   45.9708 H   0  0  0  0  0  0  0  0  0  0  0  0
   62.5669   34.0828   49.6518 H   0  0  0  0  0  0  0  0  0  0  0  0
   61.8897   34.7590   48.0911 H   0  0  0  0  0  0  0  0  0  0  0  0
   61.0939   32.2970   49.6278 H   0  0  0  0  0  0  0  0  0  0  0  0
   60.0861   33.5348   48.7876 H   0  0  0  0  0  0  0  0  0  0  0  0
   59.4864   34.1019   46.4438 H   0  0  0  0  0  0  0  0  0  0  0  0
   57.3380   26.2129   43.7123 H   0  0  0  0  0  0  0  0  0  0  0  0
   58.6460   24.0943   43.9453 H   0  0  0  0  0  0  0  0  0  0  0  0
   58.7178   22.9301   46.1566 H   0  0  0  0  0  0  0  0  0  0  0  0
   56.2342   25.9303   47.8885 H   0  0  0  0  0  0  0  0  0  0  0  0
   58.6748   27.5736   46.7106 H   0  0  0  0  0  0  0  0  0  0  0  0
   61.9266   30.2194   47.5122 H   0  0  0  0  0  0  0  0  0  0  0  0
   62.2028   31.2862   46.0830 H   0  0  0  0  0  0  0  0  0  0  0  0
   63.4246   31.4330   48.8616 H   0  0  0  0  0  0  0  0  0  0  0  0
   64.2215   31.4832   47.2327 H   0  0  0  0  0  0  0  0  0  0  0  0
  1  2  1  0
  2  3  1  0
  3  4  1  0
  4  5  1  0
  5  6  1  0
  6  7  2  0
  7  8  1  0
  8  9  1  0
  8 10  2  0
 10 11  1  0
 11 12  2  0
 12 13  1  0
 13 14  2  0
 13 15  1  0
 15 16  1  0
 16 17  2  0
 17 18  1  0
 18 19  2  0
 19 20  1  0
 20 21  2  0
 12 22  1  0
 22 23  2  0
 23 24  1  0
  5 25  1  0
 25 26  1  0
 26  2  1  0
 24  6  1  0
 24 11  1  0
 21 16  1  0
  1 27  1  0
  1 28  1  0
  1 29  1  0
  3 30  1  0
  3 31  1  0
  4 32  1  0
  4 33  1  0
  7 34  1  0
 17 35  1  0
 18 36  1  0
 19 37  1  0
 21 38  1  0
 22 39  1  0
 25 40  1  0
 25 41  1  0
 26 42  1  0
 26 43  1  0
M  CHG  1  15  -1
M  END
>  <UniqueID>  (13) 
11

>  <SMILES>  (13) 
CN1CCN(c2cc(Cl)nc3c(C(=O)[N-]c4cccnc4)cnn23)CC1

>  <Energy>  (13) 
100.92587201667352

>  <Genealogy>  (13) 
CN1CCN(c2cc(Cl)nc3c(C(=O)[N-]c4cccnc4)cnn23)CC1 (protonated)
CN1CCN(c2cc(Cl)nc3c(C(=O)[N-]c4cccnc4)cnn23)CC1 (3D coordinates assigned)
CN1CCN(c2cc(Cl)nc3c(C(=O)[N-]c4cccnc4)cnn23)CC1 (nonaromatic ring conformer: 100.92587201667352 kcal/mol)

>  <smiles>  (13) 
CN1CCN(c2cc(Cl)nc3c(C(=O)Nc4cccnc4)cnn23)CC1

>  <score_type>  (13) 
oracle

>  <origin>  (13) 
adg

>  <m_score__min__energy>  (13) 
-9.5399999999999991

>  <m_primary>  (13) 
energy

$$$$
13:0
     RDKit          3D

 36 39  0  0  1  0  0  0  0  0999 V2000
   64.6050   32.3240   49.3830 C   0  0  0  0  0  0  0  0  0  0  0  0
   63.6070   32.8970   48.4100 C   0  0  0  0  0  0  0  0  0  0  0  0
   62.4040   33.5230   48.7540 C   0  0  0  0  0  0  0  0  0  0  0  0
   61.8480   33.8690   47.5380 C   0  0  0  0  0  0  0  0  0  0  0  0
   60.7050   34.4830   47.4160 N   0  0  0  0  0  0  0  0  0  0  0  0
   59.6520   33.8340   46.6940 C   0  0  0  0  0  0  0  0  0  0  0  0
   59.4420   34.0970   45.3490 C   0  0  0  0  0  0  0  0  0  0  0  0
   58.4260   33.4360   44.7580 N   0  0  0  0  0  0  0  0  0  0  0  0
   57.6570   32.5640   45.4490 C   0  0  0  0  0  0  0  0  0  0  0  0
   56.6970   31.9440   44.8780 N   0  0  0  0  0  0  0  0  0  0  0  0
   56.8650   30.7060   44.2130 C   0  0  0  0  0  0  0  0  0  0  0  0
   56.2750   30.2230   43.0630 C   0  0  0  0  0  0  0  0  0  0  0  0
   56.7430   28.9710   42.7980 N   0  0  0  0  0  0  0  0  0  0  0  0
   57.6100   28.6560   43.7500 N   0  0  0  0  0  0  0  0  0  0  0  0
   58.3730   27.5530   43.9940 C   0  0  0  0  0  0  0  0  0  0  0  0
   59.2170   27.4860   45.0930 C   0  0  0  0  0  0  0  0  0  0  0  0
   59.2990   28.5450   45.9660 C   0  0  0  0  0  0  0  0  0  0  0  0
   58.5340   29.6210   45.7020 N   0  0  0  0  0  0  0  0  0  0  0  0
   57.7150   29.6820   44.6340 C   0  0  0  0  0  0  0  0  0  0  0  0
   57.8650   32.3100   46.7600 N   0  0  0  0  0  0  0  0  0  0  0  0
   58.8690   32.9440   47.4030 C   0  0  0  0  0  0  0  0  0  0  0  0
   59.1500   32.6200   49.1170 Cl  0  0  0  0  0  0  0  0  0  0  0  0
   62.6810   33.4680   46.5370 N   0  0  0  0  0  0  0  0  0  0  0  0
   63.7540   32.8730   47.0820 N   0  0  0  0  0  0  0  0  0  0  0  0
   64.2671   32.5180   50.4117 H   0  0  0  0  0  0  0  0  0  0  0  0
   64.6910   31.2390   49.2238 H   0  0  0  0  0  0  0  0  0  0  0  0
   65.5854   32.7968   49.2238 H   0  0  0  0  0  0  0  0  0  0  0  0
   61.9955   33.6989   49.7601 H   0  0  0  0  0  0  0  0  0  0  0  0
   60.0712   34.8077   44.7931 H   0  0  0  0  0  0  0  0  0  0  0  0
   58.2260   33.5970   43.7460 H   0  0  0  0  0  0  0  0  0  0  0  0
   55.5385   30.7663   42.4527 H   0  0  0  0  0  0  0  0  0  0  0  0
   58.3183   26.6976   43.3046 H   0  0  0  0  0  0  0  0  0  0  0  0
   59.8219   26.5837   45.2663 H   0  0  0  0  0  0  0  0  0  0  0  0
   59.9618   28.5144   46.8433 H   0  0  0  0  0  0  0  0  0  0  0  0
   62.5080   33.6030   45.5080 H   0  0  0  0  0  0  0  0  0  0  0  0
   64.5440   32.4750   46.5530 H   0  0  0  0  0  0  0  0  0  0  0  0
  1  2  1  0
  2  3  2  0
  3  4  1  0
  4  5  2  0
  5  6  1  0
  6  7  2  0
  7  8  1  0
  8  9  1  0
  9 10  2  0
 10 11  1  0
 11 12  1  0
 12 13  2  0
 13 14  1  0
 14 15  1  0
 15 16  2  0
 16 17  1  0
 17 18  2  0
 18 19  1  0
  9 20  1  0
 20 21  2  0
 21 22  1  0
  4 23  1  0
 23 24  1  0
 24  2  1  0
 21  6  1  0
 19 11  2  0
 19 14  1  0
  1 25  1  0
  1 26  1  0
  1 27  1  0
  3 28  1  0
  7 29  1  0
  8 30  1  0
 12 31  1  0
 15 32  1  0
 16 33  1  0
 17 34  1  0
 23 35  1  0
 24 36  1  0
M  END
>  <smiles>  (14) 
Cc1cc(=Nc2c[nH]c(=Nc3cnn4cccnc34)nc2Cl)[nH][nH]1

>  <score_type>  (14) 
oracle

>  <origin>  (14) 
adg

>  <m_score__min__energy>  (14) 
-8.1899999999999995

>  <m_primary>  (14) 
energy

$$$$
14:0
     RDKit          3D

 33 34  0  0  0  0  0  0  0  0999 V2000
   60.1890   29.9390   46.7530 C   0  0  0  0  0  0  0  0  0  0  0  0
   59.5130   31.1160   47.1820 O   0  0  0  0  0  0  0  0  0  0  0  0
   58.9880   32.1460   46.3720 C   0  0  0  0  0  0  0  0  0  0  0  0
   57.7890   32.0230   45.6130 C   0  0  0  0  0  0  0  0  0  0  0  0
   57.0560   30.7880   45.6060 N   0  0  0  0  0  0  0  0  0  0  0  0
   56.5300   29.9020   44.2120 S   0  0  0  0  0  0  0  0  0  0  0  0
   57.6730   28.5860   43.8520 C   0  0  0  0  0  0  0  0  0  0  0  0
   55.1500   29.3530   44.4380 O   0  0  0  0  0  0  0  0  0  0  0  0
   56.4900   30.8380   43.0360 O   0  0  0  0  0  0  0  0  0  0  0  0
   57.3330   33.1260   44.8680 C   0  0  0  0  0  0  0  0  0  0  0  0
   58.0350   34.3270   44.8680 C   0  0  0  0  0  0  0  0  0  0  0  0
   59.2090   34.4510   45.6010 C   0  0  0  0  0  0  0  0  0  0  0  0
   59.7010   33.3690   46.3460 C   0  0  0  0  0  0  0  0  0  0  0  0
   60.9670   33.5340   47.1010 C   0  0  0  0  0  0  0  0  0  0  0  0
   62.2060   33.4840   46.4380 C   0  0  0  0  0  0  0  0  0  0  0  0
   63.3960   33.6500   47.1540 C   0  0  0  0  0  0  0  0  0  0  0  0
   63.3600   33.8740   48.5320 C   0  0  0  0  0  0  0  0  0  0  0  0
   62.1330   33.9340   49.1980 C   0  0  0  0  0  0  0  0  0  0  0  0
   62.0990   34.1520   50.5360 F   0  0  0  0  0  0  0  0  0  0  0  0
   60.9400   33.7670   48.4870 C   0  0  0  0  0  0  0  0  0  0  0  0
   60.5188   29.3648   47.6314 H   0  0  0  0  0  0  0  0  0  0  0  0
   59.5065   29.3240   46.1481 H   0  0  0  0  0  0  0  0  0  0  0  0
   61.0641   30.2187   46.1481 H   0  0  0  0  0  0  0  0  0  0  0  0
   58.0460   28.1565   44.7935 H   0  0  0  0  0  0  0  0  0  0  0  0
   57.1616   27.8051   43.2700 H   0  0  0  0  0  0  0  0  0  0  0  0
   58.5178   28.9830   43.2700 H   0  0  0  0  0  0  0  0  0  0  0  0
   56.4091   33.0375   44.2777 H   0  0  0  0  0  0  0  0  0  0  0  0
   57.6595   35.1814   44.2858 H   0  0  0  0  0  0  0  0  0  0  0  0
   59.7567   35.4049   45.5970 H   0  0  0  0  0  0  0  0  0  0  0  0
   62.2395   33.3136   45.3518 H   0  0  0  0  0  0  0  0  0  0  0  0
   64.3624   33.6040   46.6306 H   0  0  0  0  0  0  0  0  0  0  0  0
   64.2973   34.0032   49.0930 H   0  0  0  0  0  0  0  0  0  0  0  0
   59.9763   33.8182   49.0149 H   0  0  0  0  0  0  0  0  0  0  0  0
  1  2  1  0
  2  3  1  0
  3  4  2  0
  4  5  1  0
  5  6  1  0
  6  7  1  0
  6  8  2  0
  6  9  2  0
  4 10  1  0
 10 11  2  0
 11 12  1  0
 12 13  2  0
 13 14  1  0
 14 15  2  0
 15 16  1  0
 16 17  2  0
 17 18  1  0
 18 19  1  0
 18 20  2  0
 13  3  1  0
 20 14  1  0
  1 21  1  0
  1 22  1  0
  1 23  1  0
  7 24  1  0
  7 25  1  0
  7 26  1  0
 10 27  1  0
 11 28  1  0
 12 29  1  0
 15 30  1  0
 16 31  1  0
 17 32  1  0
 20 33  1  0
M  CHG  1   5  -1
M  END
>  <UniqueID>  (15) 
12

>  <SMILES>  (15) 
COc1c([N-]S(C)(=O)=O)cccc1-c1cccc(F)c1

>  <Energy>  (15) 
42.7228227179254

>  <Genealogy>  (15) 
COc1c([N-]S(C)(=O)=O)cccc1-c1cccc(F)c1 (protonated)
COc1c([N-]S(C)(=O)=O)cccc1-c1cccc(F)c1 (3D coordinates assigned)
COc1c([N-]S(C)(=O)=O)cccc1-c1cccc(F)c1 (optimized conformer: 42.7228227179254 kcal/mol)

>  <smiles>  (15) 
COc1c(NS(C)(=O)=O)cccc1-c1cccc(F)c1

>  <score_type>  (15) 
oracle

>  <origin>  (15) 
adg

>  <m_score__min__energy>  (15) 
-10.01

>  <m_primary>  (15) 
energy

$$$$
15:0
     RDKit          3D

 47 49  0  0  0  0  0  0  0  0999 V2000
   57.4850   33.8410   45.6470 C   0  0  0  0  0  0  0  0  0  0  0  0
   57.4060   32.7190   44.6700 C   0  0  0  0  0  0  0  0  0  0  0  0
   56.7360   31.5700   44.9060 N   0  0  0  0  0  0  0  0  0  0  0  0
   56.7630   30.7390   43.8300 C   0  0  0  0  0  0  0  0  0  0  0  0
   56.1070   29.3850   43.8590 C   0  0  0  0  0  0  0  0  0  0  0  0
   55.8390   28.9340   45.2360 N   0  0  0  0  0  0  0  0  0  0  0  0
   56.6580   27.7730   45.6240 C   0  0  0  0  0  0  0  0  0  0  0  0
   58.1580   28.0490   45.3890 C   0  0  0  0  0  0  0  0  0  0  0  0
   58.4950   29.5090   45.7800 C   0  0  0  0  0  0  0  0  0  0  0  0
   59.9850   29.6620   46.1060 C   0  0  0  0  0  0  0  0  0  0  0  0
   60.4060   28.7990   47.2380 N   0  0  0  0  0  0  0  0  0  0  0  0
   60.7290   29.5320   48.4830 C   0  0  0  0  0  0  0  0  0  0  0  0
   60.6030   31.0380   48.3580 C   0  0  0  0  0  0  0  0  0  0  0  0
   59.3970   31.6790   48.6930 C   0  0  0  0  0  0  0  0  0  0  0  0
   59.2760   33.0670   48.5740 C   0  0  0  0  0  0  0  0  0  0  0  0
   60.3600   33.8290   48.1330 C   0  0  0  0  0  0  0  0  0  0  0  0
   61.5720   33.2060   47.8230 C   0  0  0  0  0  0  0  0  0  0  0  0
   61.6970   31.8190   47.9410 C   0  0  0  0  0  0  0  0  0  0  0  0
   59.5710   27.5940   47.4590 C   0  0  0  0  0  0  0  0  0  0  0  0
   59.0580   27.0250   46.1340 C   0  0  0  0  0  0  0  0  0  0  0  0
   57.4500   31.2290   42.7210 C   0  0  0  0  0  0  0  0  0  0  0  0
   58.0330   32.7570   43.1110 S   0  0  0  0  0  0  0  0  0  0  0  0
   57.4567   33.4387   46.6704 H   0  0  0  0  0  0  0  0  0  0  0  0
   58.4243   34.3933   45.4960 H   0  0  0  0  0  0  0  0  0  0  0  0
   56.6324   34.5194   45.4960 H   0  0  0  0  0  0  0  0  0  0  0  0
   55.1549   29.4393   43.3108 H   0  0  0  0  0  0  0  0  0  0  0  0
   56.7931   28.6635   43.3913 H   0  0  0  0  0  0  0  0  0  0  0  0
   56.0280   29.7220   45.8990 H   0  0  0  0  0  0  0  0  0  0  0  0
   56.4948   27.5583   46.6904 H   0  0  0  0  0  0  0  0  0  0  0  0
   56.3598   26.9127   45.0068 H   0  0  0  0  0  0  0  0  0  0  0  0
   58.3702   27.9219   44.3172 H   0  0  0  0  0  0  0  0  0  0  0  0
   58.2405   30.1736   44.9413 H   0  0  0  0  0  0  0  0  0  0  0  0
   57.9121   29.7751   46.6741 H   0  0  0  0  0  0  0  0  0  0  0  0
   60.5715   29.3893   45.2162 H   0  0  0  0  0  0  0  0  0  0  0  0
   60.1598   30.7082   46.3976 H   0  0  0  0  0  0  0  0  0  0  0  0
   60.0441   29.1913   49.2734 H   0  0  0  0  0  0  0  0  0  0  0  0
   61.7823   29.3174   48.7165 H   0  0  0  0  0  0  0  0  0  0  0  0
   58.5434   31.0847   49.0509 H   0  0  0  0  0  0  0  0  0  0  0  0
   58.3257   33.5593   48.8281 H   0  0  0  0  0  0  0  0  0  0  0  0
   60.2599   34.9195   48.0296 H   0  0  0  0  0  0  0  0  0  0  0  0
   62.4286   33.8080   47.4857 H   0  0  0  0  0  0  0  0  0  0  0  0
   62.6564   31.3348   47.7065 H   0  0  0  0  0  0  0  0  0  0  0  0
   60.1741   26.8282   47.9687 H   0  0  0  0  0  0  0  0  0  0  0  0
   58.7048   27.8787   48.0743 H   0  0  0  0  0  0  0  0  0  0  0  0
   59.9177   26.7730   45.4957 H   0  0  0  0  0  0  0  0  0  0  0  0
   58.4576   26.1292   46.3508 H   0  0  0  0  0  0  0  0  0  0  0  0
   57.5865   30.7088   41.7614 H   0  0  0  0  0  0  0  0  0  0  0  0
  1  2  1  0
  2  3  2  0
  3  4  1  0
  4  5  1  0
  5  6  1  0
  6  7  1  0
  7  8  1  0
  8  9  1  0
  9 10  1  0
 10 11  1  0
 11 12  1  0
 12 13  1  0
 13 14  2  0
 14 15  1  0
 15 16  2  0
 16 17  1  0
 17 18  2  0
 11 19  1  0
 19 20  1  0
  4 21  2  0
 21 22  1  0
 22  2  1  0
 20  8  1  0
 18 13  1  0
  1 23  1  0
  1 24  1  0
  1 25  1  0
  5 26  1  0
  5 27  1  0
  6 28  1  0
  7 29  1  0
  7 30  1  0
  8 31  1  0
  9 32  1  0
  9 33  1  0
 10 34  1  0
 10 35  1  0
 12 36  1  0
 12 37  1  0
 14 38  1  0
 15 39  1  0
 16 40  1  0
 17 41  1  0
 18 42  1  0
 19 43  1  0
 19 44  1  0
 20 45  1  0
 20 46  1  0
 21 47  1  0
M  END
>  <UniqueID>  (16) 
13

>  <SMILES>  (16) 
Cc1nc(CNCC2CCN(Cc3ccccc3)CC2)cs1

>  <Energy>  (16) 
85.08134141706688

>  <Genealogy>  (16) 
Cc1nc(CNCC2CCN(Cc3ccccc3)CC2)cs1 (3D coordinates assigned)
Cc1nc(CNCC2CCN(Cc3ccccc3)CC2)cs1 (nonaromatic ring conformer: 85.08134141706688 kcal/mol)

>  <smiles>  (16) 
Cc1nc(CNCC2CCN(Cc3ccccc3)CC2)cs1

>  <score_type>  (16) 
oracle

>  <origin>  (16) 
adg

>  <m_score__min__energy>  (16) 
-7.71

>  <m_primary>  (16) 
energy

$$$$
16:0
     RDKit          3D

 60 63  0  0  0  0  0  0  0  0999 V2000
   56.2680   29.8520   43.2050 C   0  0  0  0  0  0  0  0  0  0  0  0
   57.0620   30.9650   42.5180 C   0  0  0  0  0  0  0  0  0  0  0  0
   57.7240   31.9240   43.5190 C   0  0  0  0  0  0  0  0  0  0  0  0
   57.0290   31.9040   44.8950 C   0  0  0  0  0  0  0  0  0  0  0  0
   57.3570   33.0900   45.7030 N   0  0  0  0  0  0  0  0  0  0  0  0
   58.2950   32.7950   46.8030 C   0  0  0  0  0  0  0  0  0  0  0  0
   59.5620   32.1220   46.2640 C   0  0  0  0  0  0  0  0  0  0  0  0
   59.7610   30.7830   46.8510 N   0  0  0  0  0  0  0  0  0  0  0  0
   60.4280   30.6650   48.1530 C   0  0  0  0  0  0  0  0  0  0  0  0
   59.2710   29.5770   46.2140 C   0  0  0  0  0  0  0  0  0  0  0  0
   58.6330   28.5520   46.9430 C   0  0  0  0  0  0  0  0  0  0  0  0
   58.2540   27.3780   46.2870 C   0  0  0  0  0  0  0  0  0  0  0  0
   57.6560   26.3660   46.9650 N   0  0  0  0  0  0  0  0  0  0  0  0
   57.2820   25.2100   46.3490 C   0  0  0  0  0  0  0  0  0  0  0  0
   56.5680   24.1920   47.1490 C   0  0  0  0  0  0  0  0  0  0  0  0
   55.2750   23.7920   46.7770 C   0  0  0  0  0  0  0  0  0  0  0  0
   54.5930   22.8250   47.5230 C   0  0  0  0  0  0  0  0  0  0  0  0
   55.2020   22.2440   48.6390 C   0  0  0  0  0  0  0  0  0  0  0  0
   56.4970   22.6210   49.0030 C   0  0  0  0  0  0  0  0  0  0  0  0
   57.1820   23.5850   48.2600 C   0  0  0  0  0  0  0  0  0  0  0  0
   57.5580   25.0540   44.9640 C   0  0  0  0  0  0  0  0  0  0  0  0
   57.2880   23.8010   44.2220 C   0  0  0  0  0  0  0  0  0  0  0  0
   58.0970   22.6640   44.4020 C   0  0  0  0  0  0  0  0  0  0  0  0
   57.8370   21.4930   43.6850 C   0  0  0  0  0  0  0  0  0  0  0  0
   56.7830   21.4510   42.7680 C   0  0  0  0  0  0  0  0  0  0  0  0
   55.9900   22.5840   42.5650 C   0  0  0  0  0  0  0  0  0  0  0  0
   56.2450   23.7570   43.2830 C   0  0  0  0  0  0  0  0  0  0  0  0
   58.1390   26.0840   44.2900 N   0  0  0  0  0  0  0  0  0  0  0  0
   58.4880   27.2370   44.9140 C   0  0  0  0  0  0  0  0  0  0  0  0
   59.0930   28.2790   44.2130 C   0  0  0  0  0  0  0  0  0  0  0  0
   59.4670   29.4070   44.8730 N   0  0  0  0  0  0  0  0  0  0  0  0
   56.3482   29.9644   44.2963 H   0  0  0  0  0  0  0  0  0  0  0  0
   55.2114   29.9173   42.9063 H   0  0  0  0  0  0  0  0  0  0  0  0
   56.6737   28.8741   42.9063 H   0  0  0  0  0  0  0  0  0  0  0  0
   57.8465   30.5067   41.8979 H   0  0  0  0  0  0  0  0  0  0  0  0
   56.3562   31.5519   41.9119 H   0  0  0  0  0  0  0  0  0  0  0  0
   58.7756   31.6288   43.6494 H   0  0  0  0  0  0  0  0  0  0  0  0
   57.6404   32.9434   43.1143 H   0  0  0  0  0  0  0  0  0  0  0  0
   55.9403   31.8707   44.7411 H   0  0  0  0  0  0  0  0  0  0  0  0
   57.3848   31.0167   45.4392 H   0  0  0  0  0  0  0  0  0  0  0  0
   57.7610   33.8310   45.0830 H   0  0  0  0  0  0  0  0  0  0  0  0
   58.5700   33.7341   47.3055 H   0  0  0  0  0  0  0  0  0  0  0  0
   57.8055   32.1130   47.5138 H   0  0  0  0  0  0  0  0  0  0  0  0
   59.4760   32.0232   45.1718 H   0  0  0  0  0  0  0  0  0  0  0  0
   60.4248   32.7475   46.5367 H   0  0  0  0  0  0  0  0  0  0  0  0
   59.6887   30.7958   48.9569 H   0  0  0  0  0  0  0  0  0  0  0  0
   60.8912   29.6710   48.2390 H   0  0  0  0  0  0  0  0  0  0  0  0
   61.2041   31.4398   48.2390 H   0  0  0  0  0  0  0  0  0  0  0  0
   58.4356   28.6757   48.0181 H   0  0  0  0  0  0  0  0  0  0  0  0
   54.7957   24.2411   45.8946 H   0  0  0  0  0  0  0  0  0  0  0  0
   53.5767   22.5216   47.2312 H   0  0  0  0  0  0  0  0  0  0  0  0
   54.6617   21.4902   49.2304 H   0  0  0  0  0  0  0  0  0  0  0  0
   56.9783   22.1575   49.8768 H   0  0  0  0  0  0  0  0  0  0  0  0
   58.2054   23.8708   48.5444 H   0  0  0  0  0  0  0  0  0  0  0  0
   58.9380   22.6970   45.1103 H   0  0  0  0  0  0  0  0  0  0  0  0
   58.4632   20.6025   43.8426 H   0  0  0  0  0  0  0  0  0  0  0  0
   56.5778   20.5275   42.2068 H   0  0  0  0  0  0  0  0  0  0  0  0
   55.1639   22.5531   41.8393 H   0  0  0  0  0  0  0  0  0  0  0  0
   55.6253   24.6495   43.1112 H   0  0  0  0  0  0  0  0  0  0  0  0
   59.2670   28.1889   43.1306 H   0  0  0  0  0  0  0  0  0  0  0  0
  1  2  1  0
  2  3  1  0
  3  4  1  0
  4  5  1  0
  5  6  1  0
  6  7  1  0
  7  8  1  0
  8  9  1  0
  8 10  1  0
 10 11  2  0
 11 12  1  0
 12 13  2  0
 13 14  1  0
 14 15  1  0
 15 16  2  0
 16 17  1  0
 17 18  2  0
 18 19  1  0
 19 20  2  0
 14 21  2  0
 21 22  1  0
 22 23  2  0
 23 24  1  0
 24 25  2  0
 25 26  1  0
 26 27  2  0
 21 28  1  0
 28 29  2  0
 29 30  1  0
 30 31  2  0
 31 10  1  0
 29 12  1  0
 20 15  1  0
 27 22  1  0
  1 32  1  0
  1 33  1  0
  1 34  1  0
  2 35  1  0
  2 36  1  0
  3 37  1  0
  3 38  1  0
  4 39  1  0
  4 40  1  0
  5 41  1  0
  6 42  1  0
  6 43  1  0
  7 44  1  0
  7 45  1  0
  9 46  1  0
  9 47  1  0
  9 48  1  0
 11 49  1  0
 16 50  1  0
 17 51  1  0
 18 52  1  0
 19 53  1  0
 20 54  1  0
 23 55  1  0
 24 56  1  0
 25 57  1  0
 26 58  1  0
 27 59  1  0
 30 60  1  0
M  END
>  <UniqueID>  (17) 
14

>  <SMILES>  (17) 
CCCCNCCN(C)c1cc2nc(-c3ccccc3)c(-c3ccccc3)nc2cn1

>  <Energy>  (17) 
72.28506202793417

>  <Genealogy>  (17) 
CCCCNCCN(C)c1cc2nc(-c3ccccc3)c(-c3ccccc3)nc2cn1 (3D coordinates assigned)
CCCCNCCN(C)c1cc2nc(-c3ccccc3)c(-c3ccccc3)nc2cn1 (optimized conformer: 72.28506202793417 kcal/mol)

>  <smiles>  (17) 
CCCCNCCN(C)c1cc2nc(-c3ccccc3)c(-c3ccccc3)nc2cn1

>  <score_type>  (17) 
oracle

>  <origin>  (17) 
adg

>  <m_score__min__energy>  (17) 
-8.3699999999999992

>  <m_primary>  (17) 
energy

$$$$
17:0
     RDKit          3D

 32 33  0  0  0  0  0  0  0  0999 V2000
   56.6760   26.3360   46.0070 C   0  0  0  0  0  0  0  0  0  0  0  0
   55.9030   27.4650   45.6150 O   0  0  0  0  0  0  0  0  0  0  0  0
   56.4460   28.6920   45.2040 C   0  0  0  0  0  0  0  0  0  0  0  0
   57.8120   28.9170   45.3910 C   0  0  0  0  0  0  0  0  0  0  0  0
   58.3850   30.1260   44.9950 C   0  0  0  0  0  0  0  0  0  0  0  0
   57.5800   31.1140   44.4070 C   0  0  0  0  0  0  0  0  0  0  0  0
   58.1410   32.3780   44.0010 N   0  0  0  0  0  0  0  0  0  0  0  0
   58.8290   33.0600   45.1140 C   0  0  2  0  0  0  0  0  0  0  0  0
   57.8530   33.3330   46.2890 C   0  0  0  0  0  0  0  0  0  0  0  0
   58.5870   33.9970   47.4640 C   0  0  0  0  0  0  0  0  0  0  0  0
   59.8040   34.8030   46.9960 C   0  0  0  0  0  0  0  0  0  0  0  0
   59.6000   35.2940   45.5570 C   0  0  0  0  0  0  0  0  0  0  0  0
   59.4400   34.2470   44.6060 O   0  0  0  0  0  0  0  0  0  0  0  0
   56.2500   30.8740   44.2320 N   0  0  0  0  0  0  0  0  0  0  0  0
   55.6710   29.7050   44.6100 C   0  0  0  0  0  0  0  0  0  0  0  0
   56.7138   26.2808   47.1050 H   0  0  0  0  0  0  0  0  0  0  0  0
   56.2147   25.4199   45.6095 H   0  0  0  0  0  0  0  0  0  0  0  0
   57.6969   26.4347   45.6095 H   0  0  0  0  0  0  0  0  0  0  0  0
   58.4378   28.1386   45.8519 H   0  0  0  0  0  0  0  0  0  0  0  0
   59.4605   30.3036   45.1427 H   0  0  0  0  0  0  0  0  0  0  0  0
   57.3870   32.9940   43.6180 H   0  0  0  0  0  0  0  0  0  0  0  0
   58.8260   32.2040   43.2280 H   0  0  0  0  0  0  0  0  0  0  0  0
   59.6177   32.4164   45.5307 H   0  0  0  0  0  0  0  0  0  0  0  0
   57.0492   33.9994   45.9429 H   0  0  0  0  0  0  0  0  0  0  0  0
   57.4350   32.3745   46.6304 H   0  0  0  0  0  0  0  0  0  0  0  0
   57.8907   34.6729   47.9819 H   0  0  0  0  0  0  0  0  0  0  0  0
   58.9426   33.2024   48.1365 H   0  0  0  0  0  0  0  0  0  0  0  0
   59.9409   35.6702   47.6587 H   0  0  0  0  0  0  0  0  0  0  0  0
   60.6937   34.1570   47.0295 H   0  0  0  0  0  0  0  0  0  0  0  0
   58.6997   35.9255   45.5312 H   0  0  0  0  0  0  0  0  0  0  0  0
   60.5105   35.8435   45.2758 H   0  0  0  0  0  0  0  0  0  0  0  0
   54.5936   29.5498   44.4514 H   0  0  0  0  0  0  0  0  0  0  0  0
  1  2  1  0
  2  3  1  0
  3  4  2  0
  4  5  1  0
  5  6  2  0
  6  7  1  0
  7  8  1  0
  8  9  1  0
  9 10  1  0
 10 11  1  0
 11 12  1  0
 12 13  1  0
  6 14  1  0
 14 15  2  0
 15  3  1  0
 13  8  1  0
  1 16  1  0
  1 17  1  0
  1 18  1  0
  4 19  1  0
  5 20  1  0
  7 21  1  0
  7 22  1  0
  8 23  1  1
  9 24  1  0
  9 25  1  0
 10 26  1  0
 10 27  1  0
 11 28  1  0
 11 29  1  0
 12 30  1  0
 12 31  1  0
 15 32  1  0
M  CHG  1   7   1
M  END
>  <UniqueID>  (18) 
15

>  <SMILES>  (18) 
COc1ccc([NH2+][C@@H]2CCCCO2)nc1

>  <Energy>  (18) 
42.30308960720279

>  <Genealogy>  (18) 
COc1ccc([NH2+]C2CCCCO2)nc1 (protonated)
COc1ccc([NH2+][C@@H]2CCCCO2)nc1 (chirality)
COc1ccc([NH2+][C@@H]2CCCCO2)nc1 (3D coordinates assigned)
COc1ccc([NH2+][C@@H]2CCCCO2)nc1 (nonaromatic ring conformer: 42.30308960720279 kcal/mol)

>  <smiles>  (18) 
COc1ccc(NC2CCCCO2)nc1

>  <score_type>  (18) 
oracle

>  <origin>  (18) 
adg

>  <m_score__min__energy>  (18) 
-4.1799999999999997

>  <m_primary>  (18) 
energy

$$$$
18:0
     RDKit          3D

 61 65  0  0  1  0  0  0  0  0999 V2000
   59.5210   34.2930   49.9390 C   0  0  0  0  0  0  0  0  0  0  0  0
   59.8110   34.2080   48.5050 N   0  0  0  0  0  0  0  0  0  0  0  0
   58.9510   34.9350   47.6050 C   0  0  0  0  0  0  0  0  0  0  0  0
   58.6200   34.2030   46.3650 C   0  0  0  0  0  0  0  0  0  0  0  0
   59.3860   34.4620   45.2360 C   0  0  0  0  0  0  0  0  0  0  0  0
   59.1620   33.8320   44.0290 C   0  0  0  0  0  0  0  0  0  0  0  0
   58.1470   32.9050   43.9070 C   0  0  0  0  0  0  0  0  0  0  0  0
   57.3900   32.6550   45.0390 C   0  0  0  0  0  0  0  0  0  0  0  0
   56.3650   31.7050   44.8740 O   0  0  0  0  0  0  0  0  0  0  0  0
   56.8130   30.4880   44.2610 C   0  0  0  0  0  0  0  0  0  0  0  0
   56.0550   29.4660   44.8470 F   0  0  0  0  0  0  0  0  0  0  0  0
   56.4620   30.5520   42.9430 F   0  0  0  0  0  0  0  0  0  0  0  0
   58.1470   30.2550   44.4740 F   0  0  0  0  0  0  0  0  0  0  0  0
   57.6130   33.2840   46.2460 C   0  0  0  0  0  0  0  0  0  0  0  0
   60.9090   33.4300   48.0470 C   0  0  0  0  0  0  0  0  0  0  0  0
   62.0200   33.9930   47.5340 N   0  0  0  0  0  0  0  0  0  0  0  0
   63.0840   33.2940   47.0880 C   0  0  0  0  0  0  0  0  0  0  0  0
   63.0100   31.9560   47.1690 N   0  0  0  0  0  0  0  0  0  0  0  0
   61.9140   31.3650   47.6750 C   0  0  0  0  0  0  0  0  0  0  0  0
   61.9000   30.0810   47.7250 N   0  0  0  0  0  0  0  0  0  0  0  0
   60.8790   29.3090   47.1700 C   0  0  0  0  0  0  0  0  0  0  0  0
   60.4660   28.9030   46.0360 N   0  0  0  0  0  0  0  0  0  0  0  0
   59.4370   28.1580   45.8030 C   0  0  0  0  0  0  0  0  0  0  0  0
   58.9440   27.6850   44.5780 C   0  0  0  0  0  0  0  0  0  0  0  0
   57.8210   26.8960   44.5500 C   0  0  0  0  0  0  0  0  0  0  0  0
   57.1110   26.5130   45.6640 C   0  0  0  0  0  0  0  0  0  0  0  0
   55.9210   25.6740   45.6260 C   0  0  0  0  0  0  0  0  0  0  0  0
   54.8220   26.1630   45.9960 O   0  0  0  0  0  0  0  0  0  0  0  0
   55.9170   24.3290   45.1950 N   0  0  0  0  0  0  0  0  0  0  0  0
   54.7800   23.4660   45.1410 C   0  0  0  0  0  0  0  0  0  0  0  0
   54.3960   23.0030   46.4820 C   0  0  0  0  0  0  0  0  0  0  0  0
   55.3950   22.9540   47.4470 C   0  0  0  0  0  0  0  0  0  0  0  0
   55.1610   22.5310   48.7390 C   0  0  0  0  0  0  0  0  0  0  0  0
   53.8610   22.1430   49.0690 C   0  0  0  0  0  0  0  0  0  0  0  0
   52.9180   22.2010   48.1170 N   0  0  0  0  0  0  0  0  0  0  0  0
   53.1380   22.6110   46.8580 C   0  0  0  0  0  0  0  0  0  0  0  0
   57.5790   26.9660   46.8790 C   0  0  0  0  0  0  0  0  0  0  0  0
   58.6900   27.7490   46.9180 C   0  0  0  0  0  0  0  0  0  0  0  0
   59.5730   28.5130   48.3330 S   0  0  0  0  0  0  0  0  0  0  0  0
   60.8470   32.0870   48.1230 N   0  0  0  0  0  0  0  0  0  0  0  0
   60.4223   34.0288   50.5116 H   0  0  0  0  0  0  0  0  0  0  0  0
   59.2141   35.3189   50.1909 H   0  0  0  0  0  0  0  0  0  0  0  0
   58.7089   33.5951   50.1909 H   0  0  0  0  0  0  0  0  0  0  0  0
   58.0130   35.1635   48.1323 H   0  0  0  0  0  0  0  0  0  0  0  0
   59.4993   35.8395   47.3030 H   0  0  0  0  0  0  0  0  0  0  0  0
   60.2016   35.1967   45.3066 H   0  0  0  0  0  0  0  0  0  0  0  0
   59.7946   34.0695   43.1610 H   0  0  0  0  0  0  0  0  0  0  0  0
   57.9488   32.3893   42.9558 H   0  0  0  0  0  0  0  0  0  0  0  0
   56.9806   33.0467   47.1142 H   0  0  0  0  0  0  0  0  0  0  0  0
   63.9715   33.7972   46.6768 H   0  0  0  0  0  0  0  0  0  0  0  0
   63.8300   31.3910   46.8250 H   0  0  0  0  0  0  0  0  0  0  0  0
   59.4568   27.9461   43.6405 H   0  0  0  0  0  0  0  0  0  0  0  0
   57.4647   26.5462   43.5698 H   0  0  0  0  0  0  0  0  0  0  0  0
   56.8420   23.9330   44.8880 H   0  0  0  0  0  0  0  0  0  0  0  0
   53.9360   24.0130   44.6956 H   0  0  0  0  0  0  0  0  0  0  0  0
   55.0398   22.5876   44.5319 H   0  0  0  0  0  0  0  0  0  0  0  0
   56.4130   23.2650   47.1694 H   0  0  0  0  0  0  0  0  0  0  0  0
   55.9704   22.5004   49.4833 H   0  0  0  0  0  0  0  0  0  0  0  0
   53.6163   21.7983   50.0845 H   0  0  0  0  0  0  0  0  0  0  0  0
   52.3123   22.6322   46.1315 H   0  0  0  0  0  0  0  0  0  0  0  0
   57.0579   26.6962   47.8094 H   0  0  0  0  0  0  0  0  0  0  0  0
  1  2  1  0
  2  3  1  0
  3  4  1  0
  4  5  2  0
  5  6  1  0
  6  7  2  0
  7  8  1  0
  8  9  1  0
  9 10  1  0
 10 11  1  0
 10 12  1  0
 10 13  1  0
  8 14  2  0
  2 15  1  0
 15 16  1  0
 16 17  2  0
 17 18  1  0
 18 19  1  0
 19 20  2  0
 20 21  1  0
 21 22  2  0
 22 23  1  0
 23 24  2  0
 24 25  1  0
 25 26  2  0
 26 27  1  0
 27 28  2  0
 27 29  1  0
 29 30  1  0
 30 31  1  0
 31 32  2  0
 32 33  1  0
 33 34  2  0
 34 35  1  0
 35 36  2  0
 26 37  1  0
 37 38  2  0
 38 39  1  0
 19 40  1  0
 14  4  1  0
 40 15  2  0
 39 21  1  0
 38 23  1  0
 36 31  1  0
  1 41  1  0
  1 42  1  0
  1 43  1  0
  3 44  1  0
  3 45  1  0
  5 46  1  0
  6 47  1  0
  7 48  1  0
 14 49  1  0
 17 50  1  0
 18 51  1  0
 24 52  1  0
 25 53  1  0
 29 54  1  0
 30 55  1  0
 30 56  1  0
 32 57  1  0
 33 58  1  0
 34 59  1  0
 36 60  1  0
 37 61  1  0
M  END
>  <smiles>  (19) 
CN(Cc1cccc(OC(F)(F)F)c1)c1nc[nH]c(=Nc2nc3ccc(C(=O)NCc4cccnc4)cc3s2)n1

>  <score_type>  (19) 
oracle

>  <origin>  (19) 
adg

>  <m_score__min__energy>  (19) 
-9.1699999999999999

>  <m_primary>  (19) 
energy

$$$$
19:0
     RDKit          3D

 45 48  0  0  0  0  0  0  0  0999 V2000
   56.2800   28.0680   45.5390 O   0  0  0  0  0  0  0  0  0  0  0  0
   57.3910   28.2770   44.9860 C   0  0  0  0  0  0  0  0  0  0  0  0
   57.4110   28.2230   43.4990 C   0  0  0  0  0  0  0  0  0  0  0  0
   56.5750   29.7640   42.9580 S   0  0  0  0  0  0  0  0  0  0  0  0
   57.2510   31.0910   43.9500 C   0  0  0  0  0  0  0  0  0  0  0  0
   57.0560   31.3600   45.2540 N   0  0  0  0  0  0  0  0  0  0  0  0
   57.7290   32.4440   45.6550 C   0  0  0  0  0  0  0  0  0  0  0  0
   57.8260   33.0760   46.8780 C   0  0  0  0  0  0  0  0  0  0  0  0
   58.6060   34.2030   47.0230 C   0  0  0  0  0  0  0  0  0  0  0  0
   59.2750   34.6630   45.9060 C   0  0  0  0  0  0  0  0  0  0  0  0
   59.1770   34.0280   44.6830 C   0  0  0  0  0  0  0  0  0  0  0  0
   58.3990   32.8980   44.5270 C   0  0  0  0  0  0  0  0  0  0  0  0
   58.0900   32.0640   43.5200 N   0  0  0  0  0  0  0  0  0  0  0  0
   58.5620   28.5520   45.7430 N   0  0  0  0  0  0  0  0  0  0  0  0
   59.8600   28.7980   45.1460 C   0  0  0  0  0  0  0  0  0  0  0  0
   60.3050   30.1530   45.7080 C   0  0  0  0  0  0  0  0  0  0  0  0
   60.4540   30.0130   47.1360 N   0  0  0  0  0  0  0  0  0  0  0  0
   61.3540   30.8870   47.8360 C   0  0  0  0  0  0  0  0  0  0  0  0
   62.0700   31.8640   47.1800 C   0  0  0  0  0  0  0  0  0  0  0  0
   62.9440   32.7090   47.8460 C   0  0  0  0  0  0  0  0  0  0  0  0
   63.1280   32.5960   49.2040 C   0  0  0  0  0  0  0  0  0  0  0  0
   62.4200   31.6210   49.8910 C   0  0  0  0  0  0  0  0  0  0  0  0
   61.5490   30.7850   49.1980 C   0  0  0  0  0  0  0  0  0  0  0  0
   59.7130   29.0170   47.8730 C   0  0  0  0  0  0  0  0  0  0  0  0
   58.4640   28.5900   47.1730 C   0  0  0  0  0  0  0  0  0  0  0  0
   58.4457   28.1932   43.1269 H   0  0  0  0  0  0  0  0  0  0  0  0
   56.9112   27.3232   43.1110 H   0  0  0  0  0  0  0  0  0  0  0  0
   57.2767   32.6773   47.7436 H   0  0  0  0  0  0  0  0  0  0  0  0
   58.6923   34.7166   47.9919 H   0  0  0  0  0  0  0  0  0  0  0  0
   59.9042   35.5611   45.9925 H   0  0  0  0  0  0  0  0  0  0  0  0
   59.7277   34.4292   43.8194 H   0  0  0  0  0  0  0  0  0  0  0  0
   58.4470   32.1590   42.5570 H   0  0  0  0  0  0  0  0  0  0  0  0
   60.5719   28.0090   45.4300 H   0  0  0  0  0  0  0  0  0  0  0  0
   59.8153   28.8012   44.0469 H   0  0  0  0  0  0  0  0  0  0  0  0
   61.2653   30.4468   45.2590 H   0  0  0  0  0  0  0  0  0  0  0  0
   59.5602   30.9281   45.4745 H   0  0  0  0  0  0  0  0  0  0  0  0
   61.9442   31.9772   46.0931 H   0  0  0  0  0  0  0  0  0  0  0  0
   63.4952   33.4767   47.2832 H   0  0  0  0  0  0  0  0  0  0  0  0
   63.8220   33.2647   49.7343 H   0  0  0  0  0  0  0  0  0  0  0  0
   62.5461   31.5089   50.9780 H   0  0  0  0  0  0  0  0  0  0  0  0
   60.9962   30.0152   49.7565 H   0  0  0  0  0  0  0  0  0  0  0  0
   60.3551   28.1353   48.0157 H   0  0  0  0  0  0  0  0  0  0  0  0
   59.4181   29.4662   48.8328 H   0  0  0  0  0  0  0  0  0  0  0  0
   58.2013   27.5816   47.5254 H   0  0  0  0  0  0  0  0  0  0  0  0
   57.7002   29.3446   47.4122 H   0  0  0  0  0  0  0  0  0  0  0  0
  1  2  2  0
  2  3  1  0
  3  4  1  0
  4  5  1  0
  5  6  2  0
  6  7  1  0
  7  8  2  0
  8  9  1  0
  9 10  2  0
 10 11  1  0
 11 12  2  0
 12 13  1  0
  2 14  1  0
 14 15  1  0
 15 16  1  0
 16 17  1  0
 17 18  1  0
 18 19  2  0
 19 20  1  0
 20 21  2  0
 21 22  1  0
 22 23  2  0
 17 24  1  0
 24 25  1  0
 13  5  1  0
 25 14  1  0
 12  7  1  0
 23 18  1  0
  3 26  1  0
  3 27  1  0
  8 28  1  0
  9 29  1  0
 10 30  1  0
 11 31  1  0
 13 32  1  0
 15 33  1  0
 15 34  1  0
 16 35  1  0
 16 36  1  0
 19 37  1  0
 20 38  1  0
 21 39  1  0
 22 40  1  0
 23 41  1  0
 24 42  1  0
 24 43  1  0
 25 44  1  0
 25 45  1  0
M  END
>  <smiles>  (20) 
O=C(CSc1nc2ccccc2[nH]1)N1CCN(c2ccccc2)CC1

>  <score_type>  (20) 
oracle

>  <origin>  (20) 
adg

>  <m_score__min__energy>  (20) 
-8.1999999999999993

>  <m_primary>  (20) 
energy

$$$$
20:0
     RDKit          3D

 53 57  0  0  0  0  0  0  0  0999 V2000
   56.9620   20.7660   42.9990 C   0  0  0  0  0  0  0  0  0  0  0  0
   56.1050   21.6410   43.7270 O   0  0  0  0  0  0  0  0  0  0  0  0
   56.4670   22.9280   44.1540 C   0  0  0  0  0  0  0  0  0  0  0  0
   57.0220   23.8070   43.2170 C   0  0  0  0  0  0  0  0  0  0  0  0
   57.4000   25.0990   43.5930 C   0  0  0  0  0  0  0  0  0  0  0  0
   57.2280   25.5370   44.9190 C   0  0  0  0  0  0  0  0  0  0  0  0
   57.6230   26.8670   45.3110 N   0  0  0  0  0  0  0  0  0  0  0  0
   58.5810   27.1820   46.2270 C   0  0  0  0  0  0  0  0  0  0  0  0
   58.6220   28.5550   46.3030 C   0  0  0  0  0  0  0  0  0  0  0  0
   59.3820   29.3730   47.0660 N   0  0  0  0  0  0  0  0  0  0  0  0
   59.1940   30.7260   46.9450 C   0  0  0  0  0  0  0  0  0  0  0  0
   60.0300   31.6730   47.7670 C   0  0  0  0  0  0  0  0  0  0  0  0
   60.1770   33.0360   47.0520 C   0  0  0  0  0  0  0  0  0  0  0  0
   61.4600   33.7420   47.5010 C   0  0  0  0  0  0  0  0  0  0  0  0
   62.6680   32.9770   47.1090 N   0  0  0  0  0  0  0  0  0  0  0  0
   63.8380   33.4210   47.8930 C   0  0  0  0  0  0  0  0  0  0  0  0
   63.6140   33.1690   49.3530 C   0  0  0  0  0  0  0  0  0  0  0  0
   64.0530   32.0590   50.0630 C   0  0  0  0  0  0  0  0  0  0  0  0
   63.7060   32.1020   51.4190 C   0  0  0  0  0  0  0  0  0  0  0  0
   63.0050   33.2460   51.7780 C   0  0  0  0  0  0  0  0  0  0  0  0
   62.8140   34.2020   50.4080 S   0  0  0  0  0  0  0  0  0  0  0  0
   62.4970   31.4980   47.1440 C   0  0  0  0  0  0  0  0  0  0  0  0
   61.3990   31.0450   48.1200 C   0  0  0  0  0  0  0  0  0  0  0  0
   58.2580   31.2170   46.0630 N   0  0  0  0  0  0  0  0  0  0  0  0
   57.4910   30.3850   45.2990 C   0  0  0  0  0  0  0  0  0  0  0  0
   56.6330   30.8490   44.5040 O   0  0  0  0  0  0  0  0  0  0  0  0
   57.6920   29.0190   45.4340 C   0  0  0  0  0  0  0  0  0  0  0  0
   57.0820   27.9870   44.8300 N   0  0  0  0  0  0  0  0  0  0  0  0
   56.6680   24.6540   45.8590 C   0  0  0  0  0  0  0  0  0  0  0  0
   56.2920   23.3610   45.4810 C   0  0  0  0  0  0  0  0  0  0  0  0
   57.5533   20.1623   43.7032 H   0  0  0  0  0  0  0  0  0  0  0  0
   56.3555   20.1017   42.3659 H   0  0  0  0  0  0  0  0  0  0  0  0
   57.6388   21.3586   42.3659 H   0  0  0  0  0  0  0  0  0  0  0  0
   57.1618   23.4785   42.1765 H   0  0  0  0  0  0  0  0  0  0  0  0
   57.8356   25.7790   42.8461 H   0  0  0  0  0  0  0  0  0  0  0  0
   59.2021   26.4747   46.7962 H   0  0  0  0  0  0  0  0  0  0  0  0
   59.5108   31.8595   48.7187 H   0  0  0  0  0  0  0  0  0  0  0  0
   60.2155   32.8722   45.9649 H   0  0  0  0  0  0  0  0  0  0  0  0
   59.3144   33.6679   47.3101 H   0  0  0  0  0  0  0  0  0  0  0  0
   61.5013   34.7379   47.0358 H   0  0  0  0  0  0  0  0  0  0  0  0
   61.4436   33.8220   48.5980 H   0  0  0  0  0  0  0  0  0  0  0  0
   64.7281   32.8661   47.5617 H   0  0  0  0  0  0  0  0  0  0  0  0
   63.9849   34.4997   47.7353 H   0  0  0  0  0  0  0  0  0  0  0  0
   64.6156   31.2310   49.6070 H   0  0  0  0  0  0  0  0  0  0  0  0
   63.9641   31.3053   52.1322 H   0  0  0  0  0  0  0  0  0  0  0  0
   62.6374   33.4858   52.7867 H   0  0  0  0  0  0  0  0  0  0  0  0
   62.2334   31.1513   46.1339 H   0  0  0  0  0  0  0  0  0  0  0  0
   63.4464   31.0643   47.4913 H   0  0  0  0  0  0  0  0  0  0  0  0
   61.3114   29.9494   48.0755 H   0  0  0  0  0  0  0  0  0  0  0  0
   61.6791   31.3756   49.1311 H   0  0  0  0  0  0  0  0  0  0  0  0
   56.3030   28.0460   44.1350 H   0  0  0  0  0  0  0  0  0  0  0  0
   56.5246   24.9824   46.8990 H   0  0  0  0  0  0  0  0  0  0  0  0
   55.8568   22.6785   46.2258 H   0  0  0  0  0  0  0  0  0  0  0  0
  1  2  1  0
  2  3  1  0
  3  4  2  0
  4  5  1  0
  5  6  2  0
  6  7  1  0
  7  8  1  0
  8  9  2  0
  9 10  1  0
 10 11  1  0
 11 12  1  0
 12 13  1  0
 13 14  1  0
 14 15  1  0
 15 16  1  0
 16 17  1  0
 17 18  2  0
 18 19  1  0
 19 20  2  0
 20 21  1  0
 15 22  1  0
 22 23  1  0
 11 24  2  0
 24 25  1  0
 25 26  2  0
 25 27  1  0
 27 28  2  0
  6 29  1  0
 29 30  2  0
 30  3  1  0
 28  7  1  0
 27  9  1  0
 23 12  1  0
 21 17  1  0
  1 31  1  0
  1 32  1  0
  1 33  1  0
  4 34  1  0
  5 35  1  0
  8 36  1  0
 12 37  1  0
 13 38  1  0
 13 39  1  0
 14 40  1  0
 14 41  1  0
 16 42  1  0
 16 43  1  0
 18 44  1  0
 19 45  1  0
 20 46  1  0
 22 47  1  0
 22 48  1  0
 23 49  1  0
 23 50  1  0
 28 51  1  0
 29 52  1  0
 30 53  1  0
M  CHG  2  10  -1  28   1
M  END
>  <UniqueID>  (21) 
16

>  <SMILES>  (21) 
COc1ccc(-n2cc3[n-]c(C4CCN(Cc5cccs5)CC4)nc(=O)c3[nH+]2)cc1

>  <Energy>  (21) 
137.88465871782424

>  <Genealogy>  (21) 
COc1ccc(-n2cc3[n-]c(C4CCN(Cc5cccs5)CC4)nc(=O)c3[nH+]2)cc1 (protonated)
COc1ccc(-n2cc3[n-]c(C4CCN(Cc5cccs5)CC4)nc(=O)c3[nH+]2)cc1 (3D coordinates assigned)
COc1ccc(-n2cc3[n-]c(C4CCN(Cc5cccs5)CC4)nc(=O)c3[nH+]2)cc1 (nonaromatic ring conformer: 137.88465871782424 kcal/mol)

>  <smiles>  (21) 
COc1ccc(-n2cc3[nH]c(C4CCN(Cc5cccs5)CC4)nc(=O)c3n2)cc1

>  <score_type>  (21) 
oracle

>  <origin>  (21) 
adg

>  <m_score__min__energy>  (21) 
-8.2200000000000006

>  <m_primary>  (21) 
energy

$$$$
21:0
     RDKit          3D

 29 31  0  0  0  0  0  0  0  0999 V2000
   59.2710   31.3140   48.7700 C   0  0  0  0  0  0  0  0  0  0  0  0
   58.3260   32.0960   48.0470 O   0  0  0  0  0  0  0  0  0  0  0  0
   58.6610   33.0920   47.1140 C   0  0  0  0  0  0  0  0  0  0  0  0
   59.2530   34.3090   47.5100 C   0  0  0  0  0  0  0  0  0  0  0  0
   59.5650   35.2870   46.5630 C   0  0  0  0  0  0  0  0  0  0  0  0
   59.2980   35.0630   45.2130 C   0  0  0  0  0  0  0  0  0  0  0  0
   58.7160   33.8620   44.8040 C   0  0  0  0  0  0  0  0  0  0  0  0
   58.3850   32.8720   45.7470 C   0  0  0  0  0  0  0  0  0  0  0  0
   57.7890   31.5900   45.2980 C   0  0  0  0  0  0  0  0  0  0  0  0
   56.4970   31.5770   44.8710 N   0  0  0  0  0  0  0  0  0  0  0  0
   55.8970   30.4570   44.4630 N   0  0  0  0  0  0  0  0  0  0  0  0
   56.5450   29.2660   44.4510 C   0  0  0  0  0  0  0  0  0  0  0  0
   57.8780   29.2050   44.8650 C   0  0  0  0  0  0  0  0  0  0  0  0
   58.5980   28.0040   44.8540 C   0  0  0  0  0  0  0  0  0  0  0  0
   59.9340   27.9930   45.2570 C   0  0  0  0  0  0  0  0  0  0  0  0
   60.5370   29.1860   45.6650 C   0  0  0  0  0  0  0  0  0  0  0  0
   59.8250   30.3440   45.6730 N   0  0  0  0  0  0  0  0  0  0  0  0
   58.5150   30.3850   45.2950 C   0  0  0  0  0  0  0  0  0  0  0  0
   59.1086   31.4484   49.8496 H   0  0  0  0  0  0  0  0  0  0  0  0
   59.1446   30.2528   48.5095 H   0  0  0  0  0  0  0  0  0  0  0  0
   60.2898   31.6367   48.5095 H   0  0  0  0  0  0  0  0  0  0  0  0
   59.4708   34.4895   48.5730 H   0  0  0  0  0  0  0  0  0  0  0  0
   60.0219   36.2352   46.8826 H   0  0  0  0  0  0  0  0  0  0  0  0
   59.5464   35.8341   44.4689 H   0  0  0  0  0  0  0  0  0  0  0  0
   58.5147   33.6884   43.7366 H   0  0  0  0  0  0  0  0  0  0  0  0
   56.0255   28.3554   44.1181 H   0  0  0  0  0  0  0  0  0  0  0  0
   58.1121   27.0723   44.5288 H   0  0  0  0  0  0  0  0  0  0  0  0
   60.5072   27.0541   45.2536 H   0  0  0  0  0  0  0  0  0  0  0  0
   61.5908   29.1879   45.9806 H   0  0  0  0  0  0  0  0  0  0  0  0
  1  2  1  0
  2  3  1  0
  3  4  2  0
  4  5  1  0
  5  6  2  0
  6  7  1  0
  7  8  2  0
  8  9  1  0
  9 10  2  0
 10 11  1  0
 11 12  2  0
 12 13  1  0
 13 14  2  0
 14 15  1  0
 15 16  2  0
 16 17  1  0
 17 18  2  0
  8  3  1  0
 18  9  1  0
 18 13  1  0
  1 19  1  0
  1 20  1  0
  1 21  1  0
  4 22  1  0
  5 23  1  0
  6 24  1  0
  7 25  1  0
 12 26  1  0
 14 27  1  0
 15 28  1  0
 16 29  1  0
M  END
>  <UniqueID>  (22) 
17

>  <SMILES>  (22) 
COc1ccccc1-c1nncc2cccnc12

>  <Energy>  (22) 
42.923593378333656

>  <Genealogy>  (22) 
COc1ccccc1-c1nncc2cccnc12 (3D coordinates assigned)
COc1ccccc1-c1nncc2cccnc12 (optimized conformer: 42.923593378333656 kcal/mol)

>  <smiles>  (22) 
COc1ccccc1-c1nncc2cccnc12

>  <score_type>  (22) 
oracle

>  <origin>  (22) 
adg

>  <m_score__min__energy>  (22) 
-7.1100000000000003

>  <m_primary>  (22) 
energy

$$$$
22:0
     RDKit          3D

 32 34  0  0  0  0  0  0  0  0999 V2000
   55.3550   29.3430   44.8650 O   0  0  0  0  0  0  0  0  0  0  0  0
   56.3940   30.0150   44.6360 C   0  0  0  0  0  0  0  0  0  0  0  0
   57.7130   29.2950   44.5010 C   0  0  0  0  0  0  0  0  0  0  0  0
   58.2230   28.8580   45.8050 N   0  0  0  0  0  0  0  0  0  0  0  0
   57.7970   27.8070   46.5530 C   0  0  0  0  0  0  0  0  0  0  0  0
   56.8640   27.0350   46.2050 O   0  0  0  0  0  0  0  0  0  0  0  0
   58.4720   27.6660   47.7180 N   0  0  0  0  0  0  0  0  0  0  0  0
   59.3490   28.6840   47.7040 C   0  0  0  0  0  0  0  0  0  0  0  0
   60.2930   29.0180   48.6730 C   0  0  0  0  0  0  0  0  0  0  0  0
   61.0990   30.1480   48.4360 C   0  0  0  0  0  0  0  0  0  0  0  0
   60.9390   30.9070   47.2530 C   0  0  0  0  0  0  0  0  0  0  0  0
   59.9760   30.5430   46.2950 C   0  0  0  0  0  0  0  0  0  0  0  0
   59.1970   29.4130   46.5550 C   0  0  0  0  0  0  0  0  0  0  0  0
   56.2870   31.4420   44.5480 N   0  0  0  0  0  0  0  0  0  0  0  0
   57.2920   32.3700   44.9680 C   0  0  0  0  0  0  0  0  0  0  0  0
   57.3800   32.7160   46.3220 C   0  0  0  0  0  0  0  0  0  0  0  0
   58.3640   33.6090   46.7580 C   0  0  0  0  0  0  0  0  0  0  0  0
   59.2510   34.1760   45.8390 C   0  0  0  0  0  0  0  0  0  0  0  0
   59.1480   33.8590   44.4810 C   0  0  0  0  0  0  0  0  0  0  0  0
   58.1690   32.9620   44.0410 C   0  0  0  0  0  0  0  0  0  0  0  0
   58.0550   32.6960   42.7160 F   0  0  0  0  0  0  0  0  0  0  0  0
   57.5748   28.4135   43.8576 H   0  0  0  0  0  0  0  0  0  0  0  0
   58.4424   29.9908   44.0607 H   0  0  0  0  0  0  0  0  0  0  0  0
   58.3370   26.9410   48.4570 H   0  0  0  0  0  0  0  0  0  0  0  0
   60.4045   28.4206   49.5899 H   0  0  0  0  0  0  0  0  0  0  0  0
   61.8581   30.4425   49.1756 H   0  0  0  0  0  0  0  0  0  0  0  0
   61.5731   31.7892   47.0810 H   0  0  0  0  0  0  0  0  0  0  0  0
   59.8409   31.1277   45.3731 H   0  0  0  0  0  0  0  0  0  0  0  0
   56.6727   32.2839   47.0452 H   0  0  0  0  0  0  0  0  0  0  0  0
   58.4398   33.8653   47.8250 H   0  0  0  0  0  0  0  0  0  0  0  0
   60.0302   34.8716   46.1839 H   0  0  0  0  0  0  0  0  0  0  0  0
   59.8385   34.3161   43.7570 H   0  0  0  0  0  0  0  0  0  0  0  0
  1  2  2  0
  2  3  1  0
  3  4  1  0
  4  5  1  0
  5  6  2  0
  5  7  1  0
  7  8  1  0
  8  9  2  0
  9 10  1  0
 10 11  2  0
 11 12  1  0
 12 13  2  0
  2 14  1  0
 14 15  1  0
 15 16  2  0
 16 17  1  0
 17 18  2  0
 18 19  1  0
 19 20  2  0
 20 21  1  0
 13  4  1  0
 20 15  1  0
 13  8  1  0
  3 22  1  0
  3 23  1  0
  7 24  1  0
  9 25  1  0
 10 26  1  0
 11 27  1  0
 12 28  1  0
 16 29  1  0
 17 30  1  0
 18 31  1  0
 19 32  1  0
M  CHG  1  14  -1
M  END
>  <UniqueID>  (23) 
18

>  <SMILES>  (23) 
O=C(Cn1c(=O)[nH]c2ccccc21)[N-]c1ccccc1F

>  <Energy>  (23) 
78.53032008017199

>  <Genealogy>  (23) 
O=C(Cn1c(=O)[nH]c2ccccc21)[N-]c1ccccc1F (protonated)
O=C(Cn1c(=O)[nH]c2ccccc21)[N-]c1ccccc1F (3D coordinates assigned)
O=C(Cn1c(=O)[nH]c2ccccc21)[N-]c1ccccc1F (optimized conformer: 78.53032008017199 kcal/mol)

>  <smiles>  (23) 
O=C(Cn1c(=O)[nH]c2ccccc21)Nc1ccccc1F

>  <score_type>  (23) 
oracle

>  <origin>  (23) 
adg

>  <m_score__min__energy>  (23) 
-9.0500000000000007

>  <m_primary>  (23) 
energy

$$$$
23:0
     RDKit          3D

 52 55  0  0  0  0  0  0  0  0999 V2000
   64.8630   32.1850   49.7030 C   0  0  0  0  0  0  0  0  0  0  0  0
   64.1390   31.6440   48.6020 O   0  0  0  0  0  0  0  0  0  0  0  0
   62.9570   32.2020   48.0950 C   0  0  0  0  0  0  0  0  0  0  0  0
   63.0510   33.2740   47.2040 C   0  0  0  0  0  0  0  0  0  0  0  0
   61.8980   33.8480   46.6640 C   0  0  0  0  0  0  0  0  0  0  0  0
   60.6340   33.3670   47.0260 C   0  0  0  0  0  0  0  0  0  0  0  0
   59.1960   34.1640   46.3990 S   0  0  0  0  0  0  0  0  0  0  0  0
   58.0210   33.7100   47.2100 O   0  0  0  0  0  0  0  0  0  0  0  0
   59.3210   35.6540   46.5060 O   0  0  0  0  0  0  0  0  0  0  0  0
   58.9360   33.7230   44.7460 N   0  0  0  0  0  0  0  0  0  0  0  0
   58.3090   32.5070   44.3230 C   0  0  0  0  0  0  0  0  0  0  0  0
   57.7660   32.3680   43.0400 C   0  0  0  0  0  0  0  0  0  0  0  0
   57.2820   31.1340   42.6080 C   0  0  0  0  0  0  0  0  0  0  0  0
   57.3130   30.0160   43.4640 C   0  0  0  0  0  0  0  0  0  0  0  0
   56.9290   28.7440   43.0220 O   0  0  0  0  0  0  0  0  0  0  0  0
   57.8000   27.6300   42.9090 C   0  0  0  0  0  0  0  0  0  0  0  0
   57.7670   30.1740   44.7900 C   0  0  0  0  0  0  0  0  0  0  0  0
   57.7710   29.0420   45.7530 C   0  0  0  0  0  0  0  0  0  0  0  0
   58.6440   28.9430   46.8400 C   0  0  0  0  0  0  0  0  0  0  0  0
   58.3480   27.4900   47.6300 S   0  0  0  0  0  0  0  0  0  0  0  0
   57.1380   27.0350   46.5600 C   0  0  0  0  0  0  0  0  0  0  0  0
   56.4480   25.9350   46.5950 N   0  0  0  0  0  0  0  0  0  0  0  0
   56.2290   25.0130   45.5150 C   0  0  0  0  0  0  0  0  0  0  0  0
   54.9480   24.4500   45.3550 C   0  0  0  0  0  0  0  0  0  0  0  0
   54.6830   23.5870   44.2830 C   0  0  0  0  0  0  0  0  0  0  0  0
   55.6880   23.3020   43.3480 C   0  0  0  0  0  0  0  0  0  0  0  0
   56.9580   23.8760   43.4870 C   0  0  0  0  0  0  0  0  0  0  0  0
   57.2290   24.7390   44.5560 C   0  0  0  0  0  0  0  0  0  0  0  0
   56.9320   27.9810   45.6200 N   0  0  0  0  0  0  0  0  0  0  0  0
   58.2620   31.4250   45.2040 C   0  0  0  0  0  0  0  0  0  0  0  0
   60.5320   32.2940   47.9150 C   0  0  0  0  0  0  0  0  0  0  0  0
   61.6820   31.7160   48.4530 C   0  0  0  0  0  0  0  0  0  0  0  0
   64.4072   31.8444   50.6444 H   0  0  0  0  0  0  0  0  0  0  0  0
   65.9080   31.8447   49.6574 H   0  0  0  0  0  0  0  0  0  0  0  0
   64.8328   33.2836   49.6574 H   0  0  0  0  0  0  0  0  0  0  0  0
   64.0395   33.6685   46.9260 H   0  0  0  0  0  0  0  0  0  0  0  0
   61.9833   34.6815   45.9513 H   0  0  0  0  0  0  0  0  0  0  0  0
   57.7210   33.2381   42.3685 H   0  0  0  0  0  0  0  0  0  0  0  0
   56.8732   31.0329   41.5918 H   0  0  0  0  0  0  0  0  0  0  0  0
   58.0760   27.2770   43.9136 H   0  0  0  0  0  0  0  0  0  0  0  0
   57.2921   26.8214   42.3629 H   0  0  0  0  0  0  0  0  0  0  0  0
   58.7072   27.9278   42.3629 H   0  0  0  0  0  0  0  0  0  0  0  0
   59.3976   29.6902   47.1294 H   0  0  0  0  0  0  0  0  0  0  0  0
   54.1515   24.6888   46.0751 H   0  0  0  0  0  0  0  0  0  0  0  0
   53.6867   23.1334   44.1753 H   0  0  0  0  0  0  0  0  0  0  0  0
   55.4790   22.6272   42.5048 H   0  0  0  0  0  0  0  0  0  0  0  0
   57.7455   23.6480   42.7537 H   0  0  0  0  0  0  0  0  0  0  0  0
   58.2216   25.2039   44.6489 H   0  0  0  0  0  0  0  0  0  0  0  0
   56.2150   27.8900   44.8660 H   0  0  0  0  0  0  0  0  0  0  0  0
   58.6172   31.5520   46.2373 H   0  0  0  0  0  0  0  0  0  0  0  0
   59.5415   31.9036   48.1916 H   0  0  0  0  0  0  0  0  0  0  0  0
   61.5942   30.8775   49.1596 H   0  0  0  0  0  0  0  0  0  0  0  0
  1  2  1  0
  2  3  1  0
  3  4  2  0
  4  5  1  0
  5  6  2  0
  6  7  1  0
  7  8  2  0
  7  9  2  0
  7 10  1  0
 10 11  1  0
 11 12  2  0
 12 13  1  0
 13 14  2  0
 14 15  1  0
 15 16  1  0
 14 17  1  0
 17 18  1  0
 18 19  2  0
 19 20  1  0
 20 21  1  0
 21 22  2  3
 22 23  1  0
 23 24  2  0
 24 25  1  0
 25 26  2  0
 26 27  1  0
 27 28  2  0
 21 29  1  0
 17 30  2  0
  6 31  1  0
 31 32  2  0
 32  3  1  0
 30 11  1  0
 29 18  1  0
 28 23  1  0
  1 33  1  0
  1 34  1  0
  1 35  1  0
  4 36  1  0
  5 37  1  0
 12 38  1  0
 13 39  1  0
 16 40  1  0
 16 41  1  0
 16 42  1  0
 19 43  1  0
 24 44  1  0
 25 45  1  0
 26 46  1  0
 27 47  1  0
 28 48  1  0
 29 49  1  0
 30 50  1  0
 31 51  1  0
 32 52  1  0
M  CHG  1  10  -1
M  END
>  <UniqueID>  (24) 
19

>  <SMILES>  (24) 
COc1ccc(S(=O)(=O)[N-]c2ccc(OC)c(-c3csc(=Nc4ccccc4)[nH]3)c2)cc1

>  <Energy>  (24) 
102.97108437796206

>  <Genealogy>  (24) 
COc1ccc(S(=O)(=O)[N-]c2ccc(OC)c(-c3csc(=Nc4ccccc4)[nH]3)c2)cc1 (protonated)
COc1ccc(S(=O)(=O)[N-]c2ccc(OC)c(-c3csc(=Nc4ccccc4)[nH]3)c2)cc1 (3D coordinates assigned)
COc1ccc(S(=O)(=O)[N-]c2ccc(OC)c(-c3csc(=Nc4ccccc4)[nH]3)c2)cc1 (optimized conformer: 102.97108437796206 kcal/mol)

>  <smiles>  (24) 
COc1ccc(S(=O)(=O)Nc2ccc(OC)c(-c3csc(=Nc4ccccc4)[nH]3)c2)cc1

>  <score_type>  (24) 
oracle

>  <origin>  (24) 
adg

>  <m_score__min__energy>  (24) 
-11.050000000000001

>  <m_primary>  (24) 
energy

$$$$
24:0
     RDKit          3D

 38 40  0  0  0  0  0  0  0  0999 V2000
   60.8190   28.5970   44.8370 C   0  0  0  0  0  0  0  0  0  0  0  0
   60.3880   28.0940   46.2110 C   0  0  0  0  0  0  0  0  0  0  0  0
   59.0000   27.6060   46.1670 N   0  0  0  0  0  0  0  0  0  0  0  0
   58.6540   26.3600   46.6520 C   0  0  0  0  0  0  0  0  0  0  0  0
   59.5500   25.6040   47.1230 O   0  0  0  0  0  0  0  0  0  0  0  0
   57.3360   25.9320   46.6250 N   0  0  0  0  0  0  0  0  0  0  0  0
   56.9930   24.5840   47.1100 C   0  0  0  0  0  0  0  0  0  0  0  0
   56.3590   26.7360   46.0820 C   0  0  0  0  0  0  0  0  0  0  0  0
   55.1600   26.3530   46.0000 O   0  0  0  0  0  0  0  0  0  0  0  0
   56.7210   27.9880   45.6200 C   0  0  0  0  0  0  0  0  0  0  0  0
   55.9510   28.9340   45.0650 N   0  0  0  0  0  0  0  0  0  0  0  0
   56.8500   29.9240   44.8170 C   0  0  0  0  0  0  0  0  0  0  0  0
   56.4820   31.1930   44.1110 C   0  0  0  0  0  0  0  0  0  0  0  0
   57.7270   32.0060   43.7340 C   0  0  0  0  0  0  0  0  0  0  0  0
   58.1760   32.8960   44.8660 C   0  0  0  0  0  0  0  0  0  0  0  0
   58.9630   34.0290   44.6110 C   0  0  0  0  0  0  0  0  0  0  0  0
   59.3360   34.8690   45.6620 C   0  0  0  0  0  0  0  0  0  0  0  0
   58.9120   34.5730   46.9590 C   0  0  0  0  0  0  0  0  0  0  0  0
   58.1420   33.4770   47.1900 N   0  0  0  0  0  0  0  0  0  0  0  0
   57.7670   32.6420   46.1840 C   0  0  0  0  0  0  0  0  0  0  0  0
   58.1290   29.6300   45.1700 N   0  0  0  0  0  0  0  0  0  0  0  0
   58.0040   28.3950   45.6800 C   0  0  0  0  0  0  0  0  0  0  0  0
   61.5305   29.4273   44.9571 H   0  0  0  0  0  0  0  0  0  0  0  0
   61.3007   27.7788   44.2815 H   0  0  0  0  0  0  0  0  0  0  0  0
   59.9367   28.9476   44.2815 H   0  0  0  0  0  0  0  0  0  0  0  0
   61.0512   27.2729   46.5207 H   0  0  0  0  0  0  0  0  0  0  0  0
   60.4518   28.9235   46.9306 H   0  0  0  0  0  0  0  0  0  0  0  0
   56.9918   24.5794   48.2100 H   0  0  0  0  0  0  0  0  0  0  0  0
   55.9951   24.3045   46.7411 H   0  0  0  0  0  0  0  0  0  0  0  0
   57.7359   23.8615   46.7411 H   0  0  0  0  0  0  0  0  0  0  0  0
   55.9261   30.9445   43.1949 H   0  0  0  0  0  0  0  0  0  0  0  0
   55.8650   31.8000   44.7899 H   0  0  0  0  0  0  0  0  0  0  0  0
   58.5424   31.3125   43.4808 H   0  0  0  0  0  0  0  0  0  0  0  0
   57.4723   32.6451   42.8757 H   0  0  0  0  0  0  0  0  0  0  0  0
   59.2859   34.2553   43.5841 H   0  0  0  0  0  0  0  0  0  0  0  0
   59.9581   35.7557   45.4701 H   0  0  0  0  0  0  0  0  0  0  0  0
   59.2014   35.2273   47.7945 H   0  0  0  0  0  0  0  0  0  0  0  0
   57.1410   31.7647   46.4043 H   0  0  0  0  0  0  0  0  0  0  0  0
  1  2  1  0
  2  3  1  0
  3  4  1  0
  4  5  2  0
  4  6  1  0
  6  7  1  0
  6  8  1  0
  8  9  2  0
  8 10  1  0
 10 11  1  0
 11 12  2  0
 12 13  1  0
 13 14  1  0
 14 15  1  0
 15 16  2  0
 16 17  1  0
 17 18  2  0
 18 19  1  0
 19 20  2  0
 12 21  1  0
 21 22  1  0
 22  3  1  0
 22 10  2  0
 20 15  1  0
  1 23  1  0
  1 24  1  0
  1 25  1  0
  2 26  1  0
  2 27  1  0
  7 28  1  0
  7 29  1  0
  7 30  1  0
 13 31  1  0
 13 32  1  0
 14 33  1  0
 14 34  1  0
 16 35  1  0
 17 36  1  0
 18 37  1  0
 20 38  1  0
M  CHG  1  21  -1
M  END
>  <UniqueID>  (25) 
20

>  <SMILES>  (25) 
CCn1c(=O)n(C)c(=O)c2nc(CCc3cccnc3)[n-]c21

>  <Energy>  (25) 
75.76880185610693

>  <Genealogy>  (25) 
CCn1c(=O)n(C)c(=O)c2nc(CCc3cccnc3)[n-]c21 (protonated)
CCn1c(=O)n(C)c(=O)c2nc(CCc3cccnc3)[n-]c21 (3D coordinates assigned)
CCn1c(=O)n(C)c(=O)c2nc(CCc3cccnc3)[n-]c21 (optimized conformer: 75.76880185610693 kcal/mol)

>  <smiles>  (25) 
CCn1c(=O)n(C)c(=O)c2nc(CCc3cccnc3)[nH]c21

>  <score_type>  (25) 
oracle

>  <origin>  (25) 
adg

>  <m_score__min__energy>  (25) 
-8.9700000000000006

>  <m_primary>  (25) 
energy

$$$$
25:0
     RDKit          3D

 49 51  0  0  1  0  0  0  0  0999 V2000
   57.4500   33.3520   46.5270 C   0  0  0  0  0  0  0  0  0  0  0  0
   57.5420   32.1280   45.8570 O   0  0  0  0  0  0  0  0  0  0  0  0
   57.4950   31.9970   44.4960 C   0  0  0  0  0  0  0  0  0  0  0  0
   58.0320   32.8890   43.5960 C   0  0  0  0  0  0  0  0  0  0  0  0
   57.9610   32.7160   42.2280 C   0  0  0  0  0  0  0  0  0  0  0  0
   57.3070   31.5740   41.7750 C   0  0  0  0  0  0  0  0  0  0  0  0
   56.7540   30.6530   42.6180 C   0  0  0  0  0  0  0  0  0  0  0  0
   56.8510   30.8710   43.9870 C   0  0  0  0  0  0  0  0  0  0  0  0
   56.2760   29.9130   44.8990 N   0  0  0  0  0  0  0  0  0  0  0  0
   57.1000   29.1330   45.5310 C   0  0  0  0  0  0  0  0  0  0  0  0
   57.2070   27.8580   45.1160 N   0  0  0  0  0  0  0  0  0  0  0  0
   58.0660   27.0380   45.7720 C   0  0  0  0  0  0  0  0  0  0  0  0
   58.1650   25.6220   45.2880 C   0  0  0  0  0  0  0  0  0  0  0  0
   58.8250   27.4630   46.8370 C   0  0  0  0  0  0  0  0  0  0  0  0
   59.9160   26.3720   47.6490 Cl  0  0  0  0  0  0  0  0  0  0  0  0
   58.6840   28.7750   47.2280 C   0  0  0  0  0  0  0  0  0  0  0  0
   59.3500   29.2280   48.1970 N   0  0  0  0  0  0  0  0  0  0  0  0
   60.3160   30.2680   48.1520 C   0  0  0  0  0  0  0  0  0  0  0  0
   61.4590   30.1750   48.9610 C   0  0  0  0  0  0  0  0  0  0  0  0
   62.4080   31.2030   48.9430 C   0  0  0  0  0  0  0  0  0  0  0  0
   62.2040   32.3130   48.1150 C   0  0  0  0  0  0  0  0  0  0  0  0
   63.3740   33.6040   48.0790 S   0  0  0  0  0  0  0  0  0  0  0  0
   64.9050   33.0420   48.6590 N   0  0  0  0  0  0  0  0  0  0  0  0
   62.9200   34.7110   49.0070 O   0  0  0  0  0  0  0  0  0  0  0  0
   63.5170   34.1830   46.6880 O   0  0  0  0  0  0  0  0  0  0  0  0
   61.0760   32.4130   47.3110 C   0  0  0  0  0  0  0  0  0  0  0  0
   60.8170   33.5660   46.4220 C   0  0  0  0  0  0  0  0  0  0  0  0
   60.1330   31.3920   47.3300 C   0  0  0  0  0  0  0  0  0  0  0  0
   57.8320   29.5910   46.5800 N   0  0  0  0  0  0  0  0  0  0  0  0
   57.4631   33.1774   47.6130 H   0  0  0  0  0  0  0  0  0  0  0  0
   58.3029   33.9880   46.2475 H   0  0  0  0  0  0  0  0  0  0  0  0
   56.5116   33.8534   46.2475 H   0  0  0  0  0  0  0  0  0  0  0  0
   58.5422   33.7825   43.9851 H   0  0  0  0  0  0  0  0  0  0  0  0
   58.3997   33.4448   41.5306 H   0  0  0  0  0  0  0  0  0  0  0  0
   57.2323   31.4060   40.6905 H   0  0  0  0  0  0  0  0  0  0  0  0
   56.2448   29.7613   42.2235 H   0  0  0  0  0  0  0  0  0  0  0  0
   56.6560   27.4720   44.3090 H   0  0  0  0  0  0  0  0  0  0  0  0
   58.2125   24.9419   46.1513 H   0  0  0  0  0  0  0  0  0  0  0  0
   57.2816   25.3801   44.6789 H   0  0  0  0  0  0  0  0  0  0  0  0
   59.0735   25.5054   44.6789 H   0  0  0  0  0  0  0  0  0  0  0  0
   61.6083   29.2972   49.6069 H   0  0  0  0  0  0  0  0  0  0  0  0
   63.3067   31.1394   49.5741 H   0  0  0  0  0  0  0  0  0  0  0  0
   64.8980   31.9820   48.6160 H   0  0  0  0  0  0  0  0  0  0  0  0
   65.6650   33.3780   48.0550 H   0  0  0  0  0  0  0  0  0  0  0  0
   60.6161   34.4602   47.0303 H   0  0  0  0  0  0  0  0  0  0  0  0
   61.6974   33.7446   45.7872 H   0  0  0  0  0  0  0  0  0  0  0  0
   59.9448   33.3509   45.7872 H   0  0  0  0  0  0  0  0  0  0  0  0
   59.2367   31.4649   46.6965 H   0  0  0  0  0  0  0  0  0  0  0  0
   57.7500   30.5750   46.8990 H   0  0  0  0  0  0  0  0  0  0  0  0
  1  2  1  0
  2  3  1  0
  3  4  2  0
  4  5  1  0
  5  6  2  0
  6  7  1  0
  7  8  2  0
  8  9  1  0
  9 10  2  0
 10 11  1  0
 11 12  1  0
 12 13  1  0
 12 14  2  0
 14 15  1  0
 14 16  1  0
 16 17  2  0
 17 18  1  0
 18 19  2  0
 19 20  1  0
 20 21  2  0
 21 22  1  0
 22 23  1  0
 22 24  2  0
 22 25  2  0
 21 26  1  0
 26 27  1  0
 26 28  2  0
 16 29  1  0
  8  3  1  0
 29 10  1  0
 28 18  1  0
  1 30  1  0
  1 31  1  0
  1 32  1  0
  4 33  1  0
  5 34  1  0
  6 35  1  0
  7 36  1  0
 11 37  1  0
 13 38  1  0
 13 39  1  0
 13 40  1  0
 19 41  1  0
 20 42  1  0
 23 43  1  0
 23 44  1  0
 27 45  1  0
 27 46  1  0
 27 47  1  0
 28 48  1  0
 29 49  1  0
M  END
>  <smiles>  (26) 
COc1ccccc1N=c1[nH]c(C)c(Cl)c(=Nc2ccc(S(N)(=O)=O)c(C)c2)[nH]1

>  <score_type>  (26) 
oracle

>  <origin>  (26) 
adg

>  <m_score__min__energy>  (26) 
-9.1899999999999995

>  <m_primary>  (26) 
energy

$$$$
26:0
     RDKit          3D

 21 23  0  0  0  0  0  0  0  0999 V2000
   57.6260   33.5640   44.1230 O   0  0  0  0  0  0  0  0  0  0  0  0
   57.9740   32.4150   44.5030 C   0  0  0  0  0  0  0  0  0  0  0  0
   57.5290   31.1450   43.9420 C   0  0  0  0  0  0  0  0  0  0  0  0
   56.6570   30.8650   42.8990 C   0  0  0  0  0  0  0  0  0  0  0  0
   56.4280   29.5560   42.5920 N   0  0  0  0  0  0  0  0  0  0  0  0
   57.0180   28.5560   43.2650 N   0  0  0  0  0  0  0  0  0  0  0  0
   57.8810   28.8000   44.2950 C   0  0  0  0  0  0  0  0  0  0  0  0
   58.1360   30.1230   44.6340 C   0  0  0  0  0  0  0  0  0  0  0  0
   58.9930   30.7030   45.6660 C   0  0  0  0  0  0  0  0  0  0  0  0
   59.8040   30.0780   46.6120 C   0  0  0  0  0  0  0  0  0  0  0  0
   60.5330   30.8880   47.4990 C   0  0  0  0  0  0  0  0  0  0  0  0
   60.4400   32.2930   47.4270 C   0  0  0  0  0  0  0  0  0  0  0  0
   59.6170   32.9080   46.4660 C   0  0  0  0  0  0  0  0  0  0  0  0
   59.5050   34.8160   46.3860 Br  0  0  0  0  0  0  0  0  0  0  0  0
   58.8980   32.0850   45.5920 C   0  0  0  0  0  0  0  0  0  0  0  0
   56.1660   31.6735   42.3376 H   0  0  0  0  0  0  0  0  0  0  0  0
   56.8120   27.5700   42.9940 H   0  0  0  0  0  0  0  0  0  0  0  0
   58.3601   27.9734   44.8401 H   0  0  0  0  0  0  0  0  0  0  0  0
   59.8714   28.9812   46.6627 H   0  0  0  0  0  0  0  0  0  0  0  0
   61.1815   30.4222   48.2557 H   0  0  0  0  0  0  0  0  0  0  0  0
   61.0162   32.9140   48.1287 H   0  0  0  0  0  0  0  0  0  0  0  0
  1  2  2  0
  2  3  1  0
  3  4  2  0
  4  5  1  0
  5  6  2  0
  6  7  1  0
  7  8  2  0
  8  9  1  0
  9 10  2  0
 10 11  1  0
 11 12  2  0
 12 13  1  0
 13 14  1  0
 13 15  2  0
 15  2  1  0
  8  3  1  0
 15  9  1  0
  4 16  1  0
  6 17  1  0
  7 18  1  0
 10 19  1  0
 11 20  1  0
 12 21  1  0
M  CHG  1   6   1
M  END
>  <UniqueID>  (27) 
21

>  <SMILES>  (27) 
O=C1c2cn[nH+]cc2-c2cccc(Br)c21

>  <Energy>  (27) 
59.839930274029676

>  <Genealogy>  (27) 
O=C1c2cn[nH+]cc2-c2cccc(Br)c21 (protonated)
O=C1c2cn[nH+]cc2-c2cccc(Br)c21 (3D coordinates assigned)
O=C1c2cn[nH+]cc2-c2cccc(Br)c21 (nonaromatic ring conformer: 59.839930274029676 kcal/mol)

>  <smiles>  (27) 
O=C1c2cnncc2-c2cccc(Br)c21

>  <score_type>  (27) 
oracle

>  <origin>  (27) 
adg

>  <m_score__min__energy>  (27) 
-5.6699999999999999

>  <m_primary>  (27) 
energy

$$$$
27:0
     RDKit          3D

 41 44  0  0  0  0  0  0  0  0999 V2000
   57.6910   24.1160   45.1540 C   0  0  0  0  0  0  0  0  0  0  0  0
   57.8620   25.1360   46.1330 O   0  0  0  0  0  0  0  0  0  0  0  0
   57.9150   26.5080   45.8460 C   0  0  0  0  0  0  0  0  0  0  0  0
   59.1210   27.2260   45.8160 C   0  0  0  0  0  0  0  0  0  0  0  0
   59.1230   28.5910   45.5270 C   0  0  0  0  0  0  0  0  0  0  0  0
   57.9210   29.2730   45.2600 C   0  0  0  0  0  0  0  0  0  0  0  0
   57.9480   30.7280   44.9650 C   0  0  0  0  0  0  0  0  0  0  0  0
   57.6180   31.3370   43.7710 C   0  0  0  0  0  0  0  0  0  0  0  0
   57.7500   32.6690   43.9020 N   0  0  0  0  0  0  0  0  0  0  0  0
   58.1700   32.8300   45.1740 C   0  0  0  0  0  0  0  0  0  0  0  0
   58.4100   34.1680   45.7940 C   0  0  0  0  0  0  0  0  0  0  0  0
   59.6810   34.1390   46.5800 C   0  0  0  0  0  0  0  0  0  0  0  0
   59.7180   34.3450   47.9230 N   0  0  0  0  0  0  0  0  0  0  0  0
   61.0140   34.1630   48.2070 C   0  0  0  0  0  0  0  0  0  0  0  0
   61.6360   34.2480   49.4500 C   0  0  0  0  0  0  0  0  0  0  0  0
   63.0220   34.0010   49.5070 C   0  0  0  0  0  0  0  0  0  0  0  0
   63.7380   33.6760   48.3320 C   0  0  0  0  0  0  0  0  0  0  0  0
   63.0750   33.5960   47.0930 C   0  0  0  0  0  0  0  0  0  0  0  0
   61.7050   33.8500   47.0760 C   0  0  0  0  0  0  0  0  0  0  0  0
   60.8790   33.8210   46.0220 N   0  0  0  0  0  0  0  0  0  0  0  0
   58.2970   31.6730   45.8570 N   0  0  0  0  0  0  0  0  0  0  0  0
   56.7030   28.5550   45.2830 C   0  0  0  0  0  0  0  0  0  0  0  0
   55.5030   29.2280   44.9950 O   0  0  0  0  0  0  0  0  0  0  0  0
   55.1330   29.7190   43.7110 C   0  0  0  0  0  0  0  0  0  0  0  0
   56.7160   27.1770   45.5800 C   0  0  0  0  0  0  0  0  0  0  0  0
   57.5291   23.1502   45.6551 H   0  0  0  0  0  0  0  0  0  0  0  0
   56.8201   24.3534   44.5253 H   0  0  0  0  0  0  0  0  0  0  0  0
   58.5917   24.0564   44.5253 H   0  0  0  0  0  0  0  0  0  0  0  0
   60.0701   26.7093   46.0216 H   0  0  0  0  0  0  0  0  0  0  0  0
   60.0755   29.1408   45.5076 H   0  0  0  0  0  0  0  0  0  0  0  0
   57.2977   30.8154   42.8570 H   0  0  0  0  0  0  0  0  0  0  0  0
   58.4865   34.9289   45.0033 H   0  0  0  0  0  0  0  0  0  0  0  0
   57.5731   34.4141   46.4641 H   0  0  0  0  0  0  0  0  0  0  0  0
   61.0650   34.4993   50.3560 H   0  0  0  0  0  0  0  0  0  0  0  0
   63.5495   34.0613   50.4704 H   0  0  0  0  0  0  0  0  0  0  0  0
   64.8198   33.4845   48.3865 H   0  0  0  0  0  0  0  0  0  0  0  0
   63.6188   33.3421   46.1712 H   0  0  0  0  0  0  0  0  0  0  0  0
   54.4748   30.5925   43.8282 H   0  0  0  0  0  0  0  0  0  0  0  0
   56.0365   30.0125   43.1563 H   0  0  0  0  0  0  0  0  0  0  0  0
   54.6019   28.9314   43.1563 H   0  0  0  0  0  0  0  0  0  0  0  0
   55.7682   26.6192   45.6029 H   0  0  0  0  0  0  0  0  0  0  0  0
  1  2  1  0
  2  3  1  0
  3  4  2  0
  4  5  1  0
  5  6  2  0
  6  7  1  0
  7  8  2  0
  8  9  1  0
  9 10  1  0
 10 11  1  0
 11 12  1  0
 12 13  2  0
 13 14  1  0
 14 15  2  0
 15 16  1  0
 16 17  2  0
 17 18  1  0
 18 19  2  0
 19 20  1  0
 10 21  2  0
  6 22  1  0
 22 23  1  0
 23 24  1  0
 22 25  2  0
 25  3  1  0
 21  7  1  0
 20 12  1  0
 19 14  1  0
  1 26  1  0
  1 27  1  0
  1 28  1  0
  4 29  1  0
  5 30  1  0
  8 31  1  0
 11 32  1  0
 11 33  1  0
 15 34  1  0
 16 35  1  0
 17 36  1  0
 18 37  1  0
 24 38  1  0
 24 39  1  0
 24 40  1  0
 25 41  1  0
M  CHG  2   9  -1  20  -1
M  END
>  <UniqueID>  (28) 
22

>  <SMILES>  (28) 
COc1ccc(-c2c[n-]c(Cc3nc4ccccc4[n-]3)n2)c(OC)c1

>  <Energy>  (28) 
106.84003917504245

>  <Genealogy>  (28) 
COc1ccc(-c2c[n-]c(Cc3nc4ccccc4[n-]3)n2)c(OC)c1 (protonated)
COc1ccc(-c2c[n-]c(Cc3nc4ccccc4[n-]3)n2)c(OC)c1 (3D coordinates assigned)
COc1ccc(-c2c[n-]c(Cc3nc4ccccc4[n-]3)n2)c(OC)c1 (optimized conformer: 106.84003917504245 kcal/mol)

>  <smiles>  (28) 
COc1ccc(-c2c[nH]c(Cc3nc4ccccc4[nH]3)n2)c(OC)c1

>  <score_type>  (28) 
oracle

>  <origin>  (28) 
adg

>  <m_score__min__energy>  (28) 
-9.3800000000000008

>  <m_primary>  (28) 
energy

$$$$
28:0
     RDKit          3D

 48 52  0  0  0  0  0  0  0  0999 V2000
   58.4630   22.5820   45.4820 C   0  0  0  0  0  0  0  0  0  0  0  0
   58.4360   23.6430   46.4290 O   0  0  0  0  0  0  0  0  0  0  0  0
   58.1980   24.9870   46.1070 C   0  0  0  0  0  0  0  0  0  0  0  0
   59.2730   25.7670   45.6660 C   0  0  0  0  0  0  0  0  0  0  0  0
   59.0870   27.1120   45.3340 C   0  0  0  0  0  0  0  0  0  0  0  0
   57.8200   27.7030   45.4530 C   0  0  0  0  0  0  0  0  0  0  0  0
   57.6140   29.1260   45.1030 C   0  0  0  0  0  0  0  0  0  0  0  0
   56.8020   29.5020   44.0360 C   0  0  0  0  0  0  0  0  0  0  0  0
   56.9030   31.1650   43.8470 S   0  0  0  0  0  0  0  0  0  0  0  0
   57.9560   31.4500   45.1270 C   0  0  0  0  0  0  0  0  0  0  0  0
   58.4200   32.7960   45.5310 C   0  0  0  0  0  0  0  0  0  0  0  0
   58.8590   33.7270   44.5740 C   0  0  0  0  0  0  0  0  0  0  0  0
   59.2940   34.9950   44.9710 C   0  0  0  0  0  0  0  0  0  0  0  0
   59.3080   35.3400   46.3250 C   0  0  0  0  0  0  0  0  0  0  0  0
   58.8920   34.4140   47.2850 C   0  0  0  0  0  0  0  0  0  0  0  0
   58.4550   33.1450   46.8930 C   0  0  0  0  0  0  0  0  0  0  0  0
   58.2560   30.2230   45.7340 C   0  0  0  0  0  0  0  0  0  0  0  0
   59.1780   30.1000   46.8830 C   0  0  0  0  0  0  0  0  0  0  0  0
   58.9510   29.1540   47.8940 C   0  0  0  0  0  0  0  0  0  0  0  0
   59.8390   29.0780   48.9670 C   0  0  0  0  0  0  0  0  0  0  0  0
   59.6440   28.2270   49.8770 O   0  0  0  0  0  0  0  0  0  0  0  0
   60.9340   29.9550   49.0190 C   0  0  0  0  0  0  0  0  0  0  0  0
   61.8650   29.9370   50.0740 C   0  0  0  0  0  0  0  0  0  0  0  0
   62.9330   30.8390   50.0790 C   0  0  0  0  0  0  0  0  0  0  0  0
   63.0820   31.7610   49.0390 C   0  0  0  0  0  0  0  0  0  0  0  0
   62.1640   31.7860   47.9860 C   0  0  0  0  0  0  0  0  0  0  0  0
   61.0910   30.8890   47.9680 C   0  0  0  0  0  0  0  0  0  0  0  0
   60.2230   30.9210   46.9620 O   0  0  0  0  0  0  0  0  0  0  0  0
   56.7360   26.9210   45.8800 C   0  0  0  0  0  0  0  0  0  0  0  0
   56.9220   25.5740   46.2110 C   0  0  0  0  0  0  0  0  0  0  0  0
   58.4875   21.6183   46.0117 H   0  0  0  0  0  0  0  0  0  0  0  0
   57.5633   22.6308   44.8510 H   0  0  0  0  0  0  0  0  0  0  0  0
   59.3590   22.6765   44.8510 H   0  0  0  0  0  0  0  0  0  0  0  0
   60.2733   25.3176   45.5799 H   0  0  0  0  0  0  0  0  0  0  0  0
   59.9385   27.7103   44.9775 H   0  0  0  0  0  0  0  0  0  0  0  0
   56.1956   28.8217   43.4200 H   0  0  0  0  0  0  0  0  0  0  0  0
   58.8603   33.4568   43.5077 H   0  0  0  0  0  0  0  0  0  0  0  0
   59.6260   35.7227   44.2158 H   0  0  0  0  0  0  0  0  0  0  0  0
   59.6463   36.3398   46.6348 H   0  0  0  0  0  0  0  0  0  0  0  0
   58.9083   34.6838   48.3513 H   0  0  0  0  0  0  0  0  0  0  0  0
   58.1372   32.4163   47.6533 H   0  0  0  0  0  0  0  0  0  0  0  0
   58.0831   28.4803   47.8411 H   0  0  0  0  0  0  0  0  0  0  0  0
   61.7524   29.2133   50.8947 H   0  0  0  0  0  0  0  0  0  0  0  0
   63.6593   30.8231   50.9050 H   0  0  0  0  0  0  0  0  0  0  0  0
   63.9241   32.4686   49.0496 H   0  0  0  0  0  0  0  0  0  0  0  0
   62.2854   32.5128   47.1693 H   0  0  0  0  0  0  0  0  0  0  0  0
   55.7343   27.3693   45.9550 H   0  0  0  0  0  0  0  0  0  0  0  0
   56.0681   24.9712   46.5538 H   0  0  0  0  0  0  0  0  0  0  0  0
  1  2  1  0
  2  3  1  0
  3  4  2  0
  4  5  1  0
  5  6  2  0
  6  7  1  0
  7  8  2  0
  8  9  1  0
  9 10  1  0
 10 11  1  0
 11 12  2  0
 12 13  1  0
 13 14  2  0
 14 15  1  0
 15 16  2  0
 10 17  2  0
 17 18  1  0
 18 19  2  0
 19 20  1  0
 20 21  2  0
 20 22  1  0
 22 23  2  0
 23 24  1  0
 24 25  2  0
 25 26  1  0
 26 27  2  0
 27 28  1  0
  6 29  1  0
 29 30  2  0
 30  3  1  0
 17  7  1  0
 28 18  1  0
 16 11  1  0
 27 22  1  0
  1 31  1  0
  1 32  1  0
  1 33  1  0
  4 34  1  0
  5 35  1  0
  8 36  1  0
 12 37  1  0
 13 38  1  0
 14 39  1  0
 15 40  1  0
 16 41  1  0
 19 42  1  0
 23 43  1  0
 24 44  1  0
 25 45  1  0
 26 46  1  0
 29 47  1  0
 30 48  1  0
M  END
>  <UniqueID>  (29) 
23

>  <SMILES>  (29) 
COc1ccc(-c2csc(-c3ccccc3)c2-c2cc(=O)c3ccccc3o2)cc1

>  <Energy>  (29) 
98.36545795227289

>  <Genealogy>  (29) 
COc1ccc(-c2csc(-c3ccccc3)c2-c2cc(=O)c3ccccc3o2)cc1 (3D coordinates assigned)
COc1ccc(-c2csc(-c3ccccc3)c2-c2cc(=O)c3ccccc3o2)cc1 (optimized conformer: 98.36545795227289 kcal/mol)

>  <smiles>  (29) 
COc1ccc(-c2csc(-c3ccccc3)c2-c2cc(=O)c3ccccc3o2)cc1

>  <score_type>  (29) 
oracle

>  <origin>  (29) 
adg

>  <m_score__min__energy>  (29) 
-9.0199999999999996

>  <m_primary>  (29) 
energy

$$$$
29:0
     RDKit          3D

 39 40  0  0  0  0  0  0  0  0999 V2000
   56.2490   30.0200   42.6790 C   0  0  0  0  0  0  0  0  0  0  0  0
   56.1050   30.1120   44.1600 C   0  0  0  0  0  0  0  0  0  0  0  0
   55.1190   29.5660   44.7260 O   0  0  0  0  0  0  0  0  0  0  0  0
   57.0930   30.7610   44.9080 O   0  0  0  0  0  0  0  0  0  0  0  0
   58.4370   30.2900   45.0070 C   0  0  0  0  0  0  0  0  0  0  0  0
   58.5060   29.0660   45.8870 C   0  0  0  0  0  0  0  0  0  0  0  0
   57.5540   28.0450   45.7180 C   0  0  0  0  0  0  0  0  0  0  0  0
   57.5450   26.9290   46.5630 C   0  0  0  0  0  0  0  0  0  0  0  0
   56.3530   25.6530   46.3370 S   0  0  0  0  0  0  0  0  0  0  0  0
   54.8080   26.3470   45.9940 N   0  0  0  0  0  0  0  0  0  0  0  0
   56.2670   24.8230   47.5860 O   0  0  0  0  0  0  0  0  0  0  0  0
   56.7550   24.7780   45.1820 O   0  0  0  0  0  0  0  0  0  0  0  0
   58.4910   26.8280   47.5880 C   0  0  0  0  0  0  0  0  0  0  0  0
   59.4390   27.8350   47.7680 C   0  0  0  0  0  0  0  0  0  0  0  0
   59.4690   28.9480   46.9160 C   0  0  0  0  0  0  0  0  0  0  0  0
   60.7220   30.2120   47.1990 S   0  0  0  0  0  0  0  0  0  0  0  0
   59.8860   30.8970   48.6340 C   0  0  0  0  0  0  0  0  0  0  0  0
   58.8900   31.8660   48.4650 C   0  0  0  0  0  0  0  0  0  0  0  0
   58.2360   32.4040   49.5790 C   0  0  0  0  0  0  0  0  0  0  0  0
   58.5730   31.9750   50.8710 C   0  0  0  0  0  0  0  0  0  0  0  0
   57.9000   32.5800   52.0680 C   0  0  0  0  0  0  0  0  0  0  0  0
   59.5990   31.0310   51.0390 C   0  0  0  0  0  0  0  0  0  0  0  0
   60.2510   30.4940   49.9250 C   0  0  0  0  0  0  0  0  0  0  0  0
   57.1526   29.4427   42.4336 H   0  0  0  0  0  0  0  0  0  0  0  0
   55.3668   29.5178   42.2553 H   0  0  0  0  0  0  0  0  0  0  0  0
   56.3339   31.0316   42.2553 H   0  0  0  0  0  0  0  0  0  0  0  0
   58.8058   30.0347   44.0026 H   0  0  0  0  0  0  0  0  0  0  0  0
   59.0591   31.0816   45.4502 H   0  0  0  0  0  0  0  0  0  0  0  0
   56.8084   28.1241   44.9132 H   0  0  0  0  0  0  0  0  0  0  0  0
   54.6390   27.0850   46.7140 H   0  0  0  0  0  0  0  0  0  0  0  0
   58.4874   25.9524   48.2538 H   0  0  0  0  0  0  0  0  0  0  0  0
   60.1700   27.7552   48.5861 H   0  0  0  0  0  0  0  0  0  0  0  0
   58.6207   32.2054   47.4539 H   0  0  0  0  0  0  0  0  0  0  0  0
   57.4549   33.1661   49.4408 H   0  0  0  0  0  0  0  0  0  0  0  0
   58.3508   32.1748   52.9859 H   0  0  0  0  0  0  0  0  0  0  0  0
   58.0284   33.6723   52.0478 H   0  0  0  0  0  0  0  0  0  0  0  0
   56.8275   32.3364   52.0478 H   0  0  0  0  0  0  0  0  0  0  0  0
   59.8907   30.7129   52.0508 H   0  0  0  0  0  0  0  0  0  0  0  0
   61.0525   29.7533   50.0626 H   0  0  0  0  0  0  0  0  0  0  0  0
  1  2  1  0
  2  3  2  0
  2  4  1  0
  4  5  1  0
  5  6  1  0
  6  7  2  0
  7  8  1  0
  8  9  1  0
  9 10  1  0
  9 11  2  0
  9 12  2  0
  8 13  2  0
 13 14  1  0
 14 15  2  0
 15 16  1  0
 16 17  1  0
 17 18  2  0
 18 19  1  0
 19 20  2  0
 20 21  1  0
 20 22  1  0
 22 23  2  0
 15  6  1  0
 23 17  1  0
  1 24  1  0
  1 25  1  0
  1 26  1  0
  5 27  1  0
  5 28  1  0
  7 29  1  0
 10 30  1  0
 13 31  1  0
 14 32  1  0
 18 33  1  0
 19 34  1  0
 21 35  1  0
 21 36  1  0
 21 37  1  0
 22 38  1  0
 23 39  1  0
M  CHG  1  10  -1
M  END
>  <UniqueID>  (30) 
24

>  <SMILES>  (30) 
CC(=O)OCc1cc(S([NH-])(=O)=O)ccc1Sc1ccc(C)cc1

>  <Energy>  (30) 
31.500641889078132

>  <Genealogy>  (30) 
CC(=O)OCc1cc(S([NH-])(=O)=O)ccc1Sc1ccc(C)cc1 (protonated)
CC(=O)OCc1cc(S([NH-])(=O)=O)ccc1Sc1ccc(C)cc1 (3D coordinates assigned)
CC(=O)OCc1cc(S([NH-])(=O)=O)ccc1Sc1ccc(C)cc1 (optimized conformer: 31.500641889078132 kcal/mol)

>  <smiles>  (30) 
CC(=O)OCc1cc(S(N)(=O)=O)ccc1Sc1ccc(C)cc1

>  <score_type>  (30) 
oracle

>  <origin>  (30) 
adg

>  <m_score__min__energy>  (30) 
-11.25

>  <m_primary>  (30) 
energy

$$$$
30:0
     RDKit          3D

 27 27  0  0  0  0  0  0  0  0999 V2000
   57.7250   32.3480   41.1640 C   0  0  0  0  0  0  0  0  0  0  0  0
   57.0600   31.5320   42.2650 C   0  0  0  0  0  0  0  0  0  0  0  0
   58.0680   31.0220   43.2030 N   0  0  0  0  0  0  0  0  0  0  0  0
   57.3610   30.6490   44.7500 S   0  0  0  0  0  0  0  0  0  0  0  0
   55.9310   30.2200   44.5670 O   0  0  0  0  0  0  0  0  0  0  0  0
   57.3750   31.8830   45.6080 O   0  0  0  0  0  0  0  0  0  0  0  0
   58.2830   29.3750   45.5580 C   0  0  0  0  0  0  0  0  0  0  0  0
   58.6320   29.5200   46.9100 C   0  0  0  0  0  0  0  0  0  0  0  0
   59.3490   28.5180   47.5670 C   0  0  0  0  0  0  0  0  0  0  0  0
   59.7790   28.7080   49.2560 Cl  0  0  0  0  0  0  0  0  0  0  0  0
   59.7220   27.3620   46.8780 C   0  0  0  0  0  0  0  0  0  0  0  0
   59.3770   27.2050   45.5330 C   0  0  0  0  0  0  0  0  0  0  0  0
   58.6520   28.2080   44.8600 C   0  0  0  0  0  0  0  0  0  0  0  0
   58.2840   28.0770   43.5110 O   0  0  0  0  0  0  0  0  0  0  0  0
   58.1160   26.8340   42.8370 C   0  0  0  0  0  0  0  0  0  0  0  0
   58.3586   33.1255   41.6157 H   0  0  0  0  0  0  0  0  0  0  0  0
   58.3445   31.6865   40.5406 H   0  0  0  0  0  0  0  0  0  0  0  0
   56.9521   32.8213   40.5406 H   0  0  0  0  0  0  0  0  0  0  0  0
   56.3480   32.1698   42.8093 H   0  0  0  0  0  0  0  0  0  0  0  0
   56.5327   30.6807   41.8097 H   0  0  0  0  0  0  0  0  0  0  0  0
   58.4430   30.1230   42.8220 H   0  0  0  0  0  0  0  0  0  0  0  0
   58.3387   30.4291   47.4555 H   0  0  0  0  0  0  0  0  0  0  0  0
   60.2885   26.5735   47.3950 H   0  0  0  0  0  0  0  0  0  0  0  0
   59.6736   26.2919   44.9960 H   0  0  0  0  0  0  0  0  0  0  0  0
   58.0070   26.0274   43.5770 H   0  0  0  0  0  0  0  0  0  0  0  0
   57.2156   26.8775   42.2067 H   0  0  0  0  0  0  0  0  0  0  0  0
   58.9957   26.6369   42.2067 H   0  0  0  0  0  0  0  0  0  0  0  0
  1  2  1  0
  2  3  1  0
  3  4  1  0
  4  5  2  0
  4  6  2  0
  4  7  1  0
  7  8  2  0
  8  9  1  0
  9 10  1  0
  9 11  2  0
 11 12  1  0
 12 13  2  0
 13 14  1  0
 14 15  1  0
 13  7  1  0
  1 16  1  0
  1 17  1  0
  1 18  1  0
  2 19  1  0
  2 20  1  0
  3 21  1  0
  8 22  1  0
 11 23  1  0
 12 24  1  0
 15 25  1  0
 15 26  1  0
 15 27  1  0
M  END
>  <UniqueID>  (31) 
25

>  <SMILES>  (31) 
CCNS(=O)(=O)c1cc(Cl)ccc1OC

>  <Energy>  (31) 
21.41746716326315

>  <Genealogy>  (31) 
CCNS(=O)(=O)c1cc(Cl)ccc1OC (3D coordinates assigned)
CCNS(=O)(=O)c1cc(Cl)ccc1OC (optimized conformer: 21.41746716326315 kcal/mol)

>  <smiles>  (31) 
CCNS(=O)(=O)c1cc(Cl)ccc1OC

>  <score_type>  (31) 
oracle

>  <origin>  (31) 
adg

>  <m_score__min__energy>  (31) 
-6.4299999999999997

>  <m_primary>  (31) 
energy

$$$$
31:0
     RDKit          3D

 32 33  0  0  0  0  0  0  0  0999 V2000
   60.0990   28.8030   48.0800 C   0  0  0  0  0  0  0  0  0  0  0  0
   59.3850   28.6910   46.7750 C   0  0  0  0  0  0  0  0  0  0  0  0
   58.3160   29.4770   46.3670 C   0  0  0  0  0  0  0  0  0  0  0  0
   57.7940   29.1000   45.1200 C   0  0  0  0  0  0  0  0  0  0  0  0
   56.4390   29.9630   44.3890 S   0  0  0  0  0  0  0  0  0  0  0  0
   56.4870   29.8730   42.8900 O   0  0  0  0  0  0  0  0  0  0  0  0
   55.1620   29.3310   44.8640 O   0  0  0  0  0  0  0  0  0  0  0  0
   56.4430   31.6420   44.8560 N   0  0  0  0  0  0  0  0  0  0  0  0
   57.6100   32.3500   44.3240 C   0  0  0  0  0  0  0  0  0  0  0  0
   58.2700   33.1940   45.3820 C   0  0  0  0  0  0  0  0  0  0  0  0
   59.0290   34.3170   45.0240 C   0  0  0  0  0  0  0  0  0  0  0  0
   59.6520   35.0800   46.0110 C   0  0  0  0  0  0  0  0  0  0  0  0
   59.5100   34.7150   47.3510 C   0  0  0  0  0  0  0  0  0  0  0  0
   58.7690   33.6240   47.6880 N   0  0  0  0  0  0  0  0  0  0  0  0
   58.1510   32.8650   46.7410 C   0  0  0  0  0  0  0  0  0  0  0  0
   58.4420   27.9910   44.5660 C   0  0  0  0  0  0  0  0  0  0  0  0
   58.1330   27.3130   43.2710 C   0  0  0  0  0  0  0  0  0  0  0  0
   59.6600   27.5020   45.6210 S   0  0  0  0  0  0  0  0  0  0  0  0
   59.3782   28.6899   48.9032 H   0  0  0  0  0  0  0  0  0  0  0  0
   60.8618   28.0135   48.1495 H   0  0  0  0  0  0  0  0  0  0  0  0
   60.5835   29.7881   48.1495 H   0  0  0  0  0  0  0  0  0  0  0  0
   57.9177   30.3122   46.9619 H   0  0  0  0  0  0  0  0  0  0  0  0
   58.3358   31.6130   43.9498 H   0  0  0  0  0  0  0  0  0  0  0  0
   57.2730   33.0125   43.5131 H   0  0  0  0  0  0  0  0  0  0  0  0
   59.1330   34.5961   43.9651 H   0  0  0  0  0  0  0  0  0  0  0  0
   60.2499   35.9615   45.7363 H   0  0  0  0  0  0  0  0  0  0  0  0
   59.9982   35.3106   48.1365 H   0  0  0  0  0  0  0  0  0  0  0  0
   58.6720   33.3620   48.6940 H   0  0  0  0  0  0  0  0  0  0  0  0
   57.5560   31.9904   47.0427 H   0  0  0  0  0  0  0  0  0  0  0  0
   57.6844   26.3286   43.4704 H   0  0  0  0  0  0  0  0  0  0  0  0
   57.4263   27.9281   42.6946 H   0  0  0  0  0  0  0  0  0  0  0  0
   59.0608   27.1831   42.6946 H   0  0  0  0  0  0  0  0  0  0  0  0
  1  2  1  0
  2  3  2  0
  3  4  1  0
  4  5  1  0
  5  6  2  0
  5  7  2  0
  5  8  1  0
  8  9  1  0
  9 10  1  0
 10 11  2  0
 11 12  1  0
 12 13  2  0
 13 14  1  0
 14 15  2  0
  4 16  2  0
 16 17  1  0
 16 18  1  0
 18  2  1  0
 15 10  1  0
  1 19  1  0
  1 20  1  0
  1 21  1  0
  3 22  1  0
  9 23  1  0
  9 24  1  0
 11 25  1  0
 12 26  1  0
 13 27  1  0
 14 28  1  0
 15 29  1  0
 17 30  1  0
 17 31  1  0
 17 32  1  0
M  CHG  2   8  -1  14   1
M  END
>  <UniqueID>  (32) 
26

>  <SMILES>  (32) 
Cc1cc(S(=O)(=O)[N-]Cc2ccc[nH+]c2)c(C)s1

>  <Energy>  (32) 
54.33202459437849

>  <Genealogy>  (32) 
Cc1cc(S(=O)(=O)[N-]Cc2ccc[nH+]c2)c(C)s1 (protonated)
Cc1cc(S(=O)(=O)[N-]Cc2ccc[nH+]c2)c(C)s1 (3D coordinates assigned)
Cc1cc(S(=O)(=O)[N-]Cc2ccc[nH+]c2)c(C)s1 (optimized conformer: 54.33202459437849 kcal/mol)

>  <smiles>  (32) 
Cc1cc(S(=O)(=O)NCc2cccnc2)c(C)s1

>  <score_type>  (32) 
oracle

>  <origin>  (32) 
adg

>  <m_score__min__energy>  (32) 
-7.4100000000000001

>  <m_primary>  (32) 
energy

$$$$
32:0
     RDKit          3D

 45 46  0  0  0  0  0  0  0  0999 V2000
   56.8640   27.1010   45.6580 C   0  0  0  0  0  0  0  0  0  0  0  0
   57.2100   28.4680   45.1280 C   0  0  0  0  0  0  0  0  0  0  0  0
   56.1760   29.3460   44.7560 C   0  0  0  0  0  0  0  0  0  0  0  0
   56.4680   30.6170   44.2610 C   0  0  0  0  0  0  0  0  0  0  0  0
   57.7960   31.0310   44.1280 C   0  0  0  0  0  0  0  0  0  0  0  0
   58.1650   32.6660   43.4920 S   0  0  0  0  0  0  0  0  0  0  0  0
   57.4760   33.5210   44.9520 C   0  0  0  0  0  0  0  0  0  0  0  0
   57.7320   32.7170   46.2360 C   0  0  0  0  0  0  0  0  0  0  0  0
   59.1640   32.7140   46.6330 N   0  0  1  0  0  0  0  0  0  0  0  0
   59.5480   33.9080   47.4280 C   0  0  0  0  0  0  0  0  0  0  0  0
   61.0550   34.2570   47.3790 C   0  0  0  0  0  0  0  0  0  0  0  0
   61.8880   33.1900   46.7790 N   0  0  0  0  0  0  0  0  0  0  0  0
   63.2300   33.7120   46.4680 C   0  0  0  0  0  0  0  0  0  0  0  0
   61.9750   31.9230   47.5480 C   0  0  0  0  0  0  0  0  0  0  0  0
   60.9180   30.8820   47.1690 C   0  0  0  0  0  0  0  0  0  0  0  0
   59.5330   31.4720   47.2870 C   0  0  0  0  0  0  0  0  0  0  0  0
   58.7000   30.8730   47.9520 O   0  0  0  0  0  0  0  0  0  0  0  0
   58.8340   30.1710   44.4980 C   0  0  0  0  0  0  0  0  0  0  0  0
   58.5560   28.8870   44.9970 C   0  0  0  0  0  0  0  0  0  0  0  0
   59.6980   27.9820   45.3830 C   0  0  0  0  0  0  0  0  0  0  0  0
   56.8693   27.1220   46.7578 H   0  0  0  0  0  0  0  0  0  0  0  0
   55.8643   26.8118   45.3016 H   0  0  0  0  0  0  0  0  0  0  0  0
   57.6057   26.3710   45.3016 H   0  0  0  0  0  0  0  0  0  0  0  0
   55.1279   29.0275   44.8563 H   0  0  0  0  0  0  0  0  0  0  0  0
   55.6507   31.2952   43.9746 H   0  0  0  0  0  0  0  0  0  0  0  0
   57.9499   34.5092   45.0464 H   0  0  0  0  0  0  0  0  0  0  0  0
   56.3894   33.6247   44.8156 H   0  0  0  0  0  0  0  0  0  0  0  0
   57.1412   33.1589   47.0519 H   0  0  0  0  0  0  0  0  0  0  0  0
   57.4385   31.6751   46.0405 H   0  0  0  0  0  0  0  0  0  0  0  0
   59.7370   32.7870   45.7580 H   0  0  0  0  0  0  0  0  0  0  0  0
   58.9833   34.7710   47.0455 H   0  0  0  0  0  0  0  0  0  0  0  0
   59.3166   33.6717   48.4771 H   0  0  0  0  0  0  0  0  0  0  0  0
   61.1812   35.1736   46.7840 H   0  0  0  0  0  0  0  0  0  0  0  0
   61.3919   34.3853   48.4183 H   0  0  0  0  0  0  0  0  0  0  0  0
   63.7681   33.9213   47.4043 H   0  0  0  0  0  0  0  0  0  0  0  0
   63.7876   32.9652   45.8837 H   0  0  0  0  0  0  0  0  0  0  0  0
   63.1364   34.6393   45.8837 H   0  0  0  0  0  0  0  0  0  0  0  0
   62.9686   31.4834   47.3763 H   0  0  0  0  0  0  0  0  0  0  0  0
   61.7984   32.1818   48.6024 H   0  0  0  0  0  0  0  0  0  0  0  0
   61.0860   30.5557   46.1320 H   0  0  0  0  0  0  0  0  0  0  0  0
   61.0002   30.0243   47.8528 H   0  0  0  0  0  0  0  0  0  0  0  0
   59.8781   30.5023   44.3977 H   0  0  0  0  0  0  0  0  0  0  0  0
   59.7677   27.9268   46.4794 H   0  0  0  0  0  0  0  0  0  0  0  0
   59.5220   26.9755   44.9756 H   0  0  0  0  0  0  0  0  0  0  0  0
   60.6377   28.3833   44.9756 H   0  0  0  0  0  0  0  0  0  0  0  0
  1  2  1  0
  2  3  2  0
  3  4  1  0
  4  5  2  0
  5  6  1  0
  6  7  1  0
  7  8  1  0
  8  9  1  0
  9 10  1  0
 10 11  1  0
 11 12  1  0
 12 13  1  0
 12 14  1  0
 14 15  1  0
 15 16  1  0
 16 17  2  0
  5 18  1  0
 18 19  2  0
 19 20  1  0
 19  2  1  0
 16  9  1  0
  1 21  1  0
  1 22  1  0
  1 23  1  0
  3 24  1  0
  4 25  1  0
  7 26  1  0
  7 27  1  0
  8 28  1  0
  8 29  1  0
  9 30  1  6
 10 31  1  0
 10 32  1  0
 11 33  1  0
 11 34  1  0
 13 35  1  0
 13 36  1  0
 13 37  1  0
 14 38  1  0
 14 39  1  0
 15 40  1  0
 15 41  1  0
 18 42  1  0
 20 43  1  0
 20 44  1  0
 20 45  1  0
M  CHG  1   9   1
M  END
>  <UniqueID>  (33) 
27

>  <SMILES>  (33) 
Cc1ccc(SCC[N@H+]2CCN(C)CCC2=O)cc1C

>  <Energy>  (33) 
55.04253818947258

>  <Genealogy>  (33) 
Cc1ccc(SCC[NH+]2CCN(C)CCC2=O)cc1C (protonated)
Cc1ccc(SCC[N@H+]2CCN(C)CCC2=O)cc1C (chirality)
Cc1ccc(SCC[N@H+]2CCN(C)CCC2=O)cc1C (3D coordinates assigned)
Cc1ccc(SCC[N@H+]2CCN(C)CCC2=O)cc1C (nonaromatic ring conformer: 55.04253818947258 kcal/mol)

>  <smiles>  (33) 
Cc1ccc(SCCN2CCN(C)CCC2=O)cc1C

>  <score_type>  (33) 
oracle

>  <origin>  (33) 
adg

>  <m_score__min__energy>  (33) 
-3.73

>  <m_primary>  (33) 
energy

$$$$
33:0
     RDKit          3D

 39 41  0  0  1  0  0  0  0  0999 V2000
   58.9320   28.8940   48.1680 C   0  0  0  0  0  0  0  0  0  0  0  0
   58.8090   27.5120   47.5670 C   0  0  0  0  0  0  0  0  0  0  0  0
   57.5550   27.2870   46.9770 O   0  0  0  0  0  0  0  0  0  0  0  0
   57.3920   26.3770   45.9690 C   0  0  0  0  0  0  0  0  0  0  0  0
   56.7890   25.1510   46.0700 C   0  0  0  0  0  0  0  0  0  0  0  0
   56.6640   24.2880   45.0010 C   0  0  0  0  0  0  0  0  0  0  0  0
   57.1500   24.6180   43.7510 C   0  0  0  0  0  0  0  0  0  0  0  0
   57.7660   25.8610   43.6310 C   0  0  0  0  0  0  0  0  0  0  0  0
   57.8860   26.7230   44.7150 C   0  0  0  0  0  0  0  0  0  0  0  0
   58.5280   27.9790   44.5230 N   0  0  0  0  0  0  0  0  0  0  0  0
   57.8320   29.0600   44.5410 C   0  0  0  0  0  0  0  0  0  0  0  0
   58.4430   30.1810   45.0790 C   0  0  0  0  0  0  0  0  0  0  0  0
   57.7580   31.3540   45.1260 C   0  0  0  0  0  0  0  0  0  0  0  0
   58.3070   32.5900   45.6700 C   0  0  0  0  0  0  0  0  0  0  0  0
   58.6460   33.5940   44.7870 C   0  0  0  0  0  0  0  0  0  0  0  0
   59.1720   34.7910   45.2400 C   0  0  0  0  0  0  0  0  0  0  0  0
   59.3570   34.9780   46.5940 C   0  0  0  0  0  0  0  0  0  0  0  0
   59.0320   34.0010   47.5090 C   0  0  0  0  0  0  0  0  0  0  0  0
   58.5060   32.8160   47.0040 C   0  0  0  0  0  0  0  0  0  0  0  0
   56.5040   31.3810   44.6440 N   0  0  0  0  0  0  0  0  0  0  0  0
   55.8960   30.2840   44.1150 C   0  0  0  0  0  0  0  0  0  0  0  0
   56.5690   29.1010   44.0610 N   0  0  0  0  0  0  0  0  0  0  0  0
   58.9253   28.8185   49.2654 H   0  0  0  0  0  0  0  0  0  0  0  0
   59.8747   29.3548   47.8379 H   0  0  0  0  0  0  0  0  0  0  0  0
   58.0855   29.5141   47.8379 H   0  0  0  0  0  0  0  0  0  0  0  0
   59.5863   27.3923   46.7979 H   0  0  0  0  0  0  0  0  0  0  0  0
   58.9278   26.7834   48.3825 H   0  0  0  0  0  0  0  0  0  0  0  0
   56.3870   24.8413   47.0459 H   0  0  0  0  0  0  0  0  0  0  0  0
   56.1673   23.3175   45.1471 H   0  0  0  0  0  0  0  0  0  0  0  0
   57.0553   23.9342   42.8945 H   0  0  0  0  0  0  0  0  0  0  0  0
   58.1676   26.1685   42.6542 H   0  0  0  0  0  0  0  0  0  0  0  0
   59.4717   30.1223   45.4641 H   0  0  0  0  0  0  0  0  0  0  0  0
   58.4962   33.4410   43.7080 H   0  0  0  0  0  0  0  0  0  0  0  0
   59.4399   35.5852   44.5277 H   0  0  0  0  0  0  0  0  0  0  0  0
   59.7743   35.9308   46.9519 H   0  0  0  0  0  0  0  0  0  0  0  0
   59.1813   34.1506   48.5885 H   0  0  0  0  0  0  0  0  0  0  0  0
   58.2364   32.0203   47.7140 H   0  0  0  0  0  0  0  0  0  0  0  0
   54.8667   30.3525   43.7332 H   0  0  0  0  0  0  0  0  0  0  0  0
   56.1240   28.2480   43.6590 H   0  0  0  0  0  0  0  0  0  0  0  0
  1  2  1  0
  2  3  1  0
  3  4  1  0
  4  5  2  0
  5  6  1  0
  6  7  2  0
  7  8  1  0
  8  9  2  0
  9 10  1  0
 10 11  2  0
 11 12  1  0
 12 13  2  0
 13 14  1  0
 14 15  2  0
 15 16  1  0
 16 17  2  0
 17 18  1  0
 18 19  2  0
 13 20  1  0
 20 21  2  0
 21 22  1  0
  9  4  1  0
 22 11  1  0
 19 14  1  0
  1 23  1  0
  1 24  1  0
  1 25  1  0
  2 26  1  0
  2 27  1  0
  5 28  1  0
  6 29  1  0
  7 30  1  0
  8 31  1  0
 12 32  1  0
 15 33  1  0
 16 34  1  0
 17 35  1  0
 18 36  1  0
 19 37  1  0
 21 38  1  0
 22 39  1  0
M  END
>  <smiles>  (34) 
CCOc1ccccc1N=c1cc(-c2ccccc2)nc[nH]1

>  <score_type>  (34) 
oracle

>  <origin>  (34) 
adg

>  <m_score__min__energy>  (34) 
-8.3100000000000005

>  <m_primary>  (34) 
energy

$$$$
34:0
     RDKit          3D

 37 40  0  0  1  0  0  0  0  0999 V2000
   60.3220   29.4600   44.8370 O   0  0  0  0  0  0  0  0  0  0  0  0
   59.4780   29.0420   45.5880 C   0  0  0  0  0  0  0  0  0  0  0  0
   59.5830   27.6810   46.2540 C   0  0  0  0  0  0  0  0  0  0  0  0
   58.3620   26.8580   46.1920 C   0  0  0  0  0  0  0  0  0  0  0  0
   57.0370   27.5560   45.9870 C   0  0  0  0  0  0  0  0  0  0  0  0
   57.2440   28.8480   45.2480 C   0  0  0  0  0  0  0  0  0  0  0  0
   56.7720   29.1250   44.1020 N   0  0  0  0  0  0  0  0  0  0  0  0
   57.0250   30.4010   43.4730 C   0  0  0  0  0  0  0  0  0  0  0  0
   56.6230   30.5110   42.2000 N   0  0  0  0  0  0  0  0  0  0  0  0
   57.0170   31.6470   41.5520 C   0  0  0  0  0  0  0  0  0  0  0  0
   57.7630   32.5790   42.1840 N   0  0  0  0  0  0  0  0  0  0  0  0
   58.1610   32.4560   43.4740 C   0  0  0  0  0  0  0  0  0  0  0  0
   58.8430   33.3610   43.9640 O   0  0  0  0  0  0  0  0  0  0  0  0
   57.7790   31.3340   44.1410 C   0  0  0  0  0  0  0  0  0  0  0  0
   58.0060   31.1390   45.5820 C   0  0  2  0  0  0  0  0  0  0  0  0
   58.7070   32.2260   46.2780 C   0  0  0  0  0  0  0  0  0  0  0  0
   58.1370   33.3460   46.8130 C   0  0  0  0  0  0  0  0  0  0  0  0
   58.8770   34.3390   47.4660 C   0  0  0  0  0  0  0  0  0  0  0  0
   60.2320   34.2170   47.5940 C   0  0  0  0  0  0  0  0  0  0  0  0
   60.8370   33.1100   47.0710 C   0  0  0  0  0  0  0  0  0  0  0  0
   62.7300   32.9420   47.2490 Br  0  0  0  0  0  0  0  0  0  0  0  0
   60.1070   32.1400   46.4310 C   0  0  0  0  0  0  0  0  0  0  0  0
   58.2240   29.7710   45.9730 C   0  0  2  0  0  0  0  0  0  0  0  0
   60.3948   27.1236   45.7637 H   0  0  0  0  0  0  0  0  0  0  0  0
   59.7669   27.8758   47.3209 H   0  0  0  0  0  0  0  0  0  0  0  0
   58.4888   26.1493   45.3604 H   0  0  0  0  0  0  0  0  0  0  0  0
   58.2826   26.4141   47.1953 H   0  0  0  0  0  0  0  0  0  0  0  0
   56.3694   26.9055   45.4029 H   0  0  0  0  0  0  0  0  0  0  0  0
   56.5867   27.7698   46.9676 H   0  0  0  0  0  0  0  0  0  0  0  0
   56.0430   29.7790   41.7180 H   0  0  0  0  0  0  0  0  0  0  0  0
   56.7235   31.8047   40.5037 H   0  0  0  0  0  0  0  0  0  0  0  0
   57.0297   31.2992   46.0627 H   0  0  0  0  0  0  0  0  0  0  0  0
   57.0478   33.4735   46.7270 H   0  0  0  0  0  0  0  0  0  0  0  0
   58.3654   35.2214   47.8779 H   0  0  0  0  0  0  0  0  0  0  0  0
   60.8213   34.9919   48.1061 H   0  0  0  0  0  0  0  0  0  0  0  0
   60.6322   31.2640   46.0226 H   0  0  0  0  0  0  0  0  0  0  0  0
   58.1771   29.9220   47.0616 H   0  0  0  0  0  0  0  0  0  0  0  0
  1  2  2  0
  2  3  1  0
  3  4  1  0
  4  5  1  0
  5  6  1  0
  6  7  2  0
  7  8  1  0
  8  9  1  0
  9 10  1  0
 10 11  2  0
 11 12  1  0
 12 13  2  0
 12 14  1  0
 14 15  1  0
 15 16  1  0
 16 17  2  0
 17 18  1  0
 18 19  2  0
 19 20  1  0
 20 21  1  0
 20 22  2  0
 15 23  1  0
 23  2  1  0
 23  6  1  0
 14  8  2  0
 22 16  1  0
  3 24  1  0
  3 25  1  0
  4 26  1  0
  4 27  1  0
  5 28  1  0
  5 29  1  0
  9 30  1  0
 10 31  1  0
 15 32  1  1
 17 33  1  0
 18 34  1  0
 19 35  1  0
 22 36  1  0
 23 37  1  1
M  END
>  <smiles>  (35) 
O=C1CCCC2=Nc3[nH]cnc(=O)c3C(c3cccc(Br)c3)C12

>  <score_type>  (35) 
oracle

>  <origin>  (35) 
adg

>  <m_score__min__energy>  (35) 
-8.5500000000000007

>  <m_primary>  (35) 
energy

$$$$
35:0
     RDKit          3D

 40 42  0  0  0  0  0  0  0  0999 V2000
   55.8620   25.6540   46.3740 O   0  0  0  0  0  0  0  0  0  0  0  0
   56.7980   25.6830   45.5290 C   0  0  0  0  0  0  0  0  0  0  0  0
   57.3040   24.4060   44.9760 C   0  0  0  0  0  0  0  0  0  0  0  0
   56.5620   23.7140   44.0060 C   0  0  0  0  0  0  0  0  0  0  0  0
   57.0450   22.5040   43.5010 C   0  0  0  0  0  0  0  0  0  0  0  0
   58.2190   21.9950   43.9560 N   0  0  0  0  0  0  0  0  0  0  0  0
   58.9520   22.6360   44.9070 C   0  0  0  0  0  0  0  0  0  0  0  0
   58.5060   23.8480   45.4370 C   0  0  0  0  0  0  0  0  0  0  0  0
   57.3440   26.9530   45.1210 N   0  0  0  0  0  0  0  0  0  0  0  0
   57.7760   27.1760   43.7350 C   0  0  0  0  0  0  0  0  0  0  0  0
   57.4400   28.6090   43.3150 C   0  0  0  0  0  0  0  0  0  0  0  0
   58.0900   29.6080   44.1930 N   0  0  0  0  0  0  0  0  0  0  0  0
   57.2750   31.1500   44.0680 S   0  0  0  0  0  0  0  0  0  0  0  0
   55.8430   30.9980   44.5010 O   0  0  0  0  0  0  0  0  0  0  0  0
   57.2810   31.6000   42.6340 O   0  0  0  0  0  0  0  0  0  0  0  0
   58.0580   32.3780   45.0660 C   0  0  0  0  0  0  0  0  0  0  0  0
   58.6180   33.5200   44.4740 C   0  0  0  0  0  0  0  0  0  0  0  0
   59.2220   34.5000   45.2680 C   0  0  0  0  0  0  0  0  0  0  0  0
   59.2740   34.3430   46.6560 C   0  0  0  0  0  0  0  0  0  0  0  0
   58.7250   33.2040   47.2500 C   0  0  0  0  0  0  0  0  0  0  0  0
   58.1210   32.2220   46.4600 C   0  0  0  0  0  0  0  0  0  0  0  0
   58.2540   29.1910   45.6060 C   0  0  0  0  0  0  0  0  0  0  0  0
   57.2660   28.0970   46.0360 C   0  0  0  0  0  0  0  0  0  0  0  0
   55.6061   24.1218   43.6456 H   0  0  0  0  0  0  0  0  0  0  0  0
   56.4730   21.9625   42.7332 H   0  0  0  0  0  0  0  0  0  0  0  0
   59.8978   22.1981   45.2587 H   0  0  0  0  0  0  0  0  0  0  0  0
   59.0935   24.3626   46.2116 H   0  0  0  0  0  0  0  0  0  0  0  0
   58.8621   27.0181   43.6605 H   0  0  0  0  0  0  0  0  0  0  0  0
   57.2541   26.4699   43.0723 H   0  0  0  0  0  0  0  0  0  0  0  0
   57.7832   28.7666   42.2819 H   0  0  0  0  0  0  0  0  0  0  0  0
   56.3510   28.7415   43.3954 H   0  0  0  0  0  0  0  0  0  0  0  0
   58.5819   33.6450   43.3817 H   0  0  0  0  0  0  0  0  0  0  0  0
   59.6567   35.3954   44.7997 H   0  0  0  0  0  0  0  0  0  0  0  0
   59.7468   35.1157   47.2800 H   0  0  0  0  0  0  0  0  0  0  0  0
   58.7682   33.0797   48.3421 H   0  0  0  0  0  0  0  0  0  0  0  0
   57.6939   31.3246   46.9315 H   0  0  0  0  0  0  0  0  0  0  0  0
   59.2770   28.8099   45.7409 H   0  0  0  0  0  0  0  0  0  0  0  0
   58.0542   30.0738   46.2311 H   0  0  0  0  0  0  0  0  0  0  0  0
   57.5136   27.7644   47.0549 H   0  0  0  0  0  0  0  0  0  0  0  0
   56.2453   28.5064   46.0111 H   0  0  0  0  0  0  0  0  0  0  0  0
  1  2  2  0
  2  3  1  0
  3  4  2  0
  4  5  1  0
  5  6  2  0
  6  7  1  0
  7  8  2  0
  2  9  1  0
  9 10  1  0
 10 11  1  0
 11 12  1  0
 12 13  1  0
 13 14  2  0
 13 15  2  0
 13 16  1  0
 16 17  2  0
 17 18  1  0
 18 19  2  0
 19 20  1  0
 20 21  2  0
 12 22  1  0
 22 23  1  0
  8  3  1  0
 23  9  1  0
 21 16  1  0
  4 24  1  0
  5 25  1  0
  7 26  1  0
  8 27  1  0
 10 28  1  0
 10 29  1  0
 11 30  1  0
 11 31  1  0
 17 32  1  0
 18 33  1  0
 19 34  1  0
 20 35  1  0
 21 36  1  0
 22 37  1  0
 22 38  1  0
 23 39  1  0
 23 40  1  0
M  END
>  <UniqueID>  (36) 
28

>  <SMILES>  (36) 
O=C(c1ccncc1)N1CCN(S(=O)(=O)c2ccccc2)CC1

>  <Energy>  (36) 
51.83485287870974

>  <Genealogy>  (36) 
O=C(c1ccncc1)N1CCN(S(=O)(=O)c2ccccc2)CC1 (3D coordinates assigned)
O=C(c1ccncc1)N1CCN(S(=O)(=O)c2ccccc2)CC1 (nonaromatic ring conformer: 51.83485287870974 kcal/mol)

>  <smiles>  (36) 
O=C(c1ccncc1)N1CCN(S(=O)(=O)c2ccccc2)CC1

>  <score_type>  (36) 
oracle

>  <origin>  (36) 
adg

>  <m_score__min__energy>  (36) 
-8.6500000000000004

>  <m_primary>  (36) 
energy

$$$$
36:0
     RDKit          3D

 35 37  0  0  0  0  0  0  0  0999 V2000
   55.6480   25.3050   45.9830 C   0  0  0  0  0  0  0  0  0  0  0  0
   55.7540   26.7250   45.9610 O   0  0  0  0  0  0  0  0  0  0  0  0
   56.8630   27.4280   45.4690 C   0  0  0  0  0  0  0  0  0  0  0  0
   57.8080   26.8400   44.6060 C   0  0  0  0  0  0  0  0  0  0  0  0
   58.8940   27.5860   44.1390 C   0  0  0  0  0  0  0  0  0  0  0  0
   59.0500   28.9190   44.5280 C   0  0  0  0  0  0  0  0  0  0  0  0
   58.1220   29.5150   45.3920 C   0  0  0  0  0  0  0  0  0  0  0  0
   58.2790   30.8900   45.7790 N   0  0  0  0  0  0  0  0  0  0  0  0
   59.5270   31.2730   46.4560 C   0  0  0  0  0  0  0  0  0  0  0  0
   59.3990   32.6050   47.2010 C   0  0  0  0  0  0  0  0  0  0  0  0
   58.7990   33.6820   46.2830 C   0  0  2  0  0  0  0  0  0  0  0  0
   59.7290   34.1620   45.1800 C   0  0  0  0  0  0  0  0  0  0  0  0
   59.6470   35.4720   45.9250 C   0  0  0  0  0  0  0  0  0  0  0  0
   58.7910   34.9420   46.9120 O   0  0  0  0  0  0  0  0  0  0  0  0
   57.3900   33.2960   45.8070 C   0  0  0  0  0  0  0  0  0  0  0  0
   57.3520   31.8860   45.2910 C   0  0  0  0  0  0  0  0  0  0  0  0
   56.4290   31.5610   44.4960 O   0  0  0  0  0  0  0  0  0  0  0  0
   57.0270   28.7650   45.8530 C   0  0  0  0  0  0  0  0  0  0  0  0
   55.6219   24.9554   47.0256 H   0  0  0  0  0  0  0  0  0  0  0  0
   54.7245   24.9983   45.4702 H   0  0  0  0  0  0  0  0  0  0  0  0
   56.5158   24.8645   45.4702 H   0  0  0  0  0  0  0  0  0  0  0  0
   57.6911   25.7904   44.2985 H   0  0  0  0  0  0  0  0  0  0  0  0
   59.6279   27.1224   43.4634 H   0  0  0  0  0  0  0  0  0  0  0  0
   59.9044   29.5025   44.1545 H   0  0  0  0  0  0  0  0  0  0  0  0
   59.7928   30.4875   47.1788 H   0  0  0  0  0  0  0  0  0  0  0  0
   60.3045   31.3910   45.6869 H   0  0  0  0  0  0  0  0  0  0  0  0
   58.7448   32.4692   48.0748 H   0  0  0  0  0  0  0  0  0  0  0  0
   60.3997   32.9297   47.5221 H   0  0  0  0  0  0  0  0  0  0  0  0
   60.7223   33.6900   45.1577 H   0  0  0  0  0  0  0  0  0  0  0  0
   59.5167   34.0517   44.1063 H   0  0  0  0  0  0  0  0  0  0  0  0
   60.6154   35.8105   46.3221 H   0  0  0  0  0  0  0  0  0  0  0  0
   59.3317   36.3732   45.3788 H   0  0  0  0  0  0  0  0  0  0  0  0
   56.6899   33.3872   46.6506 H   0  0  0  0  0  0  0  0  0  0  0  0
   57.1046   33.9719   44.9875 H   0  0  0  0  0  0  0  0  0  0  0  0
   56.2905   29.2329   46.5228 H   0  0  0  0  0  0  0  0  0  0  0  0
  1  2  1  0
  2  3  1  0
  3  4  2  0
  4  5  1  0
  5  6  2  0
  6  7  1  0
  7  8  1  0
  8  9  1  0
  9 10  1  0
 10 11  1  0
 11 12  1  0
 12 13  1  0
 13 14  1  0
 11 15  1  0
 15 16  1  0
 16 17  2  0
  7 18  2  0
 18  3  1  0
 16  8  1  0
 11 14  1  1
  1 19  1  0
  1 20  1  0
  1 21  1  0
  4 22  1  0
  5 23  1  0
  6 24  1  0
  9 25  1  0
  9 26  1  0
 10 27  1  0
 10 28  1  0
 12 29  1  0
 12 30  1  0
 13 31  1  0
 13 32  1  0
 15 33  1  0
 15 34  1  0
 18 35  1  0
M  END
>  <UniqueID>  (37) 
29

>  <SMILES>  (37) 
COc1cccc(N2CC[C@@]3(CCO3)CC2=O)c1

>  <Energy>  (37) 
103.58043109167045

>  <Genealogy>  (37) 
COc1cccc(N2CC[C@@]3(CCO3)CC2=O)c1 (chirality)
COc1cccc(N2CC[C@@]3(CCO3)CC2=O)c1 (3D coordinates assigned)
COc1cccc(N2CC[C@@]3(CCO3)CC2=O)c1 (nonaromatic ring conformer: 103.58043109167045 kcal/mol)

>  <smiles>  (37) 
COc1cccc(N2CCC3(CCO3)CC2=O)c1

>  <score_type>  (37) 
oracle

>  <origin>  (37) 
adg

>  <m_score__min__energy>  (37) 
-6.7599999999999998

>  <m_primary>  (37) 
energy

$$$$
37:0
     RDKit          3D

 29 30  0  0  0  0  0  0  0  0999 V2000
   59.9910   22.3880   45.1850 N   0  0  0  0  0  0  0  0  0  0  0  0
   59.0560   23.0620   45.2950 C   0  0  0  0  0  0  0  0  0  0  0  0
   57.8930   23.8990   45.4320 C   0  0  0  0  0  0  0  0  0  0  0  0
   56.6160   23.3620   45.2400 C   0  0  0  0  0  0  0  0  0  0  0  0
   55.4880   24.1720   45.3810 C   0  0  0  0  0  0  0  0  0  0  0  0
   55.6240   25.5280   45.7080 C   0  0  0  0  0  0  0  0  0  0  0  0
   54.4860   26.3200   45.8600 O   0  0  0  0  0  0  0  0  0  0  0  0
   56.9100   26.0820   45.8820 C   0  0  0  0  0  0  0  0  0  0  0  0
   57.0960   27.5370   46.2460 C   0  0  0  0  0  0  0  0  0  0  0  0
   56.2020   28.3900   45.4590 N   0  0  0  0  0  0  0  0  0  0  0  0
   56.6410   29.4800   44.6260 C   0  0  0  0  0  0  0  0  0  0  0  0
   57.4620   30.5130   45.1200 C   0  0  0  0  0  0  0  0  0  0  0  0
   57.8650   31.5580   44.2820 C   0  0  0  0  0  0  0  0  0  0  0  0
   57.4600   31.5810   42.9470 C   0  0  0  0  0  0  0  0  0  0  0  0
   56.6510   30.5600   42.4440 C   0  0  0  0  0  0  0  0  0  0  0  0
   56.2460   29.5130   43.2780 C   0  0  0  0  0  0  0  0  0  0  0  0
   58.0390   25.2530   45.7580 C   0  0  0  0  0  0  0  0  0  0  0  0
   56.5004   22.3000   44.9776 H   0  0  0  0  0  0  0  0  0  0  0  0
   54.4857   23.7432   45.2345 H   0  0  0  0  0  0  0  0  0  0  0  0
   54.2340   26.7230   46.7550 H   0  0  0  0  0  0  0  0  0  0  0  0
   56.8745   27.6722   47.3150 H   0  0  0  0  0  0  0  0  0  0  0  0
   58.1359   27.8236   46.0305 H   0  0  0  0  0  0  0  0  0  0  0  0
   55.1760   28.2080   45.5430 H   0  0  0  0  0  0  0  0  0  0  0  0
   57.7879   30.4976   46.1705 H   0  0  0  0  0  0  0  0  0  0  0  0
   58.5024   32.3632   44.6762 H   0  0  0  0  0  0  0  0  0  0  0  0
   57.7782   32.4040   42.2902 H   0  0  0  0  0  0  0  0  0  0  0  0
   56.3322   30.5792   41.3914 H   0  0  0  0  0  0  0  0  0  0  0  0
   55.6129   28.7086   42.8753 H   0  0  0  0  0  0  0  0  0  0  0  0
   59.0438   25.6710   45.9182 H   0  0  0  0  0  0  0  0  0  0  0  0
  1  2  3  0
  2  3  1  0
  3  4  2  0
  4  5  1  0
  5  6  2  0
  6  7  1  0
  6  8  1  0
  8  9  1  0
  9 10  1  0
 10 11  1  0
 11 12  2  0
 12 13  1  0
 13 14  2  0
 14 15  1  0
 15 16  2  0
  8 17  2  0
 17  3  1  0
 16 11  1  0
  4 18  1  0
  5 19  1  0
  7 20  1  0
  9 21  1  0
  9 22  1  0
 10 23  1  0
 12 24  1  0
 13 25  1  0
 14 26  1  0
 15 27  1  0
 16 28  1  0
 17 29  1  0
M  END
>  <UniqueID>  (38) 
30

>  <SMILES>  (38) 
N#Cc1ccc(O)c(CNc2ccccc2)c1

>  <Energy>  (38) 
28.601224732113806

>  <Genealogy>  (38) 
N#Cc1ccc(O)c(CNc2ccccc2)c1 (3D coordinates assigned)
N#Cc1ccc(O)c(CNc2ccccc2)c1 (optimized conformer: 28.601224732113806 kcal/mol)

>  <smiles>  (38) 
N#Cc1ccc(O)c(CNc2ccccc2)c1

>  <score_type>  (38) 
oracle

>  <origin>  (38) 
adg

>  <m_score__min__energy>  (38) 
-8.1400000000000006

>  <m_primary>  (38) 
energy

$$$$
38:0
     RDKit          3D

 34 37  0  0  0  0  0  0  0  0999 V2000
   63.2600   31.5620   47.1470 C   0  0  0  0  0  0  0  0  0  0  0  0
   61.9710   31.2010   47.5380 C   0  0  0  0  0  0  0  0  0  0  0  0
   61.0260   32.1640   47.7050 N   0  0  0  0  0  0  0  0  0  0  0  0
   61.3100   33.4810   47.4980 C   0  0  0  0  0  0  0  0  0  0  0  0
   60.2950   34.4300   47.6870 O   0  0  0  0  0  0  0  0  0  0  0  0
   59.3260   34.7830   46.6990 C   0  0  0  0  0  0  0  0  0  0  0  0
   59.6540   34.1980   45.3660 C   0  0  0  0  0  0  0  0  0  0  0  0
   58.5180   33.2580   45.3220 N   0  0  0  0  0  0  0  0  0  0  0  0
   58.0140   32.2750   44.4130 C   0  0  0  0  0  0  0  0  0  0  0  0
   57.7870   32.6030   43.0610 C   0  0  0  0  0  0  0  0  0  0  0  0
   57.2890   31.6250   42.1730 C   0  0  0  0  0  0  0  0  0  0  0  0
   57.0230   30.3590   42.6120 N   0  0  0  0  0  0  0  0  0  0  0  0
   57.2440   30.0520   43.9140 C   0  0  0  0  0  0  0  0  0  0  0  0
   57.0310   28.8590   44.4880 N   0  0  0  0  0  0  0  0  0  0  0  0
   57.3860   29.0160   45.7840 C   0  0  0  0  0  0  0  0  0  0  0  0
   57.8250   30.3150   46.0250 C   0  0  0  0  0  0  0  0  0  0  0  0
   57.7260   30.9660   44.8100 C   0  0  0  0  0  0  0  0  0  0  0  0
   58.1800   33.8260   46.6410 C   0  0  0  0  0  0  0  0  0  0  0  0
   62.6120   33.8390   47.1040 C   0  0  0  0  0  0  0  0  0  0  0  0
   63.5520   32.8730   46.9380 N   0  0  0  0  0  0  0  0  0  0  0  0
   64.0338   30.7925   47.0089 H   0  0  0  0  0  0  0  0  0  0  0  0
   61.7205   30.1438   47.7102 H   0  0  0  0  0  0  0  0  0  0  0  0
   60.0630   31.8860   47.9980 H   0  0  0  0  0  0  0  0  0  0  0  0
   59.2156   35.8586   46.9010 H   0  0  0  0  0  0  0  0  0  0  0  0
   59.6208   34.9419   44.5564 H   0  0  0  0  0  0  0  0  0  0  0  0
   60.6606   33.7726   45.2402 H   0  0  0  0  0  0  0  0  0  0  0  0
   57.9977   33.6199   42.6983 H   0  0  0  0  0  0  0  0  0  0  0  0
   57.1137   31.8846   41.1185 H   0  0  0  0  0  0  0  0  0  0  0  0
   56.6690   27.9920   44.0340 H   0  0  0  0  0  0  0  0  0  0  0  0
   57.3347   28.2236   46.5452 H   0  0  0  0  0  0  0  0  0  0  0  0
   58.1760   30.7341   46.9795 H   0  0  0  0  0  0  0  0  0  0  0  0
   57.2033   34.3320   46.6479 H   0  0  0  0  0  0  0  0  0  0  0  0
   58.0733   33.1204   47.4781 H   0  0  0  0  0  0  0  0  0  0  0  0
   62.8672   34.8950   46.9314 H   0  0  0  0  0  0  0  0  0  0  0  0
  1  2  2  0
  2  3  1  0
  3  4  2  0
  4  5  1  0
  5  6  1  0
  6  7  1  0
  7  8  1  0
  8  9  1  0
  9 10  2  0
 10 11  1  0
 11 12  2  0
 12 13  1  0
 13 14  1  0
 14 15  1  0
 15 16  2  0
 16 17  1  0
  8 18  1  0
  4 19  1  0
 19 20  2  0
 20  1  1  0
 18  6  1  0
 17  9  1  0
 17 13  2  0
  1 21  1  0
  2 22  1  0
  3 23  1  0
  6 24  1  0
  7 25  1  0
  7 26  1  0
 10 27  1  0
 11 28  1  0
 14 29  1  0
 15 30  1  0
 16 31  1  0
 18 32  1  0
 18 33  1  0
 19 34  1  0
M  CHG  1   3   1
M  END
>  <UniqueID>  (39) 
31

>  <SMILES>  (39) 
c1c[nH+]c(OC2CN(c3ccnc4[nH]ccc34)C2)cn1

>  <Energy>  (39) 
117.71960859779175

>  <Genealogy>  (39) 
c1c[nH+]c(OC2CN(c3ccnc4[nH]ccc34)C2)cn1 (protonated)
c1c[nH+]c(OC2CN(c3ccnc4[nH]ccc34)C2)cn1 (3D coordinates assigned)
c1c[nH+]c(OC2CN(c3ccnc4[nH]ccc34)C2)cn1 (nonaromatic ring conformer: 117.71960859779175 kcal/mol)

>  <smiles>  (39) 
c1cnc(OC2CN(c3ccnc4[nH]ccc34)C2)cn1

>  <score_type>  (39) 
oracle

>  <origin>  (39) 
adg

>  <m_score__min__energy>  (39) 
-4.9500000000000002

>  <m_primary>  (39) 
energy

$$$$
39:0
     RDKit          3D

 31 33  0  0  0  0  0  0  0  0999 V2000
   63.8660   33.7090   50.0440 C   0  0  0  0  0  0  0  0  0  0  0  0
   64.1210   33.1110   48.8070 C   0  0  0  0  0  0  0  0  0  0  0  0
   63.1160   33.0490   47.8380 C   0  0  0  0  0  0  0  0  0  0  0  0
   61.8400   33.5860   48.0960 C   0  0  0  0  0  0  0  0  0  0  0  0
   60.7690   33.5210   47.0680 C   0  0  0  0  0  0  0  0  0  0  0  0
   60.1360   32.3020   46.7720 C   0  0  0  0  0  0  0  0  0  0  0  0
   59.1290   32.2420   45.8050 C   0  0  0  0  0  0  0  0  0  0  0  0
   58.7330   33.3940   45.1160 C   0  0  0  0  0  0  0  0  0  0  0  0
   57.7140   33.2750   44.1560 O   0  0  0  0  0  0  0  0  0  0  0  0
   57.6210   32.2390   43.1780 C   0  0  0  0  0  0  0  0  0  0  0  0
   57.0260   31.0020   43.7740 C   0  0  0  0  0  0  0  0  0  0  0  0
   55.9210   30.9790   44.5410 N   0  0  0  0  0  0  0  0  0  0  0  0
   55.7240   29.6960   44.8140 N   0  0  0  0  0  0  0  0  0  0  0  0
   56.6610   28.9610   44.2330 N   0  0  0  0  0  0  0  0  0  0  0  0
   57.4820   29.7570   43.5740 N   0  0  0  0  0  0  0  0  0  0  0  0
   59.3660   34.6160   45.4060 C   0  0  0  0  0  0  0  0  0  0  0  0
   60.3740   34.6770   46.3740 C   0  0  0  0  0  0  0  0  0  0  0  0
   61.5960   34.1850   49.3470 C   0  0  0  0  0  0  0  0  0  0  0  0
   62.6060   34.2460   50.3130 C   0  0  0  0  0  0  0  0  0  0  0  0
   64.6582   33.7565   50.8057 H   0  0  0  0  0  0  0  0  0  0  0  0
   65.1144   32.6884   48.5957 H   0  0  0  0  0  0  0  0  0  0  0  0
   63.3232   32.5771   46.8662 H   0  0  0  0  0  0  0  0  0  0  0  0
   60.4354   31.3879   47.3056 H   0  0  0  0  0  0  0  0  0  0  0  0
   58.6431   31.2804   45.5833 H   0  0  0  0  0  0  0  0  0  0  0  0
   56.9857   32.5817   42.3480 H   0  0  0  0  0  0  0  0  0  0  0  0
   58.6319   32.0051   42.8128 H   0  0  0  0  0  0  0  0  0  0  0  0
   58.3090   29.4510   43.0160 H   0  0  0  0  0  0  0  0  0  0  0  0
   59.0670   35.5283   44.8690 H   0  0  0  0  0  0  0  0  0  0  0  0
   60.8616   35.6382   46.5937 H   0  0  0  0  0  0  0  0  0  0  0  0
   60.6044   34.6078   49.5660 H   0  0  0  0  0  0  0  0  0  0  0  0
   62.4068   34.7180   51.2864 H   0  0  0  0  0  0  0  0  0  0  0  0
  1  2  2  0
  2  3  1  0
  3  4  2  0
  4  5  1  0
  5  6  2  0
  6  7  1  0
  7  8  2  0
  8  9  1  0
  9 10  1  0
 10 11  1  0
 11 12  2  0
 12 13  1  0
 13 14  1  0
 14 15  2  0
  8 16  1  0
 16 17  2  0
  4 18  1  0
 18 19  2  0
 19  1  1  0
 17  5  1  0
 15 11  1  0
  1 20  1  0
  2 21  1  0
  3 22  1  0
  6 23  1  0
  7 24  1  0
 10 25  1  0
 10 26  1  0
 15 27  1  0
 16 28  1  0
 17 29  1  0
 18 30  1  0
 19 31  1  0
M  CHG  2  13  -1  15   1
M  END
>  <UniqueID>  (40) 
32

>  <SMILES>  (40) 
c1ccc(-c2ccc(OCc3n[n-]n[nH+]3)cc2)cc1

>  <Energy>  (40) 
77.4595224634344

>  <Genealogy>  (40) 
c1ccc(-c2ccc(OCc3n[n-]n[nH+]3)cc2)cc1 (protonated)
c1ccc(-c2ccc(OCc3n[n-]n[nH+]3)cc2)cc1 (3D coordinates assigned)
c1ccc(-c2ccc(OCc3n[n-]n[nH+]3)cc2)cc1 (optimized conformer: 77.4595224634344 kcal/mol)

>  <smiles>  (40) 
c1ccc(-c2ccc(OCc3nn[nH]n3)cc2)cc1

>  <score_type>  (40) 
oracle

>  <origin>  (40) 
adg

>  <m_score__min__energy>  (40) 
-7.7300000000000004

>  <m_primary>  (40) 
energy

$$$$
40:0
     RDKit          3D

 33 35  0  0  0  0  0  0  0  0999 V2000
   55.6012   31.4242   43.4015 H   0  0  0  0  0  0  0  0  0  0  0  0
   56.2610   30.8460   44.0650 C   0  0  0  0  0  0  0  0  0  0  0  0
   57.4390   31.4170   44.5460 C   0  0  0  0  0  0  0  0  0  0  0  0
   57.7030   32.4457   44.2596 H   0  0  0  0  0  0  0  0  0  0  0  0
   58.2870   30.6930   45.3890 C   0  0  0  0  0  0  0  0  0  0  0  0
   59.2136   31.1556   45.7596 H   0  0  0  0  0  0  0  0  0  0  0  0
   57.9630   29.3730   45.7680 C   0  0  0  0  0  0  0  0  0  0  0  0
   56.7530   28.8020   45.2680 C   0  0  0  0  0  0  0  0  0  0  0  0
   56.3920   27.5270   45.6020 N   0  0  0  0  0  0  0  0  0  0  0  0
   57.1530   26.7420   46.4150 C   0  0  0  0  0  0  0  0  0  0  0  0
   56.7880   25.5310   46.7200 N   0  0  0  0  0  0  0  0  0  0  0  0
   56.2850   24.5430   45.7640 C   0  0  0  0  0  0  0  0  0  0  0  0
   56.7650   24.7105   44.7885 H   0  0  0  0  0  0  0  0  0  0  0  0
   56.5210   23.5381   46.1442 H   0  0  0  0  0  0  0  0  0  0  0  0
   54.7670   24.6560   45.6000 C   0  0  0  0  0  0  0  0  0  0  0  0
   54.5028   24.4767   44.5474 H   0  0  0  0  0  0  0  0  0  0  0  0
   54.2840   23.9084   46.2464 H   0  0  0  0  0  0  0  0  0  0  0  0
   54.3050   25.9850   45.9910 N   0  0  0  0  0  0  0  0  0  0  0  0
   54.4340   26.6210   45.1720 H   0  0  0  0  0  0  0  0  0  0  0  0
   54.9360   26.3410   46.7460 H   0  0  0  0  0  0  0  0  0  0  0  0
   58.3370   27.2720   46.9200 C   0  0  0  0  0  0  0  0  0  0  0  0
   59.2720   26.6970   47.7520 C   0  0  0  0  0  0  0  0  0  0  0  0
   59.2508   25.6849   48.1824 H   0  0  0  0  0  0  0  0  0  0  0  0
   60.2430   27.6650   47.9300 C   0  0  0  0  0  0  0  0  0  0  0  0
   61.1459   27.5367   48.5451 H   0  0  0  0  0  0  0  0  0  0  0  0
   59.9340   28.7920   47.2460 N   0  0  0  0  0  0  0  0  0  0  0  0
   60.7740   29.9870   47.2440 C   0  0  0  0  0  0  0  0  0  0  0  0
   60.9857   30.2881   48.2806 H   0  0  0  0  0  0  0  0  0  0  0  0
   61.7192   29.7699   46.7250 H   0  0  0  0  0  0  0  0  0  0  0  0
   60.2497   30.8029   46.7250 H   0  0  0  0  0  0  0  0  0  0  0  0
   58.7510   28.5510   46.6170 C   0  0  0  0  0  0  0  0  0  0  0  0
   55.9190   29.5440   44.4240 C   0  0  0  0  0  0  0  0  0  0  0  0
   54.9891   29.0972   44.0423 H   0  0  0  0  0  0  0  0  0  0  0  0
  1  2  1  0
  2  3  2  0
  3  4  1  0
  3  5  1  0
  5  6  1  0
  5  7  2  0
  7  8  1  0
  8  9  1  0
  9 10  1  0
 10 11  2  0
 11 12  1  0
 12 13  1  0
 12 14  1  0
 12 15  1  0
 15 16  1  0
 15 17  1  0
 15 18  1  0
 18 19  1  0
 18 20  1  0
 10 21  1  0
 21 22  1  0
 22 23  1  0
 22 24  2  0
 24 25  1  0
 24 26  1  0
 26 27  1  0
 27 28  1  0
 27 29  1  0
 27 30  1  0
 26 31  1  0
  8 32  2  0
 32 33  1  0
 32  2  1  0
 31  7  1  0
 31 21  2  0
M  CHG  1   9  -1
M  END
>  <UniqueID>  (41) 
33

>  <SMILES>  (41) 
Cn1ccc2/c(=N/CCN)[n-]c3ccccc3c21

>  <Energy>  (41) 
73.64718537730536

>  <Genealogy>  (41) 
Cn1ccc2c(=NCCN)[n-]c3ccccc3c21 (protonated)
Cn1ccc2/c(=N/CCN)[n-]c3ccccc3c21 (cis-trans isomerization)
Cn1ccc2/c(=N/CCN)[n-]c3ccccc3c21 (3D coordinates assigned)
Cn1ccc2/c(=N/CCN)[n-]c3ccccc3c21 (optimized conformer: 73.64718537730536 kcal/mol)

>  <smiles>  (41) 
Cn1ccc2c(=NCCN)[nH]c3ccccc3c21

>  <score_type>  (41) 
oracle

>  <origin>  (41) 
adg

>  <m_score__min__energy>  (41) 
-8.7799999999999994

>  <m_primary>  (41) 
energy

$$$$
41:0
     RDKit          3D

 43 46  0  0  0  0  0  0  0  0999 V2000
   60.0360   29.7390   45.7570 C   0  0  0  0  0  0  0  0  0  0  0  0
   58.5750   30.1700   46.6730 S   0  0  0  0  0  0  0  0  0  0  0  0
   57.3870   30.1200   45.7520 O   0  0  0  0  0  0  0  0  0  0  0  0
   58.3920   29.1930   47.7990 O   0  0  0  0  0  0  0  0  0  0  0  0
   58.7620   31.7740   47.3060 N   0  0  0  0  0  0  0  0  0  0  0  0
   58.9540   32.0980   48.6900 C   0  0  0  0  0  0  0  0  0  0  0  0
   59.6750   33.2520   49.0130 C   0  0  0  0  0  0  0  0  0  0  0  0
   59.8960   33.5980   50.3480 C   0  0  0  0  0  0  0  0  0  0  0  0
   59.3860   32.7970   51.3730 C   0  0  0  0  0  0  0  0  0  0  0  0
   59.6110   33.1430   52.6670 F   0  0  0  0  0  0  0  0  0  0  0  0
   58.6360   31.6530   51.0710 C   0  0  0  0  0  0  0  0  0  0  0  0
   58.1490   30.8370   52.1520 N   0  0  0  0  0  0  0  0  0  0  0  0
   56.9300   30.4050   52.3210 C   0  0  0  0  0  0  0  0  0  0  0  0
   55.8760   31.1420   51.8870 N   0  0  0  0  0  0  0  0  0  0  0  0
   54.5870   30.7540   52.0440 C   0  0  0  0  0  0  0  0  0  0  0  0
   53.5700   31.5770   51.5490 C   0  0  0  0  0  0  0  0  0  0  0  0
   52.2230   31.2120   51.6850 C   0  0  0  0  0  0  0  0  0  0  0  0
   51.1480   32.0810   51.1570 C   0  0  0  0  0  0  0  0  0  0  0  0
   51.0190   32.2590   49.9170 O   0  0  0  0  0  0  0  0  0  0  0  0
   50.2640   32.7140   52.0230 O   0  0  0  0  0  0  0  0  0  0  0  0
   51.9090   30.0080   52.3290 C   0  0  0  0  0  0  0  0  0  0  0  0
   52.9180   29.1800   52.8300 C   0  0  0  0  0  0  0  0  0  0  0  0
   54.2810   29.5360   52.6980 C   0  0  0  0  0  0  0  0  0  0  0  0
   55.3570   28.7410   53.1860 C   0  0  0  0  0  0  0  0  0  0  0  0
   55.1630   27.5120   53.8630 C   0  0  0  0  0  0  0  0  0  0  0  0
   56.2240   26.7900   54.3110 N   0  0  0  0  0  0  0  0  0  0  0  0
   57.5010   27.2070   54.1320 C   0  0  0  0  0  0  0  0  0  0  0  0
   57.7600   28.4060   53.4750 C   0  0  0  0  0  0  0  0  0  0  0  0
   56.6930   29.1880   52.9940 C   0  0  0  0  0  0  0  0  0  0  0  0
   58.4490   31.2890   49.7240 C   0  0  0  0  0  0  0  0  0  0  0  0
   60.8500   29.4989   46.4568 H   0  0  0  0  0  0  0  0  0  0  0  0
   59.8269   28.8643   45.1237 H   0  0  0  0  0  0  0  0  0  0  0  0
   60.3352   30.5871   45.1237 H   0  0  0  0  0  0  0  0  0  0  0  0
   60.0707   33.8915   48.2102 H   0  0  0  0  0  0  0  0  0  0  0  0
   60.4724   34.5024   50.5928 H   0  0  0  0  0  0  0  0  0  0  0  0
   53.8298   32.5209   51.0475 H   0  0  0  0  0  0  0  0  0  0  0  0
   50.8560   29.7106   52.4418 H   0  0  0  0  0  0  0  0  0  0  0  0
   52.6487   28.2397   53.3333 H   0  0  0  0  0  0  0  0  0  0  0  0
   54.1420   27.1375   54.0281 H   0  0  0  0  0  0  0  0  0  0  0  0
   56.0520   25.8870   54.8080 H   0  0  0  0  0  0  0  0  0  0  0  0
   58.3352   26.5959   54.5071 H   0  0  0  0  0  0  0  0  0  0  0  0
   58.7975   28.7423   53.3317 H   0  0  0  0  0  0  0  0  0  0  0  0
   57.9042   30.3655   49.4784 H   0  0  0  0  0  0  0  0  0  0  0  0
  1  2  1  0
  2  3  2  0
  2  4  2  0
  2  5  1  0
  5  6  1  0
  6  7  2  0
  7  8  1  0
  8  9  2  0
  9 10  1  0
  9 11  1  0
 11 12  1  0
 12 13  2  3
 13 14  1  0
 14 15  1  0
 15 16  2  0
 16 17  1  0
 17 18  1  0
 18 19  2  0
 18 20  1  0
 17 21  2  0
 21 22  1  0
 22 23  2  0
 23 24  1  0
 24 25  2  0
 25 26  1  0
 26 27  2  0
 27 28  1  0
 28 29  2  0
 11 30  2  0
 30  6  1  0
 29 13  1  0
 23 15  1  0
 29 24  1  0
  1 31  1  0
  1 32  1  0
  1 33  1  0
  7 34  1  0
  8 35  1  0
 16 36  1  0
 21 37  1  0
 22 38  1  0
 25 39  1  0
 26 40  1  0
 27 41  1  0
 28 42  1  0
 30 43  1  0
M  CHG  4   5  -1  14  -1  20  -1  26   1
M  END
>  <UniqueID>  (42) 
34

>  <SMILES>  (42) 
CS(=O)(=O)[N-]c1ccc(F)c(N=c2[n-]c3cc(C(=O)[O-])ccc3c3c[nH+]ccc23)c1

>  <Energy>  (42) 
65.51706316000957

>  <Genealogy>  (42) 
CS(=O)(=O)[N-]c1ccc(F)c(N=c2[n-]c3cc(C(=O)[O-])ccc3c3c[nH+]ccc23)c1 (protonated)
CS(=O)(=O)[N-]c1ccc(F)c(N=c2[n-]c3cc(C(=O)[O-])ccc3c3c[nH+]ccc23)c1 (3D coordinates assigned)
CS(=O)(=O)[N-]c1ccc(F)c(N=c2[n-]c3cc(C(=O)[O-])ccc3c3c[nH+]ccc23)c1 (optimized conformer: 65.51706316000957 kcal/mol)

>  <smiles>  (42) 
CS(=O)(=O)Nc1ccc(F)c(N=c2[nH]c3cc(C(=O)O)ccc3c3cnccc23)c1

>  <score_type>  (42) 
oracle

>  <origin>  (42) 
adg

>  <m_score__min__energy>  (42) 
-13.289999999999999

>  <m_primary>  (42) 
energy

$$$$
42:0
     RDKit          3D

 47 51  0  0  0  0  0  0  0  0999 V2000
   63.3020   31.9040   48.2010 C   0  0  0  0  0  0  0  0  0  0  0  0
   61.9010   32.1470   47.8480 N   0  0  0  0  0  0  0  0  0  0  0  0
   61.5840   33.2210   46.9270 C   0  0  0  0  0  0  0  0  0  0  0  0
   62.5220   33.8640   46.3820 O   0  0  0  0  0  0  0  0  0  0  0  0
   60.1870   33.5740   46.5570 C   0  0  0  0  0  0  0  0  0  0  0  0
   59.8950   33.8830   45.2160 C   0  0  0  0  0  0  0  0  0  0  0  0
   58.5870   34.1800   44.8220 C   0  0  0  0  0  0  0  0  0  0  0  0
   57.5560   34.1760   45.7630 C   0  0  0  0  0  0  0  0  0  0  0  0
   57.8320   33.8900   47.1020 C   0  0  0  0  0  0  0  0  0  0  0  0
   59.1420   33.6070   47.5070 C   0  0  0  0  0  0  0  0  0  0  0  0
   59.4600   33.2900   49.2410 S   0  0  0  0  0  0  0  0  0  0  0  0
   59.7330   31.5620   48.8820 C   0  0  0  0  0  0  0  0  0  0  0  0
   58.7580   30.6140   49.2080 C   0  0  0  0  0  0  0  0  0  0  0  0
   58.9730   29.2620   48.9250 C   0  0  0  0  0  0  0  0  0  0  0  0
   60.1680   28.8450   48.3260 C   0  0  0  0  0  0  0  0  0  0  0  0
   60.3370   27.4530   48.0220 N   0  0  0  0  0  0  0  0  0  0  0  0
   59.4690   26.6090   47.2500 C   0  0  0  0  0  0  0  0  0  0  0  0
   58.9880   25.5800   47.7950 O   0  0  0  0  0  0  0  0  0  0  0  0
   59.2190   26.8370   45.7840 C   0  0  0  0  0  0  0  0  0  0  0  0
   58.0190   27.7090   45.5120 C   0  0  0  0  0  0  0  0  0  0  0  0
   56.6980   27.3050   45.6840 C   0  0  0  0  0  0  0  0  0  0  0  0
   55.8710   28.2380   45.2530 O   0  0  0  0  0  0  0  0  0  0  0  0
   56.5920   29.2300   44.7930 C   0  0  0  0  0  0  0  0  0  0  0  0
   56.1280   30.4180   44.2320 C   0  0  0  0  0  0  0  0  0  0  0  0
   57.0790   31.3510   43.7850 C   0  0  0  0  0  0  0  0  0  0  0  0
   58.4570   31.0810   43.9110 C   0  0  0  0  0  0  0  0  0  0  0  0
   58.8990   29.8760   44.4850 C   0  0  0  0  0  0  0  0  0  0  0  0
   57.9330   28.9610   44.9180 C   0  0  0  0  0  0  0  0  0  0  0  0
   61.1230   29.8090   47.9580 C   0  0  0  0  0  0  0  0  0  0  0  0
   60.9140   31.1680   48.2350 C   0  0  0  0  0  0  0  0  0  0  0  0
   63.4064   31.8859   49.2959 H   0  0  0  0  0  0  0  0  0  0  0  0
   63.6222   30.9369   47.7861 H   0  0  0  0  0  0  0  0  0  0  0  0
   63.9292   32.7068   47.7861 H   0  0  0  0  0  0  0  0  0  0  0  0
   60.7036   33.8910   44.4703 H   0  0  0  0  0  0  0  0  0  0  0  0
   58.3702   34.4170   43.7699 H   0  0  0  0  0  0  0  0  0  0  0  0
   56.5252   34.3983   45.4497 H   0  0  0  0  0  0  0  0  0  0  0  0
   57.0172   33.8871   47.8410 H   0  0  0  0  0  0  0  0  0  0  0  0
   57.8208   30.9325   49.6877 H   0  0  0  0  0  0  0  0  0  0  0  0
   58.1989   28.5214   49.1743 H   0  0  0  0  0  0  0  0  0  0  0  0
   60.1069   27.3194   45.3493 H   0  0  0  0  0  0  0  0  0  0  0  0
   59.0174   25.8549   45.3313 H   0  0  0  0  0  0  0  0  0  0  0  0
   56.3875   26.3432   46.1182 H   0  0  0  0  0  0  0  0  0  0  0  0
   55.0504   30.6194   44.1418 H   0  0  0  0  0  0  0  0  0  0  0  0
   56.7463   32.2976   43.3341 H   0  0  0  0  0  0  0  0  0  0  0  0
   59.1922   31.8189   43.5574 H   0  0  0  0  0  0  0  0  0  0  0  0
   59.9722   29.6590   44.5905 H   0  0  0  0  0  0  0  0  0  0  0  0
   62.0447   29.4938   47.4470 H   0  0  0  0  0  0  0  0  0  0  0  0
  1  2  1  0
  2  3  1  0
  3  4  2  0
  3  5  1  0
  5  6  2  0
  6  7  1  0
  7  8  2  0
  8  9  1  0
  9 10  2  0
 10 11  1  0
 11 12  1  0
 12 13  2  0
 13 14  1  0
 14 15  2  0
 15 16  1  0
 16 17  1  0
 17 18  2  0
 17 19  1  0
 19 20  1  0
 20 21  2  0
 21 22  1  0
 22 23  1  0
 23 24  2  0
 24 25  1  0
 25 26  2  0
 26 27  1  0
 27 28  2  0
 15 29  1  0
 29 30  2  0
 30  2  1  0
 10  5  1  0
 30 12  1  0
 28 20  1  0
 28 23  1  0
  1 31  1  0
  1 32  1  0
  1 33  1  0
  6 34  1  0
  7 35  1  0
  8 36  1  0
  9 37  1  0
 13 38  1  0
 14 39  1  0
 19 40  1  0
 19 41  1  0
 21 42  1  0
 24 43  1  0
 25 44  1  0
 26 45  1  0
 27 46  1  0
 29 47  1  0
M  CHG  1  16  -1
M  END
>  <UniqueID>  (43) 
35

>  <SMILES>  (43) 
CN1C(=O)c2ccccc2Sc2ccc([N-]C(=O)Cc3coc4ccccc34)cc21

>  <Energy>  (43) 
104.49826523141995

>  <Genealogy>  (43) 
CN1C(=O)c2ccccc2Sc2ccc([N-]C(=O)Cc3coc4ccccc34)cc21 (protonated)
CN1C(=O)c2ccccc2Sc2ccc([N-]C(=O)Cc3coc4ccccc34)cc21 (3D coordinates assigned)
CN1C(=O)c2ccccc2Sc2ccc([N-]C(=O)Cc3coc4ccccc34)cc21 (nonaromatic ring conformer: 104.49826523141995 kcal/mol)

>  <smiles>  (43) 
CN1C(=O)c2ccccc2Sc2ccc(NC(=O)Cc3coc4ccccc34)cc21

>  <score_type>  (43) 
oracle

>  <origin>  (43) 
adg

>  <m_score__min__energy>  (43) 
-10.76

>  <m_primary>  (43) 
energy

$$$$
43:0
     RDKit          3D

 22 23  0  0  0  0  0  0  0  0999 V2000
   55.0800   26.3280   45.9460 O   0  0  0  0  0  0  0  0  0  0  0  0
   56.3340   26.4170   45.8650 C   0  0  0  0  0  0  0  0  0  0  0  0
   57.0880   25.4200   45.0850 C   0  0  0  0  0  0  0  0  0  0  0  0
   58.4950   24.7920   45.6360 S   0  0  0  0  0  0  0  0  0  0  0  0
   57.0020   27.4410   46.6180 N   0  0  0  0  0  0  0  0  0  0  0  0
   57.8010   28.3190   46.1420 N   0  0  0  0  0  0  0  0  0  0  0  0
   57.4060   29.5620   45.5450 C   0  0  0  0  0  0  0  0  0  0  0  0
   56.2250   29.8500   44.8690 C   0  0  0  0  0  0  0  0  0  0  0  0
   55.1870   28.9560   44.6210 O   0  0  0  0  0  0  0  0  0  0  0  0
   56.1680   31.1530   44.5020 N   0  0  0  0  0  0  0  0  0  0  0  0
   57.3130   31.6830   44.9800 C   0  0  0  0  0  0  0  0  0  0  0  0
   57.7240   33.0120   44.8710 C   0  0  0  0  0  0  0  0  0  0  0  0
   58.9540   33.3720   45.4520 C   0  0  0  0  0  0  0  0  0  0  0  0
   59.7390   32.4090   46.1240 C   0  0  0  0  0  0  0  0  0  0  0  0
   59.3020   31.0760   46.2210 C   0  0  0  0  0  0  0  0  0  0  0  0
   58.0800   30.7520   45.6350 C   0  0  0  0  0  0  0  0  0  0  0  0
   56.6966   25.0907   44.1112 H   0  0  0  0  0  0  0  0  0  0  0  0
   55.1550   28.0470   45.0650 H   0  0  0  0  0  0  0  0  0  0  0  0
   57.1054   33.7555   44.3469 H   0  0  0  0  0  0  0  0  0  0  0  0
   59.3070   34.4115   45.3823 H   0  0  0  0  0  0  0  0  0  0  0  0
   60.6983   32.7037   46.5743 H   0  0  0  0  0  0  0  0  0  0  0  0
   59.9035   30.3159   46.7411 H   0  0  0  0  0  0  0  0  0  0  0  0
  1  2  2  0
  2  3  1  0
  3  4  2  0
  2  5  1  0
  5  6  2  3
  6  7  1  0
  7  8  2  0
  8  9  1  0
  8 10  1  0
 10 11  1  0
 11 12  2  0
 12 13  1  0
 13 14  2  0
 14 15  1  0
 15 16  2  0
 16  7  1  0
 16 11  1  0
  3 17  1  0
  9 18  1  0
 12 19  1  0
 13 20  1  0
 14 21  1  0
 15 22  1  0
M  CHG  1  10  -1
M  END
>  <UniqueID>  (44) 
36

>  <SMILES>  (44) 
O=C(C=S)N=Nc1c(O)[n-]c2ccccc12

>  <Energy>  (44) 
68.4535043728806

>  <Genealogy>  (44) 
O=C(C=S)N=Nc1c(O)[n-]c2ccccc12 (protonated)
O=C(C=S)N=Nc1c(O)[n-]c2ccccc12 (3D coordinates assigned)
O=C(C=S)N=Nc1c(O)[n-]c2ccccc12 (optimized conformer: 68.4535043728806 kcal/mol)

>  <smiles>  (44) 
O=C(C=S)N=Nc1c(O)[nH]c2ccccc12

>  <score_type>  (44) 
oracle

>  <origin>  (44) 
adg

>  <m_score__min__energy>  (44) 
-9.1099999999999994

>  <m_primary>  (44) 
energy

$$$$
44:0
     RDKit          3D

 30 31  0  0  0  0  0  0  0  0999 V2000
   59.5900   26.4690   47.5220 C   0  0  0  0  0  0  0  0  0  0  0  0
   58.8610   27.4860   46.7040 C   0  0  0  0  0  0  0  0  0  0  0  0
   57.5140   27.2960   46.3790 C   0  0  0  0  0  0  0  0  0  0  0  0
   56.8620   28.2580   45.6110 C   0  0  0  0  0  0  0  0  0  0  0  0
   55.5320   28.0570   45.2520 O   0  0  0  0  0  0  0  0  0  0  0  0
   57.5580   29.4060   45.1960 C   0  0  0  0  0  0  0  0  0  0  0  0
   56.8980   30.4490   44.3730 C   0  0  0  0  0  0  0  0  0  0  0  0
   55.6660   30.6580   44.5290 O   0  0  0  0  0  0  0  0  0  0  0  0
   57.6270   31.2610   43.3750 C   0  0  0  0  0  0  0  0  0  0  0  0
   57.7750   32.5890   43.4880 C   0  0  0  0  0  0  0  0  0  0  0  0
   58.2110   33.2630   44.7350 C   0  0  0  0  0  0  0  0  0  0  0  0
   57.6650   32.9500   45.9960 C   0  0  0  0  0  0  0  0  0  0  0  0
   58.1200   33.6050   47.1460 C   0  0  0  0  0  0  0  0  0  0  0  0
   59.1260   34.5690   47.0530 C   0  0  0  0  0  0  0  0  0  0  0  0
   59.6850   34.8750   45.8110 C   0  0  0  0  0  0  0  0  0  0  0  0
   59.2350   34.2230   44.6600 C   0  0  0  0  0  0  0  0  0  0  0  0
   58.9160   29.5180   45.5520 C   0  0  0  0  0  0  0  0  0  0  0  0
   59.5920   30.5220   45.1960 O   0  0  0  0  0  0  0  0  0  0  0  0
   59.5020   28.5730   46.2810 O   0  0  0  0  0  0  0  0  0  0  0  0
   59.4382   26.6808   48.5907 H   0  0  0  0  0  0  0  0  0  0  0  0
   59.2041   25.4657   47.2886 H   0  0  0  0  0  0  0  0  0  0  0  0
   60.6641   26.5122   47.2886 H   0  0  0  0  0  0  0  0  0  0  0  0
   56.9774   26.4002   46.7247 H   0  0  0  0  0  0  0  0  0  0  0  0
   58.0664   30.7543   42.5031 H   0  0  0  0  0  0  0  0  0  0  0  0
   57.5613   33.2126   42.6074 H   0  0  0  0  0  0  0  0  0  0  0  0
   56.8770   32.1868   46.0768 H   0  0  0  0  0  0  0  0  0  0  0  0
   57.6840   33.3598   48.1257 H   0  0  0  0  0  0  0  0  0  0  0  0
   59.4776   35.0868   47.9576 H   0  0  0  0  0  0  0  0  0  0  0  0
   60.4811   35.6307   45.7383 H   0  0  0  0  0  0  0  0  0  0  0  0
   59.6863   34.4632   43.6860 H   0  0  0  0  0  0  0  0  0  0  0  0
  1  2  1  0
  2  3  2  0
  3  4  1  0
  4  5  1  0
  4  6  2  0
  6  7  1  0
  7  8  2  0
  7  9  1  0
  9 10  2  3
 10 11  1  0
 11 12  2  0
 12 13  1  0
 13 14  2  0
 14 15  1  0
 15 16  2  0
  6 17  1  0
 17 18  2  0
 17 19  1  0
 19  2  1  0
 16 11  1  0
  1 20  1  0
  1 21  1  0
  1 22  1  0
  3 23  1  0
  9 24  1  0
 10 25  1  0
 12 26  1  0
 13 27  1  0
 14 28  1  0
 15 29  1  0
 16 30  1  0
M  CHG  1   5  -1
M  END
>  <UniqueID>  (45) 
37

>  <SMILES>  (45) 
Cc1cc([O-])c(C(=O)C=Cc2ccccc2)c(=O)o1

>  <Energy>  (45) 
40.20871985692575

>  <Genealogy>  (45) 
Cc1cc([O-])c(C(=O)C=Cc2ccccc2)c(=O)o1 (protonated)
Cc1cc([O-])c(C(=O)C=Cc2ccccc2)c(=O)o1 (3D coordinates assigned)
Cc1cc([O-])c(C(=O)C=Cc2ccccc2)c(=O)o1 (optimized conformer: 40.20871985692575 kcal/mol)

>  <smiles>  (45) 
Cc1cc(O)c(C(=O)C=Cc2ccccc2)c(=O)o1

>  <score_type>  (45) 
oracle

>  <origin>  (45) 
adg

>  <m_score__min__energy>  (45) 
-11.039999999999999

>  <m_primary>  (45) 
energy

$$$$
45:0
     RDKit          3D

 48 51  0  0  0  0  0  0  0  0999 V2000
   64.7140   30.6860   51.4820 Cl  0  0  0  0  0  0  0  0  0  0  0  0
   64.0350   31.7460   50.2600 C   0  0  0  0  0  0  0  0  0  0  0  0
   64.8920   32.5550   49.4740 C   0  0  0  0  0  0  0  0  0  0  0  0
   64.3610   33.4110   48.4900 C   0  0  0  0  0  0  0  0  0  0  0  0
   62.9790   33.4250   48.3280 C   0  0  0  0  0  0  0  0  0  0  0  0
   62.2560   34.1270   47.4920 O   0  0  0  0  0  0  0  0  0  0  0  0
   60.9970   33.7870   47.7250 C   0  0  0  0  0  0  0  0  0  0  0  0
   59.8310   34.3720   46.9770 C   0  0  0  0  0  0  0  0  0  0  0  0
   58.5080   33.7760   47.4970 C   0  0  0  0  0  0  0  0  0  0  0  0
   57.3730   34.0320   46.4960 C   0  0  0  0  0  0  0  0  0  0  0  0
   57.6340   33.4520   45.1480 N   0  0  0  0  0  0  0  0  0  0  0  0
   56.7680   32.2870   44.8580 C   0  0  0  0  0  0  0  0  0  0  0  0
   57.6070   31.0940   44.3390 C   0  0  0  0  0  0  0  0  0  0  0  0
   57.0430   30.5570   43.0090 C   0  0  0  0  0  0  0  0  0  0  0  0
   55.6890   29.8330   43.1880 C   0  0  0  0  0  0  0  0  0  0  0  0
   55.4720   29.3420   44.5600 N   0  0  0  0  0  0  0  0  0  0  0  0
   56.7080   28.8160   45.1440 C   0  0  0  0  0  0  0  0  0  0  0  0
   57.7140   29.9550   45.3890 C   0  0  0  0  0  0  0  0  0  0  0  0
   59.0560   33.1270   44.8880 C   0  0  0  0  0  0  0  0  0  0  0  0
   59.9910   34.2050   45.4460 C   0  0  0  0  0  0  0  0  0  0  0  0
   60.8830   32.8630   48.7140 N   0  0  0  0  0  0  0  0  0  0  0  0
   62.1540   32.6470   49.0830 C   0  0  0  0  0  0  0  0  0  0  0  0
   62.6400   31.7880   50.0660 C   0  0  0  0  0  0  0  0  0  0  0  0
   65.9796   32.5143   49.6334 H   0  0  0  0  0  0  0  0  0  0  0  0
   65.0143   34.0449   47.8725 H   0  0  0  0  0  0  0  0  0  0  0  0
   59.8060   35.4554   47.1658 H   0  0  0  0  0  0  0  0  0  0  0  0
   58.6297   32.6917   47.6368 H   0  0  0  0  0  0  0  0  0  0  0  0
   58.2535   34.2555   48.4537 H   0  0  0  0  0  0  0  0  0  0  0  0
   56.4491   33.5874   46.8945 H   0  0  0  0  0  0  0  0  0  0  0  0
   57.2882   35.1216   46.3711 H   0  0  0  0  0  0  0  0  0  0  0  0
   56.2462   31.9874   45.7789 H   0  0  0  0  0  0  0  0  0  0  0  0
   56.0422   32.5717   44.0820 H   0  0  0  0  0  0  0  0  0  0  0  0
   58.6244   31.4715   44.1589 H   0  0  0  0  0  0  0  0  0  0  0  0
   56.9024   31.4020   42.3189 H   0  0  0  0  0  0  0  0  0  0  0  0
   57.7626   29.8256   42.6125 H   0  0  0  0  0  0  0  0  0  0  0  0
   54.8807   30.5352   42.9357 H   0  0  0  0  0  0  0  0  0  0  0  0
   55.6960   28.9563   42.5236 H   0  0  0  0  0  0  0  0  0  0  0  0
   54.7720   28.5650   44.5220 H   0  0  0  0  0  0  0  0  0  0  0  0
   56.4764   28.3252   46.1008 H   0  0  0  0  0  0  0  0  0  0  0  0
   57.1525   28.0921   44.4452 H   0  0  0  0  0  0  0  0  0  0  0  0
   57.5275   30.3791   46.3867 H   0  0  0  0  0  0  0  0  0  0  0  0
   58.7236   29.5259   45.3079 H   0  0  0  0  0  0  0  0  0  0  0  0
   59.2954   32.1650   45.3646 H   0  0  0  0  0  0  0  0  0  0  0  0
   59.2035   33.0729   43.7993 H   0  0  0  0  0  0  0  0  0  0  0  0
   61.0310   33.9223   45.2259 H   0  0  0  0  0  0  0  0  0  0  0  0
   59.7308   35.1618   44.9697 H   0  0  0  0  0  0  0  0  0  0  0  0
   60.0180   32.4250   49.1020 H   0  0  0  0  0  0  0  0  0  0  0  0
   61.9608   31.1663   50.6678 H   0  0  0  0  0  0  0  0  0  0  0  0
  1  2  1  0
  2  3  2  0
  3  4  1  0
  4  5  2  0
  5  6  1  0
  6  7  1  0
  7  8  1  0
  8  9  1  0
  9 10  1  0
 10 11  1  0
 11 12  1  0
 12 13  1  0
 13 14  1  0
 14 15  1  0
 15 16  1  0
 16 17  1  0
 17 18  1  0
 11 19  1  0
 19 20  1  0
  7 21  2  0
 21 22  1  0
 22 23  2  0
 23  2  1  0
 22  5  1  0
 20  8  1  0
 18 13  1  0
  3 24  1  0
  4 25  1  0
  8 26  1  0
  9 27  1  0
  9 28  1  0
 10 29  1  0
 10 30  1  0
 12 31  1  0
 12 32  1  0
 13 33  1  0
 14 34  1  0
 14 35  1  0
 15 36  1  0
 15 37  1  0
 16 38  1  0
 17 39  1  0
 17 40  1  0
 18 41  1  0
 18 42  1  0
 19 43  1  0
 19 44  1  0
 20 45  1  0
 20 46  1  0
 21 47  1  0
 23 48  1  0
M  CHG  1  21   1
M  END
>  <UniqueID>  (46) 
38

>  <SMILES>  (46) 
Clc1ccc2oc(C3CCN(CC4CCNCC4)CC3)[nH+]c2c1

>  <Energy>  (46) 
100.75936731847659

>  <Genealogy>  (46) 
Clc1ccc2oc(C3CCN(CC4CCNCC4)CC3)[nH+]c2c1 (protonated)
Clc1ccc2oc(C3CCN(CC4CCNCC4)CC3)[nH+]c2c1 (3D coordinates assigned)
Clc1ccc2oc(C3CCN(CC4CCNCC4)CC3)[nH+]c2c1 (nonaromatic ring conformer: 100.75936731847659 kcal/mol)

>  <smiles>  (46) 
Clc1ccc2oc(C3CCN(CC4CCNCC4)CC3)nc2c1

>  <score_type>  (46) 
oracle

>  <origin>  (46) 
adg

>  <m_score__min__energy>  (46) 
-7.5599999999999996

>  <m_primary>  (46) 
energy

$$$$
46:0
     RDKit          3D

 26 26  0  0  0  0  0  0  0  0999 V2000
   57.3990   31.9350   52.6950 C   0  0  0  0  0  0  0  0  0  0  0  0
   56.5060   31.3330   51.6170 C   0  0  0  0  0  0  0  0  0  0  0  0
   56.0000   30.0260   52.0570 N   0  0  0  0  0  0  0  0  0  0  0  0
   54.9390   30.1720   53.0630 C   0  0  0  0  0  0  0  0  0  0  0  0
   53.7200   29.3270   52.6810 C   0  0  0  0  0  0  0  0  0  0  0  0
   52.7780   30.1130   51.8110 C   0  0  0  0  0  0  0  0  0  0  0  0
   52.5720   29.7400   50.4720 C   0  0  0  0  0  0  0  0  0  0  0  0
   51.7220   30.4900   49.6540 C   0  0  0  0  0  0  0  0  0  0  0  0
   51.0800   31.6240   50.1600 C   0  0  0  0  0  0  0  0  0  0  0  0
   50.2370   32.3640   49.3410 O   0  0  0  0  0  0  0  0  0  0  0  0
   51.2910   32.0120   51.4890 C   0  0  0  0  0  0  0  0  0  0  0  0
   50.6600   33.1420   51.9960 O   0  0  0  0  0  0  0  0  0  0  0  0
   52.1410   31.2620   52.3100 C   0  0  0  0  0  0  0  0  0  0  0  0
   57.0055   31.6697   53.6874 H   0  0  0  0  0  0  0  0  0  0  0  0
   58.4201   31.5402   52.5879 H   0  0  0  0  0  0  0  0  0  0  0  0
   57.4160   33.0296   52.5879 H   0  0  0  0  0  0  0  0  0  0  0  0
   55.6578   32.0073   51.4280 H   0  0  0  0  0  0  0  0  0  0  0  0
   57.0909   31.2023   50.6946 H   0  0  0  0  0  0  0  0  0  0  0  0
   56.7960   29.5160   52.5070 H   0  0  0  0  0  0  0  0  0  0  0  0
   55.3184   29.8395   54.0405 H   0  0  0  0  0  0  0  0  0  0  0  0
   54.6385   31.2290   53.1133 H   0  0  0  0  0  0  0  0  0  0  0  0
   54.0569   28.4344   52.1335 H   0  0  0  0  0  0  0  0  0  0  0  0
   53.1910   29.0348   53.6001 H   0  0  0  0  0  0  0  0  0  0  0  0
   53.0818   28.8540   50.0657 H   0  0  0  0  0  0  0  0  0  0  0  0
   51.5579   30.1870   48.6094 H   0  0  0  0  0  0  0  0  0  0  0  0
   52.3113   31.5735   53.3511 H   0  0  0  0  0  0  0  0  0  0  0  0
  1  2  1  0
  2  3  1  0
  3  4  1  0
  4  5  1  0
  5  6  1  0
  6  7  2  0
  7  8  1  0
  8  9  2  0
  9 10  1  0
  9 11  1  0
 11 12  1  0
 11 13  2  0
 13  6  1  0
  1 14  1  0
  1 15  1  0
  1 16  1  0
  2 17  1  0
  2 18  1  0
  3 19  1  0
  4 20  1  0
  4 21  1  0
  5 22  1  0
  5 23  1  0
  7 24  1  0
  8 25  1  0
 13 26  1  0
M  CHG  2  10  -1  12  -1
M  END
>  <UniqueID>  (47) 
39

>  <SMILES>  (47) 
CCNCCc1ccc([O-])c([O-])c1

>  <Energy>  (47) 
18.488809929208283

>  <Genealogy>  (47) 
CCNCCc1ccc([O-])c([O-])c1 (protonated)
CCNCCc1ccc([O-])c([O-])c1 (3D coordinates assigned)
CCNCCc1ccc([O-])c([O-])c1 (optimized conformer: 18.488809929208283 kcal/mol)

>  <smiles>  (47) 
CCNCCc1ccc(O)c(O)c1

>  <score_type>  (47) 
oracle

>  <origin>  (47) 
adg

>  <m_score__min__energy>  (47) 
-13.81

>  <m_primary>  (47) 
energy

$$$$
