0:0
     RDKit          3D

 43 45  0  0  0  0  0  0  0  0999 V2000
   57.9959   26.3830   48.4941 H   0  0  0  0  0  0  0  0  0  0  0  0
   58.0620   25.8140   47.5550 C   0  0  0  0  0  0  0  0  0  0  0  0
   58.9680   26.3300   46.5040 C   0  0  0  0  0  0  0  0  0  0  0  0
   59.3960   25.5320   45.6240 O   0  0  0  0  0  0  0  0  0  0  0  0
   59.4040   27.7080   46.4980 N   0  0  0  0  0  0  0  0  0  0  0  0
   59.0510   28.6030   47.6160 C   0  0  0  0  0  0  0  0  0  0  0  0
   59.4662   28.1896   48.5470 H   0  0  0  0  0  0  0  0  0  0  0  0
   57.9541   28.6696   47.6656 H   0  0  0  0  0  0  0  0  0  0  0  0
   59.6030   30.0170   47.4130 C   0  0  0  0  0  0  0  0  0  0  0  0
   60.6855   30.0178   47.6085 H   0  0  0  0  0  0  0  0  0  0  0  0
   59.1000   30.7060   48.1074 H   0  0  0  0  0  0  0  0  0  0  0  0
   59.3570   30.4540   46.0350 N   0  0  0  0  0  0  0  0  0  0  0  0
   58.8180   31.7600   45.7760 C   0  0  0  0  0  0  0  0  0  0  0  0
   59.5780   32.9010   46.0770 C   0  0  0  0  0  0  0  0  0  0  0  0
   60.5846   32.7902   46.5066 H   0  0  0  0  0  0  0  0  0  0  0  0
   59.0630   34.1760   45.8340 C   0  0  0  0  0  0  0  0  0  0  0  0
   59.6625   35.0660   46.0757 H   0  0  0  0  0  0  0  0  0  0  0  0
   57.7890   34.3220   45.2850 C   0  0  0  0  0  0  0  0  0  0  0  0
   57.3849   35.3274   45.0957 H   0  0  0  0  0  0  0  0  0  0  0  0
   57.0250   33.1940   44.9750 C   0  0  0  0  0  0  0  0  0  0  0  0
   56.0208   33.3153   44.5428 H   0  0  0  0  0  0  0  0  0  0  0  0
   57.5340   31.9020   45.2130 C   0  0  0  0  0  0  0  0  0  0  0  0
   56.8060   30.7450   44.8920 O   0  0  0  0  0  0  0  0  0  0  0  0
   56.6350   30.2370   43.5740 C   0  0  0  0  0  0  0  0  0  0  0  0
   56.2844   29.1956   43.6250 H   0  0  0  0  0  0  0  0  0  0  0  0
   55.8930   30.8479   43.0390 H   0  0  0  0  0  0  0  0  0  0  0  0
   57.5954   30.2748   43.0390 H   0  0  0  0  0  0  0  0  0  0  0  0
   59.6850   29.5720   44.9080 C   0  0  0  0  0  0  0  0  0  0  0  0
   60.4456   30.0605   44.2813 H   0  0  0  0  0  0  0  0  0  0  0  0
   58.7647   29.3878   44.3344 H   0  0  0  0  0  0  0  0  0  0  0  0
   60.2290   28.2230   45.3910 C   0  0  0  0  0  0  0  0  0  0  0  0
   61.2643   28.3525   45.7393 H   0  0  0  0  0  0  0  0  0  0  0  0
   60.1998   27.5054   44.5579 H   0  0  0  0  0  0  0  0  0  0  0  0
   57.3160   24.7050   47.4480 C   0  0  0  0  0  0  0  0  0  0  0  0
   57.4236   23.9489   48.2396 H   0  0  0  0  0  0  0  0  0  0  0  0
   56.3630   24.4110   46.3600 C   0  0  0  0  0  0  0  0  0  0  0  0
   55.1310   24.8630   46.3480 O   0  0  0  0  0  0  0  0  0  0  0  0
   54.5460   24.4740   45.2390 C   0  0  0  0  0  0  0  0  0  0  0  0
   53.5060   24.6973   44.9589 H   0  0  0  0  0  0  0  0  0  0  0  0
   55.4350   23.7420   44.4780 C   0  0  0  0  0  0  0  0  0  0  0  0
   55.2432   23.2813   43.4977 H   0  0  0  0  0  0  0  0  0  0  0  0
   56.6120   23.7050   45.1950 C   0  0  0  0  0  0  0  0  0  0  0  0
   57.5531   23.2163   44.9025 H   0  0  0  0  0  0  0  0  0  0  0  0
  1  2  1  0
  2  3  1  0
  3  4  2  0
  3  5  1  0
  5  6  1  0
  6  7  1  0
  6  8  1  0
  6  9  1  0
  9 10  1  0
  9 11  1  0
  9 12  1  0
 12 13  1  0
 13 14  2  0
 14 15  1  0
 14 16  1  0
 16 17  1  0
 16 18  2  0
 18 19  1  0
 18 20  1  0
 20 21  1  0
 20 22  2  0
 22 23  1  0
 23 24  1  0
 24 25  1  0
 24 26  1  0
 24 27  1  0
 12 28  1  0
 28 29  1  0
 28 30  1  0
 28 31  1  0
 31 32  1  0
 31 33  1  0
  2 34  2  0
 34 35  1  0
 34 36  1  0
 36 37  1  0
 37 38  1  0
 38 39  1  0
 38 40  2  0
 40 41  1  0
 40 42  1  0
 42 43  1  0
 31  5  1  0
 42 36  2  0
 22 13  1  0
M  END
>  <UniqueID>  (1) 
1

>  <SMILES>  (1) 
COc1ccccc1N1CCN(C(=O)/C=C\c2ccco2)CC1

>  <Energy>  (1) 
82.1076135431863

>  <Genealogy>  (1) 
COc1ccccc1N1CCN(C(=O)/C=C\c2ccco2)CC1 (cis-trans isomerization)
COc1ccccc1N1CCN(C(=O)/C=C\c2ccco2)CC1 (3D coordinates assigned)
COc1ccccc1N1CCN(C(=O)/C=C\c2ccco2)CC1 (nonaromatic ring conformer: 82.1076135431863 kcal/mol)

>  <smiles>  (1) 
COc1ccccc1N1CCN(C(=O)C=Cc2ccco2)CC1

>  <score_type>  (1) 
oracle

>  <origin>  (1) 
adg

>  <m_score__min__energy>  (1) 
-6.9699999999999998

>  <m_primary>  (1) 
energy

$$$$
1:0
     RDKit          3D

 30 32  0  0  0  0  0  0  0  0999 V2000
   55.8310   29.7630   43.4820 C   0  0  0  0  0  0  0  0  0  0  0  0
   56.1260   29.7140   44.8730 O   0  0  0  0  0  0  0  0  0  0  0  0
   57.4010   29.9760   45.3840 C   0  0  0  0  0  0  0  0  0  0  0  0
   57.7770   31.2490   45.6860 N   0  0  0  0  0  0  0  0  0  0  0  0
   59.0110   31.5260   46.1920 C   0  0  0  0  0  0  0  0  0  0  0  0
   59.9160   30.4710   46.3890 C   0  0  0  0  0  0  0  0  0  0  0  0
   59.5160   29.1710   46.0780 C   0  0  0  0  0  0  0  0  0  0  0  0
   58.2690   28.9470   45.5850 N   0  0  0  0  0  0  0  0  0  0  0  0
   61.1610   30.7260   46.8570 N   0  0  0  0  0  0  0  0  0  0  0  0
   61.5610   31.9950   47.1310 C   0  0  0  0  0  0  0  0  0  0  0  0
   62.9590   32.2350   47.6170 C   0  0  0  0  0  0  0  0  0  0  0  0
   60.6650   33.0610   46.9280 C   0  0  0  0  0  0  0  0  0  0  0  0
   61.0520   34.2460   47.1300 O   0  0  0  0  0  0  0  0  0  0  0  0
   59.3810   32.8100   46.5030 N   0  0  0  0  0  0  0  0  0  0  0  0
   58.4500   33.9280   46.2630 C   0  0  0  0  0  0  0  0  0  0  0  0
   58.9480   34.9640   45.2580 C   0  0  0  0  0  0  0  0  0  0  0  0
   57.8680   33.9820   44.8530 C   0  0  0  0  0  0  0  0  0  0  0  0
   54.7548   29.9418   43.3415 H   0  0  0  0  0  0  0  0  0  0  0  0
   56.4023   30.5786   43.0145 H   0  0  0  0  0  0  0  0  0  0  0  0
   56.1079   28.8066   43.0145 H   0  0  0  0  0  0  0  0  0  0  0  0
   60.2078   28.3296   46.2313 H   0  0  0  0  0  0  0  0  0  0  0  0
   57.9770   27.9720   45.3540 H   0  0  0  0  0  0  0  0  0  0  0  0
   62.9696   32.2368   48.7169 H   0  0  0  0  0  0  0  0  0  0  0  0
   63.6185   31.4369   47.2453 H   0  0  0  0  0  0  0  0  0  0  0  0
   63.3146   33.2073   47.2453 H   0  0  0  0  0  0  0  0  0  0  0  0
   58.0364   33.9598   47.2818 H   0  0  0  0  0  0  0  0  0  0  0  0
   58.7003   36.0268   45.3962 H   0  0  0  0  0  0  0  0  0  0  0  0
   59.9326   35.2448   44.8557 H   0  0  0  0  0  0  0  0  0  0  0  0
   56.8371   34.3327   44.6974 H   0  0  0  0  0  0  0  0  0  0  0  0
   57.7457   33.2563   44.0354 H   0  0  0  0  0  0  0  0  0  0  0  0
  1  2  1  0
  2  3  1  0
  3  4  2  0
  4  5  1  0
  5  6  2  0
  6  7  1  0
  7  8  2  0
  6  9  1  0
  9 10  2  0
 10 11  1  0
 10 12  1  0
 12 13  2  0
 12 14  1  0
 14 15  1  0
 15 16  1  0
 16 17  1  0
  8  3  1  0
 17 15  1  0
 14  5  1  0
  1 18  1  0
  1 19  1  0
  1 20  1  0
  7 21  1  0
  8 22  1  0
 11 23  1  0
 11 24  1  0
 11 25  1  0
 15 26  1  0
 16 27  1  0
 16 28  1  0
 17 29  1  0
 17 30  1  0
M  CHG  1   8   1
M  END
>  <UniqueID>  (2) 
2

>  <SMILES>  (2) 
COc1nc2c(c[nH+]1)nc(C)c(=O)n2C1CC1

>  <Energy>  (2) 
300.762142100016

>  <Genealogy>  (2) 
COc1nc2c(c[nH+]1)nc(C)c(=O)n2C1CC1 (protonated)
COc1nc2c(c[nH+]1)nc(C)c(=O)n2C1CC1 (3D coordinates assigned)
COc1nc2c(c[nH+]1)nc(C)c(=O)n2C1CC1 (nonaromatic ring conformer: 300.762142100016 kcal/mol)

>  <smiles>  (2) 
COc1ncc2nc(C)c(=O)n(C3CC3)c2n1

>  <score_type>  (2) 
oracle

>  <origin>  (2) 
adg

>  <m_score__min__energy>  (2) 
-4.4100000000000001

>  <m_primary>  (2) 
energy

$$$$
2:0
     RDKit          3D

 52 54  0  0  0  0  0  0  0  0999 V2000
   57.7230   32.3040   41.1510 C   0  0  0  0  0  0  0  0  0  0  0  0
   57.4840   31.9310   42.5780 C   0  0  0  0  0  0  0  0  0  0  0  0
   58.1470   32.6070   43.6080 C   0  0  0  0  0  0  0  0  0  0  0  0
   57.9160   32.2100   44.9350 C   0  0  0  0  0  0  0  0  0  0  0  0
   58.5730   32.8590   46.0430 N   0  0  0  0  0  0  0  0  0  0  0  0
   59.1500   34.1880   45.9170 C   0  0  0  0  0  0  0  0  0  0  0  0
   59.3400   34.6900   47.3400 C   0  0  0  0  0  0  0  0  0  0  0  0
   59.3300   33.4480   48.2240 C   0  0  0  0  0  0  0  0  0  0  0  0
   58.6150   32.3560   47.4140 C   0  0  2  0  0  0  0  0  0  0  0  0
   59.3680   31.0010   47.4790 C   0  0  0  0  0  0  0  0  0  0  0  0
   58.4660   29.8430   47.5850 N   0  0  0  0  0  0  0  0  0  0  0  0
   59.1840   28.5660   47.4950 C   0  0  0  0  0  0  0  0  0  0  0  0
   58.6850   27.7970   46.3090 C   0  0  0  0  0  0  0  0  0  0  0  0
   58.0540   26.5630   46.3060 C   0  0  0  0  0  0  0  0  0  0  0  0
   57.6700   25.7580   47.5040 C   0  0  0  0  0  0  0  0  0  0  0  0
   57.7990   26.1860   45.0360 N   0  0  0  0  0  0  0  0  0  0  0  0
   58.2660   27.1330   44.2370 N   0  0  0  0  0  0  0  0  0  0  0  0
   58.1840   27.0680   42.7820 C   0  0  0  0  0  0  0  0  0  0  0  0
   58.8360   28.1140   44.9700 C   0  0  0  0  0  0  0  0  0  0  0  0
   59.4450   29.3670   44.4140 C   0  0  0  0  0  0  0  0  0  0  0  0
   57.0740   31.1690   45.1750 N   0  0  0  0  0  0  0  0  0  0  0  0
   56.4350   30.5220   44.1650 C   0  0  0  0  0  0  0  0  0  0  0  0
   55.5490   29.3600   44.4630 C   0  0  0  0  0  0  0  0  0  0  0  0
   56.6530   30.8970   42.8770 N   0  0  0  0  0  0  0  0  0  0  0  0
   58.3160   33.2295   41.1083 H   0  0  0  0  0  0  0  0  0  0  0  0
   58.2707   31.4940   40.6471 H   0  0  0  0  0  0  0  0  0  0  0  0
   56.7582   32.4631   40.6471 H   0  0  0  0  0  0  0  0  0  0  0  0
   58.8363   33.4340   43.3825 H   0  0  0  0  0  0  0  0  0  0  0  0
   60.1171   34.1385   45.3953 H   0  0  0  0  0  0  0  0  0  0  0  0
   58.5025   34.8583   45.3328 H   0  0  0  0  0  0  0  0  0  0  0  0
   60.2995   35.2195   47.4344 H   0  0  0  0  0  0  0  0  0  0  0  0
   58.5492   35.3982   47.6282 H   0  0  0  0  0  0  0  0  0  0  0  0
   60.3590   33.1377   48.4585 H   0  0  0  0  0  0  0  0  0  0  0  0
   58.8204   33.6386   49.1800 H   0  0  0  0  0  0  0  0  0  0  0  0
   57.6105   32.1579   47.8163 H   0  0  0  0  0  0  0  0  0  0  0  0
   59.9717   30.8920   46.5659 H   0  0  0  0  0  0  0  0  0  0  0  0
   59.9907   31.0154   48.3856 H   0  0  0  0  0  0  0  0  0  0  0  0
   57.7420   29.8820   46.8300 H   0  0  0  0  0  0  0  0  0  0  0  0
   60.2612   28.7578   47.3813 H   0  0  0  0  0  0  0  0  0  0  0  0
   59.0112   27.9819   48.4109 H   0  0  0  0  0  0  0  0  0  0  0  0
   57.9339   26.3112   48.4174 H   0  0  0  0  0  0  0  0  0  0  0  0
   56.5860   25.5717   47.4885 H   0  0  0  0  0  0  0  0  0  0  0  0
   58.2073   24.7983   47.4885 H   0  0  0  0  0  0  0  0  0  0  0  0
   57.3527   26.4091   42.4907 H   0  0  0  0  0  0  0  0  0  0  0  0
   58.0108   28.0768   42.3791 H   0  0  0  0  0  0  0  0  0  0  0  0
   59.1266   26.6691   42.3791 H   0  0  0  0  0  0  0  0  0  0  0  0
   59.7619   30.0190   45.2413 H   0  0  0  0  0  0  0  0  0  0  0  0
   60.3176   29.1078   43.7965 H   0  0  0  0  0  0  0  0  0  0  0  0
   58.7021   29.8930   43.7965 H   0  0  0  0  0  0  0  0  0  0  0  0
   55.4568   29.2391   45.5524 H   0  0  0  0  0  0  0  0  0  0  0  0
   54.5541   29.5365   44.0282 H   0  0  0  0  0  0  0  0  0  0  0  0
   55.9825   28.4473   44.0282 H   0  0  0  0  0  0  0  0  0  0  0  0
  1  2  1  0
  2  3  2  0
  3  4  1  0
  4  5  1  0
  5  6  1  0
  6  7  1  0
  7  8  1  0
  8  9  1  0
  9 10  1  0
 10 11  1  0
 11 12  1  0
 12 13  1  0
 13 14  1  0
 14 15  1  0
 14 16  2  0
 16 17  1  0
 17 18  1  0
 17 19  1  0
 19 20  1  0
  4 21  2  0
 21 22  1  0
 22 23  1  0
 22 24  2  0
 24  2  1  0
  9  5  1  0
 19 13  2  0
  1 25  1  0
  1 26  1  0
  1 27  1  0
  3 28  1  0
  6 29  1  0
  6 30  1  0
  7 31  1  0
  7 32  1  0
  8 33  1  0
  8 34  1  0
  9 35  1  1
 10 36  1  0
 10 37  1  0
 11 38  1  0
 12 39  1  0
 12 40  1  0
 15 41  1  0
 15 42  1  0
 15 43  1  0
 18 44  1  0
 18 45  1  0
 18 46  1  0
 20 47  1  0
 20 48  1  0
 20 49  1  0
 23 50  1  0
 23 51  1  0
 23 52  1  0
M  END
>  <UniqueID>  (3) 
3

>  <SMILES>  (3) 
Cc1cc(N2CCC[C@@H]2CNCc2c(C)nn(C)c2C)nc(C)n1

>  <Energy>  (3) 
77.5395927296524

>  <Genealogy>  (3) 
Cc1cc(N2CCC[C@@H]2CNCc2c(C)nn(C)c2C)nc(C)n1 (chirality)
Cc1cc(N2CCC[C@@H]2CNCc2c(C)nn(C)c2C)nc(C)n1 (3D coordinates assigned)
Cc1cc(N2CCC[C@@H]2CNCc2c(C)nn(C)c2C)nc(C)n1 (nonaromatic ring conformer: 77.5395927296524 kcal/mol)

>  <smiles>  (3) 
Cc1cc(N2CCCC2CNCc2c(C)nn(C)c2C)nc(C)n1

>  <score_type>  (3) 
oracle

>  <origin>  (3) 
adg

>  <m_score__min__energy>  (3) 
-7.75

>  <m_primary>  (3) 
energy

$$$$
3:0
     RDKit          3D

 54 57  0  0  0  0  0  0  0  0999 V2000
   57.3950   31.2140   43.0120 C   0  0  0  0  0  0  0  0  0  0  0  0
   57.8400   32.0310   44.2000 C   0  0  0  0  0  0  0  0  0  0  0  0
   57.7600   33.4250   44.1220 C   0  0  0  0  0  0  0  0  0  0  0  0
   58.1640   34.2230   45.1850 C   0  0  0  0  0  0  0  0  0  0  0  0
   58.6730   33.6640   46.3670 C   0  0  0  0  0  0  0  0  0  0  0  0
   59.1310   34.6230   47.4620 C   0  0  0  0  0  0  0  0  0  0  0  0
   60.5930   34.6040   47.7120 N   0  0  0  0  0  0  0  0  0  0  0  0
   60.9680   34.2080   49.0870 C   0  0  0  0  0  0  0  0  0  0  0  0
   62.4760   33.9360   49.1860 C   0  0  0  0  0  0  0  0  0  0  0  0
   62.9120   32.8440   48.2770 N   0  0  0  0  0  0  0  0  0  0  0  0
   63.1100   31.5840   49.0110 C   0  0  0  0  0  0  0  0  0  0  0  0
   62.0070   32.6290   47.1240 C   0  0  0  0  0  0  0  0  0  0  0  0
   61.3920   33.9530   46.6470 C   0  0  0  0  0  0  0  0  0  0  0  0
   58.7210   32.2430   46.4890 C   0  0  0  0  0  0  0  0  0  0  0  0
   59.1490   31.6340   47.6420 N   0  0  0  0  0  0  0  0  0  0  0  0
   59.2400   30.2800   47.7640 C   0  0  0  0  0  0  0  0  0  0  0  0
   59.7100   29.7020   48.9940 N   0  0  0  0  0  0  0  0  0  0  0  0
   60.0400   28.2750   49.0690 C   0  0  0  0  0  0  0  0  0  0  0  0
   61.1280   28.0580   50.1260 C   0  0  0  0  0  0  0  0  0  0  0  0
   60.7590   28.6500   51.3590 O   0  0  0  0  0  0  0  0  0  0  0  0
   60.6790   30.0550   51.2120 C   0  0  0  0  0  0  0  0  0  0  0  0
   59.5500   30.4350   50.2510 C   0  0  0  0  0  0  0  0  0  0  0  0
   58.8820   29.4610   46.6930 C   0  0  0  0  0  0  0  0  0  0  0  0
   58.4200   30.0330   45.5150 C   0  0  0  0  0  0  0  0  0  0  0  0
   58.3220   31.4310   45.3880 C   0  0  0  0  0  0  0  0  0  0  0  0
   56.8963   30.2984   43.3627 H   0  0  0  0  0  0  0  0  0  0  0  0
   56.6934   31.8036   42.4036 H   0  0  0  0  0  0  0  0  0  0  0  0
   58.2709   30.9444   42.4036 H   0  0  0  0  0  0  0  0  0  0  0  0
   57.3720   33.8959   43.2067 H   0  0  0  0  0  0  0  0  0  0  0  0
   58.0831   35.3166   45.0982 H   0  0  0  0  0  0  0  0  0  0  0  0
   58.8440   35.6438   47.1693 H   0  0  0  0  0  0  0  0  0  0  0  0
   58.6460   34.2955   48.3934 H   0  0  0  0  0  0  0  0  0  0  0  0
   60.7019   35.0191   49.7808 H   0  0  0  0  0  0  0  0  0  0  0  0
   60.4265   33.2867   49.3478 H   0  0  0  0  0  0  0  0  0  0  0  0
   63.0195   34.8550   48.9214 H   0  0  0  0  0  0  0  0  0  0  0  0
   62.6950   33.6233   50.2176 H   0  0  0  0  0  0  0  0  0  0  0  0
   63.0790   31.7811   50.0928 H   0  0  0  0  0  0  0  0  0  0  0  0
   62.3122   30.8751   48.7445 H   0  0  0  0  0  0  0  0  0  0  0  0
   64.0867   31.1540   48.7445 H   0  0  0  0  0  0  0  0  0  0  0  0
   62.5784   32.1805   46.2980 H   0  0  0  0  0  0  0  0  0  0  0  0
   61.1928   31.9603   47.4399 H   0  0  0  0  0  0  0  0  0  0  0  0
   62.2018   34.6328   46.3435 H   0  0  0  0  0  0  0  0  0  0  0  0
   60.7221   33.7341   45.8024 H   0  0  0  0  0  0  0  0  0  0  0  0
   59.4550   32.1910   48.4650 H   0  0  0  0  0  0  0  0  0  0  0  0
   59.1410   27.7047   49.3455 H   0  0  0  0  0  0  0  0  0  0  0  0
   60.4054   27.9309   48.0902 H   0  0  0  0  0  0  0  0  0  0  0  0
   61.2756   26.9781   50.2747 H   0  0  0  0  0  0  0  0  0  0  0  0
   62.0585   28.5278   49.7747 H   0  0  0  0  0  0  0  0  0  0  0  0
   60.4856   30.5104   52.1944 H   0  0  0  0  0  0  0  0  0  0  0  0
   61.6312   30.4225   50.8018 H   0  0  0  0  0  0  0  0  0  0  0  0
   58.5811   30.1782   50.7041 H   0  0  0  0  0  0  0  0  0  0  0  0
   59.5873   31.5161   50.0516 H   0  0  0  0  0  0  0  0  0  0  0  0
   58.9652   28.3677   46.7812 H   0  0  0  0  0  0  0  0  0  0  0  0
   58.1280   29.3875   44.6736 H   0  0  0  0  0  0  0  0  0  0  0  0
  1  2  1  0
  2  3  2  0
  3  4  1  0
  4  5  2  0
  5  6  1  0
  6  7  1  0
  7  8  1  0
  8  9  1  0
  9 10  1  0
 10 11  1  0
 10 12  1  0
 12 13  1  0
  5 14  1  0
 14 15  2  0
 15 16  1  0
 16 17  1  0
 17 18  1  0
 18 19  1  0
 19 20  1  0
 20 21  1  0
 21 22  1  0
 16 23  2  0
 23 24  1  0
 24 25  2  0
 25  2  1  0
 13  7  1  0
 25 14  1  0
 22 17  1  0
  1 26  1  0
  1 27  1  0
  1 28  1  0
  3 29  1  0
  4 30  1  0
  6 31  1  0
  6 32  1  0
  8 33  1  0
  8 34  1  0
  9 35  1  0
  9 36  1  0
 11 37  1  0
 11 38  1  0
 11 39  1  0
 12 40  1  0
 12 41  1  0
 13 42  1  0
 13 43  1  0
 15 44  1  0
 18 45  1  0
 18 46  1  0
 19 47  1  0
 19 48  1  0
 21 49  1  0
 21 50  1  0
 22 51  1  0
 22 52  1  0
 23 53  1  0
 24 54  1  0
M  CHG  1  15   1
M  END
>  <UniqueID>  (4) 
4

>  <SMILES>  (4) 
Cc1ccc(CN2CCN(C)CC2)c2[nH+]c(N3CCOCC3)ccc12

>  <Energy>  (4) 
83.74397361445124

>  <Genealogy>  (4) 
Cc1ccc(CN2CCN(C)CC2)c2[nH+]c(N3CCOCC3)ccc12 (protonated)
Cc1ccc(CN2CCN(C)CC2)c2[nH+]c(N3CCOCC3)ccc12 (3D coordinates assigned)
Cc1ccc(CN2CCN(C)CC2)c2[nH+]c(N3CCOCC3)ccc12 (nonaromatic ring conformer: 83.74397361445124 kcal/mol)

>  <smiles>  (4) 
Cc1ccc(CN2CCN(C)CC2)c2nc(N3CCOCC3)ccc12

>  <score_type>  (4) 
oracle

>  <origin>  (4) 
adg

>  <m_score__min__energy>  (4) 
-6.3399999999999999

>  <m_primary>  (4) 
energy

$$$$
4:0
     RDKit          3D

 48 50  0  0  1  0  0  0  0  0999 V2000
   57.5080   33.1300   47.0490 C   0  0  0  0  0  0  0  0  0  0  0  0
   57.0340   33.0920   45.6090 C   0  0  0  0  0  0  0  0  0  0  0  0
   58.1090   32.9930   44.6760 N   0  0  0  0  0  0  0  0  0  0  0  0
   59.0110   34.0440   44.5630 C   0  0  0  0  0  0  0  0  0  0  0  0
   60.0420   34.1910   45.6450 C   0  0  0  0  0  0  0  0  0  0  0  0
   58.1600   31.8560   43.8760 C   0  0  0  0  0  0  0  0  0  0  0  0
   56.7990   31.2050   43.5650 C   0  0  0  0  0  0  0  0  0  0  0  0
   56.4490   30.4040   44.7240 N   0  0  0  0  0  0  0  0  0  0  0  0
   57.2720   29.5540   45.2040 C   0  0  0  0  0  0  0  0  0  0  0  0
   58.2070   30.0140   46.0610 N   0  0  0  0  0  0  0  0  0  0  0  0
   59.1360   29.2290   46.6460 C   0  0  0  0  0  0  0  0  0  0  0  0
   60.0990   29.7950   47.5540 C   0  0  0  0  0  0  0  0  0  0  0  0
   60.9350   30.8420   47.2210 C   0  0  0  0  0  0  0  0  0  0  0  0
   61.8270   31.3080   48.1820 C   0  0  0  0  0  0  0  0  0  0  0  0
   61.9000   30.7630   49.4390 C   0  0  0  0  0  0  0  0  0  0  0  0
   61.0780   29.7450   49.7450 N   0  0  0  0  0  0  0  0  0  0  0  0
   60.2120   29.2860   48.8260 C   0  0  0  0  0  0  0  0  0  0  0  0
   59.0820   27.8820   46.3130 C   0  0  0  0  0  0  0  0  0  0  0  0
   58.1050   27.4210   45.4220 C   0  0  0  0  0  0  0  0  0  0  0  0
   58.0570   26.0490   45.0890 C   0  0  0  0  0  0  0  0  0  0  0  0
   57.3810   25.2780   44.1920 C   0  0  0  0  0  0  0  0  0  0  0  0
   57.5580   23.9650   44.1240 C   0  0  0  0  0  0  0  0  0  0  0  0
   58.4850   23.4020   45.0320 C   0  0  0  0  0  0  0  0  0  0  0  0
   59.1220   24.7710   46.0070 S   0  0  0  0  0  0  0  0  0  0  0  0
   57.2180   28.2630   44.8820 N   0  0  0  0  0  0  0  0  0  0  0  0
   56.6410   33.0605   47.7224 H   0  0  0  0  0  0  0  0  0  0  0  0
   58.1852   32.2833   47.2346 H   0  0  0  0  0  0  0  0  0  0  0  0
   58.0416   34.0738   47.2346 H   0  0  0  0  0  0  0  0  0  0  0  0
   56.3743   32.2214   45.4789 H   0  0  0  0  0  0  0  0  0  0  0  0
   56.5071   34.0365   45.4085 H   0  0  0  0  0  0  0  0  0  0  0  0
   59.5477   33.9169   43.6113 H   0  0  0  0  0  0  0  0  0  0  0  0
   58.3946   34.9521   44.6374 H   0  0  0  0  0  0  0  0  0  0  0  0
   59.5540   34.1214   46.6284 H   0  0  0  0  0  0  0  0  0  0  0  0
   60.7904   33.3905   45.5496 H   0  0  0  0  0  0  0  0  0  0  0  0
   60.5368   35.1688   45.5496 H   0  0  0  0  0  0  0  0  0  0  0  0
   58.6293   32.1340   42.9208 H   0  0  0  0  0  0  0  0  0  0  0  0
   58.7297   31.1086   44.4477 H   0  0  0  0  0  0  0  0  0  0  0  0
   56.0373   31.9802   43.3951 H   0  0  0  0  0  0  0  0  0  0  0  0
   56.8527   30.5869   42.6567 H   0  0  0  0  0  0  0  0  0  0  0  0
   60.8969   31.2969   46.2202 H   0  0  0  0  0  0  0  0  0  0  0  0
   62.4966   32.1420   47.9250 H   0  0  0  0  0  0  0  0  0  0  0  0
   62.6152   31.1506   50.1795 H   0  0  0  0  0  0  0  0  0  0  0  0
   59.5531   28.4518   49.1087 H   0  0  0  0  0  0  0  0  0  0  0  0
   59.8060   27.1777   46.7487 H   0  0  0  0  0  0  0  0  0  0  0  0
   56.6684   25.7576   43.5048 H   0  0  0  0  0  0  0  0  0  0  0  0
   57.0113   23.3453   43.3980 H   0  0  0  0  0  0  0  0  0  0  0  0
   58.7604   22.3409   45.1230 H   0  0  0  0  0  0  0  0  0  0  0  0
   56.5200   27.8650   44.2220 H   0  0  0  0  0  0  0  0  0  0  0  0
  1  2  1  0
  2  3  1  0
  3  4  1  0
  4  5  1  0
  3  6  1  0
  6  7  1  0
  7  8  1  0
  8  9  2  0
  9 10  1  0
 10 11  2  0
 11 12  1  0
 12 13  2  0
 13 14  1  0
 14 15  2  0
 15 16  1  0
 16 17  2  0
 11 18  1  0
 18 19  2  0
 19 20  1  0
 20 21  2  0
 21 22  1  0
 22 23  2  0
 23 24  1  0
 19 25  1  0
 25  9  1  0
 17 12  1  0
 24 20  1  0
  1 26  1  0
  1 27  1  0
  1 28  1  0
  2 29  1  0
  2 30  1  0
  4 31  1  0
  4 32  1  0
  5 33  1  0
  5 34  1  0
  5 35  1  0
  6 36  1  0
  6 37  1  0
  7 38  1  0
  7 39  1  0
 13 40  1  0
 14 41  1  0
 15 42  1  0
 17 43  1  0
 18 44  1  0
 21 45  1  0
 22 46  1  0
 23 47  1  0
 25 48  1  0
M  END
>  <smiles>  (5) 
CCN(CC)CCN=c1nc(-c2cccnc2)cc(-c2cccs2)[nH]1

>  <score_type>  (5) 
oracle

>  <origin>  (5) 
adg

>  <m_score__min__energy>  (5) 
-6.8899999999999997

>  <m_primary>  (5) 
energy

$$$$
5:0
     RDKit          3D

 39 41  0  0  0  0  0  0  0  0999 V2000
   68.0480   33.4690   50.8470 C   0  0  0  0  0  0  0  0  0  0  0  0
   67.0020   33.0810   50.1120 C   0  0  0  0  0  0  0  0  0  0  0  0
   66.0760   31.9860   50.5620 C   0  0  0  0  0  0  0  0  0  0  0  0
   64.9440   31.9130   49.6990 O   0  0  0  0  0  0  0  0  0  0  0  0
   64.0400   32.9700   49.5250 C   0  0  0  0  0  0  0  0  0  0  0  0
   64.1130   33.9900   50.2640 O   0  0  0  0  0  0  0  0  0  0  0  0
   63.0280   32.8830   48.5020 N   0  0  0  0  0  0  0  0  0  0  0  0
   63.0170   31.7420   47.5580 C   0  0  0  0  0  0  0  0  0  0  0  0
   61.5850   31.2620   47.2780 C   0  0  0  0  0  0  0  0  0  0  0  0
   60.7120   32.4390   46.9980 C   0  0  0  0  0  0  0  0  0  0  0  0
   60.9690   33.7130   47.4590 C   0  0  0  0  0  0  0  0  0  0  0  0
   59.9680   34.5620   47.1330 N   0  0  0  0  0  0  0  0  0  0  0  0
   59.0630   33.8070   46.4780 C   0  0  0  0  0  0  0  0  0  0  0  0
   57.8380   34.2180   45.9600 C   0  0  0  0  0  0  0  0  0  0  0  0
   57.0310   33.2530   45.3300 C   0  0  0  0  0  0  0  0  0  0  0  0
   57.4510   31.9050   45.2330 C   0  0  0  0  0  0  0  0  0  0  0  0
   56.5990   30.9900   44.5970 O   0  0  0  0  0  0  0  0  0  0  0  0
   56.8600   30.4000   43.3270 C   0  0  0  0  0  0  0  0  0  0  0  0
   58.7020   31.5180   45.7740 C   0  0  0  0  0  0  0  0  0  0  0  0
   59.4790   32.5010   46.3850 C   0  0  0  0  0  0  0  0  0  0  0  0
   62.2020   34.0760   48.2260 C   0  0  0  0  0  0  0  0  0  0  0  0
   68.7051   34.2741   50.4865 H   0  0  0  0  0  0  0  0  0  0  0  0
   68.2521   32.9833   51.8126 H   0  0  0  0  0  0  0  0  0  0  0  0
   66.8129   33.5777   49.1489 H   0  0  0  0  0  0  0  0  0  0  0  0
   66.6117   31.0255   50.5407 H   0  0  0  0  0  0  0  0  0  0  0  0
   65.7342   32.2028   51.5848 H   0  0  0  0  0  0  0  0  0  0  0  0
   63.4811   32.0559   46.6114 H   0  0  0  0  0  0  0  0  0  0  0  0
   63.5788   30.9117   48.0109 H   0  0  0  0  0  0  0  0  0  0  0  0
   61.5870   30.5912   46.4062 H   0  0  0  0  0  0  0  0  0  0  0  0
   61.2012   30.7213   48.1557 H   0  0  0  0  0  0  0  0  0  0  0  0
   59.9020   35.5800   47.3580 H   0  0  0  0  0  0  0  0  0  0  0  0
   57.5110   35.2652   46.0408 H   0  0  0  0  0  0  0  0  0  0  0  0
   56.0601   33.5504   44.9070 H   0  0  0  0  0  0  0  0  0  0  0  0
   57.3012   29.4025   43.4698 H   0  0  0  0  0  0  0  0  0  0  0  0
   55.9188   30.3076   42.7652 H   0  0  0  0  0  0  0  0  0  0  0  0
   57.5615   31.0343   42.7652 H   0  0  0  0  0  0  0  0  0  0  0  0
   59.0488   30.4758   45.7138 H   0  0  0  0  0  0  0  0  0  0  0  0
   62.7927   34.7935   47.6376 H   0  0  0  0  0  0  0  0  0  0  0  0
   61.8981   34.5198   49.1856 H   0  0  0  0  0  0  0  0  0  0  0  0
  1  2  2  0
  2  3  1  0
  3  4  1  0
  4  5  1  0
  5  6  2  0
  5  7  1  0
  7  8  1  0
  8  9  1  0
  9 10  1  0
 10 11  2  0
 11 12  1  0
 12 13  1  0
 13 14  2  0
 14 15  1  0
 15 16  2  0
 16 17  1  0
 17 18  1  0
 16 19  1  0
 19 20  2  0
 11 21  1  0
 21  7  1  0
 20 10  1  0
 20 13  1  0
  1 22  1  0
  1 23  1  0
  2 24  1  0
  3 25  1  0
  3 26  1  0
  8 27  1  0
  8 28  1  0
  9 29  1  0
  9 30  1  0
 12 31  1  0
 14 32  1  0
 15 33  1  0
 18 34  1  0
 18 35  1  0
 18 36  1  0
 19 37  1  0
 21 38  1  0
 21 39  1  0
M  END
>  <UniqueID>  (6) 
5

>  <SMILES>  (6) 
C=CCOC(=O)N1CCc2c([nH]c3ccc(OC)cc23)C1

>  <Energy>  (6) 
71.29829309554577

>  <Genealogy>  (6) 
C=CCOC(=O)N1CCc2c([nH]c3ccc(OC)cc23)C1 (3D coordinates assigned)
C=CCOC(=O)N1CCc2c([nH]c3ccc(OC)cc23)C1 (nonaromatic ring conformer: 71.29829309554577 kcal/mol)

>  <smiles>  (6) 
C=CCOC(=O)N1CCc2c([nH]c3ccc(OC)cc23)C1

>  <score_type>  (6) 
oracle

>  <origin>  (6) 
adg

>  <m_score__min__energy>  (6) 
-6.2800000000000002

>  <m_primary>  (6) 
energy

$$$$
6:0
     RDKit          3D

 48 50  0  0  0  0  0  0  0  0999 V2000
   58.9660   27.4470   47.3710 C   0  0  0  0  0  0  0  0  0  0  0  0
   58.2040   28.6380   47.2070 O   0  0  0  0  0  0  0  0  0  0  0  0
   57.8950   29.2230   45.9680 C   0  0  0  0  0  0  0  0  0  0  0  0
   56.8110   28.7760   45.1850 C   0  0  0  0  0  0  0  0  0  0  0  0
   56.5330   29.3740   43.9550 C   0  0  0  0  0  0  0  0  0  0  0  0
   57.3270   30.4210   43.4900 C   0  0  0  0  0  0  0  0  0  0  0  0
   58.4030   30.8750   44.2530 C   0  0  0  0  0  0  0  0  0  0  0  0
   58.6960   30.2860   45.4950 C   0  0  0  0  0  0  0  0  0  0  0  0
   59.8570   30.8070   46.3200 C   0  0  0  0  0  0  0  0  0  0  0  0
   59.5370   30.8620   47.7690 N   0  0  0  0  0  0  0  0  0  0  0  0
   60.7640   30.7490   48.6050 C   0  0  0  0  0  0  0  0  0  0  0  0
   61.7940   31.8390   48.3650 C   0  0  0  0  0  0  0  0  0  0  0  0
   61.8290   32.9760   49.1890 C   0  0  0  0  0  0  0  0  0  0  0  0
   62.7770   33.9810   48.9720 C   0  0  0  0  0  0  0  0  0  0  0  0
   63.7110   33.8510   47.9420 C   0  0  0  0  0  0  0  0  0  0  0  0
   63.7070   32.7090   47.1380 C   0  0  0  0  0  0  0  0  0  0  0  0
   62.7610   31.7030   47.3520 C   0  0  0  0  0  0  0  0  0  0  0  0
   58.7230   32.0650   48.0940 C   0  0  0  0  0  0  0  0  0  0  0  0
   58.6520   33.0600   46.9540 C   0  0  0  0  0  0  0  0  0  0  0  0
   57.4620   33.2150   46.2220 C   0  0  0  0  0  0  0  0  0  0  0  0
   57.3840   34.1510   45.1850 C   0  0  0  0  0  0  0  0  0  0  0  0
   58.4860   34.9550   44.8850 C   0  0  0  0  0  0  0  0  0  0  0  0
   59.6610   34.8370   45.6300 C   0  0  0  0  0  0  0  0  0  0  0  0
   59.7420   33.9020   46.6670 C   0  0  0  0  0  0  0  0  0  0  0  0
   59.0979   27.2409   48.4434 H   0  0  0  0  0  0  0  0  0  0  0  0
   58.4379   26.6058   46.8982 H   0  0  0  0  0  0  0  0  0  0  0  0
   59.9510   27.5739   46.8982 H   0  0  0  0  0  0  0  0  0  0  0  0
   56.1801   27.9504   45.5460 H   0  0  0  0  0  0  0  0  0  0  0  0
   55.6853   29.0182   43.3511 H   0  0  0  0  0  0  0  0  0  0  0  0
   57.1048   30.8899   42.5201 H   0  0  0  0  0  0  0  0  0  0  0  0
   59.0270   31.7004   43.8797 H   0  0  0  0  0  0  0  0  0  0  0  0
   60.7216   30.1430   46.1734 H   0  0  0  0  0  0  0  0  0  0  0  0
   60.0765   31.8312   45.9841 H   0  0  0  0  0  0  0  0  0  0  0  0
   58.9670   30.0130   47.9890 H   0  0  0  0  0  0  0  0  0  0  0  0
   60.4636   30.7874   49.6625 H   0  0  0  0  0  0  0  0  0  0  0  0
   61.2443   29.7991   48.3276 H   0  0  0  0  0  0  0  0  0  0  0  0
   61.1053   33.0767   50.0112 H   0  0  0  0  0  0  0  0  0  0  0  0
   62.7870   34.8747   49.6132 H   0  0  0  0  0  0  0  0  0  0  0  0
   64.4490   34.6471   47.7641 H   0  0  0  0  0  0  0  0  0  0  0  0
   64.4503   32.6012   46.3344 H   0  0  0  0  0  0  0  0  0  0  0  0
   62.7724   30.7994   46.7248 H   0  0  0  0  0  0  0  0  0  0  0  0
   57.7011   31.7404   48.3395 H   0  0  0  0  0  0  0  0  0  0  0  0
   59.2091   32.5709   48.9412 H   0  0  0  0  0  0  0  0  0  0  0  0
   56.5860   32.5961   46.4662 H   0  0  0  0  0  0  0  0  0  0  0  0
   56.4545   34.2537   44.6058 H   0  0  0  0  0  0  0  0  0  0  0  0
   58.4282   35.6817   44.0612 H   0  0  0  0  0  0  0  0  0  0  0  0
   60.5237   35.4799   45.4011 H   0  0  0  0  0  0  0  0  0  0  0  0
   60.6639   33.8244   47.2621 H   0  0  0  0  0  0  0  0  0  0  0  0
  1  2  1  0
  2  3  1  0
  3  4  2  0
  4  5  1  0
  5  6  2  0
  6  7  1  0
  7  8  2  0
  8  9  1  0
  9 10  1  0
 10 11  1  0
 11 12  1  0
 12 13  2  0
 13 14  1  0
 14 15  2  0
 15 16  1  0
 16 17  2  0
 10 18  1  0
 18 19  1  0
 19 20  2  0
 20 21  1  0
 21 22  2  0
 22 23  1  0
 23 24  2  0
  8  3  1  0
 17 12  1  0
 24 19  1  0
  1 25  1  0
  1 26  1  0
  1 27  1  0
  4 28  1  0
  5 29  1  0
  6 30  1  0
  7 31  1  0
  9 32  1  0
  9 33  1  0
 10 34  1  0
 11 35  1  0
 11 36  1  0
 13 37  1  0
 14 38  1  0
 15 39  1  0
 16 40  1  0
 17 41  1  0
 18 42  1  0
 18 43  1  0
 20 44  1  0
 21 45  1  0
 22 46  1  0
 23 47  1  0
 24 48  1  0
M  CHG  1  10   1
M  END
>  <UniqueID>  (7) 
6

>  <SMILES>  (7) 
COc1ccccc1C[NH+](Cc1ccccc1)Cc1ccccc1

>  <Energy>  (7) 
56.00873297109239

>  <Genealogy>  (7) 
COc1ccccc1C[NH+](Cc1ccccc1)Cc1ccccc1 (protonated)
COc1ccccc1C[NH+](Cc1ccccc1)Cc1ccccc1 (3D coordinates assigned)
COc1ccccc1C[NH+](Cc1ccccc1)Cc1ccccc1 (optimized conformer: 56.00873297109239 kcal/mol)

>  <smiles>  (7) 
COc1ccccc1CN(Cc1ccccc1)Cc1ccccc1

>  <score_type>  (7) 
oracle

>  <origin>  (7) 
adg

>  <m_score__min__energy>  (7) 
-6.2000000000000002

>  <m_primary>  (7) 
energy

$$$$
7:0
     RDKit          3D

 52 54  0  0  0  0  0  0  0  0999 V2000
   62.2930   33.4890   46.9760 C   0  0  0  0  0  0  0  0  0  0  0  0
   61.1050   34.0830   47.4910 O   0  0  0  0  0  0  0  0  0  0  0  0
   59.8540   34.0600   46.8510 C   0  0  0  0  0  0  0  0  0  0  0  0
   59.6540   34.6830   45.6020 C   0  0  0  0  0  0  0  0  0  0  0  0
   58.3950   34.6680   44.9980 C   0  0  0  0  0  0  0  0  0  0  0  0
   57.3190   34.0520   45.6370 C   0  0  0  0  0  0  0  0  0  0  0  0
   57.5010   33.4350   46.8760 C   0  0  0  0  0  0  0  0  0  0  0  0
   58.7720   33.4020   47.4780 C   0  0  0  0  0  0  0  0  0  0  0  0
   58.9460   32.7650   48.8410 C   0  0  0  0  0  0  0  0  0  0  0  0
   58.8880   31.2930   48.8030 N   0  0  0  0  0  0  0  0  0  0  0  0
   60.1530   30.6140   49.1420 C   0  0  0  0  0  0  0  0  0  0  0  0
   60.4950   29.4420   48.2080 C   0  0  0  0  0  0  0  0  0  0  0  0
   59.2860   28.8350   47.7600 O   0  0  0  0  0  0  0  0  0  0  0  0
   58.6370   29.1130   46.5470 C   0  0  0  0  0  0  0  0  0  0  0  0
   58.9210   30.2800   45.8130 C   0  0  0  0  0  0  0  0  0  0  0  0
   58.2360   30.5560   44.6230 C   0  0  0  0  0  0  0  0  0  0  0  0
   58.5100   31.7240   43.8940 C   0  0  0  0  0  0  0  0  0  0  0  0
   57.8170   31.9920   42.7100 C   0  0  0  0  0  0  0  0  0  0  0  0
   56.8460   31.1000   42.2470 C   0  0  0  0  0  0  0  0  0  0  0  0
   56.5650   29.9330   42.9640 C   0  0  0  0  0  0  0  0  0  0  0  0
   57.2560   29.6530   44.1550 C   0  0  0  0  0  0  0  0  0  0  0  0
   56.9830   28.4840   44.8780 C   0  0  0  0  0  0  0  0  0  0  0  0
   57.6750   28.1980   46.0710 C   0  0  0  0  0  0  0  0  0  0  0  0
   57.4320   26.9790   46.8070 N   0  0  0  0  0  0  0  0  0  0  0  0
   56.3220   25.7320   46.3330 S   0  0  0  0  0  0  0  0  0  0  0  0
   56.9720   24.8270   44.9430 C   0  0  0  0  0  0  0  0  0  0  0  0
   54.9840   26.3260   45.9940 O   0  0  0  0  0  0  0  0  0  0  0  0
   56.1460   24.7790   47.4810 O   0  0  0  0  0  0  0  0  0  0  0  0
   62.9341   33.1684   47.8104 H   0  0  0  0  0  0  0  0  0  0  0  0
   62.0294   32.6166   46.3600 H   0  0  0  0  0  0  0  0  0  0  0  0
   62.8328   34.2233   46.3600 H   0  0  0  0  0  0  0  0  0  0  0  0
   60.4950   35.1840   45.1002 H   0  0  0  0  0  0  0  0  0  0  0  0
   58.2515   35.1430   44.0163 H   0  0  0  0  0  0  0  0  0  0  0  0
   56.3258   34.0524   45.1641 H   0  0  0  0  0  0  0  0  0  0  0  0
   56.6437   32.9709   47.3856 H   0  0  0  0  0  0  0  0  0  0  0  0
   59.9232   33.0665   49.2461 H   0  0  0  0  0  0  0  0  0  0  0  0
   58.1141   33.1097   49.4727 H   0  0  0  0  0  0  0  0  0  0  0  0
   58.1550   30.9810   49.4820 H   0  0  0  0  0  0  0  0  0  0  0  0
   60.9680   31.3507   49.0874 H   0  0  0  0  0  0  0  0  0  0  0  0
   60.0324   30.1954   50.1521 H   0  0  0  0  0  0  0  0  0  0  0  0
   61.0630   29.8142   47.3427 H   0  0  0  0  0  0  0  0  0  0  0  0
   61.1030   28.7020   48.7491 H   0  0  0  0  0  0  0  0  0  0  0  0
   59.6869   30.9807   46.1769 H   0  0  0  0  0  0  0  0  0  0  0  0
   59.2720   32.4302   44.2555 H   0  0  0  0  0  0  0  0  0  0  0  0
   58.0366   32.9075   42.1412 H   0  0  0  0  0  0  0  0  0  0  0  0
   56.3014   31.3165   41.3161 H   0  0  0  0  0  0  0  0  0  0  0  0
   55.8013   29.2326   42.5949 H   0  0  0  0  0  0  0  0  0  0  0  0
   56.2201   27.7822   44.5099 H   0  0  0  0  0  0  0  0  0  0  0  0
   57.9910   26.7810   47.6670 H   0  0  0  0  0  0  0  0  0  0  0  0
   57.5778   23.9835   45.3056 H   0  0  0  0  0  0  0  0  0  0  0  0
   56.1403   24.4454   44.3326 H   0  0  0  0  0  0  0  0  0  0  0  0
   57.5992   25.4933   44.3326 H   0  0  0  0  0  0  0  0  0  0  0  0
  1  2  1  0
  2  3  1  0
  3  4  2  0
  4  5  1  0
  5  6  2  0
  6  7  1  0
  7  8  2  0
  8  9  1  0
  9 10  1  0
 10 11  1  0
 11 12  1  0
 12 13  1  0
 13 14  1  0
 14 15  2  0
 15 16  1  0
 16 17  2  0
 17 18  1  0
 18 19  2  0
 19 20  1  0
 20 21  2  0
 21 22  1  0
 22 23  2  0
 23 24  1  0
 24 25  1  0
 25 26  1  0
 25 27  2  0
 25 28  2  0
  8  3  1  0
 23 14  1  0
 21 16  1  0
  1 29  1  0
  1 30  1  0
  1 31  1  0
  4 32  1  0
  5 33  1  0
  6 34  1  0
  7 35  1  0
  9 36  1  0
  9 37  1  0
 10 38  1  0
 11 39  1  0
 11 40  1  0
 12 41  1  0
 12 42  1  0
 15 43  1  0
 17 44  1  0
 18 45  1  0
 19 46  1  0
 20 47  1  0
 22 48  1  0
 24 49  1  0
 26 50  1  0
 26 51  1  0
 26 52  1  0
M  END
>  <UniqueID>  (8) 
7

>  <SMILES>  (8) 
COc1ccccc1CNCCOc1cc2ccccc2cc1NS(C)(=O)=O

>  <Energy>  (8) 
54.28037477925325

>  <Genealogy>  (8) 
COc1ccccc1CNCCOc1cc2ccccc2cc1NS(C)(=O)=O (3D coordinates assigned)
COc1ccccc1CNCCOc1cc2ccccc2cc1NS(C)(=O)=O (optimized conformer: 54.28037477925325 kcal/mol)

>  <smiles>  (8) 
COc1ccccc1CNCCOc1cc2ccccc2cc1NS(C)(=O)=O

>  <score_type>  (8) 
oracle

>  <origin>  (8) 
adg

>  <m_score__min__energy>  (8) 
-8.3200000000000003

>  <m_primary>  (8) 
energy

$$$$
8:0
     RDKit          3D

 55 58  0  0  0  0  0  0  0  0999 V2000
   57.2110   20.1620   46.4100 C   0  0  0  0  0  0  0  0  0  0  0  0
   56.1510   20.4210   45.6310 C   0  0  0  0  0  0  0  0  0  0  0  0
   54.8430   20.8100   46.2650 C   0  0  0  0  0  0  0  0  0  0  0  0
   56.2710   20.2930   44.1300 C   0  0  0  0  0  0  0  0  0  0  0  0
   56.2590   21.5770   43.5060 O   0  0  0  0  0  0  0  0  0  0  0  0
   56.6450   22.7810   44.1180 C   0  0  0  0  0  0  0  0  0  0  0  0
   55.7540   23.8490   44.3250 C   0  0  0  0  0  0  0  0  0  0  0  0
   56.1910   25.0250   44.9420 C   0  0  0  0  0  0  0  0  0  0  0  0
   57.5250   25.1610   45.3670 C   0  0  0  0  0  0  0  0  0  0  0  0
   57.9800   26.4150   46.0220 C   0  0  0  0  0  0  0  0  0  0  0  0
   58.3540   26.5760   47.3570 C   0  0  0  0  0  0  0  0  0  0  0  0
   58.7330   27.8850   47.6850 C   0  0  0  0  0  0  0  0  0  0  0  0
   58.6650   28.7770   46.6150 C   0  0  0  0  0  0  0  0  0  0  0  0
   58.9930   30.2240   46.6400 C   0  0  0  0  0  0  0  0  0  0  0  0
   60.3300   30.6370   46.8470 C   0  0  0  0  0  0  0  0  0  0  0  0
   60.5860   32.0050   46.8500 C   0  0  0  0  0  0  0  0  0  0  0  0
   59.5950   32.9180   46.6640 C   0  0  0  0  0  0  0  0  0  0  0  0
   60.2150   34.1520   46.6910 C   0  0  0  0  0  0  0  0  0  0  0  0
   61.5410   33.9580   46.8890 N   0  0  0  0  0  0  0  0  0  0  0  0
   61.7590   32.6520   46.9940 N   0  0  0  0  0  0  0  0  0  0  0  0
   63.0870   32.0630   47.1570 C   0  0  0  0  0  0  0  0  0  0  0  0
   63.7150   32.5300   48.4660 C   0  0  0  0  0  0  0  0  0  0  0  0
   58.2720   32.5180   46.4760 C   0  0  0  0  0  0  0  0  0  0  0  0
   57.1740   33.5190   46.2350 C   0  0  0  0  0  0  0  0  0  0  0  0
   57.3720   34.2230   44.8970 C   0  0  0  0  0  0  0  0  0  0  0  0
   58.0070   31.1720   46.4600 N   0  0  0  0  0  0  0  0  0  0  0  0
   58.1240   27.9160   45.2710 S   0  0  0  0  0  0  0  0  0  0  0  0
   58.4140   24.0910   45.1480 C   0  0  0  0  0  0  0  0  0  0  0  0
   57.9740   22.9170   44.5290 C   0  0  0  0  0  0  0  0  0  0  0  0
   58.1712   19.8769   45.9553 H   0  0  0  0  0  0  0  0  0  0  0  0
   57.1205   20.2346   47.5039 H   0  0  0  0  0  0  0  0  0  0  0  0
   54.9431   20.7802   47.3600 H   0  0  0  0  0  0  0  0  0  0  0  0
   54.5709   21.8280   45.9492 H   0  0  0  0  0  0  0  0  0  0  0  0
   54.0588   20.1062   45.9492 H   0  0  0  0  0  0  0  0  0  0  0  0
   57.2148   19.7832   43.8865 H   0  0  0  0  0  0  0  0  0  0  0  0
   55.4136   19.7134   43.7573 H   0  0  0  0  0  0  0  0  0  0  0  0
   54.7071   23.7587   43.9996 H   0  0  0  0  0  0  0  0  0  0  0  0
   55.4838   25.8532   45.0968 H   0  0  0  0  0  0  0  0  0  0  0  0
   58.3516   25.7513   48.0849 H   0  0  0  0  0  0  0  0  0  0  0  0
   59.0547   28.1817   48.6942 H   0  0  0  0  0  0  0  0  0  0  0  0
   61.1366   29.9048   46.9998 H   0  0  0  0  0  0  0  0  0  0  0  0
   59.7172   35.1257   46.5721 H   0  0  0  0  0  0  0  0  0  0  0  0
   62.9991   30.9666   47.1673 H   0  0  0  0  0  0  0  0  0  0  0  0
   63.7254   32.3815   46.3197 H   0  0  0  0  0  0  0  0  0  0  0  0
   63.1517   32.1111   49.3129 H   0  0  0  0  0  0  0  0  0  0  0  0
   64.7591   32.1871   48.5146 H   0  0  0  0  0  0  0  0  0  0  0  0
   63.6872   33.6286   48.5146 H   0  0  0  0  0  0  0  0  0  0  0  0
   56.2051   32.9981   46.2293 H   0  0  0  0  0  0  0  0  0  0  0  0
   57.1978   34.2708   47.0376 H   0  0  0  0  0  0  0  0  0  0  0  0
   57.6660   35.2683   45.0727 H   0  0  0  0  0  0  0  0  0  0  0  0
   58.1610   33.7111   44.3266 H   0  0  0  0  0  0  0  0  0  0  0  0
   56.4318   34.1974   44.3266 H   0  0  0  0  0  0  0  0  0  0  0  0
   57.0180   30.8710   46.3170 H   0  0  0  0  0  0  0  0  0  0  0  0
   59.4631   24.1795   45.4665 H   0  0  0  0  0  0  0  0  0  0  0  0
   58.6816   22.0912   44.3636 H   0  0  0  0  0  0  0  0  0  0  0  0
  1  2  2  0
  2  3  1  0
  2  4  1  0
  4  5  1  0
  5  6  1  0
  6  7  2  0
  7  8  1  0
  8  9  2  0
  9 10  1  0
 10 11  2  0
 11 12  1  0
 12 13  2  0
 13 14  1  0
 14 15  2  0
 15 16  1  0
 16 17  2  0
 17 18  1  0
 18 19  2  0
 19 20  1  0
 20 21  1  0
 21 22  1  0
 17 23  1  0
 23 24  1  0
 24 25  1  0
 23 26  2  0
 13 27  1  0
  9 28  1  0
 28 29  2  0
 29  6  1  0
 27 10  1  0
 26 14  1  0
 20 16  1  0
  1 30  1  0
  1 31  1  0
  3 32  1  0
  3 33  1  0
  3 34  1  0
  4 35  1  0
  4 36  1  0
  7 37  1  0
  8 38  1  0
 11 39  1  0
 12 40  1  0
 15 41  1  0
 18 42  1  0
 21 43  1  0
 21 44  1  0
 22 45  1  0
 22 46  1  0
 22 47  1  0
 24 48  1  0
 24 49  1  0
 25 50  1  0
 25 51  1  0
 25 52  1  0
 26 53  1  0
 28 54  1  0
 29 55  1  0
M  CHG  1  26   1
M  END
>  <UniqueID>  (9) 
8

>  <SMILES>  (9) 
C=C(C)COc1ccc(-c2ccc(-c3cc4c(cnn4CC)c(CC)[nH+]3)s2)cc1

>  <Energy>  (9) 
117.39479859379469

>  <Genealogy>  (9) 
C=C(C)COc1ccc(-c2ccc(-c3cc4c(cnn4CC)c(CC)[nH+]3)s2)cc1 (protonated)
C=C(C)COc1ccc(-c2ccc(-c3cc4c(cnn4CC)c(CC)[nH+]3)s2)cc1 (3D coordinates assigned)
C=C(C)COc1ccc(-c2ccc(-c3cc4c(cnn4CC)c(CC)[nH+]3)s2)cc1 (optimized conformer: 117.39479859379469 kcal/mol)

>  <smiles>  (9) 
C=C(C)COc1ccc(-c2ccc(-c3cc4c(cnn4CC)c(CC)n3)s2)cc1

>  <score_type>  (9) 
oracle

>  <origin>  (9) 
adg

>  <m_score__min__energy>  (9) 
-6.6100000000000003

>  <m_primary>  (9) 
energy

$$$$
9:0
     RDKit          3D

 47 48  0  0  0  0  0  0  0  0999 V2000
   60.9470   28.8680   44.9090 C   0  0  0  0  0  0  0  0  0  0  0  0
   59.7830   27.8850   45.0330 C   0  0  0  0  0  0  0  0  0  0  0  0
   58.7520   28.0380   43.8950 C   0  0  0  0  0  0  0  0  0  0  0  0
   57.3470   28.0810   44.3760 N   0  0  1  0  0  0  0  0  0  0  0  0
   57.2160   27.5490   45.7560 C   0  0  0  0  0  0  0  0  0  0  0  0
   56.8590   26.0570   45.8330 C   0  0  0  0  0  0  0  0  0  0  0  0
   56.6550   29.6890   44.2270 S   0  0  0  0  0  0  0  0  0  0  0  0
   56.5060   30.0660   42.7770 O   0  0  0  0  0  0  0  0  0  0  0  0
   55.2950   29.7230   44.8640 O   0  0  0  0  0  0  0  0  0  0  0  0
   57.6610   30.8780   45.0530 C   0  0  0  0  0  0  0  0  0  0  0  0
   58.3580   30.5410   46.2330 C   0  0  0  0  0  0  0  0  0  0  0  0
   59.1380   31.5010   46.8970 C   0  0  0  0  0  0  0  0  0  0  0  0
   59.2200   32.7910   46.3540 C   0  0  0  0  0  0  0  0  0  0  0  0
   58.5290   33.1210   45.2190 C   0  0  0  0  0  0  0  0  0  0  0  0
   57.7450   32.1860   44.5430 C   0  0  0  0  0  0  0  0  0  0  0  0
   58.7180   34.5560   44.8820 C   0  0  0  0  0  0  0  0  0  0  0  0
   59.6360   35.0710   46.0150 C   0  0  0  0  0  0  0  0  0  0  0  0
   59.9190   33.9160   46.8730 N   0  0  0  0  0  0  0  0  0  0  0  0
   60.8510   33.9310   47.9720 C   0  0  0  0  0  0  0  0  0  0  0  0
   60.5740   34.5490   49.0340 O   0  0  0  0  0  0  0  0  0  0  0  0
   62.1790   33.2340   47.8690 C   0  0  0  0  0  0  0  0  0  0  0  0
   63.0080   33.8250   46.7350 C   0  0  0  0  0  0  0  0  0  0  0  0
   61.2905   29.1581   45.9129 H   0  0  0  0  0  0  0  0  0  0  0  0
   61.7736   28.3905   44.3624 H   0  0  0  0  0  0  0  0  0  0  0  0
   60.6146   29.7628   44.3624 H   0  0  0  0  0  0  0  0  0  0  0  0
   60.1832   26.8606   45.0102 H   0  0  0  0  0  0  0  0  0  0  0  0
   59.2668   28.0984   45.9806 H   0  0  0  0  0  0  0  0  0  0  0  0
   58.9647   28.9722   43.3546 H   0  0  0  0  0  0  0  0  0  0  0  0
   58.8477   27.1536   43.2480 H   0  0  0  0  0  0  0  0  0  0  0  0
   56.7590   27.4590   43.7770 H   0  0  0  0  0  0  0  0  0  0  0  0
   58.1742   27.7001   46.2747 H   0  0  0  0  0  0  0  0  0  0  0  0
   56.3828   28.0943   46.2234 H   0  0  0  0  0  0  0  0  0  0  0  0
   56.7859   25.7514   46.8872 H   0  0  0  0  0  0  0  0  0  0  0  0
   55.8942   25.8846   45.3335 H   0  0  0  0  0  0  0  0  0  0  0  0
   57.6412   25.4666   45.3335 H   0  0  0  0  0  0  0  0  0  0  0  0
   58.2896   29.5194   46.6351 H   0  0  0  0  0  0  0  0  0  0  0  0
   59.6734   31.2465   47.8236 H   0  0  0  0  0  0  0  0  0  0  0  0
   57.2026   32.4665   43.6281 H   0  0  0  0  0  0  0  0  0  0  0  0
   59.2019   34.6697   43.9007 H   0  0  0  0  0  0  0  0  0  0  0  0
   57.7701   35.1096   44.8116 H   0  0  0  0  0  0  0  0  0  0  0  0
   60.5705   35.4718   45.5954 H   0  0  0  0  0  0  0  0  0  0  0  0
   59.1548   35.8816   46.5819 H   0  0  0  0  0  0  0  0  0  0  0  0
   62.7248   33.3540   48.8165 H   0  0  0  0  0  0  0  0  0  0  0  0
   62.0049   32.1676   47.6628 H   0  0  0  0  0  0  0  0  0  0  0  0
   63.8358   34.4152   47.1550 H   0  0  0  0  0  0  0  0  0  0  0  0
   63.4146   33.0119   46.1157 H   0  0  0  0  0  0  0  0  0  0  0  0
   62.3719   34.4745   46.1157 H   0  0  0  0  0  0  0  0  0  0  0  0
  1  2  1  0
  2  3  1  0
  3  4  1  0
  4  5  1  0
  5  6  1  0
  4  7  1  0
  7  8  2  0
  7  9  2  0
  7 10  1  0
 10 11  2  0
 11 12  1  0
 12 13  2  0
 13 14  1  0
 14 15  2  0
 14 16  1  0
 16 17  1  0
 17 18  1  0
 18 19  1  0
 19 20  2  0
 19 21  1  0
 21 22  1  0
 15 10  1  0
 18 13  1  0
  1 23  1  0
  1 24  1  0
  1 25  1  0
  2 26  1  0
  2 27  1  0
  3 28  1  0
  3 29  1  0
  4 30  1  6
  5 31  1  0
  5 32  1  0
  6 33  1  0
  6 34  1  0
  6 35  1  0
 11 36  1  0
 12 37  1  0
 15 38  1  0
 16 39  1  0
 16 40  1  0
 17 41  1  0
 17 42  1  0
 21 43  1  0
 21 44  1  0
 22 45  1  0
 22 46  1  0
 22 47  1  0
M  CHG  1   4   1
M  END
>  <UniqueID>  (10) 
9

>  <SMILES>  (10) 
CCC[N@@H+](CC)S(=O)(=O)c1ccc2c(c1)CCN2C(=O)CC

>  <Energy>  (10) 
57.49352074157976

>  <Genealogy>  (10) 
CCC[NH+](CC)S(=O)(=O)c1ccc2c(c1)CCN2C(=O)CC (protonated)
CCC[N@@H+](CC)S(=O)(=O)c1ccc2c(c1)CCN2C(=O)CC (chirality)
CCC[N@@H+](CC)S(=O)(=O)c1ccc2c(c1)CCN2C(=O)CC (3D coordinates assigned)
CCC[N@@H+](CC)S(=O)(=O)c1ccc2c(c1)CCN2C(=O)CC (nonaromatic ring conformer: 57.49352074157976 kcal/mol)

>  <smiles>  (10) 
CCCN(CC)S(=O)(=O)c1ccc2c(c1)CCN2C(=O)CC

>  <score_type>  (10) 
oracle

>  <origin>  (10) 
adg

>  <m_score__min__energy>  (10) 
-6.7400000000000002

>  <m_primary>  (10) 
energy

$$$$
10:0
     RDKit          3D

 29 29  0  0  0  0  0  0  0  0999 V2000
   57.8540   32.3260   41.1790 C   0  0  0  0  0  0  0  0  0  0  0  0
   57.4510   31.9830   42.5630 C   0  0  0  0  0  0  0  0  0  0  0  0
   56.7300   30.8120   42.7340 C   0  0  0  0  0  0  0  0  0  0  0  0
   56.3450   30.4760   44.0160 C   0  0  0  0  0  0  0  0  0  0  0  0
   55.6850   29.4310   44.2780 O   0  0  0  0  0  0  0  0  0  0  0  0
   56.6780   31.2830   45.0240 N   0  0  0  0  0  0  0  0  0  0  0  0
   57.3890   32.4310   44.8240 C   0  0  0  0  0  0  0  0  0  0  0  0
   57.6600   33.1700   45.9750 O   0  0  0  0  0  0  0  0  0  0  0  0
   58.8040   33.9620   45.9670 C   0  0  0  0  0  0  0  0  0  0  0  0
   58.9870   34.8800   45.1200 O   0  0  0  0  0  0  0  0  0  0  0  0
   59.8290   33.6840   47.0190 C   0  0  0  0  0  0  0  0  0  0  0  0
   61.1750   33.8870   46.3780 C   0  0  0  0  0  0  0  0  0  0  0  0
   59.6780   32.2590   47.4800 C   0  0  0  0  0  0  0  0  0  0  0  0
   59.6710   34.5940   48.2070 C   0  0  0  0  0  0  0  0  0  0  0  0
   57.7720   32.7780   43.6020 N   0  0  0  0  0  0  0  0  0  0  0  0
   58.6914   33.0387   41.2069 H   0  0  0  0  0  0  0  0  0  0  0  0
   58.1670   31.4130   40.6513 H   0  0  0  0  0  0  0  0  0  0  0  0
   57.0028   32.7809   40.6513 H   0  0  0  0  0  0  0  0  0  0  0  0
   56.4732   30.1720   41.8770 H   0  0  0  0  0  0  0  0  0  0  0  0
   61.9399   34.0024   47.1601 H   0  0  0  0  0  0  0  0  0  0  0  0
   61.4185   33.0154   45.7527 H   0  0  0  0  0  0  0  0  0  0  0  0
   61.1506   34.7916   45.7527 H   0  0  0  0  0  0  0  0  0  0  0  0
   59.6747   32.2277   48.5796 H   0  0  0  0  0  0  0  0  0  0  0  0
   58.7313   31.8486   47.0987 H   0  0  0  0  0  0  0  0  0  0  0  0
   60.5176   31.6593   47.0987 H   0  0  0  0  0  0  0  0  0  0  0  0
   59.7726   34.0090   49.1330 H   0  0  0  0  0  0  0  0  0  0  0  0
   60.4474   35.3727   48.1782 H   0  0  0  0  0  0  0  0  0  0  0  0
   58.6776   35.0654   48.1782 H   0  0  0  0  0  0  0  0  0  0  0  0
   58.3100   33.6540   43.4780 H   0  0  0  0  0  0  0  0  0  0  0  0
  1  2  1  0
  2  3  2  0
  3  4  1  0
  4  5  2  0
  4  6  1  0
  6  7  2  0
  7  8  1  0
  8  9  1  0
  9 10  2  0
  9 11  1  0
 11 12  1  0
 11 13  1  0
 11 14  1  0
  7 15  1  0
 15  2  1  0
  1 16  1  0
  1 17  1  0
  1 18  1  0
  3 19  1  0
 12 20  1  0
 12 21  1  0
 12 22  1  0
 13 23  1  0
 13 24  1  0
 13 25  1  0
 14 26  1  0
 14 27  1  0
 14 28  1  0
 15 29  1  0
M  END
>  <smiles>  (11) 
Cc1cc(=O)nc(OC(=O)C(C)(C)C)[nH]1

>  <score_type>  (11) 
oracle

>  <origin>  (11) 
adg

>  <m_score__min__energy>  (11) 
-6.1100000000000003

>  <m_primary>  (11) 
energy

$$$$
11:0
     RDKit          3D

 54 56  0  0  0  0  0  0  0  0999 V2000
   57.9691   33.0087   51.9011 H   0  0  0  0  0  0  0  0  0  0  0  0
   58.6030   32.7020   51.0560 C   0  0  0  0  0  0  0  0  0  0  0  0
   59.7310   33.3070   50.8360 N   0  0  0  0  0  0  0  0  0  0  0  0
   60.2000   33.7230   49.5450 C   0  0  0  0  0  0  0  0  0  0  0  0
   59.5230   34.5630   48.8960 O   0  0  0  0  0  0  0  0  0  0  0  0
   61.4620   33.2070   48.9570 C   0  0  0  0  0  0  0  0  0  0  0  0
   61.4410   32.5300   47.7150 C   0  0  0  0  0  0  0  0  0  0  0  0
   60.1790   32.2520   46.9880 C   0  0  0  0  0  0  0  0  0  0  0  0
   59.6050   30.9720   47.0210 C   0  0  0  0  0  0  0  0  0  0  0  0
   60.0854   30.1712   47.6024 H   0  0  0  0  0  0  0  0  0  0  0  0
   58.4250   30.7100   46.3180 C   0  0  0  0  0  0  0  0  0  0  0  0
   57.9795   29.7050   46.3555 H   0  0  0  0  0  0  0  0  0  0  0  0
   57.8060   31.7160   45.5670 C   0  0  0  0  0  0  0  0  0  0  0  0
   56.6340   31.3960   44.8670 O   0  0  0  0  0  0  0  0  0  0  0  0
   56.5900   30.5660   43.7120 C   0  0  0  0  0  0  0  0  0  0  0  0
   56.5341   29.5115   44.0202 H   0  0  0  0  0  0  0  0  0  0  0  0
   55.7041   30.8200   43.1115 H   0  0  0  0  0  0  0  0  0  0  0  0
   57.4978   30.7249   43.1115 H   0  0  0  0  0  0  0  0  0  0  0  0
   58.3800   33.0010   45.5340 C   0  0  0  0  0  0  0  0  0  0  0  0
   57.8964   33.8026   44.9564 H   0  0  0  0  0  0  0  0  0  0  0  0
   59.5630   33.2620   46.2330 C   0  0  0  0  0  0  0  0  0  0  0  0
   60.0132   34.2648   46.1907 H   0  0  0  0  0  0  0  0  0  0  0  0
   62.6470   32.0910   47.1550 C   0  0  0  0  0  0  0  0  0  0  0  0
   62.6392   31.5807   46.1805 H   0  0  0  0  0  0  0  0  0  0  0  0
   63.8250   32.2870   47.7990 N   0  0  0  0  0  0  0  0  0  0  0  0
   64.7000   31.9320   47.3490 H   0  0  0  0  0  0  0  0  0  0  0  0
   63.8870   32.9190   49.0040 C   0  0  0  0  0  0  0  0  0  0  0  0
   65.1260   33.1000   49.6390 C   0  0  0  0  0  0  0  0  0  0  0  0
   66.0433   32.7207   49.1649 H   0  0  0  0  0  0  0  0  0  0  0  0
   65.2020   33.7580   50.8680 C   0  0  0  0  0  0  0  0  0  0  0  0
   66.1754   33.8856   51.3642 H   0  0  0  0  0  0  0  0  0  0  0  0
   64.0450   34.2530   51.4660 C   0  0  0  0  0  0  0  0  0  0  0  0
   64.1092   34.7787   52.4301 H   0  0  0  0  0  0  0  0  0  0  0  0
   62.8030   34.0850   50.8470 C   0  0  0  0  0  0  0  0  0  0  0  0
   61.8969   34.4865   51.3242 H   0  0  0  0  0  0  0  0  0  0  0  0
   62.7020   33.4040   49.6140 C   0  0  0  0  0  0  0  0  0  0  0  0
   58.1670   31.5870   50.1580 C   0  0  0  0  0  0  0  0  0  0  0  0
   58.9947   31.3183   49.4852 H   0  0  0  0  0  0  0  0  0  0  0  0
   57.2973   31.9191   49.5721 H   0  0  0  0  0  0  0  0  0  0  0  0
   57.7840   30.4020   50.9580 N   0  0  0  0  0  0  0  0  0  0  0  0
   57.1040   30.8070   52.2090 C   0  0  0  0  0  0  0  0  0  0  0  0
   57.4627   31.8021   52.5109 H   0  0  0  0  0  0  0  0  0  0  0  0
   57.3306   30.0699   52.9934 H   0  0  0  0  0  0  0  0  0  0  0  0
   55.5970   30.8590   52.0000 C   0  0  0  0  0  0  0  0  0  0  0  0
   55.0917   30.8764   52.9769 H   0  0  0  0  0  0  0  0  0  0  0  0
   55.3361   31.7667   51.4360 H   0  0  0  0  0  0  0  0  0  0  0  0
   55.2742   29.9715   51.4360 H   0  0  0  0  0  0  0  0  0  0  0  0
   58.9640   29.5510   51.2420 C   0  0  0  0  0  0  0  0  0  0  0  0
   59.4568   29.9067   52.1589 H   0  0  0  0  0  0  0  0  0  0  0  0
   58.6337   28.5101   51.3741 H   0  0  0  0  0  0  0  0  0  0  0  0
   59.9510   29.6180   50.0800 C   0  0  0  0  0  0  0  0  0  0  0  0
   60.9760   29.6876   50.4731 H   0  0  0  0  0  0  0  0  0  0  0  0
   59.8550   28.7113   49.4647 H   0  0  0  0  0  0  0  0  0  0  0  0
   59.7334   30.5034   49.4647 H   0  0  0  0  0  0  0  0  0  0  0  0
  1  2  1  0
  2  3  2  0
  3  4  1  0
  4  5  2  0
  4  6  1  0
  6  7  2  0
  7  8  1  0
  8  9  2  0
  9 10  1  0
  9 11  1  0
 11 12  1  0
 11 13  2  0
 13 14  1  0
 14 15  1  0
 15 16  1  0
 15 17  1  0
 15 18  1  0
 13 19  1  0
 19 20  1  0
 19 21  2  0
 21 22  1  0
  7 23  1  0
 23 24  1  0
 23 25  2  0
 25 26  1  0
 25 27  1  0
 27 28  2  0
 28 29  1  0
 28 30  1  0
 30 31  1  0
 30 32  2  0
 32 33  1  0
 32 34  1  0
 34 35  1  0
 34 36  2  0
  2 37  1  0
 37 38  1  0
 37 39  1  0
 37 40  1  0
 40 41  1  0
 41 42  1  0
 41 43  1  0
 41 44  1  0
 44 45  1  0
 44 46  1  0
 44 47  1  0
 40 48  1  0
 48 49  1  0
 48 50  1  0
 48 51  1  0
 51 52  1  0
 51 53  1  0
 51 54  1  0
 36  6  1  0
 21  8  1  0
 36 27  1  0
M  CHG  1  25   1
M  END
>  <UniqueID>  (12) 
10

>  <SMILES>  (12) 
CCN(CC)C/C=N/C(=O)c1c(-c2ccc(OC)cc2)c[nH+]c2ccccc12

>  <Energy>  (12) 
69.67789948939684

>  <Genealogy>  (12) 
CCN(CC)CC=NC(=O)c1c(-c2ccc(OC)cc2)c[nH+]c2ccccc12 (protonated)
CCN(CC)C/C=N/C(=O)c1c(-c2ccc(OC)cc2)c[nH+]c2ccccc12 (cis-trans isomerization)
CCN(CC)C/C=N/C(=O)c1c(-c2ccc(OC)cc2)c[nH+]c2ccccc12 (3D coordinates assigned)
CCN(CC)C/C=N/C(=O)c1c(-c2ccc(OC)cc2)c[nH+]c2ccccc12 (optimized conformer: 69.67789948939684 kcal/mol)

>  <smiles>  (12) 
CCN(CC)CC=NC(=O)c1c(-c2ccc(OC)cc2)cnc2ccccc12

>  <score_type>  (12) 
oracle

>  <origin>  (12) 
adg

>  <m_score__min__energy>  (12) 
-6.2999999999999998

>  <m_primary>  (12) 
energy

$$$$
12:0
     RDKit          3D

 46 48  0  0  0  0  0  0  0  0999 V2000
   56.8080   30.0410   43.7100 C   0  0  0  0  0  0  0  0  0  0  0  0
   57.0260   30.5250   45.0310 O   0  0  0  0  0  0  0  0  0  0  0  0
   57.6220   31.7550   45.3520 C   0  0  0  0  0  0  0  0  0  0  0  0
   57.4640   32.8750   44.5070 C   0  0  0  0  0  0  0  0  0  0  0  0
   58.0090   34.1090   44.8480 C   0  0  0  0  0  0  0  0  0  0  0  0
   58.7150   34.2600   46.0400 C   0  0  0  0  0  0  0  0  0  0  0  0
   58.8980   33.1660   46.9050 C   0  0  0  0  0  0  0  0  0  0  0  0
   59.5690   33.3200   48.1320 O   0  0  0  0  0  0  0  0  0  0  0  0
   60.4870   34.3670   48.4280 C   0  0  0  0  0  0  0  0  0  0  0  0
   58.3850   31.8870   46.5470 C   0  0  0  0  0  0  0  0  0  0  0  0
   58.5960   30.7190   47.5180 C   0  0  1  0  0  0  0  0  0  0  0  0
   58.3860   29.4130   46.8680 N   0  0  0  0  0  0  0  0  0  0  0  0
   59.6890   28.8330   46.5160 C   0  0  2  0  0  0  0  0  0  0  0  0
   59.6140   27.3340   46.2540 C   0  0  0  0  0  0  0  0  0  0  0  0
   60.6860   26.6610   46.1990 O   0  0  0  0  0  0  0  0  0  0  0  0
   58.3510   26.6280   45.9920 C   0  0  0  0  0  0  0  0  0  0  0  0
   58.2030   25.3300   45.5380 C   0  0  0  0  0  0  0  0  0  0  0  0
   56.8860   25.0630   45.4640 N   0  0  0  0  0  0  0  0  0  0  0  0
   56.2690   23.7840   45.1080 C   0  0  0  0  0  0  0  0  0  0  0  0
   56.4180   23.5050   43.6140 C   0  0  0  0  0  0  0  0  0  0  0  0
   57.1730   22.3670   43.4300 F   0  0  0  0  0  0  0  0  0  0  0  0
   55.1780   23.3200   43.0380 F   0  0  0  0  0  0  0  0  0  0  0  0
   57.0500   24.5680   42.9950 F   0  0  0  0  0  0  0  0  0  0  0  0
   56.2770   26.1820   45.9050 C   0  0  0  0  0  0  0  0  0  0  0  0
   55.0280   26.2970   46.0030 O   0  0  0  0  0  0  0  0  0  0  0  0
   57.1390   27.1620   46.2450 N   0  0  0  0  0  0  0  0  0  0  0  0
   60.6540   29.1430   47.6640 C   0  0  0  0  0  0  0  0  0  0  0  0
   60.2210   30.7610   48.3490 S   0  0  0  0  0  0  0  0  0  0  0  0
   56.3567   29.0389   43.7565 H   0  0  0  0  0  0  0  0  0  0  0  0
   56.1305   30.7239   43.1764 H   0  0  0  0  0  0  0  0  0  0  0  0
   57.7684   29.9862   43.1764 H   0  0  0  0  0  0  0  0  0  0  0  0
   56.9027   32.7707   43.5668 H   0  0  0  0  0  0  0  0  0  0  0  0
   57.8821   34.9689   44.1739 H   0  0  0  0  0  0  0  0  0  0  0  0
   59.1324   35.2422   46.3065 H   0  0  0  0  0  0  0  0  0  0  0  0
   60.5813   34.4745   49.5187 H   0  0  0  0  0  0  0  0  0  0  0  0
   61.4699   34.1256   47.9970 H   0  0  0  0  0  0  0  0  0  0  0  0
   60.1192   35.3099   47.9970 H   0  0  0  0  0  0  0  0  0  0  0  0
   57.8291   30.8465   48.2962 H   0  0  0  0  0  0  0  0  0  0  0  0
   57.8950   28.7780   47.5450 H   0  0  0  0  0  0  0  0  0  0  0  0
   57.7830   29.5210   46.0190 H   0  0  0  0  0  0  0  0  0  0  0  0
   60.0417   29.2786   45.5742 H   0  0  0  0  0  0  0  0  0  0  0  0
   59.0185   24.6375   45.2823 H   0  0  0  0  0  0  0  0  0  0  0  0
   56.7574   22.9781   45.6755 H   0  0  0  0  0  0  0  0  0  0  0  0
   55.1974   23.8304   45.3520 H   0  0  0  0  0  0  0  0  0  0  0  0
   60.5638   28.3726   48.4440 H   0  0  0  0  0  0  0  0  0  0  0  0
   61.6905   29.1524   47.2958 H   0  0  0  0  0  0  0  0  0  0  0  0
  1  2  1  0
  2  3  1  0
  3  4  2  0
  4  5  1  0
  5  6  2  0
  6  7  1  0
  7  8  1  0
  8  9  1  0
  7 10  2  0
 10 11  1  0
 11 12  1  0
 12 13  1  0
 13 14  1  0
 14 15  2  0
 14 16  1  0
 16 17  2  0
 17 18  1  0
 18 19  1  0
 19 20  1  0
 20 21  1  0
 20 22  1  0
 20 23  1  0
 18 24  1  0
 24 25  2  0
 24 26  1  0
 13 27  1  0
 27 28  1  0
 10  3  1  0
 28 11  1  0
 26 16  1  0
  1 29  1  0
  1 30  1  0
  1 31  1  0
  4 32  1  0
  5 33  1  0
  6 34  1  0
  9 35  1  0
  9 36  1  0
  9 37  1  0
 11 38  1  1
 12 39  1  0
 12 40  1  0
 13 41  1  6
 17 42  1  0
 19 43  1  0
 19 44  1  0
 27 45  1  0
 27 46  1  0
M  CHG  2  12   1  26  -1
M  END
>  <UniqueID>  (13) 
11

>  <SMILES>  (13) 
COc1cccc(OC)c1[C@H]1[NH2+][C@H](C(=O)c2cn(CC(F)(F)F)c(=O)[n-]2)CS1

>  <Energy>  (13) 
81.4933536715565

>  <Genealogy>  (13) 
COc1cccc(OC)c1C1[NH2+]C(C(=O)c2cn(CC(F)(F)F)c(=O)[n-]2)CS1 (protonated)
COc1cccc(OC)c1[C@H]1[NH2+][C@H](C(=O)c2cn(CC(F)(F)F)c(=O)[n-]2)CS1 (chirality)
COc1cccc(OC)c1[C@H]1[NH2+][C@H](C(=O)c2cn(CC(F)(F)F)c(=O)[n-]2)CS1 (3D coordinates assigned)
COc1cccc(OC)c1[C@H]1[NH2+][C@H](C(=O)c2cn(CC(F)(F)F)c(=O)[n-]2)CS1 (nonaromatic ring conformer: 81.4933536715565 kcal/mol)

>  <smiles>  (13) 
COc1cccc(OC)c1C1NC(C(=O)c2cn(CC(F)(F)F)c(=O)[nH]2)CS1

>  <score_type>  (13) 
oracle

>  <origin>  (13) 
adg

>  <m_score__min__energy>  (13) 
-6.9400000000000004

>  <m_primary>  (13) 
energy

$$$$
13:0
     RDKit          3D

 51 53  0  0  0  0  0  0  0  0999 V2000
   63.3410   31.9560   47.1150 C   0  0  0  0  0  0  0  0  0  0  0  0
   63.2780   32.7260   48.3580 N   0  0  0  0  0  0  0  0  0  0  0  0
   64.1740   32.3740   49.4630 C   0  0  0  0  0  0  0  0  0  0  0  0
   62.3350   33.8050   48.5320 C   0  0  0  0  0  0  0  0  0  0  0  0
   62.6130   34.7500   49.3200 O   0  0  0  0  0  0  0  0  0  0  0  0
   61.0370   33.8290   47.8240 C   0  0  0  0  0  0  0  0  0  0  0  0
   60.9820   34.1810   46.4660 C   0  0  0  0  0  0  0  0  0  0  0  0
   59.7570   34.2150   45.7930 C   0  0  0  0  0  0  0  0  0  0  0  0
   58.5660   33.9050   46.4680 C   0  0  0  0  0  0  0  0  0  0  0  0
   57.2400   33.9510   45.7410 C   0  0  0  0  0  0  0  0  0  0  0  0
   56.8200   32.6280   45.2330 N   0  0  0  0  0  0  0  0  0  0  0  0
   57.7420   32.0500   44.2350 C   0  0  0  0  0  0  0  0  0  0  0  0
   57.5400   30.5430   44.0060 C   0  0  0  0  0  0  0  0  0  0  0  0
   56.9360   29.9130   45.1360 O   0  0  0  0  0  0  0  0  0  0  0  0
   57.4410   28.7920   45.8230 C   0  0  0  0  0  0  0  0  0  0  0  0
   56.8940   27.5040   45.6520 C   0  0  0  0  0  0  0  0  0  0  0  0
   57.4170   26.4100   46.3430 C   0  0  0  0  0  0  0  0  0  0  0  0
   56.8800   25.1780   46.1610 F   0  0  0  0  0  0  0  0  0  0  0  0
   58.4940   26.5760   47.2120 C   0  0  0  0  0  0  0  0  0  0  0  0
   59.0590   27.8440   47.4000 C   0  0  0  0  0  0  0  0  0  0  0  0
   60.1380   28.0170   48.2820 C   0  0  0  0  0  0  0  0  0  0  0  0
   60.6910   29.2840   48.4780 C   0  0  0  0  0  0  0  0  0  0  0  0
   60.1780   30.3860   47.7930 C   0  0  0  0  0  0  0  0  0  0  0  0
   59.1080   30.2300   46.9060 C   0  0  0  0  0  0  0  0  0  0  0  0
   58.5330   28.9620   46.7020 C   0  0  0  0  0  0  0  0  0  0  0  0
   58.6170   33.5990   47.8370 C   0  0  0  0  0  0  0  0  0  0  0  0
   59.8410   33.5560   48.5090 C   0  0  0  0  0  0  0  0  0  0  0  0
   63.4286   30.8852   47.3511 H   0  0  0  0  0  0  0  0  0  0  0  0
   62.4257   32.1288   46.5299 H   0  0  0  0  0  0  0  0  0  0  0  0
   64.2160   32.2753   46.5299 H   0  0  0  0  0  0  0  0  0  0  0  0
   63.6704   32.5719   50.4207 H   0  0  0  0  0  0  0  0  0  0  0  0
   64.4337   31.3070   49.3988 H   0  0  0  0  0  0  0  0  0  0  0  0
   65.0905   32.9789   49.3988 H   0  0  0  0  0  0  0  0  0  0  0  0
   61.9083   34.4316   45.9283 H   0  0  0  0  0  0  0  0  0  0  0  0
   59.7264   34.4865   44.7275 H   0  0  0  0  0  0  0  0  0  0  0  0
   56.4712   34.3214   46.4350 H   0  0  0  0  0  0  0  0  0  0  0  0
   57.3605   34.6163   44.8733 H   0  0  0  0  0  0  0  0  0  0  0  0
   56.6450   31.9520   46.0110 H   0  0  0  0  0  0  0  0  0  0  0  0
   55.9000   32.7600   44.7520 H   0  0  0  0  0  0  0  0  0  0  0  0
   57.5883   32.5703   43.2781 H   0  0  0  0  0  0  0  0  0  0  0  0
   58.7618   32.1817   44.6256 H   0  0  0  0  0  0  0  0  0  0  0  0
   56.8916   30.3995   43.1291 H   0  0  0  0  0  0  0  0  0  0  0  0
   58.5273   30.0854   43.8456 H   0  0  0  0  0  0  0  0  0  0  0  0
   56.0458   27.3597   44.9666 H   0  0  0  0  0  0  0  0  0  0  0  0
   58.9016   25.7086   47.7519 H   0  0  0  0  0  0  0  0  0  0  0  0
   60.5493   27.1506   48.8208 H   0  0  0  0  0  0  0  0  0  0  0  0
   61.5329   29.4137   49.1740 H   0  0  0  0  0  0  0  0  0  0  0  0
   60.6171   31.3820   47.9513 H   0  0  0  0  0  0  0  0  0  0  0  0
   58.7139   31.1030   46.3651 H   0  0  0  0  0  0  0  0  0  0  0  0
   57.6860   33.3915   48.3849 H   0  0  0  0  0  0  0  0  0  0  0  0
   59.8686   33.3071   49.5801 H   0  0  0  0  0  0  0  0  0  0  0  0
  1  2  1  0
  2  3  1  0
  2  4  1  0
  4  5  2  0
  4  6  1  0
  6  7  2  0
  7  8  1  0
  8  9  2  0
  9 10  1  0
 10 11  1  0
 11 12  1  0
 12 13  1  0
 13 14  1  0
 14 15  1  0
 15 16  2  0
 16 17  1  0
 17 18  1  0
 17 19  2  0
 19 20  1  0
 20 21  2  0
 21 22  1  0
 22 23  2  0
 23 24  1  0
 24 25  2  0
  9 26  1  0
 26 27  2  0
 27  6  1  0
 25 15  1  0
 25 20  1  0
  1 28  1  0
  1 29  1  0
  1 30  1  0
  3 31  1  0
  3 32  1  0
  3 33  1  0
  7 34  1  0
  8 35  1  0
 10 36  1  0
 10 37  1  0
 11 38  1  0
 11 39  1  0
 12 40  1  0
 12 41  1  0
 13 42  1  0
 13 43  1  0
 16 44  1  0
 19 45  1  0
 21 46  1  0
 22 47  1  0
 23 48  1  0
 24 49  1  0
 26 50  1  0
 27 51  1  0
M  CHG  1  11   1
M  END
>  <UniqueID>  (14) 
12

>  <SMILES>  (14) 
CN(C)C(=O)c1ccc(C[NH2+]CCOc2cc(F)cc3ccccc23)cc1

>  <Energy>  (14) 
58.64651605878365

>  <Genealogy>  (14) 
CN(C)C(=O)c1ccc(C[NH2+]CCOc2cc(F)cc3ccccc23)cc1 (protonated)
CN(C)C(=O)c1ccc(C[NH2+]CCOc2cc(F)cc3ccccc23)cc1 (3D coordinates assigned)
CN(C)C(=O)c1ccc(C[NH2+]CCOc2cc(F)cc3ccccc23)cc1 (optimized conformer: 58.64651605878365 kcal/mol)

>  <smiles>  (14) 
CN(C)C(=O)c1ccc(CNCCOc2cc(F)cc3ccccc23)cc1

>  <score_type>  (14) 
oracle

>  <origin>  (14) 
adg

>  <m_score__min__energy>  (14) 
-6.3300000000000001

>  <m_primary>  (14) 
energy

$$$$
14:0
     RDKit          3D

 38 37  0  0  0  0  0  0  0  0999 V2000
   56.9950   34.2190   45.2280 C   0  0  0  0  0  0  0  0  0  0  0  0
   58.2530   33.4680   45.4570 N   0  0  0  0  0  0  0  0  0  0  0  0
   58.2350   32.9330   46.8400 C   0  0  0  0  0  0  0  0  0  0  0  0
   59.3940   34.4020   45.3000 C   0  0  0  0  0  0  0  0  0  0  0  0
   58.3250   32.3600   44.4590 C   0  0  0  0  0  0  0  0  0  0  0  0
   57.7270   31.0660   44.9440 C   0  0  0  0  0  0  0  0  0  0  0  0
   56.4930   30.8470   44.7930 O   0  0  0  0  0  0  0  0  0  0  0  0
   58.5460   30.1230   45.5690 O   0  0  0  0  0  0  0  0  0  0  0  0
   58.0470   28.9020   46.1130 C   0  0  0  0  0  0  0  0  0  0  0  0
   58.7230   27.7300   45.4960 N   0  0  0  0  0  0  0  0  0  0  0  0
   59.7170   28.2180   44.5070 C   0  0  0  0  0  0  0  0  0  0  0  0
   59.4590   26.9840   46.5470 C   0  0  0  0  0  0  0  0  0  0  0  0
   57.7620   26.8310   44.7800 C   0  0  0  0  0  0  0  0  0  0  0  0
   56.6210   26.2510   45.6400 C   0  0  0  0  0  0  0  0  0  0  0  0
   55.5280   27.0990   45.6490 F   0  0  0  0  0  0  0  0  0  0  0  0
   56.5464   34.4868   46.1960 H   0  0  0  0  0  0  0  0  0  0  0  0
   57.2131   35.1348   44.6591 H   0  0  0  0  0  0  0  0  0  0  0  0
   56.2923   33.5925   44.6591 H   0  0  0  0  0  0  0  0  0  0  0  0
   58.2631   33.7673   47.5563 H   0  0  0  0  0  0  0  0  0  0  0  0
   57.3167   32.3476   46.9948 H   0  0  0  0  0  0  0  0  0  0  0  0
   59.1119   32.2872   46.9948 H   0  0  0  0  0  0  0  0  0  0  0  0
   59.7611   34.7025   46.2924 H   0  0  0  0  0  0  0  0  0  0  0  0
   60.2026   33.9032   44.7455 H   0  0  0  0  0  0  0  0  0  0  0  0
   59.0647   35.2932   44.7455 H   0  0  0  0  0  0  0  0  0  0  0  0
   57.7854   32.6735   43.5531 H   0  0  0  0  0  0  0  0  0  0  0  0
   59.3914   32.1688   44.2686 H   0  0  0  0  0  0  0  0  0  0  0  0
   58.2269   28.8913   47.1981 H   0  0  0  0  0  0  0  0  0  0  0  0
   56.9695   28.8376   45.9011 H   0  0  0  0  0  0  0  0  0  0  0  0
   60.5826   28.6430   45.0363 H   0  0  0  0  0  0  0  0  0  0  0  0
   60.0482   27.3801   43.8760 H   0  0  0  0  0  0  0  0  0  0  0  0
   59.2566   28.9925   43.8760 H   0  0  0  0  0  0  0  0  0  0  0  0
   59.1250   27.3225   47.5389 H   0  0  0  0  0  0  0  0  0  0  0  0
   59.2594   25.9075   46.4405 H   0  0  0  0  0  0  0  0  0  0  0  0
   60.5381   27.1691   46.4405 H   0  0  0  0  0  0  0  0  0  0  0  0
   57.3080   27.4065   43.9598 H   0  0  0  0  0  0  0  0  0  0  0  0
   58.3536   25.9665   44.4444 H   0  0  0  0  0  0  0  0  0  0  0  0
   56.3180   25.2776   45.2268 H   0  0  0  0  0  0  0  0  0  0  0  0
   56.9836   26.1349   46.6720 H   0  0  0  0  0  0  0  0  0  0  0  0
  1  2  1  0
  2  3  1  0
  2  4  1  0
  2  5  1  0
  5  6  1  0
  6  7  2  0
  6  8  1  0
  8  9  1  0
  9 10  1  0
 10 11  1  0
 10 12  1  0
 10 13  1  0
 13 14  1  0
 14 15  1  0
  1 16  1  0
  1 17  1  0
  1 18  1  0
  3 19  1  0
  3 20  1  0
  3 21  1  0
  4 22  1  0
  4 23  1  0
  4 24  1  0
  5 25  1  0
  5 26  1  0
  9 27  1  0
  9 28  1  0
 11 29  1  0
 11 30  1  0
 11 31  1  0
 12 32  1  0
 12 33  1  0
 12 34  1  0
 13 35  1  0
 13 36  1  0
 14 37  1  0
 14 38  1  0
M  CHG  2   2   1  10   1
M  END
>  <UniqueID>  (15) 
13

>  <SMILES>  (15) 
C[N+](C)(C)CC(=O)OC[N+](C)(C)CCF

>  <Energy>  (15) 
41.73880498926286

>  <Genealogy>  (15) 
C[N+](C)(C)CC(=O)OC[N+](C)(C)CCF (3D coordinates assigned)
C[N+](C)(C)CC(=O)OC[N+](C)(C)CCF (optimized conformer: 41.73880498926286 kcal/mol)

>  <smiles>  (15) 
C[N+](C)(C)CC(=O)OC[N+](C)(C)CCF

>  <score_type>  (15) 
oracle

>  <origin>  (15) 
adg

>  <m_score__min__energy>  (15) 
-1.4299999999999999

>  <m_primary>  (15) 
energy

$$$$
15:0
     RDKit          3D

 50 53  0  0  0  0  0  0  0  0999 V2000
   57.9310   32.7390   43.2150 C   0  0  0  0  0  0  0  0  0  0  0  0
   57.8660   33.7060   44.2560 O   0  0  0  0  0  0  0  0  0  0  0  0
   58.2750   33.4760   45.5780 C   0  0  0  0  0  0  0  0  0  0  0  0
   57.3840   33.0090   46.5760 C   0  0  0  0  0  0  0  0  0  0  0  0
   57.8370   32.7990   47.8870 C   0  0  0  0  0  0  0  0  0  0  0  0
   59.1840   33.0310   48.1820 C   0  0  0  0  0  0  0  0  0  0  0  0
   60.0450   33.4960   47.2220 C   0  0  0  0  0  0  0  0  0  0  0  0
   59.6150   33.7280   45.9150 C   0  0  0  0  0  0  0  0  0  0  0  0
   61.4030   33.7500   47.7680 C   0  0  0  0  0  0  0  0  0  0  0  0
   61.3990   33.0230   49.1560 C   0  0  1  0  0  0  0  0  0  0  0  0
   62.0050   31.5960   48.9790 C   0  0  0  0  0  0  0  0  0  0  0  0
   63.4990   31.5970   48.5820 C   0  0  0  0  0  0  0  0  0  0  0  0
   64.3120   32.7750   49.1680 C   0  0  1  0  0  0  0  0  0  0  0  0
   64.3910   33.8180   48.2090 O   0  0  0  0  0  0  0  0  0  0  0  0
   64.1330   33.3310   46.9100 C   0  0  0  0  0  0  0  0  0  0  0  0
   63.6630   33.2970   50.4560 C   0  0  0  0  0  0  0  0  0  0  0  0
   62.2230   33.8030   50.2410 C   0  0  0  0  0  0  0  0  0  0  0  0
   59.8560   32.9580   49.5080 C   0  0  1  0  0  0  0  0  0  0  0  0
   59.4220   34.1030   50.3140 N   0  0  0  0  0  0  0  0  0  0  0  0
   58.8700   33.6880   51.4130 C   0  0  0  0  0  0  0  0  0  0  0  0
   58.3320   34.5960   52.3750 N   0  0  0  0  0  0  0  0  0  0  0  0
   58.8370   32.2720   51.5660 N   0  0  0  0  0  0  0  0  0  0  0  0
   57.9200   31.5220   52.4160 C   0  0  0  0  0  0  0  0  0  0  0  0
   59.3930   31.8050   50.3480 C   0  0  0  0  0  0  0  0  0  0  0  0
   59.3690   30.5960   49.9900 O   0  0  0  0  0  0  0  0  0  0  0  0
   57.9987   31.7324   43.6533 H   0  0  0  0  0  0  0  0  0  0  0  0
   57.0262   32.8081   42.5933 H   0  0  0  0  0  0  0  0  0  0  0  0
   58.8184   32.9286   42.5933 H   0  0  0  0  0  0  0  0  0  0  0  0
   56.3324   32.8103   46.3216 H   0  0  0  0  0  0  0  0  0  0  0  0
   57.1440   32.4575   48.6700 H   0  0  0  0  0  0  0  0  0  0  0  0
   60.3178   34.1041   45.1569 H   0  0  0  0  0  0  0  0  0  0  0  0
   62.1746   33.3271   47.1079 H   0  0  0  0  0  0  0  0  0  0  0  0
   61.6295   34.8230   47.8541 H   0  0  0  0  0  0  0  0  0  0  0  0
   61.8994   31.0540   49.9304 H   0  0  0  0  0  0  0  0  0  0  0  0
   61.4555   31.1145   48.1567 H   0  0  0  0  0  0  0  0  0  0  0  0
   63.9500   30.6578   48.9349 H   0  0  0  0  0  0  0  0  0  0  0  0
   63.5343   31.7032   47.4877 H   0  0  0  0  0  0  0  0  0  0  0  0
   65.3241   32.4196   49.4116 H   0  0  0  0  0  0  0  0  0  0  0  0
   63.6190   32.3608   46.9775 H   0  0  0  0  0  0  0  0  0  0  0  0
   63.4958   34.0467   46.3699 H   0  0  0  0  0  0  0  0  0  0  0  0
   65.0831   33.2058   46.3699 H   0  0  0  0  0  0  0  0  0  0  0  0
   63.6417   32.4812   51.1936 H   0  0  0  0  0  0  0  0  0  0  0  0
   64.2634   34.1500   50.8053 H   0  0  0  0  0  0  0  0  0  0  0  0
   61.6872   33.7235   51.1984 H   0  0  0  0  0  0  0  0  0  0  0  0
   62.3125   34.8361   49.8741 H   0  0  0  0  0  0  0  0  0  0  0  0
   57.8920   34.2500   53.2540 H   0  0  0  0  0  0  0  0  0  0  0  0
   58.3770   35.6260   52.2070 H   0  0  0  0  0  0  0  0  0  0  0  0
   58.1574   31.7162   53.4724 H   0  0  0  0  0  0  0  0  0  0  0  0
   56.8868   31.8372   52.2084 H   0  0  0  0  0  0  0  0  0  0  0  0
   58.0240   30.4468   52.2084 H   0  0  0  0  0  0  0  0  0  0  0  0
  1  2  1  0
  2  3  1  0
  3  4  2  0
  4  5  1  0
  5  6  2  0
  6  7  1  0
  7  8  2  0
  7  9  1  0
 10  9  1  6
 10 11  1  0
 11 12  1  0
 12 13  1  0
 13 14  1  0
 14 15  1  0
 13 16  1  0
 16 17  1  0
 18 10  1  0
 18 19  1  1
 19 20  2  0
 20 21  1  0
 20 22  1  0
 22 23  1  0
 22 24  1  0
 24 25  2  0
  8  3  1  0
 17 10  1  0
 24 18  1  0
 18  6  1  0
  1 26  1  0
  1 27  1  0
  1 28  1  0
  4 29  1  0
  5 30  1  0
  8 31  1  0
  9 32  1  0
  9 33  1  0
 11 34  1  0
 11 35  1  0
 12 36  1  0
 12 37  1  0
 13 38  1  1
 15 39  1  0
 15 40  1  0
 15 41  1  0
 16 42  1  0
 16 43  1  0
 17 44  1  0
 17 45  1  0
 21 46  1  0
 21 47  1  0
 23 48  1  0
 23 49  1  0
 23 50  1  0
M  END
>  <UniqueID>  (16) 
14

>  <SMILES>  (16) 
COc1ccc2c(c1)CC1(CCC(OC)CC1)[C@@]21N=C(N)N(C)C1=O

>  <Energy>  (16) 
96.23615339086741

>  <Genealogy>  (16) 
COc1ccc2c(c1)CC1(CCC(OC)CC1)[C@@]21N=C(N)N(C)C1=O (chirality)
COc1ccc2c(c1)CC1(CCC(OC)CC1)[C@@]21N=C(N)N(C)C1=O (3D coordinates assigned)
COc1ccc2c(c1)CC1(CCC(OC)CC1)[C@@]21N=C(N)N(C)C1=O (nonaromatic ring conformer: 96.23615339086741 kcal/mol)

>  <smiles>  (16) 
COc1ccc2c(c1)CC1(CCC(OC)CC1)C21N=C(N)N(C)C1=O

>  <score_type>  (16) 
oracle

>  <origin>  (16) 
adg

>  <m_score__min__energy>  (16) 
-6.9199999999999999

>  <m_primary>  (16) 
energy

$$$$
16:0
     RDKit          3D

 50 53  0  0  0  0  0  0  0  0999 V2000
   57.6180   33.9550   44.8650 C   0  0  0  0  0  0  0  0  0  0  0  0
   59.0230   34.5170   45.0810 C   0  0  0  0  0  0  0  0  0  0  0  0
   59.5580   34.1550   46.4010 N   0  0  0  0  0  0  0  0  0  0  0  0
   59.2300   34.9700   47.5780 C   0  0  0  0  0  0  0  0  0  0  0  0
   59.6400   34.2410   48.8520 C   0  0  0  0  0  0  0  0  0  0  0  0
   60.0910   32.8340   46.6070 C   0  0  0  0  0  0  0  0  0  0  0  0
   59.2760   31.7420   46.5190 N   0  0  0  0  0  0  0  0  0  0  0  0
   59.7350   30.4630   46.6900 C   0  0  0  0  0  0  0  0  0  0  0  0
   58.7980   29.3260   46.5400 C   0  0  0  0  0  0  0  0  0  0  0  0
   58.8710   28.2530   47.4440 C   0  0  0  0  0  0  0  0  0  0  0  0
   57.9840   27.1770   47.3430 C   0  0  0  0  0  0  0  0  0  0  0  0
   57.0200   27.1450   46.3320 C   0  0  0  0  0  0  0  0  0  0  0  0
   56.1290   26.0620   46.2850 O   0  0  0  0  0  0  0  0  0  0  0  0
   56.1670   25.0170   45.3510 C   0  0  0  0  0  0  0  0  0  0  0  0
   57.0290   25.0440   44.2390 C   0  0  0  0  0  0  0  0  0  0  0  0
   57.0530   23.9720   43.3410 C   0  0  0  0  0  0  0  0  0  0  0  0
   56.2310   22.8620   43.5540 C   0  0  0  0  0  0  0  0  0  0  0  0
   55.3850   22.8230   44.6650 C   0  0  0  0  0  0  0  0  0  0  0  0
   55.3590   23.8940   45.5640 C   0  0  0  0  0  0  0  0  0  0  0  0
   56.9420   28.2130   45.4220 C   0  0  0  0  0  0  0  0  0  0  0  0
   57.8300   29.2900   45.5160 C   0  0  0  0  0  0  0  0  0  0  0  0
   57.7630   30.2740   44.5830 F   0  0  0  0  0  0  0  0  0  0  0  0
   61.1060   30.2620   46.9520 C   0  0  0  0  0  0  0  0  0  0  0  0
   61.8970   31.3580   47.0440 N   0  0  0  0  0  0  0  0  0  0  0  0
   63.2110   31.4570   47.3050 C   0  0  0  0  0  0  0  0  0  0  0  0
   63.5290   32.8060   47.3080 C   0  0  0  0  0  0  0  0  0  0  0  0
   62.4150   33.5280   47.0480 N   0  0  0  0  0  0  0  0  0  0  0  0
   61.4430   32.6100   46.8870 C   0  0  0  0  0  0  0  0  0  0  0  0
   57.1449   33.7658   45.8399 H   0  0  0  0  0  0  0  0  0  0  0  0
   57.0154   34.6813   44.2998 H   0  0  0  0  0  0  0  0  0  0  0  0
   57.6826   33.0135   44.2998 H   0  0  0  0  0  0  0  0  0  0  0  0
   59.6904   34.1159   44.3040 H   0  0  0  0  0  0  0  0  0  0  0  0
   58.9652   35.6140   45.0244 H   0  0  0  0  0  0  0  0  0  0  0  0
   59.7674   35.9279   47.5182 H   0  0  0  0  0  0  0  0  0  0  0  0
   58.1450   35.1497   47.5999 H   0  0  0  0  0  0  0  0  0  0  0  0
   59.3137   34.8213   49.7277 H   0  0  0  0  0  0  0  0  0  0  0  0
   59.1683   33.2475   48.8739 H   0  0  0  0  0  0  0  0  0  0  0  0
   60.7340   34.1281   48.8739 H   0  0  0  0  0  0  0  0  0  0  0  0
   59.6324   28.2595   48.2379 H   0  0  0  0  0  0  0  0  0  0  0  0
   58.0455   26.3493   48.0649 H   0  0  0  0  0  0  0  0  0  0  0  0
   57.6860   25.9110   44.0755 H   0  0  0  0  0  0  0  0  0  0  0  0
   57.7194   24.0026   42.4664 H   0  0  0  0  0  0  0  0  0  0  0  0
   56.2502   22.0194   42.8471 H   0  0  0  0  0  0  0  0  0  0  0  0
   54.7386   21.9490   44.8329 H   0  0  0  0  0  0  0  0  0  0  0  0
   54.6997   23.8536   46.4436 H   0  0  0  0  0  0  0  0  0  0  0  0
   56.1779   28.2021   44.6308 H   0  0  0  0  0  0  0  0  0  0  0  0
   61.5189   29.2502   47.0773 H   0  0  0  0  0  0  0  0  0  0  0  0
   63.9054   30.6227   47.4832 H   0  0  0  0  0  0  0  0  0  0  0  0
   64.5297   33.2238   47.4927 H   0  0  0  0  0  0  0  0  0  0  0  0
   62.3400   34.5660   47.0010 H   0  0  0  0  0  0  0  0  0  0  0  0
  1  2  1  0
  2  3  1  0
  3  4  1  0
  4  5  1  0
  3  6  1  0
  6  7  2  0
  7  8  1  0
  8  9  1  0
  9 10  2  0
 10 11  1  0
 11 12  2  0
 12 13  1  0
 13 14  1  0
 14 15  2  0
 15 16  1  0
 16 17  2  0
 17 18  1  0
 18 19  2  0
 12 20  1  0
 20 21  2  0
 21 22  1  0
  8 23  2  0
 23 24  1  0
 24 25  1  0
 25 26  2  0
 26 27  1  0
 27 28  2  0
 28  6  1  0
 21  9  1  0
 28 24  1  0
 19 14  1  0
  1 29  1  0
  1 30  1  0
  1 31  1  0
  2 32  1  0
  2 33  1  0
  4 34  1  0
  4 35  1  0
  5 36  1  0
  5 37  1  0
  5 38  1  0
 10 39  1  0
 11 40  1  0
 15 41  1  0
 16 42  1  0
 17 43  1  0
 18 44  1  0
 19 45  1  0
 20 46  1  0
 23 47  1  0
 25 48  1  0
 26 49  1  0
 27 50  1  0
M  CHG  1  27   1
M  END
>  <UniqueID>  (17) 
15

>  <SMILES>  (17) 
CCN(CC)c1nc(-c2ccc(Oc3ccccc3)cc2F)cn2cc[nH+]c12

>  <Energy>  (17) 
101.52675400596458

>  <Genealogy>  (17) 
CCN(CC)c1nc(-c2ccc(Oc3ccccc3)cc2F)cn2cc[nH+]c12 (protonated)
CCN(CC)c1nc(-c2ccc(Oc3ccccc3)cc2F)cn2cc[nH+]c12 (3D coordinates assigned)
CCN(CC)c1nc(-c2ccc(Oc3ccccc3)cc2F)cn2cc[nH+]c12 (optimized conformer: 101.52675400596458 kcal/mol)

>  <smiles>  (17) 
CCN(CC)c1nc(-c2ccc(Oc3ccccc3)cc2F)cn2ccnc12

>  <score_type>  (17) 
oracle

>  <origin>  (17) 
adg

>  <m_score__min__energy>  (17) 
-5.9800000000000004

>  <m_primary>  (17) 
energy

$$$$
17:0
     RDKit          3D

 31 33  0  0  0  0  0  0  0  0999 V2000
   58.1480   32.4580   42.0530 C   0  0  0  0  0  0  0  0  0  0  0  0
   57.8030   32.2840   43.4640 N   0  0  0  0  0  0  0  0  0  0  0  0
   57.1450   31.2430   44.0460 C   0  0  0  0  0  0  0  0  0  0  0  0
   56.6030   30.0550   43.3040 C   0  0  0  0  0  0  0  0  0  0  0  0
   57.0210   28.7770   43.9810 C   0  0  0  0  0  0  0  0  0  0  0  0
   56.6480   28.5160   45.3110 C   0  0  0  0  0  0  0  0  0  0  0  0
   57.0240   27.3170   45.9260 C   0  0  0  0  0  0  0  0  0  0  0  0
   57.7720   26.3720   45.2190 C   0  0  0  0  0  0  0  0  0  0  0  0
   58.1460   26.6230   43.8960 C   0  0  0  0  0  0  0  0  0  0  0  0
   57.7720   27.8190   43.2770 C   0  0  0  0  0  0  0  0  0  0  0  0
   57.0950   31.3280   45.4020 N   0  0  0  0  0  0  0  0  0  0  0  0
   57.7550   32.4710   45.6600 C   0  0  0  0  0  0  0  0  0  0  0  0
   58.0240   33.0300   46.9070 C   0  0  0  0  0  0  0  0  0  0  0  0
   58.7740   34.2200   46.9430 C   0  0  0  0  0  0  0  0  0  0  0  0
   59.2380   34.8110   45.7460 C   0  0  0  0  0  0  0  0  0  0  0  0
   58.9520   34.2190   44.5010 C   0  0  0  0  0  0  0  0  0  0  0  0
   58.1950   33.0440   44.5010 C   0  0  0  0  0  0  0  0  0  0  0  0
   59.1276   32.9520   41.9733 H   0  0  0  0  0  0  0  0  0  0  0  0
   58.1924   31.4745   41.5624 H   0  0  0  0  0  0  0  0  0  0  0  0
   57.3835   33.0783   41.5624 H   0  0  0  0  0  0  0  0  0  0  0  0
   55.5046   30.1113   43.2828 H   0  0  0  0  0  0  0  0  0  0  0  0
   57.0021   30.0625   42.2790 H   0  0  0  0  0  0  0  0  0  0  0  0
   56.0583   29.2573   45.8702 H   0  0  0  0  0  0  0  0  0  0  0  0
   56.7305   27.1180   46.9673 H   0  0  0  0  0  0  0  0  0  0  0  0
   58.0667   25.4298   45.7041 H   0  0  0  0  0  0  0  0  0  0  0  0
   58.7355   25.8783   43.3411 H   0  0  0  0  0  0  0  0  0  0  0  0
   58.0663   28.0117   42.2348 H   0  0  0  0  0  0  0  0  0  0  0  0
   57.6625   32.5573   47.8321 H   0  0  0  0  0  0  0  0  0  0  0  0
   59.0008   34.6936   47.9096 H   0  0  0  0  0  0  0  0  0  0  0  0
   59.8264   35.7395   45.7873 H   0  0  0  0  0  0  0  0  0  0  0  0
   59.3114   34.6652   43.5620 H   0  0  0  0  0  0  0  0  0  0  0  0
  1  2  1  0
  2  3  1  0
  3  4  1  0
  4  5  1  0
  5  6  2  0
  6  7  1  0
  7  8  2  0
  8  9  1  0
  9 10  2  0
  3 11  2  0
 11 12  1  0
 12 13  2  0
 13 14  1  0
 14 15  2  0
 15 16  1  0
 16 17  2  0
 17  2  1  0
 10  5  1  0
 17 12  1  0
  1 18  1  0
  1 19  1  0
  1 20  1  0
  4 21  1  0
  4 22  1  0
  6 23  1  0
  7 24  1  0
  8 25  1  0
  9 26  1  0
 10 27  1  0
 13 28  1  0
 14 29  1  0
 15 30  1  0
 16 31  1  0
M  END
>  <UniqueID>  (18) 
16

>  <SMILES>  (18) 
Cn1c(Cc2ccccc2)nc2ccccc21

>  <Energy>  (18) 
68.84248021419728

>  <Genealogy>  (18) 
Cn1c(Cc2ccccc2)nc2ccccc21 (3D coordinates assigned)
Cn1c(Cc2ccccc2)nc2ccccc21 (optimized conformer: 68.84248021419728 kcal/mol)

>  <smiles>  (18) 
Cn1c(Cc2ccccc2)nc2ccccc21

>  <score_type>  (18) 
oracle

>  <origin>  (18) 
adg

>  <m_score__min__energy>  (18) 
-6.9400000000000004

>  <m_primary>  (18) 
energy

$$$$
18:0
     RDKit          3D

 25 26  0  0  0  0  0  0  0  0999 V2000
   55.1620   26.7160   46.0140 O   0  0  0  0  0  0  0  0  0  0  0  0
   56.4890   27.0720   45.9570 N   0  0  0  0  0  0  0  0  0  0  0  0
   57.3910   26.4120   46.7340 C   0  0  0  0  0  0  0  0  0  0  0  0
   58.7440   26.7540   46.6880 C   0  0  0  0  0  0  0  0  0  0  0  0
   59.1610   27.7800   45.8400 C   0  0  0  0  0  0  0  0  0  0  0  0
   58.2260   28.4620   45.0480 C   0  0  0  0  0  0  0  0  0  0  0  0
   58.6450   29.5030   44.1440 N   0  0  0  0  0  0  0  0  0  0  0  0
   58.3520   30.7910   44.7210 C   0  0  0  0  0  0  0  0  0  0  0  0
   58.5990   31.0340   46.0860 C   0  0  0  0  0  0  0  0  0  0  0  0
   58.2870   32.2740   46.6490 C   0  0  0  0  0  0  0  0  0  0  0  0
   57.7200   33.2800   45.8620 C   0  0  0  0  0  0  0  0  0  0  0  0
   57.4620   33.0460   44.5090 C   0  0  0  0  0  0  0  0  0  0  0  0
   57.7730   31.8080   43.9400 C   0  0  0  0  0  0  0  0  0  0  0  0
   56.8760   28.0770   45.1220 C   0  0  0  0  0  0  0  0  0  0  0  0
   57.0525   25.6056   47.4012 H   0  0  0  0  0  0  0  0  0  0  0  0
   59.4737   26.2197   47.3142 H   0  0  0  0  0  0  0  0  0  0  0  0
   60.2251   28.0546   45.7924 H   0  0  0  0  0  0  0  0  0  0  0  0
   58.1540   29.4010   43.2250 H   0  0  0  0  0  0  0  0  0  0  0  0
   59.6710   29.4200   43.9500 H   0  0  0  0  0  0  0  0  0  0  0  0
   59.0396   30.2439   46.7118 H   0  0  0  0  0  0  0  0  0  0  0  0
   58.4882   32.4589   47.7145 H   0  0  0  0  0  0  0  0  0  0  0  0
   57.4769   34.2558   46.3077 H   0  0  0  0  0  0  0  0  0  0  0  0
   57.0134   33.8374   43.8906 H   0  0  0  0  0  0  0  0  0  0  0  0
   57.5639   31.6276   42.8752 H   0  0  0  0  0  0  0  0  0  0  0  0
   56.1268   28.5906   44.5016 H   0  0  0  0  0  0  0  0  0  0  0  0
  1  2  1  0
  2  3  2  0
  3  4  1  0
  4  5  2  0
  5  6  1  0
  6  7  1  0
  7  8  1  0
  8  9  2  0
  9 10  1  0
 10 11  2  0
 11 12  1  0
 12 13  2  0
  6 14  2  0
 14  2  1  0
 13  8  1  0
  3 15  1  0
  4 16  1  0
  5 17  1  0
  7 18  1  0
  7 19  1  0
  9 20  1  0
 10 21  1  0
 11 22  1  0
 12 23  1  0
 13 24  1  0
 14 25  1  0
M  CHG  3   1  -1   2   1   7   1
M  END
>  <UniqueID>  (19) 
17

>  <SMILES>  (19) 
[O-][n+]1cccc([NH2+]c2ccccc2)c1

>  <Energy>  (19) 
27.60106517391659

>  <Genealogy>  (19) 
[O-][n+]1cccc([NH2+]c2ccccc2)c1 (protonated)
[O-][n+]1cccc([NH2+]c2ccccc2)c1 (3D coordinates assigned)
[O-][n+]1cccc([NH2+]c2ccccc2)c1 (optimized conformer: 27.60106517391659 kcal/mol)

>  <smiles>  (19) 
[O-][n+]1cccc(Nc2ccccc2)c1

>  <score_type>  (19) 
oracle

>  <origin>  (19) 
adg

>  <m_score__min__energy>  (19) 
-5.3600000000000003

>  <m_primary>  (19) 
energy

$$$$
19:0
     RDKit          3D

 40 41  0  0  0  0  0  0  0  0999 V2000
   56.2880   29.8510   42.7700 C   0  0  0  0  0  0  0  0  0  0  0  0
   55.5280   30.1390   44.0580 C   0  0  0  0  0  0  0  0  0  0  0  0
   55.5100   28.9460   44.9010 N   0  0  0  0  0  0  0  0  0  0  0  0
   56.6490   28.2120   45.3720 C   0  0  0  0  0  0  0  0  0  0  0  0
   56.4470   27.1260   45.9790 O   0  0  0  0  0  0  0  0  0  0  0  0
   58.0690   28.7190   45.1860 C   0  0  2  0  0  0  0  0  0  0  0  0
   59.1180   27.6900   45.6740 C   0  0  0  0  0  0  0  0  0  0  0  0
   60.4560   28.3750   45.9450 C   0  0  0  0  0  0  0  0  0  0  0  0
   60.3200   29.4850   47.0130 C   0  0  0  0  0  0  0  0  0  0  0  0
   58.9280   29.9840   47.1740 N   0  0  1  0  0  0  0  0  0  0  0  0
   58.9400   31.2810   47.8940 C   0  0  0  0  0  0  0  0  0  0  0  0
   58.9250   32.4640   46.9440 C   0  0  0  0  0  0  0  0  0  0  0  0
   57.6960   32.9330   46.4450 C   0  0  0  0  0  0  0  0  0  0  0  0
   57.6510   34.0420   45.5970 C   0  0  0  0  0  0  0  0  0  0  0  0
   58.8300   34.6930   45.2340 C   0  0  0  0  0  0  0  0  0  0  0  0
   60.0590   34.2370   45.7170 C   0  0  0  0  0  0  0  0  0  0  0  0
   60.1160   33.1270   46.5690 C   0  0  0  0  0  0  0  0  0  0  0  0
   61.6960   32.5930   47.1350 Cl  0  0  0  0  0  0  0  0  0  0  0  0
   58.2590   30.1050   45.8590 C   0  0  0  0  0  0  0  0  0  0  0  0
   57.2911   29.4709   43.0134 H   0  0  0  0  0  0  0  0  0  0  0  0
   55.7426   29.0972   42.1832 H   0  0  0  0  0  0  0  0  0  0  0  0
   56.3792   30.7769   42.1832 H   0  0  0  0  0  0  0  0  0  0  0  0
   56.0227   30.9599   44.5979 H   0  0  0  0  0  0  0  0  0  0  0  0
   54.4946   30.4254   43.8129 H   0  0  0  0  0  0  0  0  0  0  0  0
   58.2360   28.8497   44.1066 H   0  0  0  0  0  0  0  0  0  0  0  0
   58.7586   27.2189   46.6008 H   0  0  0  0  0  0  0  0  0  0  0  0
   59.2603   26.9299   44.8917 H   0  0  0  0  0  0  0  0  0  0  0  0
   61.1764   27.6236   46.3005 H   0  0  0  0  0  0  0  0  0  0  0  0
   60.8018   28.8380   45.0090 H   0  0  0  0  0  0  0  0  0  0  0  0
   60.6599   29.0829   47.9788 H   0  0  0  0  0  0  0  0  0  0  0  0
   60.9323   30.3349   46.6771 H   0  0  0  0  0  0  0  0  0  0  0  0
   58.3990   29.2910   47.7560 H   0  0  0  0  0  0  0  0  0  0  0  0
   58.0522   31.3351   48.5412 H   0  0  0  0  0  0  0  0  0  0  0  0
   59.8680   31.3321   48.4824 H   0  0  0  0  0  0  0  0  0  0  0  0
   56.7629   32.4221   46.7250 H   0  0  0  0  0  0  0  0  0  0  0  0
   56.6845   34.4025   45.2149 H   0  0  0  0  0  0  0  0  0  0  0  0
   58.7920   35.5666   44.5666 H   0  0  0  0  0  0  0  0  0  0  0  0
   60.9864   34.7523   45.4267 H   0  0  0  0  0  0  0  0  0  0  0  0
   57.2728   30.5710   46.0015 H   0  0  0  0  0  0  0  0  0  0  0  0
   58.8934   30.7214   45.2051 H   0  0  0  0  0  0  0  0  0  0  0  0
  1  2  1  0
  2  3  1  0
  3  4  1  0
  4  5  2  0
  4  6  1  0
  6  7  1  0
  7  8  1  0
  8  9  1  0
  9 10  1  0
 10 11  1  0
 11 12  1  0
 12 13  2  0
 13 14  1  0
 14 15  2  0
 15 16  1  0
 16 17  2  0
 17 18  1  0
 10 19  1  0
 19  6  1  0
 17 12  1  0
  1 20  1  0
  1 21  1  0
  1 22  1  0
  2 23  1  0
  2 24  1  0
  6 25  1  6
  7 26  1  0
  7 27  1  0
  8 28  1  0
  8 29  1  0
  9 30  1  0
  9 31  1  0
 10 32  1  1
 11 33  1  0
 11 34  1  0
 13 35  1  0
 14 36  1  0
 15 37  1  0
 16 38  1  0
 19 39  1  0
 19 40  1  0
M  CHG  2   3  -1  10   1
M  END
>  <UniqueID>  (20) 
18

>  <SMILES>  (20) 
CC[N-]C(=O)[C@@H]1CCC[N@@H+](Cc2ccccc2Cl)C1

>  <Energy>  (20) 
46.02263636750961

>  <Genealogy>  (20) 
CC[N-]C(=O)C1CCC[NH+](Cc2ccccc2Cl)C1 (protonated)
CC[N-]C(=O)[C@@H]1CCC[N@@H+](Cc2ccccc2Cl)C1 (chirality)
CC[N-]C(=O)[C@@H]1CCC[N@@H+](Cc2ccccc2Cl)C1 (3D coordinates assigned)
CC[N-]C(=O)[C@@H]1CCC[N@@H+](Cc2ccccc2Cl)C1 (nonaromatic ring conformer: 46.02263636750961 kcal/mol)

>  <smiles>  (20) 
CCNC(=O)C1CCCN(Cc2ccccc2Cl)C1

>  <score_type>  (20) 
oracle

>  <origin>  (20) 
adg

>  <m_score__min__energy>  (20) 
-7.7800000000000002

>  <m_primary>  (20) 
energy

$$$$
20:0
     RDKit          3D

 40 42  0  0  0  0  0  0  0  0999 V2000
   56.6420   21.9290   47.0970 C   0  0  0  0  0  0  0  0  0  0  0  0
   56.5040   22.1800   45.6190 C   0  0  0  0  0  0  0  0  0  0  0  0
   56.9100   21.1970   44.7010 C   0  0  0  0  0  0  0  0  0  0  0  0
   56.7890   21.4180   43.3270 C   0  0  0  0  0  0  0  0  0  0  0  0
   56.2750   22.6280   42.8580 C   0  0  0  0  0  0  0  0  0  0  0  0
   55.8690   23.6160   43.7590 C   0  0  0  0  0  0  0  0  0  0  0  0
   55.9630   23.3950   45.1460 C   0  0  0  0  0  0  0  0  0  0  0  0
   55.5700   24.4080   46.0870 N   0  0  0  0  0  0  0  0  0  0  0  0
   55.9880   25.7790   46.0710 C   0  0  0  0  0  0  0  0  0  0  0  0
   55.1430   26.7130   46.0270 O   0  0  0  0  0  0  0  0  0  0  0  0
   57.4430   26.1040   46.1380 C   0  0  0  0  0  0  0  0  0  0  0  0
   58.0960   26.3140   44.4520 S   0  0  0  0  0  0  0  0  0  0  0  0
   58.6580   27.9890   44.7580 C   0  0  0  0  0  0  0  0  0  0  0  0
   59.9550   28.3460   44.8040 N   0  0  0  0  0  0  0  0  0  0  0  0
   59.9910   29.6360   45.1080 N   0  0  0  0  0  0  0  0  0  0  0  0
   58.7140   30.0540   45.2400 C   0  0  0  0  0  0  0  0  0  0  0  0
   58.3450   31.4440   45.5790 C   0  0  0  0  0  0  0  0  0  0  0  0
   58.5040   31.9380   46.8850 C   0  0  0  0  0  0  0  0  0  0  0  0
   58.1370   33.2510   47.1930 C   0  0  0  0  0  0  0  0  0  0  0  0
   57.5910   34.0750   46.2050 C   0  0  0  0  0  0  0  0  0  0  0  0
   57.4010   33.5840   44.9110 C   0  0  0  0  0  0  0  0  0  0  0  0
   57.7700   32.2710   44.5990 C   0  0  0  0  0  0  0  0  0  0  0  0
   57.8560   29.0350   45.0240 N   0  0  0  0  0  0  0  0  0  0  0  0
   56.4670   29.0030   45.2320 N   0  0  0  0  0  0  0  0  0  0  0  0
   56.1851   22.7601   47.6543 H   0  0  0  0  0  0  0  0  0  0  0  0
   56.1338   20.9891   47.3583 H   0  0  0  0  0  0  0  0  0  0  0  0
   57.7079   21.8545   47.3583 H   0  0  0  0  0  0  0  0  0  0  0  0
   57.3261   20.2467   45.0668 H   0  0  0  0  0  0  0  0  0  0  0  0
   57.0987   20.6388   42.6150 H   0  0  0  0  0  0  0  0  0  0  0  0
   56.1892   22.8044   41.7756 H   0  0  0  0  0  0  0  0  0  0  0  0
   55.4740   24.5711   43.3825 H   0  0  0  0  0  0  0  0  0  0  0  0
   57.5848   27.0360   46.7049 H   0  0  0  0  0  0  0  0  0  0  0  0
   57.9790   25.2847   46.6394 H   0  0  0  0  0  0  0  0  0  0  0  0
   58.9195   31.2879   47.6690 H   0  0  0  0  0  0  0  0  0  0  0  0
   58.2780   33.6361   48.2137 H   0  0  0  0  0  0  0  0  0  0  0  0
   57.3107   35.1109   46.4464 H   0  0  0  0  0  0  0  0  0  0  0  0
   56.9610   34.2300   44.1370 H   0  0  0  0  0  0  0  0  0  0  0  0
   57.6093   31.8842   43.5819 H   0  0  0  0  0  0  0  0  0  0  0  0
   55.8780   28.2830   44.7580 H   0  0  0  0  0  0  0  0  0  0  0  0
   56.0070   29.6440   45.9150 H   0  0  0  0  0  0  0  0  0  0  0  0
  1  2  1  0
  2  3  2  0
  3  4  1  0
  4  5  2  0
  5  6  1  0
  6  7  2  0
  7  8  1  0
  8  9  1  0
  9 10  2  0
  9 11  1  0
 11 12  1  0
 12 13  1  0
 13 14  2  0
 14 15  1  0
 15 16  2  0
 16 17  1  0
 17 18  2  0
 18 19  1  0
 19 20  2  0
 20 21  1  0
 21 22  2  0
 16 23  1  0
 23 24  1  0
  7  2  1  0
 23 13  1  0
 22 17  1  0
  1 25  1  0
  1 26  1  0
  1 27  1  0
  3 28  1  0
  4 29  1  0
  5 30  1  0
  6 31  1  0
 11 32  1  0
 11 33  1  0
 18 34  1  0
 19 35  1  0
 20 36  1  0
 21 37  1  0
 22 38  1  0
 24 39  1  0
 24 40  1  0
M  CHG  1   8  -1
M  END
>  <UniqueID>  (21) 
19

>  <SMILES>  (21) 
Cc1ccccc1[N-]C(=O)CSc1nnc(-c2ccccc2)n1N

>  <Energy>  (21) 
81.54821531420946

>  <Genealogy>  (21) 
Cc1ccccc1[N-]C(=O)CSc1nnc(-c2ccccc2)n1N (protonated)
Cc1ccccc1[N-]C(=O)CSc1nnc(-c2ccccc2)n1N (3D coordinates assigned)
Cc1ccccc1[N-]C(=O)CSc1nnc(-c2ccccc2)n1N (optimized conformer: 81.54821531420946 kcal/mol)

>  <smiles>  (21) 
Cc1ccccc1NC(=O)CSc1nnc(-c2ccccc2)n1N

>  <score_type>  (21) 
oracle

>  <origin>  (21) 
adg

>  <m_score__min__energy>  (21) 
-10.24

>  <m_primary>  (21) 
energy

$$$$
21:0
     RDKit          3D

 36 39  0  0  0  0  0  0  0  0999 V2000
   57.8400   26.3850   44.4360 C   0  0  0  0  0  0  0  0  0  0  0  0
   57.0070   26.6170   46.0360 S   0  0  0  0  0  0  0  0  0  0  0  0
   58.1390   27.9040   46.5660 C   0  0  0  0  0  0  0  0  0  0  0  0
   59.4760   27.6280   47.5570 S   0  0  0  0  0  0  0  0  0  0  0  0
   59.9790   29.2270   47.5330 C   0  0  0  0  0  0  0  0  0  0  0  0
   61.0870   29.7200   48.1350 N   0  0  0  0  0  0  0  0  0  0  0  0
   61.4070   31.0410   48.0170 C   0  0  0  0  0  0  0  0  0  0  0  0
   62.6340   31.5440   48.6840 C   0  0  0  0  0  0  0  0  0  0  0  0
   63.3530   32.6370   48.1620 C   0  0  0  0  0  0  0  0  0  0  0  0
   64.4950   33.0910   48.8230 C   0  0  0  0  0  0  0  0  0  0  0  0
   64.9130   32.4660   49.9960 C   0  0  0  0  0  0  0  0  0  0  0  0
   64.1760   31.3930   50.4970 C   0  0  0  0  0  0  0  0  0  0  0  0
   63.0630   30.9600   49.8450 N   0  0  0  0  0  0  0  0  0  0  0  0
   60.5730   31.8910   47.2530 C   0  0  0  0  0  0  0  0  0  0  0  0
   59.4120   31.3870   46.6370 C   0  0  0  0  0  0  0  0  0  0  0  0
   58.5310   32.3220   45.9240 C   0  0  0  0  0  0  0  0  0  0  0  0
   58.5020   32.5170   44.5500 C   0  0  0  0  0  0  0  0  0  0  0  0
   57.6450   33.5540   44.1610 C   0  0  0  0  0  0  0  0  0  0  0  0
   57.0200   34.1900   45.2260 C   0  0  0  0  0  0  0  0  0  0  0  0
   57.5370   33.4670   46.6540 S   0  0  0  0  0  0  0  0  0  0  0  0
   59.1260   30.0120   46.7720 C   0  0  0  0  0  0  0  0  0  0  0  0
   58.0790   29.2510   46.2010 C   0  0  0  0  0  0  0  0  0  0  0  0
   57.0910   29.7500   45.2770 C   0  0  0  0  0  0  0  0  0  0  0  0
   56.2990   30.1580   44.5390 N   0  0  0  0  0  0  0  0  0  0  0  0
   58.8869   26.0934   44.6065 H   0  0  0  0  0  0  0  0  0  0  0  0
   57.3275   25.5954   43.8669 H   0  0  0  0  0  0  0  0  0  0  0  0
   57.8095   27.3258   43.8669 H   0  0  0  0  0  0  0  0  0  0  0  0
   63.0161   33.1300   47.2382 H   0  0  0  0  0  0  0  0  0  0  0  0
   65.0643   33.9409   48.4186 H   0  0  0  0  0  0  0  0  0  0  0  0
   65.8143   32.8149   50.5212 H   0  0  0  0  0  0  0  0  0  0  0  0
   64.4961   30.8944   51.4238 H   0  0  0  0  0  0  0  0  0  0  0  0
   62.5420   30.1490   50.2490 H   0  0  0  0  0  0  0  0  0  0  0  0
   60.8338   32.9536   47.1395 H   0  0  0  0  0  0  0  0  0  0  0  0
   59.0915   31.9186   43.8398 H   0  0  0  0  0  0  0  0  0  0  0  0
   57.4821   33.8381   43.1109 H   0  0  0  0  0  0  0  0  0  0  0  0
   56.3078   35.0248   45.1487 H   0  0  0  0  0  0  0  0  0  0  0  0
  1  2  1  0
  2  3  1  0
  3  4  1  0
  4  5  1  0
  5  6  2  0
  6  7  1  0
  7  8  1  0
  8  9  2  0
  9 10  1  0
 10 11  2  0
 11 12  1  0
 12 13  2  0
  7 14  2  0
 14 15  1  0
 15 16  1  0
 16 17  2  0
 17 18  1  0
 18 19  2  0
 19 20  1  0
 15 21  2  0
 21 22  1  0
 22 23  1  0
 23 24  3  0
 22  3  2  0
 21  5  1  0
 13  8  1  0
 20 16  1  0
  1 25  1  0
  1 26  1  0
  1 27  1  0
  9 28  1  0
 10 29  1  0
 11 30  1  0
 12 31  1  0
 13 32  1  0
 14 33  1  0
 17 34  1  0
 18 35  1  0
 19 36  1  0
M  CHG  1  13   1
M  END
>  <UniqueID>  (22) 
20

>  <SMILES>  (22) 
CSc1sc2nc(-c3cccc[nH+]3)cc(-c3cccs3)c2c1C#N

>  <Energy>  (22) 
107.97579729586192

>  <Genealogy>  (22) 
CSc1sc2nc(-c3cccc[nH+]3)cc(-c3cccs3)c2c1C#N (protonated)
CSc1sc2nc(-c3cccc[nH+]3)cc(-c3cccs3)c2c1C#N (3D coordinates assigned)
CSc1sc2nc(-c3cccc[nH+]3)cc(-c3cccs3)c2c1C#N (optimized conformer: 107.97579729586192 kcal/mol)

>  <smiles>  (22) 
CSc1sc2nc(-c3ccccn3)cc(-c3cccs3)c2c1C#N

>  <score_type>  (22) 
oracle

>  <origin>  (22) 
adg

>  <m_score__min__energy>  (22) 
-6.5599999999999996

>  <m_primary>  (22) 
energy

$$$$
22:0
     RDKit          3D

 50 52  0  0  0  0  0  0  0  0999 V2000
   58.5930   22.4390   44.5520 C   0  0  0  0  0  0  0  0  0  0  0  0
   57.1980   22.3930   44.0970 N   0  0  0  0  0  0  0  0  0  0  0  0
   57.0140   21.4590   42.9780 C   0  0  0  0  0  0  0  0  0  0  0  0
   56.6020   23.7260   43.8540 C   0  0  0  0  0  0  0  0  0  0  0  0
   55.6730   24.2790   44.9710 C   0  0  0  0  0  0  0  0  0  0  0  0
   56.1440   25.5290   45.6260 N   0  0  0  0  0  0  0  0  0  0  0  0
   56.4590   25.2700   47.0480 C   0  0  0  0  0  0  0  0  0  0  0  0
   57.3500   26.0010   44.8960 C   0  0  0  0  0  0  0  0  0  0  0  0
   58.1920   27.0540   45.6390 C   0  0  0  0  0  0  0  0  0  0  0  0
   57.3670   28.1260   46.1950 N   0  0  0  0  0  0  0  0  0  0  0  0
   57.3210   29.4530   45.6480 C   0  0  0  0  0  0  0  0  0  0  0  0
   56.2070   29.8400   44.8730 C   0  0  0  0  0  0  0  0  0  0  0  0
   55.1470   28.9640   44.6660 O   0  0  0  0  0  0  0  0  0  0  0  0
   56.1340   31.1170   44.3230 C   0  0  0  0  0  0  0  0  0  0  0  0
   57.1400   32.0440   44.5680 C   0  0  0  0  0  0  0  0  0  0  0  0
   58.2300   31.7080   45.3710 C   0  0  0  0  0  0  0  0  0  0  0  0
   59.1870   32.6430   45.6020 N   0  0  0  0  0  0  0  0  0  0  0  0
   60.2840   32.3870   46.3540 C   0  0  0  0  0  0  0  0  0  0  0  0
   61.2460   33.3860   46.5410 C   0  0  0  0  0  0  0  0  0  0  0  0
   62.3960   33.1220   47.2850 C   0  0  0  0  0  0  0  0  0  0  0  0
   62.5890   31.8620   47.8510 C   0  0  0  0  0  0  0  0  0  0  0  0
   61.6290   30.8610   47.6820 C   0  0  0  0  0  0  0  0  0  0  0  0
   60.4670   31.1100   46.9280 C   0  0  0  0  0  0  0  0  0  0  0  0
   59.4920   30.1170   46.7130 C   0  0  0  0  0  0  0  0  0  0  0  0
   59.6700   28.9700   47.2030 O   0  0  0  0  0  0  0  0  0  0  0  0
   58.3410   30.4080   45.9310 C   0  0  0  0  0  0  0  0  0  0  0  0
   58.6202   22.4399   45.6517 H   0  0  0  0  0  0  0  0  0  0  0  0
   59.1317   21.5581   44.1726 H   0  0  0  0  0  0  0  0  0  0  0  0
   59.0725   23.3534   44.1726 H   0  0  0  0  0  0  0  0  0  0  0  0
   56.8154   20.4509   43.3707 H   0  0  0  0  0  0  0  0  0  0  0  0
   56.1632   21.7870   42.3627 H   0  0  0  0  0  0  0  0  0  0  0  0
   57.9256   21.4398   42.3627 H   0  0  0  0  0  0  0  0  0  0  0  0
   57.4261   24.4419   43.7185 H   0  0  0  0  0  0  0  0  0  0  0  0
   55.9577   23.6027   42.9710 H   0  0  0  0  0  0  0  0  0  0  0  0
   54.6872   24.4789   44.5257 H   0  0  0  0  0  0  0  0  0  0  0  0
   55.6522   23.5112   45.7584 H   0  0  0  0  0  0  0  0  0  0  0  0
   55.7670   25.8389   47.6864 H   0  0  0  0  0  0  0  0  0  0  0  0
   56.3517   24.1955   47.2575 H   0  0  0  0  0  0  0  0  0  0  0  0
   57.4925   25.5830   47.2575 H   0  0  0  0  0  0  0  0  0  0  0  0
   57.9914   25.1296   44.6980 H   0  0  0  0  0  0  0  0  0  0  0  0
   56.9829   26.4911   43.9822 H   0  0  0  0  0  0  0  0  0  0  0  0
   58.7329   26.5607   46.4600 H   0  0  0  0  0  0  0  0  0  0  0  0
   58.8881   27.5031   44.9153 H   0  0  0  0  0  0  0  0  0  0  0  0
   56.8140   27.9170   47.0610 H   0  0  0  0  0  0  0  0  0  0  0  0
   55.2765   31.3933   43.6919 H   0  0  0  0  0  0  0  0  0  0  0  0
   57.0763   33.0492   44.1258 H   0  0  0  0  0  0  0  0  0  0  0  0
   61.0948   34.3823   46.1000 H   0  0  0  0  0  0  0  0  0  0  0  0
   63.1518   33.9088   47.4255 H   0  0  0  0  0  0  0  0  0  0  0  0
   63.4998   31.6557   48.4322 H   0  0  0  0  0  0  0  0  0  0  0  0
   61.7822   29.8730   48.1407 H   0  0  0  0  0  0  0  0  0  0  0  0
  1  2  1  0
  2  3  1  0
  2  4  1  0
  4  5  1  0
  5  6  1  0
  6  7  1  0
  6  8  1  0
  8  9  1  0
  9 10  1  0
 10 11  1  0
 11 12  2  0
 12 13  1  0
 12 14  1  0
 14 15  2  0
 15 16  1  0
 16 17  1  0
 17 18  1  0
 18 19  2  0
 19 20  1  0
 20 21  2  0
 21 22  1  0
 22 23  2  0
 23 24  1  0
 24 25  2  0
 24 26  1  0
 26 11  1  0
 26 16  2  0
 23 18  1  0
  1 27  1  0
  1 28  1  0
  1 29  1  0
  3 30  1  0
  3 31  1  0
  3 32  1  0
  4 33  1  0
  4 34  1  0
  5 35  1  0
  5 36  1  0
  7 37  1  0
  7 38  1  0
  7 39  1  0
  8 40  1  0
  8 41  1  0
  9 42  1  0
  9 43  1  0
 10 44  1  0
 14 45  1  0
 15 46  1  0
 19 47  1  0
 20 48  1  0
 21 49  1  0
 22 50  1  0
M  CHG  2  13  -1  17  -1
M  END
>  <UniqueID>  (23) 
21

>  <SMILES>  (23) 
CN(C)CCN(C)CCNc1c([O-])ccc2[n-]c3ccccc3c(=O)c12

>  <Energy>  (23) 
70.51746665007693

>  <Genealogy>  (23) 
CN(C)CCN(C)CCNc1c([O-])ccc2[n-]c3ccccc3c(=O)c12 (protonated)
CN(C)CCN(C)CCNc1c([O-])ccc2[n-]c3ccccc3c(=O)c12 (3D coordinates assigned)
CN(C)CCN(C)CCNc1c([O-])ccc2[n-]c3ccccc3c(=O)c12 (optimized conformer: 70.51746665007693 kcal/mol)

>  <smiles>  (23) 
CN(C)CCN(C)CCNc1c(O)ccc2[nH]c3ccccc3c(=O)c12

>  <score_type>  (23) 
oracle

>  <origin>  (23) 
adg

>  <m_score__min__energy>  (23) 
-10.289999999999999

>  <m_primary>  (23) 
energy

$$$$
23:0
     RDKit          3D

 55 58  0  0  0  0  0  0  0  0999 V2000
   66.5770   28.4870   51.6590 C   0  0  0  0  0  0  0  0  0  0  0  0
   65.5830   29.4840   51.8680 O   0  0  0  0  0  0  0  0  0  0  0  0
   65.5010   30.6860   51.1490 C   0  0  0  0  0  0  0  0  0  0  0  0
   66.6860   31.3720   50.8620 C   0  0  0  0  0  0  0  0  0  0  0  0
   66.6570   32.5740   50.1530 C   0  0  0  0  0  0  0  0  0  0  0  0
   65.4400   33.1030   49.7190 C   0  0  0  0  0  0  0  0  0  0  0  0
   64.2390   32.4280   49.9900 C   0  0  0  0  0  0  0  0  0  0  0  0
   62.9820   32.9770   49.5470 N   0  0  0  0  0  0  0  0  0  0  0  0
   62.1320   33.5010   50.4800 C   0  0  0  0  0  0  0  0  0  0  0  0
   60.9010   34.0340   50.1050 C   0  0  0  0  0  0  0  0  0  0  0  0
   60.5290   34.0370   48.7590 C   0  0  0  0  0  0  0  0  0  0  0  0
   59.2930   34.5660   48.3640 C   0  0  0  0  0  0  0  0  0  0  0  0
   58.9270   34.5700   47.0160 C   0  0  0  0  0  0  0  0  0  0  0  0
   59.7920   34.0460   46.0390 C   0  0  0  0  0  0  0  0  0  0  0  0
   59.4440   34.0440   44.6420 N   0  0  0  0  0  0  0  0  0  0  0  0
   58.2410   33.3930   44.1160 C   0  0  0  0  0  0  0  0  0  0  0  0
   57.4560   32.6510   45.2210 C   0  0  0  0  0  0  0  0  0  0  0  0
   57.0720   31.2680   44.8610 N   0  0  0  0  0  0  0  0  0  0  0  0
   56.9820   31.0360   43.4060 C   0  0  0  0  0  0  0  0  0  0  0  0
   56.4890   29.6130   43.1310 C   0  0  0  0  0  0  0  0  0  0  0  0
   57.4120   28.5490   43.7610 C   0  0  0  0  0  0  0  0  0  0  0  0
   58.4330   29.1390   44.7470 C   0  0  0  0  0  0  0  0  0  0  0  0
   57.7950   30.2220   45.6330 C   0  0  0  0  0  0  0  0  0  0  0  0
   61.0320   33.5170   46.4370 C   0  0  0  0  0  0  0  0  0  0  0  0
   61.4080   33.5030   47.7940 C   0  0  0  0  0  0  0  0  0  0  0  0
   62.6470   32.9740   48.2150 C   0  0  0  0  0  0  0  0  0  0  0  0
   63.4540   32.5120   47.3600 O   0  0  0  0  0  0  0  0  0  0  0  0
   64.2740   31.2210   50.7100 C   0  0  0  0  0  0  0  0  0  0  0  0
   66.9406   28.1223   52.6310 H   0  0  0  0  0  0  0  0  0  0  0  0
   66.1433   27.6499   51.0922 H   0  0  0  0  0  0  0  0  0  0  0  0
   67.4154   28.9182   51.0922 H   0  0  0  0  0  0  0  0  0  0  0  0
   67.6492   30.9605   51.1981 H   0  0  0  0  0  0  0  0  0  0  0  0
   67.5951   33.1057   49.9357 H   0  0  0  0  0  0  0  0  0  0  0  0
   65.4220   34.0519   49.1628 H   0  0  0  0  0  0  0  0  0  0  0  0
   62.4237   33.5019   51.5406 H   0  0  0  0  0  0  0  0  0  0  0  0
   60.2247   34.4508   50.8659 H   0  0  0  0  0  0  0  0  0  0  0  0
   58.6081   34.9799   49.1187 H   0  0  0  0  0  0  0  0  0  0  0  0
   57.9540   34.9865   46.7162 H   0  0  0  0  0  0  0  0  0  0  0  0
   60.1000   34.5140   43.9760 H   0  0  0  0  0  0  0  0  0  0  0  0
   57.5890   34.1583   43.6697 H   0  0  0  0  0  0  0  0  0  0  0  0
   58.5551   32.6524   43.3658 H   0  0  0  0  0  0  0  0  0  0  0  0
   58.0830   32.6120   46.1240 H   0  0  0  0  0  0  0  0  0  0  0  0
   56.5218   33.2101   45.3779 H   0  0  0  0  0  0  0  0  0  0  0  0
   56.2776   31.7569   42.9653 H   0  0  0  0  0  0  0  0  0  0  0  0
   57.9782   31.1654   42.9579 H   0  0  0  0  0  0  0  0  0  0  0  0
   55.4786   29.5000   43.5509 H   0  0  0  0  0  0  0  0  0  0  0  0
   56.4871   29.4589   42.0419 H   0  0  0  0  0  0  0  0  0  0  0  0
   56.7884   27.8195   44.2985 H   0  0  0  0  0  0  0  0  0  0  0  0
   57.9802   28.0836   42.9421 H   0  0  0  0  0  0  0  0  0  0  0  0
   58.8184   28.3328   45.3885 H   0  0  0  0  0  0  0  0  0  0  0  0
   59.2472   29.5999   44.1684 H   0  0  0  0  0  0  0  0  0  0  0  0
   57.0818   29.7377   46.3162 H   0  0  0  0  0  0  0  0  0  0  0  0
   58.6126   30.7235   46.1716 H   0  0  0  0  0  0  0  0  0  0  0  0
   61.7170   33.1090   45.6792 H   0  0  0  0  0  0  0  0  0  0  0  0
   63.3364   30.6905   50.9322 H   0  0  0  0  0  0  0  0  0  0  0  0
  1  2  1  0
  2  3  1  0
  3  4  2  0
  4  5  1  0
  5  6  2  0
  6  7  1  0
  7  8  1  0
  8  9  1  0
  9 10  2  0
 10 11  1  0
 11 12  2  0
 12 13  1  0
 13 14  2  0
 14 15  1  0
 15 16  1  0
 16 17  1  0
 17 18  1  0
 18 19  1  0
 19 20  1  0
 20 21  1  0
 21 22  1  0
 22 23  1  0
 14 24  1  0
 24 25  2  0
 25 26  1  0
 26 27  2  0
  7 28  2  0
 28  3  1  0
 26  8  1  0
 25 11  1  0
 23 18  1  0
  1 29  1  0
  1 30  1  0
  1 31  1  0
  4 32  1  0
  5 33  1  0
  6 34  1  0
  9 35  1  0
 10 36  1  0
 12 37  1  0
 13 38  1  0
 15 39  1  0
 16 40  1  0
 16 41  1  0
 17 42  1  0
 17 43  1  0
 19 44  1  0
 19 45  1  0
 20 46  1  0
 20 47  1  0
 21 48  1  0
 21 49  1  0
 22 50  1  0
 22 51  1  0
 23 52  1  0
 23 53  1  0
 24 54  1  0
 28 55  1  0
M  END
>  <UniqueID>  (24) 
22

>  <SMILES>  (24) 
COc1cccc(-n2ccc3ccc(NCCN4CCCCC4)cc3c2=O)c1

>  <Energy>  (24) 
79.47629866471911

>  <Genealogy>  (24) 
COc1cccc(-n2ccc3ccc(NCCN4CCCCC4)cc3c2=O)c1 (3D coordinates assigned)
COc1cccc(-n2ccc3ccc(NCCN4CCCCC4)cc3c2=O)c1 (nonaromatic ring conformer: 79.47629866471911 kcal/mol)

>  <smiles>  (24) 
COc1cccc(-n2ccc3ccc(NCCN4CCCCC4)cc3c2=O)c1

>  <score_type>  (24) 
oracle

>  <origin>  (24) 
adg

>  <m_score__min__energy>  (24) 
-8.7899999999999991

>  <m_primary>  (24) 
energy

$$$$
24:0
     RDKit          3D

 37 37  0  0  0  0  0  0  0  0999 V2000
   64.0700   33.4310   48.6550 C   0  0  0  0  0  0  0  0  0  0  0  0
   63.6570   32.8970   47.3440 N   0  0  0  0  0  0  0  0  0  0  0  0
   62.9880   31.5970   47.5290 C   0  0  0  0  0  0  0  0  0  0  0  0
   62.7480   33.8280   46.6290 C   0  0  0  0  0  0  0  0  0  0  0  0
   61.2650   33.7210   47.0490 C   0  0  0  0  0  0  0  0  0  0  0  0
   60.2330   34.1840   46.0010 C   0  0  0  0  0  0  0  0  0  0  0  0
   58.7610   33.9680   46.4150 C   0  0  0  0  0  0  0  0  0  0  0  0
   57.8830   33.3780   45.3060 C   0  0  0  0  0  0  0  0  0  0  0  0
   57.4640   32.0620   45.6560 O   0  0  0  0  0  0  0  0  0  0  0  0
   58.2650   30.9150   45.5410 C   0  0  0  0  0  0  0  0  0  0  0  0
   59.4530   30.7530   46.2820 C   0  0  0  0  0  0  0  0  0  0  0  0
   60.2250   29.5970   46.1330 C   0  0  0  0  0  0  0  0  0  0  0  0
   59.8210   28.5940   45.2480 C   0  0  0  0  0  0  0  0  0  0  0  0
   58.6440   28.7450   44.5110 C   0  0  0  0  0  0  0  0  0  0  0  0
   57.8660   29.9010   44.6560 C   0  0  0  0  0  0  0  0  0  0  0  0
   56.2660   30.0860   43.6230 Br  0  0  0  0  0  0  0  0  0  0  0  0
   63.6086   32.8344   49.4558 H   0  0  0  0  0  0  0  0  0  0  0  0
   65.1652   33.3790   48.7436 H   0  0  0  0  0  0  0  0  0  0  0  0
   63.7443   34.4779   48.7436 H   0  0  0  0  0  0  0  0  0  0  0  0
   64.5150   32.7180   46.7730 H   0  0  0  0  0  0  0  0  0  0  0  0
   62.8811   31.3893   48.6039 H   0  0  0  0  0  0  0  0  0  0  0  0
   61.9932   31.6266   47.0606 H   0  0  0  0  0  0  0  0  0  0  0  0
   63.5904   30.8047   47.0606 H   0  0  0  0  0  0  0  0  0  0  0  0
   63.0870   34.8564   46.8228 H   0  0  0  0  0  0  0  0  0  0  0  0
   62.7931   33.5548   45.5644 H   0  0  0  0  0  0  0  0  0  0  0  0
   61.0566   32.6669   47.2843 H   0  0  0  0  0  0  0  0  0  0  0  0
   61.1478   34.4034   47.9038 H   0  0  0  0  0  0  0  0  0  0  0  0
   60.3852   35.2583   45.8199 H   0  0  0  0  0  0  0  0  0  0  0  0
   60.3998   33.5695   45.1040 H   0  0  0  0  0  0  0  0  0  0  0  0
   58.7403   33.2820   47.2747 H   0  0  0  0  0  0  0  0  0  0  0  0
   58.3486   34.9591   46.6548 H   0  0  0  0  0  0  0  0  0  0  0  0
   56.9977   34.0157   45.1659 H   0  0  0  0  0  0  0  0  0  0  0  0
   58.4654   33.3326   44.3739 H   0  0  0  0  0  0  0  0  0  0  0  0
   59.7741   31.5396   46.9806 H   0  0  0  0  0  0  0  0  0  0  0  0
   61.1517   29.4769   46.7133 H   0  0  0  0  0  0  0  0  0  0  0  0
   60.4299   27.6853   45.1316 H   0  0  0  0  0  0  0  0  0  0  0  0
   58.3272   27.9542   43.8150 H   0  0  0  0  0  0  0  0  0  0  0  0
  1  2  1  0
  2  3  1  0
  2  4  1  0
  4  5  1  0
  5  6  1  0
  6  7  1  0
  7  8  1  0
  8  9  1  0
  9 10  1  0
 10 11  2  0
 11 12  1  0
 12 13  2  0
 13 14  1  0
 14 15  2  0
 15 16  1  0
 15 10  1  0
  1 17  1  0
  1 18  1  0
  1 19  1  0
  2 20  1  0
  3 21  1  0
  3 22  1  0
  3 23  1  0
  4 24  1  0
  4 25  1  0
  5 26  1  0
  5 27  1  0
  6 28  1  0
  6 29  1  0
  7 30  1  0
  7 31  1  0
  8 32  1  0
  8 33  1  0
 11 34  1  0
 12 35  1  0
 13 36  1  0
 14 37  1  0
M  CHG  1   2   1
M  END
>  <UniqueID>  (25) 
23

>  <SMILES>  (25) 
C[NH+](C)CCCCCOc1ccccc1Br

>  <Energy>  (25) 
31.403887305723526

>  <Genealogy>  (25) 
C[NH+](C)CCCCCOc1ccccc1Br (protonated)
C[NH+](C)CCCCCOc1ccccc1Br (3D coordinates assigned)
C[NH+](C)CCCCCOc1ccccc1Br (optimized conformer: 31.403887305723526 kcal/mol)

>  <smiles>  (25) 
CN(C)CCCCCOc1ccccc1Br

>  <score_type>  (25) 
oracle

>  <origin>  (25) 
adg

>  <m_score__min__energy>  (25) 
-4.6399999999999997

>  <m_primary>  (25) 
energy

$$$$
25:0
     RDKit          3D

 43 44  0  0  0  0  0  0  0  0999 V2000
   57.7000   31.5460   43.3310 C   0  0  0  0  0  0  0  0  0  0  0  0
   56.6420   30.9150   44.2360 C   0  0  0  0  0  0  0  0  0  0  0  0
   56.7960   29.3770   44.3480 C   0  0  0  0  0  0  0  0  0  0  0  0
   57.9080   28.9310   45.2200 N   0  0  0  0  0  0  0  0  0  0  0  0
   59.0890   28.4780   44.4550 C   0  0  0  0  0  0  0  0  0  0  0  0
   60.3630   29.1440   44.9910 C   0  0  0  0  0  0  0  0  0  0  0  0
   60.5920   28.8730   46.4880 C   0  0  0  0  0  0  0  0  0  0  0  0
   59.3950   29.0600   47.3290 N   0  0  0  0  0  0  0  0  0  0  0  0
   59.1650   30.3530   47.9220 C   0  0  0  0  0  0  0  0  0  0  0  0
   58.5210   30.4390   49.0030 O   0  0  0  0  0  0  0  0  0  0  0  0
   59.7090   31.5850   47.3030 C   0  0  0  0  0  0  0  0  0  0  0  0
   58.8780   32.3370   46.4600 C   0  0  0  0  0  0  0  0  0  0  0  0
   59.3520   33.4890   45.8410 C   0  0  0  0  0  0  0  0  0  0  0  0
   60.6660   33.9070   46.0480 C   0  0  0  0  0  0  0  0  0  0  0  0
   61.5280   33.1760   46.8860 C   0  0  0  0  0  0  0  0  0  0  0  0
   62.9500   33.6490   47.1100 C   0  0  0  0  0  0  0  0  0  0  0  0
   63.3250   34.6130   46.1890 F   0  0  0  0  0  0  0  0  0  0  0  0
   63.8220   32.5820   46.9930 F   0  0  0  0  0  0  0  0  0  0  0  0
   63.0640   34.1950   48.3760 F   0  0  0  0  0  0  0  0  0  0  0  0
   61.0430   32.0050   47.5220 C   0  0  0  0  0  0  0  0  0  0  0  0
   62.0810   31.1060   48.6390 Cl  0  0  0  0  0  0  0  0  0  0  0  0
   58.3730   28.0130   47.4770 C   0  0  0  0  0  0  0  0  0  0  0  0
   57.4720   27.9590   46.2400 C   0  0  0  0  0  0  0  0  0  0  0  0
   58.4811   32.0119   43.9497 H   0  0  0  0  0  0  0  0  0  0  0  0
   58.1502   30.7687   42.6960 H   0  0  0  0  0  0  0  0  0  0  0  0
   57.2301   32.3115   42.6960 H   0  0  0  0  0  0  0  0  0  0  0  0
   56.7317   31.3524   45.2413 H   0  0  0  0  0  0  0  0  0  0  0  0
   55.6570   31.1203   43.7914 H   0  0  0  0  0  0  0  0  0  0  0  0
   55.8582   28.9666   44.7506 H   0  0  0  0  0  0  0  0  0  0  0  0
   57.0270   29.0120   43.3364 H   0  0  0  0  0  0  0  0  0  0  0  0
   59.1842   27.3861   44.5487 H   0  0  0  0  0  0  0  0  0  0  0  0
   58.9581   28.7575   43.3992 H   0  0  0  0  0  0  0  0  0  0  0  0
   61.2253   28.7576   44.4278 H   0  0  0  0  0  0  0  0  0  0  0  0
   60.2473   30.2306   44.8647 H   0  0  0  0  0  0  0  0  0  0  0  0
   60.9338   27.8336   46.6015 H   0  0  0  0  0  0  0  0  0  0  0  0
   61.3355   29.6076   46.8308 H   0  0  0  0  0  0  0  0  0  0  0  0
   57.8413   32.0127   46.2866 H   0  0  0  0  0  0  0  0  0  0  0  0
   58.6880   34.0722   45.1860 H   0  0  0  0  0  0  0  0  0  0  0  0
   61.0324   34.8174   45.5511 H   0  0  0  0  0  0  0  0  0  0  0  0
   58.8689   27.0396   47.6055 H   0  0  0  0  0  0  0  0  0  0  0  0
   57.7538   28.2443   48.3563 H   0  0  0  0  0  0  0  0  0  0  0  0
   57.5115   26.9468   45.8112 H   0  0  0  0  0  0  0  0  0  0  0  0
   56.4457   28.2110   46.5452 H   0  0  0  0  0  0  0  0  0  0  0  0
  1  2  1  0
  2  3  1  0
  3  4  1  0
  4  5  1  0
  5  6  1  0
  6  7  1  0
  7  8  1  0
  8  9  1  0
  9 10  2  0
  9 11  1  0
 11 12  2  0
 12 13  1  0
 13 14  2  0
 14 15  1  0
 15 16  1  0
 16 17  1  0
 16 18  1  0
 16 19  1  0
 15 20  2  0
 20 21  1  0
  8 22  1  0
 22 23  1  0
 23  4  1  0
 20 11  1  0
  1 24  1  0
  1 25  1  0
  1 26  1  0
  2 27  1  0
  2 28  1  0
  3 29  1  0
  3 30  1  0
  5 31  1  0
  5 32  1  0
  6 33  1  0
  6 34  1  0
  7 35  1  0
  7 36  1  0
 12 37  1  0
 13 38  1  0
 14 39  1  0
 22 40  1  0
 22 41  1  0
 23 42  1  0
 23 43  1  0
M  END
>  <UniqueID>  (26) 
24

>  <SMILES>  (26) 
CCCN1CCCN(C(=O)c2cccc(C(F)(F)F)c2Cl)CC1

>  <Energy>  (26) 
57.732513533045356

>  <Genealogy>  (26) 
CCCN1CCCN(C(=O)c2cccc(C(F)(F)F)c2Cl)CC1 (3D coordinates assigned)
CCCN1CCCN(C(=O)c2cccc(C(F)(F)F)c2Cl)CC1 (nonaromatic ring conformer: 57.732513533045356 kcal/mol)

>  <smiles>  (26) 
CCCN1CCCN(C(=O)c2cccc(C(F)(F)F)c2Cl)CC1

>  <score_type>  (26) 
oracle

>  <origin>  (26) 
adg

>  <m_score__min__energy>  (26) 
-4.6600000000000001

>  <m_primary>  (26) 
energy

$$$$
26:0
     RDKit          3D

 53 56  0  0  0  0  0  0  0  0999 V2000
   63.3000   33.8370   46.5990 C   0  0  0  0  0  0  0  0  0  0  0  0
   63.4880   32.8590   47.4860 C   0  0  0  0  0  0  0  0  0  0  0  0
   62.6640   31.6030   47.4410 C   0  0  0  0  0  0  0  0  0  0  0  0
   61.3610   31.8360   47.9730 O   0  0  0  0  0  0  0  0  0  0  0  0
   61.0820   32.4040   49.2280 C   0  0  0  0  0  0  0  0  0  0  0  0
   61.8510   32.1090   50.3720 C   0  0  0  0  0  0  0  0  0  0  0  0
   61.5240   32.6730   51.6080 C   0  0  0  0  0  0  0  0  0  0  0  0
   60.4310   33.5330   51.7190 C   0  0  0  0  0  0  0  0  0  0  0  0
   59.6650   33.8360   50.5920 C   0  0  0  0  0  0  0  0  0  0  0  0
   59.9870   33.2820   49.3440 C   0  0  0  0  0  0  0  0  0  0  0  0
   59.2050   33.6320   48.1920 N   0  0  0  0  0  0  0  0  0  0  0  0
   58.0090   32.8410   47.8670 C   0  0  0  0  0  0  0  0  0  0  0  0
   57.4610   33.2000   46.4810 C   0  0  0  0  0  0  0  0  0  0  0  0
   58.5650   33.3170   45.5180 N   0  0  0  0  0  0  0  0  0  0  0  0
   58.4440   32.7690   44.1930 C   0  0  0  0  0  0  0  0  0  0  0  0
   58.8410   33.4450   43.2060 O   0  0  0  0  0  0  0  0  0  0  0  0
   57.9090   31.4060   43.9790 C   0  0  0  0  0  0  0  0  0  0  0  0
   57.0030   31.1220   42.9560 C   0  0  0  0  0  0  0  0  0  0  0  0
   56.6410   29.4800   42.9860 S   0  0  0  0  0  0  0  0  0  0  0  0
   57.6330   29.1080   44.2860 C   0  0  0  0  0  0  0  0  0  0  0  0
   58.2370   30.2710   44.7550 C   0  0  0  0  0  0  0  0  0  0  0  0
   59.2560   30.2320   45.8690 C   0  0  0  0  0  0  0  0  0  0  0  0
   59.1760   28.9240   46.6790 C   0  0  0  0  0  0  0  0  0  0  0  0
   59.0640   27.6960   45.7600 C   0  0  0  0  0  0  0  0  0  0  0  0
   57.7830   27.7570   44.9150 C   0  0  0  0  0  0  0  0  0  0  0  0
   59.7440   34.1330   45.8460 C   0  0  0  0  0  0  0  0  0  0  0  0
   59.6730   34.6800   47.2770 C   0  0  0  0  0  0  0  0  0  0  0  0
   63.9129   34.7491   46.6478 H   0  0  0  0  0  0  0  0  0  0  0  0
   62.5320   33.7316   45.8186 H   0  0  0  0  0  0  0  0  0  0  0  0
   64.2584   32.9735   48.2628 H   0  0  0  0  0  0  0  0  0  0  0  0
   62.5733   31.2677   46.3973 H   0  0  0  0  0  0  0  0  0  0  0  0
   63.1612   30.8317   48.0476 H   0  0  0  0  0  0  0  0  0  0  0  0
   62.7134   31.4310   50.2913 H   0  0  0  0  0  0  0  0  0  0  0  0
   62.1298   32.4383   52.4956 H   0  0  0  0  0  0  0  0  0  0  0  0
   60.1730   33.9720   52.6940 H   0  0  0  0  0  0  0  0  0  0  0  0
   58.8033   34.5136   50.6831 H   0  0  0  0  0  0  0  0  0  0  0  0
   58.2712   31.7728   47.8826 H   0  0  0  0  0  0  0  0  0  0  0  0
   57.2331   33.0633   48.6144 H   0  0  0  0  0  0  0  0  0  0  0  0
   56.7691   32.4124   46.1478 H   0  0  0  0  0  0  0  0  0  0  0  0
   56.9309   34.1620   46.5407 H   0  0  0  0  0  0  0  0  0  0  0  0
   56.5921   31.8539   42.2450 H   0  0  0  0  0  0  0  0  0  0  0  0
   60.2622   30.3187   45.4331 H   0  0  0  0  0  0  0  0  0  0  0  0
   59.0448   31.0680   46.5520 H   0  0  0  0  0  0  0  0  0  0  0  0
   60.0832   28.8285   47.2937 H   0  0  0  0  0  0  0  0  0  0  0  0
   58.2764   28.9646   47.3108 H   0  0  0  0  0  0  0  0  0  0  0  0
   59.9360   27.6671   45.0901 H   0  0  0  0  0  0  0  0  0  0  0  0
   59.0290   26.7918   46.3854 H   0  0  0  0  0  0  0  0  0  0  0  0
   57.8340   26.9935   44.1248 H   0  0  0  0  0  0  0  0  0  0  0  0
   56.9173   27.5704   45.5675 H   0  0  0  0  0  0  0  0  0  0  0  0
   60.6466   33.5123   45.7457 H   0  0  0  0  0  0  0  0  0  0  0  0
   59.7746   34.9867   45.1530 H   0  0  0  0  0  0  0  0  0  0  0  0
   60.6730   35.0159   47.5887 H   0  0  0  0  0  0  0  0  0  0  0  0
   58.9698   35.5254   47.3061 H   0  0  0  0  0  0  0  0  0  0  0  0
  1  2  2  0
  2  3  1  0
  3  4  1  0
  4  5  1  0
  5  6  2  0
  6  7  1  0
  7  8  2  0
  8  9  1  0
  9 10  2  0
 10 11  1  0
 11 12  1  0
 12 13  1  0
 13 14  1  0
 14 15  1  0
 15 16  2  0
 15 17  1  0
 17 18  2  0
 18 19  1  0
 19 20  1  0
 20 21  2  0
 21 22  1  0
 22 23  1  0
 23 24  1  0
 24 25  1  0
 14 26  1  0
 26 27  1  0
 10  5  1  0
 27 11  1  0
 21 17  1  0
 25 20  1  0
  1 28  1  0
  1 29  1  0
  2 30  1  0
  3 31  1  0
  3 32  1  0
  6 33  1  0
  7 34  1  0
  8 35  1  0
  9 36  1  0
 12 37  1  0
 12 38  1  0
 13 39  1  0
 13 40  1  0
 18 41  1  0
 22 42  1  0
 22 43  1  0
 23 44  1  0
 23 45  1  0
 24 46  1  0
 24 47  1  0
 25 48  1  0
 25 49  1  0
 26 50  1  0
 26 51  1  0
 27 52  1  0
 27 53  1  0
M  END
>  <UniqueID>  (27) 
25

>  <SMILES>  (27) 
C=CCOc1ccccc1N1CCN(C(=O)c2csc3c2CCCC3)CC1

>  <Energy>  (27) 
87.64473974393529

>  <Genealogy>  (27) 
C=CCOc1ccccc1N1CCN(C(=O)c2csc3c2CCCC3)CC1 (3D coordinates assigned)
C=CCOc1ccccc1N1CCN(C(=O)c2csc3c2CCCC3)CC1 (nonaromatic ring conformer: 87.64473974393529 kcal/mol)

>  <smiles>  (27) 
C=CCOc1ccccc1N1CCN(C(=O)c2csc3c2CCCC3)CC1

>  <score_type>  (27) 
oracle

>  <origin>  (27) 
adg

>  <m_score__min__energy>  (27) 
-8.5099999999999998

>  <m_primary>  (27) 
energy

$$$$
27:0
     RDKit          3D

 41 44  0  0  0  0  0  0  0  0999 V2000
   60.3530   31.3590   52.8120 C   0  0  0  0  0  0  0  0  0  0  0  0
   59.9770   31.4780   51.3650 C   0  0  0  0  0  0  0  0  0  0  0  0
   60.6850   30.7620   50.3890 C   0  0  0  0  0  0  0  0  0  0  0  0
   60.3110   30.8450   49.0450 C   0  0  0  0  0  0  0  0  0  0  0  0
   59.2070   31.6230   48.6590 C   0  0  0  0  0  0  0  0  0  0  0  0
   58.8470   31.7130   47.2270 C   0  0  0  0  0  0  0  0  0  0  0  0
   58.1600   30.7320   46.5900 N   0  0  0  0  0  0  0  0  0  0  0  0
   58.0040   31.2080   45.3390 C   0  0  0  0  0  0  0  0  0  0  0  0
   57.3440   30.5570   44.2950 C   0  0  0  0  0  0  0  0  0  0  0  0
   56.6360   28.9650   44.5080 Cl  0  0  0  0  0  0  0  0  0  0  0  0
   57.2570   31.2230   43.0620 C   0  0  0  0  0  0  0  0  0  0  0  0
   57.8180   32.5040   42.9060 C   0  0  0  0  0  0  0  0  0  0  0  0
   58.4680   33.1110   43.9900 C   0  0  0  0  0  0  0  0  0  0  0  0
   58.5390   32.4280   45.1630 N   0  0  0  0  0  0  0  0  0  0  0  0
   59.0820   32.7710   46.3460 C   0  0  0  0  0  0  0  0  0  0  0  0
   59.7050   34.1130   46.6450 C   0  0  0  0  0  0  0  0  0  0  0  0
   61.0690   33.9790   47.2790 C   0  0  0  0  0  0  0  0  0  0  0  0
   62.1860   33.5620   46.5280 C   0  0  0  0  0  0  0  0  0  0  0  0
   63.4340   33.4160   47.1400 C   0  0  0  0  0  0  0  0  0  0  0  0
   63.5800   33.6710   48.5060 C   0  0  0  0  0  0  0  0  0  0  0  0
   62.4760   34.0700   49.2640 C   0  0  0  0  0  0  0  0  0  0  0  0
   62.6170   34.3100   50.5910 F   0  0  0  0  0  0  0  0  0  0  0  0
   61.2250   34.2180   48.6560 C   0  0  0  0  0  0  0  0  0  0  0  0
   58.5040   32.3410   49.6380 C   0  0  0  0  0  0  0  0  0  0  0  0
   58.8770   32.2600   50.9820 C   0  0  0  0  0  0  0  0  0  0  0  0
   59.4910   31.6318   53.4385 H   0  0  0  0  0  0  0  0  0  0  0  0
   60.6509   30.3227   53.0294 H   0  0  0  0  0  0  0  0  0  0  0  0
   61.1929   32.0352   53.0294 H   0  0  0  0  0  0  0  0  0  0  0  0
   61.5381   30.1326   50.6824 H   0  0  0  0  0  0  0  0  0  0  0  0
   60.8855   30.2970   48.2837 H   0  0  0  0  0  0  0  0  0  0  0  0
   56.7480   30.7412   42.2142 H   0  0  0  0  0  0  0  0  0  0  0  0
   57.7471   33.0257   41.9402 H   0  0  0  0  0  0  0  0  0  0  0  0
   58.9091   34.1141   43.8936 H   0  0  0  0  0  0  0  0  0  0  0  0
   59.8049   34.6748   45.7046 H   0  0  0  0  0  0  0  0  0  0  0  0
   59.0513   34.6382   47.3570 H   0  0  0  0  0  0  0  0  0  0  0  0
   62.0751   33.3502   45.4543 H   0  0  0  0  0  0  0  0  0  0  0  0
   64.3033   33.0996   46.5449 H   0  0  0  0  0  0  0  0  0  0  0  0
   64.5639   33.5577   48.9846 H   0  0  0  0  0  0  0  0  0  0  0  0
   60.3573   34.5234   49.2591 H   0  0  0  0  0  0  0  0  0  0  0  0
   57.6524   32.9727   49.3452 H   0  0  0  0  0  0  0  0  0  0  0  0
   58.3057   32.8117   51.7431 H   0  0  0  0  0  0  0  0  0  0  0  0
  1  2  1  0
  2  3  2  0
  3  4  1  0
  4  5  2  0
  5  6  1  0
  6  7  1  0
  7  8  2  0
  8  9  1  0
  9 10  1  0
  9 11  2  0
 11 12  1  0
 12 13  2  0
 13 14  1  0
 14 15  1  0
 15 16  1  0
 16 17  1  0
 17 18  2  0
 18 19  1  0
 19 20  2  0
 20 21  1  0
 21 22  1  0
 21 23  2  0
  5 24  1  0
 24 25  2  0
 25  2  1  0
 15  6  2  0
 23 17  1  0
 14  8  1  0
  1 26  1  0
  1 27  1  0
  1 28  1  0
  3 29  1  0
  4 30  1  0
 11 31  1  0
 12 32  1  0
 13 33  1  0
 16 34  1  0
 16 35  1  0
 18 36  1  0
 19 37  1  0
 20 38  1  0
 23 39  1  0
 24 40  1  0
 25 41  1  0
M  END
>  <UniqueID>  (28) 
26

>  <SMILES>  (28) 
Cc1ccc(-c2nc3c(Cl)cccn3c2Cc2cccc(F)c2)cc1

>  <Energy>  (28) 
84.42759051159031

>  <Genealogy>  (28) 
Cc1ccc(-c2nc3c(Cl)cccn3c2Cc2cccc(F)c2)cc1 (3D coordinates assigned)
Cc1ccc(-c2nc3c(Cl)cccn3c2Cc2cccc(F)c2)cc1 (optimized conformer: 84.42759051159031 kcal/mol)

>  <smiles>  (28) 
Cc1ccc(-c2nc3c(Cl)cccn3c2Cc2cccc(F)c2)cc1

>  <score_type>  (28) 
oracle

>  <origin>  (28) 
adg

>  <m_score__min__energy>  (28) 
-7.5300000000000002

>  <m_primary>  (28) 
energy

$$$$
28:0
     RDKit          3D

 51 54  0  0  0  0  0  0  0  0999 V2000
   64.3510   33.0880   48.9430 C   0  0  0  0  0  0  0  0  0  0  0  0
   63.8990   33.5290   47.5570 C   0  0  0  0  0  0  0  0  0  0  0  0
   62.4810   33.2330   47.3670 N   0  0  0  0  0  0  0  0  0  0  0  0
   61.4080   34.1930   47.5640 C   0  0  0  0  0  0  0  0  0  0  0  0
   60.1060   33.4460   47.1560 C   0  0  1  0  0  0  0  0  0  0  0  0
   58.9080   33.8180   48.0270 C   0  0  0  0  0  0  0  0  0  0  0  0
   57.7210   33.5610   47.1210 C   0  0  0  0  0  0  0  0  0  0  0  0
   58.1630   33.8980   45.7630 N   0  0  0  0  0  0  0  0  0  0  0  0
   57.4620   33.1950   44.6660 C   0  0  0  0  0  0  0  0  0  0  0  0
   57.6110   31.6900   44.6910 C   0  0  0  0  0  0  0  0  0  0  0  0
   58.0570   31.0120   45.7790 N   0  0  0  0  0  0  0  0  0  0  0  0
   58.0760   29.7280   45.3920 C   0  0  0  0  0  0  0  0  0  0  0  0
   58.4780   28.6150   46.1270 C   0  0  0  0  0  0  0  0  0  0  0  0
   58.4470   27.3640   45.4850 C   0  0  0  0  0  0  0  0  0  0  0  0
   58.0280   27.2600   44.1390 C   0  0  0  0  0  0  0  0  0  0  0  0
   57.6340   28.4070   43.4230 C   0  0  0  0  0  0  0  0  0  0  0  0
   57.6640   29.6330   44.0940 C   0  0  0  0  0  0  0  0  0  0  0  0
   57.3630   30.8630   43.6320 N   0  0  0  0  0  0  0  0  0  0  0  0
   57.0290   31.2260   42.2500 C   0  0  0  0  0  0  0  0  0  0  0  0
   57.9940   32.2860   41.7330 C   0  0  0  0  0  0  0  0  0  0  0  0
   59.6320   33.8170   45.7320 C   0  0  0  0  0  0  0  0  0  0  0  0
   60.4540   31.9320   47.2550 C   0  0  0  0  0  0  0  0  0  0  0  0
   61.9300   31.9370   47.2230 C   0  0  0  0  0  0  0  0  0  0  0  0
   62.6330   30.8950   47.1270 O   0  0  0  0  0  0  0  0  0  0  0  0
   63.7843   33.6409   49.7067 H   0  0  0  0  0  0  0  0  0  0  0  0
   64.1704   32.0094   49.0617 H   0  0  0  0  0  0  0  0  0  0  0  0
   65.4248   33.2952   49.0617 H   0  0  0  0  0  0  0  0  0  0  0  0
   64.0610   34.6117   47.4501 H   0  0  0  0  0  0  0  0  0  0  0  0
   64.4824   32.9837   46.8005 H   0  0  0  0  0  0  0  0  0  0  0  0
   61.3589   34.5046   48.6178 H   0  0  0  0  0  0  0  0  0  0  0  0
   61.5604   35.1051   46.9683 H   0  0  0  0  0  0  0  0  0  0  0  0
   58.8623   33.1841   48.9248 H   0  0  0  0  0  0  0  0  0  0  0  0
   58.9504   34.8536   48.3955 H   0  0  0  0  0  0  0  0  0  0  0  0
   57.4228   32.5035   47.1737 H   0  0  0  0  0  0  0  0  0  0  0  0
   56.8502   34.1627   47.4203 H   0  0  0  0  0  0  0  0  0  0  0  0
   56.3907   33.4356   44.7327 H   0  0  0  0  0  0  0  0  0  0  0  0
   57.9220   33.5400   43.7283 H   0  0  0  0  0  0  0  0  0  0  0  0
   58.3610   31.3970   46.7000 H   0  0  0  0  0  0  0  0  0  0  0  0
   58.8078   28.7111   47.1720 H   0  0  0  0  0  0  0  0  0  0  0  0
   58.7508   26.4605   46.0340 H   0  0  0  0  0  0  0  0  0  0  0  0
   58.0095   26.2762   43.6473 H   0  0  0  0  0  0  0  0  0  0  0  0
   57.3139   28.3405   42.3727 H   0  0  0  0  0  0  0  0  0  0  0  0
   57.0975   30.3316   41.6133 H   0  0  0  0  0  0  0  0  0  0  0  0
   56.0063   31.6302   42.2237 H   0  0  0  0  0  0  0  0  0  0  0  0
   58.4631   32.8012   42.5842 H   0  0  0  0  0  0  0  0  0  0  0  0
   58.7719   31.8063   41.1208 H   0  0  0  0  0  0  0  0  0  0  0  0
   57.4436   33.0156   41.1208 H   0  0  0  0  0  0  0  0  0  0  0  0
   59.9507   33.0445   45.0167 H   0  0  0  0  0  0  0  0  0  0  0  0
   60.0668   34.7768   45.4162 H   0  0  0  0  0  0  0  0  0  0  0  0
   60.0788   31.4991   48.1941 H   0  0  0  0  0  0  0  0  0  0  0  0
   60.0015   31.3263   46.4560 H   0  0  0  0  0  0  0  0  0  0  0  0
  1  2  1  0
  2  3  1  0
  3  4  1  0
  5  4  1  1
  5  6  1  0
  6  7  1  0
  7  8  1  0
  8  9  1  0
  9 10  1  0
 10 11  2  0
 11 12  1  0
 12 13  2  0
 13 14  1  0
 14 15  2  0
 15 16  1  0
 16 17  2  0
 17 18  1  0
 18 19  1  0
 19 20  1  0
  8 21  1  0
  5 22  1  0
 22 23  1  0
 23 24  2  0
 23  3  1  0
 21  5  1  0
 18 10  1  0
 17 12  1  0
  1 25  1  0
  1 26  1  0
  1 27  1  0
  2 28  1  0
  2 29  1  0
  4 30  1  0
  4 31  1  0
  6 32  1  0
  6 33  1  0
  7 34  1  0
  7 35  1  0
  9 36  1  0
  9 37  1  0
 11 38  1  0
 13 39  1  0
 14 40  1  0
 15 41  1  0
 16 42  1  0
 19 43  1  0
 19 44  1  0
 20 45  1  0
 20 46  1  0
 20 47  1  0
 21 48  1  0
 21 49  1  0
 22 50  1  0
 22 51  1  0
M  CHG  1  11   1
M  END
>  <UniqueID>  (29) 
27

>  <SMILES>  (29) 
CCN1C[C@]2(CCN(Cc3[nH+]c4ccccc4n3CC)C2)CC1=O

>  <Energy>  (29) 
101.20097926306265

>  <Genealogy>  (29) 
CCN1CC2(CCN(Cc3[nH+]c4ccccc4n3CC)C2)CC1=O (protonated)
CCN1C[C@]2(CCN(Cc3[nH+]c4ccccc4n3CC)C2)CC1=O (chirality)
CCN1C[C@]2(CCN(Cc3[nH+]c4ccccc4n3CC)C2)CC1=O (3D coordinates assigned)
CCN1C[C@]2(CCN(Cc3[nH+]c4ccccc4n3CC)C2)CC1=O (nonaromatic ring conformer: 101.20097926306265 kcal/mol)

>  <smiles>  (29) 
CCN1CC2(CCN(Cc3nc4ccccc4n3CC)C2)CC1=O

>  <score_type>  (29) 
oracle

>  <origin>  (29) 
adg

>  <m_score__min__energy>  (29) 
-6.71

>  <m_primary>  (29) 
energy

$$$$
29:0
     RDKit          3D

 31 31  0  0  0  0  0  0  0  0999 V2000
   56.5670   24.5270   44.7970 C   0  0  0  0  0  0  0  0  0  0  0  0
   55.8960   25.1710   46.0130 C   0  0  0  0  0  0  0  0  0  0  0  0
   55.7790   26.6330   45.8860 N   0  0  0  0  0  0  0  0  0  0  0  0
   57.0670   27.3140   46.0820 C   0  0  0  0  0  0  0  0  0  0  0  0
   57.0920   28.6280   45.3010 C   0  0  0  0  0  0  0  0  0  0  0  0
   55.7250   29.0420   44.9520 N   0  0  0  0  0  0  0  0  0  0  0  0
   55.6890   29.7090   43.6450 C   0  0  0  0  0  0  0  0  0  0  0  0
   56.6390   30.8770   43.6220 C   0  0  0  0  0  0  0  0  0  0  0  0
   57.2340   31.2750   42.4150 C   0  0  0  0  0  0  0  0  0  0  0  0
   58.1000   32.3730   42.3840 C   0  0  0  0  0  0  0  0  0  0  0  0
   58.3740   33.0820   43.5570 C   0  0  0  0  0  0  0  0  0  0  0  0
   57.7830   32.6950   44.7640 C   0  0  0  0  0  0  0  0  0  0  0  0
   58.1530   33.6680   46.3650 Br  0  0  0  0  0  0  0  0  0  0  0  0
   56.9160   31.5960   44.7980 C   0  0  0  0  0  0  0  0  0  0  0  0
   57.3220   23.8023   45.1358 H   0  0  0  0  0  0  0  0  0  0  0  0
   55.8086   24.0100   44.1907 H   0  0  0  0  0  0  0  0  0  0  0  0
   57.0525   25.3059   44.1907 H   0  0  0  0  0  0  0  0  0  0  0  0
   54.8880   24.7453   46.1260 H   0  0  0  0  0  0  0  0  0  0  0  0
   56.5251   24.9618   46.8908 H   0  0  0  0  0  0  0  0  0  0  0  0
   55.4070   26.8650   44.9360 H   0  0  0  0  0  0  0  0  0  0  0  0
   57.2078   27.5245   47.1524 H   0  0  0  0  0  0  0  0  0  0  0  0
   57.8764   26.6640   45.7182 H   0  0  0  0  0  0  0  0  0  0  0  0
   57.5605   29.4082   45.9189 H   0  0  0  0  0  0  0  0  0  0  0  0
   57.6684   28.4825   44.3755 H   0  0  0  0  0  0  0  0  0  0  0  0
   55.1390   28.1770   44.8820 H   0  0  0  0  0  0  0  0  0  0  0  0
   55.9795   28.9908   42.8641 H   0  0  0  0  0  0  0  0  0  0  0  0
   54.6687   30.0770   43.4616 H   0  0  0  0  0  0  0  0  0  0  0  0
   57.0185   30.7212   41.4894 H   0  0  0  0  0  0  0  0  0  0  0  0
   58.5658   32.6788   41.4356 H   0  0  0  0  0  0  0  0  0  0  0  0
   59.0552   33.9453   43.5308 H   0  0  0  0  0  0  0  0  0  0  0  0
   56.4502   31.2943   45.7477 H   0  0  0  0  0  0  0  0  0  0  0  0
  1  2  1  0
  2  3  1  0
  3  4  1  0
  4  5  1  0
  5  6  1  0
  6  7  1  0
  7  8  1  0
  8  9  2  0
  9 10  1  0
 10 11  2  0
 11 12  1  0
 12 13  1  0
 12 14  2  0
 14  8  1  0
  1 15  1  0
  1 16  1  0
  1 17  1  0
  2 18  1  0
  2 19  1  0
  3 20  1  0
  4 21  1  0
  4 22  1  0
  5 23  1  0
  5 24  1  0
  6 25  1  0
  7 26  1  0
  7 27  1  0
  9 28  1  0
 10 29  1  0
 11 30  1  0
 14 31  1  0
M  END
>  <UniqueID>  (30) 
28

>  <SMILES>  (30) 
CCNCCNCc1cccc(Br)c1

>  <Energy>  (30) 
22.80282180936517

>  <Genealogy>  (30) 
CCNCCNCc1cccc(Br)c1 (3D coordinates assigned)
CCNCCNCc1cccc(Br)c1 (optimized conformer: 22.80282180936517 kcal/mol)

>  <smiles>  (30) 
CCNCCNCc1cccc(Br)c1

>  <score_type>  (30) 
oracle

>  <origin>  (30) 
adg

>  <m_score__min__energy>  (30) 
-6.5099999999999998

>  <m_primary>  (30) 
energy

$$$$
30:0
     RDKit          3D

 42 45  0  0  0  0  0  0  0  0999 V2000
   56.9740   28.9790   44.0440 C   0  0  0  0  0  0  0  0  0  0  0  0
   56.5680   30.0460   44.8720 O   0  0  0  0  0  0  0  0  0  0  0  0
   57.0600   31.2720   44.3610 C   0  0  1  0  0  0  0  0  0  0  0  0
   56.2960   32.3440   44.8750 O   0  0  0  0  0  0  0  0  0  0  0  0
   57.1360   33.3760   45.2260 C   0  0  0  0  0  0  0  0  0  0  0  0
   56.7060   34.5140   45.5590 O   0  0  0  0  0  0  0  0  0  0  0  0
   58.5250   33.0800   45.0670 N   0  0  1  0  0  0  0  0  0  0  0  0
   59.3760   33.5210   46.1660 C   0  0  0  0  0  0  0  0  0  0  0  0
   60.7720   33.4870   46.0020 C   0  0  0  0  0  0  0  0  0  0  0  0
   61.6260   33.8280   47.0540 C   0  0  0  0  0  0  0  0  0  0  0  0
   61.1020   34.2120   48.2950 C   0  0  0  0  0  0  0  0  0  0  0  0
   62.0190   34.5280   49.4380 C   0  0  0  0  0  0  0  0  0  0  0  0
   59.7120   34.2210   48.4810 C   0  0  0  0  0  0  0  0  0  0  0  0
   58.8560   33.8830   47.4310 C   0  0  0  0  0  0  0  0  0  0  0  0
   58.5160   31.6110   44.8070 C   0  0  1  0  0  0  0  0  0  0  0  0
   58.9800   30.7780   45.9920 C   0  0  0  0  0  0  0  0  0  0  0  0
   59.7310   29.6020   45.9380 C   0  0  0  0  0  0  0  0  0  0  0  0
   59.8330   29.2030   47.2490 C   0  0  0  0  0  0  0  0  0  0  0  0
   60.4530   28.0940   47.8200 C   0  0  0  0  0  0  0  0  0  0  0  0
   60.3740   27.9480   49.2170 C   0  0  0  0  0  0  0  0  0  0  0  0
   59.6850   28.9030   49.9980 C   0  0  0  0  0  0  0  0  0  0  0  0
   59.0670   30.0110   49.3890 C   0  0  0  0  0  0  0  0  0  0  0  0
   59.1620   30.1260   48.0040 C   0  0  0  0  0  0  0  0  0  0  0  0
   58.6550   31.0630   47.2410 O   0  0  0  0  0  0  0  0  0  0  0  0
   57.2961   28.1325   44.6683 H   0  0  0  0  0  0  0  0  0  0  0  0
   56.1319   28.6667   43.4090 H   0  0  0  0  0  0  0  0  0  0  0  0
   57.8107   29.3055   43.4090 H   0  0  0  0  0  0  0  0  0  0  0  0
   57.0110   31.1527   43.2686 H   0  0  0  0  0  0  0  0  0  0  0  0
   58.8270   33.5700   44.1910 H   0  0  0  0  0  0  0  0  0  0  0  0
   61.1975   33.1880   45.0327 H   0  0  0  0  0  0  0  0  0  0  0  0
   62.7156   33.7947   46.9069 H   0  0  0  0  0  0  0  0  0  0  0  0
   61.4957   34.3477   50.3886 H   0  0  0  0  0  0  0  0  0  0  0  0
   62.9097   33.8850   49.3821 H   0  0  0  0  0  0  0  0  0  0  0  0
   62.3245   35.5832   49.3821 H   0  0  0  0  0  0  0  0  0  0  0  0
   59.2935   34.4961   49.4604 H   0  0  0  0  0  0  0  0  0  0  0  0
   57.7675   33.8983   47.5887 H   0  0  0  0  0  0  0  0  0  0  0  0
   59.2452   31.3535   44.0247 H   0  0  0  0  0  0  0  0  0  0  0  0
   60.1467   29.1072   45.0479 H   0  0  0  0  0  0  0  0  0  0  0  0
   60.9859   27.3579   47.2001 H   0  0  0  0  0  0  0  0  0  0  0  0
   60.8515   27.0851   49.7043 H   0  0  0  0  0  0  0  0  0  0  0  0
   59.6313   28.7795   51.0897 H   0  0  0  0  0  0  0  0  0  0  0  0
   58.5273   30.7607   49.9863 H   0  0  0  0  0  0  0  0  0  0  0  0
  1  2  1  0
  2  3  1  0
  3  4  1  0
  4  5  1  0
  5  6  2  0
  5  7  1  0
  7  8  1  0
  8  9  2  0
  9 10  1  0
 10 11  2  0
 11 12  1  0
 11 13  1  0
 13 14  2  0
  7 15  1  0
 15 16  1  0
 16 17  2  0
 17 18  1  0
 18 19  2  0
 19 20  1  0
 20 21  2  0
 21 22  1  0
 22 23  2  0
 23 24  1  0
 15  3  1  0
 24 16  1  0
 14  8  1  0
 23 18  1  0
  1 25  1  0
  1 26  1  0
  1 27  1  0
  3 28  1  6
  7 29  1  6
  9 30  1  0
 10 31  1  0
 12 32  1  0
 12 33  1  0
 12 34  1  0
 13 35  1  0
 14 36  1  0
 15 37  1  6
 17 38  1  0
 19 39  1  0
 20 40  1  0
 21 41  1  0
 22 42  1  0
M  CHG  1   7   1
M  END
>  <UniqueID>  (31) 
29

>  <SMILES>  (31) 
CO[C@H]1OC(=O)[N@@H+](c2ccc(C)cc2)C1c1cc2ccccc2o1

>  <Energy>  (31) 
102.47535914368275

>  <Genealogy>  (31) 
COC1OC(=O)[NH+](c2ccc(C)cc2)C1c1cc2ccccc2o1 (protonated)
CO[C@H]1OC(=O)[N@@H+](c2ccc(C)cc2)C1c1cc2ccccc2o1 (chirality)
CO[C@H]1OC(=O)[N@@H+](c2ccc(C)cc2)C1c1cc2ccccc2o1 (3D coordinates assigned)
CO[C@H]1OC(=O)[N@@H+](c2ccc(C)cc2)C1c1cc2ccccc2o1 (nonaromatic ring conformer: 102.47535914368275 kcal/mol)

>  <smiles>  (31) 
COC1OC(=O)N(c2ccc(C)cc2)C1c1cc2ccccc2o1

>  <score_type>  (31) 
oracle

>  <origin>  (31) 
adg

>  <m_score__min__energy>  (31) 
-5.9100000000000001

>  <m_primary>  (31) 
energy

$$$$
31:0
     RDKit          3D

 28 30  0  0  0  0  0  0  0  0999 V2000
   59.6500   34.5800   48.6320 C   0  0  0  0  0  0  0  0  0  0  0  0
   59.4990   33.4490   47.6580 C   0  0  0  0  0  0  0  0  0  0  0  0
   58.5850   33.5450   46.5990 C   0  0  0  0  0  0  0  0  0  0  0  0
   58.4170   32.4780   45.7130 C   0  0  0  0  0  0  0  0  0  0  0  0
   59.1460   31.2880   45.8820 C   0  0  0  0  0  0  0  0  0  0  0  0
   58.9700   30.1470   44.8970 C   0  0  1  0  0  0  0  0  0  0  0  0
   59.6790   28.8590   45.3970 C   0  0  0  0  0  0  0  0  0  0  0  0
   58.8070   28.0100   46.2950 C   0  0  0  0  0  0  0  0  0  0  0  0
   59.3330   27.2660   47.1640 O   0  0  0  0  0  0  0  0  0  0  0  0
   57.3890   27.9820   46.1070 N   0  0  0  0  0  0  0  0  0  0  0  0
   56.8210   28.9340   45.2160 C   0  0  0  0  0  0  0  0  0  0  0  0
   55.5190   29.0060   44.8880 N   0  0  0  0  0  0  0  0  0  0  0  0
   55.5130   30.0930   44.0750 C   0  0  0  0  0  0  0  0  0  0  0  0
   56.7370   30.6520   43.9310 N   0  0  0  0  0  0  0  0  0  0  0  0
   57.5480   29.8980   44.6480 N   0  0  0  0  0  0  0  0  0  0  0  0
   60.0580   31.1940   46.9500 C   0  0  0  0  0  0  0  0  0  0  0  0
   60.2240   32.2630   47.8360 C   0  0  0  0  0  0  0  0  0  0  0  0
   59.5978   34.1890   49.6588 H   0  0  0  0  0  0  0  0  0  0  0  0
   60.6217   35.0713   48.4757 H   0  0  0  0  0  0  0  0  0  0  0  0
   58.8412   35.3090   48.4757 H   0  0  0  0  0  0  0  0  0  0  0  0
   57.9973   34.4651   46.4652 H   0  0  0  0  0  0  0  0  0  0  0  0
   57.7086   32.5698   44.8765 H   0  0  0  0  0  0  0  0  0  0  0  0
   59.4419   30.4403   43.9476 H   0  0  0  0  0  0  0  0  0  0  0  0
   59.9702   28.2582   44.5228 H   0  0  0  0  0  0  0  0  0  0  0  0
   60.5502   29.1743   45.9900 H   0  0  0  0  0  0  0  0  0  0  0  0
   54.6075   30.4793   43.5843 H   0  0  0  0  0  0  0  0  0  0  0  0
   60.6440   30.2735   47.0886 H   0  0  0  0  0  0  0  0  0  0  0  0
   60.9272   32.1725   48.6770 H   0  0  0  0  0  0  0  0  0  0  0  0
  1  2  1  0
  2  3  2  0
  3  4  1  0
  4  5  2  0
  5  6  1  0
  6  7  1  0
  7  8  1  0
  8  9  2  0
  8 10  1  0
 10 11  1  0
 11 12  2  0
 12 13  1  0
 13 14  2  0
 14 15  1  0
  5 16  1  0
 16 17  2  0
 17  2  1  0
 15  6  1  0
 15 11  1  0
  1 18  1  0
  1 19  1  0
  1 20  1  0
  3 21  1  0
  4 22  1  0
  6 23  1  6
  7 24  1  0
  7 25  1  0
 13 26  1  0
 16 27  1  0
 17 28  1  0
M  CHG  1  10  -1
M  END
>  <UniqueID>  (32) 
30

>  <SMILES>  (32) 
Cc1ccc([C@H]2CC(=O)[N-]c3ncnn32)cc1

>  <Energy>  (32) 
65.40741380421863

>  <Genealogy>  (32) 
Cc1ccc(C2CC(=O)[N-]c3ncnn32)cc1 (protonated)
Cc1ccc([C@H]2CC(=O)[N-]c3ncnn32)cc1 (chirality)
Cc1ccc([C@H]2CC(=O)[N-]c3ncnn32)cc1 (3D coordinates assigned)
Cc1ccc([C@H]2CC(=O)[N-]c3ncnn32)cc1 (nonaromatic ring conformer: 65.40741380421863 kcal/mol)

>  <smiles>  (32) 
Cc1ccc(C2CC(=O)Nc3ncnn32)cc1

>  <score_type>  (32) 
oracle

>  <origin>  (32) 
adg

>  <m_score__min__energy>  (32) 
-8.0199999999999996

>  <m_primary>  (32) 
energy

$$$$
32:0
     RDKit          3D

 43 44  0  0  0  0  0  0  0  0999 V2000
   54.8420   23.9380   44.8830 C   0  0  0  0  0  0  0  0  0  0  0  0
   54.0410   25.0060   45.6200 C   0  0  0  0  0  0  0  0  0  0  0  0
   54.8700   26.1160   45.9550 O   0  0  0  0  0  0  0  0  0  0  0  0
   56.1570   25.9820   46.4890 C   0  0  0  0  0  0  0  0  0  0  0  0
   56.3990   25.1300   47.3850 O   0  0  0  0  0  0  0  0  0  0  0  0
   57.2520   26.8800   46.0040 C   0  0  0  0  0  0  0  0  0  0  0  0
   56.6980   27.9870   45.2230 N   0  0  0  0  0  0  0  0  0  0  0  0
   57.1670   29.3480   45.2930 C   0  0  0  0  0  0  0  0  0  0  0  0
   58.1490   29.7520   46.2180 C   0  0  0  0  0  0  0  0  0  0  0  0
   58.5820   31.0810   46.2550 C   0  0  0  0  0  0  0  0  0  0  0  0
   58.0440   32.0240   45.3700 C   0  0  0  0  0  0  0  0  0  0  0  0
   58.5720   33.7000   45.4360 S   0  0  0  0  0  0  0  0  0  0  0  0
   57.4040   34.5950   45.7450 O   0  0  0  0  0  0  0  0  0  0  0  0
   59.1360   34.1140   44.1050 O   0  0  0  0  0  0  0  0  0  0  0  0
   59.8000   33.8650   46.6850 C   0  0  0  0  0  0  0  0  0  0  0  0
   59.4280   34.1360   48.0070 C   0  0  0  0  0  0  0  0  0  0  0  0
   60.4010   34.2480   49.0060 C   0  0  0  0  0  0  0  0  0  0  0  0
   61.7630   34.0810   48.6890 C   0  0  0  0  0  0  0  0  0  0  0  0
   62.7770   34.1820   49.6520 O   0  0  0  0  0  0  0  0  0  0  0  0
   63.9980   33.4480   49.6160 C   0  0  0  0  0  0  0  0  0  0  0  0
   62.1280   33.8010   47.3670 C   0  0  0  0  0  0  0  0  0  0  0  0
   61.1530   33.6910   46.3700 C   0  0  0  0  0  0  0  0  0  0  0  0
   57.0590   31.6320   44.4560 C   0  0  0  0  0  0  0  0  0  0  0  0
   56.6260   30.3040   44.4170 C   0  0  0  0  0  0  0  0  0  0  0  0
   55.3353   23.2802   45.6137 H   0  0  0  0  0  0  0  0  0  0  0  0
   54.1657   23.3428   44.2518 H   0  0  0  0  0  0  0  0  0  0  0  0
   55.6027   24.4206   44.2518 H   0  0  0  0  0  0  0  0  0  0  0  0
   53.2195   25.3506   44.9748 H   0  0  0  0  0  0  0  0  0  0  0  0
   53.6409   24.5707   46.5476 H   0  0  0  0  0  0  0  0  0  0  0  0
   57.7982   27.2847   46.8688 H   0  0  0  0  0  0  0  0  0  0  0  0
   57.9324   26.2985   45.3645 H   0  0  0  0  0  0  0  0  0  0  0  0
   55.9150   27.7610   44.5670 H   0  0  0  0  0  0  0  0  0  0  0  0
   58.5780   29.0176   46.9156 H   0  0  0  0  0  0  0  0  0  0  0  0
   59.3484   31.3873   46.9822 H   0  0  0  0  0  0  0  0  0  0  0  0
   58.3653   34.2615   48.2617 H   0  0  0  0  0  0  0  0  0  0  0  0
   60.1015   34.4670   50.0415 H   0  0  0  0  0  0  0  0  0  0  0  0
   64.3346   33.2457   50.6435 H   0  0  0  0  0  0  0  0  0  0  0  0
   63.8382   32.4961   49.0884 H   0  0  0  0  0  0  0  0  0  0  0  0
   64.7637   34.0357   49.0884 H   0  0  0  0  0  0  0  0  0  0  0  0
   63.1891   33.6665   47.1103 H   0  0  0  0  0  0  0  0  0  0  0  0
   61.4504   33.4670   45.3349 H   0  0  0  0  0  0  0  0  0  0  0  0
   56.6247   32.3712   43.7668 H   0  0  0  0  0  0  0  0  0  0  0  0
   55.8539   30.0041   43.6932 H   0  0  0  0  0  0  0  0  0  0  0  0
  1  2  1  0
  2  3  1  0
  3  4  1  0
  4  5  2  0
  4  6  1  0
  6  7  1  0
  7  8  1  0
  8  9  2  0
  9 10  1  0
 10 11  2  0
 11 12  1  0
 12 13  2  0
 12 14  2  0
 12 15  1  0
 15 16  2  0
 16 17  1  0
 17 18  2  0
 18 19  1  0
 19 20  1  0
 18 21  1  0
 21 22  2  0
 11 23  1  0
 23 24  2  0
 24  8  1  0
 22 15  1  0
  1 25  1  0
  1 26  1  0
  1 27  1  0
  2 28  1  0
  2 29  1  0
  6 30  1  0
  6 31  1  0
  7 32  1  0
  9 33  1  0
 10 34  1  0
 16 35  1  0
 17 36  1  0
 20 37  1  0
 20 38  1  0
 20 39  1  0
 21 40  1  0
 22 41  1  0
 23 42  1  0
 24 43  1  0
M  END
>  <UniqueID>  (33) 
31

>  <SMILES>  (33) 
CCOC(=O)CNc1ccc(S(=O)(=O)c2ccc(OC)cc2)cc1

>  <Energy>  (33) 
38.71667447680342

>  <Genealogy>  (33) 
CCOC(=O)CNc1ccc(S(=O)(=O)c2ccc(OC)cc2)cc1 (3D coordinates assigned)
CCOC(=O)CNc1ccc(S(=O)(=O)c2ccc(OC)cc2)cc1 (optimized conformer: 38.71667447680342 kcal/mol)

>  <smiles>  (33) 
CCOC(=O)CNc1ccc(S(=O)(=O)c2ccc(OC)cc2)cc1

>  <score_type>  (33) 
oracle

>  <origin>  (33) 
adg

>  <m_score__min__energy>  (33) 
-7.8099999999999996

>  <m_primary>  (33) 
energy

$$$$
33:0
     RDKit          3D

 45 48  0  0  0  0  0  0  0  0999 V2000
   57.1490   21.0950   42.9760 C   0  0  0  0  0  0  0  0  0  0  0  0
   55.9310   21.7060   43.3860 O   0  0  0  0  0  0  0  0  0  0  0  0
   55.7780   22.4610   44.5590 C   0  0  0  0  0  0  0  0  0  0  0  0
   54.9230   22.0640   45.6040 C   0  0  0  0  0  0  0  0  0  0  0  0
   54.8030   22.8520   46.7500 C   0  0  0  0  0  0  0  0  0  0  0  0
   55.5310   24.0390   46.8680 C   0  0  0  0  0  0  0  0  0  0  0  0
   56.3910   24.4520   45.8340 C   0  0  0  0  0  0  0  0  0  0  0  0
   57.1740   25.7060   45.9320 C   0  0  0  0  0  0  0  0  0  0  0  0
   58.3380   25.9120   46.6570 C   0  0  0  0  0  0  0  0  0  0  0  0
   58.6920   27.2260   46.4430 C   0  0  0  0  0  0  0  0  0  0  0  0
   57.7260   27.7470   45.6000 C   0  0  0  0  0  0  0  0  0  0  0  0
   57.6520   29.1230   45.0700 C   0  0  0  0  0  0  0  0  0  0  0  0
   57.1570   29.4260   43.7940 C   0  0  0  0  0  0  0  0  0  0  0  0
   57.0770   30.7340   43.2650 C   0  0  0  0  0  0  0  0  0  0  0  0
   56.6100   30.8690   42.1030 O   0  0  0  0  0  0  0  0  0  0  0  0
   57.4850   31.9020   43.9490 C   0  0  0  0  0  0  0  0  0  0  0  0
   58.0190   31.9090   45.2450 C   0  0  0  0  0  0  0  0  0  0  0  0
   58.4320   33.1290   45.8950 N   0  0  0  0  0  0  0  0  0  0  0  0
   58.3080   33.2590   47.3530 C   0  0  0  0  0  0  0  0  0  0  0  0
   59.3560   34.2450   47.8790 C   0  0  0  0  0  0  0  0  0  0  0  0
   59.2960   35.4680   47.1700 O   0  0  0  0  0  0  0  0  0  0  0  0
   59.6620   35.2540   45.8200 C   0  0  0  0  0  0  0  0  0  0  0  0
   58.6410   34.3550   45.1160 C   0  0  0  0  0  0  0  0  0  0  0  0
   58.1840   30.4140   46.0230 S   0  0  0  0  0  0  0  0  0  0  0  0
   56.8410   26.8180   45.3170 O   0  0  0  0  0  0  0  0  0  0  0  0
   56.5060   23.6510   44.6840 C   0  0  0  0  0  0  0  0  0  0  0  0
   57.7299   20.8036   43.8635 H   0  0  0  0  0  0  0  0  0  0  0  0
   56.9266   20.2018   42.3738 H   0  0  0  0  0  0  0  0  0  0  0  0
   57.7320   21.8073   42.3738 H   0  0  0  0  0  0  0  0  0  0  0  0
   54.3478   21.1304   45.5175 H   0  0  0  0  0  0  0  0  0  0  0  0
   54.1327   22.5373   47.5634 H   0  0  0  0  0  0  0  0  0  0  0  0
   55.4311   24.6540   47.7745 H   0  0  0  0  0  0  0  0  0  0  0  0
   58.8705   25.1758   47.2770 H   0  0  0  0  0  0  0  0  0  0  0  0
   59.5640   27.7532   46.8574 H   0  0  0  0  0  0  0  0  0  0  0  0
   56.8090   28.5934   43.1650 H   0  0  0  0  0  0  0  0  0  0  0  0
   57.3765   32.8665   43.4314 H   0  0  0  0  0  0  0  0  0  0  0  0
   57.3022   33.6282   47.6021 H   0  0  0  0  0  0  0  0  0  0  0  0
   58.4690   32.2759   47.8195 H   0  0  0  0  0  0  0  0  0  0  0  0
   59.1673   34.4369   48.9456 H   0  0  0  0  0  0  0  0  0  0  0  0
   60.3547   33.8055   47.7398 H   0  0  0  0  0  0  0  0  0  0  0  0
   59.7081   36.2227   45.3009 H   0  0  0  0  0  0  0  0  0  0  0  0
   60.6441   34.7592   45.7950 H   0  0  0  0  0  0  0  0  0  0  0  0
   57.6864   34.8931   45.0202 H   0  0  0  0  0  0  0  0  0  0  0  0
   59.0205   34.0892   44.1184 H   0  0  0  0  0  0  0  0  0  0  0  0
   57.1775   23.9635   43.8707 H   0  0  0  0  0  0  0  0  0  0  0  0
  1  2  1  0
  2  3  1  0
  3  4  2  0
  4  5  1  0
  5  6  2  0
  6  7  1  0
  7  8  1  0
  8  9  2  0
  9 10  1  0
 10 11  2  0
 11 12  1  0
 12 13  2  0
 13 14  1  0
 14 15  2  0
 14 16  1  0
 16 17  2  0
 17 18  1  0
 18 19  1  0
 19 20  1  0
 20 21  1  0
 21 22  1  0
 22 23  1  0
 17 24  1  0
 11 25  1  0
  7 26  2  0
 26  3  1  0
 25  8  1  0
 24 12  1  0
 23 18  1  0
  1 27  1  0
  1 28  1  0
  1 29  1  0
  4 30  1  0
  5 31  1  0
  6 32  1  0
  9 33  1  0
 10 34  1  0
 13 35  1  0
 16 36  1  0
 19 37  1  0
 19 38  1  0
 20 39  1  0
 20 40  1  0
 22 41  1  0
 22 42  1  0
 23 43  1  0
 23 44  1  0
 26 45  1  0
M  END
>  <UniqueID>  (34) 
32

>  <SMILES>  (34) 
COc1cccc(-c2ccc(-c3cc(=O)cc(N4CCOCC4)s3)o2)c1

>  <Energy>  (34) 
82.1278671340749

>  <Genealogy>  (34) 
COc1cccc(-c2ccc(-c3cc(=O)cc(N4CCOCC4)s3)o2)c1 (3D coordinates assigned)
COc1cccc(-c2ccc(-c3cc(=O)cc(N4CCOCC4)s3)o2)c1 (nonaromatic ring conformer: 82.1278671340749 kcal/mol)

>  <smiles>  (34) 
COc1cccc(-c2ccc(-c3cc(=O)cc(N4CCOCC4)s3)o2)c1

>  <score_type>  (34) 
oracle

>  <origin>  (34) 
adg

>  <m_score__min__energy>  (34) 
-7.9900000000000002

>  <m_primary>  (34) 
energy

$$$$
34:0
     RDKit          3D

 39 40  0  0  0  0  0  0  0  0999 V2000
   58.9540   24.9940   45.9940 C   0  0  0  0  0  0  0  0  0  0  0  0
   59.7760   26.2770   45.9910 C   0  0  0  0  0  0  0  0  0  0  0  0
   58.8990   27.4480   45.8770 N   0  0  0  0  0  0  0  0  0  0  0  0
   58.6720   28.3800   46.8310 C   0  0  0  0  0  0  0  0  0  0  0  0
   59.3540   28.4270   48.1650 C   0  0  0  0  0  0  0  0  0  0  0  0
   57.8100   29.3520   46.3600 C   0  0  0  0  0  0  0  0  0  0  0  0
   57.4900   28.9890   45.0660 C   0  0  0  0  0  0  0  0  0  0  0  0
   56.6660   29.8070   44.1120 C   0  0  0  0  0  0  0  0  0  0  0  0
   56.5540   31.2020   44.5710 N   0  0  0  0  0  0  0  0  0  0  0  0
   57.6240   32.0640   44.0390 C   0  0  0  0  0  0  0  0  0  0  0  0
   58.1350   33.0040   45.0990 C   0  0  0  0  0  0  0  0  0  0  0  0
   58.8600   34.1500   44.7380 C   0  0  0  0  0  0  0  0  0  0  0  0
   59.3660   34.9870   45.7330 C   0  0  0  0  0  0  0  0  0  0  0  0
   59.1430   34.7020   47.0440 N   0  0  0  0  0  0  0  0  0  0  0  0
   58.4260   33.6100   47.4230 C   0  0  0  0  0  0  0  0  0  0  0  0
   57.9040   32.7450   46.4590 C   0  0  0  0  0  0  0  0  0  0  0  0
   58.1530   27.7980   44.8030 C   0  0  0  0  0  0  0  0  0  0  0  0
   58.1510   27.0640   43.4930 C   0  0  0  0  0  0  0  0  0  0  0  0
   58.7573   24.6870   47.0318 H   0  0  0  0  0  0  0  0  0  0  0  0
   57.9994   25.1689   45.4762 H   0  0  0  0  0  0  0  0  0  0  0  0
   59.5119   24.1999   45.4762 H   0  0  0  0  0  0  0  0  0  0  0  0
   60.3480   26.3428   46.9283 H   0  0  0  0  0  0  0  0  0  0  0  0
   60.4604   26.2595   45.1300 H   0  0  0  0  0  0  0  0  0  0  0  0
   58.6001   28.3750   48.9643 H   0  0  0  0  0  0  0  0  0  0  0  0
   60.0430   27.5742   48.2548 H   0  0  0  0  0  0  0  0  0  0  0  0
   59.9195   29.3662   48.2548 H   0  0  0  0  0  0  0  0  0  0  0  0
   57.4508   30.2369   46.9058 H   0  0  0  0  0  0  0  0  0  0  0  0
   57.1430   29.7919   43.1209 H   0  0  0  0  0  0  0  0  0  0  0  0
   55.6564   29.3733   44.0613 H   0  0  0  0  0  0  0  0  0  0  0  0
   56.6520   31.1910   45.6120 H   0  0  0  0  0  0  0  0  0  0  0  0
   58.4534   31.4328   43.6874 H   0  0  0  0  0  0  0  0  0  0  0  0
   57.2153   32.6594   43.2093 H   0  0  0  0  0  0  0  0  0  0  0  0
   59.0283   34.3870   43.6771 H   0  0  0  0  0  0  0  0  0  0  0  0
   59.9466   35.8794   45.4565 H   0  0  0  0  0  0  0  0  0  0  0  0
   58.2570   33.4079   48.4910 H   0  0  0  0  0  0  0  0  0  0  0  0
   57.3158   31.8667   46.7634 H   0  0  0  0  0  0  0  0  0  0  0  0
   58.1480   25.9800   43.6801 H   0  0  0  0  0  0  0  0  0  0  0  0
   57.2536   27.3396   42.9197 H   0  0  0  0  0  0  0  0  0  0  0  0
   59.0499   27.3347   42.9197 H   0  0  0  0  0  0  0  0  0  0  0  0
  1  2  1  0
  2  3  1  0
  3  4  1  0
  4  5  1  0
  4  6  2  0
  6  7  1  0
  7  8  1  0
  8  9  1  0
  9 10  1  0
 10 11  1  0
 11 12  2  0
 12 13  1  0
 13 14  2  0
 14 15  1  0
 15 16  2  0
  7 17  2  0
 17 18  1  0
 17  3  1  0
 16 11  1  0
  1 19  1  0
  1 20  1  0
  1 21  1  0
  2 22  1  0
  2 23  1  0
  5 24  1  0
  5 25  1  0
  5 26  1  0
  6 27  1  0
  8 28  1  0
  8 29  1  0
  9 30  1  0
 10 31  1  0
 10 32  1  0
 12 33  1  0
 13 34  1  0
 15 35  1  0
 16 36  1  0
 18 37  1  0
 18 38  1  0
 18 39  1  0
M  END
>  <UniqueID>  (35) 
33

>  <SMILES>  (35) 
CCn1c(C)cc(CNCc2ccncc2)c1C

>  <Energy>  (35) 
56.388115265565375

>  <Genealogy>  (35) 
CCn1c(C)cc(CNCc2ccncc2)c1C (3D coordinates assigned)
CCn1c(C)cc(CNCc2ccncc2)c1C (optimized conformer: 56.388115265565375 kcal/mol)

>  <smiles>  (35) 
CCn1c(C)cc(CNCc2ccncc2)c1C

>  <score_type>  (35) 
oracle

>  <origin>  (35) 
adg

>  <m_score__min__energy>  (35) 
-6.0800000000000001

>  <m_primary>  (35) 
energy

$$$$
35:0
     RDKit          3D

 30 31  0  0  0  0  0  0  0  0999 V2000
   64.2710   31.6870   50.2890 C   0  0  0  0  0  0  0  0  0  0  0  0
   63.2020   32.3210   49.4570 C   0  0  0  0  0  0  0  0  0  0  0  0
   63.4900   32.7950   48.1770 C   0  0  0  0  0  0  0  0  0  0  0  0
   62.4730   33.3590   47.3930 C   0  0  0  0  0  0  0  0  0  0  0  0
   62.8290   33.8380   46.0100 C   0  0  0  0  0  0  0  0  0  0  0  0
   61.1640   33.4820   47.9290 C   0  0  0  0  0  0  0  0  0  0  0  0
   59.8620   34.2480   46.9770 S   0  0  0  0  0  0  0  0  0  0  0  0
   60.4650   35.2390   46.0210 O   0  0  0  0  0  0  0  0  0  0  0  0
   58.8940   35.0000   47.8460 O   0  0  0  0  0  0  0  0  0  0  0  0
   58.9820   33.0060   46.0890 C   0  0  0  0  0  0  0  0  0  0  0  0
   58.0990   33.3750   45.0630 C   0  0  0  0  0  0  0  0  0  0  0  0
   57.3930   32.3960   44.3580 C   0  0  0  0  0  0  0  0  0  0  0  0
   57.5650   31.0440   44.6710 C   0  0  0  0  0  0  0  0  0  0  0  0
   56.5990   29.7080   43.7070 Br  0  0  0  0  0  0  0  0  0  0  0  0
   58.4470   30.6710   45.6910 C   0  0  0  0  0  0  0  0  0  0  0  0
   59.1550   31.6480   46.3970 C   0  0  0  0  0  0  0  0  0  0  0  0
   60.9170   32.9440   49.2170 C   0  0  0  0  0  0  0  0  0  0  0  0
   59.3240   32.9040   49.9580 Cl  0  0  0  0  0  0  0  0  0  0  0  0
   61.9330   32.3890   49.9290 N   0  0  0  0  0  0  0  0  0  0  0  0
   64.0369   31.8259   51.3548 H   0  0  0  0  0  0  0  0  0  0  0  0
   64.3230   30.6119   50.0621 H   0  0  0  0  0  0  0  0  0  0  0  0
   65.2393   32.1569   50.0621 H   0  0  0  0  0  0  0  0  0  0  0  0
   64.5146   32.7264   47.7826 H   0  0  0  0  0  0  0  0  0  0  0  0
   63.4837   34.7189   46.0843 H   0  0  0  0  0  0  0  0  0  0  0  0
   63.3525   33.0367   45.4679 H   0  0  0  0  0  0  0  0  0  0  0  0
   61.9108   34.1082   45.4679 H   0  0  0  0  0  0  0  0  0  0  0  0
   57.9620   34.4374   44.8128 H   0  0  0  0  0  0  0  0  0  0  0  0
   56.7006   32.6897   43.5553 H   0  0  0  0  0  0  0  0  0  0  0  0
   58.5835   29.6077   45.9377 H   0  0  0  0  0  0  0  0  0  0  0  0
   59.8499   31.3513   47.1964 H   0  0  0  0  0  0  0  0  0  0  0  0
  1  2  1  0
  2  3  2  0
  3  4  1  0
  4  5  1  0
  4  6  2  0
  6  7  1  0
  7  8  2  0
  7  9  2  0
  7 10  1  0
 10 11  2  0
 11 12  1  0
 12 13  2  0
 13 14  1  0
 13 15  1  0
 15 16  2  0
  6 17  1  0
 17 18  1  0
 17 19  2  0
 19  2  1  0
 16 10  1  0
  1 20  1  0
  1 21  1  0
  1 22  1  0
  3 23  1  0
  5 24  1  0
  5 25  1  0
  5 26  1  0
 11 27  1  0
 12 28  1  0
 15 29  1  0
 16 30  1  0
M  END
>  <UniqueID>  (36) 
34

>  <SMILES>  (36) 
Cc1cc(C)c(S(=O)(=O)c2ccc(Br)cc2)c(Cl)n1

>  <Energy>  (36) 
36.756486175280614

>  <Genealogy>  (36) 
Cc1cc(C)c(S(=O)(=O)c2ccc(Br)cc2)c(Cl)n1 (3D coordinates assigned)
Cc1cc(C)c(S(=O)(=O)c2ccc(Br)cc2)c(Cl)n1 (optimized conformer: 36.756486175280614 kcal/mol)

>  <smiles>  (36) 
Cc1cc(C)c(S(=O)(=O)c2ccc(Br)cc2)c(Cl)n1

>  <score_type>  (36) 
oracle

>  <origin>  (36) 
adg

>  <m_score__min__energy>  (36) 
-7.3200000000000003

>  <m_primary>  (36) 
energy

$$$$
36:0
     RDKit          3D

 46 48  0  0  0  0  0  0  0  0999 V2000
   56.3450   26.3030   46.0440 C   0  0  0  0  0  0  0  0  0  0  0  0
   55.8510   27.5690   45.6190 O   0  0  0  0  0  0  0  0  0  0  0  0
   56.6640   28.6510   45.2480 C   0  0  0  0  0  0  0  0  0  0  0  0
   56.4090   29.4310   44.1040 C   0  0  0  0  0  0  0  0  0  0  0  0
   57.2450   30.5030   43.7820 C   0  0  0  0  0  0  0  0  0  0  0  0
   58.3400   30.8080   44.5930 C   0  0  0  0  0  0  0  0  0  0  0  0
   58.6140   30.0340   45.7310 C   0  0  0  0  0  0  0  0  0  0  0  0
   59.7760   30.3840   46.6250 C   0  0  0  0  0  0  0  0  0  0  0  0
   59.4480   30.0860   48.1000 C   0  0  1  0  0  0  0  0  0  0  0  0
   60.6360   29.6140   48.9280 C   0  0  0  0  0  0  0  0  0  0  0  0
   60.4430   29.9960   50.2730 O   0  0  0  0  0  0  0  0  0  0  0  0
   59.2660   30.7740   50.3360 C   0  0  0  0  0  0  0  0  0  0  0  0
   58.8910   31.2290   48.9300 C   0  0  1  0  0  0  0  0  0  0  0  0
   59.3420   32.6900   48.6000 C   0  0  0  0  0  0  0  0  0  0  0  0
   58.8630   33.3160   47.2900 C   0  0  0  0  0  0  0  0  0  0  0  0
   57.5020   33.2240   46.9370 C   0  0  0  0  0  0  0  0  0  0  0  0
   57.0250   33.7920   45.7550 C   0  0  0  0  0  0  0  0  0  0  0  0
   57.9020   34.4240   44.8800 C   0  0  0  0  0  0  0  0  0  0  0  0
   59.2650   34.4590   45.1650 C   0  0  0  0  0  0  0  0  0  0  0  0
   59.7680   33.8870   46.3470 C   0  0  0  0  0  0  0  0  0  0  0  0
   61.2640   33.8600   46.5440 C   0  0  0  0  0  0  0  0  0  0  0  0
   57.7650   28.9620   46.0560 C   0  0  0  0  0  0  0  0  0  0  0  0
   56.3597   26.2654   47.1433 H   0  0  0  0  0  0  0  0  0  0  0  0
   55.6918   25.5063   45.6585 H   0  0  0  0  0  0  0  0  0  0  0  0
   57.3652   26.1593   45.6585 H   0  0  0  0  0  0  0  0  0  0  0  0
   55.5481   29.1954   43.4611 H   0  0  0  0  0  0  0  0  0  0  0  0
   57.0400   31.1086   42.8869 H   0  0  0  0  0  0  0  0  0  0  0  0
   58.9902   31.6581   44.3389 H   0  0  0  0  0  0  0  0  0  0  0  0
   60.6522   29.7908   46.3246 H   0  0  0  0  0  0  0  0  0  0  0  0
   59.9847   31.4592   46.5231 H   0  0  0  0  0  0  0  0  0  0  0  0
   58.6849   29.3104   47.9384 H   0  0  0  0  0  0  0  0  0  0  0  0
   60.7175   28.5189   48.8643 H   0  0  0  0  0  0  0  0  0  0  0  0
   61.5603   30.0692   48.5427 H   0  0  0  0  0  0  0  0  0  0  0  0
   58.4484   30.1711   50.7581 H   0  0  0  0  0  0  0  0  0  0  0  0
   59.4369   31.6523   50.9758 H   0  0  0  0  0  0  0  0  0  0  0  0
   57.8177   31.3686   48.7339 H   0  0  0  0  0  0  0  0  0  0  0  0
   58.9864   33.3336   49.4181 H   0  0  0  0  0  0  0  0  0  0  0  0
   60.4336   32.6185   48.4845 H   0  0  0  0  0  0  0  0  0  0  0  0
   56.8044   32.6960   47.6038 H   0  0  0  0  0  0  0  0  0  0  0  0
   55.9528   33.7397   45.5148 H   0  0  0  0  0  0  0  0  0  0  0  0
   57.5194   34.8961   43.9631 H   0  0  0  0  0  0  0  0  0  0  0  0
   59.9561   34.9398   44.4570 H   0  0  0  0  0  0  0  0  0  0  0  0
   61.4921   33.8559   47.6201 H   0  0  0  0  0  0  0  0  0  0  0  0
   61.6789   32.9542   46.0778 H   0  0  0  0  0  0  0  0  0  0  0  0
   61.7114   34.7502   46.0778 H   0  0  0  0  0  0  0  0  0  0  0  0
   57.9674   28.3608   46.9546 H   0  0  0  0  0  0  0  0  0  0  0  0
  1  2  1  0
  2  3  1  0
  3  4  2  0
  4  5  1  0
  5  6  2  0
  6  7  1  0
  7  8  1  0
  8  9  1  0
  9 10  1  0
 10 11  1  0
 11 12  1  0
 12 13  1  0
 13 14  1  0
 14 15  1  0
 15 16  2  0
 16 17  1  0
 17 18  2  0
 18 19  1  0
 19 20  2  0
 20 21  1  0
  7 22  2  0
 22  3  1  0
 13  9  1  0
 20 15  1  0
  1 23  1  0
  1 24  1  0
  1 25  1  0
  4 26  1  0
  5 27  1  0
  6 28  1  0
  8 29  1  0
  8 30  1  0
  9 31  1  6
 10 32  1  0
 10 33  1  0
 12 34  1  0
 12 35  1  0
 13 36  1  1
 14 37  1  0
 14 38  1  0
 16 39  1  0
 17 40  1  0
 18 41  1  0
 19 42  1  0
 21 43  1  0
 21 44  1  0
 21 45  1  0
 22 46  1  0
M  END
>  <UniqueID>  (37) 
35

>  <SMILES>  (37) 
COc1cccc(C[C@H]2COC[C@H]2Cc2ccccc2C)c1

>  <Energy>  (37) 
55.85242754392485

>  <Genealogy>  (37) 
COc1cccc(C[C@H]2COC[C@H]2Cc2ccccc2C)c1 (chirality)
COc1cccc(C[C@H]2COC[C@H]2Cc2ccccc2C)c1 (3D coordinates assigned)
COc1cccc(C[C@H]2COC[C@H]2Cc2ccccc2C)c1 (nonaromatic ring conformer: 55.85242754392485 kcal/mol)

>  <smiles>  (37) 
COc1cccc(CC2COCC2Cc2ccccc2C)c1

>  <score_type>  (37) 
oracle

>  <origin>  (37) 
adg

>  <m_score__min__energy>  (37) 
-8.3100000000000005

>  <m_primary>  (37) 
energy

$$$$
37:0
     RDKit          3D

 44 45  0  0  0  0  0  0  0  0999 V2000
   58.1650   27.1300   43.3750 C   0  0  0  0  0  0  0  0  0  0  0  0
   59.1150   27.9560   44.2400 C   0  0  0  0  0  0  0  0  0  0  0  0
   58.4020   29.0920   44.8710 N   0  0  0  0  0  0  0  0  0  0  0  0
   58.8960   29.3410   46.2450 C   0  0  0  0  0  0  0  0  0  0  0  0
   60.2530   30.0460   46.2320 C   0  0  0  0  0  0  0  0  0  0  0  0
   56.9300   28.8830   44.8580 C   0  0  0  0  0  0  0  0  0  0  0  0
   56.2460   29.9620   44.0160 C   0  0  0  0  0  0  0  0  0  0  0  0
   56.2660   31.2210   44.6860 O   0  0  0  0  0  0  0  0  0  0  0  0
   57.2580   32.1880   44.4970 C   0  0  0  0  0  0  0  0  0  0  0  0
   58.1480   32.0420   43.6150 O   0  0  0  0  0  0  0  0  0  0  0  0
   57.2740   33.3960   45.3760 C   0  0  0  0  0  0  0  0  0  0  0  0
   58.6020   33.5670   45.9560 N   0  0  0  0  0  0  0  0  0  0  0  0
   59.6630   34.2150   45.4080 C   0  0  0  0  0  0  0  0  0  0  0  0
   60.7090   34.3170   46.2680 N   0  0  0  0  0  0  0  0  0  0  0  0
   60.2710   33.7180   47.3890 C   0  0  0  0  0  0  0  0  0  0  0  0
   60.8820   33.5820   48.6290 C   0  0  0  0  0  0  0  0  0  0  0  0
   62.5330   34.2000   48.9460 S   0  0  0  0  0  0  0  0  0  0  0  0
   63.3040   33.0920   47.7270 C   0  0  0  0  0  0  0  0  0  0  0  0
   60.1670   32.9710   49.6200 N   0  0  0  0  0  0  0  0  0  0  0  0
   58.8880   32.5200   49.4070 C   0  0  0  0  0  0  0  0  0  0  0  0
   58.2900   32.6780   48.1870 N   0  0  0  0  0  0  0  0  0  0  0  0
   59.0070   33.2710   47.2020 C   0  0  0  0  0  0  0  0  0  0  0  0
   57.4937   26.5463   44.0221 H   0  0  0  0  0  0  0  0  0  0  0  0
   57.5692   27.8022   42.7400 H   0  0  0  0  0  0  0  0  0  0  0  0
   58.7479   26.4466   42.7400 H   0  0  0  0  0  0  0  0  0  0  0  0
   59.5365   27.3133   45.0270 H   0  0  0  0  0  0  0  0  0  0  0  0
   59.9160   28.3551   43.6004 H   0  0  0  0  0  0  0  0  0  0  0  0
   58.1697   29.9729   46.7772 H   0  0  0  0  0  0  0  0  0  0  0  0
   59.0150   28.3714   46.7507 H   0  0  0  0  0  0  0  0  0  0  0  0
   60.5862   30.2191   47.2659 H   0  0  0  0  0  0  0  0  0  0  0  0
   60.9885   29.4160   45.7104 H   0  0  0  0  0  0  0  0  0  0  0  0
   60.1604   31.0100   45.7104 H   0  0  0  0  0  0  0  0  0  0  0  0
   56.7080   27.8943   44.4301 H   0  0  0  0  0  0  0  0  0  0  0  0
   56.5519   28.9418   45.8893 H   0  0  0  0  0  0  0  0  0  0  0  0
   56.7734   30.0571   43.0554 H   0  0  0  0  0  0  0  0  0  0  0  0
   55.1987   29.6681   43.8526 H   0  0  0  0  0  0  0  0  0  0  0  0
   57.0184   34.2847   44.7802 H   0  0  0  0  0  0  0  0  0  0  0  0
   56.5384   33.2675   46.1837 H   0  0  0  0  0  0  0  0  0  0  0  0
   59.6735   34.6126   44.3824 H   0  0  0  0  0  0  0  0  0  0  0  0
   61.6250   34.7900   46.1030 H   0  0  0  0  0  0  0  0  0  0  0  0
   63.8564   32.2981   48.2509 H   0  0  0  0  0  0  0  0  0  0  0  0
   62.5237   32.6409   47.0964 H   0  0  0  0  0  0  0  0  0  0  0  0
   63.9982   33.6669   47.0964 H   0  0  0  0  0  0  0  0  0  0  0  0
   58.3398   32.0277   50.2238 H   0  0  0  0  0  0  0  0  0  0  0  0
  1  2  1  0
  2  3  1  0
  3  4  1  0
  4  5  1  0
  3  6  1  0
  6  7  1  0
  7  8  1  0
  8  9  1  0
  9 10  2  0
  9 11  1  0
 11 12  1  0
 12 13  1  0
 13 14  2  0
 14 15  1  0
 15 16  2  0
 16 17  1  0
 17 18  1  0
 16 19  1  0
 19 20  2  0
 20 21  1  0
 21 22  2  0
 22 12  1  0
 22 15  1  0
  1 23  1  0
  1 24  1  0
  1 25  1  0
  2 26  1  0
  2 27  1  0
  4 28  1  0
  4 29  1  0
  5 30  1  0
  5 31  1  0
  5 32  1  0
  6 33  1  0
  6 34  1  0
  7 35  1  0
  7 36  1  0
 11 37  1  0
 11 38  1  0
 13 39  1  0
 14 40  1  0
 18 41  1  0
 18 42  1  0
 18 43  1  0
 20 44  1  0
M  CHG  1  14   1
M  END
>  <UniqueID>  (38) 
36

>  <SMILES>  (38) 
CCN(CC)CCOC(=O)Cn1c[nH+]c2c(SC)ncnc21

>  <Energy>  (38) 
72.99399926962812

>  <Genealogy>  (38) 
CCN(CC)CCOC(=O)Cn1c[nH+]c2c(SC)ncnc21 (protonated)
CCN(CC)CCOC(=O)Cn1c[nH+]c2c(SC)ncnc21 (3D coordinates assigned)
CCN(CC)CCOC(=O)Cn1c[nH+]c2c(SC)ncnc21 (optimized conformer: 72.99399926962812 kcal/mol)

>  <smiles>  (38) 
CCN(CC)CCOC(=O)Cn1cnc2c(SC)ncnc21

>  <score_type>  (38) 
oracle

>  <origin>  (38) 
adg

>  <m_score__min__energy>  (38) 
-4.6900000000000004

>  <m_primary>  (38) 
energy

$$$$
38:0
     RDKit          3D

 46 48  0  0  0  0  0  0  0  0999 V2000
   55.4010   29.3890   44.8640 O   0  0  0  0  0  0  0  0  0  0  0  0
   56.6490   29.3300   44.7100 C   0  0  0  0  0  0  0  0  0  0  0  0
   57.4180   28.0710   44.7210 C   0  0  0  0  0  0  0  0  0  0  0  0
   58.8670   28.5340   44.5010 C   0  0  0  0  0  0  0  0  0  0  0  0
   58.8510   30.0720   44.3810 C   0  0  0  0  0  0  0  0  0  0  0  0
   57.4610   30.4710   44.5200 N   0  0  0  0  0  0  0  0  0  0  0  0
   56.9970   31.8570   44.5440 C   0  0  0  0  0  0  0  0  0  0  0  0
   58.1270   32.8370   44.2100 C   0  0  0  0  0  0  0  0  0  0  0  0
   57.9900   34.0850   44.9980 N   0  0  0  0  0  0  0  0  0  0  0  0
   59.2490   34.8570   45.0580 C   0  0  0  0  0  0  0  0  0  0  0  0
   60.3340   34.0990   45.8410 C   0  0  0  0  0  0  0  0  0  0  0  0
   59.7500   33.3780   46.9790 N   0  0  0  0  0  0  0  0  0  0  0  0
   60.5390   32.3780   47.6550 C   0  0  0  0  0  0  0  0  0  0  0  0
   61.7980   32.4210   47.5730 O   0  0  0  0  0  0  0  0  0  0  0  0
   59.9010   31.2750   48.4640 C   0  0  2  0  0  0  0  0  0  0  0  0
   60.8480   30.0880   48.6220 C   0  0  0  0  0  0  0  0  0  0  0  0
   60.2610   29.0480   47.7180 C   0  0  0  0  0  0  0  0  0  0  0  0
   58.8090   29.4550   47.6380 C   0  0  0  0  0  0  0  0  0  0  0  0
   58.7160   30.8470   47.8250 O   0  0  0  0  0  0  0  0  0  0  0  0
   58.4450   33.8200   47.4840 C   0  0  0  0  0  0  0  0  0  0  0  0
   57.4040   33.8610   46.3460 C   0  0  0  0  0  0  0  0  0  0  0  0
   57.3126   27.5543   45.6863 H   0  0  0  0  0  0  0  0  0  0  0  0
   57.0770   27.3539   43.9598 H   0  0  0  0  0  0  0  0  0  0  0  0
   59.4915   28.2306   45.3542 H   0  0  0  0  0  0  0  0  0  0  0  0
   59.2843   28.0793   43.5904 H   0  0  0  0  0  0  0  0  0  0  0  0
   59.4597   30.5237   45.1781 H   0  0  0  0  0  0  0  0  0  0  0  0
   59.2713   30.4052   43.4206 H   0  0  0  0  0  0  0  0  0  0  0  0
   56.1911   31.9763   43.8049 H   0  0  0  0  0  0  0  0  0  0  0  0
   56.6364   32.0812   45.5587 H   0  0  0  0  0  0  0  0  0  0  0  0
   59.0935   32.3667   44.4441 H   0  0  0  0  0  0  0  0  0  0  0  0
   58.0727   33.0872   43.1402 H   0  0  0  0  0  0  0  0  0  0  0  0
   59.6071   35.0381   44.0338 H   0  0  0  0  0  0  0  0  0  0  0  0
   59.0487   35.8072   45.5747 H   0  0  0  0  0  0  0  0  0  0  0  0
   60.8245   33.3777   45.1708 H   0  0  0  0  0  0  0  0  0  0  0  0
   61.0653   34.8264   46.2231 H   0  0  0  0  0  0  0  0  0  0  0  0
   59.6702   31.6703   49.4642 H   0  0  0  0  0  0  0  0  0  0  0  0
   61.8674   30.3537   48.3054 H   0  0  0  0  0  0  0  0  0  0  0  0
   60.9376   29.7478   49.6642 H   0  0  0  0  0  0  0  0  0  0  0  0
   60.7347   29.0728   46.7255 H   0  0  0  0  0  0  0  0  0  0  0  0
   60.4058   28.0209   48.0842 H   0  0  0  0  0  0  0  0  0  0  0  0
   58.4040   29.1869   46.6511 H   0  0  0  0  0  0  0  0  0  0  0  0
   58.2320   28.9344   48.4165 H   0  0  0  0  0  0  0  0  0  0  0  0
   58.1029   33.1205   48.2610 H   0  0  0  0  0  0  0  0  0  0  0  0
   58.5521   34.8321   47.9013 H   0  0  0  0  0  0  0  0  0  0  0  0
   56.8664   32.9014   46.3343 H   0  0  0  0  0  0  0  0  0  0  0  0
   56.7419   34.7151   46.5511 H   0  0  0  0  0  0  0  0  0  0  0  0
  1  2  2  0
  2  3  1  0
  3  4  1  0
  4  5  1  0
  5  6  1  0
  6  7  1  0
  7  8  1  0
  8  9  1  0
  9 10  1  0
 10 11  1  0
 11 12  1  0
 12 13  1  0
 13 14  2  0
 13 15  1  0
 15 16  1  0
 16 17  1  0
 17 18  1  0
 18 19  1  0
 12 20  1  0
 20 21  1  0
  6  2  1  0
 21  9  1  0
 19 15  1  0
  3 22  1  0
  3 23  1  0
  4 24  1  0
  4 25  1  0
  5 26  1  0
  5 27  1  0
  7 28  1  0
  7 29  1  0
  8 30  1  0
  8 31  1  0
 10 32  1  0
 10 33  1  0
 11 34  1  0
 11 35  1  0
 15 36  1  1
 16 37  1  0
 16 38  1  0
 17 39  1  0
 17 40  1  0
 18 41  1  0
 18 42  1  0
 20 43  1  0
 20 44  1  0
 21 45  1  0
 21 46  1  0
M  END
>  <UniqueID>  (39) 
37

>  <SMILES>  (39) 
O=C1CCCN1CCN1CCN(C(=O)[C@@H]2CCCO2)CC1

>  <Energy>  (39) 
57.542418564390964

>  <Genealogy>  (39) 
O=C1CCCN1CCN1CCN(C(=O)[C@@H]2CCCO2)CC1 (chirality)
O=C1CCCN1CCN1CCN(C(=O)[C@@H]2CCCO2)CC1 (3D coordinates assigned)
O=C1CCCN1CCN1CCN(C(=O)[C@@H]2CCCO2)CC1 (nonaromatic ring conformer: 57.542418564390964 kcal/mol)

>  <smiles>  (39) 
O=C1CCCN1CCN1CCN(C(=O)C2CCCO2)CC1

>  <score_type>  (39) 
oracle

>  <origin>  (39) 
adg

>  <m_score__min__energy>  (39) 
-7.1100000000000003

>  <m_primary>  (39) 
energy

$$$$
39:0
     RDKit          3D

 26 27  0  0  0  0  0  0  0  0999 V2000
   58.4500   34.0350   44.9240 C   0  0  0  0  0  0  0  0  0  0  0  0
   57.9520   32.7810   44.2670 C   0  0  0  0  0  0  0  0  0  0  0  0
   57.8990   32.6890   42.8690 C   0  0  0  0  0  0  0  0  0  0  0  0
   57.3920   31.5390   42.2600 C   0  0  0  0  0  0  0  0  0  0  0  0
   56.9310   30.4760   43.0390 C   0  0  0  0  0  0  0  0  0  0  0  0
   56.9820   30.5500   44.4430 C   0  0  0  0  0  0  0  0  0  0  0  0
   56.4840   29.4840   45.2690 N   0  0  0  0  0  0  0  0  0  0  0  0
   56.9990   28.1450   45.2570 C   0  0  0  0  0  0  0  0  0  0  0  0
   58.0990   27.8140   44.6750 N   0  0  0  0  0  0  0  0  0  0  0  0
   58.3610   26.3970   44.8990 C   0  0  0  0  0  0  0  0  0  0  0  0
   57.2020   25.9080   45.7830 C   0  0  0  0  0  0  0  0  0  0  0  0
   56.3800   27.0880   45.9620 N   0  0  0  0  0  0  0  0  0  0  0  0
   57.4710   31.7180   45.0480 C   0  0  0  0  0  0  0  0  0  0  0  0
   58.4041   33.9194   46.0169 H   0  0  0  0  0  0  0  0  0  0  0  0
   59.4902   34.2209   44.6183 H   0  0  0  0  0  0  0  0  0  0  0  0
   57.8207   34.8839   44.6183 H   0  0  0  0  0  0  0  0  0  0  0  0
   58.2577   33.5248   42.2502 H   0  0  0  0  0  0  0  0  0  0  0  0
   57.3557   31.4705   41.1627 H   0  0  0  0  0  0  0  0  0  0  0  0
   56.5260   29.5763   42.5527 H   0  0  0  0  0  0  0  0  0  0  0  0
   55.7590   29.7110   45.9870 H   0  0  0  0  0  0  0  0  0  0  0  0
   58.3745   25.8515   43.9439 H   0  0  0  0  0  0  0  0  0  0  0  0
   59.3392   26.2296   45.3735 H   0  0  0  0  0  0  0  0  0  0  0  0
   56.6365   25.1093   45.2808 H   0  0  0  0  0  0  0  0  0  0  0  0
   57.5460   25.4813   46.7367 H   0  0  0  0  0  0  0  0  0  0  0  0
   55.4980   27.1490   46.5170 H   0  0  0  0  0  0  0  0  0  0  0  0
   57.4775   31.8015   46.1448 H   0  0  0  0  0  0  0  0  0  0  0  0
  1  2  1  0
  2  3  2  0
  3  4  1  0
  4  5  2  0
  5  6  1  0
  6  7  1  0
  7  8  1  0
  8  9  2  0
  9 10  1  0
 10 11  1  0
 11 12  1  0
  6 13  2  0
 13  2  1  0
 12  8  1  0
  1 14  1  0
  1 15  1  0
  1 16  1  0
  3 17  1  0
  4 18  1  0
  5 19  1  0
  7 20  1  0
 10 21  1  0
 10 22  1  0
 11 23  1  0
 11 24  1  0
 12 25  1  0
 13 26  1  0
M  END
>  <UniqueID>  (40) 
38

>  <SMILES>  (40) 
Cc1cccc(NC2=NCCN2)c1

>  <Energy>  (40) 
39.64482914269486

>  <Genealogy>  (40) 
Cc1cccc(NC2=NCCN2)c1 (3D coordinates assigned)
Cc1cccc(NC2=NCCN2)c1 (nonaromatic ring conformer: 39.64482914269486 kcal/mol)

>  <smiles>  (40) 
Cc1cccc(NC2=NCCN2)c1

>  <score_type>  (40) 
oracle

>  <origin>  (40) 
adg

>  <m_score__min__energy>  (40) 
-5.7000000000000002

>  <m_primary>  (40) 
energy

$$$$
40:0
     RDKit          3D

 75 74  0  0  0  0  0  0  0  0999 V2000
   60.4970   34.1977   49.3814 H   0  0  0  0  0  0  0  0  0  0  0  0
   59.6560   33.8190   48.7820 C   0  0  0  0  0  0  0  0  0  0  0  0
   59.0020   32.7250   49.2160 C   0  0  0  0  0  0  0  0  0  0  0  0
   57.9114   32.7965   49.3404 H   0  0  0  0  0  0  0  0  0  0  0  0
   59.6620   31.4060   49.5440 C   0  0  0  0  0  0  0  0  0  0  0  0
   60.7069   31.4357   49.2015 H   0  0  0  0  0  0  0  0  0  0  0  0
   59.6071   31.2572   50.6325 H   0  0  0  0  0  0  0  0  0  0  0  0
   58.9500   30.2290   48.8650 C   0  0  0  0  0  0  0  0  0  0  0  0
   58.7355   29.4608   49.6226 H   0  0  0  0  0  0  0  0  0  0  0  0
   58.0256   30.6130   48.4089 H   0  0  0  0  0  0  0  0  0  0  0  0
   59.7980   29.5990   47.7490 C   0  0  0  0  0  0  0  0  0  0  0  0
   60.8260   29.4680   48.1180 H   0  0  0  0  0  0  0  0  0  0  0  0
   59.3387   28.6356   47.4828 H   0  0  0  0  0  0  0  0  0  0  0  0
   59.8360   30.4650   46.4810 C   0  0  0  0  0  0  0  0  0  0  0  0
   60.7341   31.0991   46.5187 H   0  0  0  0  0  0  0  0  0  0  0  0
   59.8462   29.7800   45.6204 H   0  0  0  0  0  0  0  0  0  0  0  0
   58.5990   31.3770   46.3230 C   0  0  0  0  0  0  0  0  0  0  0  0
   57.6964   30.7653   46.4684 H   0  0  0  0  0  0  0  0  0  0  0  0
   58.6919   32.1757   47.0737 H   0  0  0  0  0  0  0  0  0  0  0  0
   58.5040   32.0640   44.9460 C   0  0  0  0  0  0  0  0  0  0  0  0
   58.5024   33.1525   45.1048 H   0  0  0  0  0  0  0  0  0  0  0  0
   59.3687   31.7147   44.3627 H   0  0  0  0  0  0  0  0  0  0  0  0
   57.2520   31.6960   44.1330 C   0  0  0  0  0  0  0  0  0  0  0  0
   56.6753   32.6099   43.9275 H   0  0  0  0  0  0  0  0  0  0  0  0
   57.5716   31.2220   43.1932 H   0  0  0  0  0  0  0  0  0  0  0  0
   56.4100   30.7550   44.8650 N   0  0  0  0  0  0  0  0  0  0  0  0
   56.0400   29.4690   44.3650 C   0  0  0  0  0  0  0  0  0  0  0  0
   55.7090   29.3530   43.1550 O   0  0  0  0  0  0  0  0  0  0  0  0
   56.0410   28.3540   45.2120 O   0  0  0  0  0  0  0  0  0  0  0  0
   57.1490   28.0210   46.0450 C   0  0  0  0  0  0  0  0  0  0  0  0
   57.6938   28.9414   46.3021 H   0  0  0  0  0  0  0  0  0  0  0  0
   56.7671   27.5296   46.9520 H   0  0  0  0  0  0  0  0  0  0  0  0
   58.1120   27.0490   45.3320 C   0  0  1  0  0  0  0  0  0  0  0  0
   58.9552   26.8901   46.0202 H   0  0  0  0  0  0  0  0  0  0  0  0
   57.4460   25.6840   45.0660 C   0  0  0  0  0  0  0  0  0  0  0  0
   58.0233   24.8949   45.5700 H   0  0  0  0  0  0  0  0  0  0  0  0
   56.4174   25.7074   45.4551 H   0  0  0  0  0  0  0  0  0  0  0  0
   57.4050   25.4170   43.6790 O   0  0  0  0  0  0  0  0  0  0  0  0
   56.8810   24.1270   43.4650 C   0  0  0  0  0  0  0  0  0  0  0  0
   56.6853   23.6453   44.4344 H   0  0  0  0  0  0  0  0  0  0  0  0
   55.9421   24.2022   42.8968 H   0  0  0  0  0  0  0  0  0  0  0  0
   57.6064   23.5262   42.8968 H   0  0  0  0  0  0  0  0  0  0  0  0
   58.6990   27.6430   44.0250 C   0  0  0  0  0  0  0  0  0  0  0  0
   59.0540   28.6642   44.2278 H   0  0  0  0  0  0  0  0  0  0  0  0
   59.5224   26.9915   43.6972 H   0  0  0  0  0  0  0  0  0  0  0  0
   57.7080   27.6930   42.9480 N   0  0  0  0  0  0  0  0  0  0  0  0
   57.9260   26.9760   42.2170 H   0  0  0  0  0  0  0  0  0  0  0  0
   57.6780   28.6450   42.5200 H   0  0  0  0  0  0  0  0  0  0  0  0
   56.7650   27.4870   43.3480 H   0  0  0  0  0  0  0  0  0  0  0  0
   59.2920   34.5510   47.5140 C   0  0  0  0  0  0  0  0  0  0  0  0
   59.1050   35.6075   47.7565 H   0  0  0  0  0  0  0  0  0  0  0  0
   58.3959   34.0713   47.0933 H   0  0  0  0  0  0  0  0  0  0  0  0
   60.3860   34.4770   46.4770 C   0  0  0  0  0  0  0  0  0  0  0  0
   60.3724   35.2026   45.6504 H   0  0  0  0  0  0  0  0  0  0  0  0
   61.3770   33.5680   46.5130 C   0  0  0  0  0  0  0  0  0  0  0  0
   61.0951   32.5118   46.6351 H   0  0  0  0  0  0  0  0  0  0  0  0
   62.8510   33.8910   46.3980 C   0  0  0  0  0  0  0  0  0  0  0  0
   63.0734   34.7725   47.0172 H   0  0  0  0  0  0  0  0  0  0  0  0
   63.0803   34.0884   45.3404 H   0  0  0  0  0  0  0  0  0  0  0  0
   63.7220   32.7160   46.8700 C   0  0  0  0  0  0  0  0  0  0  0  0
   64.5146   33.1118   47.5220 H   0  0  0  0  0  0  0  0  0  0  0  0
   64.1223   32.2311   45.9674 H   0  0  0  0  0  0  0  0  0  0  0  0
   62.9430   31.6380   47.6510 C   0  0  0  0  0  0  0  0  0  0  0  0
   63.3311   30.6528   47.3532 H   0  0  0  0  0  0  0  0  0  0  0  0
   61.8816   31.7815   47.4002 H   0  0  0  0  0  0  0  0  0  0  0  0
   63.0440   31.7490   49.1870 C   0  0  0  0  0  0  0  0  0  0  0  0
   63.5818   30.8638   49.5574 H   0  0  0  0  0  0  0  0  0  0  0  0
   62.0104   31.8219   49.5562 H   0  0  0  0  0  0  0  0  0  0  0  0
   63.7730   33.0020   49.7080 C   0  0  0  0  0  0  0  0  0  0  0  0
   64.5195   33.3086   48.9605 H   0  0  0  0  0  0  0  0  0  0  0  0
   64.2369   32.7349   50.6690 H   0  0  0  0  0  0  0  0  0  0  0  0
   62.8340   34.1790   49.9680 C   0  0  0  0  0  0  0  0  0  0  0  0
   62.7187   34.3235   51.0524 H   0  0  0  0  0  0  0  0  0  0  0  0
   63.2557   35.0905   49.5194 H   0  0  0  0  0  0  0  0  0  0  0  0
   61.8515   33.9703   49.5194 H   0  0  0  0  0  0  0  0  0  0  0  0
  1  2  1  0
  2  3  2  3
  3  4  1  0
  3  5  1  0
  5  6  1  0
  5  7  1  0
  5  8  1  0
  8  9  1  0
  8 10  1  0
  8 11  1  0
 11 12  1  0
 11 13  1  0
 11 14  1  0
 14 15  1  0
 14 16  1  0
 14 17  1  0
 17 18  1  0
 17 19  1  0
 17 20  1  0
 20 21  1  0
 20 22  1  0
 20 23  1  0
 23 24  1  0
 23 25  1  0
 23 26  1  0
 26 27  1  0
 27 28  2  0
 27 29  1  0
 29 30  1  0
 30 31  1  0
 30 32  1  0
 30 33  1  0
 33 34  1  1
 33 35  1  0
 35 36  1  0
 35 37  1  0
 35 38  1  0
 38 39  1  0
 39 40  1  0
 39 41  1  0
 39 42  1  0
 33 43  1  0
 43 44  1  0
 43 45  1  0
 43 46  1  0
 46 47  1  0
 46 48  1  0
 46 49  1  0
  2 50  1  0
 50 51  1  0
 50 52  1  0
 50 53  1  0
 53 54  1  0
 53 55  2  0
 55 56  1  0
 55 57  1  0
 57 58  1  0
 57 59  1  0
 57 60  1  0
 60 61  1  0
 60 62  1  0
 60 63  1  0
 63 64  1  0
 63 65  1  0
 63 66  1  0
 66 67  1  0
 66 68  1  0
 66 69  1  0
 69 70  1  0
 69 71  1  0
 69 72  1  0
 72 73  1  0
 72 74  1  0
 72 75  1  0
M  CHG  2  26  -1  46   1
M  END
>  <UniqueID>  (41) 
39

>  <SMILES>  (41) 
CCCCCC/C=C\CC=CCCCCCCC[N-]C(=O)OC[C@H](C[NH3+])COC

>  <Energy>  (41) 
42.15594505656701

>  <Genealogy>  (41) 
CCCCCCC=CCC=CCCCCCCC[N-]C(=O)OCC(C[NH3+])COC (protonated)
CCCCCCC=CCC=CCCCCCCC[N-]C(=O)OC[C@H](C[NH3+])COC (chirality)
CCCCCC/C=C\CC=CCCCCCCC[N-]C(=O)OC[C@H](C[NH3+])COC (cis-trans isomerization)
CCCCCC/C=C\CC=CCCCCCCC[N-]C(=O)OC[C@H](C[NH3+])COC (3D coordinates assigned)
CCCCCC/C=C\CC=CCCCCCCC[N-]C(=O)OC[C@H](C[NH3+])COC (optimized conformer: 42.15594505656701 kcal/mol)

>  <smiles>  (41) 
CCCCCCC=CCC=CCCCCCCCNC(=O)OCC(CN)COC

>  <score_type>  (41) 
oracle

>  <origin>  (41) 
adg

>  <m_score__min__energy>  (41) 
-6.2000000000000002

>  <m_primary>  (41) 
energy

$$$$
41:0
     RDKit          3D

 48 51  0  0  0  0  0  0  0  0999 V2000
   55.7053   22.7657   43.0669 H   0  0  0  0  0  0  0  0  0  0  0  0
   55.8830   22.8640   44.1480 C   0  0  0  0  0  0  0  0  0  0  0  0
   56.1020   21.7260   44.9240 C   0  0  0  0  0  0  0  0  0  0  0  0
   56.0880   20.7308   44.4555 H   0  0  0  0  0  0  0  0  0  0  0  0
   56.3390   21.8480   46.2950 C   0  0  0  0  0  0  0  0  0  0  0  0
   56.5173   20.9476   46.9013 H   0  0  0  0  0  0  0  0  0  0  0  0
   56.3510   23.1130   46.9040 C   0  0  0  0  0  0  0  0  0  0  0  0
   56.6090   23.2330   48.3810 C   0  0  0  0  0  0  0  0  0  0  0  0
   55.7485   22.8328   48.9372 H   0  0  0  0  0  0  0  0  0  0  0  0
   57.5124   22.6626   48.6430 H   0  0  0  0  0  0  0  0  0  0  0  0
   56.7548   24.2914   48.6430 H   0  0  0  0  0  0  0  0  0  0  0  0
   56.0950   24.2650   46.1280 C   0  0  0  0  0  0  0  0  0  0  0  0
   56.1370   25.5600   46.7540 N   0  0  0  0  0  0  0  0  0  0  0  0
   56.6600   26.6470   46.2620 C   0  0  0  0  0  0  0  0  0  0  0  0
   55.9040   27.5740   45.6030 N   0  0  0  0  0  0  0  0  0  0  0  0
   56.4460   28.7280   45.1090 C   0  0  0  0  0  0  0  0  0  0  0  0
   55.6470   29.6510   44.4330 C   0  0  0  0  0  0  0  0  0  0  0  0
   54.5742   29.4512   44.2942 H   0  0  0  0  0  0  0  0  0  0  0  0
   56.2080   30.8290   43.9320 C   0  0  0  0  0  0  0  0  0  0  0  0
   55.5715   31.5499   43.3979 H   0  0  0  0  0  0  0  0  0  0  0  0
   57.5790   31.1040   44.1030 C   0  0  0  0  0  0  0  0  0  0  0  0
   58.1530   32.3300   43.5920 N   0  0  0  0  0  0  0  0  0  0  0  0
   58.4070   33.4610   44.4980 C   0  0  0  0  0  0  0  0  0  0  0  0
   58.4837   34.3852   43.9063 H   0  0  0  0  0  0  0  0  0  0  0  0
   59.3448   33.2705   45.0405 H   0  0  0  0  0  0  0  0  0  0  0  0
   57.2790   33.6130   45.5170 C   0  0  0  0  0  0  0  0  0  0  0  0
   57.6938   33.5571   46.5342 H   0  0  0  0  0  0  0  0  0  0  0  0
   56.7854   34.5858   45.3752 H   0  0  0  0  0  0  0  0  0  0  0  0
   56.5455   32.8056   45.3752 H   0  0  0  0  0  0  0  0  0  0  0  0
   58.4950   32.4630   42.1670 C   0  0  0  0  0  0  0  0  0  0  0  0
   58.9375   33.4550   41.9936 H   0  0  0  0  0  0  0  0  0  0  0  0
   59.2116   31.6718   41.9015 H   0  0  0  0  0  0  0  0  0  0  0  0
   57.2530   32.3100   41.2940 C   0  0  0  0  0  0  0  0  0  0  0  0
   56.3656   32.2007   41.9348 H   0  0  0  0  0  0  0  0  0  0  0  0
   57.1392   33.2009   40.6589 H   0  0  0  0  0  0  0  0  0  0  0  0
   57.3588   31.4181   40.6589 H   0  0  0  0  0  0  0  0  0  0  0  0
   58.3850   30.1710   44.7830 C   0  0  0  0  0  0  0  0  0  0  0  0
   59.4580   30.3714   44.9193 H   0  0  0  0  0  0  0  0  0  0  0  0
   57.8260   28.9860   45.2880 C   0  0  0  0  0  0  0  0  0  0  0  0
   58.5560   28.0510   45.9600 N   0  0  0  0  0  0  0  0  0  0  0  0
   59.8620   28.0000   46.2970 C   0  0  0  0  0  0  0  0  0  0  0  0
   60.5927   28.7836   46.0479 H   0  0  0  0  0  0  0  0  0  0  0  0
   60.1660   26.8700   46.9780 N   0  0  0  0  0  0  0  0  0  0  0  0
   58.9990   26.1900   47.0670 C   0  0  0  0  0  0  0  0  0  0  0  0
   58.8592   25.2157   47.5581 H   0  0  0  0  0  0  0  0  0  0  0  0
   58.0170   26.9220   46.4400 C   0  0  0  0  0  0  0  0  0  0  0  0
   55.8890   24.1290   44.7420 C   0  0  0  0  0  0  0  0  0  0  0  0
   55.7317   25.0243   44.1225 H   0  0  0  0  0  0  0  0  0  0  0  0
  1  2  1  0
  2  3  2  0
  3  4  1  0
  3  5  1  0
  5  6  1  0
  5  7  2  0
  7  8  1  0
  8  9  1  0
  8 10  1  0
  8 11  1  0
  7 12  1  0
 12 13  1  0
 13 14  2  0
 14 15  1  0
 15 16  1  0
 16 17  2  0
 17 18  1  0
 17 19  1  0
 19 20  1  0
 19 21  2  0
 21 22  1  0
 22 23  1  0
 23 24  1  0
 23 25  1  0
 23 26  1  0
 26 27  1  0
 26 28  1  0
 26 29  1  0
 22 30  1  0
 30 31  1  0
 30 32  1  0
 30 33  1  0
 33 34  1  0
 33 35  1  0
 33 36  1  0
 21 37  1  0
 37 38  1  0
 37 39  2  0
 39 40  1  0
 40 41  1  0
 41 42  1  0
 41 43  2  0
 43 44  1  0
 44 45  1  0
 44 46  2  0
 12 47  2  0
 47 48  1  0
 47  2  1  0
 46 14  1  0
 39 16  1  0
 46 40  1  0
M  CHG  1  15  -1
M  END
>  <UniqueID>  (42) 
40

>  <SMILES>  (42) 
CCN(CC)c1ccc2[n-]/c(=N\c3ccccc3C)c3cncn3c2c1

>  <Energy>  (42) 
96.41668299140565

>  <Genealogy>  (42) 
CCN(CC)c1ccc2[n-]c(=Nc3ccccc3C)c3cncn3c2c1 (protonated)
CCN(CC)c1ccc2[n-]/c(=N\c3ccccc3C)c3cncn3c2c1 (cis-trans isomerization)
CCN(CC)c1ccc2[n-]/c(=N\c3ccccc3C)c3cncn3c2c1 (3D coordinates assigned)
CCN(CC)c1ccc2[n-]/c(=N\c3ccccc3C)c3cncn3c2c1 (optimized conformer: 96.41668299140565 kcal/mol)

>  <smiles>  (42) 
CCN(CC)c1ccc2[nH]c(=Nc3ccccc3C)c3cncn3c2c1

>  <score_type>  (42) 
oracle

>  <origin>  (42) 
adg

>  <m_score__min__energy>  (42) 
-9.3800000000000008

>  <m_primary>  (42) 
energy

$$$$
42:0
     RDKit          3D

 34 35  0  0  0  0  0  0  0  0999 V2000
   58.1429   32.6842   42.9255 H   0  0  0  0  0  0  0  0  0  0  0  0
   57.6530   31.8110   43.3810 C   0  0  0  0  0  0  0  0  0  0  0  0
   57.6640   31.6380   44.7700 C   0  0  0  0  0  0  0  0  0  0  0  0
   58.3440   32.6360   45.6510 C   0  0  0  0  0  0  0  0  0  0  0  0
   58.1666   32.3757   46.7049 H   0  0  0  0  0  0  0  0  0  0  0  0
   59.4251   32.6276   45.4482 H   0  0  0  0  0  0  0  0  0  0  0  0
   57.9407   33.6391   45.4482 H   0  0  0  0  0  0  0  0  0  0  0  0
   57.0360   30.5630   45.3200 N   0  0  0  0  0  0  0  0  0  0  0  0
   56.3860   29.6320   44.5710 C   0  0  0  0  0  0  0  0  0  0  0  0
   55.8110   28.6360   45.1830 N   0  0  0  0  0  0  0  0  0  0  0  0
   56.4190   27.4090   45.6160 C   0  0  0  0  0  0  0  0  0  0  0  0
   55.6980   26.5300   46.1590 O   0  0  0  0  0  0  0  0  0  0  0  0
   57.8760   27.1050   45.3700 C   0  0  0  0  0  0  0  0  0  0  0  0
   58.0606   27.1092   44.2856 H   0  0  0  0  0  0  0  0  0  0  0  0
   58.0945   26.1205   45.8094 H   0  0  0  0  0  0  0  0  0  0  0  0
   58.7870   28.1160   46.0220 C   0  0  0  0  0  0  0  0  0  0  0  0
   59.8910   28.6340   45.3270 C   0  0  0  0  0  0  0  0  0  0  0  0
   60.0841   28.3181   44.2912 H   0  0  0  0  0  0  0  0  0  0  0  0
   60.7450   29.5490   45.9460 C   0  0  0  0  0  0  0  0  0  0  0  0
   61.6099   29.9501   45.3973 H   0  0  0  0  0  0  0  0  0  0  0  0
   60.5040   29.9560   47.2590 C   0  0  0  0  0  0  0  0  0  0  0  0
   61.1817   30.6767   47.7400 H   0  0  0  0  0  0  0  0  0  0  0  0
   59.4060   29.4540   47.9690 C   0  0  0  0  0  0  0  0  0  0  0  0
   59.2080   29.8940   49.2860 O   0  0  0  0  0  0  0  0  0  0  0  0
   58.9030   31.2360   49.6490 C   0  0  0  0  0  0  0  0  0  0  0  0
   58.8830   31.3238   50.7453 H   0  0  0  0  0  0  0  0  0  0  0  0
   59.6709   31.9097   49.2411 H   0  0  0  0  0  0  0  0  0  0  0  0
   57.9193   31.5116   49.2411 H   0  0  0  0  0  0  0  0  0  0  0  0
   58.5450   28.5330   47.3420 C   0  0  0  0  0  0  0  0  0  0  0  0
   57.6768   28.1371   47.8893 H   0  0  0  0  0  0  0  0  0  0  0  0
   56.3840   29.7660   43.1680 C   0  0  0  0  0  0  0  0  0  0  0  0
   55.8893   29.0103   42.5401 H   0  0  0  0  0  0  0  0  0  0  0  0
   57.0140   30.8640   42.5810 C   0  0  0  0  0  0  0  0  0  0  0  0
   57.0067   30.9826   41.4874 H   0  0  0  0  0  0  0  0  0  0  0  0
  1  2  1  0
  2  3  2  0
  3  4  1  0
  4  5  1  0
  4  6  1  0
  4  7  1  0
  3  8  1  0
  8  9  1  0
  9 10  2  0
 10 11  1  0
 11 12  2  0
 11 13  1  0
 13 14  1  0
 13 15  1  0
 13 16  1  0
 16 17  2  0
 17 18  1  0
 17 19  1  0
 19 20  1  0
 19 21  2  0
 21 22  1  0
 21 23  1  0
 23 24  1  0
 24 25  1  0
 25 26  1  0
 25 27  1  0
 25 28  1  0
 23 29  2  0
 29 30  1  0
  9 31  1  0
 31 32  1  0
 31 33  2  0
 33 34  1  0
 33  2  1  0
 29 16  1  0
M  CHG  1   8  -1
M  END
>  <UniqueID>  (43) 
41

>  <SMILES>  (43) 
COc1cccc(CC(=O)/N=c2\cccc(C)[n-]2)c1

>  <Energy>  (43) 
41.232060423253834

>  <Genealogy>  (43) 
COc1cccc(CC(=O)N=c2cccc(C)[n-]2)c1 (protonated)
COc1cccc(CC(=O)/N=c2\cccc(C)[n-]2)c1 (cis-trans isomerization)
COc1cccc(CC(=O)/N=c2\cccc(C)[n-]2)c1 (3D coordinates assigned)
COc1cccc(CC(=O)/N=c2\cccc(C)[n-]2)c1 (optimized conformer: 41.232060423253834 kcal/mol)

>  <smiles>  (43) 
COc1cccc(CC(=O)N=c2cccc(C)[nH]2)c1

>  <score_type>  (43) 
oracle

>  <origin>  (43) 
adg

>  <m_score__min__energy>  (43) 
-8.5299999999999994

>  <m_primary>  (43) 
energy

$$$$
43:0
     RDKit          3D

 56 59  0  0  0  0  0  0  0  0999 V2000
   58.1180   32.3410   42.1790 C   0  0  0  0  0  0  0  0  0  0  0  0
   57.5200   32.3440   43.4700 O   0  0  0  0  0  0  0  0  0  0  0  0
   58.1220   32.8590   44.6300 C   0  0  0  0  0  0  0  0  0  0  0  0
   58.3020   34.2450   44.8160 C   0  0  0  0  0  0  0  0  0  0  0  0
   58.8760   34.7320   45.9920 C   0  0  0  0  0  0  0  0  0  0  0  0
   59.2720   33.8490   46.9950 C   0  0  0  0  0  0  0  0  0  0  0  0
   59.1050   32.4740   46.8220 C   0  0  0  0  0  0  0  0  0  0  0  0
   58.5390   31.9650   45.6390 C   0  0  0  0  0  0  0  0  0  0  0  0
   58.3880   30.5400   45.4750 N   0  0  0  0  0  0  0  0  0  0  0  0
   59.3490   29.6180   46.0920 C   0  0  0  0  0  0  0  0  0  0  0  0
   58.6630   28.2860   46.4140 C   0  0  0  0  0  0  0  0  0  0  0  0
   58.0870   27.6570   45.2030 N   0  0  0  0  0  0  0  0  0  0  0  0
   57.1710   26.5410   45.5530 C   0  0  0  0  0  0  0  0  0  0  0  0
   57.9630   25.2320   45.8660 C   0  0  1  0  0  0  0  0  0  0  0  0
   59.3400   25.5200   45.7720 O   0  0  0  0  0  0  0  0  0  0  0  0
   57.6890   24.7820   47.3270 C   0  0  0  0  0  0  0  0  0  0  0  0
   56.7410   23.6690   47.4080 N   0  0  0  0  0  0  0  0  0  0  0  0
   55.4120   23.7160   47.2250 C   0  0  0  0  0  0  0  0  0  0  0  0
   54.8540   22.5000   47.3830 N   0  0  0  0  0  0  0  0  0  0  0  0
   55.9230   21.7260   47.6740 C   0  0  0  0  0  0  0  0  0  0  0  0
   57.0740   22.4250   47.6970 N   0  0  0  0  0  0  0  0  0  0  0  0
   57.6220   24.0730   44.9050 C   0  0  0  0  0  0  0  0  0  0  0  0
   56.4360   24.0620   44.1320 C   0  0  0  0  0  0  0  0  0  0  0  0
   56.1280   22.9760   43.3090 C   0  0  0  0  0  0  0  0  0  0  0  0
   56.9800   21.8740   43.2510 C   0  0  0  0  0  0  0  0  0  0  0  0
   56.6740   20.8200   42.4550 F   0  0  0  0  0  0  0  0  0  0  0  0
   58.1410   21.8520   44.0220 C   0  0  0  0  0  0  0  0  0  0  0  0
   58.4600   22.9340   44.8500 C   0  0  0  0  0  0  0  0  0  0  0  0
   59.5810   22.8540   45.6110 F   0  0  0  0  0  0  0  0  0  0  0  0
   57.4870   28.6190   44.2350 C   0  0  0  0  0  0  0  0  0  0  0  0
   57.1820   29.9940   44.8460 C   0  0  0  0  0  0  0  0  0  0  0  0
   59.2131   32.3355   42.2822 H   0  0  0  0  0  0  0  0  0  0  0  0
   57.7971   31.4445   41.6283 H   0  0  0  0  0  0  0  0  0  0  0  0
   57.8061   33.2407   41.6283 H   0  0  0  0  0  0  0  0  0  0  0  0
   57.9882   34.9472   44.0296 H   0  0  0  0  0  0  0  0  0  0  0  0
   59.0159   35.8147   46.1271 H   0  0  0  0  0  0  0  0  0  0  0  0
   59.7165   34.2360   47.9238 H   0  0  0  0  0  0  0  0  0  0  0  0
   59.4187   31.7824   47.6177 H   0  0  0  0  0  0  0  0  0  0  0  0
   60.1819   29.4401   45.3959 H   0  0  0  0  0  0  0  0  0  0  0  0
   59.7302   30.0628   47.0231 H   0  0  0  0  0  0  0  0  0  0  0  0
   59.4034   27.6012   46.8530 H   0  0  0  0  0  0  0  0  0  0  0  0
   57.8424   28.4857   47.1188 H   0  0  0  0  0  0  0  0  0  0  0  0
   56.5834   26.8244   46.4386 H   0  0  0  0  0  0  0  0  0  0  0  0
   56.5124   26.3504   44.6928 H   0  0  0  0  0  0  0  0  0  0  0  0
   59.4520   26.2750   45.1360 H   0  0  0  0  0  0  0  0  0  0  0  0
   58.6398   24.4681   47.7825 H   0  0  0  0  0  0  0  0  0  0  0  0
   57.2446   25.6358   47.8594 H   0  0  0  0  0  0  0  0  0  0  0  0
   54.8510   24.6294   46.9779 H   0  0  0  0  0  0  0  0  0  0  0  0
   55.8600   20.6455   47.8702 H   0  0  0  0  0  0  0  0  0  0  0  0
   55.7484   24.9193   44.1800 H   0  0  0  0  0  0  0  0  0  0  0  0
   55.2093   22.9904   42.7041 H   0  0  0  0  0  0  0  0  0  0  0  0
   58.8098   20.9797   43.9793 H   0  0  0  0  0  0  0  0  0  0  0  0
   58.1902   28.7572   43.4005 H   0  0  0  0  0  0  0  0  0  0  0  0
   56.5282   28.1914   43.9067 H   0  0  0  0  0  0  0  0  0  0  0  0
   56.8425   30.6777   44.0540 H   0  0  0  0  0  0  0  0  0  0  0  0
   56.3948   29.8853   45.6066 H   0  0  0  0  0  0  0  0  0  0  0  0
  1  2  1  0
  2  3  1  0
  3  4  2  0
  4  5  1  0
  5  6  2  0
  6  7  1  0
  7  8  2  0
  8  9  1  0
  9 10  1  0
 10 11  1  0
 11 12  1  0
 12 13  1  0
 13 14  1  0
 14 15  1  1
 14 16  1  0
 16 17  1  0
 17 18  1  0
 18 19  2  0
 19 20  1  0
 20 21  2  0
 14 22  1  0
 22 23  2  0
 23 24  1  0
 24 25  2  0
 25 26  1  0
 25 27  1  0
 27 28  2  0
 28 29  1  0
 12 30  1  0
 30 31  1  0
  8  3  1  0
 31  9  1  0
 21 17  1  0
 28 22  1  0
  1 32  1  0
  1 33  1  0
  1 34  1  0
  4 35  1  0
  5 36  1  0
  6 37  1  0
  7 38  1  0
 10 39  1  0
 10 40  1  0
 11 41  1  0
 11 42  1  0
 13 43  1  0
 13 44  1  0
 15 45  1  0
 16 46  1  0
 16 47  1  0
 18 48  1  0
 20 49  1  0
 23 50  1  0
 24 51  1  0
 27 52  1  0
 30 53  1  0
 30 54  1  0
 31 55  1  0
 31 56  1  0
M  END
>  <UniqueID>  (44) 
42

>  <SMILES>  (44) 
COc1ccccc1N1CCN(C[C@@](O)(Cn2cncn2)c2ccc(F)cc2F)CC1

>  <Energy>  (44) 
109.58838064782209

>  <Genealogy>  (44) 
COc1ccccc1N1CCN(C[C@@](O)(Cn2cncn2)c2ccc(F)cc2F)CC1 (chirality)
COc1ccccc1N1CCN(C[C@@](O)(Cn2cncn2)c2ccc(F)cc2F)CC1 (3D coordinates assigned)
COc1ccccc1N1CCN(C[C@@](O)(Cn2cncn2)c2ccc(F)cc2F)CC1 (nonaromatic ring conformer: 109.58838064782209 kcal/mol)

>  <smiles>  (44) 
COc1ccccc1N1CCN(CC(O)(Cn2cncn2)c2ccc(F)cc2F)CC1

>  <score_type>  (44) 
oracle

>  <origin>  (44) 
adg

>  <m_score__min__energy>  (44) 
-7.8200000000000003

>  <m_primary>  (44) 
energy

$$$$
44:0
     RDKit          3D

 44 46  0  0  0  0  0  0  0  0999 V2000
   67.1100   31.9560   50.9030 C   0  0  0  0  0  0  0  0  0  0  0  0
   66.8520   33.4610   50.8320 C   0  0  0  0  0  0  0  0  0  0  0  0
   65.4800   33.7530   51.0990 O   0  0  0  0  0  0  0  0  0  0  0  0
   64.4170   33.5920   50.1880 C   0  0  0  0  0  0  0  0  0  0  0  0
   64.5340   32.8430   49.0000 C   0  0  0  0  0  0  0  0  0  0  0  0
   63.4400   32.6980   48.1430 C   0  0  0  0  0  0  0  0  0  0  0  0
   62.2080   33.2970   48.4560 C   0  0  0  0  0  0  0  0  0  0  0  0
   61.0260   33.1320   47.5840 C   0  0  0  0  0  0  0  0  0  0  0  0
   60.4840   31.9370   47.2370 N   0  0  0  0  0  0  0  0  0  0  0  0
   59.4240   32.2790   46.4820 C   0  0  0  0  0  0  0  0  0  0  0  0
   58.4780   31.4500   45.8780 C   0  0  0  0  0  0  0  0  0  0  0  0
   57.4480   32.0620   45.1290 C   0  0  0  0  0  0  0  0  0  0  0  0
   56.4530   31.2280   44.5210 N   0  0  0  0  0  0  0  0  0  0  0  0
   56.2950   29.8140   44.7240 C   0  0  0  0  0  0  0  0  0  0  0  0
   55.1460   29.3170   44.8670 O   0  0  0  0  0  0  0  0  0  0  0  0
   57.5010   28.9090   44.7560 C   0  0  0  0  0  0  0  0  0  0  0  0
   57.6630   28.2070   43.4020 C   0  0  0  0  0  0  0  0  0  0  0  0
   57.3970   27.8900   45.8960 C   0  0  0  0  0  0  0  0  0  0  0  0
   57.3880   33.4820   45.0450 C   0  0  0  0  0  0  0  0  0  0  0  0
   58.3580   34.2810   45.6770 C   0  0  0  0  0  0  0  0  0  0  0  0
   59.3620   33.6340   46.3910 C   0  0  0  0  0  0  0  0  0  0  0  0
   60.3550   34.1540   47.0720 O   0  0  0  0  0  0  0  0  0  0  0  0
   62.1020   34.0640   49.6280 C   0  0  0  0  0  0  0  0  0  0  0  0
   63.1960   34.2090   50.4820 C   0  0  0  0  0  0  0  0  0  0  0  0
   67.1637   31.6425   51.9560 H   0  0  0  0  0  0  0  0  0  0  0  0
   66.2907   31.4195   50.4020 H   0  0  0  0  0  0  0  0  0  0  0  0
   68.0612   31.7230   50.4020 H   0  0  0  0  0  0  0  0  0  0  0  0
   67.4808   33.9703   51.5771 H   0  0  0  0  0  0  0  0  0  0  0  0
   67.0971   33.8135   49.8193 H   0  0  0  0  0  0  0  0  0  0  0  0
   65.4935   32.3691   48.7456 H   0  0  0  0  0  0  0  0  0  0  0  0
   63.5437   32.1117   47.2181 H   0  0  0  0  0  0  0  0  0  0  0  0
   60.7780   30.9740   47.5110 H   0  0  0  0  0  0  0  0  0  0  0  0
   58.5323   30.3562   45.9815 H   0  0  0  0  0  0  0  0  0  0  0  0
   58.3948   29.5220   44.9439 H   0  0  0  0  0  0  0  0  0  0  0  0
   57.9076   27.1471   43.5655 H   0  0  0  0  0  0  0  0  0  0  0  0
   56.7236   28.2833   42.8347 H   0  0  0  0  0  0  0  0  0  0  0  0
   58.4739   28.6872   42.8347 H   0  0  0  0  0  0  0  0  0  0  0  0
   57.4504   28.4137   46.8619 H   0  0  0  0  0  0  0  0  0  0  0  0
   56.4395   27.3537   45.8222 H   0  0  0  0  0  0  0  0  0  0  0  0
   58.2265   27.1713   45.8222 H   0  0  0  0  0  0  0  0  0  0  0  0
   56.5742   33.9595   44.4797 H   0  0  0  0  0  0  0  0  0  0  0  0
   58.3241   35.3784   45.6092 H   0  0  0  0  0  0  0  0  0  0  0  0
   61.1487   34.5544   49.8746 H   0  0  0  0  0  0  0  0  0  0  0  0
   63.0976   34.8142   51.3952 H   0  0  0  0  0  0  0  0  0  0  0  0
  1  2  1  0
  2  3  1  0
  3  4  1  0
  4  5  2  0
  5  6  1  0
  6  7  2  0
  7  8  1  0
  8  9  2  0
  9 10  1  0
 10 11  2  0
 11 12  1  0
 12 13  1  0
 13 14  1  0
 14 15  2  0
 14 16  1  0
 16 17  1  0
 16 18  1  0
 12 19  2  0
 19 20  1  0
 20 21  2  0
 21 22  1  0
  7 23  1  0
 23 24  2  0
 24  4  1  0
 22  8  1  0
 21 10  1  0
  1 25  1  0
  1 26  1  0
  1 27  1  0
  2 28  1  0
  2 29  1  0
  5 30  1  0
  6 31  1  0
  9 32  1  0
 11 33  1  0
 16 34  1  0
 17 35  1  0
 17 36  1  0
 17 37  1  0
 18 38  1  0
 18 39  1  0
 18 40  1  0
 19 41  1  0
 20 42  1  0
 23 43  1  0
 24 44  1  0
M  CHG  2   9   1  13  -1
M  END
>  <UniqueID>  (45) 
43

>  <SMILES>  (45) 
CCOc1ccc(-c2[nH+]c3cc([N-]C(=O)C(C)C)ccc3o2)cc1

>  <Energy>  (45) 
82.6524531251379

>  <Genealogy>  (45) 
CCOc1ccc(-c2[nH+]c3cc([N-]C(=O)C(C)C)ccc3o2)cc1 (protonated)
CCOc1ccc(-c2[nH+]c3cc([N-]C(=O)C(C)C)ccc3o2)cc1 (3D coordinates assigned)
CCOc1ccc(-c2[nH+]c3cc([N-]C(=O)C(C)C)ccc3o2)cc1 (optimized conformer: 82.6524531251379 kcal/mol)

>  <smiles>  (45) 
CCOc1ccc(-c2nc3cc(NC(=O)C(C)C)ccc3o2)cc1

>  <score_type>  (45) 
oracle

>  <origin>  (45) 
adg

>  <m_score__min__energy>  (45) 
-7.8799999999999999

>  <m_primary>  (45) 
energy

$$$$
45:0
     RDKit          3D

 47 49  0  0  0  0  0  0  0  0999 V2000
   61.4710   34.2010   49.8520 C   0  0  0  0  0  0  0  0  0  0  0  0
   60.0600   34.2440   49.6370 O   0  0  0  0  0  0  0  0  0  0  0  0
   59.4330   34.0410   48.3890 C   0  0  0  0  0  0  0  0  0  0  0  0
   59.7620   34.7990   47.2500 C   0  0  0  0  0  0  0  0  0  0  0  0
   59.1270   34.5540   46.0260 C   0  0  0  0  0  0  0  0  0  0  0  0
   58.1630   33.5410   45.9190 C   0  0  0  0  0  0  0  0  0  0  0  0
   57.4420   33.2960   44.6210 C   0  0  0  0  0  0  0  0  0  0  0  0
   57.9810   32.0970   43.9770 N   0  0  0  0  0  0  0  0  0  0  0  0
   57.5100   30.7940   44.3380 C   0  0  0  0  0  0  0  0  0  0  0  0
   56.2960   30.6160   44.6140 O   0  0  0  0  0  0  0  0  0  0  0  0
   58.4890   29.6700   44.5030 C   0  0  0  0  0  0  0  0  0  0  0  0
   59.1480   29.7720   45.8530 C   0  0  0  0  0  0  0  0  0  0  0  0
   58.7820   28.8970   46.8850 C   0  0  0  0  0  0  0  0  0  0  0  0
   59.4560   28.9210   48.1060 C   0  0  0  0  0  0  0  0  0  0  0  0
   60.5050   29.8180   48.3100 C   0  0  0  0  0  0  0  0  0  0  0  0
   60.8840   30.7180   47.2960 C   0  0  0  0  0  0  0  0  0  0  0  0
   61.9860   31.6980   47.5140 C   0  0  0  0  0  0  0  0  0  0  0  0
   62.2730   32.8300   46.7430 C   0  0  0  0  0  0  0  0  0  0  0  0
   63.3990   33.5450   47.1830 C   0  0  0  0  0  0  0  0  0  0  0  0
   64.0160   32.9940   48.2990 C   0  0  0  0  0  0  0  0  0  0  0  0
   63.1540   31.6170   48.7330 S   0  0  0  0  0  0  0  0  0  0  0  0
   60.1980   30.6780   46.0620 C   0  0  0  0  0  0  0  0  0  0  0  0
   57.8190   32.7970   47.0580 C   0  0  0  0  0  0  0  0  0  0  0  0
   58.4460   33.0470   48.2970 C   0  0  0  0  0  0  0  0  0  0  0  0
   58.1080   32.3380   49.4610 O   0  0  0  0  0  0  0  0  0  0  0  0
   59.0570   31.7370   50.3330 C   0  0  0  0  0  0  0  0  0  0  0  0
   61.6772   34.1947   50.9325 H   0  0  0  0  0  0  0  0  0  0  0  0
   61.8840   33.2899   49.3946 H   0  0  0  0  0  0  0  0  0  0  0  0
   61.9387   35.0853   49.3946 H   0  0  0  0  0  0  0  0  0  0  0  0
   60.5234   35.5897   47.3215 H   0  0  0  0  0  0  0  0  0  0  0  0
   59.3856   35.1589   45.1444 H   0  0  0  0  0  0  0  0  0  0  0  0
   56.3694   33.1539   44.8195 H   0  0  0  0  0  0  0  0  0  0  0  0
   57.5827   34.1614   43.9567 H   0  0  0  0  0  0  0  0  0  0  0  0
   58.9320   32.1710   43.5610 H   0  0  0  0  0  0  0  0  0  0  0  0
   57.9600   28.7087   44.4250 H   0  0  0  0  0  0  0  0  0  0  0  0
   59.2547   29.7324   43.7157 H   0  0  0  0  0  0  0  0  0  0  0  0
   57.9570   28.1860   46.7309 H   0  0  0  0  0  0  0  0  0  0  0  0
   59.1598   28.2311   48.9099 H   0  0  0  0  0  0  0  0  0  0  0  0
   61.0403   29.8220   49.2710 H   0  0  0  0  0  0  0  0  0  0  0  0
   61.6721   33.1320   45.8725 H   0  0  0  0  0  0  0  0  0  0  0  0
   63.7598   34.4589   46.6885 H   0  0  0  0  0  0  0  0  0  0  0  0
   64.9083   33.3878   48.8075 H   0  0  0  0  0  0  0  0  0  0  0  0
   60.4908   31.3658   45.2551 H   0  0  0  0  0  0  0  0  0  0  0  0
   57.0529   32.0111   46.9841 H   0  0  0  0  0  0  0  0  0  0  0  0
   58.7644   31.9223   51.3771 H   0  0  0  0  0  0  0  0  0  0  0  0
   59.0898   30.6531   50.1482 H   0  0  0  0  0  0  0  0  0  0  0  0
   60.0509   32.1707   50.1482 H   0  0  0  0  0  0  0  0  0  0  0  0
  1  2  1  0
  2  3  1  0
  3  4  2  0
  4  5  1  0
  5  6  2  0
  6  7  1  0
  7  8  1  0
  8  9  1  0
  9 10  2  0
  9 11  1  0
 11 12  1  0
 12 13  2  0
 13 14  1  0
 14 15  2  0
 15 16  1  0
 16 17  1  0
 17 18  2  0
 18 19  1  0
 19 20  2  0
 20 21  1  0
 16 22  2  0
  6 23  1  0
 23 24  2  0
 24 25  1  0
 25 26  1  0
 24  3  1  0
 22 12  1  0
 21 17  1  0
  1 27  1  0
  1 28  1  0
  1 29  1  0
  4 30  1  0
  5 31  1  0
  7 32  1  0
  7 33  1  0
  8 34  1  0
 11 35  1  0
 11 36  1  0
 13 37  1  0
 14 38  1  0
 15 39  1  0
 18 40  1  0
 19 41  1  0
 20 42  1  0
 22 43  1  0
 23 44  1  0
 26 45  1  0
 26 46  1  0
 26 47  1  0
M  END
>  <UniqueID>  (46) 
44

>  <SMILES>  (46) 
COc1ccc(CNC(=O)Cc2cccc(-c3cccs3)c2)cc1OC

>  <Energy>  (46) 
68.64889217582173

>  <Genealogy>  (46) 
COc1ccc(CNC(=O)Cc2cccc(-c3cccs3)c2)cc1OC (3D coordinates assigned)
COc1ccc(CNC(=O)Cc2cccc(-c3cccs3)c2)cc1OC (optimized conformer: 68.64889217582173 kcal/mol)

>  <smiles>  (46) 
COc1ccc(CNC(=O)Cc2cccc(-c3cccs3)c2)cc1OC

>  <score_type>  (46) 
oracle

>  <origin>  (46) 
adg

>  <m_score__min__energy>  (46) 
-8.0600000000000005

>  <m_primary>  (46) 
energy

$$$$
46:0
     RDKit          3D

 54 57  0  0  0  0  0  0  0  0999 V2000
   59.9180   29.1160   48.3940 C   0  0  0  0  0  0  0  0  0  0  0  0
   60.1900   30.5080   48.2740 O   0  0  0  0  0  0  0  0  0  0  0  0
   59.5500   31.3750   47.3720 C   0  0  0  0  0  0  0  0  0  0  0  0
   58.4320   30.9590   46.6210 C   0  0  0  0  0  0  0  0  0  0  0  0
   57.8360   31.8220   45.6860 C   0  0  0  0  0  0  0  0  0  0  0  0
   56.7220   31.4080   44.8850 N   0  0  0  0  0  0  0  0  0  0  0  0
   56.5140   29.8090   44.2380 S   0  0  0  0  0  0  0  0  0  0  0  0
   55.1350   29.3200   44.5900 O   0  0  0  0  0  0  0  0  0  0  0  0
   56.6190   29.8750   42.7400 O   0  0  0  0  0  0  0  0  0  0  0  0
   57.7340   28.6830   44.8400 C   0  0  0  0  0  0  0  0  0  0  0  0
   57.3640   27.6180   45.6780 C   0  0  0  0  0  0  0  0  0  0  0  0
   58.3340   26.7200   46.1450 C   0  0  0  0  0  0  0  0  0  0  0  0
   59.6730   26.8800   45.7700 C   0  0  0  0  0  0  0  0  0  0  0  0
   60.0450   27.9350   44.9270 C   0  0  0  0  0  0  0  0  0  0  0  0
   59.0800   28.8380   44.4710 C   0  0  0  0  0  0  0  0  0  0  0  0
   58.3790   33.0920   45.4840 C   0  0  0  0  0  0  0  0  0  0  0  0
   59.4690   33.5290   46.2410 C   0  0  0  0  0  0  0  0  0  0  0  0
   60.0590   32.6780   47.1960 C   0  0  0  0  0  0  0  0  0  0  0  0
   61.2160   33.1550   47.9940 C   0  0  0  0  0  0  0  0  0  0  0  0
   62.5170   33.0360   47.4720 C   0  0  0  0  0  0  0  0  0  0  0  0
   63.6190   33.4780   48.2080 C   0  0  0  0  0  0  0  0  0  0  0  0
   63.4360   34.0420   49.4720 C   0  0  0  0  0  0  0  0  0  0  0  0
   62.1500   34.1610   50.0080 C   0  0  0  0  0  0  0  0  0  0  0  0
   61.0300   33.7180   49.2770 C   0  0  0  0  0  0  0  0  0  0  0  0
   59.7260   33.8270   49.7880 O   0  0  0  0  0  0  0  0  0  0  0  0
   59.3890   33.8440   51.1730 C   0  0  0  0  0  0  0  0  0  0  0  0
   58.5790   32.6210   51.4830 C   0  0  0  0  0  0  0  0  0  0  0  0
   57.4360   32.7010   52.2930 C   0  0  0  0  0  0  0  0  0  0  0  0
   56.6620   31.5590   52.5330 C   0  0  0  0  0  0  0  0  0  0  0  0
   57.0170   30.3340   51.9580 C   0  0  0  0  0  0  0  0  0  0  0  0
   58.1440   30.2530   51.1400 C   0  0  0  0  0  0  0  0  0  0  0  0
   58.9220   31.3900   50.8980 C   0  0  0  0  0  0  0  0  0  0  0  0
   59.8647   28.8432   49.4583 H   0  0  0  0  0  0  0  0  0  0  0  0
   58.9581   28.8868   47.9082 H   0  0  0  0  0  0  0  0  0  0  0  0
   60.7210   28.5423   47.9082 H   0  0  0  0  0  0  0  0  0  0  0  0
   58.0222   29.9489   46.7684 H   0  0  0  0  0  0  0  0  0  0  0  0
   56.3110   27.4884   45.9684 H   0  0  0  0  0  0  0  0  0  0  0  0
   58.0430   25.8901   46.8058 H   0  0  0  0  0  0  0  0  0  0  0  0
   60.4342   26.1763   46.1378 H   0  0  0  0  0  0  0  0  0  0  0  0
   61.0958   28.0529   44.6239 H   0  0  0  0  0  0  0  0  0  0  0  0
   59.3765   29.6738   43.8202 H   0  0  0  0  0  0  0  0  0  0  0  0
   57.9445   33.7551   44.7215 H   0  0  0  0  0  0  0  0  0  0  0  0
   59.8685   34.5428   46.0905 H   0  0  0  0  0  0  0  0  0  0  0  0
   62.6676   32.5917   46.4771 H   0  0  0  0  0  0  0  0  0  0  0  0
   64.6324   33.3816   47.7911 H   0  0  0  0  0  0  0  0  0  0  0  0
   64.3052   34.3934   50.0473 H   0  0  0  0  0  0  0  0  0  0  0  0
   62.0120   34.6029   51.0058 H   0  0  0  0  0  0  0  0  0  0  0  0
   60.3077   33.8433   51.7780 H   0  0  0  0  0  0  0  0  0  0  0  0
   58.8087   34.7486   51.4076 H   0  0  0  0  0  0  0  0  0  0  0  0
   57.1472   33.6634   52.7407 H   0  0  0  0  0  0  0  0  0  0  0  0
   55.7718   31.6253   53.1758 H   0  0  0  0  0  0  0  0  0  0  0  0
   56.4093   29.4375   52.1504 H   0  0  0  0  0  0  0  0  0  0  0  0
   58.4219   29.2915   50.6836 H   0  0  0  0  0  0  0  0  0  0  0  0
   59.8060   31.3204   50.2471 H   0  0  0  0  0  0  0  0  0  0  0  0
  1  2  1  0
  2  3  1  0
  3  4  2  0
  4  5  1  0
  5  6  1  0
  6  7  1  0
  7  8  2  0
  7  9  2  0
  7 10  1  0
 10 11  2  0
 11 12  1  0
 12 13  2  0
 13 14  1  0
 14 15  2  0
  5 16  2  0
 16 17  1  0
 17 18  2  0
 18 19  1  0
 19 20  2  0
 20 21  1  0
 21 22  2  0
 22 23  1  0
 23 24  2  0
 24 25  1  0
 25 26  1  0
 26 27  1  0
 27 28  2  0
 28 29  1  0
 29 30  2  0
 30 31  1  0
 31 32  2  0
 18  3  1  0
 24 19  1  0
 32 27  1  0
 15 10  1  0
  1 33  1  0
  1 34  1  0
  1 35  1  0
  4 36  1  0
 11 37  1  0
 12 38  1  0
 13 39  1  0
 14 40  1  0
 15 41  1  0
 16 42  1  0
 17 43  1  0
 20 44  1  0
 21 45  1  0
 22 46  1  0
 23 47  1  0
 26 48  1  0
 26 49  1  0
 28 50  1  0
 29 51  1  0
 30 52  1  0
 31 53  1  0
 32 54  1  0
M  CHG  1   6  -1
M  END
>  <UniqueID>  (47) 
45

>  <SMILES>  (47) 
COc1cc([N-]S(=O)(=O)c2ccccc2)ccc1-c1ccccc1OCc1ccccc1

>  <Energy>  (47) 
69.50571067360607

>  <Genealogy>  (47) 
COc1cc([N-]S(=O)(=O)c2ccccc2)ccc1-c1ccccc1OCc1ccccc1 (protonated)
COc1cc([N-]S(=O)(=O)c2ccccc2)ccc1-c1ccccc1OCc1ccccc1 (3D coordinates assigned)
COc1cc([N-]S(=O)(=O)c2ccccc2)ccc1-c1ccccc1OCc1ccccc1 (optimized conformer: 69.50571067360607 kcal/mol)

>  <smiles>  (47) 
COc1cc(NS(=O)(=O)c2ccccc2)ccc1-c1ccccc1OCc1ccccc1

>  <score_type>  (47) 
oracle

>  <origin>  (47) 
adg

>  <m_score__min__energy>  (47) 
-12.08

>  <m_primary>  (47) 
energy

$$$$
