0:0
     RDKit          3D

 18 18  0  0  0  0  0  0  0  0999 V2000
   56.3480   29.9750   44.4340 F   0  0  0  0  0  0  0  0  0  0  0  0
   57.5310   30.1040   45.1400 C   0  0  0  0  0  0  0  0  0  0  0  0
   57.3470   29.4810   46.3640 F   0  0  0  0  0  0  0  0  0  0  0  0
   58.6630   29.3950   44.3900 C   0  0  0  0  0  0  0  0  0  0  0  0
   58.1720   27.5670   43.9590 Br  0  0  0  0  0  0  0  0  0  0  0  0
   57.8710   31.5720   45.3380 C   0  0  0  0  0  0  0  0  0  0  0  0
   58.1440   32.0490   46.6370 C   0  0  0  0  0  0  0  0  0  0  0  0
   58.4860   33.3870   46.8520 C   0  0  0  0  0  0  0  0  0  0  0  0
   58.5780   34.2660   45.7750 C   0  0  0  0  0  0  0  0  0  0  0  0
   58.3390   33.8100   44.4780 C   0  0  0  0  0  0  0  0  0  0  0  0
   57.9960   32.4720   44.2470 C   0  0  0  0  0  0  0  0  0  0  0  0
   57.7590   31.9740   42.5740 Cl  0  0  0  0  0  0  0  0  0  0  0  0
   58.8742   29.9402   43.4582 H   0  0  0  0  0  0  0  0  0  0  0  0
   59.5537   29.3763   45.0352 H   0  0  0  0  0  0  0  0  0  0  0  0
   58.0870   31.3591   47.4918 H   0  0  0  0  0  0  0  0  0  0  0  0
   58.6828   33.7465   47.8728 H   0  0  0  0  0  0  0  0  0  0  0  0
   58.8393   35.3205   45.9472 H   0  0  0  0  0  0  0  0  0  0  0  0
   58.4206   34.5067   43.6307 H   0  0  0  0  0  0  0  0  0  0  0  0
  1  2  1  0
  2  3  1  0
  2  4  1  0
  4  5  1  0
  2  6  1  0
  6  7  2  0
  7  8  1  0
  8  9  2  0
  9 10  1  0
 10 11  2  0
 11 12  1  0
 11  6  1  0
  4 13  1  0
  4 14  1  0
  7 15  1  0
  8 16  1  0
  9 17  1  0
 10 18  1  0
M  END
>  <UniqueID>  (1) 
1

>  <SMILES>  (1) 
FC(F)(CBr)c1ccccc1Cl

>  <Energy>  (1) 
17.5626186261983

>  <Genealogy>  (1) 
FC(F)(CBr)c1ccccc1Cl (3D coordinates assigned)
FC(F)(CBr)c1ccccc1Cl (optimized conformer: 17.5626186261983 kcal/mol)

>  <smiles>  (1) 
FC(F)(CBr)c1ccccc1Cl

>  <score_type>  (1) 
oracle

>  <origin>  (1) 
adg

>  <m_score__min__energy>  (1) 
-4.9699999999999998

>  <m_primary>  (1) 
energy

$$$$
1:0
     RDKit          3D

 38 40  0  0  0  0  0  0  0  0999 V2000
   55.9220   23.1800   45.1600 C   0  0  0  0  0  0  0  0  0  0  0  0
   56.8240   24.4000   44.9340 C   0  0  0  0  0  0  0  0  0  0  0  0
   57.0750   24.6450   43.4430 C   0  0  0  0  0  0  0  0  0  0  0  0
   56.3130   25.6500   45.6190 C   0  0  0  0  0  0  0  0  0  0  0  0
   55.1100   25.6790   45.9950 O   0  0  0  0  0  0  0  0  0  0  0  0
   57.1230   26.8220   45.7990 N   0  0  0  0  0  0  0  0  0  0  0  0
   58.4400   26.8060   46.1190 C   0  0  0  0  0  0  0  0  0  0  0  0
   58.9070   28.1060   46.1590 C   0  0  0  0  0  0  0  0  0  0  0  0
   60.1760   28.6050   46.4400 C   0  0  0  0  0  0  0  0  0  0  0  0
   60.3690   30.0000   46.3820 C   0  0  0  0  0  0  0  0  0  0  0  0
   61.6400   30.5120   46.6810 O   0  0  0  0  0  0  0  0  0  0  0  0
   61.8920   31.6110   47.5140 C   0  0  0  0  0  0  0  0  0  0  0  0
   62.9050   32.5090   47.1550 C   0  0  0  0  0  0  0  0  0  0  0  0
   63.1830   33.6200   47.9570 C   0  0  0  0  0  0  0  0  0  0  0  0
   62.4380   33.8490   49.1170 C   0  0  0  0  0  0  0  0  0  0  0  0
   62.7060   34.9280   49.8930 F   0  0  0  0  0  0  0  0  0  0  0  0
   61.4080   32.9720   49.4710 C   0  0  0  0  0  0  0  0  0  0  0  0
   61.1270   31.8590   48.6710 C   0  0  0  0  0  0  0  0  0  0  0  0
   60.0860   31.0540   49.0020 F   0  0  0  0  0  0  0  0  0  0  0  0
   59.2740   30.8520   46.0650 C   0  0  0  0  0  0  0  0  0  0  0  0
   58.0050   30.3140   45.7830 C   0  0  0  0  0  0  0  0  0  0  0  0
   57.8600   28.9310   45.8420 C   0  0  0  0  0  0  0  0  0  0  0  0
   56.7740   28.1190   45.6130 C   0  0  0  0  0  0  0  0  0  0  0  0
   55.5200   28.5550   45.2070 O   0  0  0  0  0  0  0  0  0  0  0  0
   55.7972   23.0112   46.2398 H   0  0  0  0  0  0  0  0  0  0  0  0
   54.9388   23.3609   44.7011 H   0  0  0  0  0  0  0  0  0  0  0  0
   56.3832   22.2930   44.7011 H   0  0  0  0  0  0  0  0  0  0  0  0
   57.7876   24.1594   45.4068 H   0  0  0  0  0  0  0  0  0  0  0  0
   57.8575   25.4088   43.3236 H   0  0  0  0  0  0  0  0  0  0  0  0
   57.4012   23.7084   42.9673 H   0  0  0  0  0  0  0  0  0  0  0  0
   56.1465   24.9938   42.9673 H   0  0  0  0  0  0  0  0  0  0  0  0
   59.0396   25.9048   46.3150 H   0  0  0  0  0  0  0  0  0  0  0  0
   61.0045   27.9297   46.6999 H   0  0  0  0  0  0  0  0  0  0  0  0
   63.4856   32.3392   46.2363 H   0  0  0  0  0  0  0  0  0  0  0  0
   63.9884   34.3141   47.6748 H   0  0  0  0  0  0  0  0  0  0  0  0
   60.8174   33.1575   50.3803 H   0  0  0  0  0  0  0  0  0  0  0  0
   59.4213   31.9418   46.0402 H   0  0  0  0  0  0  0  0  0  0  0  0
   57.1562   30.9643   45.5247 H   0  0  0  0  0  0  0  0  0  0  0  0
  1  2  1  0
  2  3  1  0
  2  4  1  0
  4  5  2  0
  4  6  1  0
  6  7  1  0
  7  8  2  0
  8  9  1  0
  9 10  2  0
 10 11  1  0
 11 12  1  0
 12 13  2  0
 13 14  1  0
 14 15  2  0
 15 16  1  0
 15 17  1  0
 17 18  2  0
 18 19  1  0
 10 20  1  0
 20 21  2  0
 21 22  1  0
 22 23  2  0
 23 24  1  0
 23  6  1  0
 22  8  1  0
 18 12  1  0
  1 25  1  0
  1 26  1  0
  1 27  1  0
  2 28  1  0
  3 29  1  0
  3 30  1  0
  3 31  1  0
  7 32  1  0
  9 33  1  0
 13 34  1  0
 14 35  1  0
 17 36  1  0
 20 37  1  0
 21 38  1  0
M  CHG  1  24  -1
M  END
>  <UniqueID>  (2) 
2

>  <SMILES>  (2) 
CC(C)C(=O)n1cc2cc(Oc3ccc(F)cc3F)ccc2c1[O-]

>  <Energy>  (2) 
85.53783582108476

>  <Genealogy>  (2) 
CC(C)C(=O)n1cc2cc(Oc3ccc(F)cc3F)ccc2c1[O-] (protonated)
CC(C)C(=O)n1cc2cc(Oc3ccc(F)cc3F)ccc2c1[O-] (3D coordinates assigned)
CC(C)C(=O)n1cc2cc(Oc3ccc(F)cc3F)ccc2c1[O-] (optimized conformer: 85.53783582108476 kcal/mol)

>  <smiles>  (2) 
CC(C)C(=O)n1cc2cc(Oc3ccc(F)cc3F)ccc2c1O

>  <score_type>  (2) 
oracle

>  <origin>  (2) 
adg

>  <m_score__min__energy>  (2) 
-10.720000000000001

>  <m_primary>  (2) 
energy

$$$$
2:0
     RDKit          3D

 43 47  0  0  0  0  0  0  0  0999 V2000
   63.0132   31.4642   52.5300 H   0  0  0  0  0  0  0  0  0  0  0  0
   62.6410   32.1920   51.7940 C   0  0  0  0  0  0  0  0  0  0  0  0
   61.8890   31.7650   50.7710 C   0  0  0  0  0  0  0  0  0  0  0  0
   61.5960   30.3700   50.6630 N   0  0  0  0  0  0  0  0  0  0  0  0
   61.1140   29.8760   49.5670 C   0  0  0  0  0  0  0  0  0  0  0  0
   60.7730   28.2500   49.3470 S   0  0  0  0  0  0  0  0  0  0  0  0
   60.3930   28.4420   47.7170 C   0  0  0  0  0  0  0  0  0  0  0  0
   60.0060   27.4260   46.9290 C   0  0  0  0  0  0  0  0  0  0  0  0
   60.7893   26.7804   46.5051 H   0  0  0  0  0  0  0  0  0  0  0  0
   58.6040   27.1150   46.5920 C   0  0  0  0  0  0  0  0  0  0  0  0
   57.9880   25.9510   47.0830 C   0  0  0  0  0  0  0  0  0  0  0  0
   58.5649   25.2410   47.6938 H   0  0  0  0  0  0  0  0  0  0  0  0
   56.6430   25.6930   46.7970 C   0  0  0  0  0  0  0  0  0  0  0  0
   56.1670   24.7756   47.1734 H   0  0  0  0  0  0  0  0  0  0  0  0
   55.9030   26.6020   46.0320 C   0  0  0  0  0  0  0  0  0  0  0  0
   54.5690   26.3410   45.7430 O   0  0  0  0  0  0  0  0  0  0  0  0
   56.5050   27.7720   45.5610 C   0  0  0  0  0  0  0  0  0  0  0  0
   55.9218   28.4871   44.9622 H   0  0  0  0  0  0  0  0  0  0  0  0
   57.8480   28.0350   45.8500 C   0  0  0  0  0  0  0  0  0  0  0  0
   58.3130   28.9663   45.4943 H   0  0  0  0  0  0  0  0  0  0  0  0
   60.5430   29.8010   47.3960 C   0  0  0  0  0  0  0  0  0  0  0  0
   60.3460   30.2590   46.2370 O   0  0  0  0  0  0  0  0  0  0  0  0
   60.9110   30.6080   48.4420 N   0  0  0  0  0  0  0  0  0  0  0  0
   61.2370   32.0510   48.3460 C   0  0  1  0  0  0  0  0  0  0  0  0
   62.2328   32.1272   47.8850 H   0  0  0  0  0  0  0  0  0  0  0  0
   60.2290   32.7720   47.4810 C   0  0  0  0  0  0  0  0  0  0  0  0
   58.5550   32.7200   47.6730 S   0  0  0  0  0  0  0  0  0  0  0  0
   58.1920   33.7350   46.3830 C   0  0  0  0  0  0  0  0  0  0  0  0
   57.1829   34.0374   46.0663 H   0  0  0  0  0  0  0  0  0  0  0  0
   59.3830   34.1270   45.7850 C   0  0  0  0  0  0  0  0  0  0  0  0
   59.4272   34.7978   44.9143 H   0  0  0  0  0  0  0  0  0  0  0  0
   60.5230   33.5870   46.3960 C   0  0  0  0  0  0  0  0  0  0  0  0
   61.5477   33.7886   46.0506 H   0  0  0  0  0  0  0  0  0  0  0  0
   61.2930   32.7230   49.7510 C   0  0  2  0  0  0  0  0  0  0  0  0
   60.2651   32.9535   50.0677 H   0  0  0  0  0  0  0  0  0  0  0  0
   62.0380   34.0490   49.7060 C   0  0  0  0  0  0  0  0  0  0  0  0
   61.6600   34.9380   48.9590 O   0  0  0  0  0  0  0  0  0  0  0  0
   63.2280   34.2900   50.5930 C   0  0  0  0  0  0  0  0  0  0  0  0
   64.1242   33.8491   50.1321 H   0  0  0  0  0  0  0  0  0  0  0  0
   63.3766   35.3723   50.7213 H   0  0  0  0  0  0  0  0  0  0  0  0
   62.9860   33.6440   51.9560 C   0  0  0  0  0  0  0  0  0  0  0  0
   63.8966   33.7341   52.5664 H   0  0  0  0  0  0  0  0  0  0  0  0
   62.1473   34.1567   52.4496 H   0  0  0  0  0  0  0  0  0  0  0  0
  1  2  1  0
  2  3  2  0
  3  4  1  0
  4  5  2  0
  5  6  1  0
  6  7  1  0
  7  8  2  0
  8  9  1  0
  8 10  1  0
 10 11  2  0
 11 12  1  0
 11 13  1  0
 13 14  1  0
 13 15  2  0
 15 16  1  0
 15 17  1  0
 17 18  1  0
 17 19  2  0
 19 20  1  0
  7 21  1  0
 21 22  2  0
 21 23  1  0
 23 24  1  0
 24 25  1  6
 24 26  1  0
 26 27  1  0
 27 28  1  0
 28 29  1  0
 28 30  2  0
 30 31  1  0
 30 32  1  0
 32 33  1  0
 24 34  1  0
 34 35  1  1
 34 36  1  0
 36 37  2  0
 36 38  1  0
 38 39  1  0
 38 40  1  0
 38 41  1  0
 41 42  1  0
 41 43  1  0
 41  2  1  0
 34  3  1  0
 23  5  1  0
 32 26  2  0
 19 10  1  0
M  CHG  1  16  -1
M  END
>  <UniqueID>  (3) 
3

>  <SMILES>  (3) 
O=C1CCC=C2N=c3s/c(=C/c4ccc([O-])cc4)c(=O)n3[C@@H](c3cccs3)[C@H]12

>  <Energy>  (3) 
119.42872566194313

>  <Genealogy>  (3) 
O=C1CCC=C2N=c3sc(=Cc4ccc([O-])cc4)c(=O)n3C(c3cccs3)C12 (protonated)
O=C1CCC=C2N=c3sc(=Cc4ccc([O-])cc4)c(=O)n3[C@@H](c3cccs3)[C@H]12 (chirality)
O=C1CCC=C2N=c3s/c(=C/c4ccc([O-])cc4)c(=O)n3[C@@H](c3cccs3)[C@H]12 (cis-trans isomerization)
O=C1CCC=C2N=c3s/c(=C/c4ccc([O-])cc4)c(=O)n3[C@@H](c3cccs3)[C@H]12 (3D coordinates assigned)
O=C1CCC=C2N=c3s/c(=C/c4ccc([O-])cc4)c(=O)n3[C@@H](c3cccs3)[C@H]12 (nonaromatic ring conformer: 119.42872566194313 kcal/mol)

>  <smiles>  (3) 
O=C1CCC=C2N=c3sc(=Cc4ccc(O)cc4)c(=O)n3C(c3cccs3)C12

>  <score_type>  (3) 
oracle

>  <origin>  (3) 
adg

>  <m_score__min__energy>  (3) 
-11.4

>  <m_primary>  (3) 
energy

$$$$
3:0
     RDKit          3D

 32 34  0  0  0  0  0  0  0  0999 V2000
   60.3830   27.6100   49.2160 C   0  0  0  0  0  0  0  0  0  0  0  0
   60.7190   27.4920   47.8380 O   0  0  0  0  0  0  0  0  0  0  0  0
   59.8320   27.7380   46.7780 C   0  0  0  0  0  0  0  0  0  0  0  0
   59.0730   26.7090   46.1870 C   0  0  0  0  0  0  0  0  0  0  0  0
   58.1980   26.9860   45.1340 C   0  0  0  0  0  0  0  0  0  0  0  0
   58.0670   28.2940   44.6550 C   0  0  0  0  0  0  0  0  0  0  0  0
   57.2150   28.5840   43.6300 N   0  0  0  0  0  0  0  0  0  0  0  0
   57.0860   29.8560   43.1650 C   0  0  0  0  0  0  0  0  0  0  0  0
   57.8360   30.8840   43.7460 C   0  0  0  0  0  0  0  0  0  0  0  0
   57.6780   32.5690   43.1640 S   0  0  0  0  0  0  0  0  0  0  0  0
   58.1620   33.2510   44.7500 C   0  0  0  0  0  0  0  0  0  0  0  0
   59.2840   34.0850   44.8410 C   0  0  0  0  0  0  0  0  0  0  0  0
   59.6660   34.6120   46.0800 C   0  0  0  0  0  0  0  0  0  0  0  0
   58.9260   34.3090   47.2270 C   0  0  0  0  0  0  0  0  0  0  0  0
   59.2970   34.8200   48.4270 F   0  0  0  0  0  0  0  0  0  0  0  0
   57.8030   33.4790   47.1370 C   0  0  0  0  0  0  0  0  0  0  0  0
   57.4210   32.9510   45.9000 C   0  0  0  0  0  0  0  0  0  0  0  0
   58.6870   30.5980   44.7650 N   0  0  0  0  0  0  0  0  0  0  0  0
   58.8240   29.3310   45.2390 C   0  0  0  0  0  0  0  0  0  0  0  0
   59.7020   29.0530   46.2980 C   0  0  0  0  0  0  0  0  0  0  0  0
   60.7270   30.4650   47.0980 Br  0  0  0  0  0  0  0  0  0  0  0  0
   61.2438   27.3077   49.8305 H   0  0  0  0  0  0  0  0  0  0  0  0
   60.1203   28.6542   49.4413 H   0  0  0  0  0  0  0  0  0  0  0  0
   59.5251   26.9593   49.4413 H   0  0  0  0  0  0  0  0  0  0  0  0
   59.1702   25.6780   46.5580 H   0  0  0  0  0  0  0  0  0  0  0  0
   57.6107   26.1740   44.6804 H   0  0  0  0  0  0  0  0  0  0  0  0
   56.6460   27.8280   43.1850 H   0  0  0  0  0  0  0  0  0  0  0  0
   56.3959   30.0749   42.3369 H   0  0  0  0  0  0  0  0  0  0  0  0
   59.8649   34.3257   43.9384 H   0  0  0  0  0  0  0  0  0  0  0  0
   60.5486   35.2647   46.1515 H   0  0  0  0  0  0  0  0  0  0  0  0
   57.2207   33.2419   48.0396 H   0  0  0  0  0  0  0  0  0  0  0  0
   56.5376   32.2993   45.8299 H   0  0  0  0  0  0  0  0  0  0  0  0
  1  2  1  0
  2  3  1  0
  3  4  2  0
  4  5  1  0
  5  6  2  0
  6  7  1  0
  7  8  2  0
  8  9  1  0
  9 10  1  0
 10 11  1  0
 11 12  2  0
 12 13  1  0
 13 14  2  0
 14 15  1  0
 14 16  1  0
 16 17  2  0
  9 18  2  0
 18 19  1  0
 19 20  2  0
 20 21  1  0
 20  3  1  0
 19  6  1  0
 17 11  1  0
  1 22  1  0
  1 23  1  0
  1 24  1  0
  4 25  1  0
  5 26  1  0
  7 27  1  0
  8 28  1  0
 12 29  1  0
 13 30  1  0
 16 31  1  0
 17 32  1  0
M  CHG  1   7   1
M  END
>  <UniqueID>  (4) 
4

>  <SMILES>  (4) 
COc1ccc2[nH+]cc(Sc3ccc(F)cc3)nc2c1Br

>  <Energy>  (4) 
33.972007685817964

>  <Genealogy>  (4) 
COc1ccc2[nH+]cc(Sc3ccc(F)cc3)nc2c1Br (protonated)
COc1ccc2[nH+]cc(Sc3ccc(F)cc3)nc2c1Br (3D coordinates assigned)
COc1ccc2[nH+]cc(Sc3ccc(F)cc3)nc2c1Br (optimized conformer: 33.972007685817964 kcal/mol)

>  <smiles>  (4) 
COc1ccc2ncc(Sc3ccc(F)cc3)nc2c1Br

>  <score_type>  (4) 
oracle

>  <origin>  (4) 
adg

>  <m_score__min__energy>  (4) 
-5.8899999999999997

>  <m_primary>  (4) 
energy

$$$$
4:0
     RDKit          3D

 42 45  0  0  0  0  0  0  0  0999 V2000
   56.8060   21.6790   43.0870 C   0  0  0  0  0  0  0  0  0  0  0  0
   57.3750   22.8120   43.8740 C   0  0  0  0  0  0  0  0  0  0  0  0
   58.3080   22.5780   44.8330 N   0  0  0  0  0  0  0  0  0  0  0  0
   58.8040   23.5970   45.5770 C   0  0  0  0  0  0  0  0  0  0  0  0
   58.3380   24.8970   45.3580 C   0  0  0  0  0  0  0  0  0  0  0  0
   58.8750   26.0610   46.1430 C   0  0  0  0  0  0  0  0  0  0  0  0
   58.4420   27.4040   45.5780 C   0  0  0  0  0  0  0  0  0  0  0  0
   59.4220   28.3150   45.0810 C   0  0  0  0  0  0  0  0  0  0  0  0
   59.0640   29.5350   44.5810 N   0  0  0  0  0  0  0  0  0  0  0  0
   57.7520   29.8660   44.5440 C   0  0  0  0  0  0  0  0  0  0  0  0
   56.7720   29.0270   44.9640 C   0  0  0  0  0  0  0  0  0  0  0  0
   55.5930   29.7160   44.7410 C   0  0  0  0  0  0  0  0  0  0  0  0
   55.8960   30.9280   44.2120 N   0  0  0  0  0  0  0  0  0  0  0  0
   57.2160   31.0060   44.0830 N   0  0  0  0  0  0  0  0  0  0  0  0
   57.9280   32.1890   43.6070 C   0  0  0  0  0  0  0  0  0  0  0  0
   58.2750   33.0770   44.7680 C   0  0  0  0  0  0  0  0  0  0  0  0
   59.1450   34.1670   44.5950 C   0  0  0  0  0  0  0  0  0  0  0  0
   59.4990   34.9650   45.6870 C   0  0  0  0  0  0  0  0  0  0  0  0
   58.9960   34.6760   46.9600 C   0  0  0  0  0  0  0  0  0  0  0  0
   58.1430   33.5850   47.1410 C   0  0  0  0  0  0  0  0  0  0  0  0
   57.7870   32.7830   46.0520 C   0  0  0  0  0  0  0  0  0  0  0  0
   57.0630   27.7590   45.4710 C   0  0  0  0  0  0  0  0  0  0  0  0
   55.9990   26.8630   45.8290 N   0  0  0  0  0  0  0  0  0  0  0  0
   57.3960   25.0950   44.3980 N   0  0  0  0  0  0  0  0  0  0  0  0
   56.9210   24.0780   43.6770 N   0  0  0  0  0  0  0  0  0  0  0  0
   56.4207   20.9118   43.7748 H   0  0  0  0  0  0  0  0  0  0  0  0
   55.9863   22.0481   42.4531 H   0  0  0  0  0  0  0  0  0  0  0  0
   57.5915   21.2419   42.4531 H   0  0  0  0  0  0  0  0  0  0  0  0
   59.5662   23.4029   46.3460 H   0  0  0  0  0  0  0  0  0  0  0  0
   58.5134   25.9827   47.1789 H   0  0  0  0  0  0  0  0  0  0  0  0
   59.9728   26.0180   46.0889 H   0  0  0  0  0  0  0  0  0  0  0  0
   60.4842   28.0298   45.1009 H   0  0  0  0  0  0  0  0  0  0  0  0
   54.5805   29.3438   44.9564 H   0  0  0  0  0  0  0  0  0  0  0  0
   58.8514   31.8783   43.0964 H   0  0  0  0  0  0  0  0  0  0  0  0
   57.2848   32.7422   42.9068 H   0  0  0  0  0  0  0  0  0  0  0  0
   59.5488   34.3931   43.5971 H   0  0  0  0  0  0  0  0  0  0  0  0
   60.1743   35.8217   45.5450 H   0  0  0  0  0  0  0  0  0  0  0  0
   59.2720   35.3073   47.8175 H   0  0  0  0  0  0  0  0  0  0  0  0
   57.7502   33.3560   48.1426 H   0  0  0  0  0  0  0  0  0  0  0  0
   57.1226   31.9191   46.2014 H   0  0  0  0  0  0  0  0  0  0  0  0
   55.4690   26.9960   46.7180 H   0  0  0  0  0  0  0  0  0  0  0  0
   55.6480   26.1290   45.1790 H   0  0  0  0  0  0  0  0  0  0  0  0
  1  2  1  0
  2  3  2  0
  3  4  1  0
  4  5  2  0
  5  6  1  0
  6  7  1  0
  7  8  2  0
  8  9  1  0
  9 10  2  0
 10 11  1  0
 11 12  1  0
 12 13  2  0
 13 14  1  0
 14 15  1  0
 15 16  1  0
 16 17  2  0
 17 18  1  0
 18 19  2  0
 19 20  1  0
 20 21  2  0
 11 22  2  0
 22 23  1  0
  5 24  1  0
 24 25  2  0
 25  2  1  0
 22  7  1  0
 14 10  1  0
 21 16  1  0
  1 26  1  0
  1 27  1  0
  1 28  1  0
  4 29  1  0
  6 30  1  0
  6 31  1  0
  8 32  1  0
 12 33  1  0
 15 34  1  0
 15 35  1  0
 17 36  1  0
 18 37  1  0
 19 38  1  0
 20 39  1  0
 21 40  1  0
 23 41  1  0
 23 42  1  0
M  END
>  <UniqueID>  (5) 
5

>  <SMILES>  (5) 
Cc1ncc(Cc2cnc3c(cnn3Cc3ccccc3)c2N)nn1

>  <Energy>  (5) 
89.14710016574165

>  <Genealogy>  (5) 
Cc1ncc(Cc2cnc3c(cnn3Cc3ccccc3)c2N)nn1 (3D coordinates assigned)
Cc1ncc(Cc2cnc3c(cnn3Cc3ccccc3)c2N)nn1 (optimized conformer: 89.14710016574165 kcal/mol)

>  <smiles>  (5) 
Cc1ncc(Cc2cnc3c(cnn3Cc3ccccc3)c2N)nn1

>  <score_type>  (5) 
oracle

>  <origin>  (5) 
adg

>  <m_score__min__energy>  (5) 
-8.6999999999999993

>  <m_primary>  (5) 
energy

$$$$
5:0
     RDKit          3D

 43 46  0  0  0  0  0  0  0  0999 V2000
   61.6036   33.8580   49.2991 H   0  0  0  0  0  0  0  0  0  0  0  0
   60.6380   33.5960   48.8420 C   0  0  0  0  0  0  0  0  0  0  0  0
   60.3440   34.1510   47.6540 C   0  0  0  0  0  0  0  0  0  0  0  0
   60.9028   35.0536   47.3660 H   0  0  0  0  0  0  0  0  0  0  0  0
   59.3280   33.6460   46.7000 C   0  0  0  0  0  0  0  0  0  0  0  0
   58.5210   34.5620   46.0140 C   0  0  0  0  0  0  0  0  0  0  0  0
   58.6448   35.6405   46.1913 H   0  0  0  0  0  0  0  0  0  0  0  0
   57.5600   34.1130   45.1060 C   0  0  0  0  0  0  0  0  0  0  0  0
   56.9287   34.8391   44.5728 H   0  0  0  0  0  0  0  0  0  0  0  0
   57.3970   32.7460   44.8720 C   0  0  0  0  0  0  0  0  0  0  0  0
   56.6292   32.3998   44.1644 H   0  0  0  0  0  0  0  0  0  0  0  0
   58.2090   31.8100   45.5360 C   0  0  0  0  0  0  0  0  0  0  0  0
   58.0140   30.3590   45.3050 C   0  0  0  0  0  0  0  0  0  0  0  0
   57.5370   29.5170   46.2640 N   0  0  0  0  0  0  0  0  0  0  0  0
   57.5500   28.3210   45.6500 C   0  0  0  0  0  0  0  0  0  0  0  0
   57.1660   27.0890   46.1740 C   0  0  0  0  0  0  0  0  0  0  0  0
   56.7857   27.0009   47.2024 H   0  0  0  0  0  0  0  0  0  0  0  0
   57.2820   25.9600   45.3400 C   0  0  0  0  0  0  0  0  0  0  0  0
   56.9858   24.9697   45.7161 H   0  0  0  0  0  0  0  0  0  0  0  0
   57.7770   26.0920   44.0220 C   0  0  0  0  0  0  0  0  0  0  0  0
   57.8656   25.2031   43.3801 H   0  0  0  0  0  0  0  0  0  0  0  0
   58.1570   27.3530   43.5260 C   0  0  0  0  0  0  0  0  0  0  0  0
   58.5451   27.4710   42.5035 H   0  0  0  0  0  0  0  0  0  0  0  0
   58.0230   28.4460   44.3790 C   0  0  0  0  0  0  0  0  0  0  0  0
   58.3240   29.7270   44.1420 N   0  0  0  0  0  0  0  0  0  0  0  0
   58.7340   30.1250   43.2670 H   0  0  0  0  0  0  0  0  0  0  0  0
   59.1970   32.2730   46.4210 C   0  0  0  0  0  0  0  0  0  0  0  0
   59.8763   31.5536   46.9016 H   0  0  0  0  0  0  0  0  0  0  0  0
   59.7640   32.6600   49.5830 C   0  0  0  0  0  0  0  0  0  0  0  0
   59.8250   31.2900   49.2950 C   0  0  0  0  0  0  0  0  0  0  0  0
   60.5343   30.9213   48.5394 H   0  0  0  0  0  0  0  0  0  0  0  0
   58.9900   30.3890   49.9620 C   0  0  0  0  0  0  0  0  0  0  0  0
   59.0343   29.3175   49.7174 H   0  0  0  0  0  0  0  0  0  0  0  0
   58.0920   30.8470   50.9460 C   0  0  0  0  0  0  0  0  0  0  0  0
   57.2240   29.9860   51.6320 O   0  0  0  0  0  0  0  0  0  0  0  0
   56.3650   30.3900   52.6940 C   0  0  0  0  0  0  0  0  0  0  0  0
   56.8436   30.1649   53.6585 H   0  0  0  0  0  0  0  0  0  0  0  0
   56.1763   31.4713   52.6218 H   0  0  0  0  0  0  0  0  0  0  0  0
   55.4118   29.8458   52.6218 H   0  0  0  0  0  0  0  0  0  0  0  0
   58.0610   32.2100   51.2580 C   0  0  0  0  0  0  0  0  0  0  0  0
   57.3732   32.5757   52.0347 H   0  0  0  0  0  0  0  0  0  0  0  0
   58.8960   33.1120   50.5920 C   0  0  0  0  0  0  0  0  0  0  0  0
   58.8737   34.1790   50.8585 H   0  0  0  0  0  0  0  0  0  0  0  0
  1  2  1  0
  2  3  2  0
  3  4  1  0
  3  5  1  0
  5  6  2  0
  6  7  1  0
  6  8  1  0
  8  9  1  0
  8 10  2  0
 10 11  1  0
 10 12  1  0
 12 13  1  0
 13 14  2  0
 14 15  1  0
 15 16  2  0
 16 17  1  0
 16 18  1  0
 18 19  1  0
 18 20  2  0
 20 21  1  0
 20 22  1  0
 22 23  1  0
 22 24  2  0
 24 25  1  0
 25 26  1  0
 12 27  2  0
 27 28  1  0
  2 29  1  0
 29 30  2  0
 30 31  1  0
 30 32  1  0
 32 33  1  0
 32 34  2  0
 34 35  1  0
 35 36  1  0
 36 37  1  0
 36 38  1  0
 36 39  1  0
 34 40  1  0
 40 41  1  0
 40 42  2  0
 42 43  1  0
 27  5  1  0
 42 29  1  0
 25 13  1  0
 24 15  1  0
M  END
>  <UniqueID>  (6) 
6

>  <SMILES>  (6) 
COc1ccc(/C=C\c2cccc(-c3nc4ccccc4[nH]3)c2)cc1

>  <Energy>  (6) 
93.50747875651679

>  <Genealogy>  (6) 
COc1ccc(/C=C\c2cccc(-c3nc4ccccc4[nH]3)c2)cc1 (cis-trans isomerization)
COc1ccc(/C=C\c2cccc(-c3nc4ccccc4[nH]3)c2)cc1 (3D coordinates assigned)
COc1ccc(/C=C\c2cccc(-c3nc4ccccc4[nH]3)c2)cc1 (optimized conformer: 93.50747875651679 kcal/mol)

>  <smiles>  (6) 
COc1ccc(C=Cc2cccc(-c3nc4ccccc4[nH]3)c2)cc1

>  <score_type>  (6) 
oracle

>  <origin>  (6) 
adg

>  <m_score__min__energy>  (6) 
-8.5399999999999991

>  <m_primary>  (6) 
energy

$$$$
6:0
     RDKit          3D

 42 45  0  0  0  0  0  0  0  0999 V2000
   63.7590   31.6050   47.8930 O   0  0  0  0  0  0  0  0  0  0  0  0
   63.8460   32.4160   48.8530 C   0  0  0  0  0  0  0  0  0  0  0  0
   62.8470   33.4430   48.9610 N   0  0  0  0  0  0  0  0  0  0  0  0
   61.6230   33.5590   48.2220 C   0  0  0  0  0  0  0  0  0  0  0  0
   60.3680   33.6010   48.8560 C   0  0  0  0  0  0  0  0  0  0  0  0
   59.1990   33.6880   48.0930 C   0  0  0  0  0  0  0  0  0  0  0  0
   59.2740   33.7590   46.6980 C   0  0  0  0  0  0  0  0  0  0  0  0
   57.6770   33.8600   45.6560 Br  0  0  0  0  0  0  0  0  0  0  0  0
   60.5210   33.7600   46.0670 C   0  0  0  0  0  0  0  0  0  0  0  0
   61.6900   33.6640   46.8270 C   0  0  0  0  0  0  0  0  0  0  0  0
   64.9420   32.2410   49.8410 C   0  0  0  0  0  0  0  0  0  0  0  0
   66.0640   33.0860   49.7600 C   0  0  0  0  0  0  0  0  0  0  0  0
   67.1310   32.9450   50.6510 C   0  0  0  0  0  0  0  0  0  0  0  0
   68.5150   34.0160   50.5400 Cl  0  0  0  0  0  0  0  0  0  0  0  0
   67.0960   31.9490   51.6260 C   0  0  0  0  0  0  0  0  0  0  0  0
   65.9980   31.0920   51.7140 C   0  0  0  0  0  0  0  0  0  0  0  0
   64.9110   31.2260   50.8270 C   0  0  0  0  0  0  0  0  0  0  0  0
   63.8040   30.3670   50.8950 O   0  0  0  0  0  0  0  0  0  0  0  0
   62.5710   30.6730   51.5410 C   0  0  0  0  0  0  0  0  0  0  0  0
   61.4440   30.4570   50.5730 C   0  0  0  0  0  0  0  0  0  0  0  0
   60.1180   30.3480   51.0370 C   0  0  0  0  0  0  0  0  0  0  0  0
   59.0840   30.1910   50.1050 C   0  0  0  0  0  0  0  0  0  0  0  0
   57.8880   30.1030   50.4960 O   0  0  0  0  0  0  0  0  0  0  0  0
   59.3940   30.1420   48.7810 N   0  0  0  0  0  0  0  0  0  0  0  0
   58.5190   30.0090   47.7450 C   0  0  0  0  0  0  0  0  0  0  0  0
   59.1240   29.9980   46.4880 C   0  0  0  0  0  0  0  0  0  0  0  0
   60.7960   30.1590   46.6900 S   0  0  0  0  0  0  0  0  0  0  0  0
   60.6740   30.2350   48.3620 C   0  0  0  0  0  0  0  0  0  0  0  0
   61.7030   30.3850   49.2330 N   0  0  0  0  0  0  0  0  0  0  0  0
   60.3059   33.5654   49.9537 H   0  0  0  0  0  0  0  0  0  0  0  0
   58.2183   33.7006   48.5911 H   0  0  0  0  0  0  0  0  0  0  0  0
   60.5825   33.8364   44.9714 H   0  0  0  0  0  0  0  0  0  0  0  0
   62.6693   33.6710   46.3261 H   0  0  0  0  0  0  0  0  0  0  0  0
   66.1017   33.8668   48.9861 H   0  0  0  0  0  0  0  0  0  0  0  0
   67.9359   31.8384   52.3276 H   0  0  0  0  0  0  0  0  0  0  0  0
   65.9808   30.3051   52.4824 H   0  0  0  0  0  0  0  0  0  0  0  0
   62.4388   30.0159   52.4132 H   0  0  0  0  0  0  0  0  0  0  0  0
   62.5773   31.7209   51.8755 H   0  0  0  0  0  0  0  0  0  0  0  0
   59.8982   30.3856   52.1142 H   0  0  0  0  0  0  0  0  0  0  0  0
   57.4320   29.9183   47.8872 H   0  0  0  0  0  0  0  0  0  0  0  0
   58.6008   29.9008   45.5253 H   0  0  0  0  0  0  0  0  0  0  0  0
   62.6810   30.4620   48.8740 H   0  0  0  0  0  0  0  0  0  0  0  0
  1  2  2  0
  2  3  1  0
  3  4  1  0
  4  5  2  0
  5  6  1  0
  6  7  2  0
  7  8  1  0
  7  9  1  0
  9 10  2  0
  2 11  1  0
 11 12  2  0
 12 13  1  0
 13 14  1  0
 13 15  2  0
 15 16  1  0
 16 17  2  0
 17 18  1  0
 18 19  1  0
 19 20  1  0
 20 21  2  0
 21 22  1  0
 22 23  2  0
 22 24  1  0
 24 25  1  0
 25 26  2  0
 26 27  1  0
 27 28  1  0
 28 29  2  0
 10  4  1  0
 17 11  1  0
 29 20  1  0
 28 24  1  0
  5 30  1  0
  6 31  1  0
  9 32  1  0
 10 33  1  0
 12 34  1  0
 15 35  1  0
 16 36  1  0
 19 37  1  0
 19 38  1  0
 21 39  1  0
 25 40  1  0
 26 41  1  0
 29 42  1  0
M  CHG  2   3  -1  29   1
M  END
>  <UniqueID>  (7) 
7

>  <SMILES>  (7) 
O=C([N-]c1ccc(Br)cc1)c1cc(Cl)ccc1OCc1cc(=O)n2ccsc2[nH+]1

>  <Energy>  (7) 
84.29946391699869

>  <Genealogy>  (7) 
O=C([N-]c1ccc(Br)cc1)c1cc(Cl)ccc1OCc1cc(=O)n2ccsc2[nH+]1 (protonated)
O=C([N-]c1ccc(Br)cc1)c1cc(Cl)ccc1OCc1cc(=O)n2ccsc2[nH+]1 (3D coordinates assigned)
O=C([N-]c1ccc(Br)cc1)c1cc(Cl)ccc1OCc1cc(=O)n2ccsc2[nH+]1 (optimized conformer: 84.29946391699869 kcal/mol)

>  <smiles>  (7) 
O=C(Nc1ccc(Br)cc1)c1cc(Cl)ccc1OCc1cc(=O)n2ccsc2n1

>  <score_type>  (7) 
oracle

>  <origin>  (7) 
adg

>  <m_score__min__energy>  (7) 
-8.3000000000000007

>  <m_primary>  (7) 
energy

$$$$
7:0
     RDKit          3D

 55 58  0  0  0  0  0  0  0  0999 V2000
   63.3610   34.1570   46.4140 C   0  0  0  0  0  0  0  0  0  0  0  0
   63.3550   33.2820   47.5960 N   0  0  0  0  0  0  0  0  0  0  0  0
   62.4050   33.7950   48.6010 C   0  0  0  0  0  0  0  0  0  0  0  0
   62.3580   32.8650   49.8230 C   0  0  0  0  0  0  0  0  0  0  0  0
   62.1890   31.4270   49.4740 N   0  0  0  0  0  0  0  0  0  0  0  0
   61.0860   30.8020   50.2360 C   0  0  0  0  0  0  0  0  0  0  0  0
   60.3670   29.7660   49.4050 C   0  0  0  0  0  0  0  0  0  0  0  0
   59.1570   30.0820   48.7690 C   0  0  0  0  0  0  0  0  0  0  0  0
   58.5110   29.1380   47.9700 C   0  0  0  0  0  0  0  0  0  0  0  0
   59.0550   27.8520   47.8020 C   0  0  0  0  0  0  0  0  0  0  0  0
   58.3640   26.8440   46.9640 C   0  0  0  0  0  0  0  0  0  0  0  0
   57.7190   25.9050   47.5070 O   0  0  0  0  0  0  0  0  0  0  0  0
   58.4370   26.9260   45.5330 N   0  0  0  0  0  0  0  0  0  0  0  0
   59.2060   27.9310   44.8060 C   0  0  0  0  0  0  0  0  0  0  0  0
   58.4170   29.2090   44.6750 C   0  0  0  0  0  0  0  0  0  0  0  0
   57.2230   29.2350   43.9390 C   0  0  0  0  0  0  0  0  0  0  0  0
   56.5240   30.4330   43.7750 C   0  0  0  0  0  0  0  0  0  0  0  0
   57.0070   31.6120   44.3450 C   0  0  0  0  0  0  0  0  0  0  0  0
   58.1950   31.6090   45.1000 C   0  0  0  0  0  0  0  0  0  0  0  0
   58.7070   32.8580   45.7160 C   0  0  0  0  0  0  0  0  0  0  0  0
   59.2270   33.9640   45.0420 C   0  0  0  0  0  0  0  0  0  0  0  0
   59.6300   35.0020   45.8920 C   0  0  0  0  0  0  0  0  0  0  0  0
   59.4340   34.7320   47.2400 C   0  0  0  0  0  0  0  0  0  0  0  0
   58.7570   33.1990   47.3660 S   0  0  0  0  0  0  0  0  0  0  0  0
   58.8970   30.3960   45.2560 C   0  0  0  0  0  0  0  0  0  0  0  0
   60.2660   27.5370   48.4440 C   0  0  0  0  0  0  0  0  0  0  0  0
   60.9210   28.4880   49.2310 C   0  0  0  0  0  0  0  0  0  0  0  0
   61.9910   31.1970   48.0300 C   0  0  0  0  0  0  0  0  0  0  0  0
   63.1100   31.8670   47.2150 C   0  0  0  0  0  0  0  0  0  0  0  0
   63.3682   35.2087   46.7364 H   0  0  0  0  0  0  0  0  0  0  0  0
   64.2578   33.9522   45.8108 H   0  0  0  0  0  0  0  0  0  0  0  0
   62.4615   33.9646   45.8108 H   0  0  0  0  0  0  0  0  0  0  0  0
   62.7240   34.7977   48.9216 H   0  0  0  0  0  0  0  0  0  0  0  0
   61.4023   33.8411   48.1510 H   0  0  0  0  0  0  0  0  0  0  0  0
   63.2983   32.9785   50.3824 H   0  0  0  0  0  0  0  0  0  0  0  0
   61.4792   33.1575   50.4164 H   0  0  0  0  0  0  0  0  0  0  0  0
   61.4988   30.3186   51.1337 H   0  0  0  0  0  0  0  0  0  0  0  0
   60.3665   31.5862   50.5142 H   0  0  0  0  0  0  0  0  0  0  0  0
   58.7147   31.0805   48.9011 H   0  0  0  0  0  0  0  0  0  0  0  0
   57.5687   29.4017   47.4675 H   0  0  0  0  0  0  0  0  0  0  0  0
   60.1392   28.1363   45.3509 H   0  0  0  0  0  0  0  0  0  0  0  0
   59.4300   27.5473   43.7997 H   0  0  0  0  0  0  0  0  0  0  0  0
   56.8359   28.3086   43.4895 H   0  0  0  0  0  0  0  0  0  0  0  0
   55.5897   30.4474   43.1947 H   0  0  0  0  0  0  0  0  0  0  0  0
   56.4541   32.5523   44.2029 H   0  0  0  0  0  0  0  0  0  0  0  0
   59.3123   34.0157   43.9465 H   0  0  0  0  0  0  0  0  0  0  0  0
   60.0622   35.9447   45.5252 H   0  0  0  0  0  0  0  0  0  0  0  0
   59.6785   35.4026   48.0769 H   0  0  0  0  0  0  0  0  0  0  0  0
   59.8300   30.3782   45.8384 H   0  0  0  0  0  0  0  0  0  0  0  0
   60.7012   26.5337   48.3257 H   0  0  0  0  0  0  0  0  0  0  0  0
   61.8749   28.2340   49.7163 H   0  0  0  0  0  0  0  0  0  0  0  0
   61.9984   30.1149   47.8322 H   0  0  0  0  0  0  0  0  0  0  0  0
   61.0261   31.6327   47.7313 H   0  0  0  0  0  0  0  0  0  0  0  0
   64.0397   31.2993   47.3679 H   0  0  0  0  0  0  0  0  0  0  0  0
   62.7888   31.8662   46.1629 H   0  0  0  0  0  0  0  0  0  0  0  0
  1  2  1  0
  2  3  1  0
  3  4  1  0
  4  5  1  0
  5  6  1  0
  6  7  1  0
  7  8  2  0
  8  9  1  0
  9 10  2  0
 10 11  1  0
 11 12  2  0
 11 13  1  0
 13 14  1  0
 14 15  1  0
 15 16  2  0
 16 17  1  0
 17 18  2  0
 18 19  1  0
 19 20  1  0
 20 21  2  0
 21 22  1  0
 22 23  2  0
 23 24  1  0
 19 25  2  0
 10 26  1  0
 26 27  2  0
  5 28  1  0
 28 29  1  0
 29  2  1  0
 27  7  1  0
 25 15  1  0
 24 20  1  0
  1 30  1  0
  1 31  1  0
  1 32  1  0
  3 33  1  0
  3 34  1  0
  4 35  1  0
  4 36  1  0
  6 37  1  0
  6 38  1  0
  8 39  1  0
  9 40  1  0
 14 41  1  0
 14 42  1  0
 16 43  1  0
 17 44  1  0
 18 45  1  0
 21 46  1  0
 22 47  1  0
 23 48  1  0
 25 49  1  0
 26 50  1  0
 27 51  1  0
 28 52  1  0
 28 53  1  0
 29 54  1  0
 29 55  1  0
M  CHG  1  13  -1
M  END
>  <UniqueID>  (8) 
8

>  <SMILES>  (8) 
CN1CCN(Cc2ccc(C(=O)[N-]Cc3cccc(-c4cccs4)c3)cc2)CC1

>  <Energy>  (8) 
97.07876692127897

>  <Genealogy>  (8) 
CN1CCN(Cc2ccc(C(=O)[N-]Cc3cccc(-c4cccs4)c3)cc2)CC1 (protonated)
CN1CCN(Cc2ccc(C(=O)[N-]Cc3cccc(-c4cccs4)c3)cc2)CC1 (3D coordinates assigned)
CN1CCN(Cc2ccc(C(=O)[N-]Cc3cccc(-c4cccs4)c3)cc2)CC1 (nonaromatic ring conformer: 97.07876692127897 kcal/mol)

>  <smiles>  (8) 
CN1CCN(Cc2ccc(C(=O)NCc3cccc(-c4cccs4)c3)cc2)CC1

>  <score_type>  (8) 
oracle

>  <origin>  (8) 
adg

>  <m_score__min__energy>  (8) 
-11.18

>  <m_primary>  (8) 
energy

$$$$
8:0
     RDKit          3D

 25 27  0  0  0  0  0  0  0  0999 V2000
   56.0710   29.4560   45.0150 N   0  0  0  0  0  0  0  0  0  0  0  0
   56.6520   30.4340   44.1440 C   0  0  0  0  0  0  0  0  0  0  0  0
   56.4710   30.3220   42.7570 C   0  0  0  0  0  0  0  0  0  0  0  0
   57.0300   31.2640   41.8890 C   0  0  0  0  0  0  0  0  0  0  0  0
   57.7770   32.3310   42.3950 C   0  0  0  0  0  0  0  0  0  0  0  0
   57.9690   32.4610   43.7780 C   0  0  0  0  0  0  0  0  0  0  0  0
   58.6970   33.4980   44.2860 N   0  0  0  0  0  0  0  0  0  0  0  0
   58.8860   33.6280   45.6300 C   0  0  0  0  0  0  0  0  0  0  0  0
   59.6340   34.6940   46.1550 C   0  0  0  0  0  0  0  0  0  0  0  0
   59.8160   34.8070   47.5380 C   0  0  0  0  0  0  0  0  0  0  0  0
   59.2540   33.8600   48.4010 C   0  0  0  0  0  0  0  0  0  0  0  0
   58.5070   32.7950   47.8870 C   0  0  0  0  0  0  0  0  0  0  0  0
   58.3220   32.6760   46.5050 C   0  0  0  0  0  0  0  0  0  0  0  0
   57.5980   31.6450   45.9970 N   0  0  0  0  0  0  0  0  0  0  0  0
   57.4050   31.5080   44.6570 C   0  0  0  0  0  0  0  0  0  0  0  0
   55.8000   29.7090   45.9930 H   0  0  0  0  0  0  0  0  0  0  0  0
   55.9030   28.4760   44.7010 H   0  0  0  0  0  0  0  0  0  0  0  0
   55.8841   29.4857   42.3494 H   0  0  0  0  0  0  0  0  0  0  0  0
   56.8814   31.1651   40.8036 H   0  0  0  0  0  0  0  0  0  0  0  0
   58.2149   33.0698   41.7077 H   0  0  0  0  0  0  0  0  0  0  0  0
   59.1150   34.2040   43.6360 H   0  0  0  0  0  0  0  0  0  0  0  0
   60.0770   35.4404   45.4792 H   0  0  0  0  0  0  0  0  0  0  0  0
   60.4025   35.6426   47.9476 H   0  0  0  0  0  0  0  0  0  0  0  0
   59.4001   33.9533   49.4873 H   0  0  0  0  0  0  0  0  0  0  0  0
   58.0657   32.0523   48.5679 H   0  0  0  0  0  0  0  0  0  0  0  0
  1  2  1  0
  2  3  2  0
  3  4  1  0
  4  5  2  0
  5  6  1  0
  6  7  2  0
  7  8  1  0
  8  9  2  0
  9 10  1  0
 10 11  2  0
 11 12  1  0
 12 13  2  0
 13 14  1  0
 14 15  2  0
 15  2  1  0
 15  6  1  0
 13  8  1  0
  1 16  1  0
  1 17  1  0
  3 18  1  0
  4 19  1  0
  5 20  1  0
  7 21  1  0
  9 22  1  0
 10 23  1  0
 11 24  1  0
 12 25  1  0
M  CHG  1   7   1
M  END
>  <UniqueID>  (9) 
9

>  <SMILES>  (9) 
Nc1cccc2[nH+]c3ccccc3nc12

>  <Energy>  (9) 
33.77893389939729

>  <Genealogy>  (9) 
Nc1cccc2[nH+]c3ccccc3nc12 (protonated)
Nc1cccc2[nH+]c3ccccc3nc12 (3D coordinates assigned)
Nc1cccc2[nH+]c3ccccc3nc12 (optimized conformer: 33.77893389939729 kcal/mol)

>  <smiles>  (9) 
Nc1cccc2nc3ccccc3nc12

>  <score_type>  (9) 
oracle

>  <origin>  (9) 
adg

>  <m_score__min__energy>  (9) 
-5.46

>  <m_primary>  (9) 
energy

$$$$
9:0
     RDKit          3D

 51 54  0  0  0  0  0  0  0  0999 V2000
   57.3940   31.9570   42.0600 C   0  0  0  0  0  0  0  0  0  0  0  0
   57.8490   32.1480   43.4760 C   0  0  0  0  0  0  0  0  0  0  0  0
   57.9100   33.4490   44.0330 C   0  0  0  0  0  0  0  0  0  0  0  0
   58.3010   33.6420   45.3700 C   0  0  0  0  0  0  0  0  0  0  0  0
   58.6030   32.5150   46.1410 C   0  0  0  0  0  0  0  0  0  0  0  0
   58.5450   31.2530   45.5940 C   0  0  0  0  0  0  0  0  0  0  0  0
   58.1650   31.0290   44.2730 C   0  0  0  0  0  0  0  0  0  0  0  0
   58.9530   30.3770   46.5730 C   0  0  0  0  0  0  0  0  0  0  0  0
   59.2120   31.1410   47.6920 C   0  0  0  0  0  0  0  0  0  0  0  0
   58.9970   32.4600   47.4400 N   0  0  0  0  0  0  0  0  0  0  0  0
   59.2800   33.5840   48.3470 C   0  0  0  0  0  0  0  0  0  0  0  0
   60.7340   33.6030   48.8120 C   0  0  0  0  0  0  0  0  0  0  0  0
   61.0550   33.5440   50.2010 C   0  0  0  0  0  0  0  0  0  0  0  0
   59.9930   33.5030   51.2710 C   0  0  0  0  0  0  0  0  0  0  0  0
   62.4000   33.5150   50.6030 C   0  0  0  0  0  0  0  0  0  0  0  0
   63.4240   33.5690   49.6640 C   0  0  0  0  0  0  0  0  0  0  0  0
   63.1270   33.6740   48.3110 C   0  0  0  0  0  0  0  0  0  0  0  0
   61.7960   33.7190   47.8690 C   0  0  0  0  0  0  0  0  0  0  0  0
   61.5490   33.8620   46.3890 C   0  0  0  0  0  0  0  0  0  0  0  0
   59.8070   30.5440   48.9340 C   0  0  0  0  0  0  0  0  0  0  0  0
   59.6320   29.0100   48.9290 C   0  0  0  0  0  0  0  0  0  0  0  0
   59.9950   28.4220   47.6130 N   0  0  1  0  0  0  0  0  0  0  0  0
   59.9740   26.9530   47.6900 C   0  0  0  0  0  0  0  0  0  0  0  0
   59.0820   28.8850   46.5390 C   0  0  0  0  0  0  0  0  0  0  0  0
   56.3798   31.5312   42.0550 H   0  0  0  0  0  0  0  0  0  0  0  0
   57.3866   32.9280   41.5431 H   0  0  0  0  0  0  0  0  0  0  0  0
   58.0819   31.2717   41.5431 H   0  0  0  0  0  0  0  0  0  0  0  0
   57.6484   34.3187   43.4123 H   0  0  0  0  0  0  0  0  0  0  0  0
   58.3676   34.6531   45.7982 H   0  0  0  0  0  0  0  0  0  0  0  0
   58.1130   30.0093   43.8637 H   0  0  0  0  0  0  0  0  0  0  0  0
   59.0648   34.5257   47.8208 H   0  0  0  0  0  0  0  0  0  0  0  0
   58.6442   33.4659   49.2368 H   0  0  0  0  0  0  0  0  0  0  0  0
   60.4701   33.5214   52.2620 H   0  0  0  0  0  0  0  0  0  0  0  0
   59.3325   34.3763   51.1657 H   0  0  0  0  0  0  0  0  0  0  0  0
   59.4018   32.5814   51.1657 H   0  0  0  0  0  0  0  0  0  0  0  0
   62.6464   33.4488   51.6730 H   0  0  0  0  0  0  0  0  0  0  0  0
   64.4727   33.5284   49.9935 H   0  0  0  0  0  0  0  0  0  0  0  0
   63.9451   33.7224   47.5773 H   0  0  0  0  0  0  0  0  0  0  0  0
   60.6076   34.4070   46.2253 H   0  0  0  0  0  0  0  0  0  0  0  0
   62.3796   34.4190   45.9308 H   0  0  0  0  0  0  0  0  0  0  0  0
   61.4796   32.8644   45.9308 H   0  0  0  0  0  0  0  0  0  0  0  0
   60.8791   30.7866   48.9754 H   0  0  0  0  0  0  0  0  0  0  0  0
   59.2920   30.9597   49.8126 H   0  0  0  0  0  0  0  0  0  0  0  0
   60.2785   28.5745   49.7051 H   0  0  0  0  0  0  0  0  0  0  0  0
   58.5738   28.7839   49.1267 H   0  0  0  0  0  0  0  0  0  0  0  0
   60.9730   28.7140   47.3720 H   0  0  0  0  0  0  0  0  0  0  0  0
   59.9695   26.6412   48.7449 H   0  0  0  0  0  0  0  0  0  0  0  0
   59.0703   26.5726   47.1914 H   0  0  0  0  0  0  0  0  0  0  0  0
   60.8664   26.5469   47.1914 H   0  0  0  0  0  0  0  0  0  0  0  0
   59.4851   28.5779   45.5627 H   0  0  0  0  0  0  0  0  0  0  0  0
   58.0898   28.4366   46.6952 H   0  0  0  0  0  0  0  0  0  0  0  0
  1  2  1  0
  2  3  2  0
  3  4  1  0
  4  5  2  0
  5  6  1  0
  6  7  2  0
  6  8  1  0
  8  9  2  0
  9 10  1  0
 10 11  1  0
 11 12  1  0
 12 13  2  0
 13 14  1  0
 13 15  1  0
 15 16  2  0
 16 17  1  0
 17 18  2  0
 18 19  1  0
  9 20  1  0
 20 21  1  0
 21 22  1  0
 22 23  1  0
 22 24  1  0
  7  2  1  0
 24  8  1  0
 10  5  1  0
 18 12  1  0
  1 25  1  0
  1 26  1  0
  1 27  1  0
  3 28  1  0
  4 29  1  0
  7 30  1  0
 11 31  1  0
 11 32  1  0
 14 33  1  0
 14 34  1  0
 14 35  1  0
 15 36  1  0
 16 37  1  0
 17 38  1  0
 19 39  1  0
 19 40  1  0
 19 41  1  0
 20 42  1  0
 20 43  1  0
 21 44  1  0
 21 45  1  0
 22 46  1  6
 23 47  1  0
 23 48  1  0
 23 49  1  0
 24 50  1  0
 24 51  1  0
M  CHG  1  22   1
M  END
>  <UniqueID>  (10) 
10

>  <SMILES>  (10) 
Cc1ccc2c(c1)c1c(n2Cc2c(C)cccc2C)CC[N@@H+](C)C1

>  <Energy>  (10) 
94.51696182988161

>  <Genealogy>  (10) 
Cc1ccc2c(c1)c1c(n2Cc2c(C)cccc2C)CC[NH+](C)C1 (protonated)
Cc1ccc2c(c1)c1c(n2Cc2c(C)cccc2C)CC[N@@H+](C)C1 (chirality)
Cc1ccc2c(c1)c1c(n2Cc2c(C)cccc2C)CC[N@@H+](C)C1 (3D coordinates assigned)
Cc1ccc2c(c1)c1c(n2Cc2c(C)cccc2C)CC[N@@H+](C)C1 (nonaromatic ring conformer: 94.51696182988161 kcal/mol)

>  <smiles>  (10) 
Cc1ccc2c(c1)c1c(n2Cc2c(C)cccc2C)CCN(C)C1

>  <score_type>  (10) 
oracle

>  <origin>  (10) 
adg

>  <m_score__min__energy>  (10) 
-6.29

>  <m_primary>  (10) 
energy

$$$$
10:0
     RDKit          3D

 56 59  0  0  0  0  0  0  0  0999 V2000
   53.2680   24.3520   45.2370 C   0  0  0  0  0  0  0  0  0  0  0  0
   54.2220   25.2110   45.8510 O   0  0  0  0  0  0  0  0  0  0  0  0
   55.6140   25.0560   45.7630 C   0  0  0  0  0  0  0  0  0  0  0  0
   56.2090   23.7780   45.7860 C   0  0  0  0  0  0  0  0  0  0  0  0
   57.5880   23.6350   45.6270 C   0  0  0  0  0  0  0  0  0  0  0  0
   58.3910   24.7590   45.4410 C   0  0  0  0  0  0  0  0  0  0  0  0
   57.8180   26.0310   45.4310 C   0  0  0  0  0  0  0  0  0  0  0  0
   56.4400   26.1970   45.6170 C   0  0  0  0  0  0  0  0  0  0  0  0
   55.9280   27.5380   45.6200 N   0  0  0  0  0  0  0  0  0  0  0  0
   56.7110   28.9470   44.9780 S   0  0  0  0  0  0  0  0  0  0  0  0
   55.6930   30.0470   44.8510 O   0  0  0  0  0  0  0  0  0  0  0  0
   57.3030   28.6470   43.6290 O   0  0  0  0  0  0  0  0  0  0  0  0
   57.9900   29.4770   46.0770 C   0  0  0  0  0  0  0  0  0  0  0  0
   58.6110   28.5220   46.8980 C   0  0  0  0  0  0  0  0  0  0  0  0
   59.6710   28.8740   47.7410 C   0  0  0  0  0  0  0  0  0  0  0  0
   60.2620   27.8580   48.5650 N   0  0  0  0  0  0  0  0  0  0  0  0
   60.3830   27.8870   49.9930 C   0  0  0  0  0  0  0  0  0  0  0  0
   60.8430   26.8920   50.6160 O   0  0  0  0  0  0  0  0  0  0  0  0
   59.9140   29.0760   50.7270 C   0  0  0  0  0  0  0  0  0  0  0  0
   60.7450   29.8280   51.4640 C   0  0  0  0  0  0  0  0  0  0  0  0
   60.2420   30.9220   52.1820 O   0  0  0  0  0  0  0  0  0  0  0  0
   58.8390   31.1130   52.3700 C   0  0  0  0  0  0  0  0  0  0  0  0
   58.0870   30.7020   51.1030 C   0  0  0  0  0  0  0  0  0  0  0  0
   58.5570   29.4280   50.6570 O   0  0  0  0  0  0  0  0  0  0  0  0
   60.0880   30.2130   47.7990 C   0  0  0  0  0  0  0  0  0  0  0  0
   59.4680   31.1750   47.0010 C   0  0  0  0  0  0  0  0  0  0  0  0
   58.4190   30.8240   46.1390 C   0  0  0  0  0  0  0  0  0  0  0  0
   57.7980   31.8530   45.3540 N   0  0  0  0  0  0  0  0  0  0  0  0
   57.3080   33.0740   46.0020 C   0  0  0  0  0  0  0  0  0  0  0  0
   57.3190   34.2350   45.0050 C   0  0  0  0  0  0  0  0  0  0  0  0
   58.5050   34.1800   44.2400 O   0  0  0  0  0  0  0  0  0  0  0  0
   58.4600   33.1020   43.3160 C   0  0  0  0  0  0  0  0  0  0  0  0
   57.8610   31.7960   43.8900 C   0  0  0  0  0  0  0  0  0  0  0  0
   52.6896   23.8312   46.0144 H   0  0  0  0  0  0  0  0  0  0  0  0
   52.5875   24.9478   44.6110 H   0  0  0  0  0  0  0  0  0  0  0  0
   53.7894   23.6129   44.6110 H   0  0  0  0  0  0  0  0  0  0  0  0
   55.5811   22.8864   45.9304 H   0  0  0  0  0  0  0  0  0  0  0  0
   58.0421   22.6334   45.6485 H   0  0  0  0  0  0  0  0  0  0  0  0
   59.4760   24.6432   45.3022 H   0  0  0  0  0  0  0  0  0  0  0  0
   58.4559   26.9135   45.2752 H   0  0  0  0  0  0  0  0  0  0  0  0
   58.2585   27.4802   46.8782 H   0  0  0  0  0  0  0  0  0  0  0  0
   61.8175   29.5871   51.5049 H   0  0  0  0  0  0  0  0  0  0  0  0
   58.4963   30.4969   53.2144 H   0  0  0  0  0  0  0  0  0  0  0  0
   58.6416   32.1742   52.5820 H   0  0  0  0  0  0  0  0  0  0  0  0
   57.0106   30.6392   51.3206 H   0  0  0  0  0  0  0  0  0  0  0  0
   58.2612   31.4509   50.3163 H   0  0  0  0  0  0  0  0  0  0  0  0
   60.9053   30.5045   48.4750 H   0  0  0  0  0  0  0  0  0  0  0  0
   59.8059   32.2207   47.0485 H   0  0  0  0  0  0  0  0  0  0  0  0
   56.2806   32.9099   46.3591 H   0  0  0  0  0  0  0  0  0  0  0  0
   57.9626   33.3203   46.8510 H   0  0  0  0  0  0  0  0  0  0  0  0
   56.4475   34.1557   44.3385 H   0  0  0  0  0  0  0  0  0  0  0  0
   57.2748   35.1897   45.5496 H   0  0  0  0  0  0  0  0  0  0  0  0
   57.8496   33.4116   42.4549 H   0  0  0  0  0  0  0  0  0  0  0  0
   59.5016   32.8774   43.0430 H   0  0  0  0  0  0  0  0  0  0  0  0
   56.8455   31.6585   43.4902 H   0  0  0  0  0  0  0  0  0  0  0  0
   58.5046   30.9535   43.5967 H   0  0  0  0  0  0  0  0  0  0  0  0
  1  2  1  0
  2  3  1  0
  3  4  2  0
  4  5  1  0
  5  6  2  0
  6  7  1  0
  7  8  2  0
  8  9  1  0
  9 10  1  0
 10 11  2  0
 10 12  2  0
 10 13  1  0
 13 14  2  0
 14 15  1  0
 15 16  1  0
 16 17  1  0
 17 18  2  0
 17 19  1  0
 19 20  2  0
 20 21  1  0
 21 22  1  0
 22 23  1  0
 23 24  1  0
 15 25  2  0
 25 26  1  0
 26 27  2  0
 27 28  1  0
 28 29  1  0
 29 30  1  0
 30 31  1  0
 31 32  1  0
 32 33  1  0
  8  3  1  0
 27 13  1  0
 33 28  1  0
 24 19  1  0
  1 34  1  0
  1 35  1  0
  1 36  1  0
  4 37  1  0
  5 38  1  0
  6 39  1  0
  7 40  1  0
 14 41  1  0
 20 42  1  0
 22 43  1  0
 22 44  1  0
 23 45  1  0
 23 46  1  0
 25 47  1  0
 26 48  1  0
 29 49  1  0
 29 50  1  0
 30 51  1  0
 30 52  1  0
 32 53  1  0
 32 54  1  0
 33 55  1  0
 33 56  1  0
M  CHG  2   9  -1  16  -1
M  END
>  <UniqueID>  (11) 
11

>  <SMILES>  (11) 
COc1ccccc1[N-]S(=O)(=O)c1cc([N-]C(=O)C2=COCCO2)ccc1N1CCOCC1

>  <Energy>  (11) 
81.63658329602885

>  <Genealogy>  (11) 
COc1ccccc1[N-]S(=O)(=O)c1cc([N-]C(=O)C2=COCCO2)ccc1N1CCOCC1 (protonated)
COc1ccccc1[N-]S(=O)(=O)c1cc([N-]C(=O)C2=COCCO2)ccc1N1CCOCC1 (3D coordinates assigned)
COc1ccccc1[N-]S(=O)(=O)c1cc([N-]C(=O)C2=COCCO2)ccc1N1CCOCC1 (nonaromatic ring conformer: 81.63658329602885 kcal/mol)

>  <smiles>  (11) 
COc1ccccc1NS(=O)(=O)c1cc(NC(=O)C2=COCCO2)ccc1N1CCOCC1

>  <score_type>  (11) 
oracle

>  <origin>  (11) 
adg

>  <m_score__min__energy>  (11) 
-11.76

>  <m_primary>  (11) 
energy

$$$$
11:0
     RDKit          3D

 43 45  0  0  0  0  0  0  0  0999 V2000
   62.9900   33.2550   47.9420 C   0  0  0  0  0  0  0  0  0  0  0  0
   61.9470   34.1980   47.8490 O   0  0  0  0  0  0  0  0  0  0  0  0
   61.2190   34.2100   49.0580 C   0  0  0  0  0  0  0  0  0  0  0  0
   59.8240   34.2000   48.7710 O   0  0  0  0  0  0  0  0  0  0  0  0
   59.2170   33.4940   47.7170 C   0  0  0  0  0  0  0  0  0  0  0  0
   58.6160   34.1570   46.6320 C   0  0  0  0  0  0  0  0  0  0  0  0
   57.9830   33.4350   45.6210 C   0  0  0  0  0  0  0  0  0  0  0  0
   57.9330   32.0330   45.6630 C   0  0  0  0  0  0  0  0  0  0  0  0
   57.2630   31.3040   44.6130 N   0  0  0  0  0  0  0  0  0  0  0  0
   57.5150   31.3590   43.2880 C   0  0  0  0  0  0  0  0  0  0  0  0
   56.6440   30.5120   42.6390 C   0  0  0  0  0  0  0  0  0  0  0  0
   55.8720   29.9650   43.6430 C   0  0  0  0  0  0  0  0  0  0  0  0
   56.2640   30.4610   44.8310 N   0  0  0  0  0  0  0  0  0  0  0  0
   58.5360   31.3680   46.7470 C   0  0  0  0  0  0  0  0  0  0  0  0
   59.1930   32.0850   47.7600 C   0  0  0  0  0  0  0  0  0  0  0  0
   59.8250   31.3460   48.8780 C   0  0  0  0  0  0  0  0  0  0  0  0
   61.0080   30.9280   48.7460 O   0  0  0  0  0  0  0  0  0  0  0  0
   59.1160   31.0860   50.1030 N   0  0  0  0  0  0  0  0  0  0  0  0
   58.3350   32.1480   50.7540 C   0  0  0  0  0  0  0  0  0  0  0  0
   57.0500   31.5880   51.4050 C   0  0  0  0  0  0  0  0  0  0  0  0
   57.0880   30.1290   51.6050 N   0  0  0  0  0  0  0  0  0  0  0  0
   58.4220   29.6790   52.0090 C   0  0  0  0  0  0  0  0  0  0  0  0
   59.3830   29.8390   50.8300 C   0  0  0  0  0  0  0  0  0  0  0  0
   63.2106   33.0555   49.0010 H   0  0  0  0  0  0  0  0  0  0  0  0
   62.6844   32.3205   47.4488 H   0  0  0  0  0  0  0  0  0  0  0  0
   63.8891   33.6529   47.4488 H   0  0  0  0  0  0  0  0  0  0  0  0
   61.4779   33.3205   49.6510 H   0  0  0  0  0  0  0  0  0  0  0  0
   61.4700   35.1163   49.6287 H   0  0  0  0  0  0  0  0  0  0  0  0
   58.6456   35.2554   46.5805 H   0  0  0  0  0  0  0  0  0  0  0  0
   57.5173   33.9705   44.7806 H   0  0  0  0  0  0  0  0  0  0  0  0
   58.2872   31.9772   42.8068 H   0  0  0  0  0  0  0  0  0  0  0  0
   56.5784   30.3152   41.5587 H   0  0  0  0  0  0  0  0  0  0  0  0
   55.0614   29.2362   43.4953 H   0  0  0  0  0  0  0  0  0  0  0  0
   58.4920   30.2702   46.8015 H   0  0  0  0  0  0  0  0  0  0  0  0
   58.9530   32.6206   51.5317 H   0  0  0  0  0  0  0  0  0  0  0  0
   58.0425   32.8806   49.9874 H   0  0  0  0  0  0  0  0  0  0  0  0
   56.9149   32.0715   52.3838 H   0  0  0  0  0  0  0  0  0  0  0  0
   56.2168   31.8019   50.7194 H   0  0  0  0  0  0  0  0  0  0  0  0
   56.4150   29.8860   52.3700 H   0  0  0  0  0  0  0  0  0  0  0  0
   58.7744   30.2856   52.8563 H   0  0  0  0  0  0  0  0  0  0  0  0
   58.3804   28.6224   52.3122 H   0  0  0  0  0  0  0  0  0  0  0  0
   60.4162   29.8560   51.2071 H   0  0  0  0  0  0  0  0  0  0  0  0
   59.2394   28.9930   50.1418 H   0  0  0  0  0  0  0  0  0  0  0  0
  1  2  1  0
  2  3  1  0
  3  4  1  0
  4  5  1  0
  5  6  2  0
  6  7  1  0
  7  8  2  0
  8  9  1  0
  9 10  1  0
 10 11  2  0
 11 12  1  0
 12 13  2  0
  8 14  1  0
 14 15  2  0
 15 16  1  0
 16 17  2  0
 16 18  1  0
 18 19  1  0
 19 20  1  0
 20 21  1  0
 21 22  1  0
 22 23  1  0
 15  5  1  0
 23 18  1  0
 13  9  1  0
  1 24  1  0
  1 25  1  0
  1 26  1  0
  3 27  1  0
  3 28  1  0
  6 29  1  0
  7 30  1  0
 10 31  1  0
 11 32  1  0
 12 33  1  0
 14 34  1  0
 19 35  1  0
 19 36  1  0
 20 37  1  0
 20 38  1  0
 21 39  1  0
 22 40  1  0
 22 41  1  0
 23 42  1  0
 23 43  1  0
M  END
>  <UniqueID>  (12) 
12

>  <SMILES>  (12) 
COCOc1ccc(-n2cccn2)cc1C(=O)N1CCNCC1

>  <Energy>  (12) 
85.2354834318412

>  <Genealogy>  (12) 
COCOc1ccc(-n2cccn2)cc1C(=O)N1CCNCC1 (3D coordinates assigned)
COCOc1ccc(-n2cccn2)cc1C(=O)N1CCNCC1 (nonaromatic ring conformer: 85.2354834318412 kcal/mol)

>  <smiles>  (12) 
COCOc1ccc(-n2cccn2)cc1C(=O)N1CCNCC1

>  <score_type>  (12) 
oracle

>  <origin>  (12) 
adg

>  <m_score__min__energy>  (12) 
-6.7400000000000002

>  <m_primary>  (12) 
energy

$$$$
12:0
     RDKit          3D

 33 33  0  0  0  0  0  0  0  0999 V2000
   59.0270   21.8740   44.4840 C   0  0  0  0  0  0  0  0  0  0  0  0
   59.5880   22.6690   45.5230 O   0  0  0  0  0  0  0  0  0  0  0  0
   59.3000   24.0280   45.6690 C   0  0  0  0  0  0  0  0  0  0  0  0
   60.2070   24.8440   45.9940 O   0  0  0  0  0  0  0  0  0  0  0  0
   57.9610   24.4870   45.4460 N   0  0  0  0  0  0  0  0  0  0  0  0
   57.5800   25.8940   45.6010 C   0  0  1  0  0  0  0  0  0  0  0  0
   57.8830   26.6740   44.3070 C   0  0  0  0  0  0  0  0  0  0  0  0
   57.8680   28.1650   44.5350 C   0  0  0  0  0  0  0  0  0  0  0  0
   57.0540   28.9970   43.7460 C   0  0  0  0  0  0  0  0  0  0  0  0
   57.0170   30.3750   43.9830 C   0  0  0  0  0  0  0  0  0  0  0  0
   57.7860   30.9300   45.0100 C   0  0  0  0  0  0  0  0  0  0  0  0
   58.5900   30.1080   45.8050 C   0  0  0  0  0  0  0  0  0  0  0  0
   58.6290   28.7300   45.5720 C   0  0  0  0  0  0  0  0  0  0  0  0
   56.1190   25.9850   45.9510 C   0  0  0  0  0  0  0  0  0  0  0  0
   55.5210   27.0910   45.8560 O   0  0  0  0  0  0  0  0  0  0  0  0
   55.4100   24.8140   46.3640 N   0  0  0  0  0  0  0  0  0  0  0  0
   54.4960   24.0980   45.4880 C   0  0  0  0  0  0  0  0  0  0  0  0
   55.2650   23.3040   44.5300 C   0  0  0  0  0  0  0  0  0  0  0  0
   55.8750   22.6780   43.7710 N   0  0  0  0  0  0  0  0  0  0  0  0
   58.4460   21.0507   44.9253 H   0  0  0  0  0  0  0  0  0  0  0  0
   58.3669   22.4963   43.8619 H   0  0  0  0  0  0  0  0  0  0  0  0
   59.8345   21.4606   43.8619 H   0  0  0  0  0  0  0  0  0  0  0  0
   57.2420   23.7790   45.1730 H   0  0  0  0  0  0  0  0  0  0  0  0
   58.1674   26.3432   46.4154 H   0  0  0  0  0  0  0  0  0  0  0  0
   58.8770   26.3801   43.9386 H   0  0  0  0  0  0  0  0  0  0  0  0
   57.1015   26.4328   43.5715 H   0  0  0  0  0  0  0  0  0  0  0  0
   56.4444   28.5628   42.9399 H   0  0  0  0  0  0  0  0  0  0  0  0
   56.3821   31.0227   43.3606 H   0  0  0  0  0  0  0  0  0  0  0  0
   57.7584   32.0144   45.1927 H   0  0  0  0  0  0  0  0  0  0  0  0
   59.1925   30.5457   46.6146 H   0  0  0  0  0  0  0  0  0  0  0  0
   59.2582   28.0854   46.2033 H   0  0  0  0  0  0  0  0  0  0  0  0
   53.8579   23.4326   46.0880 H   0  0  0  0  0  0  0  0  0  0  0  0
   53.8652   24.8183   44.9465 H   0  0  0  0  0  0  0  0  0  0  0  0
  1  2  1  0
  2  3  1  0
  3  4  2  0
  3  5  1  0
  5  6  1  0
  6  7  1  0
  7  8  1  0
  8  9  2  0
  9 10  1  0
 10 11  2  0
 11 12  1  0
 12 13  2  0
  6 14  1  0
 14 15  2  0
 14 16  1  0
 16 17  1  0
 17 18  1  0
 18 19  3  0
 13  8  1  0
  1 20  1  0
  1 21  1  0
  1 22  1  0
  5 23  1  0
  6 24  1  1
  7 25  1  0
  7 26  1  0
  9 27  1  0
 10 28  1  0
 11 29  1  0
 12 30  1  0
 13 31  1  0
 17 32  1  0
 17 33  1  0
M  CHG  1  16  -1
M  END
>  <UniqueID>  (13) 
13

>  <SMILES>  (13) 
COC(=O)N[C@@H](Cc1ccccc1)C(=O)[N-]CC#N

>  <Energy>  (13) 
19.671419963593625

>  <Genealogy>  (13) 
COC(=O)NC(Cc1ccccc1)C(=O)[N-]CC#N (protonated)
COC(=O)N[C@@H](Cc1ccccc1)C(=O)[N-]CC#N (chirality)
COC(=O)N[C@@H](Cc1ccccc1)C(=O)[N-]CC#N (3D coordinates assigned)
COC(=O)N[C@@H](Cc1ccccc1)C(=O)[N-]CC#N (optimized conformer: 19.671419963593625 kcal/mol)

>  <smiles>  (13) 
COC(=O)NC(Cc1ccccc1)C(=O)NCC#N

>  <score_type>  (13) 
oracle

>  <origin>  (13) 
adg

>  <m_score__min__energy>  (13) 
-8.5600000000000005

>  <m_primary>  (13) 
energy

$$$$
13:0
     RDKit          3D

 39 41  0  0  0  0  0  0  0  0999 V2000
   54.2590   26.2100   46.3740 H   0  0  0  0  0  0  0  0  0  0  0  0
   55.2600   25.9250   46.2960 N   0  0  0  0  0  0  0  0  0  0  0  0
   55.7050   25.1620   45.3460 C   0  0  0  0  0  0  0  0  0  0  0  0
   56.9930   25.3870   44.7400 N   0  0  0  0  0  0  0  0  0  0  0  0
   58.0970   26.0220   45.4740 C   0  0  0  0  0  0  0  0  0  0  0  0
   58.0186   25.7638   46.5404 H   0  0  0  0  0  0  0  0  0  0  0  0
   59.0515   25.6589   45.0652 H   0  0  0  0  0  0  0  0  0  0  0  0
   58.0400   27.5100   45.3220 C   0  0  0  0  0  0  0  0  0  0  0  0
   58.4230   28.6250   46.5370 S   0  0  0  0  0  0  0  0  0  0  0  0
   58.0850   29.9790   45.6030 C   0  0  0  0  0  0  0  0  0  0  0  0
   58.1810   31.3210   45.9600 C   0  0  0  0  0  0  0  0  0  0  0  0
   58.5167   31.6154   46.9653 H   0  0  0  0  0  0  0  0  0  0  0  0
   57.8380   32.2880   45.0030 C   0  0  0  0  0  0  0  0  0  0  0  0
   57.9027   33.3564   45.2568 H   0  0  0  0  0  0  0  0  0  0  0  0
   57.4110   31.8970   43.7180 C   0  0  0  0  0  0  0  0  0  0  0  0
   57.1457   32.6625   42.9740 H   0  0  0  0  0  0  0  0  0  0  0  0
   57.3220   30.5360   43.3810 C   0  0  0  0  0  0  0  0  0  0  0  0
   56.9885   30.2277   42.3791 H   0  0  0  0  0  0  0  0  0  0  0  0
   57.6650   29.5810   44.3420 C   0  0  0  0  0  0  0  0  0  0  0  0
   57.6330   28.1930   44.1740 C   0  0  0  0  0  0  0  0  0  0  0  0
   57.3225   27.6957   43.2432 H   0  0  0  0  0  0  0  0  0  0  0  0
   57.2030   24.9070   43.3680 C   0  0  0  0  0  0  0  0  0  0  0  0
   58.2814   24.8992   43.1514 H   0  0  0  0  0  0  0  0  0  0  0  0
   56.6745   25.5809   42.6777 H   0  0  0  0  0  0  0  0  0  0  0  0
   56.6650   23.5390   43.1930 N   0  0  1  0  0  0  0  0  0  0  0  0
   56.7530   23.2940   42.1780 H   0  0  0  0  0  0  0  0  0  0  0  0
   57.4050   22.5230   43.9850 C   0  0  0  0  0  0  0  0  0  0  0  0
   58.4422   22.8651   44.1163 H   0  0  0  0  0  0  0  0  0  0  0  0
   56.8901   22.4123   44.9507 H   0  0  0  0  0  0  0  0  0  0  0  0
   57.4230   21.1490   43.3070 C   0  0  0  0  0  0  0  0  0  0  0  0
   57.4333   20.3614   44.0748 H   0  0  0  0  0  0  0  0  0  0  0  0
   56.5262   21.0379   42.6797 H   0  0  0  0  0  0  0  0  0  0  0  0
   58.3224   21.0614   42.6797 H   0  0  0  0  0  0  0  0  0  0  0  0
   55.2150   23.5290   43.5030 C   0  0  0  0  0  0  0  0  0  0  0  0
   54.8306   22.5099   43.3492 H   0  0  0  0  0  0  0  0  0  0  0  0
   54.7304   24.2557   42.8344 H   0  0  0  0  0  0  0  0  0  0  0  0
   54.9070   23.9560   44.9470 C   0  0  0  0  0  0  0  0  0  0  0  0
   55.1516   23.1252   45.6252 H   0  0  0  0  0  0  0  0  0  0  0  0
   53.8392   24.2123   45.0107 H   0  0  0  0  0  0  0  0  0  0  0  0
  1  2  1  0
  2  3  2  0
  3  4  1  0
  4  5  1  0
  5  6  1  0
  5  7  1  0
  5  8  1  0
  8  9  1  0
  9 10  1  0
 10 11  2  0
 11 12  1  0
 11 13  1  0
 13 14  1  0
 13 15  2  0
 15 16  1  0
 15 17  1  0
 17 18  1  0
 17 19  2  0
 19 20  1  0
 20 21  1  0
  4 22  1  0
 22 23  1  0
 22 24  1  0
 22 25  1  0
 25 26  1  6
 25 27  1  0
 27 28  1  0
 27 29  1  0
 27 30  1  0
 30 31  1  0
 30 32  1  0
 30 33  1  0
 25 34  1  0
 34 35  1  0
 34 36  1  0
 34 37  1  0
 37 38  1  0
 37 39  1  0
 37  3  1  0
 20  8  2  0
 19 10  1  0
M  CHG  1  25   1
M  END
>  <UniqueID>  (14) 
14

>  <SMILES>  (14) 
[H]/N=C1/CC[N@H+](CC)CN1Cc1cc2ccccc2s1

>  <Energy>  (14) 
72.3660378034037

>  <Genealogy>  (14) 
CC[NH+]1CCC(=N)N(Cc2cc3ccccc3s2)C1 (protonated)
CC[N@H+]1CCC(=N)N(Cc2cc3ccccc3s2)C1 (chirality)
[H]/N=C1/CC[N@H+](CC)CN1Cc1cc2ccccc2s1 (cis-trans isomerization)
[H]/N=C1/CC[N@H+](CC)CN1Cc1cc2ccccc2s1 (3D coordinates assigned)
[H]/N=C1/CC[N@H+](CC)CN1Cc1cc2ccccc2s1 (nonaromatic ring conformer: 72.3660378034037 kcal/mol)

>  <smiles>  (14) 
CCN1CCC(=N)N(Cc2cc3ccccc3s2)C1

>  <score_type>  (14) 
oracle

>  <origin>  (14) 
adg

>  <m_score__min__energy>  (14) 
-5.5

>  <m_primary>  (14) 
energy

$$$$
14:0
     RDKit          3D

 33 34  0  0  0  0  0  0  0  0999 V2000
   60.6850   26.7740   48.8720 C   0  0  0  0  0  0  0  0  0  0  0  0
   60.3970   26.5980   47.4890 O   0  0  0  0  0  0  0  0  0  0  0  0
   59.5030   27.3950   46.7560 C   0  0  0  0  0  0  0  0  0  0  0  0
   59.8560   28.6740   46.2820 C   0  0  0  0  0  0  0  0  0  0  0  0
   58.9390   29.4350   45.5540 C   0  0  0  0  0  0  0  0  0  0  0  0
   57.6580   28.9350   45.2910 C   0  0  0  0  0  0  0  0  0  0  0  0
   56.5230   29.8970   44.3450 S   0  0  0  0  0  0  0  0  0  0  0  0
   55.1410   29.3440   44.5450 O   0  0  0  0  0  0  0  0  0  0  0  0
   56.8610   29.8100   42.8830 O   0  0  0  0  0  0  0  0  0  0  0  0
   56.5420   31.5650   44.8460 N   0  0  0  0  0  0  0  0  0  0  0  0
   57.6740   32.2910   44.2660 C   0  0  0  0  0  0  0  0  0  0  0  0
   58.2940   33.2300   45.2660 C   0  0  0  0  0  0  0  0  0  0  0  0
   58.1390   33.0140   46.6420 C   0  0  0  0  0  0  0  0  0  0  0  0
   58.7340   33.8940   47.5500 C   0  0  0  0  0  0  0  0  0  0  0  0
   59.4570   34.9550   47.1000 N   0  0  0  0  0  0  0  0  0  0  0  0
   59.6180   35.1910   45.7690 C   0  0  0  0  0  0  0  0  0  0  0  0
   59.0400   34.3350   44.8280 C   0  0  0  0  0  0  0  0  0  0  0  0
   57.3010   27.6660   45.7620 C   0  0  0  0  0  0  0  0  0  0  0  0
   58.2180   26.8990   46.4890 C   0  0  0  0  0  0  0  0  0  0  0  0
   57.6960   25.1640   47.1050 Br  0  0  0  0  0  0  0  0  0  0  0  0
   59.8995   26.2940   49.4741 H   0  0  0  0  0  0  0  0  0  0  0  0
   61.6574   26.3156   49.1053 H   0  0  0  0  0  0  0  0  0  0  0  0
   60.7207   27.8484   49.1053 H   0  0  0  0  0  0  0  0  0  0  0  0
   60.8595   29.0753   46.4865 H   0  0  0  0  0  0  0  0  0  0  0  0
   59.2243   30.4314   45.1856 H   0  0  0  0  0  0  0  0  0  0  0  0
   58.4333   31.5663   43.9368 H   0  0  0  0  0  0  0  0  0  0  0  0
   57.3062   32.8840   43.4157 H   0  0  0  0  0  0  0  0  0  0  0  0
   57.5526   32.1571   47.0051 H   0  0  0  0  0  0  0  0  0  0  0  0
   58.6175   33.7284   48.6312 H   0  0  0  0  0  0  0  0  0  0  0  0
   59.8950   35.6040   47.7910 H   0  0  0  0  0  0  0  0  0  0  0  0
   60.2051   36.0585   45.4332 H   0  0  0  0  0  0  0  0  0  0  0  0
   59.1687   34.5257   43.7523 H   0  0  0  0  0  0  0  0  0  0  0  0
   56.2949   27.2700   45.5596 H   0  0  0  0  0  0  0  0  0  0  0  0
  1  2  1  0
  2  3  1  0
  3  4  2  0
  4  5  1  0
  5  6  2  0
  6  7  1  0
  7  8  2  0
  7  9  2  0
  7 10  1  0
 10 11  1  0
 11 12  1  0
 12 13  2  0
 13 14  1  0
 14 15  2  0
 15 16  1  0
 16 17  2  0
  6 18  1  0
 18 19  2  0
 19 20  1  0
 19  3  1  0
 17 12  1  0
  1 21  1  0
  1 22  1  0
  1 23  1  0
  4 24  1  0
  5 25  1  0
 11 26  1  0
 11 27  1  0
 13 28  1  0
 14 29  1  0
 15 30  1  0
 16 31  1  0
 17 32  1  0
 18 33  1  0
M  CHG  2  10  -1  15   1
M  END
>  <UniqueID>  (15) 
15

>  <SMILES>  (15) 
COc1ccc(S(=O)(=O)[N-]Cc2cc[nH+]cc2)cc1Br

>  <Energy>  (15) 
31.26784514751092

>  <Genealogy>  (15) 
COc1ccc(S(=O)(=O)[N-]Cc2cc[nH+]cc2)cc1Br (protonated)
COc1ccc(S(=O)(=O)[N-]Cc2cc[nH+]cc2)cc1Br (3D coordinates assigned)
COc1ccc(S(=O)(=O)[N-]Cc2cc[nH+]cc2)cc1Br (optimized conformer: 31.26784514751092 kcal/mol)

>  <smiles>  (15) 
COc1ccc(S(=O)(=O)NCc2ccncc2)cc1Br

>  <score_type>  (15) 
oracle

>  <origin>  (15) 
adg

>  <m_score__min__energy>  (15) 
-7.1299999999999999

>  <m_primary>  (15) 
energy

$$$$
15:0
     RDKit          3D

 34 36  0  0  0  0  0  0  0  0999 V2000
   58.4320   29.0150   44.5750 C   0  0  0  0  0  0  0  0  0  0  0  0
   58.9880   30.2530   45.1450 N   0  0  2  0  0  0  0  0  0  0  0  0
   59.1370   30.1870   46.6170 C   0  0  0  0  0  0  0  0  0  0  0  0
   60.2490   31.0460   47.1550 C   0  0  0  0  0  0  0  0  0  0  0  0
   60.5010   31.2860   48.5050 C   0  0  0  0  0  0  0  0  0  0  0  0
   61.6010   32.1100   48.5020 C   0  0  0  0  0  0  0  0  0  0  0  0
   62.3160   32.6800   49.5520 C   0  0  0  0  0  0  0  0  0  0  0  0
   63.4170   33.4940   49.2280 C   0  0  0  0  0  0  0  0  0  0  0  0
   63.7700   33.7150   47.8780 C   0  0  0  0  0  0  0  0  0  0  0  0
   63.0250   33.1230   46.8400 C   0  0  0  0  0  0  0  0  0  0  0  0
   61.9410   32.3230   47.1930 C   0  0  0  0  0  0  0  0  0  0  0  0
   61.1230   31.6840   46.3960 O   0  0  0  0  0  0  0  0  0  0  0  0
   58.0490   31.6340   44.6220 S   0  0  0  0  0  0  0  0  0  0  0  0
   58.2660   31.8620   43.1520 O   0  0  0  0  0  0  0  0  0  0  0  0
   56.5850   31.3860   44.8600 O   0  0  0  0  0  0  0  0  0  0  0  0
   58.5430   33.0800   45.4850 C   0  0  0  0  0  0  0  0  0  0  0  0
   59.3980   34.0620   45.0100 C   0  0  0  0  0  0  0  0  0  0  0  0
   59.6030   35.0980   45.9280 C   0  0  0  0  0  0  0  0  0  0  0  0
   58.9150   34.9280   47.1240 C   0  0  0  0  0  0  0  0  0  0  0  0
   58.0500   33.4860   47.0380 S   0  0  0  0  0  0  0  0  0  0  0  0
   58.1290   28.3403   45.3892 H   0  0  0  0  0  0  0  0  0  0  0  0
   57.5565   29.2577   43.9549 H   0  0  0  0  0  0  0  0  0  0  0  0
   59.1951   28.5218   43.9549 H   0  0  0  0  0  0  0  0  0  0  0  0
   59.9490   30.3740   44.7430 H   0  0  0  0  0  0  0  0  0  0  0  0
   58.1927   30.5149   47.0760 H   0  0  0  0  0  0  0  0  0  0  0  0
   59.3879   29.1455   46.8668 H   0  0  0  0  0  0  0  0  0  0  0  0
   59.9461   30.9032   49.3742 H   0  0  0  0  0  0  0  0  0  0  0  0
   62.0300   32.5001   50.5988 H   0  0  0  0  0  0  0  0  0  0  0  0
   64.0065   33.9611   50.0307 H   0  0  0  0  0  0  0  0  0  0  0  0
   64.6324   34.3536   47.6362 H   0  0  0  0  0  0  0  0  0  0  0  0
   63.2904   33.2870   45.7852 H   0  0  0  0  0  0  0  0  0  0  0  0
   59.8665   34.0303   44.0153 H   0  0  0  0  0  0  0  0  0  0  0  0
   60.2478   35.9652   45.7227 H   0  0  0  0  0  0  0  0  0  0  0  0
   58.9327   35.6180   47.9805 H   0  0  0  0  0  0  0  0  0  0  0  0
  1  2  1  0
  2  3  1  0
  3  4  1  0
  4  5  2  0
  5  6  1  0
  6  7  2  0
  7  8  1  0
  8  9  2  0
  9 10  1  0
 10 11  2  0
 11 12  1  0
  2 13  1  0
 13 14  2  0
 13 15  2  0
 13 16  1  0
 16 17  2  0
 17 18  1  0
 18 19  2  0
 19 20  1  0
 12  4  1  0
 20 16  1  0
 11  6  1  0
  1 21  1  0
  1 22  1  0
  1 23  1  0
  2 24  1  6
  3 25  1  0
  3 26  1  0
  5 27  1  0
  7 28  1  0
  8 29  1  0
  9 30  1  0
 10 31  1  0
 17 32  1  0
 18 33  1  0
 19 34  1  0
M  CHG  1   2   1
M  END
>  <UniqueID>  (16) 
16

>  <SMILES>  (16) 
C[N@H+](Cc1cc2ccccc2o1)S(=O)(=O)c1cccs1

>  <Energy>  (16) 
94.85844582272333

>  <Genealogy>  (16) 
C[NH+](Cc1cc2ccccc2o1)S(=O)(=O)c1cccs1 (protonated)
C[N@H+](Cc1cc2ccccc2o1)S(=O)(=O)c1cccs1 (chirality)
C[N@H+](Cc1cc2ccccc2o1)S(=O)(=O)c1cccs1 (3D coordinates assigned)
C[N@H+](Cc1cc2ccccc2o1)S(=O)(=O)c1cccs1 (optimized conformer: 94.85844582272333 kcal/mol)

>  <smiles>  (16) 
CN(Cc1cc2ccccc2o1)S(=O)(=O)c1cccs1

>  <score_type>  (16) 
oracle

>  <origin>  (16) 
adg

>  <m_score__min__energy>  (16) 
-5.5

>  <m_primary>  (16) 
energy

$$$$
16:0
     RDKit          3D

 40 42  0  0  0  0  0  0  0  0999 V2000
   57.0980   23.9760   47.9140 O   0  0  0  0  0  0  0  0  0  0  0  0
   57.0920   24.9080   47.0670 C   0  0  0  0  0  0  0  0  0  0  0  0
   58.2790   25.3290   46.2970 C   0  0  0  0  0  0  0  0  0  0  0  0
   57.8100   26.6590   45.6470 C   0  0  0  0  0  0  0  0  0  0  0  0
   58.3350   26.7820   44.1980 C   0  0  0  0  0  0  0  0  0  0  0  0
   57.7800   28.0400   43.5110 C   0  0  0  0  0  0  0  0  0  0  0  0
   57.6840   29.1760   44.4410 N   0  0  0  0  0  0  0  0  0  0  0  0
   56.9510   30.3510   44.0430 C   0  0  0  0  0  0  0  0  0  0  0  0
   56.3390   30.3680   42.9390 O   0  0  0  0  0  0  0  0  0  0  0  0
   56.9120   31.4720   44.8810 O   0  0  0  0  0  0  0  0  0  0  0  0
   57.3880   32.7590   44.4910 C   0  0  0  0  0  0  0  0  0  0  0  0
   58.1720   33.3870   45.6110 C   0  0  0  0  0  0  0  0  0  0  0  0
   58.1670   32.8190   46.8960 C   0  0  0  0  0  0  0  0  0  0  0  0
   58.9180   33.3980   47.9240 C   0  0  0  0  0  0  0  0  0  0  0  0
   59.6800   34.5430   47.6760 C   0  0  0  0  0  0  0  0  0  0  0  0
   59.6920   35.1110   46.3990 C   0  0  0  0  0  0  0  0  0  0  0  0
   58.9430   34.5350   45.3690 C   0  0  0  0  0  0  0  0  0  0  0  0
   58.4840   29.1780   45.6740 C   0  0  0  0  0  0  0  0  0  0  0  0
   58.3030   27.8790   46.4880 C   0  0  0  0  0  0  0  0  0  0  0  0
   56.2530   26.5680   45.6880 C   0  0  0  0  0  0  0  0  0  0  0  0
   55.9270   25.6400   46.7540 N   0  0  0  0  0  0  0  0  0  0  0  0
   59.1427   25.4935   46.9580 H   0  0  0  0  0  0  0  0  0  0  0  0
   58.6128   24.5791   45.5647 H   0  0  0  0  0  0  0  0  0  0  0  0
   59.4333   26.8389   44.2179 H   0  0  0  0  0  0  0  0  0  0  0  0
   58.0027   25.9000   43.6309 H   0  0  0  0  0  0  0  0  0  0  0  0
   58.4471   28.3154   42.6809 H   0  0  0  0  0  0  0  0  0  0  0  0
   56.7675   27.8110   43.1470 H   0  0  0  0  0  0  0  0  0  0  0  0
   58.0363   32.6541   43.6086 H   0  0  0  0  0  0  0  0  0  0  0  0
   56.5277   33.4015   44.2522 H   0  0  0  0  0  0  0  0  0  0  0  0
   57.5706   31.9162   47.0941 H   0  0  0  0  0  0  0  0  0  0  0  0
   58.9089   32.9515   48.9293 H   0  0  0  0  0  0  0  0  0  0  0  0
   60.2702   34.9971   48.4856 H   0  0  0  0  0  0  0  0  0  0  0  0
   60.2916   36.0124   46.2043 H   0  0  0  0  0  0  0  0  0  0  0  0
   58.9577   34.9831   44.3645 H   0  0  0  0  0  0  0  0  0  0  0  0
   59.5459   29.2839   45.4072 H   0  0  0  0  0  0  0  0  0  0  0  0
   58.1423   30.0176   46.2971 H   0  0  0  0  0  0  0  0  0  0  0  0
   59.2712   27.6176   46.9400 H   0  0  0  0  0  0  0  0  0  0  0  0
   57.5234   28.0818   47.2370 H   0  0  0  0  0  0  0  0  0  0  0  0
   55.8191   27.5568   45.8980 H   0  0  0  0  0  0  0  0  0  0  0  0
   55.8470   26.2278   44.7239 H   0  0  0  0  0  0  0  0  0  0  0  0
  1  2  2  0
  2  3  1  0
  3  4  1  0
  4  5  1  0
  5  6  1  0
  6  7  1  0
  7  8  1  0
  8  9  2  0
  8 10  1  0
 10 11  1  0
 11 12  1  0
 12 13  2  0
 13 14  1  0
 14 15  2  0
 15 16  1  0
 16 17  2  0
  7 18  1  0
 18 19  1  0
  4 20  1  0
 20 21  1  0
 21  2  1  0
 19  4  1  0
 17 12  1  0
  3 22  1  0
  3 23  1  0
  5 24  1  0
  5 25  1  0
  6 26  1  0
  6 27  1  0
 11 28  1  0
 11 29  1  0
 13 30  1  0
 14 31  1  0
 15 32  1  0
 16 33  1  0
 17 34  1  0
 18 35  1  0
 18 36  1  0
 19 37  1  0
 19 38  1  0
 20 39  1  0
 20 40  1  0
M  CHG  1  21  -1
M  END
>  <UniqueID>  (17) 
17

>  <SMILES>  (17) 
O=C1CC2(CCN(C(=O)OCc3ccccc3)CC2)C[N-]1

>  <Energy>  (17) 
52.73477841143861

>  <Genealogy>  (17) 
O=C1CC2(CCN(C(=O)OCc3ccccc3)CC2)C[N-]1 (protonated)
O=C1CC2(CCN(C(=O)OCc3ccccc3)CC2)C[N-]1 (3D coordinates assigned)
O=C1CC2(CCN(C(=O)OCc3ccccc3)CC2)C[N-]1 (nonaromatic ring conformer: 52.73477841143861 kcal/mol)

>  <smiles>  (17) 
O=C1CC2(CCN(C(=O)OCc3ccccc3)CC2)CN1

>  <score_type>  (17) 
oracle

>  <origin>  (17) 
adg

>  <m_score__min__energy>  (17) 
-10.02

>  <m_primary>  (17) 
energy

$$$$
17:0
     RDKit          3D

 48 51  0  0  0  0  0  0  0  0999 V2000
   56.7040   22.2150   43.2450 C   0  0  0  0  0  0  0  0  0  0  0  0
   56.6560   23.7350   43.3640 C   0  0  0  0  0  0  0  0  0  0  0  0
   57.1580   24.1600   44.6310 O   0  0  0  0  0  0  0  0  0  0  0  0
   57.4640   25.4840   44.9870 C   0  0  0  0  0  0  0  0  0  0  0  0
   58.0770   26.3920   44.1010 C   0  0  0  0  0  0  0  0  0  0  0  0
   58.3580   27.6980   44.5120 C   0  0  0  0  0  0  0  0  0  0  0  0
   58.0360   28.1170   45.8120 C   0  0  0  0  0  0  0  0  0  0  0  0
   58.3270   29.4660   46.2360 N   0  0  0  0  0  0  0  0  0  0  0  0
   57.7580   30.5160   45.5790 C   0  0  0  0  0  0  0  0  0  0  0  0
   56.9770   30.3050   44.6060 O   0  0  0  0  0  0  0  0  0  0  0  0
   58.0240   31.8280   45.9870 C   0  0  0  0  0  0  0  0  0  0  0  0
   57.4380   32.9230   45.3200 C   0  0  0  0  0  0  0  0  0  0  0  0
   57.6950   34.2250   45.7380 C   0  0  0  0  0  0  0  0  0  0  0  0
   58.5310   34.4530   46.8240 C   0  0  0  0  0  0  0  0  0  0  0  0
   59.1220   33.3820   47.4980 C   0  0  0  0  0  0  0  0  0  0  0  0
   58.8870   32.0400   47.0930 C   0  0  0  0  0  0  0  0  0  0  0  0
   59.4620   30.9530   47.7280 N   0  0  0  0  0  0  0  0  0  0  0  0
   60.3720   31.0870   48.8920 C   0  0  0  0  0  0  0  0  0  0  0  0
   61.5740   31.9320   48.5410 C   0  0  0  0  0  0  0  0  0  0  0  0
   62.4030   31.5870   47.4590 C   0  0  0  0  0  0  0  0  0  0  0  0
   63.5000   32.3870   47.1270 C   0  0  0  0  0  0  0  0  0  0  0  0
   63.7800   33.5370   47.8680 C   0  0  0  0  0  0  0  0  0  0  0  0
   62.9630   33.8900   48.9450 C   0  0  0  0  0  0  0  0  0  0  0  0
   61.8630   33.0930   49.2800 C   0  0  0  0  0  0  0  0  0  0  0  0
   59.1680   29.6780   47.2950 C   0  0  0  0  0  0  0  0  0  0  0  0
   59.6890   28.6810   47.8750 O   0  0  0  0  0  0  0  0  0  0  0  0
   57.4300   27.2130   46.6960 C   0  0  0  0  0  0  0  0  0  0  0  0
   57.1490   25.9070   46.2850 C   0  0  0  0  0  0  0  0  0  0  0  0
   56.7181   21.7688   44.2503 H   0  0  0  0  0  0  0  0  0  0  0  0
   55.8166   21.8617   42.6994 H   0  0  0  0  0  0  0  0  0  0  0  0
   57.6120   21.9184   42.6994 H   0  0  0  0  0  0  0  0  0  0  0  0
   57.2691   24.1788   42.5658 H   0  0  0  0  0  0  0  0  0  0  0  0
   55.6103   24.0633   43.2707 H   0  0  0  0  0  0  0  0  0  0  0  0
   58.3356   26.0715   43.0810 H   0  0  0  0  0  0  0  0  0  0  0  0
   58.8341   28.4011   43.8127 H   0  0  0  0  0  0  0  0  0  0  0  0
   56.7723   32.7467   44.4623 H   0  0  0  0  0  0  0  0  0  0  0  0
   57.2365   35.0734   45.2089 H   0  0  0  0  0  0  0  0  0  0  0  0
   58.7286   35.4832   47.1550 H   0  0  0  0  0  0  0  0  0  0  0  0
   59.7803   33.5804   48.3566 H   0  0  0  0  0  0  0  0  0  0  0  0
   59.8279   31.5616   49.7219 H   0  0  0  0  0  0  0  0  0  0  0  0
   60.7195   30.0850   49.1841 H   0  0  0  0  0  0  0  0  0  0  0  0
   62.1871   30.6829   46.8708 H   0  0  0  0  0  0  0  0  0  0  0  0
   64.1445   32.1100   46.2797 H   0  0  0  0  0  0  0  0  0  0  0  0
   64.6437   34.1649   47.6038 H   0  0  0  0  0  0  0  0  0  0  0  0
   63.1847   34.7949   49.5298 H   0  0  0  0  0  0  0  0  0  0  0  0
   61.2203   33.3762   50.1266 H   0  0  0  0  0  0  0  0  0  0  0  0
   57.1747   27.5329   47.7170 H   0  0  0  0  0  0  0  0  0  0  0  0
   56.6761   25.2047   46.9872 H   0  0  0  0  0  0  0  0  0  0  0  0
  1  2  1  0
  2  3  1  0
  3  4  1  0
  4  5  2  0
  5  6  1  0
  6  7  2  0
  7  8  1  0
  8  9  1  0
  9 10  2  0
  9 11  1  0
 11 12  2  0
 12 13  1  0
 13 14  2  0
 14 15  1  0
 15 16  2  0
 16 17  1  0
 17 18  1  0
 18 19  1  0
 19 20  2  0
 20 21  1  0
 21 22  2  0
 22 23  1  0
 23 24  2  0
 17 25  1  0
 25 26  2  0
  7 27  1  0
 27 28  2  0
 28  4  1  0
 25  8  1  0
 16 11  1  0
 24 19  1  0
  1 29  1  0
  1 30  1  0
  1 31  1  0
  2 32  1  0
  2 33  1  0
  5 34  1  0
  6 35  1  0
 12 36  1  0
 13 37  1  0
 14 38  1  0
 15 39  1  0
 18 40  1  0
 18 41  1  0
 20 42  1  0
 21 43  1  0
 22 44  1  0
 23 45  1  0
 24 46  1  0
 27 47  1  0
 28 48  1  0
M  END
>  <UniqueID>  (18) 
18

>  <SMILES>  (18) 
CCOc1ccc(-n2c(=O)c3ccccc3n(Cc3ccccc3)c2=O)cc1

>  <Energy>  (18) 
74.0445801731334

>  <Genealogy>  (18) 
CCOc1ccc(-n2c(=O)c3ccccc3n(Cc3ccccc3)c2=O)cc1 (3D coordinates assigned)
CCOc1ccc(-n2c(=O)c3ccccc3n(Cc3ccccc3)c2=O)cc1 (optimized conformer: 74.0445801731334 kcal/mol)

>  <smiles>  (18) 
CCOc1ccc(-n2c(=O)c3ccccc3n(Cc3ccccc3)c2=O)cc1

>  <score_type>  (18) 
oracle

>  <origin>  (18) 
adg

>  <m_score__min__energy>  (18) 
-8.2200000000000006

>  <m_primary>  (18) 
energy

$$$$
18:0
     RDKit          3D

 56 57  0  0  0  0  0  0  0  0999 V2000
   65.3550   32.5390   49.8690 C   0  0  0  0  0  0  0  0  0  0  0  0
   64.2280   33.4280   49.3510 C   0  0  0  0  0  0  0  0  0  0  0  0
   63.3010   32.7370   48.3230 C   0  0  0  0  0  0  0  0  0  0  0  0
   62.1680   33.5530   47.8120 N   0  0  0  0  0  0  0  0  0  0  0  0
   61.3520   34.2500   48.8320 C   0  0  0  0  0  0  0  0  0  0  0  0
   61.0670   33.3710   50.0620 C   0  0  0  0  0  0  0  0  0  0  0  0
   59.6100   33.4560   50.5080 C   0  0  0  0  0  0  0  0  0  0  0  0
   61.3530   32.8670   46.7810 C   0  0  0  0  0  0  0  0  0  0  0  0
   60.5000   31.7480   47.4190 C   0  0  2  0  0  0  0  0  0  0  0  0
   61.1910   30.3710   47.2350 C   0  0  0  0  0  0  0  0  0  0  0  0
   60.2940   29.2660   47.5950 N   0  0  0  0  0  0  0  0  0  0  0  0
   59.1240   29.2830   46.7550 C   0  0  0  0  0  0  0  0  0  0  0  0
   58.5130   28.0910   46.3400 C   0  0  0  0  0  0  0  0  0  0  0  0
   57.3490   28.1370   45.5710 C   0  0  0  0  0  0  0  0  0  0  0  0
   56.7930   29.3750   45.2370 C   0  0  0  0  0  0  0  0  0  0  0  0
   55.6250   29.4200   44.4710 O   0  0  0  0  0  0  0  0  0  0  0  0
   55.6310   29.7160   43.0790 C   0  0  0  0  0  0  0  0  0  0  0  0
   57.3920   30.5200   45.6660 N   0  0  0  0  0  0  0  0  0  0  0  0
   58.5270   30.5060   46.4180 C   0  0  0  0  0  0  0  0  0  0  0  0
   59.1230   31.7370   46.8680 N   0  0  0  0  0  0  0  0  0  0  0  0
   58.3040   32.9200   46.9230 C   0  0  0  0  0  0  0  0  0  0  0  0
   57.6440   33.1710   47.9640 O   0  0  0  0  0  0  0  0  0  0  0  0
   58.2600   33.8580   45.8380 N   0  0  0  0  0  0  0  0  0  0  0  0
   57.4410   33.7630   44.6320 C   0  0  0  0  0  0  0  0  0  0  0  0
   58.0420   32.7870   43.6270 C   0  0  0  0  0  0  0  0  0  0  0  0
   65.3494   32.5434   50.9690 H   0  0  0  0  0  0  0  0  0  0  0  0
   65.2077   31.5112   49.5057 H   0  0  0  0  0  0  0  0  0  0  0  0
   66.3202   32.9216   49.5057 H   0  0  0  0  0  0  0  0  0  0  0  0
   63.6168   33.7460   50.2085 H   0  0  0  0  0  0  0  0  0  0  0  0
   64.7035   34.2733   48.8319 H   0  0  0  0  0  0  0  0  0  0  0  0
   63.9169   32.4401   47.4613 H   0  0  0  0  0  0  0  0  0  0  0  0
   62.8401   31.8948   48.8599 H   0  0  0  0  0  0  0  0  0  0  0  0
   61.8916   35.1507   49.1599 H   0  0  0  0  0  0  0  0  0  0  0  0
   60.3856   34.5020   48.3709 H   0  0  0  0  0  0  0  0  0  0  0  0
   61.3001   32.3255   49.8116 H   0  0  0  0  0  0  0  0  0  0  0  0
   61.6944   33.7349   50.8890 H   0  0  0  0  0  0  0  0  0  0  0  0
   59.5625   33.4588   51.6070 H   0  0  0  0  0  0  0  0  0  0  0  0
   59.1610   34.3819   50.1192 H   0  0  0  0  0  0  0  0  0  0  0  0
   59.0563   32.5886   50.1192 H   0  0  0  0  0  0  0  0  0  0  0  0
   60.6878   33.5990   46.2998 H   0  0  0  0  0  0  0  0  0  0  0  0
   62.0270   32.4186   46.0362 H   0  0  0  0  0  0  0  0  0  0  0  0
   60.4176   31.9516   48.4968 H   0  0  0  0  0  0  0  0  0  0  0  0
   61.4909   30.2595   46.1826 H   0  0  0  0  0  0  0  0  0  0  0  0
   62.0677   30.3337   47.8983 H   0  0  0  0  0  0  0  0  0  0  0  0
   60.8140   28.3660   47.4730 H   0  0  0  0  0  0  0  0  0  0  0  0
   59.9990   29.3550   48.5940 H   0  0  0  0  0  0  0  0  0  0  0  0
   58.9503   27.1213   46.6200 H   0  0  0  0  0  0  0  0  0  0  0  0
   56.8728   27.2057   45.2304 H   0  0  0  0  0  0  0  0  0  0  0  0
   55.6531   30.8065   42.9361 H   0  0  0  0  0  0  0  0  0  0  0  0
   56.5202   29.2670   42.6125 H   0  0  0  0  0  0  0  0  0  0  0  0
   54.7243   29.3034   42.6125 H   0  0  0  0  0  0  0  0  0  0  0  0
   56.4345   33.4166   44.9093 H   0  0  0  0  0  0  0  0  0  0  0  0
   57.3965   34.7577   44.1645 H   0  0  0  0  0  0  0  0  0  0  0  0
   58.5451   31.9700   44.1651 H   0  0  0  0  0  0  0  0  0  0  0  0
   57.2425   32.3724   42.9954 H   0  0  0  0  0  0  0  0  0  0  0  0
   58.7721   33.3143   42.9954 H   0  0  0  0  0  0  0  0  0  0  0  0
  1  2  1  0
  2  3  1  0
  3  4  1  0
  4  5  1  0
  5  6  1  0
  6  7  1  0
  4  8  1  0
  8  9  1  0
  9 10  1  0
 10 11  1  0
 11 12  1  0
 12 13  2  0
 13 14  1  0
 14 15  2  0
 15 16  1  0
 16 17  1  0
 15 18  1  0
 18 19  2  0
 19 20  1  0
 20 21  1  0
 21 22  2  0
 21 23  1  0
 23 24  1  0
 24 25  1  0
 20  9  1  0
 19 12  1  0
  1 26  1  0
  1 27  1  0
  1 28  1  0
  2 29  1  0
  2 30  1  0
  3 31  1  0
  3 32  1  0
  5 33  1  0
  5 34  1  0
  6 35  1  0
  6 36  1  0
  7 37  1  0
  7 38  1  0
  7 39  1  0
  8 40  1  0
  8 41  1  0
  9 42  1  1
 10 43  1  0
 10 44  1  0
 11 45  1  0
 11 46  1  0
 13 47  1  0
 14 48  1  0
 17 49  1  0
 17 50  1  0
 17 51  1  0
 24 52  1  0
 24 53  1  0
 25 54  1  0
 25 55  1  0
 25 56  1  0
M  CHG  2  11   1  23  -1
M  END
>  <UniqueID>  (19) 
19

>  <SMILES>  (19) 
CCCN(CCC)C[C@@H]1C[NH2+]c2ccc(OC)nc2N1C(=O)[N-]CC

>  <Energy>  (19) 
60.11814350383629

>  <Genealogy>  (19) 
CCCN(CCC)CC1C[NH2+]c2ccc(OC)nc2N1C(=O)[N-]CC (protonated)
CCCN(CCC)C[C@@H]1C[NH2+]c2ccc(OC)nc2N1C(=O)[N-]CC (chirality)
CCCN(CCC)C[C@@H]1C[NH2+]c2ccc(OC)nc2N1C(=O)[N-]CC (3D coordinates assigned)
CCCN(CCC)C[C@@H]1C[NH2+]c2ccc(OC)nc2N1C(=O)[N-]CC (nonaromatic ring conformer: 60.11814350383629 kcal/mol)

>  <smiles>  (19) 
CCCN(CCC)CC1CNc2ccc(OC)nc2N1C(=O)NCC

>  <score_type>  (19) 
oracle

>  <origin>  (19) 
adg

>  <m_score__min__energy>  (19) 
-6.2599999999999998

>  <m_primary>  (19) 
energy

$$$$
19:0
     RDKit          3D

 41 43  0  0  0  0  0  0  0  0999 V2000
   57.4120   26.2490   44.5000 O   0  0  0  0  0  0  0  0  0  0  0  0
   56.9300   27.0880   45.6510 S   0  0  0  0  0  0  0  0  0  0  0  0
   55.8660   26.3190   46.3840 O   0  0  0  0  0  0  0  0  0  0  0  0
   56.2520   28.5700   45.0500 N   0  0  0  0  0  0  0  0  0  0  0  0
   56.9810   28.9990   43.8530 C   0  0  0  0  0  0  0  0  0  0  0  0
   56.6190   30.4450   43.5150 C   0  0  0  0  0  0  0  0  0  0  0  0
   56.4400   31.2110   44.7070 O   0  0  0  0  0  0  0  0  0  0  0  0
   57.4100   32.0370   45.3000 C   0  0  0  0  0  0  0  0  0  0  0  0
   57.1860   33.4270   45.3000 C   0  0  0  0  0  0  0  0  0  0  0  0
   58.1170   34.3020   45.8790 C   0  0  0  0  0  0  0  0  0  0  0  0
   59.2720   33.7700   46.4530 C   0  0  0  0  0  0  0  0  0  0  0  0
   59.5040   32.4190   46.4550 C   0  0  0  0  0  0  0  0  0  0  0  0
   58.5930   31.5270   45.8840 C   0  0  0  0  0  0  0  0  0  0  0  0
   60.7850   32.0750   47.1120 C   0  0  0  0  0  0  0  0  0  0  0  0
   61.3600   33.4360   47.5500 C   0  0  0  0  0  0  0  0  0  0  0  0
   60.3640   34.5250   47.1080 C   0  0  0  0  0  0  0  0  0  0  0  0
   58.2640   27.4210   46.7550 C   0  0  0  0  0  0  0  0  0  0  0  0
   59.2550   26.4550   46.9840 C   0  0  0  0  0  0  0  0  0  0  0  0
   60.3220   26.7340   47.8440 C   0  0  0  0  0  0  0  0  0  0  0  0
   60.4030   27.9780   48.4760 C   0  0  0  0  0  0  0  0  0  0  0  0
   59.4210   28.9460   48.2460 C   0  0  0  0  0  0  0  0  0  0  0  0
   58.3540   28.6690   47.3840 C   0  0  0  0  0  0  0  0  0  0  0  0
   56.3950   29.2920   45.7940 H   0  0  0  0  0  0  0  0  0  0  0  0
   58.0627   28.9277   44.0394 H   0  0  0  0  0  0  0  0  0  0  0  0
   56.7060   28.3496   43.0088 H   0  0  0  0  0  0  0  0  0  0  0  0
   57.4284   30.8900   42.9177 H   0  0  0  0  0  0  0  0  0  0  0  0
   55.6779   30.4507   42.9455 H   0  0  0  0  0  0  0  0  0  0  0  0
   56.2715   33.8310   44.8412 H   0  0  0  0  0  0  0  0  0  0  0  0
   57.9397   35.3876   45.8805 H   0  0  0  0  0  0  0  0  0  0  0  0
   58.7925   30.4453   45.8885 H   0  0  0  0  0  0  0  0  0  0  0  0
   60.6150   31.4245   47.9826 H   0  0  0  0  0  0  0  0  0  0  0  0
   61.4658   31.5233   46.4470 H   0  0  0  0  0  0  0  0  0  0  0  0
   61.4799   33.4585   48.6432 H   0  0  0  0  0  0  0  0  0  0  0  0
   62.3459   33.6048   47.0923 H   0  0  0  0  0  0  0  0  0  0  0  0
   59.9859   35.0843   47.9765 H   0  0  0  0  0  0  0  0  0  0  0  0
   60.8215   35.2704   46.4409 H   0  0  0  0  0  0  0  0  0  0  0  0
   59.1928   25.4761   46.4862 H   0  0  0  0  0  0  0  0  0  0  0  0
   61.0973   25.9745   48.0230 H   0  0  0  0  0  0  0  0  0  0  0  0
   61.2405   28.1956   49.1552 H   0  0  0  0  0  0  0  0  0  0  0  0
   59.4870   29.9253   48.7425 H   0  0  0  0  0  0  0  0  0  0  0  0
   57.5844   29.4331   47.2001 H   0  0  0  0  0  0  0  0  0  0  0  0
  1  2  2  0
  2  3  2  0
  2  4  1  0
  4  5  1  0
  5  6  1  0
  6  7  1  0
  7  8  1  0
  8  9  2  0
  9 10  1  0
 10 11  2  0
 11 12  1  0
 12 13  2  0
 12 14  1  0
 14 15  1  0
 15 16  1  0
  2 17  1  0
 17 18  2  0
 18 19  1  0
 19 20  2  0
 20 21  1  0
 21 22  2  0
 13  8  1  0
 22 17  1  0
 16 11  1  0
  4 23  1  0
  5 24  1  0
  5 25  1  0
  6 26  1  0
  6 27  1  0
  9 28  1  0
 10 29  1  0
 13 30  1  0
 14 31  1  0
 14 32  1  0
 15 33  1  0
 15 34  1  0
 16 35  1  0
 16 36  1  0
 18 37  1  0
 19 38  1  0
 20 39  1  0
 21 40  1  0
 22 41  1  0
M  END
>  <UniqueID>  (20) 
20

>  <SMILES>  (20) 
O=S(=O)(NCCOc1ccc2c(c1)CCC2)c1ccccc1

>  <Energy>  (20) 
45.354561077460865

>  <Genealogy>  (20) 
O=S(=O)(NCCOc1ccc2c(c1)CCC2)c1ccccc1 (3D coordinates assigned)
O=S(=O)(NCCOc1ccc2c(c1)CCC2)c1ccccc1 (nonaromatic ring conformer: 45.354561077460865 kcal/mol)

>  <smiles>  (20) 
O=S(=O)(NCCOc1ccc2c(c1)CCC2)c1ccccc1

>  <score_type>  (20) 
oracle

>  <origin>  (20) 
adg

>  <m_score__min__energy>  (20) 
-8.3499999999999996

>  <m_primary>  (20) 
energy

$$$$
20:0
     RDKit          3D

 48 51  0  0  0  0  0  0  0  0999 V2000
   54.1550   26.7650   46.7360 H   0  0  0  0  0  0  0  0  0  0  0  0
   54.8090   26.3310   46.0490 N   0  0  0  0  0  0  0  0  0  0  0  0
   56.0520   26.6900   45.9490 C   0  0  0  0  0  0  0  0  0  0  0  0
   56.4270   27.9050   45.5100 N   0  0  0  0  0  0  0  0  0  0  0  0
   57.7750   27.8170   45.6080 C   0  0  0  0  0  0  0  0  0  0  0  0
   58.5960   28.7830   45.3200 N   0  0  0  0  0  0  0  0  0  0  0  0
   59.0320   29.8290   46.2050 C   0  0  0  0  0  0  0  0  0  0  0  0
   59.5970   29.5570   47.4650 C   0  0  0  0  0  0  0  0  0  0  0  0
   59.7401   28.5152   47.7877 H   0  0  0  0  0  0  0  0  0  0  0  0
   59.9770   30.6050   48.3080 C   0  0  0  0  0  0  0  0  0  0  0  0
   60.4211   30.3828   49.2895 H   0  0  0  0  0  0  0  0  0  0  0  0
   59.7960   31.9390   47.9110 C   0  0  0  0  0  0  0  0  0  0  0  0
   60.1840   33.0420   48.8170 C   0  0  0  0  0  0  0  0  0  0  0  0
   59.2910   33.6020   49.5090 O   0  0  0  0  0  0  0  0  0  0  0  0
   61.5530   33.4830   48.9270 N   0  0  0  0  0  0  0  0  0  0  0  0
   62.1410   33.7240   50.2490 C   0  0  0  0  0  0  0  0  0  0  0  0
   61.4231   33.4298   51.0288 H   0  0  0  0  0  0  0  0  0  0  0  0
   63.0610   33.1304   50.3548 H   0  0  0  0  0  0  0  0  0  0  0  0
   62.3798   34.7925   50.3548 H   0  0  0  0  0  0  0  0  0  0  0  0
   62.2790   33.9150   47.7270 C   0  0  0  0  0  0  0  0  0  0  0  0
   61.5582   34.2831   46.9820 H   0  0  0  0  0  0  0  0  0  0  0  0
   62.9807   34.7145   48.0072 H   0  0  0  0  0  0  0  0  0  0  0  0
   63.0730   32.7520   47.1260 C   0  0  0  0  0  0  0  0  0  0  0  0
   62.3829   31.9332   46.8744 H   0  0  0  0  0  0  0  0  0  0  0  0
   63.5892   33.1018   46.2198 H   0  0  0  0  0  0  0  0  0  0  0  0
   64.0260   32.2880   48.0430 O   0  0  0  0  0  0  0  0  0  0  0  0
   64.8650   32.1480   47.5330 H   0  0  0  0  0  0  0  0  0  0  0  0
   59.1860   32.2080   46.6760 C   0  0  0  0  0  0  0  0  0  0  0  0
   59.0074   33.2492   46.3695 H   0  0  0  0  0  0  0  0  0  0  0  0
   58.8040   31.1600   45.8330 C   0  0  0  0  0  0  0  0  0  0  0  0
   58.3207   31.3825   44.8702 H   0  0  0  0  0  0  0  0  0  0  0  0
   58.2000   26.6300   46.0870 N   0  0  0  0  0  0  0  0  0  0  0  0
   57.1040   25.9240   46.3010 N   0  0  0  0  0  0  0  0  0  0  0  0
   57.1050   24.5620   46.7580 C   0  0  0  0  0  0  0  0  0  0  0  0
   57.0720   24.2990   48.1340 C   0  0  0  0  0  0  0  0  0  0  0  0
   57.0831   25.1304   48.8542 H   0  0  0  0  0  0  0  0  0  0  0  0
   57.0250   22.9810   48.5890 C   0  0  0  0  0  0  0  0  0  0  0  0
   57.0024   22.7754   49.6694 H   0  0  0  0  0  0  0  0  0  0  0  0
   57.0070   21.9500   47.7040 N   0  0  0  0  0  0  0  0  0  0  0  0
   57.0390   22.1610   46.3630 C   0  0  0  0  0  0  0  0  0  0  0  0
   57.0280   21.0990   45.5140 N   0  0  0  0  0  0  0  0  0  0  0  0
   57.0720   21.2600   44.1650 C   0  0  0  0  0  0  0  0  0  0  0  0
   57.0532   20.3792   43.5063 H   0  0  0  0  0  0  0  0  0  0  0  0
   57.1410   22.5400   43.6140 C   0  0  0  0  0  0  0  0  0  0  0  0
   57.1841   22.6712   42.5227 H   0  0  0  0  0  0  0  0  0  0  0  0
   57.1550   23.6540   44.4570 C   0  0  0  0  0  0  0  0  0  0  0  0
   57.2153   24.6663   44.0308 H   0  0  0  0  0  0  0  0  0  0  0  0
   57.0920   23.4800   45.8500 C   0  0  0  0  0  0  0  0  0  0  0  0
  1  2  1  0
  2  3  2  0
  3  4  1  0
  4  5  1  0
  5  6  2  3
  6  7  1  0
  7  8  2  0
  8  9  1  0
  8 10  1  0
 10 11  1  0
 10 12  2  0
 12 13  1  0
 13 14  2  0
 13 15  1  0
 15 16  1  0
 16 17  1  0
 16 18  1  0
 16 19  1  0
 15 20  1  0
 20 21  1  0
 20 22  1  0
 20 23  1  0
 23 24  1  0
 23 25  1  0
 23 26  1  0
 26 27  1  0
 12 28  1  0
 28 29  1  0
 28 30  2  0
 30 31  1  0
  5 32  1  0
 32 33  1  0
 33 34  1  0
 34 35  2  0
 35 36  1  0
 35 37  1  0
 37 38  1  0
 37 39  2  0
 39 40  1  0
 40 41  2  0
 41 42  1  0
 42 43  1  0
 42 44  2  0
 44 45  1  0
 44 46  1  0
 46 47  1  0
 46 48  2  0
 33  3  1  0
 48 34  1  0
 30  7  1  0
 48 40  1  0
M  CHG  2   4  -1  32  -1
M  END
>  <UniqueID>  (21) 
21

>  <SMILES>  (21) 
[H]/N=c1/[n-]c(=Nc2ccc(C(=O)N(C)CCO)cc2)[n-]n1-c1ccnc2ncccc12

>  <Energy>  (21) 
106.0537454350244

>  <Genealogy>  (21) 
CN(CCO)C(=O)c1ccc(N=c2[n-]c(=N)n(-c3ccnc4ncccc34)[n-]2)cc1 (protonated)
[H]/N=c1/[n-]c(=Nc2ccc(C(=O)N(C)CCO)cc2)[n-]n1-c1ccnc2ncccc12 (cis-trans isomerization)
[H]/N=c1/[n-]c(=Nc2ccc(C(=O)N(C)CCO)cc2)[n-]n1-c1ccnc2ncccc12 (3D coordinates assigned)
[H]/N=c1/[n-]c(=Nc2ccc(C(=O)N(C)CCO)cc2)[n-]n1-c1ccnc2ncccc12 (optimized conformer: 106.0537454350244 kcal/mol)

>  <smiles>  (21) 
CN(CCO)C(=O)c1ccc(N=c2[nH]c(=N)n(-c3ccnc4ncccc34)[nH]2)cc1

>  <score_type>  (21) 
oracle

>  <origin>  (21) 
adg

>  <m_score__min__energy>  (21) 
-11.06

>  <m_primary>  (21) 
energy

$$$$
21:0
     RDKit          3D

 35 35  0  0  0  0  0  0  0  0999 V2000
   56.3700   29.7280   42.6890 C   0  0  0  0  0  0  0  0  0  0  0  0
   55.9360   30.0770   44.1120 C   0  0  0  0  0  0  0  0  0  0  0  0
   57.0190   30.7440   44.8710 N   0  0  0  0  0  0  0  0  0  0  0  0
   58.3410   30.1380   44.6000 C   0  0  0  0  0  0  0  0  0  0  0  0
   58.5830   28.9650   45.5440 C   0  0  0  0  0  0  0  0  0  0  0  0
   57.0220   32.2280   44.7920 C   0  0  0  0  0  0  0  0  0  0  0  0
   58.3910   32.8810   44.5030 C   0  0  0  0  0  0  0  0  0  0  0  0
   58.8760   33.6660   45.6350 N   0  0  0  0  0  0  0  0  0  0  0  0
   59.0130   34.9840   45.6490 N   0  0  0  0  0  0  0  0  0  0  0  0
   59.4550   35.3480   46.8460 N   0  0  0  0  0  0  0  0  0  0  0  0
   59.6110   34.2810   47.6160 N   0  0  0  0  0  0  0  0  0  0  0  0
   60.0000   34.2960   49.0230 C   0  0  0  0  0  0  0  0  0  0  0  0
   61.5110   34.1560   49.1530 C   0  0  0  0  0  0  0  0  0  0  0  0
   59.2340   33.2380   46.8590 C   0  0  0  0  0  0  0  0  0  0  0  0
   59.2060   32.0380   47.2440 O   0  0  0  0  0  0  0  0  0  0  0  0
   57.2267   29.0390   42.7255 H   0  0  0  0  0  0  0  0  0  0  0  0
   55.5350   29.2469   42.1586 H   0  0  0  0  0  0  0  0  0  0  0  0
   56.6607   30.6468   42.1586 H   0  0  0  0  0  0  0  0  0  0  0  0
   55.0680   30.7510   44.0640 H   0  0  0  0  0  0  0  0  0  0  0  0
   55.6824   29.1407   44.6307 H   0  0  0  0  0  0  0  0  0  0  0  0
   58.3711   29.7804   43.5602 H   0  0  0  0  0  0  0  0  0  0  0  0
   59.1234   30.8949   44.7582 H   0  0  0  0  0  0  0  0  0  0  0  0
   58.5115   29.3117   46.5855 H   0  0  0  0  0  0  0  0  0  0  0  0
   57.8264   28.1871   45.3637 H   0  0  0  0  0  0  0  0  0  0  0  0
   59.5857   28.5501   45.3637 H   0  0  0  0  0  0  0  0  0  0  0  0
   56.3300   32.5250   43.9902 H   0  0  0  0  0  0  0  0  0  0  0  0
   56.7263   32.5817   45.7907 H   0  0  0  0  0  0  0  0  0  0  0  0
   59.1218   32.0892   44.2815 H   0  0  0  0  0  0  0  0  0  0  0  0
   58.2675   33.5614   43.6475 H   0  0  0  0  0  0  0  0  0  0  0  0
   59.6360   36.3340   47.1380 H   0  0  0  0  0  0  0  0  0  0  0  0
   59.6828   35.2462   49.4775 H   0  0  0  0  0  0  0  0  0  0  0  0
   59.5160   33.4531   49.5380 H   0  0  0  0  0  0  0  0  0  0  0  0
   61.7866   34.1305   50.2176 H   0  0  0  0  0  0  0  0  0  0  0  0
   61.8360   33.2239   48.6676 H   0  0  0  0  0  0  0  0  0  0  0  0
   62.0017   35.0125   48.6676 H   0  0  0  0  0  0  0  0  0  0  0  0
  1  2  1  0
  2  3  1  0
  3  4  1  0
  4  5  1  0
  3  6  1  0
  6  7  1  0
  7  8  1  0
  8  9  1  0
  9 10  2  0
 10 11  1  0
 11 12  1  0
 12 13  1  0
 11 14  1  0
 14 15  2  0
 14  8  1  0
  1 16  1  0
  1 17  1  0
  1 18  1  0
  2 19  1  0
  2 20  1  0
  4 21  1  0
  4 22  1  0
  5 23  1  0
  5 24  1  0
  5 25  1  0
  6 26  1  0
  6 27  1  0
  7 28  1  0
  7 29  1  0
 10 30  1  0
 12 31  1  0
 12 32  1  0
 13 33  1  0
 13 34  1  0
 13 35  1  0
M  CHG  1  10   1
M  END
>  <UniqueID>  (22) 
22

>  <SMILES>  (22) 
CCN(CC)CCn1n[nH+]n(CC)c1=O

>  <Energy>  (22) 
73.22615028353796

>  <Genealogy>  (22) 
CCN(CC)CCn1n[nH+]n(CC)c1=O (protonated)
CCN(CC)CCn1n[nH+]n(CC)c1=O (3D coordinates assigned)
CCN(CC)CCn1n[nH+]n(CC)c1=O (optimized conformer: 73.22615028353796 kcal/mol)

>  <smiles>  (22) 
CCN(CC)CCn1nnn(CC)c1=O

>  <score_type>  (22) 
oracle

>  <origin>  (22) 
adg

>  <m_score__min__energy>  (22) 
-4.04

>  <m_primary>  (22) 
energy

$$$$
22:0
     RDKit          3D

 53 56  0  0  0  0  0  0  0  0999 V2000
   68.5340   34.5630   51.0370 C   0  0  0  0  0  0  0  0  0  0  0  0
   67.1340   34.0510   50.9100 C   0  0  0  0  0  0  0  0  0  0  0  0
   66.7970   33.0020   50.1180 N   0  0  0  0  0  0  0  0  0  0  0  0
   65.4660   32.8900   50.2640 C   0  0  0  0  0  0  0  0  0  0  0  0
   64.6080   31.9860   49.6460 C   0  0  0  0  0  0  0  0  0  0  0  0
   63.2270   32.0780   49.9370 C   0  0  0  0  0  0  0  0  0  0  0  0
   62.2940   31.1710   49.3160 N   0  0  0  0  0  0  0  0  0  0  0  0
   62.0260   31.3140   47.9820 C   0  0  0  0  0  0  0  0  0  0  0  0
   61.1230   30.4650   47.3410 C   0  0  0  0  0  0  0  0  0  0  0  0
   60.4820   29.4500   48.0640 C   0  0  0  0  0  0  0  0  0  0  0  0
   59.5180   28.5380   47.3980 C   0  0  0  0  0  0  0  0  0  0  0  0
   58.4730   29.0530   46.6110 C   0  0  0  0  0  0  0  0  0  0  0  0
   57.5670   28.1950   45.9830 C   0  0  0  0  0  0  0  0  0  0  0  0
   57.6910   26.8030   46.1230 C   0  0  0  0  0  0  0  0  0  0  0  0
   56.7120   25.8730   45.4370 C   0  0  0  0  0  0  0  0  0  0  0  0
   55.6900   25.3020   46.3430 N   0  0  0  0  0  0  0  0  0  0  0  0
   56.2560   24.3410   47.3020 C   0  0  0  0  0  0  0  0  0  0  0  0
   54.5540   24.7110   45.6160 C   0  0  0  0  0  0  0  0  0  0  0  0
   58.7270   26.2860   46.9150 C   0  0  0  0  0  0  0  0  0  0  0  0
   59.6340   27.1430   47.5450 C   0  0  0  0  0  0  0  0  0  0  0  0
   60.7730   29.3130   49.4290 C   0  0  0  0  0  0  0  0  0  0  0  0
   61.6850   30.1790   50.0420 C   0  0  0  0  0  0  0  0  0  0  0  0
   61.9460   30.0250   51.2660 O   0  0  0  0  0  0  0  0  0  0  0  0
   62.7620   33.0840   50.8270 C   0  0  0  0  0  0  0  0  0  0  0  0
   63.6610   33.9830   51.4310 C   0  0  0  0  0  0  0  0  0  0  0  0
   65.0150   33.8470   51.1270 C   0  0  0  0  0  0  0  0  0  0  0  0
   66.0610   34.5810   51.5580 N   0  0  0  0  0  0  0  0  0  0  0  0
   66.0230   35.7620   52.4190 C   0  0  0  0  0  0  0  0  0  0  0  0
   68.7944   34.6582   52.1015 H   0  0  0  0  0  0  0  0  0  0  0  0
   69.2269   33.8601   50.5515 H   0  0  0  0  0  0  0  0  0  0  0  0
   68.6100   35.5471   50.5515 H   0  0  0  0  0  0  0  0  0  0  0  0
   67.4240   32.4240   49.5150 H   0  0  0  0  0  0  0  0  0  0  0  0
   64.9918   31.2233   48.9525 H   0  0  0  0  0  0  0  0  0  0  0  0
   62.5280   32.1071   47.4084 H   0  0  0  0  0  0  0  0  0  0  0  0
   60.9144   30.5924   46.2685 H   0  0  0  0  0  0  0  0  0  0  0  0
   58.3679   30.1411   46.4887 H   0  0  0  0  0  0  0  0  0  0  0  0
   56.7510   28.6124   45.3748 H   0  0  0  0  0  0  0  0  0  0  0  0
   56.1966   26.4361   44.6449 H   0  0  0  0  0  0  0  0  0  0  0  0
   57.2968   25.0285   45.0435 H   0  0  0  0  0  0  0  0  0  0  0  0
   56.0539   24.6841   48.3274 H   0  0  0  0  0  0  0  0  0  0  0  0
   55.7948   23.3543   47.1479 H   0  0  0  0  0  0  0  0  0  0  0  0
   57.3426   24.2659   47.1479 H   0  0  0  0  0  0  0  0  0  0  0  0
   53.8169   24.3275   46.3369 H   0  0  0  0  0  0  0  0  0  0  0  0
   54.0837   25.4788   44.9840 H   0  0  0  0  0  0  0  0  0  0  0  0
   54.9128   23.8852   44.9840 H   0  0  0  0  0  0  0  0  0  0  0  0
   58.8264   25.1978   47.0413 H   0  0  0  0  0  0  0  0  0  0  0  0
   60.4442   26.7242   48.1600 H   0  0  0  0  0  0  0  0  0  0  0  0
   60.2836   28.5237   50.0185 H   0  0  0  0  0  0  0  0  0  0  0  0
   61.6868   33.1609   51.0463 H   0  0  0  0  0  0  0  0  0  0  0  0
   63.3078   34.7654   52.1188 H   0  0  0  0  0  0  0  0  0  0  0  0
   66.0331   35.4477   53.4731 H   0  0  0  0  0  0  0  0  0  0  0  0
   66.9013   36.3923   52.2158 H   0  0  0  0  0  0  0  0  0  0  0  0
   65.1060   36.3345   52.2158 H   0  0  0  0  0  0  0  0  0  0  0  0
  1  2  1  0
  2  3  2  0
  3  4  1  0
  4  5  2  0
  5  6  1  0
  6  7  1  0
  7  8  1  0
  8  9  2  0
  9 10  1  0
 10 11  1  0
 11 12  2  0
 12 13  1  0
 13 14  2  0
 14 15  1  0
 15 16  1  0
 16 17  1  0
 16 18  1  0
 14 19  1  0
 19 20  2  0
 10 21  2  0
 21 22  1  0
 22 23  2  0
  6 24  2  0
 24 25  1  0
 25 26  2  0
 26 27  1  0
 27 28  1  0
 27  2  1  0
 26  4  1  0
 22  7  1  0
 20 11  1  0
  1 29  1  0
  1 30  1  0
  1 31  1  0
  3 32  1  0
  5 33  1  0
  8 34  1  0
  9 35  1  0
 12 36  1  0
 13 37  1  0
 15 38  1  0
 15 39  1  0
 17 40  1  0
 17 41  1  0
 17 42  1  0
 18 43  1  0
 18 44  1  0
 18 45  1  0
 19 46  1  0
 20 47  1  0
 21 48  1  0
 24 49  1  0
 25 50  1  0
 28 51  1  0
 28 52  1  0
 28 53  1  0
M  CHG  1   3   1
M  END
>  <UniqueID>  (23) 
23

>  <SMILES>  (23) 
Cc1[nH+]c2cc(-n3ccc(-c4ccc(CN(C)C)cc4)cc3=O)ccc2n1C

>  <Energy>  (23) 
110.32450300817351

>  <Genealogy>  (23) 
Cc1[nH+]c2cc(-n3ccc(-c4ccc(CN(C)C)cc4)cc3=O)ccc2n1C (protonated)
Cc1[nH+]c2cc(-n3ccc(-c4ccc(CN(C)C)cc4)cc3=O)ccc2n1C (3D coordinates assigned)
Cc1[nH+]c2cc(-n3ccc(-c4ccc(CN(C)C)cc4)cc3=O)ccc2n1C (optimized conformer: 110.32450300817351 kcal/mol)

>  <smiles>  (23) 
Cc1nc2cc(-n3ccc(-c4ccc(CN(C)C)cc4)cc3=O)ccc2n1C

>  <score_type>  (23) 
oracle

>  <origin>  (23) 
adg

>  <m_score__min__energy>  (23) 
-5.8099999999999996

>  <m_primary>  (23) 
energy

$$$$
23:0
     RDKit          3D

 52 55  0  0  0  0  0  0  0  0999 V2000
   63.6160   33.8600   47.1900 C   0  0  0  0  0  0  0  0  0  0  0  0
   63.6590   32.8350   48.6930 S   0  0  0  0  0  0  0  0  0  0  0  0
   62.1240   31.9920   48.3040 C   0  0  0  0  0  0  0  0  0  0  0  0
   61.0100   32.1420   49.1380 C   0  0  0  0  0  0  0  0  0  0  0  0
   59.8150   31.4820   48.8370 C   0  0  0  0  0  0  0  0  0  0  0  0
   59.7190   30.6730   47.6980 C   0  0  0  0  0  0  0  0  0  0  0  0
   58.5080   30.0160   47.4380 O   0  0  0  0  0  0  0  0  0  0  0  0
   58.3810   28.7270   46.8950 C   0  0  0  0  0  0  0  0  0  0  0  0
   59.2230   27.6830   47.3120 C   0  0  0  0  0  0  0  0  0  0  0  0
   59.0930   26.4070   46.7670 C   0  0  0  0  0  0  0  0  0  0  0  0
   58.1320   26.1510   45.7770 C   0  0  0  0  0  0  0  0  0  0  0  0
   57.9920   24.7900   45.1970 C   0  0  0  0  0  0  0  0  0  0  0  0
   58.8450   23.7470   45.6060 C   0  0  0  0  0  0  0  0  0  0  0  0
   58.7140   22.4680   45.0560 C   0  0  0  0  0  0  0  0  0  0  0  0
   57.7340   22.2170   44.0930 C   0  0  0  0  0  0  0  0  0  0  0  0
   56.8810   23.2430   43.6800 C   0  0  0  0  0  0  0  0  0  0  0  0
   57.0070   24.5240   44.2270 C   0  0  0  0  0  0  0  0  0  0  0  0
   57.3070   27.2010   45.3400 C   0  0  0  0  0  0  0  0  0  0  0  0
   57.4210   28.4920   45.8910 C   0  0  0  0  0  0  0  0  0  0  0  0
   56.5640   29.5700   45.4570 N   0  0  0  0  0  0  0  0  0  0  0  0
   56.8280   30.4130   44.2910 C   0  0  0  0  0  0  0  0  0  0  0  0
   57.4580   31.7140   44.7120 C   0  0  0  0  0  0  0  0  0  0  0  0
   58.0540   32.5570   43.7610 C   0  0  0  0  0  0  0  0  0  0  0  0
   58.6230   33.7630   44.1730 C   0  0  0  0  0  0  0  0  0  0  0  0
   58.6000   34.1150   45.5220 C   0  0  0  0  0  0  0  0  0  0  0  0
   58.0080   33.2510   46.4440 C   0  0  0  0  0  0  0  0  0  0  0  0
   57.4560   32.0780   46.0290 N   0  0  0  0  0  0  0  0  0  0  0  0
   60.8500   30.5050   46.8760 C   0  0  0  0  0  0  0  0  0  0  0  0
   62.0440   31.1670   47.1770 C   0  0  0  0  0  0  0  0  0  0  0  0
   63.5714   34.9223   47.4718 H   0  0  0  0  0  0  0  0  0  0  0  0
   64.5226   33.6763   46.5948 H   0  0  0  0  0  0  0  0  0  0  0  0
   62.7279   33.6010   46.5948 H   0  0  0  0  0  0  0  0  0  0  0  0
   61.0749   32.7802   50.0316 H   0  0  0  0  0  0  0  0  0  0  0  0
   58.9444   31.5989   49.4992 H   0  0  0  0  0  0  0  0  0  0  0  0
   59.9916   27.8742   48.0753 H   0  0  0  0  0  0  0  0  0  0  0  0
   59.7482   25.5949   47.1152 H   0  0  0  0  0  0  0  0  0  0  0  0
   59.6194   23.9395   46.3631 H   0  0  0  0  0  0  0  0  0  0  0  0
   59.3836   21.6586   45.3822 H   0  0  0  0  0  0  0  0  0  0  0  0
   57.6339   21.2109   43.6597 H   0  0  0  0  0  0  0  0  0  0  0  0
   56.1085   23.0431   42.9229 H   0  0  0  0  0  0  0  0  0  0  0  0
   56.3327   25.3282   43.8975 H   0  0  0  0  0  0  0  0  0  0  0  0
   56.5601   27.0116   44.5549 H   0  0  0  0  0  0  0  0  0  0  0  0
   55.6580   29.7280   45.9530 H   0  0  0  0  0  0  0  0  0  0  0  0
   57.5105   29.8843   43.6093 H   0  0  0  0  0  0  0  0  0  0  0  0
   55.8755   30.6269   43.7840 H   0  0  0  0  0  0  0  0  0  0  0  0
   58.0725   32.2694   42.6994 H   0  0  0  0  0  0  0  0  0  0  0  0
   59.0882   34.4338   43.4357 H   0  0  0  0  0  0  0  0  0  0  0  0
   59.0441   35.0643   45.8560 H   0  0  0  0  0  0  0  0  0  0  0  0
   57.9873   33.5189   47.5107 H   0  0  0  0  0  0  0  0  0  0  0  0
   57.0200   31.4500   46.7410 H   0  0  0  0  0  0  0  0  0  0  0  0
   60.7938   29.8504   45.9937 H   0  0  0  0  0  0  0  0  0  0  0  0
   62.9219   31.0390   46.5267 H   0  0  0  0  0  0  0  0  0  0  0  0
  1  2  1  0
  2  3  1  0
  3  4  2  0
  4  5  1  0
  5  6  2  0
  6  7  1  0
  7  8  1  0
  8  9  2  0
  9 10  1  0
 10 11  2  0
 11 12  1  0
 12 13  2  0
 13 14  1  0
 14 15  2  0
 15 16  1  0
 16 17  2  0
 11 18  1  0
 18 19  2  0
 19 20  1  0
 20 21  1  0
 21 22  1  0
 22 23  2  0
 23 24  1  0
 24 25  2  0
 25 26  1  0
 26 27  2  0
  6 28  1  0
 28 29  2  0
 29  3  1  0
 19  8  1  0
 27 22  1  0
 17 12  1  0
  1 30  1  0
  1 31  1  0
  1 32  1  0
  4 33  1  0
  5 34  1  0
  9 35  1  0
 10 36  1  0
 13 37  1  0
 14 38  1  0
 15 39  1  0
 16 40  1  0
 17 41  1  0
 18 42  1  0
 20 43  1  0
 21 44  1  0
 21 45  1  0
 23 46  1  0
 24 47  1  0
 25 48  1  0
 26 49  1  0
 27 50  1  0
 28 51  1  0
 29 52  1  0
M  CHG  1  27   1
M  END
>  <UniqueID>  (24) 
24

>  <SMILES>  (24) 
CSc1ccc(Oc2ccc(-c3ccccc3)cc2NCc2cccc[nH+]2)cc1

>  <Energy>  (24) 
63.357480487525415

>  <Genealogy>  (24) 
CSc1ccc(Oc2ccc(-c3ccccc3)cc2NCc2cccc[nH+]2)cc1 (protonated)
CSc1ccc(Oc2ccc(-c3ccccc3)cc2NCc2cccc[nH+]2)cc1 (3D coordinates assigned)
CSc1ccc(Oc2ccc(-c3ccccc3)cc2NCc2cccc[nH+]2)cc1 (optimized conformer: 63.357480487525415 kcal/mol)

>  <smiles>  (24) 
CSc1ccc(Oc2ccc(-c3ccccc3)cc2NCc2ccccn2)cc1

>  <score_type>  (24) 
oracle

>  <origin>  (24) 
adg

>  <m_score__min__energy>  (24) 
-7.0899999999999999

>  <m_primary>  (24) 
energy

$$$$
24:0
     RDKit          3D

 72 75  0  0  0  0  0  0  0  0999 V2000
   57.2490   29.6450   53.6900 C   0  0  0  0  0  0  0  0  0  0  0  0
   57.8760   30.3270   52.5270 N   0  0  2  0  0  0  0  0  0  0  0  0
   57.0520   30.1140   51.4500 O   0  0  0  0  0  0  0  0  0  0  0  0
   59.1840   29.7190   52.1260 C   0  0  0  0  0  0  0  0  0  0  0  0
   59.9030   30.3590   50.9150 C   0  0  0  0  0  0  0  0  0  0  0  0
   59.8410   29.4310   49.6920 C   0  0  0  0  0  0  0  0  0  0  0  0
   60.3100   30.1200   48.4010 C   0  0  0  0  0  0  0  0  0  0  0  0
   59.1990   30.9290   47.7150 C   0  0  0  0  0  0  0  0  0  0  0  0
   59.7300   31.5890   46.4210 C   0  0  0  0  0  0  0  0  0  0  0  0
   58.6920   32.3180   45.6320 N   0  0  0  0  0  0  0  0  0  0  0  0
   58.1200   31.4460   44.5730 C   0  0  0  0  0  0  0  0  0  0  0  0
   59.2930   33.5200   45.0060 C   0  0  0  0  0  0  0  0  0  0  0  0
   58.2100   34.5920   44.9150 C   0  0  0  0  0  0  0  0  0  0  0  0
   57.0880   34.1200   45.8240 C   0  0  0  0  0  0  0  0  0  0  0  0
   57.6170   32.8590   46.4940 C   0  0  0  0  0  0  0  0  0  0  0  0
   57.9570   31.8120   52.7120 C   0  0  0  0  0  0  0  0  0  0  0  0
   58.0330   32.6810   51.4280 C   0  0  0  0  0  0  0  0  0  0  0  0
   58.9380   33.9230   51.5520 C   0  0  0  0  0  0  0  0  0  0  0  0
   60.2160   33.7420   50.8400 N   0  0  0  0  0  0  0  0  0  0  0  0
   61.4130   33.3620   51.5490 C   0  0  0  0  0  0  0  0  0  0  0  0
   61.3900   33.2170   52.8020 O   0  0  0  0  0  0  0  0  0  0  0  0
   62.6770   33.1480   50.8080 C   0  0  0  0  0  0  0  0  0  0  0  0
   63.8450   32.7560   51.4890 C   0  0  0  0  0  0  0  0  0  0  0  0
   65.0390   32.5650   50.7960 C   0  0  0  0  0  0  0  0  0  0  0  0
   65.0890   32.7580   49.4160 C   0  0  0  0  0  0  0  0  0  0  0  0
   63.9380   33.1440   48.7130 C   0  0  0  0  0  0  0  0  0  0  0  0
   63.9880   33.3380   47.3270 C   0  0  0  0  0  0  0  0  0  0  0  0
   62.8450   33.7290   46.6290 C   0  0  0  0  0  0  0  0  0  0  0  0
   61.6430   33.9320   47.3070 C   0  0  0  0  0  0  0  0  0  0  0  0
   61.5670   33.7440   48.6980 C   0  0  0  0  0  0  0  0  0  0  0  0
   62.7190   33.3440   49.4110 C   0  0  0  0  0  0  0  0  0  0  0  0
   60.2930   33.9670   49.4180 C   0  0  0  0  0  0  0  0  0  0  0  0
   59.2760   34.3650   48.7850 O   0  0  0  0  0  0  0  0  0  0  0  0
   57.6434   30.0740   54.6230 H   0  0  0  0  0  0  0  0  0  0  0  0
   56.1587   29.7861   53.6537 H   0  0  0  0  0  0  0  0  0  0  0  0
   57.4811   28.5704   53.6537 H   0  0  0  0  0  0  0  0  0  0  0  0
   56.4940   29.3040   51.6160 H   0  0  0  0  0  0  0  0  0  0  0  0
   59.0005   28.6616   51.8845 H   0  0  0  0  0  0  0  0  0  0  0  0
   59.8550   29.8838   52.9819 H   0  0  0  0  0  0  0  0  0  0  0  0
   60.9558   30.5421   51.1760 H   0  0  0  0  0  0  0  0  0  0  0  0
   59.4006   31.3053   50.6659 H   0  0  0  0  0  0  0  0  0  0  0  0
   58.8017   29.0976   49.5555 H   0  0  0  0  0  0  0  0  0  0  0  0
   60.5178   28.5849   49.8820 H   0  0  0  0  0  0  0  0  0  0  0  0
   60.6653   29.3491   47.7014 H   0  0  0  0  0  0  0  0  0  0  0  0
   61.1087   30.8248   48.6755 H   0  0  0  0  0  0  0  0  0  0  0  0
   58.8446   31.7119   48.4016 H   0  0  0  0  0  0  0  0  0  0  0  0
   58.3732   30.2503   47.4553 H   0  0  0  0  0  0  0  0  0  0  0  0
   60.1575   30.8015   45.7830 H   0  0  0  0  0  0  0  0  0  0  0  0
   60.4732   32.3381   46.7316 H   0  0  0  0  0  0  0  0  0  0  0  0
   57.5736   30.6130   45.0394 H   0  0  0  0  0  0  0  0  0  0  0  0
   57.4305   32.0324   43.9479 H   0  0  0  0  0  0  0  0  0  0  0  0
   58.9325   31.0472   43.9479 H   0  0  0  0  0  0  0  0  0  0  0  0
   60.1286   33.8841   45.6218 H   0  0  0  0  0  0  0  0  0  0  0  0
   59.6786   33.2785   44.0045 H   0  0  0  0  0  0  0  0  0  0  0  0
   58.6000   35.5615   45.2586 H   0  0  0  0  0  0  0  0  0  0  0  0
   57.8631   34.7323   43.8806 H   0  0  0  0  0  0  0  0  0  0  0  0
   56.8537   34.8870   46.5769 H   0  0  0  0  0  0  0  0  0  0  0  0
   56.1602   33.9288   45.2648 H   0  0  0  0  0  0  0  0  0  0  0  0
   58.0190   33.1020   47.4887 H   0  0  0  0  0  0  0  0  0  0  0  0
   56.8123   32.1200   46.6216 H   0  0  0  0  0  0  0  0  0  0  0  0
   57.0636   32.1255   53.2720 H   0  0  0  0  0  0  0  0  0  0  0  0
   58.9130   31.9829   53.2285 H   0  0  0  0  0  0  0  0  0  0  0  0
   58.4192   32.0542   50.6107 H   0  0  0  0  0  0  0  0  0  0  0  0
   57.0148   33.0521   51.2395 H   0  0  0  0  0  0  0  0  0  0  0  0
   58.4127   34.7904   51.1258 H   0  0  0  0  0  0  0  0  0  0  0  0
   59.1595   34.0797   52.6180 H   0  0  0  0  0  0  0  0  0  0  0  0
   63.8150   32.5991   52.5773 H   0  0  0  0  0  0  0  0  0  0  0  0
   65.9455   32.2608   51.3398 H   0  0  0  0  0  0  0  0  0  0  0  0
   66.0354   32.6069   48.8760 H   0  0  0  0  0  0  0  0  0  0  0  0
   64.9329   33.1814   46.7861 H   0  0  0  0  0  0  0  0  0  0  0  0
   62.8919   33.8777   45.5401 H   0  0  0  0  0  0  0  0  0  0  0  0
   60.7473   34.2417   46.7486 H   0  0  0  0  0  0  0  0  0  0  0  0
  1  2  1  0
  2  3  1  6
  2  4  1  0
  4  5  1  0
  5  6  1  0
  6  7  1  0
  7  8  1  0
  8  9  1  0
  9 10  1  0
 10 11  1  0
 10 12  1  0
 12 13  1  0
 13 14  1  0
 14 15  1  0
  2 16  1  0
 16 17  1  0
 17 18  1  0
 18 19  1  0
 19 20  1  0
 20 21  2  0
 20 22  1  0
 22 23  2  0
 23 24  1  0
 24 25  2  0
 25 26  1  0
 26 27  2  0
 27 28  1  0
 28 29  2  0
 29 30  1  0
 30 31  2  0
 30 32  1  0
 32 33  2  0
 15 10  1  0
 32 19  1  0
 31 22  1  0
 31 26  1  0
  1 34  1  0
  1 35  1  0
  1 36  1  0
  3 37  1  0
  4 38  1  0
  4 39  1  0
  5 40  1  0
  5 41  1  0
  6 42  1  0
  6 43  1  0
  7 44  1  0
  7 45  1  0
  8 46  1  0
  8 47  1  0
  9 48  1  0
  9 49  1  0
 11 50  1  0
 11 51  1  0
 11 52  1  0
 12 53  1  0
 12 54  1  0
 13 55  1  0
 13 56  1  0
 14 57  1  0
 14 58  1  0
 15 59  1  0
 15 60  1  0
 16 61  1  0
 16 62  1  0
 17 63  1  0
 17 64  1  0
 18 65  1  0
 18 66  1  0
 23 67  1  0
 24 68  1  0
 25 69  1  0
 27 70  1  0
 28 71  1  0
 29 72  1  0
M  CHG  2   2   1  10   1
M  END
>  <UniqueID>  (25) 
25

>  <SMILES>  (25) 
C[N+]1(CCCCCC[N@+](C)(O)CCCN2C(=O)c3cccc4cccc(c34)C2=O)CCCC1

>  <Energy>  (25) 
97.91723934816635

>  <Genealogy>  (25) 
C[N+](O)(CCCCCC[N+]1(C)CCCC1)CCCN1C(=O)c2cccc3cccc(c23)C1=O (protonated)
C[N+]1(CCCCCC[N@+](C)(O)CCCN2C(=O)c3cccc4cccc(c34)C2=O)CCCC1 (chirality)
C[N+]1(CCCCCC[N@+](C)(O)CCCN2C(=O)c3cccc4cccc(c34)C2=O)CCCC1 (3D coordinates assigned)
C[N+]1(CCCCCC[N@+](C)(O)CCCN2C(=O)c3cccc4cccc(c34)C2=O)CCCC1 (nonaromatic ring conformer: 97.91723934816635 kcal/mol)

>  <smiles>  (25) 
C[N+]([O-])(CCCCCC[N+]1(C)CCCC1)CCCN1C(=O)c2cccc3cccc(c23)C1=O

>  <score_type>  (25) 
oracle

>  <origin>  (25) 
adg

>  <m_score__min__energy>  (25) 
-5.5

>  <m_primary>  (25) 
energy

$$$$
25:0
     RDKit          3D

 30 32  0  0  0  0  0  0  0  0999 V2000
   55.5200   28.5980   45.2060 O   0  0  0  0  0  0  0  0  0  0  0  0
   56.7030   29.0340   45.1830 C   0  0  0  0  0  0  0  0  0  0  0  0
   56.9900   30.2620   44.4120 C   0  0  0  0  0  0  0  0  0  0  0  0
   57.0260   30.2870   43.0190 C   0  0  0  0  0  0  0  0  0  0  0  0
   57.4020   31.8550   42.5440 S   0  0  0  0  0  0  0  0  0  0  0  0
   57.5120   32.4350   44.1150 C   0  0  0  0  0  0  0  0  0  0  0  0
   57.2690   31.4530   45.0090 N   0  0  0  0  0  0  0  0  0  0  0  0
   57.7270   28.3200   45.9080 N   0  0  0  0  0  0  0  0  0  0  0  0
   59.1210   28.7270   45.8650 C   0  0  0  0  0  0  0  0  0  0  0  0
   59.8450   27.8360   46.8640 C   0  0  0  0  0  0  0  0  0  0  0  0
   58.9330   26.6320   47.0830 C   0  0  0  0  0  0  0  0  0  0  0  0
   57.5290   27.1050   46.6950 C   0  0  2  0  0  0  0  0  0  0  0  0
   56.7830   26.0440   45.9190 C   0  0  0  0  0  0  0  0  0  0  0  0
   57.3800   25.3600   44.8460 C   0  0  0  0  0  0  0  0  0  0  0  0
   56.6710   24.4120   44.1800 N   0  0  0  0  0  0  0  0  0  0  0  0
   55.3950   24.1070   44.5350 C   0  0  0  0  0  0  0  0  0  0  0  0
   54.8030   24.7760   45.6060 C   0  0  0  0  0  0  0  0  0  0  0  0
   55.5090   25.7250   46.2740 N   0  0  0  0  0  0  0  0  0  0  0  0
   56.8414   29.4335   42.3501 H   0  0  0  0  0  0  0  0  0  0  0  0
   57.7501   33.4756   44.3806 H   0  0  0  0  0  0  0  0  0  0  0  0
   59.5313   28.5817   44.8548 H   0  0  0  0  0  0  0  0  0  0  0  0
   59.2392   29.7921   46.1131 H   0  0  0  0  0  0  0  0  0  0  0  0
   60.8147   27.5133   46.4572 H   0  0  0  0  0  0  0  0  0  0  0  0
   60.0496   28.3661   47.8059 H   0  0  0  0  0  0  0  0  0  0  0  0
   59.2455   25.7921   46.4451 H   0  0  0  0  0  0  0  0  0  0  0  0
   58.9704   26.2761   48.1232 H   0  0  0  0  0  0  0  0  0  0  0  0
   56.9089   27.3040   47.5815 H   0  0  0  0  0  0  0  0  0  0  0  0
   58.4134   25.5906   44.5479 H   0  0  0  0  0  0  0  0  0  0  0  0
   54.8340   23.3390   43.9823 H   0  0  0  0  0  0  0  0  0  0  0  0
   53.7724   24.5370   45.9074 H   0  0  0  0  0  0  0  0  0  0  0  0
  1  2  2  0
  2  3  1  0
  3  4  2  0
  4  5  1  0
  5  6  1  0
  6  7  2  0
  2  8  1  0
  8  9  1  0
  9 10  1  0
 10 11  1  0
 11 12  1  0
 12 13  1  0
 13 14  2  0
 14 15  1  0
 15 16  2  0
 16 17  1  0
 17 18  2  0
  7  3  1  0
 12  8  1  0
 18 13  1  0
  4 19  1  0
  6 20  1  0
  9 21  1  0
  9 22  1  0
 10 23  1  0
 10 24  1  0
 11 25  1  0
 11 26  1  0
 12 27  1  1
 14 28  1  0
 16 29  1  0
 17 30  1  0
M  END
>  <UniqueID>  (26) 
26

>  <SMILES>  (26) 
O=C(c1cscn1)N1CCC[C@@H]1c1cnccn1

>  <Energy>  (26) 
64.45432499223708

>  <Genealogy>  (26) 
O=C(c1cscn1)N1CCC[C@@H]1c1cnccn1 (chirality)
O=C(c1cscn1)N1CCC[C@@H]1c1cnccn1 (3D coordinates assigned)
O=C(c1cscn1)N1CCC[C@@H]1c1cnccn1 (nonaromatic ring conformer: 64.45432499223708 kcal/mol)

>  <smiles>  (26) 
O=C(c1cscn1)N1CCCC1c1cnccn1

>  <score_type>  (26) 
oracle

>  <origin>  (26) 
adg

>  <m_score__min__energy>  (26) 
-6.4199999999999999

>  <m_primary>  (26) 
energy

$$$$
26:0
     RDKit          3D

 45 47  0  0  0  0  0  0  0  0999 V2000
   57.6130   32.4190   40.9620 C   0  0  0  0  0  0  0  0  0  0  0  0
   57.4180   31.6880   42.2870 C   0  0  0  0  0  0  0  0  0  0  0  0
   58.2630   32.2990   43.3290 N   0  0  0  0  0  0  0  0  0  0  0  0
   57.9530   31.8600   44.7180 C   0  0  0  0  0  0  0  0  0  0  0  0
   57.5340   30.3870   44.7270 C   0  0  0  0  0  0  0  0  0  0  0  0
   56.3260   30.1070   44.9580 O   0  0  0  0  0  0  0  0  0  0  0  0
   58.4760   29.3180   44.5220 N   0  0  0  0  0  0  0  0  0  0  0  0
   58.2830   27.9890   45.0370 C   0  0  0  0  0  0  0  0  0  0  0  0
   59.4040   27.2110   45.3710 C   0  0  0  0  0  0  0  0  0  0  0  0
   59.2470   25.9230   45.8920 C   0  0  0  0  0  0  0  0  0  0  0  0
   57.9640   25.4030   46.1010 C   0  0  0  0  0  0  0  0  0  0  0  0
   57.7750   24.1180   46.6250 C   0  0  0  0  0  0  0  0  0  0  0  0
   56.4800   23.6340   46.8280 C   0  0  0  0  0  0  0  0  0  0  0  0
   55.3860   24.4430   46.5080 C   0  0  0  0  0  0  0  0  0  0  0  0
   55.5820   25.6890   46.0010 N   0  0  0  0  0  0  0  0  0  0  0  0
   56.8300   26.1860   45.7880 C   0  0  0  0  0  0  0  0  0  0  0  0
   56.9940   27.4740   45.2640 C   0  0  0  0  0  0  0  0  0  0  0  0
   59.1580   32.1470   45.6600 C   0  0  0  0  0  0  0  0  0  0  0  0
   59.5960   33.6260   45.6180 C   0  0  0  0  0  0  0  0  0  0  0  0
   58.4340   34.6000   45.3480 C   0  0  0  0  0  0  0  0  0  0  0  0
   57.1030   34.0530   45.8720 C   0  0  0  0  0  0  0  0  0  0  0  0
   56.7350   32.6890   45.2430 C   0  0  0  0  0  0  0  0  0  0  0  0
   57.8920   33.4649   41.1578 H   0  0  0  0  0  0  0  0  0  0  0  0
   58.4116   31.9281   40.3865 H   0  0  0  0  0  0  0  0  0  0  0  0
   56.6760   32.3911   40.3865 H   0  0  0  0  0  0  0  0  0  0  0  0
   56.3622   31.7554   42.5883 H   0  0  0  0  0  0  0  0  0  0  0  0
   57.7039   30.6331   42.1629 H   0  0  0  0  0  0  0  0  0  0  0  0
   58.1510   33.3390   43.2640 H   0  0  0  0  0  0  0  0  0  0  0  0
   59.2890   29.4710   43.8860 H   0  0  0  0  0  0  0  0  0  0  0  0
   60.4146   27.6188   45.2213 H   0  0  0  0  0  0  0  0  0  0  0  0
   60.1321   25.3179   46.1378 H   0  0  0  0  0  0  0  0  0  0  0  0
   58.6436   23.4915   46.8761 H   0  0  0  0  0  0  0  0  0  0  0  0
   56.3228   22.6247   47.2362 H   0  0  0  0  0  0  0  0  0  0  0  0
   54.3633   24.0703   46.6669 H   0  0  0  0  0  0  0  0  0  0  0  0
   56.1107   28.0859   45.0288 H   0  0  0  0  0  0  0  0  0  0  0  0
   58.8695   31.8928   46.6906 H   0  0  0  0  0  0  0  0  0  0  0  0
   60.0057   31.5355   45.3172 H   0  0  0  0  0  0  0  0  0  0  0  0
   60.0488   33.8833   46.5869 H   0  0  0  0  0  0  0  0  0  0  0  0
   60.3078   33.7306   44.7859 H   0  0  0  0  0  0  0  0  0  0  0  0
   58.6475   35.5567   45.8471 H   0  0  0  0  0  0  0  0  0  0  0  0
   58.3450   34.7343   44.2599 H   0  0  0  0  0  0  0  0  0  0  0  0
   57.1769   33.9302   46.9626 H   0  0  0  0  0  0  0  0  0  0  0  0
   56.3156   34.7707   45.5985 H   0  0  0  0  0  0  0  0  0  0  0  0
   56.2158   32.0894   46.0052 H   0  0  0  0  0  0  0  0  0  0  0  0
   56.1095   32.9107   44.3657 H   0  0  0  0  0  0  0  0  0  0  0  0
  1  2  1  0
  2  3  1  0
  3  4  1  0
  4  5  1  0
  5  6  2  0
  5  7  1  0
  7  8  1  0
  8  9  2  0
  9 10  1  0
 10 11  2  0
 11 12  1  0
 12 13  2  0
 13 14  1  0
 14 15  2  0
 15 16  1  0
 16 17  2  0
  4 18  1  0
 18 19  1  0
 19 20  1  0
 20 21  1  0
 21 22  1  0
 22  4  1  0
 17  8  1  0
 16 11  1  0
  1 23  1  0
  1 24  1  0
  1 25  1  0
  2 26  1  0
  2 27  1  0
  3 28  1  0
  7 29  1  0
  9 30  1  0
 10 31  1  0
 12 32  1  0
 13 33  1  0
 14 34  1  0
 17 35  1  0
 18 36  1  0
 18 37  1  0
 19 38  1  0
 19 39  1  0
 20 40  1  0
 20 41  1  0
 21 42  1  0
 21 43  1  0
 22 44  1  0
 22 45  1  0
M  END
>  <UniqueID>  (27) 
27

>  <SMILES>  (27) 
CCNC1(C(=O)Nc2ccc3cccnc3c2)CCCCC1

>  <Energy>  (27) 
60.40465374883879

>  <Genealogy>  (27) 
CCNC1(C(=O)Nc2ccc3cccnc3c2)CCCCC1 (3D coordinates assigned)
CCNC1(C(=O)Nc2ccc3cccnc3c2)CCCCC1 (nonaromatic ring conformer: 60.40465374883879 kcal/mol)

>  <smiles>  (27) 
CCNC1(C(=O)Nc2ccc3cccnc3c2)CCCCC1

>  <score_type>  (27) 
oracle

>  <origin>  (27) 
adg

>  <m_score__min__energy>  (27) 
-8.2699999999999996

>  <m_primary>  (27) 
energy

$$$$
27:0
     RDKit          3D

 29 30  0  0  0  0  0  0  0  0999 V2000
   58.3101   24.1471   46.5417 H   0  0  0  0  0  0  0  0  0  0  0  0
   57.5950   24.9530   46.3200 C   0  0  0  0  0  0  0  0  0  0  0  0
   57.9740   26.4650   45.6900 S   0  0  0  0  0  0  0  0  0  0  0  0
   56.3660   26.9840   45.6920 C   0  0  0  0  0  0  0  0  0  0  0  0
   55.9240   28.1250   45.2540 N   0  0  0  0  0  0  0  0  0  0  0  0
   56.6850   29.3330   45.0920 C   0  0  0  0  0  0  0  0  0  0  0  0
   56.3340   30.2220   44.0720 C   0  0  0  0  0  0  0  0  0  0  0  0
   55.5068   29.9728   43.3911 H   0  0  0  0  0  0  0  0  0  0  0  0
   57.0270   31.4260   43.9110 C   0  0  0  0  0  0  0  0  0  0  0  0
   56.7440   32.1150   43.1016 H   0  0  0  0  0  0  0  0  0  0  0  0
   58.0800   31.7610   44.7740 C   0  0  0  0  0  0  0  0  0  0  0  0
   58.7630   33.0140   44.6000 N   0  0  0  0  0  0  0  0  0  0  0  0
   59.3490   33.1410   43.7440 H   0  0  0  0  0  0  0  0  0  0  0  0
   58.7820   34.0650   45.5800 C   0  0  0  0  0  0  0  0  0  0  0  0
   58.3980   33.8500   46.7610 O   0  0  0  0  0  0  0  0  0  0  0  0
   59.3520   35.4000   45.2280 C   0  0  0  0  0  0  0  0  0  0  0  0
   59.5879   35.9525   46.1495 H   0  0  0  0  0  0  0  0  0  0  0  0
   60.2699   35.2627   44.6376 H   0  0  0  0  0  0  0  0  0  0  0  0
   58.6179   35.9680   44.6376 H   0  0  0  0  0  0  0  0  0  0  0  0
   58.3960   30.8930   45.8350 C   0  0  0  0  0  0  0  0  0  0  0  0
   59.1943   31.1617   46.5425 H   0  0  0  0  0  0  0  0  0  0  0  0
   57.7010   29.6910   45.9950 C   0  0  0  0  0  0  0  0  0  0  0  0
   57.9503   29.0218   46.8317 H   0  0  0  0  0  0  0  0  0  0  0  0
   55.5370   26.0220   46.1470 N   0  0  0  0  0  0  0  0  0  0  0  0
   56.2160   24.9000   46.5120 C   0  0  0  0  0  0  0  0  0  0  0  0
   55.5130   23.6810   47.0110 C   0  0  0  0  0  0  0  0  0  0  0  0
   55.5135   23.6819   48.1110 H   0  0  0  0  0  0  0  0  0  0  0  0
   54.4757   23.6802   46.6448 H   0  0  0  0  0  0  0  0  0  0  0  0
   56.0318   22.7828   46.6448 H   0  0  0  0  0  0  0  0  0  0  0  0
  1  2  1  0
  2  3  1  0
  3  4  1  0
  4  5  2  0
  5  6  1  0
  6  7  2  0
  7  8  1  0
  7  9  1  0
  9 10  1  0
  9 11  2  0
 11 12  1  0
 12 13  1  0
 12 14  1  0
 14 15  2  0
 14 16  1  0
 16 17  1  0
 16 18  1  0
 16 19  1  0
 11 20  1  0
 20 21  1  0
 20 22  2  0
 22 23  1  0
  4 24  1  0
 24 25  1  0
 25 26  1  0
 26 27  1  0
 26 28  1  0
 26 29  1  0
 25  2  2  0
 22  6  1  0
M  CHG  1  24  -1
M  END
>  <UniqueID>  (28) 
28

>  <SMILES>  (28) 
CC(=O)Nc1ccc(/N=c2/[n-]c(C)cs2)cc1

>  <Energy>  (28) 
66.37489513672793

>  <Genealogy>  (28) 
CC(=O)Nc1ccc(N=c2[n-]c(C)cs2)cc1 (protonated)
CC(=O)Nc1ccc(/N=c2/[n-]c(C)cs2)cc1 (cis-trans isomerization)
CC(=O)Nc1ccc(/N=c2/[n-]c(C)cs2)cc1 (3D coordinates assigned)
CC(=O)Nc1ccc(/N=c2/[n-]c(C)cs2)cc1 (optimized conformer: 66.37489513672793 kcal/mol)

>  <smiles>  (28) 
CC(=O)Nc1ccc(N=c2[nH]c(C)cs2)cc1

>  <score_type>  (28) 
oracle

>  <origin>  (28) 
adg

>  <m_score__min__energy>  (28) 
-7.9400000000000004

>  <m_primary>  (28) 
energy

$$$$
28:0
     RDKit          3D

 42 46  0  0  0  0  0  0  0  0999 V2000
   56.9970   30.8440   43.3730 C   0  0  0  0  0  0  0  0  0  0  0  0
   57.5140   31.3660   44.6800 C   0  0  0  0  0  0  0  0  0  0  0  0
   57.3600   32.7200   45.0130 C   0  0  0  0  0  0  0  0  0  0  0  0
   57.8080   33.1990   46.2460 C   0  0  0  0  0  0  0  0  0  0  0  0
   58.4030   32.3260   47.1740 C   0  0  0  0  0  0  0  0  0  0  0  0
   58.8860   32.8430   48.5100 C   0  0  1  0  0  0  0  0  0  0  0  0
   57.9960   32.3540   49.5750 N   0  0  0  0  0  0  0  0  0  0  0  0
   58.3710   31.3190   50.5050 C   0  0  0  0  0  0  0  0  0  0  0  0
   57.4120   30.7670   51.3680 C   0  0  0  0  0  0  0  0  0  0  0  0
   57.7740   29.7660   52.2740 C   0  0  0  0  0  0  0  0  0  0  0  0
   59.0940   29.3120   52.3270 C   0  0  0  0  0  0  0  0  0  0  0  0
   60.0590   29.8580   51.4760 C   0  0  0  0  0  0  0  0  0  0  0  0
   59.7010   30.8640   50.5650 C   0  0  0  0  0  0  0  0  0  0  0  0
   60.6660   31.4880   49.6510 C   0  0  0  0  0  0  0  0  0  0  0  0
   62.0030   31.2500   49.6090 N   0  0  0  0  0  0  0  0  0  0  0  0
   62.4430   32.0610   48.6300 C   0  0  0  0  0  0  0  0  0  0  0  0
   63.7460   32.2130   48.1580 C   0  0  0  0  0  0  0  0  0  0  0  0
   63.9560   33.1270   47.1070 C   0  0  0  0  0  0  0  0  0  0  0  0
   62.8730   33.8550   46.5630 C   0  0  0  0  0  0  0  0  0  0  0  0
   61.5690   33.6780   47.0620 C   0  0  0  0  0  0  0  0  0  0  0  0
   61.3970   32.7670   48.1040 C   0  0  0  0  0  0  0  0  0  0  0  0
   60.2690   32.4120   48.7470 N   0  0  0  0  0  0  0  0  0  0  0  0
   58.5460   30.9690   46.8430 C   0  0  0  0  0  0  0  0  0  0  0  0
   58.0970   30.4910   45.6090 C   0  0  0  0  0  0  0  0  0  0  0  0
   56.2344   30.0740   43.5616 H   0  0  0  0  0  0  0  0  0  0  0  0
   56.5505   31.6695   42.7993 H   0  0  0  0  0  0  0  0  0  0  0  0
   57.8268   30.4055   42.7993 H   0  0  0  0  0  0  0  0  0  0  0  0
   56.8838   33.4082   44.2991 H   0  0  0  0  0  0  0  0  0  0  0  0
   57.6948   34.2650   46.4926 H   0  0  0  0  0  0  0  0  0  0  0  0
   58.8657   33.9428   48.5083 H   0  0  0  0  0  0  0  0  0  0  0  0
   57.0150   32.7160   49.5900 H   0  0  0  0  0  0  0  0  0  0  0  0
   56.3719   31.1232   51.3314 H   0  0  0  0  0  0  0  0  0  0  0  0
   57.0179   29.3349   52.9466 H   0  0  0  0  0  0  0  0  0  0  0  0
   59.3746   28.5229   53.0402 H   0  0  0  0  0  0  0  0  0  0  0  0
   61.0981   29.4996   51.5202 H   0  0  0  0  0  0  0  0  0  0  0  0
   62.5700   30.5960   50.1930 H   0  0  0  0  0  0  0  0  0  0  0  0
   64.5795   31.6402   48.5905 H   0  0  0  0  0  0  0  0  0  0  0  0
   64.9698   33.2754   46.7067 H   0  0  0  0  0  0  0  0  0  0  0  0
   63.0511   34.5659   45.7427 H   0  0  0  0  0  0  0  0  0  0  0  0
   60.7178   34.2369   46.6460 H   0  0  0  0  0  0  0  0  0  0  0  0
   59.0143   30.2780   47.5594 H   0  0  0  0  0  0  0  0  0  0  0  0
   58.2012   29.4235   45.3648 H   0  0  0  0  0  0  0  0  0  0  0  0
  1  2  1  0
  2  3  2  0
  3  4  1  0
  4  5  2  0
  5  6  1  0
  6  7  1  0
  7  8  1  0
  8  9  2  0
  9 10  1  0
 10 11  2  0
 11 12  1  0
 12 13  2  0
 13 14  1  0
 14 15  2  0
 15 16  1  0
 16 17  2  0
 17 18  1  0
 18 19  2  0
 19 20  1  0
 20 21  2  0
 21 22  1  0
  5 23  1  0
 23 24  2  0
 24  2  1  0
 22  6  1  0
 13  8  1  0
 22 14  1  0
 21 16  1  0
  1 25  1  0
  1 26  1  0
  1 27  1  0
  3 28  1  0
  4 29  1  0
  6 30  1  6
  7 31  1  0
  9 32  1  0
 10 33  1  0
 11 34  1  0
 12 35  1  0
 15 36  1  0
 17 37  1  0
 18 38  1  0
 19 39  1  0
 20 40  1  0
 23 41  1  0
 24 42  1  0
M  CHG  1  15   1
M  END
>  <UniqueID>  (29) 
29

>  <SMILES>  (29) 
Cc1ccc([C@H]2Nc3ccccc3-c3[nH+]c4ccccc4n32)cc1

>  <Energy>  (29) 
88.82138596361723

>  <Genealogy>  (29) 
Cc1ccc(C2Nc3ccccc3-c3[nH+]c4ccccc4n32)cc1 (protonated)
Cc1ccc([C@H]2Nc3ccccc3-c3[nH+]c4ccccc4n32)cc1 (chirality)
Cc1ccc([C@H]2Nc3ccccc3-c3[nH+]c4ccccc4n32)cc1 (3D coordinates assigned)
Cc1ccc([C@H]2Nc3ccccc3-c3[nH+]c4ccccc4n32)cc1 (nonaromatic ring conformer: 88.82138596361723 kcal/mol)

>  <smiles>  (29) 
Cc1ccc(C2Nc3ccccc3-c3nc4ccccc4n32)cc1

>  <score_type>  (29) 
oracle

>  <origin>  (29) 
adg

>  <m_score__min__energy>  (29) 
-6.5099999999999998

>  <m_primary>  (29) 
energy

$$$$
29:0
     RDKit          3D

 36 38  0  0  0  0  0  0  0  0999 V2000
   55.1370   25.0450   46.0500 N   0  0  0  0  0  0  0  0  0  0  0  0
   56.0480   25.7540   45.9850 C   0  0  0  0  0  0  0  0  0  0  0  0
   57.1820   26.6380   45.9040 C   0  0  0  0  0  0  0  0  0  0  0  0
   57.7110   26.9860   44.6550 C   0  0  0  0  0  0  0  0  0  0  0  0
   58.8120   27.8450   44.5740 C   0  0  0  0  0  0  0  0  0  0  0  0
   59.3990   28.3660   45.7420 C   0  0  0  0  0  0  0  0  0  0  0  0
   60.5620   29.2790   45.6560 C   0  0  0  0  0  0  0  0  0  0  0  0
   61.5130   29.0210   44.8690 O   0  0  0  0  0  0  0  0  0  0  0  0
   60.6090   30.4610   46.4620 N   0  0  0  0  0  0  0  0  0  0  0  0
   59.4180   31.0860   47.0210 C   0  0  0  0  0  0  0  0  0  0  0  0
   59.2180   32.4320   46.3910 C   0  0  0  0  0  0  0  0  0  0  0  0
   59.7590   33.6050   46.8820 C   0  0  0  0  0  0  0  0  0  0  0  0
   59.3490   34.6110   46.0320 C   0  0  0  0  0  0  0  0  0  0  0  0
   58.5690   34.0170   45.0610 C   0  0  0  0  0  0  0  0  0  0  0  0
   58.4840   32.6860   45.2800 N   0  0  0  0  0  0  0  0  0  0  0  0
   57.7210   31.7520   44.4890 C   0  0  0  0  0  0  0  0  0  0  0  0
   57.7790   31.7780   43.0850 C   0  0  0  0  0  0  0  0  0  0  0  0
   57.0180   30.8700   42.3470 C   0  0  0  0  0  0  0  0  0  0  0  0
   56.2070   29.9450   43.0050 C   0  0  0  0  0  0  0  0  0  0  0  0
   56.1710   29.9440   44.4000 C   0  0  0  0  0  0  0  0  0  0  0  0
   56.9180   30.8360   45.1010 N   0  0  0  0  0  0  0  0  0  0  0  0
   58.8590   28.0100   46.9920 C   0  0  0  0  0  0  0  0  0  0  0  0
   57.7580   27.1510   47.0710 C   0  0  0  0  0  0  0  0  0  0  0  0
   57.2600   26.5832   43.7361 H   0  0  0  0  0  0  0  0  0  0  0  0
   59.2221   28.1153   43.5898 H   0  0  0  0  0  0  0  0  0  0  0  0
   58.5419   30.4524   46.8185 H   0  0  0  0  0  0  0  0  0  0  0  0
   59.5413   31.2042   48.1077 H   0  0  0  0  0  0  0  0  0  0  0  0
   60.3920   33.7148   47.7749 H   0  0  0  0  0  0  0  0  0  0  0  0
   59.5960   35.6799   46.1126 H   0  0  0  0  0  0  0  0  0  0  0  0
   58.0860   34.5499   44.2287 H   0  0  0  0  0  0  0  0  0  0  0  0
   58.4201   32.5093   42.5710 H   0  0  0  0  0  0  0  0  0  0  0  0
   57.0577   30.8837   41.2478 H   0  0  0  0  0  0  0  0  0  0  0  0
   55.6037   29.2258   42.4316 H   0  0  0  0  0  0  0  0  0  0  0  0
   55.5369   29.2200   44.9326 H   0  0  0  0  0  0  0  0  0  0  0  0
   59.3062   28.4103   47.9138 H   0  0  0  0  0  0  0  0  0  0  0  0
   57.3441   26.8782   48.0530 H   0  0  0  0  0  0  0  0  0  0  0  0
  1  2  3  0
  2  3  1  0
  3  4  2  0
  4  5  1  0
  5  6  2  0
  6  7  1  0
  7  8  2  0
  7  9  1  0
  9 10  1  0
 10 11  1  0
 11 12  2  0
 12 13  1  0
 13 14  2  0
 14 15  1  0
 15 16  1  0
 16 17  2  0
 17 18  1  0
 18 19  2  0
 19 20  1  0
 20 21  2  0
  6 22  1  0
 22 23  2  0
 23  3  1  0
 15 11  1  0
 21 16  1  0
  4 24  1  0
  5 25  1  0
 10 26  1  0
 10 27  1  0
 12 28  1  0
 13 29  1  0
 14 30  1  0
 17 31  1  0
 18 32  1  0
 19 33  1  0
 20 34  1  0
 22 35  1  0
 23 36  1  0
M  CHG  1   9  -1
M  END
>  <UniqueID>  (30) 
30

>  <SMILES>  (30) 
N#Cc1ccc(C(=O)[N-]Cc2cccn2-c2ccccn2)cc1

>  <Energy>  (30) 
65.53623362225717

>  <Genealogy>  (30) 
N#Cc1ccc(C(=O)[N-]Cc2cccn2-c2ccccn2)cc1 (protonated)
N#Cc1ccc(C(=O)[N-]Cc2cccn2-c2ccccn2)cc1 (3D coordinates assigned)
N#Cc1ccc(C(=O)[N-]Cc2cccn2-c2ccccn2)cc1 (optimized conformer: 65.53623362225717 kcal/mol)

>  <smiles>  (30) 
N#Cc1ccc(C(=O)NCc2cccn2-c2ccccn2)cc1

>  <score_type>  (30) 
oracle

>  <origin>  (30) 
adg

>  <m_score__min__energy>  (30) 
-8.8100000000000005

>  <m_primary>  (30) 
energy

$$$$
30:0
     RDKit          3D

 54 56  0  0  0  0  0  0  0  0999 V2000
   60.8660   29.5120   45.8080 C   0  0  0  0  0  0  0  0  0  0  0  0
   60.4480   30.6860   46.6920 C   0  0  1  0  0  0  0  0  0  0  0  0
   58.9640   30.2260   47.6650 S   0  0  0  0  0  0  0  0  0  0  0  0
   59.8970   30.0690   49.2330 C   0  0  0  0  0  0  0  0  0  0  0  0
   59.9870   28.5890   49.6270 C   0  0  0  0  0  0  0  0  0  0  0  0
   59.1910   30.8840   50.3240 C   0  0  0  0  0  0  0  0  0  0  0  0
   61.2560   30.6200   48.9640 C   0  0  0  0  0  0  0  0  0  0  0  0
   62.1340   30.7100   49.8650 O   0  0  0  0  0  0  0  0  0  0  0  0
   61.5110   31.0290   47.6270 N   0  0  0  0  0  0  0  0  0  0  0  0
   62.7420   31.7090   47.2090 C   0  0  0  0  0  0  0  0  0  0  0  0
   62.5440   33.2280   47.1150 C   0  0  0  0  0  0  0  0  0  0  0  0
   62.1940   33.8530   48.4740 C   0  0  0  0  0  0  0  0  0  0  0  0
   60.8020   34.4960   48.4810 C   0  0  0  0  0  0  0  0  0  0  0  0
   59.9560   33.9020   47.4170 N   0  0  0  0  0  0  0  0  0  0  0  0
   59.7840   34.8130   46.2760 C   0  0  0  0  0  0  0  0  0  0  0  0
   59.2850   34.0000   45.0860 C   0  0  0  0  0  0  0  0  0  0  0  0
   58.2500   33.0370   45.4870 N   0  0  0  0  0  0  0  0  0  0  0  0
   57.6990   32.1540   44.4860 C   0  0  0  0  0  0  0  0  0  0  0  0
   57.8930   32.4050   43.1610 N   0  0  0  0  0  0  0  0  0  0  0  0
   57.3780   31.5880   42.2070 C   0  0  0  0  0  0  0  0  0  0  0  0
   56.6340   30.4700   42.5770 C   0  0  0  0  0  0  0  0  0  0  0  0
   56.4420   30.2210   43.9330 C   0  0  0  0  0  0  0  0  0  0  0  0
   56.9750   31.0610   44.8570 N   0  0  0  0  0  0  0  0  0  0  0  0
   57.6350   33.1010   46.8250 C   0  0  0  0  0  0  0  0  0  0  0  0
   58.6380   33.4870   47.9380 C   0  0  0  0  0  0  0  0  0  0  0  0
   61.1676   28.6650   46.4417 H   0  0  0  0  0  0  0  0  0  0  0  0
   60.0196   29.2116   45.1729 H   0  0  0  0  0  0  0  0  0  0  0  0
   61.7118   29.8142   45.1729 H   0  0  0  0  0  0  0  0  0  0  0  0
   60.2353   31.5461   46.0401 H   0  0  0  0  0  0  0  0  0  0  0  0
   59.9923   28.5011   50.7235 H   0  0  0  0  0  0  0  0  0  0  0  0
   59.1201   28.0478   49.2200 H   0  0  0  0  0  0  0  0  0  0  0  0
   60.9131   28.1569   49.2200 H   0  0  0  0  0  0  0  0  0  0  0  0
   59.5052   30.5213   51.3138 H   0  0  0  0  0  0  0  0  0  0  0  0
   59.4596   31.9456   50.2203 H   0  0  0  0  0  0  0  0  0  0  0  0
   58.1019   30.7695   50.2203 H   0  0  0  0  0  0  0  0  0  0  0  0
   63.5338   31.4969   47.9426 H   0  0  0  0  0  0  0  0  0  0  0  0
   63.0199   31.3358   46.2123 H   0  0  0  0  0  0  0  0  0  0  0  0
   63.4738   33.6841   46.7443 H   0  0  0  0  0  0  0  0  0  0  0  0
   61.7043   33.4173   46.4301 H   0  0  0  0  0  0  0  0  0  0  0  0
   62.2236   33.0666   49.2425 H   0  0  0  0  0  0  0  0  0  0  0  0
   62.9299   34.6446   48.6784 H   0  0  0  0  0  0  0  0  0  0  0  0
   60.3283   34.3255   49.4590 H   0  0  0  0  0  0  0  0  0  0  0  0
   60.9051   35.5754   48.2958 H   0  0  0  0  0  0  0  0  0  0  0  0
   59.0493   35.5916   46.5290 H   0  0  0  0  0  0  0  0  0  0  0  0
   60.7404   35.2976   46.0300 H   0  0  0  0  0  0  0  0  0  0  0  0
   58.8637   34.6858   44.3362 H   0  0  0  0  0  0  0  0  0  0  0  0
   60.1353   33.4394   44.6705 H   0  0  0  0  0  0  0  0  0  0  0  0
   57.5480   31.8086   41.1429 H   0  0  0  0  0  0  0  0  0  0  0  0
   56.2083   29.7998   41.8157 H   0  0  0  0  0  0  0  0  0  0  0  0
   55.8595   29.3453   44.2554 H   0  0  0  0  0  0  0  0  0  0  0  0
   56.8299   33.8503   46.8044 H   0  0  0  0  0  0  0  0  0  0  0  0
   57.2567   32.0951   47.0598 H   0  0  0  0  0  0  0  0  0  0  0  0
   58.2133   34.3200   48.5174 H   0  0  0  0  0  0  0  0  0  0  0  0
   58.7989   32.5920   48.5569 H   0  0  0  0  0  0  0  0  0  0  0  0
  1  2  1  0
  2  3  1  0
  3  4  1  0
  4  5  1  0
  4  6  1  0
  4  7  1  0
  7  8  2  0
  7  9  1  0
  9 10  1  0
 10 11  1  0
 11 12  1  0
 12 13  1  0
 13 14  1  0
 14 15  1  0
 15 16  1  0
 16 17  1  0
 17 18  1  0
 18 19  2  0
 19 20  1  0
 20 21  2  0
 21 22  1  0
 22 23  2  0
 17 24  1  0
 24 25  1  0
  9  2  1  0
 25 14  1  0
 23 18  1  0
  1 26  1  0
  1 27  1  0
  1 28  1  0
  2 29  1  6
  5 30  1  0
  5 31  1  0
  5 32  1  0
  6 33  1  0
  6 34  1  0
  6 35  1  0
 10 36  1  0
 10 37  1  0
 11 38  1  0
 11 39  1  0
 12 40  1  0
 12 41  1  0
 13 42  1  0
 13 43  1  0
 15 44  1  0
 15 45  1  0
 16 46  1  0
 16 47  1  0
 20 48  1  0
 21 49  1  0
 22 50  1  0
 24 51  1  0
 24 52  1  0
 25 53  1  0
 25 54  1  0
M  END
>  <UniqueID>  (31) 
31

>  <SMILES>  (31) 
C[C@H]1SC(C)(C)C(=O)N1CCCCN1CCN(c2ncccn2)CC1

>  <Energy>  (31) 
46.909841021216735

>  <Genealogy>  (31) 
C[C@H]1SC(C)(C)C(=O)N1CCCCN1CCN(c2ncccn2)CC1 (chirality)
C[C@H]1SC(C)(C)C(=O)N1CCCCN1CCN(c2ncccn2)CC1 (3D coordinates assigned)
C[C@H]1SC(C)(C)C(=O)N1CCCCN1CCN(c2ncccn2)CC1 (nonaromatic ring conformer: 46.909841021216735 kcal/mol)

>  <smiles>  (31) 
CC1SC(C)(C)C(=O)N1CCCCN1CCN(c2ncccn2)CC1

>  <score_type>  (31) 
oracle

>  <origin>  (31) 
adg

>  <m_score__min__energy>  (31) 
-8.0299999999999994

>  <m_primary>  (31) 
energy

$$$$
31:0
     RDKit          3D

 33 34  0  0  0  0  0  0  0  0999 V2000
   58.0950   33.1150   44.2940 C   0  0  0  0  0  0  0  0  0  0  0  0
   58.6940   34.2670   45.0950 C   0  0  0  0  0  0  0  0  0  0  0  0
   58.2720   34.1980   46.5660 C   0  0  0  0  0  0  0  0  0  0  0  0
   59.2020   34.9550   47.4060 N   0  0  0  0  0  0  0  0  0  0  0  0
   60.0740   34.3430   48.3760 C   0  0  0  0  0  0  0  0  0  0  0  0
   59.6460   34.2080   49.7070 C   0  0  0  0  0  0  0  0  0  0  0  0
   60.4790   33.6650   50.6850 C   0  0  0  0  0  0  0  0  0  0  0  0
   59.9830   33.5650   51.9950 O   0  0  0  0  0  0  0  0  0  0  0  0
   58.6670   33.9410   52.3900 C   0  0  0  0  0  0  0  0  0  0  0  0
   61.7710   33.2440   50.3360 C   0  0  0  0  0  0  0  0  0  0  0  0
   62.2300   33.3580   49.0100 C   0  0  0  0  0  0  0  0  0  0  0  0
   63.5250   32.9290   48.6380 C   0  0  0  0  0  0  0  0  0  0  0  0
   64.6620   32.2520   49.8060 Cl  0  0  0  0  0  0  0  0  0  0  0  0
   63.9280   33.0310   47.3420 N   0  0  0  0  0  0  0  0  0  0  0  0
   63.1150   33.5290   46.3750 C   0  0  0  0  0  0  0  0  0  0  0  0
   61.8310   33.9670   46.6900 C   0  0  0  0  0  0  0  0  0  0  0  0
   61.3740   33.9050   48.0190 C   0  0  0  0  0  0  0  0  0  0  0  0
   57.6998   32.3550   44.9841 H   0  0  0  0  0  0  0  0  0  0  0  0
   57.2798   33.4940   43.6602 H   0  0  0  0  0  0  0  0  0  0  0  0
   58.8735   32.6653   43.6602 H   0  0  0  0  0  0  0  0  0  0  0  0
   59.7910   34.2142   45.0337 H   0  0  0  0  0  0  0  0  0  0  0  0
   58.3266   35.2134   44.6715 H   0  0  0  0  0  0  0  0  0  0  0  0
   57.2624   34.6214   46.6725 H   0  0  0  0  0  0  0  0  0  0  0  0
   58.2800   33.1462   46.8878 H   0  0  0  0  0  0  0  0  0  0  0  0
   59.2330   35.9920   47.2750 H   0  0  0  0  0  0  0  0  0  0  0  0
   58.6335   34.5372   49.9836 H   0  0  0  0  0  0  0  0  0  0  0  0
   58.6048   33.9588   53.4881 H   0  0  0  0  0  0  0  0  0  0  0  0
   58.4368   34.9409   51.9935 H   0  0  0  0  0  0  0  0  0  0  0  0
   57.9433   33.2137   51.9935 H   0  0  0  0  0  0  0  0  0  0  0  0
   62.4322   32.8205   51.1064 H   0  0  0  0  0  0  0  0  0  0  0  0
   64.8860   32.7110   47.0740 H   0  0  0  0  0  0  0  0  0  0  0  0
   63.4728   33.5868   45.3364 H   0  0  0  0  0  0  0  0  0  0  0  0
   61.1747   34.3611   45.9001 H   0  0  0  0  0  0  0  0  0  0  0  0
  1  2  1  0
  2  3  1  0
  3  4  1  0
  4  5  1  0
  5  6  2  0
  6  7  1  0
  7  8  1  0
  8  9  1  0
  7 10  2  0
 10 11  1  0
 11 12  2  0
 12 13  1  0
 12 14  1  0
 14 15  2  0
 15 16  1  0
 16 17  2  0
 17  5  1  0
 17 11  1  0
  1 18  1  0
  1 19  1  0
  1 20  1  0
  2 21  1  0
  2 22  1  0
  3 23  1  0
  3 24  1  0
  4 25  1  0
  6 26  1  0
  9 27  1  0
  9 28  1  0
  9 29  1  0
 10 30  1  0
 14 31  1  0
 15 32  1  0
 16 33  1  0
M  CHG  1  14   1
M  END
>  <UniqueID>  (32) 
32

>  <SMILES>  (32) 
CCCNc1cc(OC)cc2c(Cl)[nH+]ccc12

>  <Energy>  (32) 
36.22253231115864

>  <Genealogy>  (32) 
CCCNc1cc(OC)cc2c(Cl)[nH+]ccc12 (protonated)
CCCNc1cc(OC)cc2c(Cl)[nH+]ccc12 (3D coordinates assigned)
CCCNc1cc(OC)cc2c(Cl)[nH+]ccc12 (optimized conformer: 36.22253231115864 kcal/mol)

>  <smiles>  (32) 
CCCNc1cc(OC)cc2c(Cl)nccc12

>  <score_type>  (32) 
oracle

>  <origin>  (32) 
adg

>  <m_score__min__energy>  (32) 
-4.7000000000000002

>  <m_primary>  (32) 
energy

$$$$
32:0
     RDKit          3D

 49 53  0  0  0  0  0  0  0  0999 V2000
   59.6670   34.4870   49.6030 O   0  0  0  0  0  0  0  0  0  0  0  0
   59.4000   33.4610   48.9210 C   0  0  0  0  0  0  0  0  0  0  0  0
   59.7870   32.1290   49.4360 C   0  0  0  0  0  0  0  0  0  0  0  0
   58.8280   31.3790   50.1360 C   0  0  0  0  0  0  0  0  0  0  0  0
   59.1680   30.1580   50.7210 C   0  0  0  0  0  0  0  0  0  0  0  0
   60.4690   29.6710   50.6120 C   0  0  0  0  0  0  0  0  0  0  0  0
   61.4300   30.3920   49.9040 C   0  0  0  0  0  0  0  0  0  0  0  0
   61.1020   31.6160   49.2950 C   0  0  0  0  0  0  0  0  0  0  0  0
   62.0960   32.2940   48.5070 N   0  0  0  0  0  0  0  0  0  0  0  0
   62.9340   31.6820   47.6820 N   0  0  0  0  0  0  0  0  0  0  0  0
   63.7280   32.6450   47.1690 C   0  0  0  0  0  0  0  0  0  0  0  0
   63.3450   33.8520   47.7170 C   0  0  0  0  0  0  0  0  0  0  0  0
   62.3250   33.5980   48.5520 N   0  0  0  0  0  0  0  0  0  0  0  0
   58.7570   33.6060   47.6420 N   0  0  0  0  0  0  0  0  0  0  0  0
   59.1710   34.5420   46.6130 C   0  0  1  0  0  0  0  0  0  0  0  0
   60.3050   33.7900   45.9030 C   0  0  0  0  0  0  0  0  0  0  0  0
   59.8100   32.3420   45.9980 C   0  0  0  0  0  0  0  0  0  0  0  0
   58.4630   32.5140   46.7340 C   0  0  2  0  0  0  0  0  0  0  0  0
   57.3890   33.1640   45.8370 C   0  0  2  0  0  0  0  0  0  0  0  0
   57.0350   32.4550   44.5150 C   0  0  0  0  0  0  0  0  0  0  0  0
   56.3760   31.2150   44.7740 O   0  0  0  0  0  0  0  0  0  0  0  0
   57.0200   29.9750   44.8190 C   0  0  0  0  0  0  0  0  0  0  0  0
   57.1470   29.2090   43.7020 N   0  0  0  0  0  0  0  0  0  0  0  0
   57.7830   28.0090   43.7430 C   0  0  0  0  0  0  0  0  0  0  0  0
   58.3130   27.5450   44.9450 C   0  0  0  0  0  0  0  0  0  0  0  0
   58.1660   28.3370   46.0840 C   0  0  0  0  0  0  0  0  0  0  0  0
   57.5250   29.5310   46.0010 N   0  0  0  0  0  0  0  0  0  0  0  0
   57.9530   34.5860   45.6720 C   0  0  0  0  0  0  0  0  0  0  0  0
   57.7989   31.7574   50.2242 H   0  0  0  0  0  0  0  0  0  0  0  0
   58.4086   29.5801   51.2682 H   0  0  0  0  0  0  0  0  0  0  0  0
   60.7386   28.7155   51.0856 H   0  0  0  0  0  0  0  0  0  0  0  0
   62.4542   29.9994   49.8212 H   0  0  0  0  0  0  0  0  0  0  0  0
   64.5389   32.4941   46.4412 H   0  0  0  0  0  0  0  0  0  0  0  0
   63.7909   34.8358   47.5091 H   0  0  0  0  0  0  0  0  0  0  0  0
   61.7930   34.2940   49.1200 H   0  0  0  0  0  0  0  0  0  0  0  0
   59.4770   35.5454   46.9438 H   0  0  0  0  0  0  0  0  0  0  0  0
   60.4087   34.1124   44.8564 H   0  0  0  0  0  0  0  0  0  0  0  0
   61.2999   33.9559   46.3420 H   0  0  0  0  0  0  0  0  0  0  0  0
   59.6674   31.9015   45.0002 H   0  0  0  0  0  0  0  0  0  0  0  0
   60.5116   31.6647   46.5070 H   0  0  0  0  0  0  0  0  0  0  0  0
   58.1182   31.5463   47.1272 H   0  0  0  0  0  0  0  0  0  0  0  0
   56.3909   33.1126   46.2966 H   0  0  0  0  0  0  0  0  0  0  0  0
   56.3700   33.1019   43.9240 H   0  0  0  0  0  0  0  0  0  0  0  0
   57.9626   32.2557   43.9585 H   0  0  0  0  0  0  0  0  0  0  0  0
   57.8793   27.4049   42.8288 H   0  0  0  0  0  0  0  0  0  0  0  0
   58.8346   26.5778   44.9947 H   0  0  0  0  0  0  0  0  0  0  0  0
   58.5691   27.9944   47.0485 H   0  0  0  0  0  0  0  0  0  0  0  0
   58.2549   34.7808   44.6323 H   0  0  0  0  0  0  0  0  0  0  0  0
   57.2335   35.3846   45.9055 H   0  0  0  0  0  0  0  0  0  0  0  0
  1  2  2  0
  2  3  1  0
  3  4  2  0
  4  5  1  0
  5  6  2  0
  6  7  1  0
  7  8  2  0
  8  9  1  0
  9 10  1  0
 10 11  2  0
 11 12  1  0
 12 13  2  0
  2 14  1  0
 14 15  1  0
 15 16  1  0
 16 17  1  0
 17 18  1  0
 18 19  1  0
 19 20  1  0
 20 21  1  0
 21 22  1  0
 22 23  2  0
 23 24  1  0
 24 25  2  0
 25 26  1  0
 26 27  2  0
 19 28  1  0
  8  3  1  0
 13  9  1  0
 18 14  1  0
 27 22  1  0
 28 15  1  0
  4 29  1  0
  5 30  1  0
  6 31  1  0
  7 32  1  0
 11 33  1  0
 12 34  1  0
 13 35  1  0
 15 36  1  1
 16 37  1  0
 16 38  1  0
 17 39  1  0
 17 40  1  0
 18 41  1  1
 19 42  1  1
 20 43  1  0
 20 44  1  0
 24 45  1  0
 25 46  1  0
 26 47  1  0
 28 48  1  0
 28 49  1  0
M  CHG  1  13   1
M  END
>  <UniqueID>  (33) 
33

>  <SMILES>  (33) 
O=C(c1ccccc1-n1ncc[nH+]1)N1[C@H]2CC[C@@H]1C(COc1ncccn1)C2

>  <Energy>  (33) 
133.63850294737728

>  <Genealogy>  (33) 
O=C(c1ccccc1-n1ncc[nH+]1)N1C2CCC1C(COc1ncccn1)C2 (protonated)
O=C(c1ccccc1-n1ncc[nH+]1)N1[C@H]2CC[C@@H]1C(COc1ncccn1)C2 (chirality)
O=C(c1ccccc1-n1ncc[nH+]1)N1[C@H]2CC[C@@H]1C(COc1ncccn1)C2 (3D coordinates assigned)
O=C(c1ccccc1-n1ncc[nH+]1)N1[C@H]2CC[C@@H]1C(COc1ncccn1)C2 (nonaromatic ring conformer: 133.63850294737728 kcal/mol)

>  <smiles>  (33) 
O=C(c1ccccc1-n1nccn1)N1C2CCC1C(COc1ncccn1)C2

>  <score_type>  (33) 
oracle

>  <origin>  (33) 
adg

>  <m_score__min__energy>  (33) 
-6.7400000000000002

>  <m_primary>  (33) 
energy

$$$$
33:0
     RDKit          3D

 29 29  0  0  0  0  0  0  0  0999 V2000
   59.7530   28.2800   44.8570 C   0  0  0  0  0  0  0  0  0  0  0  0
   58.5080   27.5650   44.3320 C   0  0  0  0  0  0  0  0  0  0  0  0
   57.4020   28.5460   43.9310 C   0  0  0  0  0  0  0  0  0  0  0  0
   57.9410   29.8940   43.7580 N   0  0  0  0  0  0  0  0  0  0  0  0
   57.2490   31.0740   44.1930 C   0  0  0  0  0  0  0  0  0  0  0  0
   56.1760   30.9810   44.8500 O   0  0  0  0  0  0  0  0  0  0  0  0
   57.7780   32.4300   43.8300 C   0  0  0  0  0  0  0  0  0  0  0  0
   57.5940   33.4290   44.9880 C   0  0  1  0  0  0  0  0  0  0  0  0
   57.8850   32.8010   46.3110 C   0  0  0  0  0  0  0  0  0  0  0  0
   58.8170   33.4520   46.9840 C   0  0  0  0  0  0  0  0  0  0  0  0
   59.3340   34.6310   46.2440 C   0  0  0  0  0  0  0  0  0  0  0  0
   58.5890   34.6030   44.9060 C   0  0  0  0  0  0  0  0  0  0  0  0
   59.7428   28.2741   45.9569 H   0  0  0  0  0  0  0  0  0  0  0  0
   60.6533   27.7613   44.4959 H   0  0  0  0  0  0  0  0  0  0  0  0
   59.7588   29.3190   44.4959 H   0  0  0  0  0  0  0  0  0  0  0  0
   58.7876   26.9675   43.4517 H   0  0  0  0  0  0  0  0  0  0  0  0
   58.1180   26.9293   45.1406 H   0  0  0  0  0  0  0  0  0  0  0  0
   56.9511   28.2137   42.9843 H   0  0  0  0  0  0  0  0  0  0  0  0
   56.6449   28.5688   44.7286 H   0  0  0  0  0  0  0  0  0  0  0  0
   58.8170   30.0040   43.1980 H   0  0  0  0  0  0  0  0  0  0  0  0
   58.8495   32.3460   43.5956 H   0  0  0  0  0  0  0  0  0  0  0  0
   57.2178   32.8002   42.9587 H   0  0  0  0  0  0  0  0  0  0  0  0
   56.5498   33.7633   44.8998 H   0  0  0  0  0  0  0  0  0  0  0  0
   57.3800   31.8976   46.6836 H   0  0  0  0  0  0  0  0  0  0  0  0
   59.1708   33.1537   47.9819 H   0  0  0  0  0  0  0  0  0  0  0  0
   59.1151   35.5598   46.7912 H   0  0  0  0  0  0  0  0  0  0  0  0
   60.4259   34.5971   46.1148 H   0  0  0  0  0  0  0  0  0  0  0  0
   58.0496   35.5490   44.7508 H   0  0  0  0  0  0  0  0  0  0  0  0
   59.2854   34.4781   44.0637 H   0  0  0  0  0  0  0  0  0  0  0  0
  1  2  1  0
  2  3  1  0
  3  4  1  0
  4  5  1  0
  5  6  2  0
  5  7  1  0
  7  8  1  0
  8  9  1  0
  9 10  2  0
 10 11  1  0
 11 12  1  0
 12  8  1  0
  1 13  1  0
  1 14  1  0
  1 15  1  0
  2 16  1  0
  2 17  1  0
  3 18  1  0
  3 19  1  0
  4 20  1  0
  7 21  1  0
  7 22  1  0
  8 23  1  1
  9 24  1  0
 10 25  1  0
 11 26  1  0
 11 27  1  0
 12 28  1  0
 12 29  1  0
M  END
>  <UniqueID>  (34) 
34

>  <SMILES>  (34) 
CCCNC(=O)C[C@H]1C=CCC1

>  <Energy>  (34) 
20.220121057656723

>  <Genealogy>  (34) 
CCCNC(=O)C[C@H]1C=CCC1 (chirality)
CCCNC(=O)C[C@H]1C=CCC1 (3D coordinates assigned)
CCCNC(=O)C[C@H]1C=CCC1 (nonaromatic ring conformer: 20.220121057656723 kcal/mol)

>  <smiles>  (34) 
CCCNC(=O)CC1C=CCC1

>  <score_type>  (34) 
oracle

>  <origin>  (34) 
adg

>  <m_score__min__energy>  (34) 
-5.8600000000000003

>  <m_primary>  (34) 
energy

$$$$
34:0
     RDKit          3D

 66 68  0  0  0  0  0  0  0  0999 V2000
   56.3000   29.7810   43.6900 C   0  0  0  0  0  0  0  0  0  0  0  0
   57.2910   28.9390   44.5160 C   0  0  0  0  0  0  0  0  0  0  0  0
   58.5330   29.6620   44.9480 N   0  0  0  0  0  0  0  0  0  0  0  0
   59.7270   28.8880   44.5110 C   0  0  0  0  0  0  0  0  0  0  0  0
   58.5300   30.9720   44.2470 C   0  0  0  0  0  0  0  0  0  0  0  0
   58.5070   29.8450   46.4400 C   0  0  0  0  0  0  0  0  0  0  0  0
   59.7840   29.4690   47.2400 C   0  0  0  0  0  0  0  0  0  0  0  0
   59.5320   28.5970   48.4790 C   0  0  0  0  0  0  0  0  0  0  0  0
   60.6560   28.7710   49.5210 C   0  0  0  0  0  0  0  0  0  0  0  0
   60.4480   29.9580   50.3850 N   0  0  2  0  0  0  0  0  0  0  0  0
   61.4460   30.0450   51.4760 C   0  0  0  0  0  0  0  0  0  0  0  0
   59.0460   30.0730   50.8780 C   0  0  0  0  0  0  0  0  0  0  0  0
   58.5900   31.4720   51.3610 C   0  0  0  0  0  0  0  0  0  0  0  0
   59.1600   32.6380   50.5510 C   0  0  0  0  0  0  0  0  0  0  0  0
   59.1790   32.2760   49.1390 N   0  0  0  0  0  0  0  0  0  0  0  0
   59.8720   32.7170   48.1160 C   0  0  0  0  0  0  0  0  0  0  0  0
   59.1250   33.2170   47.0170 C   0  0  0  0  0  0  0  0  0  0  0  0
   57.7190   33.0800   46.9430 C   0  0  0  0  0  0  0  0  0  0  0  0
   57.0070   33.6140   45.8660 C   0  0  0  0  0  0  0  0  0  0  0  0
   57.6760   34.2960   44.8500 C   0  0  0  0  0  0  0  0  0  0  0  0
   59.0620   34.4440   44.9060 C   0  0  0  0  0  0  0  0  0  0  0  0
   59.7860   33.9110   45.9780 C   0  0  0  0  0  0  0  0  0  0  0  0
   61.1260   34.0820   46.0210 N   0  0  0  0  0  0  0  0  0  0  0  0
   61.8940   33.5690   47.0120 C   0  0  0  0  0  0  0  0  0  0  0  0
   63.2770   33.7700   46.9520 C   0  0  0  0  0  0  0  0  0  0  0  0
   64.1140   33.1960   47.9040 C   0  0  0  0  0  0  0  0  0  0  0  0
   63.5750   32.3890   48.9010 C   0  0  0  0  0  0  0  0  0  0  0  0
   62.1950   32.1840   48.9770 C   0  0  0  0  0  0  0  0  0  0  0  0
   61.3070   32.8210   48.0730 C   0  0  0  0  0  0  0  0  0  0  0  0
   55.6404   30.3414   44.3688 H   0  0  0  0  0  0  0  0  0  0  0  0
   56.8576   30.4858   43.0557 H   0  0  0  0  0  0  0  0  0  0  0  0
   55.6945   29.1169   43.0557 H   0  0  0  0  0  0  0  0  0  0  0  0
   56.7699   28.5872   45.4186 H   0  0  0  0  0  0  0  0  0  0  0  0
   57.6241   28.1234   43.8573 H   0  0  0  0  0  0  0  0  0  0  0  0
   60.2766   28.5317   45.3947 H   0  0  0  0  0  0  0  0  0  0  0  0
   59.4048   28.0265   43.9077 H   0  0  0  0  0  0  0  0  0  0  0  0
   60.3819   29.5338   43.9077 H   0  0  0  0  0  0  0  0  0  0  0  0
   58.5281   31.7846   44.9884 H   0  0  0  0  0  0  0  0  0  0  0  0
   59.4280   31.0527   43.6168 H   0  0  0  0  0  0  0  0  0  0  0  0
   57.6317   31.0486   43.6168 H   0  0  0  0  0  0  0  0  0  0  0  0
   58.2982   30.9070   46.6363 H   0  0  0  0  0  0  0  0  0  0  0  0
   57.7423   29.1368   46.7918 H   0  0  0  0  0  0  0  0  0  0  0  0
   60.4607   28.9214   46.5675 H   0  0  0  0  0  0  0  0  0  0  0  0
   60.2101   30.4144   47.6071 H   0  0  0  0  0  0  0  0  0  0  0  0
   58.5733   28.8875   48.9334 H   0  0  0  0  0  0  0  0  0  0  0  0
   59.5084   27.5432   48.1645 H   0  0  0  0  0  0  0  0  0  0  0  0
   60.6907   27.8736   50.1562 H   0  0  0  0  0  0  0  0  0  0  0  0
   61.5998   28.9154   48.9748 H   0  0  0  0  0  0  0  0  0  0  0  0
   60.5960   30.8080   49.7880 H   0  0  0  0  0  0  0  0  0  0  0  0
   60.9320   30.0002   52.4475 H   0  0  0  0  0  0  0  0  0  0  0  0
   62.1516   29.2050   51.3954 H   0  0  0  0  0  0  0  0  0  0  0  0
   61.9956   30.9945   51.3954 H   0  0  0  0  0  0  0  0  0  0  0  0
   58.3786   29.7699   50.0578 H   0  0  0  0  0  0  0  0  0  0  0  0
   59.0001   29.4307   51.7698 H   0  0  0  0  0  0  0  0  0  0  0  0
   57.4925   31.5156   51.3010 H   0  0  0  0  0  0  0  0  0  0  0  0
   58.9688   31.5883   52.3872 H   0  0  0  0  0  0  0  0  0  0  0  0
   58.5301   33.5283   50.6942 H   0  0  0  0  0  0  0  0  0  0  0  0
   60.1829   32.8587   50.8900 H   0  0  0  0  0  0  0  0  0  0  0  0
   57.1809   32.5478   47.7413 H   0  0  0  0  0  0  0  0  0  0  0  0
   55.9143   33.4960   45.8192 H   0  0  0  0  0  0  0  0  0  0  0  0
   57.1112   34.7169   44.0051 H   0  0  0  0  0  0  0  0  0  0  0  0
   59.5880   34.9822   44.1037 H   0  0  0  0  0  0  0  0  0  0  0  0
   63.7055   34.3856   46.1474 H   0  0  0  0  0  0  0  0  0  0  0  0
   65.1980   33.3796   47.8684 H   0  0  0  0  0  0  0  0  0  0  0  0
   64.2398   31.9091   49.6343 H   0  0  0  0  0  0  0  0  0  0  0  0
   61.7900   31.5165   49.7519 H   0  0  0  0  0  0  0  0  0  0  0  0
  1  2  1  0
  2  3  1  0
  3  4  1  0
  3  5  1  0
  3  6  1  0
  6  7  1  0
  7  8  1  0
  8  9  1  0
  9 10  1  0
 10 11  1  0
 10 12  1  0
 12 13  1  0
 13 14  1  0
 14 15  1  0
 15 16  2  3
 16 17  1  0
 17 18  2  0
 18 19  1  0
 19 20  2  0
 20 21  1  0
 21 22  2  0
 22 23  1  0
 23 24  1  0
 24 25  2  0
 25 26  1  0
 26 27  2  0
 27 28  1  0
 28 29  2  0
 29 16  1  0
 22 17  1  0
 29 24  1  0
  1 30  1  0
  1 31  1  0
  1 32  1  0
  2 33  1  0
  2 34  1  0
  4 35  1  0
  4 36  1  0
  4 37  1  0
  5 38  1  0
  5 39  1  0
  5 40  1  0
  6 41  1  0
  6 42  1  0
  7 43  1  0
  7 44  1  0
  8 45  1  0
  8 46  1  0
  9 47  1  0
  9 48  1  0
 10 49  1  6
 11 50  1  0
 11 51  1  0
 11 52  1  0
 12 53  1  0
 12 54  1  0
 13 55  1  0
 13 56  1  0
 14 57  1  0
 14 58  1  0
 18 59  1  0
 19 60  1  0
 20 61  1  0
 21 62  1  0
 25 63  1  0
 26 64  1  0
 27 65  1  0
 28 66  1  0
M  CHG  3   3   1  10   1  23  -1
M  END
>  <UniqueID>  (35) 
35

>  <SMILES>  (35) 
CC[N+](C)(C)CCCC[N@H+](C)CCCN=c1c2ccccc2[n-]c2ccccc12

>  <Energy>  (35) 
105.38265676782245

>  <Genealogy>  (35) 
CC[N+](C)(C)CCCC[NH+](C)CCCN=c1c2ccccc2[n-]c2ccccc12 (protonated)
CC[N+](C)(C)CCCC[N@H+](C)CCCN=c1c2ccccc2[n-]c2ccccc12 (chirality)
CC[N+](C)(C)CCCC[N@H+](C)CCCN=c1c2ccccc2[n-]c2ccccc12 (3D coordinates assigned)
CC[N+](C)(C)CCCC[N@H+](C)CCCN=c1c2ccccc2[n-]c2ccccc12 (optimized conformer: 105.38265676782245 kcal/mol)

>  <smiles>  (35) 
CC[N+](C)(C)CCCCN(C)CCCN=c1c2ccccc2[nH]c2ccccc12

>  <score_type>  (35) 
oracle

>  <origin>  (35) 
adg

>  <m_score__min__energy>  (35) 
-5.7400000000000002

>  <m_primary>  (35) 
energy

$$$$
35:0
     RDKit          3D

 40 43  0  0  0  0  0  0  0  0999 V2000
   58.2300   30.1250   49.9430 F   0  0  0  0  0  0  0  0  0  0  0  0
   58.2990   31.2880   50.6400 C   0  0  0  0  0  0  0  0  0  0  0  0
   59.0800   32.3320   50.1320 C   0  0  0  0  0  0  0  0  0  0  0  0
   59.2210   33.5200   50.8530 C   0  0  0  0  0  0  0  0  0  0  0  0
   58.5880   33.6660   52.0890 C   0  0  0  0  0  0  0  0  0  0  0  0
   57.8070   32.6270   52.6030 C   0  0  0  0  0  0  0  0  0  0  0  0
   57.6430   31.4320   51.8790 C   0  0  0  0  0  0  0  0  0  0  0  0
   56.8100   30.3460   52.4440 C   0  0  0  0  0  0  0  0  0  0  0  0
   55.5140   30.2320   52.0530 N   0  0  0  0  0  0  0  0  0  0  0  0
   54.7080   29.2520   52.5330 C   0  0  0  0  0  0  0  0  0  0  0  0
   53.3500   29.1840   52.0770 N   0  0  0  0  0  0  0  0  0  0  0  0
   52.6100   30.2050   51.7430 C   0  0  0  0  0  0  0  0  0  0  0  0
   52.2430   31.2080   52.6630 C   0  0  0  0  0  0  0  0  0  0  0  0
   51.4480   32.2750   52.2380 C   0  0  0  0  0  0  0  0  0  0  0  0
   51.0270   32.3410   50.9470 N   0  0  0  0  0  0  0  0  0  0  0  0
   51.3610   31.3860   50.0400 C   0  0  0  0  0  0  0  0  0  0  0  0
   52.1550   30.3020   50.4220 C   0  0  0  0  0  0  0  0  0  0  0  0
   55.2060   28.3410   53.4800 C   0  0  0  0  0  0  0  0  0  0  0  0
   56.5630   28.4410   53.8410 C   0  0  0  0  0  0  0  0  0  0  0  0
   57.3300   29.4420   53.3230 N   0  0  0  0  0  0  0  0  0  0  0  0
   57.1620   27.5020   54.8570 C   0  0  0  0  0  0  0  0  0  0  0  0
   56.2890   26.2640   55.0730 C   0  0  0  0  0  0  0  0  0  0  0  0
   54.8950   26.6730   55.2710 N   0  0  0  0  0  0  0  0  0  0  0  0
   54.3440   27.2230   54.0250 C   0  0  0  0  0  0  0  0  0  0  0  0
   59.5847   32.2167   49.1614 H   0  0  0  0  0  0  0  0  0  0  0  0
   59.8308   34.3406   50.4471 H   0  0  0  0  0  0  0  0  0  0  0  0
   58.7041   34.5997   52.6588 H   0  0  0  0  0  0  0  0  0  0  0  0
   57.3170   32.7446   53.5808 H   0  0  0  0  0  0  0  0  0  0  0  0
   52.5804   31.1508   53.7084 H   0  0  0  0  0  0  0  0  0  0  0  0
   51.1619   33.0636   52.9495 H   0  0  0  0  0  0  0  0  0  0  0  0
   51.0052   31.4667   49.0022 H   0  0  0  0  0  0  0  0  0  0  0  0
   52.4219   29.5274   49.6880 H   0  0  0  0  0  0  0  0  0  0  0  0
   58.3380   29.4970   53.5920 H   0  0  0  0  0  0  0  0  0  0  0  0
   58.1532   27.1812   54.5040 H   0  0  0  0  0  0  0  0  0  0  0  0
   57.2369   28.0381   55.8146 H   0  0  0  0  0  0  0  0  0  0  0  0
   56.3568   25.6100   54.1912 H   0  0  0  0  0  0  0  0  0  0  0  0
   56.6399   25.7205   55.9627 H   0  0  0  0  0  0  0  0  0  0  0  0
   54.3420   25.8170   55.5130 H   0  0  0  0  0  0  0  0  0  0  0  0
   54.2853   26.4199   53.2756 H   0  0  0  0  0  0  0  0  0  0  0  0
   53.3462   27.6324   54.2414 H   0  0  0  0  0  0  0  0  0  0  0  0
  1  2  1  0
  2  3  2  0
  3  4  1  0
  4  5  2  0
  5  6  1  0
  6  7  2  0
  7  8  1  0
  8  9  2  0
  9 10  1  0
 10 11  1  0
 11 12  2  3
 12 13  1  0
 13 14  2  0
 14 15  1  0
 15 16  1  0
 16 17  2  0
 10 18  2  0
 18 19  1  0
 19 20  2  0
 19 21  1  0
 21 22  1  0
 22 23  1  0
 23 24  1  0
  7  2  1  0
 20  8  1  0
 17 12  1  0
 24 18  1  0
  3 25  1  0
  4 26  1  0
  5 27  1  0
  6 28  1  0
 13 29  1  0
 14 30  1  0
 16 31  1  0
 17 32  1  0
 20 33  1  0
 21 34  1  0
 21 35  1  0
 22 36  1  0
 22 37  1  0
 23 38  1  0
 24 39  1  0
 24 40  1  0
M  CHG  2  15  -1  20   1
M  END
>  <UniqueID>  (36) 
36

>  <SMILES>  (36) 
Fc1ccccc1-c1nc(N=c2cc[n-]cc2)c2c([nH+]1)CCNC2

>  <Energy>  (36) 
62.10087586500848

>  <Genealogy>  (36) 
Fc1ccccc1-c1nc(N=c2cc[n-]cc2)c2c([nH+]1)CCNC2 (protonated)
Fc1ccccc1-c1nc(N=c2cc[n-]cc2)c2c([nH+]1)CCNC2 (3D coordinates assigned)
Fc1ccccc1-c1nc(N=c2cc[n-]cc2)c2c([nH+]1)CCNC2 (nonaromatic ring conformer: 62.10087586500848 kcal/mol)

>  <smiles>  (36) 
Fc1ccccc1-c1nc2c(c(N=c3cc[nH]cc3)n1)CNCC2

>  <score_type>  (36) 
oracle

>  <origin>  (36) 
adg

>  <m_score__min__energy>  (36) 
-8.2599999999999998

>  <m_primary>  (36) 
energy

$$$$
36:0
     RDKit          3D

 63 66  0  0  0  0  0  0  0  0999 V2000
   60.7690   26.5270   50.2080 C   0  0  0  0  0  0  0  0  0  0  0  0
   60.4820   27.9910   49.8000 C   0  0  1  0  0  0  0  0  0  0  0  0
   61.4460   28.9460   50.5630 C   0  0  0  0  0  0  0  0  0  0  0  0
   60.9500   30.3990   50.6140 C   0  0  0  0  0  0  0  0  0  0  0  0
   59.4800   30.4200   50.6220 N   0  0  0  0  0  0  0  0  0  0  0  0
   58.9680   31.7590   50.9440 C   0  0  0  0  0  0  0  0  0  0  0  0
   59.0600   32.6570   49.7440 C   0  0  0  0  0  0  0  0  0  0  0  0
   59.8530   33.8120   49.7790 C   0  0  0  0  0  0  0  0  0  0  0  0
   59.9520   34.6090   48.6360 C   0  0  0  0  0  0  0  0  0  0  0  0
   59.2630   34.2490   47.4760 C   0  0  0  0  0  0  0  0  0  0  0  0
   58.5160   33.0600   47.4620 C   0  0  0  0  0  0  0  0  0  0  0  0
   58.4290   32.3050   48.5910 N   0  0  0  0  0  0  0  0  0  0  0  0
   57.9300   32.5800   46.2450 N   0  0  0  0  0  0  0  0  0  0  0  0
   58.4140   33.0020   44.9620 C   0  0  0  0  0  0  0  0  0  0  0  0
   57.9100   32.5170   43.9140 O   0  0  0  0  0  0  0  0  0  0  0  0
   59.5560   33.9700   44.8620 C   0  0  0  0  0  0  0  0  0  0  0  0
   59.2910   35.3310   46.0390 S   0  0  0  0  0  0  0  0  0  0  0  0
   60.5600   28.1440   48.2390 C   0  0  1  0  0  0  0  0  0  0  0  0
   60.3370   26.7640   47.5220 C   0  0  0  0  0  0  0  0  0  0  0  0
   59.0090   26.6340   46.7570 C   0  0  0  0  0  0  0  0  0  0  0  0
   58.9920   27.5330   45.4940 C   0  0  1  0  0  0  0  0  0  0  0  0
   57.6960   27.5430   44.7650 N   0  0  0  0  0  0  0  0  0  0  0  0
   57.7720   27.9210   43.3440 C   0  0  0  0  0  0  0  0  0  0  0  0
   57.1660   29.3030   43.2050 C   0  0  0  0  0  0  0  0  0  0  0  0
   56.1670   29.3880   44.3430 C   0  0  2  0  0  0  0  0  0  0  0  0
   56.0990   30.6890   44.8630 O   0  0  0  0  0  0  0  0  0  0  0  0
   56.6820   28.4090   45.3950 C   0  0  0  0  0  0  0  0  0  0  0  0
   59.5000   29.1990   45.9190 S   0  0  0  0  0  0  0  0  0  0  0  0
   58.4990   30.2160   45.4440 O   0  0  0  0  0  0  0  0  0  0  0  0
   60.8380   29.4950   45.3010 O   0  0  0  0  0  0  0  0  0  0  0  0
   59.6350   29.2670   47.6930 C   0  0  0  0  0  0  0  0  0  0  0  0
   60.7844   26.4484   51.3051 H   0  0  0  0  0  0  0  0  0  0  0  0
   59.9820   25.8729   49.8045 H   0  0  0  0  0  0  0  0  0  0  0  0
   61.7447   26.2185   49.8045 H   0  0  0  0  0  0  0  0  0  0  0  0
   59.4585   28.2733   50.0876 H   0  0  0  0  0  0  0  0  0  0  0  0
   61.5570   28.5789   51.5940 H   0  0  0  0  0  0  0  0  0  0  0  0
   62.4012   28.9475   50.0176 H   0  0  0  0  0  0  0  0  0  0  0  0
   61.3277   30.8826   51.5269 H   0  0  0  0  0  0  0  0  0  0  0  0
   61.3176   30.9410   49.7302 H   0  0  0  0  0  0  0  0  0  0  0  0
   59.1540   30.1800   49.6570 H   0  0  0  0  0  0  0  0  0  0  0  0
   57.9166   31.6793   51.2574 H   0  0  0  0  0  0  0  0  0  0  0  0
   59.5733   32.1865   51.7569 H   0  0  0  0  0  0  0  0  0  0  0  0
   60.3920   34.0882   50.6972 H   0  0  0  0  0  0  0  0  0  0  0  0
   60.5713   35.5180   48.6497 H   0  0  0  0  0  0  0  0  0  0  0  0
   57.2230   31.8130   46.2910 H   0  0  0  0  0  0  0  0  0  0  0  0
   60.4975   33.4543   45.1018 H   0  0  0  0  0  0  0  0  0  0  0  0
   59.6118   34.3714   43.8394 H   0  0  0  0  0  0  0  0  0  0  0  0
   61.5815   28.4727   47.9972 H   0  0  0  0  0  0  0  0  0  0  0  0
   61.1588   26.6151   46.8061 H   0  0  0  0  0  0  0  0  0  0  0  0
   60.3075   26.0059   48.3185 H   0  0  0  0  0  0  0  0  0  0  0  0
   58.8731   25.5859   46.4519 H   0  0  0  0  0  0  0  0  0  0  0  0
   58.1941   26.9564   47.4218 H   0  0  0  0  0  0  0  0  0  0  0  0
   59.7132   27.0881   44.7926 H   0  0  0  0  0  0  0  0  0  0  0  0
   58.8217   27.9369   43.0156 H   0  0  0  0  0  0  0  0  0  0  0  0
   57.2275   27.1958   42.7215 H   0  0  0  0  0  0  0  0  0  0  0  0
   57.9386   30.0796   43.3054 H   0  0  0  0  0  0  0  0  0  0  0  0
   56.6987   29.4610   42.2218 H   0  0  0  0  0  0  0  0  0  0  0  0
   55.1482   29.1406   44.0102 H   0  0  0  0  0  0  0  0  0  0  0  0
   56.8550   31.1930   44.4640 H   0  0  0  0  0  0  0  0  0  0  0  0
   57.1341   28.9642   46.2301 H   0  0  0  0  0  0  0  0  0  0  0  0
   55.8527   27.8001   45.7841 H   0  0  0  0  0  0  0  0  0  0  0  0
   60.0500   30.2437   47.9824 H   0  0  0  0  0  0  0  0  0  0  0  0
   58.6315   29.1248   48.1204 H   0  0  0  0  0  0  0  0  0  0  0  0
  1  2  1  0
  2  3  1  0
  3  4  1  0
  4  5  1  0
  5  6  1  0
  6  7  1  0
  7  8  2  0
  8  9  1  0
  9 10  2  0
 10 11  1  0
 11 12  2  0
 11 13  1  0
 13 14  1  0
 14 15  2  0
 14 16  1  0
 16 17  1  0
  2 18  1  0
 18 19  1  0
 19 20  1  0
 20 21  1  0
 21 22  1  0
 22 23  1  0
 23 24  1  0
 24 25  1  0
 25 26  1  0
 25 27  1  0
 21 28  1  0
 28 29  2  0
 28 30  2  0
 28 31  1  0
 12  7  1  0
 31 18  1  0
 17 10  1  0
 27 22  1  0
  1 32  1  0
  1 33  1  0
  1 34  1  0
  2 35  1  1
  3 36  1  0
  3 37  1  0
  4 38  1  0
  4 39  1  0
  5 40  1  0
  6 41  1  0
  6 42  1  0
  8 43  1  0
  9 44  1  0
 13 45  1  0
 16 46  1  0
 16 47  1  0
 18 48  1  1
 19 49  1  0
 19 50  1  0
 20 51  1  0
 20 52  1  0
 21 53  1  6
 23 54  1  0
 23 55  1  0
 24 56  1  0
 24 57  1  0
 25 58  1  6
 26 59  1  0
 27 60  1  0
 27 61  1  0
 31 62  1  0
 31 63  1  0
M  END
>  <UniqueID>  (37) 
37

>  <SMILES>  (37) 
C[C@@H](CCNCc1ccc2c(n1)NC(=O)CS2)[C@H]1CCC(N2CCC(O)C2)S(=O)(=O)C1

>  <Energy>  (37) 
73.70235634437937

>  <Genealogy>  (37) 
C[C@@H](CCNCc1ccc2c(n1)NC(=O)CS2)[C@H]1CCC(N2CCC(O)C2)S(=O)(=O)C1 (chirality)
C[C@@H](CCNCc1ccc2c(n1)NC(=O)CS2)[C@H]1CCC(N2CCC(O)C2)S(=O)(=O)C1 (3D coordinates assigned)
C[C@@H](CCNCc1ccc2c(n1)NC(=O)CS2)[C@H]1CCC(N2CCC(O)C2)S(=O)(=O)C1 (nonaromatic ring conformer: 73.70235634437937 kcal/mol)

>  <smiles>  (37) 
CC(CCNCc1ccc2c(n1)NC(=O)CS2)C1CCC(N2CCC(O)C2)S(=O)(=O)C1

>  <score_type>  (37) 
oracle

>  <origin>  (37) 
adg

>  <m_score__min__energy>  (37) 
-10.289999999999999

>  <m_primary>  (37) 
energy

$$$$
37:0
     RDKit          3D

 44 46  0  0  0  0  0  0  0  0999 V2000
   59.6693   35.0593   49.1873 H   0  0  0  0  0  0  0  0  0  0  0  0
   60.2130   34.5730   48.3640 C   0  0  0  0  0  0  0  0  0  0  0  0
   59.5690   34.4200   47.1960 C   0  0  0  0  0  0  0  0  0  0  0  0
   58.4810   33.5040   46.8880 C   0  0  0  0  0  0  0  0  0  0  0  0
   57.9140   32.7280   47.7040 O   0  0  0  0  0  0  0  0  0  0  0  0
   58.0880   33.6760   45.5050 C   0  0  0  0  0  0  0  0  0  0  0  0
   57.2120   32.8820   44.8710 C   0  0  0  0  0  0  0  0  0  0  0  0
   56.2885   33.3354   44.4817 H   0  0  0  0  0  0  0  0  0  0  0  0
   57.4170   31.4340   44.6660 C   0  0  0  0  0  0  0  0  0  0  0  0
   58.5580   30.7810   45.1530 C   0  0  0  0  0  0  0  0  0  0  0  0
   59.3126   31.3478   45.7181 H   0  0  0  0  0  0  0  0  0  0  0  0
   58.7430   29.4140   44.9250 C   0  0  0  0  0  0  0  0  0  0  0  0
   59.6366   28.9124   45.3249 H   0  0  0  0  0  0  0  0  0  0  0  0
   57.7970   28.6700   44.1880 C   0  0  0  0  0  0  0  0  0  0  0  0
   57.9860   27.2490   43.9540 N   0  0  0  0  0  0  0  0  0  0  0  0
   58.0180   26.3040   45.0770 C   0  0  0  0  0  0  0  0  0  0  0  0
   57.9991   26.8609   46.0254 H   0  0  0  0  0  0  0  0  0  0  0  0
   57.1418   25.6411   45.0235 H   0  0  0  0  0  0  0  0  0  0  0  0
   58.9370   25.7019   45.0235 H   0  0  0  0  0  0  0  0  0  0  0  0
   58.1450   26.7340   42.5870 C   0  0  0  0  0  0  0  0  0  0  0  0
   58.4693   25.6836   42.6263 H   0  0  0  0  0  0  0  0  0  0  0  0
   57.1842   26.8015   42.0557 H   0  0  0  0  0  0  0  0  0  0  0  0
   58.9005   27.3314   42.0557 H   0  0  0  0  0  0  0  0  0  0  0  0
   56.6690   29.3460   43.6780 C   0  0  0  0  0  0  0  0  0  0  0  0
   55.9220   28.7902   43.0922 H   0  0  0  0  0  0  0  0  0  0  0  0
   56.4880   30.7120   43.9070 C   0  0  0  0  0  0  0  0  0  0  0  0
   55.6093   31.2242   43.4880 H   0  0  0  0  0  0  0  0  0  0  0  0
   58.8990   34.7790   44.8870 C   0  0  0  0  0  0  0  0  0  0  0  0
   59.4639   34.4007   44.0223 H   0  0  0  0  0  0  0  0  0  0  0  0
   58.2593   35.5968   44.5237 H   0  0  0  0  0  0  0  0  0  0  0  0
   59.8650   35.2610   45.9910 C   0  0  0  0  0  0  0  0  0  0  0  0
   60.9088   35.1200   45.6737 H   0  0  0  0  0  0  0  0  0  0  0  0
   59.7305   36.3317   46.2044 H   0  0  0  0  0  0  0  0  0  0  0  0
   61.5990   34.1350   48.6220 C   0  0  0  0  0  0  0  0  0  0  0  0
   62.1580   34.2150   49.9090 C   0  0  0  0  0  0  0  0  0  0  0  0
   61.5731   34.6469   50.7345 H   0  0  0  0  0  0  0  0  0  0  0  0
   63.4540   33.7480   50.1440 C   0  0  0  0  0  0  0  0  0  0  0  0
   63.8930   33.8274   51.1495 H   0  0  0  0  0  0  0  0  0  0  0  0
   64.1930   33.1800   49.1020 C   0  0  0  0  0  0  0  0  0  0  0  0
   65.4510   32.7260   49.3310 F   0  0  0  0  0  0  0  0  0  0  0  0
   63.6320   33.0700   47.8270 C   0  0  0  0  0  0  0  0  0  0  0  0
   64.2113   32.6163   47.0093 H   0  0  0  0  0  0  0  0  0  0  0  0
   62.3350   33.5360   47.5890 C   0  0  0  0  0  0  0  0  0  0  0  0
   61.8905   33.4324   46.5882 H   0  0  0  0  0  0  0  0  0  0  0  0
  1  2  1  0
  2  3  2  3
  3  4  1  0
  4  5  2  0
  4  6  1  0
  6  7  2  0
  7  8  1  0
  7  9  1  0
  9 10  2  0
 10 11  1  0
 10 12  1  0
 12 13  1  0
 12 14  2  0
 14 15  1  0
 15 16  1  0
 16 17  1  0
 16 18  1  0
 16 19  1  0
 15 20  1  0
 20 21  1  0
 20 22  1  0
 20 23  1  0
 14 24  1  0
 24 25  1  0
 24 26  2  0
 26 27  1  0
  6 28  1  0
 28 29  1  0
 28 30  1  0
 28 31  1  0
 31 32  1  0
 31 33  1  0
  2 34  1  0
 34 35  2  0
 35 36  1  0
 35 37  1  0
 37 38  1  0
 37 39  2  0
 39 40  1  0
 39 41  1  0
 41 42  1  0
 41 43  2  0
 43 44  1  0
 31  3  1  0
 43 34  1  0
 26  9  1  0
M  END
>  <UniqueID>  (38) 
38

>  <SMILES>  (38) 
CN(C)c1ccc(/C=C2\CCC(=Cc3ccc(F)cc3)C2=O)cc1

>  <Energy>  (38) 
70.38608376116588

>  <Genealogy>  (38) 
CN(C)c1ccc(/C=C2\CCC(=Cc3ccc(F)cc3)C2=O)cc1 (cis-trans isomerization)
CN(C)c1ccc(/C=C2\CCC(=Cc3ccc(F)cc3)C2=O)cc1 (3D coordinates assigned)
CN(C)c1ccc(/C=C2\CCC(=Cc3ccc(F)cc3)C2=O)cc1 (nonaromatic ring conformer: 70.38608376116588 kcal/mol)

>  <smiles>  (38) 
CN(C)c1ccc(C=C2CCC(=Cc3ccc(F)cc3)C2=O)cc1

>  <score_type>  (38) 
oracle

>  <origin>  (38) 
adg

>  <m_score__min__energy>  (38) 
-8.7899999999999991

>  <m_primary>  (38) 
energy

$$$$
38:0
     RDKit          3D

 34 35  0  0  0  0  0  0  0  0999 V2000
   56.7590   26.5140   45.6320 C   0  0  0  0  0  0  0  0  0  0  0  0
   56.0650   27.7570   45.6210 O   0  0  0  0  0  0  0  0  0  0  0  0
   56.6050   28.9660   45.1510 C   0  0  0  0  0  0  0  0  0  0  0  0
   56.0420   29.6580   44.0620 C   0  0  0  0  0  0  0  0  0  0  0  0
   56.6050   30.8550   43.6150 C   0  0  0  0  0  0  0  0  0  0  0  0
   57.7500   31.3790   44.2320 C   0  0  0  0  0  0  0  0  0  0  0  0
   58.3680   32.6730   43.7330 C   0  0  0  0  0  0  0  0  0  0  0  0
   57.9860   33.8820   44.5080 N   0  0  0  0  0  0  0  0  0  0  0  0
   59.1220   34.5750   45.1290 C   0  0  0  0  0  0  0  0  0  0  0  0
   59.1520   34.1950   46.6030 C   0  0  0  0  0  0  0  0  0  0  0  0
   57.7940   33.5830   46.9000 C   0  0  0  0  0  0  0  0  0  0  0  0
   57.0250   33.6220   45.5850 C   0  0  0  0  0  0  0  0  0  0  0  0
   58.2950   30.7080   45.3390 C   0  0  0  0  0  0  0  0  0  0  0  0
   57.7390   29.5000   45.7910 C   0  0  0  0  0  0  0  0  0  0  0  0
   58.3450   28.7870   46.9680 C   0  0  0  0  0  0  0  0  0  0  0  0
   56.9338   26.2009   46.6719 H   0  0  0  0  0  0  0  0  0  0  0  0
   56.1555   25.7525   45.1163 H   0  0  0  0  0  0  0  0  0  0  0  0
   57.7239   26.6282   45.1163 H   0  0  0  0  0  0  0  0  0  0  0  0
   55.1516   29.2525   43.5593 H   0  0  0  0  0  0  0  0  0  0  0  0
   56.1463   31.3917   42.7714 H   0  0  0  0  0  0  0  0  0  0  0  0
   59.4622   32.5694   43.7766 H   0  0  0  0  0  0  0  0  0  0  0  0
   57.9885   32.8254   42.7118 H   0  0  0  0  0  0  0  0  0  0  0  0
   60.0594   34.2653   44.6439 H   0  0  0  0  0  0  0  0  0  0  0  0
   59.0153   35.6639   45.0158 H   0  0  0  0  0  0  0  0  0  0  0  0
   59.9516   33.4642   46.7940 H   0  0  0  0  0  0  0  0  0  0  0  0
   59.3514   35.0677   47.2422 H   0  0  0  0  0  0  0  0  0  0  0  0
   57.9089   32.5452   47.2460 H   0  0  0  0  0  0  0  0  0  0  0  0
   57.2670   34.1325   47.6939 H   0  0  0  0  0  0  0  0  0  0  0  0
   56.5257   32.6566   45.4153 H   0  0  0  0  0  0  0  0  0  0  0  0
   56.2583   34.4103   45.6128 H   0  0  0  0  0  0  0  0  0  0  0  0
   59.1669   31.1332   45.8577 H   0  0  0  0  0  0  0  0  0  0  0  0
   57.9670   29.2317   47.9004 H   0  0  0  0  0  0  0  0  0  0  0  0
   58.0713   27.7222   46.9323 H   0  0  0  0  0  0  0  0  0  0  0  0
   59.4400   28.8855   46.9323 H   0  0  0  0  0  0  0  0  0  0  0  0
  1  2  1  0
  2  3  1  0
  3  4  2  0
  4  5  1  0
  5  6  2  0
  6  7  1  0
  7  8  1  0
  8  9  1  0
  9 10  1  0
 10 11  1  0
 11 12  1  0
  6 13  1  0
 13 14  2  0
 14 15  1  0
 14  3  1  0
 12  8  1  0
  1 16  1  0
  1 17  1  0
  1 18  1  0
  4 19  1  0
  5 20  1  0
  7 21  1  0
  7 22  1  0
  9 23  1  0
  9 24  1  0
 10 25  1  0
 10 26  1  0
 11 27  1  0
 11 28  1  0
 12 29  1  0
 12 30  1  0
 13 31  1  0
 15 32  1  0
 15 33  1  0
 15 34  1  0
M  END
>  <UniqueID>  (39) 
39

>  <SMILES>  (39) 
COc1ccc(CN2CCCC2)cc1C

>  <Energy>  (39) 
37.22979782029068

>  <Genealogy>  (39) 
COc1ccc(CN2CCCC2)cc1C (3D coordinates assigned)
COc1ccc(CN2CCCC2)cc1C (nonaromatic ring conformer: 37.22979782029068 kcal/mol)

>  <smiles>  (39) 
COc1ccc(CN2CCCC2)cc1C

>  <score_type>  (39) 
oracle

>  <origin>  (39) 
adg

>  <m_score__min__energy>  (39) 
-6.2300000000000004

>  <m_primary>  (39) 
energy

$$$$
39:0
     RDKit          3D

 37 39  0  0  0  0  0  0  0  0999 V2000
   62.2200   29.5350   51.3550 C   0  0  0  0  0  0  0  0  0  0  0  0
   63.4050   30.3950   51.2460 N   0  0  0  0  0  0  0  0  0  0  0  0
   64.4780   30.2530   52.2370 C   0  0  0  0  0  0  0  0  0  0  0  0
   63.5140   31.3670   50.1750 C   0  0  0  0  0  0  0  0  0  0  0  0
   64.6870   32.1320   50.0110 C   0  0  0  0  0  0  0  0  0  0  0  0
   64.7890   33.0660   48.9790 C   0  0  0  0  0  0  0  0  0  0  0  0
   63.7300   33.2550   48.0920 C   0  0  0  0  0  0  0  0  0  0  0  0
   62.5490   32.5090   48.2270 C   0  0  0  0  0  0  0  0  0  0  0  0
   61.4230   32.7120   47.2810 C   0  0  0  0  0  0  0  0  0  0  0  0
   61.2390   33.8870   46.5510 C   0  0  0  0  0  0  0  0  0  0  0  0
   59.8600   33.7000   45.6100 S   0  0  0  0  0  0  0  0  0  0  0  0
   59.5370   32.1390   46.1550 C   0  0  0  0  0  0  0  0  0  0  0  0
   58.3880   31.3050   45.7250 C   0  0  0  0  0  0  0  0  0  0  0  0
   57.4100   31.8340   44.8600 C   0  0  0  0  0  0  0  0  0  0  0  0
   56.3270   31.0520   44.4500 C   0  0  0  0  0  0  0  0  0  0  0  0
   56.2060   29.7330   44.8930 C   0  0  0  0  0  0  0  0  0  0  0  0
   55.1280   28.9570   44.4850 O   0  0  0  0  0  0  0  0  0  0  0  0
   57.1720   29.1930   45.7460 C   0  0  0  0  0  0  0  0  0  0  0  0
   58.2580   29.9710   46.1590 C   0  0  0  0  0  0  0  0  0  0  0  0
   60.4750   31.7550   47.0540 N   0  0  0  0  0  0  0  0  0  0  0  0
   62.4510   31.5690   49.2690 C   0  0  0  0  0  0  0  0  0  0  0  0
   61.9864   29.3655   52.4164 H   0  0  0  0  0  0  0  0  0  0  0  0
   61.3654   30.0245   50.8651 H   0  0  0  0  0  0  0  0  0  0  0  0
   62.4204   28.5707   50.8651 H   0  0  0  0  0  0  0  0  0  0  0  0
   64.0518   30.3094   53.2495 H   0  0  0  0  0  0  0  0  0  0  0  0
   64.9754   29.2812   52.1022 H   0  0  0  0  0  0  0  0  0  0  0  0
   65.2111   31.0620   52.1022 H   0  0  0  0  0  0  0  0  0  0  0  0
   65.5301   31.9913   50.7033 H   0  0  0  0  0  0  0  0  0  0  0  0
   65.7101   33.6564   48.8648 H   0  0  0  0  0  0  0  0  0  0  0  0
   63.8207   33.9932   47.2816 H   0  0  0  0  0  0  0  0  0  0  0  0
   61.8830   34.7781   46.5856 H   0  0  0  0  0  0  0  0  0  0  0  0
   57.4996   32.8711   44.5044 H   0  0  0  0  0  0  0  0  0  0  0  0
   55.5678   31.4763   43.7766 H   0  0  0  0  0  0  0  0  0  0  0  0
   57.0780   28.1535   46.0934 H   0  0  0  0  0  0  0  0  0  0  0  0
   59.0165   29.5382   46.8278 H   0  0  0  0  0  0  0  0  0  0  0  0
   60.4500   30.8440   47.5620 H   0  0  0  0  0  0  0  0  0  0  0  0
   61.5284   30.9803   49.3797 H   0  0  0  0  0  0  0  0  0  0  0  0
  1  2  1  0
  2  3  1  0
  2  4  1  0
  4  5  2  0
  5  6  1  0
  6  7  2  0
  7  8  1  0
  8  9  1  0
  9 10  2  0
 10 11  1  0
 11 12  1  0
 12 13  1  0
 13 14  2  0
 14 15  1  0
 15 16  2  0
 16 17  1  0
 16 18  1  0
 18 19  2  0
 12 20  2  0
  8 21  2  0
 21  4  1  0
 20  9  1  0
 19 13  1  0
  1 22  1  0
  1 23  1  0
  1 24  1  0
  3 25  1  0
  3 26  1  0
  3 27  1  0
  5 28  1  0
  6 29  1  0
  7 30  1  0
 10 31  1  0
 14 32  1  0
 15 33  1  0
 18 34  1  0
 19 35  1  0
 20 36  1  0
 21 37  1  0
M  CHG  2  17  -1  20   1
M  END
>  <UniqueID>  (40) 
40

>  <SMILES>  (40) 
CN(C)c1cccc(-c2csc(-c3ccc([O-])cc3)[nH+]2)c1

>  <Energy>  (40) 
75.92189282818428

>  <Genealogy>  (40) 
CN(C)c1cccc(-c2csc(-c3ccc([O-])cc3)[nH+]2)c1 (protonated)
CN(C)c1cccc(-c2csc(-c3ccc([O-])cc3)[nH+]2)c1 (3D coordinates assigned)
CN(C)c1cccc(-c2csc(-c3ccc([O-])cc3)[nH+]2)c1 (optimized conformer: 75.92189282818428 kcal/mol)

>  <smiles>  (40) 
CN(C)c1cccc(-c2csc(-c3ccc(O)cc3)n2)c1

>  <score_type>  (40) 
oracle

>  <origin>  (40) 
adg

>  <m_score__min__energy>  (40) 
-7.9299999999999997

>  <m_primary>  (40) 
energy

$$$$
40:0
     RDKit          3D

 34 36  0  0  0  0  0  0  0  0999 V2000
   58.7244   33.4911   48.6975 H   0  0  0  0  0  0  0  0  0  0  0  0
   58.7270   33.6430   47.6080 C   0  0  0  0  0  0  0  0  0  0  0  0
   58.1770   32.7060   46.7890 N   0  0  0  0  0  0  0  0  0  0  0  0
   58.1570   32.8440   45.4330 C   0  0  0  0  0  0  0  0  0  0  0  0
   57.5260   31.7770   44.6210 C   0  0  0  0  0  0  0  0  0  0  0  0
   57.0770   30.6570   45.2510 N   0  0  0  0  0  0  0  0  0  0  0  0
   56.5010   29.6320   44.5700 C   0  0  0  0  0  0  0  0  0  0  0  0
   56.0630   28.6000   45.2300 N   0  0  0  0  0  0  0  0  0  0  0  0
   56.8450   27.5010   45.7340 C   0  0  0  0  0  0  0  0  0  0  0  0
   58.2360   27.6130   45.9240 C   0  0  0  0  0  0  0  0  0  0  0  0
   58.7511   28.5475   45.6570 H   0  0  0  0  0  0  0  0  0  0  0  0
   58.9640   26.5450   46.4490 C   0  0  0  0  0  0  0  0  0  0  0  0
   60.0521   26.6354   46.5824 H   0  0  0  0  0  0  0  0  0  0  0  0
   58.3150   25.3630   46.8050 C   0  0  0  0  0  0  0  0  0  0  0  0
   58.8933   24.5182   47.2074 H   0  0  0  0  0  0  0  0  0  0  0  0
   56.9310   25.2510   46.6510 C   0  0  0  0  0  0  0  0  0  0  0  0
   56.4216   24.3210   46.9435 H   0  0  0  0  0  0  0  0  0  0  0  0
   56.1840   26.3230   46.1230 C   0  0  0  0  0  0  0  0  0  0  0  0
   54.7910   26.2500   45.9630 O   0  0  0  0  0  0  0  0  0  0  0  0
   54.0780   25.0660   45.6210 C   0  0  0  0  0  0  0  0  0  0  0  0
   53.7659   24.5477   46.5397 H   0  0  0  0  0  0  0  0  0  0  0  0
   53.1892   25.3311   45.0296 H   0  0  0  0  0  0  0  0  0  0  0  0
   54.7280   24.4045   45.0296 H   0  0  0  0  0  0  0  0  0  0  0  0
   56.3540   29.7230   43.2200 N   0  0  0  0  0  0  0  0  0  0  0  0
   56.7940   30.8120   42.5410 C   0  0  0  0  0  0  0  0  0  0  0  0
   56.6737   30.8638   41.4488 H   0  0  0  0  0  0  0  0  0  0  0  0
   57.3980   31.8650   43.2250 C   0  0  0  0  0  0  0  0  0  0  0  0
   57.7673   32.7478   42.6825 H   0  0  0  0  0  0  0  0  0  0  0  0
   58.7100   34.0060   44.8580 C   0  0  0  0  0  0  0  0  0  0  0  0
   58.6919   34.1469   43.7672 H   0  0  0  0  0  0  0  0  0  0  0  0
   59.2810   34.9770   45.6830 C   0  0  0  0  0  0  0  0  0  0  0  0
   59.7203   35.8842   45.2426 H   0  0  0  0  0  0  0  0  0  0  0  0
   59.2940   34.7960   47.0660 C   0  0  0  0  0  0  0  0  0  0  0  0
   59.7465   35.5544   47.7219 H   0  0  0  0  0  0  0  0  0  0  0  0
  1  2  1  0
  2  3  2  0
  3  4  1  0
  4  5  1  0
  5  6  2  0
  6  7  1  0
  7  8  2  0
  8  9  1  0
  9 10  2  0
 10 11  1  0
 10 12  1  0
 12 13  1  0
 12 14  2  0
 14 15  1  0
 14 16  1  0
 16 17  1  0
 16 18  2  0
 18 19  1  0
 19 20  1  0
 20 21  1  0
 20 22  1  0
 20 23  1  0
  7 24  1  0
 24 25  1  0
 25 26  1  0
 25 27  2  0
 27 28  1  0
  4 29  2  0
 29 30  1  0
 29 31  1  0
 31 32  1  0
 31 33  2  0
 33 34  1  0
 33  2  1  0
 27  5  1  0
 18  9  1  0
M  CHG  1  24  -1
M  END
>  <UniqueID>  (41) 
41

>  <SMILES>  (41) 
COc1ccccc1/N=c1/nc(-c2ccccn2)cc[n-]1

>  <Energy>  (41) 
47.57702226620053

>  <Genealogy>  (41) 
COc1ccccc1N=c1nc(-c2ccccn2)cc[n-]1 (protonated)
COc1ccccc1/N=c1/nc(-c2ccccn2)cc[n-]1 (cis-trans isomerization)
COc1ccccc1/N=c1/nc(-c2ccccn2)cc[n-]1 (3D coordinates assigned)
COc1ccccc1/N=c1/nc(-c2ccccn2)cc[n-]1 (optimized conformer: 47.57702226620053 kcal/mol)

>  <smiles>  (41) 
COc1ccccc1N=c1nc(-c2ccccn2)cc[nH]1

>  <score_type>  (41) 
oracle

>  <origin>  (41) 
adg

>  <m_score__min__energy>  (41) 
-10.279999999999999

>  <m_primary>  (41) 
energy

$$$$
41:0
     RDKit          3D

 57 60  0  0  0  0  0  0  0  0999 V2000
   56.9410   22.7120   45.5360 C   0  0  0  0  0  0  0  0  0  0  0  0
   56.8820   23.5890   44.3600 N   0  0  0  0  0  0  0  0  0  0  0  0
   56.5330   23.0080   43.0570 C   0  0  0  0  0  0  0  0  0  0  0  0
   57.1560   25.0100   44.4840 C   0  0  0  0  0  0  0  0  0  0  0  0
   57.7750   25.7230   43.4380 C   0  0  0  0  0  0  0  0  0  0  0  0
   58.0370   27.0910   43.5580 C   0  0  0  0  0  0  0  0  0  0  0  0
   57.6860   27.7870   44.7270 C   0  0  0  0  0  0  0  0  0  0  0  0
   57.9620   29.1980   44.8550 N   0  0  0  0  0  0  0  0  0  0  0  0
   58.9090   29.6650   45.8750 C   0  0  0  0  0  0  0  0  0  0  0  0
   59.3250   31.1160   45.6070 C   0  0  0  0  0  0  0  0  0  0  0  0
   58.1380   31.9950   45.5000 N   0  0  0  0  0  0  0  0  0  0  0  0
   58.5770   33.3760   45.1800 C   0  0  0  0  0  0  0  0  0  0  0  0
   58.9740   34.1970   46.4280 C   0  0  0  0  0  0  0  0  0  0  0  0
   59.7320   33.3800   47.3970 N   0  0  0  0  0  0  0  0  0  0  0  0
   58.9980   32.6880   48.4330 C   0  0  0  0  0  0  0  0  0  0  0  0
   57.7360   32.7200   48.4590 O   0  0  0  0  0  0  0  0  0  0  0  0
   59.7240   31.8700   49.4580 C   0  0  0  0  0  0  0  0  0  0  0  0
   61.0340   32.3810   49.6810 O   0  0  0  0  0  0  0  0  0  0  0  0
   61.8060   32.9120   48.6470 C   0  0  0  0  0  0  0  0  0  0  0  0
   63.1950   32.9850   48.7980 C   0  0  0  0  0  0  0  0  0  0  0  0
   63.9880   33.4730   47.7600 C   0  0  0  0  0  0  0  0  0  0  0  0
   63.3950   33.8860   46.5670 C   0  0  0  0  0  0  0  0  0  0  0  0
   62.0060   33.8370   46.4140 C   0  0  0  0  0  0  0  0  0  0  0  0
   61.1850   33.3730   47.4660 C   0  0  0  0  0  0  0  0  0  0  0  0
   57.1150   31.4980   44.5250 C   0  0  0  0  0  0  0  0  0  0  0  0
   57.4610   30.1530   43.8600 C   0  0  0  0  0  0  0  0  0  0  0  0
   57.0760   27.0810   45.7760 C   0  0  0  0  0  0  0  0  0  0  0  0
   56.8130   25.7130   45.6560 C   0  0  0  0  0  0  0  0  0  0  0  0
   56.9000   23.3218   46.4506 H   0  0  0  0  0  0  0  0  0  0  0  0
   56.0875   22.0183   45.5193 H   0  0  0  0  0  0  0  0  0  0  0  0
   57.8797   22.1389   45.5193 H   0  0  0  0  0  0  0  0  0  0  0  0
   55.9721   22.0742   43.2103 H   0  0  0  0  0  0  0  0  0  0  0  0
   55.9128   23.7198   42.4924 H   0  0  0  0  0  0  0  0  0  0  0  0
   57.4527   22.7948   42.4924 H   0  0  0  0  0  0  0  0  0  0  0  0
   58.0559   25.1959   42.5143 H   0  0  0  0  0  0  0  0  0  0  0  0
   58.5225   27.6275   42.7295 H   0  0  0  0  0  0  0  0  0  0  0  0
   58.4328   29.6032   46.8647 H   0  0  0  0  0  0  0  0  0  0  0  0
   59.8058   29.0289   45.8415 H   0  0  0  0  0  0  0  0  0  0  0  0
   59.9598   31.4672   46.4338 H   0  0  0  0  0  0  0  0  0  0  0  0
   59.8768   31.1534   44.6562 H   0  0  0  0  0  0  0  0  0  0  0  0
   57.7020   32.0070   46.4520 H   0  0  0  0  0  0  0  0  0  0  0  0
   59.4465   33.3190   44.5087 H   0  0  0  0  0  0  0  0  0  0  0  0
   57.7238   33.8883   44.7114 H   0  0  0  0  0  0  0  0  0  0  0  0
   59.5972   35.0469   46.1129 H   0  0  0  0  0  0  0  0  0  0  0  0
   58.0530   34.5459   46.9179 H   0  0  0  0  0  0  0  0  0  0  0  0
   59.1618   31.8954   50.4031 H   0  0  0  0  0  0  0  0  0  0  0  0
   59.8078   30.8373   49.0884 H   0  0  0  0  0  0  0  0  0  0  0  0
   63.6627   32.6566   49.7379 H   0  0  0  0  0  0  0  0  0  0  0  0
   65.0796   33.5322   47.8818 H   0  0  0  0  0  0  0  0  0  0  0  0
   64.0235   34.2523   45.7419 H   0  0  0  0  0  0  0  0  0  0  0  0
   61.5492   34.1621   45.4676 H   0  0  0  0  0  0  0  0  0  0  0  0
   56.1607   31.3807   45.0594 H   0  0  0  0  0  0  0  0  0  0  0  0
   57.0690   32.2421   43.7162 H   0  0  0  0  0  0  0  0  0  0  0  0
   56.5577   29.7410   43.3865 H   0  0  0  0  0  0  0  0  0  0  0  0
   58.2434   30.3217   43.1054 H   0  0  0  0  0  0  0  0  0  0  0  0
   56.8023   27.6092   46.7013 H   0  0  0  0  0  0  0  0  0  0  0  0
   56.3317   25.1782   46.4880 H   0  0  0  0  0  0  0  0  0  0  0  0
  1  2  1  0
  2  3  1  0
  2  4  1  0
  4  5  2  0
  5  6  1  0
  6  7  2  0
  7  8  1  0
  8  9  1  0
  9 10  1  0
 10 11  1  0
 11 12  1  0
 12 13  1  0
 13 14  1  0
 14 15  1  0
 15 16  2  0
 15 17  1  0
 17 18  1  0
 18 19  1  0
 19 20  2  0
 20 21  1  0
 21 22  2  0
 22 23  1  0
 23 24  2  0
 11 25  1  0
 25 26  1  0
  7 27  1  0
 27 28  2  0
 28  4  1  0
 26  8  1  0
 24 14  1  0
 24 19  1  0
  1 29  1  0
  1 30  1  0
  1 31  1  0
  3 32  1  0
  3 33  1  0
  3 34  1  0
  5 35  1  0
  6 36  1  0
  9 37  1  0
  9 38  1  0
 10 39  1  0
 10 40  1  0
 11 41  1  0
 12 42  1  0
 12 43  1  0
 13 44  1  0
 13 45  1  0
 17 46  1  0
 17 47  1  0
 20 48  1  0
 21 49  1  0
 22 50  1  0
 23 51  1  0
 25 52  1  0
 25 53  1  0
 26 54  1  0
 26 55  1  0
 27 56  1  0
 28 57  1  0
M  CHG  1  11   1
M  END
>  <UniqueID>  (42) 
42

>  <SMILES>  (42) 
CN(C)c1ccc(N2CC[NH+](CCN3C(=O)COc4ccccc43)CC2)cc1

>  <Energy>  (42) 
77.35044409808334

>  <Genealogy>  (42) 
CN(C)c1ccc(N2CC[NH+](CCN3C(=O)COc4ccccc43)CC2)cc1 (protonated)
CN(C)c1ccc(N2CC[NH+](CCN3C(=O)COc4ccccc43)CC2)cc1 (3D coordinates assigned)
CN(C)c1ccc(N2CC[NH+](CCN3C(=O)COc4ccccc43)CC2)cc1 (nonaromatic ring conformer: 77.35044409808334 kcal/mol)

>  <smiles>  (42) 
CN(C)c1ccc(N2CCN(CCN3C(=O)COc4ccccc43)CC2)cc1

>  <score_type>  (42) 
oracle

>  <origin>  (42) 
adg

>  <m_score__min__energy>  (42) 
-5.71

>  <m_primary>  (42) 
energy

$$$$
42:0
     RDKit          3D

 25 26  0  0  0  0  0  0  0  0999 V2000
   58.8846   34.9030   47.6715 H   0  0  0  0  0  0  0  0  0  0  0  0
   58.6820   34.3310   46.7540 C   0  0  0  0  0  0  0  0  0  0  0  0
   57.8190   32.8910   46.6610 S   0  0  0  0  0  0  0  0  0  0  0  0
   57.9700   32.6890   44.9980 C   0  0  0  0  0  0  0  0  0  0  0  0
   57.3950   31.5740   44.2220 C   0  0  0  0  0  0  0  0  0  0  0  0
   57.4700   31.5920   42.9660 O   0  0  0  0  0  0  0  0  0  0  0  0
   56.8220   30.4270   44.8680 N   0  0  0  0  0  0  0  0  0  0  0  0
   57.2020   29.1850   44.7490 C   0  0  0  0  0  0  0  0  0  0  0  0
   57.0640   28.2520   45.8000 C   0  0  0  0  0  0  0  0  0  0  0  0
   56.6315   28.5642   46.7620 H   0  0  0  0  0  0  0  0  0  0  0  0
   57.4800   26.9270   45.6130 C   0  0  0  0  0  0  0  0  0  0  0  0
   57.3840   25.9390   46.7390 C   0  0  0  0  0  0  0  0  0  0  0  0
   57.4358   26.4720   47.6999 H   0  0  0  0  0  0  0  0  0  0  0  0
   56.4290   25.3974   46.6711 H   0  0  0  0  0  0  0  0  0  0  0  0
   58.2169   25.2236   46.6711 H   0  0  0  0  0  0  0  0  0  0  0  0
   58.0420   26.5520   44.3890 C   0  0  0  0  0  0  0  0  0  0  0  0
   58.3996   25.5231   44.2359 H   0  0  0  0  0  0  0  0  0  0  0  0
   58.1460   27.4910   43.3640 C   0  0  0  0  0  0  0  0  0  0  0  0
   58.5736   27.1975   42.3939 H   0  0  0  0  0  0  0  0  0  0  0  0
   57.7210   28.7690   43.5580 N   0  0  0  0  0  0  0  0  0  0  0  0
   57.8140   29.4490   42.7690 H   0  0  0  0  0  0  0  0  0  0  0  0
   58.6950   33.7620   44.4900 C   0  0  0  0  0  0  0  0  0  0  0  0
   58.9304   33.8816   43.4222 H   0  0  0  0  0  0  0  0  0  0  0  0
   59.0950   34.6740   45.4730 C   0  0  0  0  0  0  0  0  0  0  0  0
   59.6816   35.5779   45.2519 H   0  0  0  0  0  0  0  0  0  0  0  0
  1  2  1  0
  2  3  1  0
  3  4  1  0
  4  5  1  0
  5  6  2  0
  5  7  1  0
  7  8  2  0
  8  9  1  0
  9 10  1  0
  9 11  2  0
 11 12  1  0
 12 13  1  0
 12 14  1  0
 12 15  1  0
 11 16  1  0
 16 17  1  0
 16 18  2  0
 18 19  1  0
 18 20  1  0
 20 21  1  0
  4 22  2  0
 22 23  1  0
 22 24  1  0
 24 25  1  0
 24  2  2  0
 20  8  1  0
M  END
>  <UniqueID>  (43) 
43

>  <SMILES>  (43) 
Cc1cc[nH]/c(=N/C(=O)c2cccs2)c1

>  <Energy>  (43) 
59.61934343974593

>  <Genealogy>  (43) 
Cc1cc[nH]/c(=N/C(=O)c2cccs2)c1 (cis-trans isomerization)
Cc1cc[nH]/c(=N/C(=O)c2cccs2)c1 (3D coordinates assigned)
Cc1cc[nH]/c(=N/C(=O)c2cccs2)c1 (optimized conformer: 59.61934343974593 kcal/mol)

>  <smiles>  (43) 
Cc1cc[nH]c(=NC(=O)c2cccs2)c1

>  <score_type>  (43) 
oracle

>  <origin>  (43) 
adg

>  <m_score__min__energy>  (43) 
-6.0899999999999999

>  <m_primary>  (43) 
energy

$$$$
43:0
     RDKit          3D

 43 45  0  0  0  0  0  0  0  0999 V2000
   57.3940   31.6140   42.2180 C   0  0  0  0  0  0  0  0  0  0  0  0
   56.6390   30.4640   42.8770 C   0  0  0  0  0  0  0  0  0  0  0  0
   57.2310   30.0560   44.2320 C   0  0  0  0  0  0  0  0  0  0  0  0
   57.0120   31.0660   45.2190 O   0  0  0  0  0  0  0  0  0  0  0  0
   57.7560   32.2470   45.3900 C   0  0  0  0  0  0  0  0  0  0  0  0
   57.3280   33.5060   44.9340 C   0  0  0  0  0  0  0  0  0  0  0  0
   58.0990   34.6030   45.1410 N   0  0  0  0  0  0  0  0  0  0  0  0
   59.2960   34.5340   45.7800 C   0  0  0  0  0  0  0  0  0  0  0  0
   59.7770   33.3020   46.2530 C   0  0  0  0  0  0  0  0  0  0  0  0
   61.0760   33.1900   46.9660 C   0  0  0  0  0  0  0  0  0  0  0  0
   62.2340   33.8520   46.5160 C   0  0  0  0  0  0  0  0  0  0  0  0
   63.4000   33.7130   47.2000 N   0  0  0  0  0  0  0  0  0  0  0  0
   63.4760   32.9440   48.3170 C   0  0  0  0  0  0  0  0  0  0  0  0
   64.6810   32.8130   49.0110 C   0  0  0  0  0  0  0  0  0  0  0  0
   64.7490   32.0070   50.1660 C   0  0  0  0  0  0  0  0  0  0  0  0
   65.9390   31.8480   50.8930 O   0  0  0  0  0  0  0  0  0  0  0  0
   67.1130   32.6300   50.6980 C   0  0  0  0  0  0  0  0  0  0  0  0
   63.5990   31.3350   50.6160 C   0  0  0  0  0  0  0  0  0  0  0  0
   63.7020   30.5400   51.7700 O   0  0  0  0  0  0  0  0  0  0  0  0
   64.5010   29.3650   51.8720 C   0  0  0  0  0  0  0  0  0  0  0  0
   62.3860   31.4720   49.9100 C   0  0  0  0  0  0  0  0  0  0  0  0
   62.3270   32.2720   48.7680 C   0  0  0  0  0  0  0  0  0  0  0  0
   61.1630   32.4120   48.0800 N   0  0  0  0  0  0  0  0  0  0  0  0
   58.9810   32.1610   46.0570 C   0  0  0  0  0  0  0  0  0  0  0  0
   57.8214   32.2650   42.9949 H   0  0  0  0  0  0  0  0  0  0  0  0
   58.2033   31.2102   41.5919 H   0  0  0  0  0  0  0  0  0  0  0  0
   56.7017   32.1961   41.5919 H   0  0  0  0  0  0  0  0  0  0  0  0
   55.5943   30.7726   43.0297 H   0  0  0  0  0  0  0  0  0  0  0  0
   56.7170   29.5938   42.2087 H   0  0  0  0  0  0  0  0  0  0  0  0
   56.7555   29.1213   44.5640 H   0  0  0  0  0  0  0  0  0  0  0  0
   58.3156   29.9187   44.1101 H   0  0  0  0  0  0  0  0  0  0  0  0
   56.3664   33.6019   44.4085 H   0  0  0  0  0  0  0  0  0  0  0  0
   59.8912   35.4472   45.9276 H   0  0  0  0  0  0  0  0  0  0  0  0
   62.1952   34.4798   45.6136 H   0  0  0  0  0  0  0  0  0  0  0  0
   65.5790   33.3398   48.6558 H   0  0  0  0  0  0  0  0  0  0  0  0
   67.5335   32.9101   51.6751 H   0  0  0  0  0  0  0  0  0  0  0  0
   67.8541   32.0445   50.1341 H   0  0  0  0  0  0  0  0  0  0  0  0
   66.8583   33.5395   50.1341 H   0  0  0  0  0  0  0  0  0  0  0  0
   64.6649   29.1240   52.9327 H   0  0  0  0  0  0  0  0  0  0  0  0
   63.9848   28.5268   51.3810 H   0  0  0  0  0  0  0  0  0  0  0  0
   65.4702   29.5369   51.3810 H   0  0  0  0  0  0  0  0  0  0  0  0
   61.4847   30.9474   50.2600 H   0  0  0  0  0  0  0  0  0  0  0  0
   59.3266   31.1870   46.4336 H   0  0  0  0  0  0  0  0  0  0  0  0
  1  2  1  0
  2  3  1  0
  3  4  1  0
  4  5  1  0
  5  6  2  0
  6  7  1  0
  7  8  2  0
  8  9  1  0
  9 10  1  0
 10 11  2  0
 11 12  1  0
 12 13  2  0
 13 14  1  0
 14 15  2  0
 15 16  1  0
 16 17  1  0
 15 18  1  0
 18 19  1  0
 19 20  1  0
 18 21  2  0
 21 22  1  0
 22 23  2  0
  9 24  2  0
 24  5  1  0
 23 10  1  0
 22 13  1  0
  1 25  1  0
  1 26  1  0
  1 27  1  0
  2 28  1  0
  2 29  1  0
  3 30  1  0
  3 31  1  0
  6 32  1  0
  8 33  1  0
 11 34  1  0
 14 35  1  0
 17 36  1  0
 17 37  1  0
 17 38  1  0
 20 39  1  0
 20 40  1  0
 20 41  1  0
 21 42  1  0
 24 43  1  0
M  END
>  <UniqueID>  (44) 
44

>  <SMILES>  (44) 
CCCOc1cncc(-c2cnc3cc(OC)c(OC)cc3n2)c1

>  <Energy>  (44) 
50.437168244541596

>  <Genealogy>  (44) 
CCCOc1cncc(-c2cnc3cc(OC)c(OC)cc3n2)c1 (3D coordinates assigned)
CCCOc1cncc(-c2cnc3cc(OC)c(OC)cc3n2)c1 (optimized conformer: 50.437168244541596 kcal/mol)

>  <smiles>  (44) 
CCCOc1cncc(-c2cnc3cc(OC)c(OC)cc3n2)c1

>  <score_type>  (44) 
oracle

>  <origin>  (44) 
adg

>  <m_score__min__energy>  (44) 
-6.4400000000000004

>  <m_primary>  (44) 
energy

$$$$
44:0
     RDKit          3D

 70 74  0  0  0  0  0  0  0  0999 V2000
   60.9630   27.8610   51.3380 C   0  0  0  0  0  0  0  0  0  0  0  0
   60.4210   28.9810   52.1260 N   0  0  0  0  0  0  0  0  0  0  0  0
   59.3420   29.6330   51.3640 C   0  0  0  0  0  0  0  0  0  0  0  0
   61.4990   29.9410   52.4430 C   0  0  0  0  0  0  0  0  0  0  0  0
   62.7430   29.2160   52.9740 C   0  0  0  0  0  0  0  0  0  0  0  0
   63.7400   29.1290   51.9540 O   0  0  0  0  0  0  0  0  0  0  0  0
   64.5710   30.1820   51.5390 C   0  0  0  0  0  0  0  0  0  0  0  0
   65.9550   29.9740   51.5420 C   0  0  0  0  0  0  0  0  0  0  0  0
   66.8230   30.9810   51.1180 C   0  0  0  0  0  0  0  0  0  0  0  0
   66.3170   32.2140   50.6970 C   0  0  0  0  0  0  0  0  0  0  0  0
   64.9330   32.4490   50.7050 C   0  0  0  0  0  0  0  0  0  0  0  0
   64.3800   33.7950   50.2970 C   0  0  0  0  0  0  0  0  0  0  0  0
   63.4510   33.6830   49.1470 N   0  0  0  0  0  0  0  0  0  0  0  0
   62.0620   33.5270   49.6440 C   0  0  0  0  0  0  0  0  0  0  0  0
   61.0660   33.4350   48.4810 C   0  0  0  0  0  0  0  0  0  0  0  0
   61.4910   32.3690   47.5780 N   0  0  0  0  0  0  0  0  0  0  0  0
   60.6960   31.1830   47.4360 C   0  0  0  0  0  0  0  0  0  0  0  0
   59.7730   31.0780   46.3880 C   0  0  0  0  0  0  0  0  0  0  0  0
   58.9900   29.9120   46.2190 C   0  0  0  0  0  0  0  0  0  0  0  0
   59.1130   28.8710   47.1750 C   0  0  0  0  0  0  0  0  0  0  0  0
   60.0540   28.9860   48.2190 C   0  0  0  0  0  0  0  0  0  0  0  0
   60.8470   30.1270   48.3370 C   0  0  0  0  0  0  0  0  0  0  0  0
   61.7390   30.2210   49.3560 F   0  0  0  0  0  0  0  0  0  0  0  0
   58.2780   27.7440   47.0770 C   0  0  0  0  0  0  0  0  0  0  0  0
   58.3780   26.8130   47.9230 O   0  0  0  0  0  0  0  0  0  0  0  0
   57.3250   27.6650   46.0450 C   0  0  0  0  0  0  0  0  0  0  0  0
   56.3860   26.5150   45.9280 C   0  0  0  0  0  0  0  0  0  0  0  0
   55.1410   26.7000   45.9820 O   0  0  0  0  0  0  0  0  0  0  0  0
   56.8570   25.2160   45.7690 O   0  0  0  0  0  0  0  0  0  0  0  0
   57.2650   28.7050   45.1060 C   0  0  0  0  0  0  0  0  0  0  0  0
   58.1140   29.7750   45.1640 N   0  0  0  0  0  0  0  0  0  0  0  0
   57.9880   30.8120   44.1220 C   0  0  0  0  0  0  0  0  0  0  0  0
   57.0320   31.9580   44.4560 C   0  0  0  0  0  0  0  0  0  0  0  0
   56.6070   30.8840   43.4760 C   0  0  0  0  0  0  0  0  0  0  0  0
   62.8680   32.4070   47.0880 C   0  0  0  0  0  0  0  0  0  0  0  0
   63.8280   32.5410   48.2770 C   0  0  0  0  0  0  0  0  0  0  0  0
   64.0640   31.4310   51.1290 C   0  0  0  0  0  0  0  0  0  0  0  0
   61.3396   27.0827   52.0180 H   0  0  0  0  0  0  0  0  0  0  0  0
   60.1686   27.4407   50.7037 H   0  0  0  0  0  0  0  0  0  0  0  0
   61.7855   28.2231   50.7037 H   0  0  0  0  0  0  0  0  0  0  0  0
   58.6143   30.0727   52.0619 H   0  0  0  0  0  0  0  0  0  0  0  0
   59.7675   30.4253   50.7305 H   0  0  0  0  0  0  0  0  0  0  0  0
   58.8385   28.8879   50.7305 H   0  0  0  0  0  0  0  0  0  0  0  0
   61.7672   30.4946   51.5311 H   0  0  0  0  0  0  0  0  0  0  0  0
   61.1369   30.6303   53.2200 H   0  0  0  0  0  0  0  0  0  0  0  0
   63.1489   29.7726   53.8315 H   0  0  0  0  0  0  0  0  0  0  0  0
   62.4593   28.1996   53.2844 H   0  0  0  0  0  0  0  0  0  0  0  0
   66.3615   29.0097   51.8810 H   0  0  0  0  0  0  0  0  0  0  0  0
   67.9086   30.8039   51.1151 H   0  0  0  0  0  0  0  0  0  0  0  0
   67.0052   33.0025   50.3584 H   0  0  0  0  0  0  0  0  0  0  0  0
   63.8397   34.2313   51.1500 H   0  0  0  0  0  0  0  0  0  0  0  0
   65.2231   34.4335   49.9945 H   0  0  0  0  0  0  0  0  0  0  0  0
   63.5000   34.5690   48.5880 H   0  0  0  0  0  0  0  0  0  0  0  0
   61.9970   32.6087   50.2461 H   0  0  0  0  0  0  0  0  0  0  0  0
   61.8079   34.4074   50.2526 H   0  0  0  0  0  0  0  0  0  0  0  0
   60.0624   33.2103   48.8712 H   0  0  0  0  0  0  0  0  0  0  0  0
   61.0354   34.3921   47.9397 H   0  0  0  0  0  0  0  0  0  0  0  0
   59.6550   31.9157   45.6849 H   0  0  0  0  0  0  0  0  0  0  0  0
   60.1635   28.1684   48.9467 H   0  0  0  0  0  0  0  0  0  0  0  0
   56.5155   28.6586   44.3022 H   0  0  0  0  0  0  0  0  0  0  0  0
   59.0252   30.7447   43.7620 H   0  0  0  0  0  0  0  0  0  0  0  0
   56.5640   32.0112   45.4501 H   0  0  0  0  0  0  0  0  0  0  0  0
   57.0950   33.0558   44.4262 H   0  0  0  0  0  0  0  0  0  0  0  0
   55.8300   30.1588   43.7593 H   0  0  0  0  0  0  0  0  0  0  0  0
   56.2337   30.8820   42.4413 H   0  0  0  0  0  0  0  0  0  0  0  0
   63.0887   31.4786   46.5409 H   0  0  0  0  0  0  0  0  0  0  0  0
   62.9948   33.2673   46.4144 H   0  0  0  0  0  0  0  0  0  0  0  0
   63.7975   31.6142   48.8687 H   0  0  0  0  0  0  0  0  0  0  0  0
   64.8410   32.7202   47.8875 H   0  0  0  0  0  0  0  0  0  0  0  0
   62.9787   31.6100   51.1412 H   0  0  0  0  0  0  0  0  0  0  0  0
  1  2  1  0
  2  3  1  0
  2  4  1  0
  4  5  1  0
  5  6  1  0
  6  7  1  0
  7  8  2  0
  8  9  1  0
  9 10  2  0
 10 11  1  0
 11 12  1  0
 12 13  1  0
 13 14  1  0
 14 15  1  0
 15 16  1  0
 16 17  1  0
 17 18  2  0
 18 19  1  0
 19 20  2  0
 20 21  1  0
 21 22  2  0
 22 23  1  0
 20 24  1  0
 24 25  2  0
 24 26  1  0
 26 27  1  0
 27 28  2  0
 27 29  1  0
 26 30  2  0
 30 31  1  0
 31 32  1  0
 32 33  1  0
 33 34  1  0
 16 35  1  0
 35 36  1  0
 11 37  2  0
 37  7  1  0
 36 13  1  0
 22 17  1  0
 34 32  1  0
 31 19  1  0
  1 38  1  0
  1 39  1  0
  1 40  1  0
  3 41  1  0
  3 42  1  0
  3 43  1  0
  4 44  1  0
  4 45  1  0
  5 46  1  0
  5 47  1  0
  8 48  1  0
  9 49  1  0
 10 50  1  0
 12 51  1  0
 12 52  1  0
 13 53  1  0
 14 54  1  0
 14 55  1  0
 15 56  1  0
 15 57  1  0
 18 58  1  0
 21 59  1  0
 30 60  1  0
 32 61  1  0
 33 62  1  0
 33 63  1  0
 34 64  1  0
 34 65  1  0
 35 66  1  0
 35 67  1  0
 36 68  1  0
 36 69  1  0
 37 70  1  0
M  CHG  2  13   1  29  -1
M  END
>  <UniqueID>  (45) 
45

>  <SMILES>  (45) 
CN(C)CCOc1cccc(C[NH+]2CCN(c3cc4c(cc3F)c(=O)c(C(=O)[O-])cn4C3CC3)CC2)c1

>  <Energy>  (45) 
356.26117753619735

>  <Genealogy>  (45) 
CN(C)CCOc1cccc(C[NH+]2CCN(c3cc4c(cc3F)c(=O)c(C(=O)[O-])cn4C3CC3)CC2)c1 (protonated)
CN(C)CCOc1cccc(C[NH+]2CCN(c3cc4c(cc3F)c(=O)c(C(=O)[O-])cn4C3CC3)CC2)c1 (3D coordinates assigned)
CN(C)CCOc1cccc(C[NH+]2CCN(c3cc4c(cc3F)c(=O)c(C(=O)[O-])cn4C3CC3)CC2)c1 (nonaromatic ring conformer: 356.26117753619735 kcal/mol)

>  <smiles>  (45) 
CN(C)CCOc1cccc(CN2CCN(c3cc4c(cc3F)c(=O)c(C(=O)O)cn4C3CC3)CC2)c1

>  <score_type>  (45) 
oracle

>  <origin>  (45) 
adg

>  <m_score__min__energy>  (45) 
-9.7400000000000002

>  <m_primary>  (45) 
energy

$$$$
45:0
     RDKit          3D

 42 42  0  0  0  0  0  0  0  0999 V2000
   53.6400   24.3220   45.3810 C   0  0  0  0  0  0  0  0  0  0  0  0
   55.0910   24.7780   45.4830 C   0  0  0  0  0  0  0  0  0  0  0  0
   55.1530   26.0970   45.9920 O   0  0  0  0  0  0  0  0  0  0  0  0
   56.4600   26.3980   46.4400 C   0  0  0  0  0  0  0  0  0  0  0  0
   57.4610   26.1980   45.2980 C   0  0  0  0  0  0  0  0  0  0  0  0
   57.8280   27.5090   44.5950 C   0  0  0  0  0  0  0  0  0  0  0  0
   57.3150   28.6490   45.3430 N   0  0  0  0  0  0  0  0  0  0  0  0
   56.3820   29.5850   44.7940 C   0  0  0  0  0  0  0  0  0  0  0  0
   55.1450   29.3440   44.8360 O   0  0  0  0  0  0  0  0  0  0  0  0
   56.8770   30.8210   44.1720 C   0  0  0  0  0  0  0  0  0  0  0  0
   56.7000   31.0010   42.9370 O   0  0  0  0  0  0  0  0  0  0  0  0
   57.5460   31.8210   44.9580 N   0  0  0  0  0  0  0  0  0  0  0  0
   57.7810   33.1770   44.4660 C   0  0  0  0  0  0  0  0  0  0  0  0
   58.5750   33.9870   45.4950 C   0  0  0  0  0  0  0  0  0  0  0  0
   59.0480   33.1520   46.5530 O   0  0  0  0  0  0  0  0  0  0  0  0
   60.3950   32.8600   46.8260 C   0  0  0  0  0  0  0  0  0  0  0  0
   61.4140   33.8280   46.7180 C   0  0  0  0  0  0  0  0  0  0  0  0
   62.7390   33.4920   47.0080 C   0  0  0  0  0  0  0  0  0  0  0  0
   63.0620   32.1930   47.4070 C   0  0  0  0  0  0  0  0  0  0  0  0
   62.0600   31.2270   47.5150 C   0  0  0  0  0  0  0  0  0  0  0  0
   60.7310   31.5560   47.2250 C   0  0  0  0  0  0  0  0  0  0  0  0
   59.4860   30.3270   47.3940 Cl  0  0  0  0  0  0  0  0  0  0  0  0
   53.2248   24.1915   46.3912 H   0  0  0  0  0  0  0  0  0  0  0  0
   53.0548   25.0795   44.8391 H   0  0  0  0  0  0  0  0  0  0  0  0
   53.5934   23.3659   44.8391 H   0  0  0  0  0  0  0  0  0  0  0  0
   55.6380   24.1022   46.1569 H   0  0  0  0  0  0  0  0  0  0  0  0
   55.5454   24.7575   44.4815 H   0  0  0  0  0  0  0  0  0  0  0  0
   56.4976   27.4437   46.7792 H   0  0  0  0  0  0  0  0  0  0  0  0
   56.7211   25.7278   47.2723 H   0  0  0  0  0  0  0  0  0  0  0  0
   58.3781   25.7505   45.7086 H   0  0  0  0  0  0  0  0  0  0  0  0
   56.9867   25.5433   44.5521 H   0  0  0  0  0  0  0  0  0  0  0  0
   58.9228   27.5867   44.5221 H   0  0  0  0  0  0  0  0  0  0  0  0
   57.3804   27.5117   43.5902 H   0  0  0  0  0  0  0  0  0  0  0  0
   57.7250   31.6370   45.9710 H   0  0  0  0  0  0  0  0  0  0  0  0
   58.3499   33.1281   43.5258 H   0  0  0  0  0  0  0  0  0  0  0  0
   56.8116   33.6682   44.2956 H   0  0  0  0  0  0  0  0  0  0  0  0
   59.4355   34.4566   44.9960 H   0  0  0  0  0  0  0  0  0  0  0  0
   57.9117   34.7524   45.9241 H   0  0  0  0  0  0  0  0  0  0  0  0
   61.1650   34.8524   46.4040 H   0  0  0  0  0  0  0  0  0  0  0  0
   63.5294   34.2522   46.9219 H   0  0  0  0  0  0  0  0  0  0  0  0
   64.1056   31.9313   47.6361 H   0  0  0  0  0  0  0  0  0  0  0  0
   62.3158   30.2043   47.8290 H   0  0  0  0  0  0  0  0  0  0  0  0
  1  2  1  0
  2  3  1  0
  3  4  1  0
  4  5  1  0
  5  6  1  0
  6  7  1  0
  7  8  1  0
  8  9  2  0
  8 10  1  0
 10 11  2  0
 10 12  1  0
 12 13  1  0
 13 14  1  0
 14 15  1  0
 15 16  1  0
 16 17  2  0
 17 18  1  0
 18 19  2  0
 19 20  1  0
 20 21  2  0
 21 22  1  0
 21 16  1  0
  1 23  1  0
  1 24  1  0
  1 25  1  0
  2 26  1  0
  2 27  1  0
  4 28  1  0
  4 29  1  0
  5 30  1  0
  5 31  1  0
  6 32  1  0
  6 33  1  0
 12 34  1  0
 13 35  1  0
 13 36  1  0
 14 37  1  0
 14 38  1  0
 17 39  1  0
 18 40  1  0
 19 41  1  0
 20 42  1  0
M  CHG  1   7  -1
M  END
>  <UniqueID>  (46) 
46

>  <SMILES>  (46) 
CCOCCC[N-]C(=O)C(=O)NCCOc1ccccc1Cl

>  <Energy>  (46) 
28.160634507891917

>  <Genealogy>  (46) 
CCOCCC[N-]C(=O)C(=O)NCCOc1ccccc1Cl (protonated)
CCOCCC[N-]C(=O)C(=O)NCCOc1ccccc1Cl (3D coordinates assigned)
CCOCCC[N-]C(=O)C(=O)NCCOc1ccccc1Cl (optimized conformer: 28.160634507891917 kcal/mol)

>  <smiles>  (46) 
CCOCCCNC(=O)C(=O)NCCOc1ccccc1Cl

>  <score_type>  (46) 
oracle

>  <origin>  (46) 
adg

>  <m_score__min__energy>  (46) 
-9.25

>  <m_primary>  (46) 
energy

$$$$
46:0
     RDKit          3D

 44 46  0  0  0  0  0  0  0  0999 V2000
   63.7470   33.7140   47.6940 C   0  0  0  0  0  0  0  0  0  0  0  0
   63.3280   33.8540   49.1550 C   0  0  0  0  0  0  0  0  0  0  0  0
   61.8470   34.2260   49.2730 C   0  0  0  0  0  0  0  0  0  0  0  0
   61.0270   33.4610   48.2670 C   0  0  0  0  0  0  0  0  0  0  0  0
   61.0070   32.0610   48.2930 C   0  0  0  0  0  0  0  0  0  0  0  0
   60.2230   31.3460   47.3850 C   0  0  0  0  0  0  0  0  0  0  0  0
   59.4350   32.0180   46.4270 C   0  0  0  0  0  0  0  0  0  0  0  0
   58.6290   31.3170   45.4900 C   0  0  0  0  0  0  0  0  0  0  0  0
   58.5940   29.8360   45.4680 C   0  0  0  0  0  0  0  0  0  0  0  0
   59.3160   29.1210   44.5030 C   0  0  0  0  0  0  0  0  0  0  0  0
   59.2560   27.7260   44.4810 C   0  0  0  0  0  0  0  0  0  0  0  0
   58.4720   27.0610   45.4250 C   0  0  0  0  0  0  0  0  0  0  0  0
   57.7750   27.7680   46.3540 N   0  0  0  0  0  0  0  0  0  0  0  0
   57.8170   29.1270   46.3950 C   0  0  0  0  0  0  0  0  0  0  0  0
   57.8280   32.0450   44.5770 C   0  0  0  0  0  0  0  0  0  0  0  0
   57.0140   31.3710   43.6000 N   0  0  0  0  0  0  0  0  0  0  0  0
   57.2620   31.5970   42.1770 C   0  0  0  0  0  0  0  0  0  0  0  0
   55.9350   30.4760   44.0180 C   0  0  0  0  0  0  0  0  0  0  0  0
   57.8360   33.4440   44.6040 C   0  0  0  0  0  0  0  0  0  0  0  0
   58.6340   34.1340   45.5120 C   0  0  0  0  0  0  0  0  0  0  0  0
   59.4340   33.4370   46.4240 C   0  0  0  0  0  0  0  0  0  0  0  0
   60.2280   34.1440   47.3410 C   0  0  0  0  0  0  0  0  0  0  0  0
   64.7892   33.3658   47.6432 H   0  0  0  0  0  0  0  0  0  0  0  0
   63.0923   32.9858   47.1929 H   0  0  0  0  0  0  0  0  0  0  0  0
   63.6615   34.6895   47.1929 H   0  0  0  0  0  0  0  0  0  0  0  0
   63.5000   32.8978   49.6708 H   0  0  0  0  0  0  0  0  0  0  0  0
   63.9261   34.6551   49.6137 H   0  0  0  0  0  0  0  0  0  0  0  0
   61.4932   33.9849   50.2863 H   0  0  0  0  0  0  0  0  0  0  0  0
   61.7348   35.3026   49.0772 H   0  0  0  0  0  0  0  0  0  0  0  0
   61.6136   31.5203   49.0344 H   0  0  0  0  0  0  0  0  0  0  0  0
   60.2199   30.2465   47.4171 H   0  0  0  0  0  0  0  0  0  0  0  0
   59.9290   29.6577   43.7640 H   0  0  0  0  0  0  0  0  0  0  0  0
   59.8207   27.1572   43.7276 H   0  0  0  0  0  0  0  0  0  0  0  0
   58.4179   25.9624   45.4174 H   0  0  0  0  0  0  0  0  0  0  0  0
   57.2400   29.6710   47.1573 H   0  0  0  0  0  0  0  0  0  0  0  0
   58.0703   32.3336   42.0581 H   0  0  0  0  0  0  0  0  0  0  0  0
   57.5561   30.6499   41.7011 H   0  0  0  0  0  0  0  0  0  0  0  0
   56.3462   31.9776   41.7011 H   0  0  0  0  0  0  0  0  0  0  0  0
   55.8926   30.4409   45.1166 H   0  0  0  0  0  0  0  0  0  0  0  0
   54.9771   30.8484   43.6258 H   0  0  0  0  0  0  0  0  0  0  0  0
   56.1239   29.4658   43.6258 H   0  0  0  0  0  0  0  0  0  0  0  0
   57.2043   34.0050   43.8995 H   0  0  0  0  0  0  0  0  0  0  0  0
   58.6357   35.2340   45.5126 H   0  0  0  0  0  0  0  0  0  0  0  0
   60.2226   35.2440   47.3322 H   0  0  0  0  0  0  0  0  0  0  0  0
  1  2  1  0
  2  3  1  0
  3  4  1  0
  4  5  2  0
  5  6  1  0
  6  7  2  0
  7  8  1  0
  8  9  1  0
  9 10  2  0
 10 11  1  0
 11 12  2  0
 12 13  1  0
 13 14  2  0
  8 15  2  0
 15 16  1  0
 16 17  1  0
 16 18  1  0
 15 19  1  0
 19 20  2  0
 20 21  1  0
 21 22  2  0
 22  4  1  0
 21  7  1  0
 14  9  1  0
  1 23  1  0
  1 24  1  0
  1 25  1  0
  2 26  1  0
  2 27  1  0
  3 28  1  0
  3 29  1  0
  5 30  1  0
  6 31  1  0
 10 32  1  0
 11 33  1  0
 12 34  1  0
 14 35  1  0
 17 36  1  0
 17 37  1  0
 17 38  1  0
 18 39  1  0
 18 40  1  0
 18 41  1  0
 19 42  1  0
 20 43  1  0
 22 44  1  0
M  END
>  <UniqueID>  (47) 
47

>  <SMILES>  (47) 
CCCc1ccc2c(-c3cccnc3)c(N(C)C)ccc2c1

>  <Energy>  (47) 
56.43374830709458

>  <Genealogy>  (47) 
CCCc1ccc2c(-c3cccnc3)c(N(C)C)ccc2c1 (3D coordinates assigned)
CCCc1ccc2c(-c3cccnc3)c(N(C)C)ccc2c1 (optimized conformer: 56.43374830709458 kcal/mol)

>  <smiles>  (47) 
CCCc1ccc2c(-c3cccnc3)c(N(C)C)ccc2c1

>  <score_type>  (47) 
oracle

>  <origin>  (47) 
adg

>  <m_score__min__energy>  (47) 
-7.2000000000000002

>  <m_primary>  (47) 
energy

$$$$
47:0
     RDKit          3D

 40 43  0  0  0  0  0  0  0  0999 V2000
   57.4000   32.2550   41.6730 C   0  0  0  0  0  0  0  0  0  0  0  0
   57.3920   31.7700   43.0490 N   0  0  0  0  0  0  0  0  0  0  0  0
   56.7050   30.7200   43.5660 C   0  0  0  0  0  0  0  0  0  0  0  0
   55.9900   29.9440   42.8770 O   0  0  0  0  0  0  0  0  0  0  0  0
   56.8580   30.5950   44.8730 O   0  0  0  0  0  0  0  0  0  0  0  0
   57.6440   31.5830   45.2310 C   0  0  0  0  0  0  0  0  0  0  0  0
   58.1060   31.9080   46.5030 C   0  0  0  0  0  0  0  0  0  0  0  0
   58.9380   33.0400   46.6300 C   0  0  0  0  0  0  0  0  0  0  0  0
   59.5680   33.4740   48.2180 S   0  0  0  0  0  0  0  0  0  0  0  0
   58.5530   33.0740   49.2530 O   0  0  0  0  0  0  0  0  0  0  0  0
   59.7650   34.9640   48.3010 O   0  0  0  0  0  0  0  0  0  0  0  0
   61.0730   32.6340   48.5320 N   0  0  0  0  0  0  0  0  0  0  0  0
   61.0490   31.8500   49.7810 C   0  0  0  0  0  0  0  0  0  0  0  0
   60.0680   30.6720   49.7240 C   0  0  0  0  0  0  0  0  0  0  0  0
   60.1440   29.9260   48.4190 C   0  0  0  0  0  0  0  0  0  0  0  0
   59.5110   28.6780   48.3050 C   0  0  0  0  0  0  0  0  0  0  0  0
   59.5150   27.9910   47.0890 C   0  0  0  0  0  0  0  0  0  0  0  0
   60.1460   28.5460   45.9740 C   0  0  0  0  0  0  0  0  0  0  0  0
   60.7700   29.7930   46.0720 C   0  0  0  0  0  0  0  0  0  0  0  0
   60.7590   30.5000   47.2850 C   0  0  0  0  0  0  0  0  0  0  0  0
   61.4920   31.8170   47.3790 C   0  0  0  0  0  0  0  0  0  0  0  0
   59.2770   33.8050   45.4850 C   0  0  0  0  0  0  0  0  0  0  0  0
   58.7910   33.4470   44.2130 C   0  0  0  0  0  0  0  0  0  0  0  0
   57.9760   32.3190   44.1280 C   0  0  0  0  0  0  0  0  0  0  0  0
   57.4182   33.3549   41.6720 H   0  0  0  0  0  0  0  0  0  0  0  0
   58.2920   31.8731   41.1548 H   0  0  0  0  0  0  0  0  0  0  0  0
   56.4959   31.9027   41.1548 H   0  0  0  0  0  0  0  0  0  0  0  0
   57.8317   31.3027   47.3795 H   0  0  0  0  0  0  0  0  0  0  0  0
   62.0592   31.4575   49.9691 H   0  0  0  0  0  0  0  0  0  0  0  0
   60.7154   32.5204   50.5868 H   0  0  0  0  0  0  0  0  0  0  0  0
   60.3031   29.9763   50.5430 H   0  0  0  0  0  0  0  0  0  0  0  0
   59.0501   31.0777   49.8201 H   0  0  0  0  0  0  0  0  0  0  0  0
   59.0086   28.2384   49.1792 H   0  0  0  0  0  0  0  0  0  0  0  0
   59.0205   27.0116   47.0096 H   0  0  0  0  0  0  0  0  0  0  0  0
   60.1521   28.0018   45.0181 H   0  0  0  0  0  0  0  0  0  0  0  0
   61.2728   30.2231   45.1933 H   0  0  0  0  0  0  0  0  0  0  0  0
   62.5690   31.6120   47.4688 H   0  0  0  0  0  0  0  0  0  0  0  0
   61.2545   32.3888   46.4698 H   0  0  0  0  0  0  0  0  0  0  0  0
   59.9260   34.6867   45.5917 H   0  0  0  0  0  0  0  0  0  0  0  0
   59.0450   34.0356   43.3191 H   0  0  0  0  0  0  0  0  0  0  0  0
  1  2  1  0
  2  3  1  0
  3  4  2  0
  3  5  1  0
  5  6  1  0
  6  7  2  0
  7  8  1  0
  8  9  1  0
  9 10  2  0
  9 11  2  0
  9 12  1  0
 12 13  1  0
 13 14  1  0
 14 15  1  0
 15 16  2  0
 16 17  1  0
 17 18  2  0
 18 19  1  0
 19 20  2  0
 20 21  1  0
  8 22  2  0
 22 23  1  0
 23 24  2  0
 24  2  1  0
 24  6  1  0
 21 12  1  0
 20 15  1  0
  1 25  1  0
  1 26  1  0
  1 27  1  0
  7 28  1  0
 13 29  1  0
 13 30  1  0
 14 31  1  0
 14 32  1  0
 16 33  1  0
 17 34  1  0
 18 35  1  0
 19 36  1  0
 21 37  1  0
 21 38  1  0
 22 39  1  0
 23 40  1  0
M  END
>  <UniqueID>  (48) 
48

>  <SMILES>  (48) 
Cn1c(=O)oc2cc(S(=O)(=O)N3CCc4ccccc4C3)ccc21

>  <Energy>  (48) 
89.21724765361277

>  <Genealogy>  (48) 
Cn1c(=O)oc2cc(S(=O)(=O)N3CCc4ccccc4C3)ccc21 (3D coordinates assigned)
Cn1c(=O)oc2cc(S(=O)(=O)N3CCc4ccccc4C3)ccc21 (nonaromatic ring conformer: 89.21724765361277 kcal/mol)

>  <smiles>  (48) 
Cn1c(=O)oc2cc(S(=O)(=O)N3CCc4ccccc4C3)ccc21

>  <score_type>  (48) 
oracle

>  <origin>  (48) 
adg

>  <m_score__min__energy>  (48) 
-8.25

>  <m_primary>  (48) 
energy

$$$$
48:0
     RDKit          3D

 37 38  0  0  0  0  0  0  0  0999 V2000
   58.9050   34.8750   44.8580 C   0  0  0  0  0  0  0  0  0  0  0  0
   58.5850   34.5570   46.3270 C   0  0  1  0  0  0  0  0  0  0  0  0
   57.5310   33.4380   46.4530 C   0  0  0  0  0  0  0  0  0  0  0  0
   58.1010   32.1220   46.1540 N   0  0  0  0  0  0  0  0  0  0  0  0
   57.4320   31.2040   45.2760 C   0  0  0  0  0  0  0  0  0  0  0  0
   56.4380   31.5930   44.6050 O   0  0  0  0  0  0  0  0  0  0  0  0
   57.9140   29.8120   45.1210 C   0  0  0  0  0  0  0  0  0  0  0  0
   59.2920   29.5680   44.9750 C   0  0  0  0  0  0  0  0  0  0  0  0
   59.7690   28.2620   44.8300 C   0  0  0  0  0  0  0  0  0  0  0  0
   58.8770   27.1880   44.8180 C   0  0  0  0  0  0  0  0  0  0  0  0
   57.5050   27.4190   44.9440 C   0  0  0  0  0  0  0  0  0  0  0  0
   57.0200   28.7220   45.0910 C   0  0  0  0  0  0  0  0  0  0  0  0
   55.6780   28.9150   45.1520 F   0  0  0  0  0  0  0  0  0  0  0  0
   59.8520   34.1880   47.0780 C   0  0  0  0  0  0  0  0  0  0  0  0
   61.0070   33.8090   46.3770 C   0  0  0  0  0  0  0  0  0  0  0  0
   62.1700   33.4700   47.0700 C   0  0  0  0  0  0  0  0  0  0  0  0
   62.1760   33.5100   48.4700 C   0  0  0  0  0  0  0  0  0  0  0  0
   63.4160   33.1490   49.2340 C   0  0  0  0  0  0  0  0  0  0  0  0
   63.6340   34.0800   50.2340 F   0  0  0  0  0  0  0  0  0  0  0  0
   63.2640   31.8980   49.8030 F   0  0  0  0  0  0  0  0  0  0  0  0
   64.5170   33.1270   48.3950 F   0  0  0  0  0  0  0  0  0  0  0  0
   61.0480   33.8790   49.1350 N   0  0  0  0  0  0  0  0  0  0  0  0
   59.9020   34.2140   48.4830 C   0  0  0  0  0  0  0  0  0  0  0  0
   59.6846   35.6497   44.8120 H   0  0  0  0  0  0  0  0  0  0  0  0
   59.2628   33.9644   44.3553 H   0  0  0  0  0  0  0  0  0  0  0  0
   57.9967   35.2385   44.3553 H   0  0  0  0  0  0  0  0  0  0  0  0
   58.1571   35.4639   46.7791 H   0  0  0  0  0  0  0  0  0  0  0  0
   57.1387   33.4316   47.4806 H   0  0  0  0  0  0  0  0  0  0  0  0
   56.7294   33.6380   45.7268 H   0  0  0  0  0  0  0  0  0  0  0  0
   59.0390   31.8650   46.5360 H   0  0  0  0  0  0  0  0  0  0  0  0
   59.9989   30.4108   44.9750 H   0  0  0  0  0  0  0  0  0  0  0  0
   60.8488   28.0802   44.7252 H   0  0  0  0  0  0  0  0  0  0  0  0
   59.2543   26.1605   44.7094 H   0  0  0  0  0  0  0  0  0  0  0  0
   56.8033   26.5721   44.9275 H   0  0  0  0  0  0  0  0  0  0  0  0
   60.9957   33.7790   45.2775 H   0  0  0  0  0  0  0  0  0  0  0  0
   63.0756   33.1735   46.5205 H   0  0  0  0  0  0  0  0  0  0  0  0
   59.0106   34.5065   49.0574 H   0  0  0  0  0  0  0  0  0  0  0  0
  1  2  1  0
  2  3  1  0
  3  4  1  0
  4  5  1  0
  5  6  2  0
  5  7  1  0
  7  8  2  0
  8  9  1  0
  9 10  2  0
 10 11  1  0
 11 12  2  0
 12 13  1  0
  2 14  1  0
 14 15  2  0
 15 16  1  0
 16 17  2  0
 17 18  1  0
 18 19  1  0
 18 20  1  0
 18 21  1  0
 17 22  1  0
 22 23  2  0
 12  7  1  0
 23 14  1  0
  1 24  1  0
  1 25  1  0
  1 26  1  0
  2 27  1  1
  3 28  1  0
  3 29  1  0
  4 30  1  0
  8 31  1  0
  9 32  1  0
 10 33  1  0
 11 34  1  0
 15 35  1  0
 16 36  1  0
 23 37  1  0
M  END
>  <UniqueID>  (49) 
49

>  <SMILES>  (49) 
C[C@@H](CNC(=O)c1ccccc1F)c1ccc(C(F)(F)F)nc1

>  <Energy>  (49) 
37.080453842240836

>  <Genealogy>  (49) 
C[C@@H](CNC(=O)c1ccccc1F)c1ccc(C(F)(F)F)nc1 (chirality)
C[C@@H](CNC(=O)c1ccccc1F)c1ccc(C(F)(F)F)nc1 (3D coordinates assigned)
C[C@@H](CNC(=O)c1ccccc1F)c1ccc(C(F)(F)F)nc1 (optimized conformer: 37.080453842240836 kcal/mol)

>  <smiles>  (49) 
CC(CNC(=O)c1ccccc1F)c1ccc(C(F)(F)F)nc1

>  <score_type>  (49) 
oracle

>  <origin>  (49) 
adg

>  <m_score__min__energy>  (49) 
-7.2300000000000004

>  <m_primary>  (49) 
energy

$$$$
